data_PCOD9510578
_publ_section_title
;
Structure prediction by ZEFSAII (Michael W. Deem and Ramdas Pophale) SiO2 
 PCOD9510578
Probable space group: C C C A
;
_chemical_formula_sum "Si O2"
_cell_formula_units_Z 52
_cell_length_a 7.790485
_cell_length_b 16.225780
_cell_length_c 16.526175
_cell_angle_alpha 90.000000
_cell_angle_beta 90.000000
_cell_angle_gamma 90.000000
_cell_volume 2089.019174
_symmetry_space_group_name_H-M "C C C A"
_symmetry_group_IT_number 68
_space_group.IT_coordinate_system_code '2'
_symmetry_cell_setting 'orthorhombic'
loop_
_space_group_symop_operation_xyz
x,y,z
-x,1/2-y,z
x,1/2-y,1/2-z
-x,y,1/2-z
-x,-y,-z
x,1/2+y,-z
-x,1/2+y,1/2+z
x,-y,1/2+z
1/2+x,1/2+y,z
1/2-x,-y,z
1/2+x,-y,1/2-z
1/2-x,1/2+y,1/2-z
1/2-x,1/2-y,-z
1/2+x,y,-z
1/2-x,y,1/2+z
1/2+x,1/2-y,1/2+z
loop_
_atom_site_type_symbol
_atom_site_label
_atom_site_fract_x
_atom_site_fract_y
_atom_site_fract_z
Si Si1 0.888570 0.885937 0.126017
Si Si2 0.002438 0.065274 0.343466
Si Si3 0.878077 0.685274 0.541834
Si Si4 0.500000 0.250000 0.250000
O O1 0.687934 0.910013 0.119489
O O2 0.901203 0.811552 0.189624
O O3 0.994243 0.966316 0.152795
O O4 0.954196 0.858316 0.038132
O O5 0.000000 0.089852 0.250000
O O6 0.855570 0.112015 0.394251
O O7 0.750000 0.750000 0.500000
O O8 0.000000 0.750000 0.587374
#
# Coordination Sequence:
#
# PCOD9510578 Si02
#       4
#    16  16  16   4
#     4  11  25  46  71 106 143 192 247 309 377 448
#     4  11  26  47  71 106 147 196 247 311 378 443
#     4  12  25  46  72 106 144 193 248 303 372 449
#     4  12  24  44  74 108 144 184 250 304 376 436
#
# _framework density 24.892064999999999
#
# number of rings (size 3 to 8) (size 9 to 14) (size 15 to 20)
#    0.000    0.615    6.154    0.923    4.308    0.615 
#    0.000    0.000    0.000    0.000    0.000    0.000 
#    0.000    0.000    0.000    0.000    0.000    0.000 
#
# Total GULP energy -145233.212909 kJ/mol
# GULP energy per Si atom -5585.892804 kJ/mol
# Density = 2.483541 g / cm^3
# Si number density = 24.892065 Si / 1000 Ang^3
#
#
#
# Elastic Constant Matrix: (Units=GPa)
#
#
# Indices 1 2 3 4 5 6 
#
# 1 61.7790 45.4541 14.0638 0.0000 0.0000 0.0000
# 2 45.4541 178.4709 69.5538 0.0000 0.0000 0.0000
# 3 14.0638 69.5538 170.9970 0.0000 0.0000 0.0000
# 4 0.0000 0.0000 0.0000 61.2928 0.0000 0.0000
# 5 0.0000 0.0000 0.0000 0.0000 17.9889 0.0000
# 6 0.0000 0.0000 0.0000 0.0000 0.0000 27.0898
#
#
#
# Elastic Compliance Matrix: (Units=1/GPa)
#
#
# Indices 1 2 3 4 5 6 
#
# 1 0.019956 -0.005280 0.000506 0.000000 0.000000 0.000000
# 2 -0.005280 0.008056 -0.002842 0.000000 0.000000 0.000000
# 3 0.000506 -0.002842 0.006963 0.000000 0.000000 0.000000
# 4 0.000000 0.000000 0.000000 0.016315 0.000000 0.000000
# 5 0.000000 0.000000 0.000000 0.000000 0.055590 0.000000
# 6 0.000000 0.000000 0.000000 0.000000 0.000000 0.036914
#
#
# Mechanical properties :
#
#
# Convention : Reuss Voigt Hill
#
# Bulk Modulus (GPa) = 50.65246 74.37670 62.51458
# Shear Modulus (GPa) = 30.19207 40.08598 35.13903
#
# Velocity S-wave (km/s) = 3.48648 4.01732 3.76128
# Velocity P-wave (km/s) = 6.04983 7.17378 6.63564
#
# Compressibility (1/GPa) = 0.01974238
#
# Stress axis : x y z
#
# Youngs Moduli (GPa) = 50.10984 124.13708 143.62497
#
# Poissons Ratio (x) = 0.65543 -0.07272
# Poissons Ratio (y) = 0.26457 0.40824
# Poissons Ratio (z) = -0.02537 0.35285
#
# Static dielectric constant tensor:
#      x y z
#    x -0.559160 0.000000 0.000000 
#    y 0.000000 1.968200 0.000000 
#    z 0.000000 0.000000 1.916750 
# 
# From -- ./inp_files/20162.got.cif
#   From: 2010.05.17/outbox.cif.g08.bks.cpg/sg68_11_cif.got.tgz:20162.got - 2010.06.03 18:57:09.
