data_PCOD9510371
_publ_section_title
;
Structure prediction by ZEFSAII (Michael W. Deem and Ramdas Pophale) SiO2 
 PCOD9510371
Probable space group: C C C A
;
_chemical_formula_sum "Si O2"
_cell_formula_units_Z 92
_cell_length_a 16.344743
_cell_length_b 26.642836
_cell_length_c 9.838492
_cell_angle_alpha 90.000000
_cell_angle_beta 90.000000
_cell_angle_gamma 90.000000
_cell_volume 4284.371134
_symmetry_space_group_name_H-M "C C C A"
_symmetry_group_IT_number 68
_space_group.IT_coordinate_system_code '2'
_symmetry_cell_setting 'orthorhombic'
loop_
_space_group_symop_operation_xyz
x,y,z
-x,1/2-y,z
x,1/2-y,1/2-z
-x,y,1/2-z
-x,-y,-z
x,1/2+y,-z
-x,1/2+y,1/2+z
x,-y,1/2+z
1/2+x,1/2+y,z
1/2-x,-y,z
1/2+x,-y,1/2-z
1/2-x,1/2+y,1/2-z
1/2-x,1/2-y,-z
1/2+x,y,-z
1/2-x,y,1/2+z
1/2+x,1/2-y,1/2+z
loop_
_atom_site_type_symbol
_atom_site_label
_atom_site_fract_x
_atom_site_fract_y
_atom_site_fract_z
Si Si1 0.713495 0.371310 0.777801
Si Si2 0.000000 0.990546 0.750000
Si Si3 0.442587 0.405282 0.578459
Si Si4 0.710671 0.304314 0.509801
Si Si5 0.116980 0.081216 0.729636
Si Si6 0.536854 0.832765 0.575623
Si Si7 0.000000 0.750000 0.250000
O O1 0.627788 0.397403 0.810780
O O2 0.709880 0.331282 0.655724
O O3 0.786816 0.410538 0.750316
O O4 0.739169 0.340884 0.911402
O O5 0.005344 0.953598 0.878905
O O6 0.078127 0.027103 0.758600
O O7 0.403762 0.409454 0.428378
O O8 0.500534 0.357375 0.558922
O O9 0.750000 0.250000 0.500000
O O10 0.618282 0.301656 0.454427
O O11 0.071087 0.121570 0.828667
O O12 0.472232 0.793889 0.643482
#
# Coordination Sequence:
#
# PCOD9510371 Si02
#       7
#    16   8  16  16  16  16   4
#     4  11  25  45  70 100 153 182 236 313 354 430
#     4  12  25  42  80  96 136 192 235 298 372 436
#     4  12  23  47  70 106 144 182 245 307 362 430
#     4  11  25  43  68 103 140 197 239 289 365 434
#     4  11  23  46  66 108 137 188 237 299 359 443
#     4  11  25  41  72 102 143 181 248 293 362 436
#     4  12  22  40  72 102 132 196 228 302 360 438
#
# _framework density 21.473398
#
# number of rings (size 3 to 8) (size 9 to 14) (size 15 to 20)
#    0.000    0.696    5.217    2.087    7.304    0.696 
#    0.000    1.739    0.000    0.000    0.000    0.000 
#    0.000    0.000    0.000    0.000    0.000    0.000 
#
# Total GULP energy -256625.605287 kJ/mol
# GULP energy per Si atom -5578.817506 kJ/mol
# Density = 2.142452 g / cm^3
# Si number density = 21.473398 Si / 1000 Ang^3
#
#
#
# Elastic Constant Matrix: (Units=GPa)
#
#
# Indices 1 2 3 4 5 6 
#
# 1 97.7374 61.2949 34.7040 0.0000 0.0000 0.0000
# 2 61.2949 143.0007 37.9602 0.0000 0.0000 0.0000
# 3 34.7040 37.9602 91.8281 0.0000 0.0000 0.0000
# 4 0.0000 0.0000 0.0000 15.7895 0.0000 0.0000
# 5 0.0000 0.0000 0.0000 0.0000 28.1922 0.0000
# 6 0.0000 0.0000 0.0000 0.0000 0.0000 42.2992
#
#
#
# Elastic Compliance Matrix: (Units=1/GPa)
#
#
# Indices 1 2 3 4 5 6 
#
# 1 0.014857 -0.005479 -0.003350 0.000000 0.000000 0.000000
# 2 -0.005479 0.009875 -0.002012 0.000000 0.000000 0.000000
# 3 -0.003350 -0.002012 0.012988 0.000000 0.000000 0.000000
# 4 0.000000 0.000000 0.000000 0.063333 0.000000 0.000000
# 5 0.000000 0.000000 0.000000 0.000000 0.035471 0.000000
# 6 0.000000 0.000000 0.000000 0.000000 0.000000 0.023641
#
#
# Mechanical properties :
#
#
# Convention : Reuss Voigt Hill
#
# Bulk Modulus (GPa) = 62.34865 66.72047 64.53456
# Shear Modulus (GPa) = 26.71043 30.49664 28.60354
#
# Velocity S-wave (km/s) = 3.53070 3.77265 3.65368
# Velocity P-wave (km/s) = 6.76162 7.07926 6.92226
#
# Compressibility (1/GPa) = 0.01603884
#
# Stress axis : x y z
#
# Youngs Moduli (GPa) = 67.30814 101.26101 76.99695
#
# Poissons Ratio (x) = 0.55481 0.25793
# Poissons Ratio (y) = 0.36878 0.15490
# Poissons Ratio (z) = 0.22548 0.20371
#
# Static dielectric constant tensor:
#      x y z
#    x 1.826440 0.000000 0.000000 
#    y 0.000000 1.811080 0.000000 
#    z 0.000000 0.000000 1.835560 
# 
# From -- ./inp_files/14501.got.cif
#   From: 2010.05.17/outbox.cif.g08.bks.cpg/sg68_8_cif.got.tgz:14501.got - 2010.06.03 18:57:09.
