data_PCOD9510901
_publ_section_title
;
Structure prediction by ZEFSAII (Michael W. Deem and Ramdas Pophale) SiO2 
 PCOD9510901
Probable space group: C C C A
;
_chemical_formula_sum "Si O2"
_cell_formula_units_Z 36
_cell_length_a 19.775029
_cell_length_b 8.566932
_cell_length_c 7.533503
_cell_angle_alpha 90.000000
_cell_angle_beta 90.000000
_cell_angle_gamma 90.000000
_cell_volume 1276.260753
_symmetry_space_group_name_H-M "C C C A"
_symmetry_group_IT_number 68
_space_group.IT_coordinate_system_code '2'
_symmetry_cell_setting 'orthorhombic'
loop_
_space_group_symop_operation_xyz
x,y,z
-x,1/2-y,z
x,1/2-y,1/2-z
-x,y,1/2-z
-x,-y,-z
x,1/2+y,-z
-x,1/2+y,1/2+z
x,-y,1/2+z
1/2+x,1/2+y,z
1/2-x,-y,z
1/2+x,-y,1/2-z
1/2-x,1/2+y,1/2-z
1/2-x,1/2-y,-z
1/2+x,y,-z
1/2-x,y,1/2+z
1/2+x,1/2-y,1/2+z
loop_
_atom_site_type_symbol
_atom_site_label
_atom_site_fract_x
_atom_site_fract_y
_atom_site_fract_z
Si Si1 0.500000 0.250000 0.250000
Si Si2 0.094992 0.667410 0.580702
Si Si3 0.187755 0.116831 0.896404
O O1 0.549551 0.168423 0.400010
O O2 0.063396 0.750000 0.750000
O O3 0.123072 0.497059 0.626465
O O4 0.161524 0.775406 0.553361
O O5 0.199185 0.250000 0.750000
O O6 0.250000 0.000000 0.923367
#
# Coordination Sequence:
#
# PCOD9510901 Si02
#       3
#     4  16  16
#     4  12  30  60  84 128 180 228 304 350 436 522
#     4  12  28  54  88 130 174 234 287 359 438 520
#     4  12  27  56  89 133 177 225 290 362 442 521
#
# _framework density 28.207401999999998
#
# number of rings (size 3 to 8) (size 9 to 14) (size 15 to 20)
#    0.000    0.000    2.222    6.000    0.000    5.333 
#    4.000    0.000    0.000    2.667    0.000    0.000 
#    0.000    0.000    0.000    0.000    0.000    0.000 
#
# Total GULP energy -100587.182514 kJ/mol
# GULP energy per Si atom -5588.176806 kJ/mol
# Density = 2.814320 g / cm^3
# Si number density = 28.207402 Si / 1000 Ang^3
#
#
#
# Elastic Constant Matrix: (Units=GPa)
#
#
# Indices 1 2 3 4 5 6 
#
# 1 191.8029 96.2720 104.6996 0.0000 0.0000 0.0000
# 2 96.2720 225.1577 73.6825 0.0000 0.0000 0.0000
# 3 104.6996 73.6825 210.3902 0.0000 0.0000 0.0000
# 4 0.0000 0.0000 0.0000 71.5441 0.0000 0.0000
# 5 0.0000 0.0000 0.0000 0.0000 -29.0318 0.0000
# 6 0.0000 0.0000 0.0000 0.0000 0.0000 -165.6834
#
#
#
# Elastic Compliance Matrix: (Units=1/GPa)
#
#
# Indices 1 2 3 4 5 6 
#
# 1 0.008205 -0.002453 -0.003224 0.000000 0.000000 0.000000
# 2 -0.002453 0.005750 -0.000793 0.000000 0.000000 0.000000
# 3 -0.003224 -0.000793 0.006635 0.000000 0.000000 0.000000
# 4 0.000000 0.000000 0.000000 0.013977 0.000000 0.000000
# 5 0.000000 0.000000 0.000000 0.000000 -0.034445 0.000000
# 6 0.000000 0.000000 0.000000 0.000000 0.000000 -0.006036
#
#
# Mechanical properties :
#
#
# Convention : Reuss Voigt Hill
#
# Bulk Modulus (GPa) = 130.72326 130.73989 130.73157
# Shear Modulus (GPa) = 522.11266 -1.12112 260.49577
#
# Velocity S-wave (km/s) = 13.61982 -0.63113 9.62032
# Velocity P-wave (km/s) = 17.13992 6.77636 13.03257
#
# Compressibility (1/GPa) = 0.00764975
#
# Stress axis : x y z
#
# Youngs Moduli (GPa) = 121.87861 173.92195 150.71278
#
# Poissons Ratio (x) = 0.42666 0.48589
# Poissons Ratio (y) = 0.29899 0.11949
# Poissons Ratio (z) = 0.39293 0.13789
#
# Static dielectric constant tensor:
#      x y z
#    x 2.288790 0.000000 0.000000 
#    y 0.000000 2.389670 0.000000 
#    z 0.000000 0.000000 2.447750 
# 
# From -- ./inp_files/6473.got.cif
#   From: 2010.05.17/outbox.cif.g08.bks.cpg/sg68_4_cif.got.tgz:6473.got - 2010.06.03 18:57:09.
