data_PCOD9510688
_publ_section_title
;
Structure prediction by ZEFSAII (Michael W. Deem and Ramdas Pophale) SiO2 
 PCOD9510688
Probable space group: C C C A
;
_chemical_formula_sum "Si O2"
_cell_formula_units_Z 64
_cell_length_a 12.305926
_cell_length_b 9.701933
_cell_length_c 24.864454
_cell_angle_alpha 90.000000
_cell_angle_beta 90.000000
_cell_angle_gamma 90.000000
_cell_volume 2968.598730
_symmetry_space_group_name_H-M "C C C A"
_symmetry_group_IT_number 68
_space_group.IT_coordinate_system_code '2'
_symmetry_cell_setting 'orthorhombic'
loop_
_space_group_symop_operation_xyz
x,y,z
-x,1/2-y,z
x,1/2-y,1/2-z
-x,y,1/2-z
-x,-y,-z
x,1/2+y,-z
-x,1/2+y,1/2+z
x,-y,1/2+z
1/2+x,1/2+y,z
1/2-x,-y,z
1/2+x,-y,1/2-z
1/2-x,1/2+y,1/2-z
1/2-x,1/2-y,-z
1/2+x,y,-z
1/2-x,y,1/2+z
1/2+x,1/2-y,1/2+z
loop_
_atom_site_type_symbol
_atom_site_label
_atom_site_fract_x
_atom_site_fract_y
_atom_site_fract_z
Si Si1 0.500000 0.250000 0.109123
Si Si2 0.067554 0.556330 0.197108
Si Si3 0.627143 0.230393 0.653629
Si Si4 0.255382 0.750000 0.750000
Si Si5 0.274304 0.667127 0.554497
O O1 0.490672 0.122551 0.151237
O O2 0.603154 0.204544 0.073651
O O3 0.127918 0.425298 0.174650
O O4 0.161097 0.660425 0.215252
O O5 0.000000 0.524035 0.250000
O O6 0.500000 0.250000 0.643411
O O7 0.677572 0.315203 0.703844
O O8 0.697556 0.233092 0.600328
O O9 0.250000 0.500000 0.550765
O O10 0.250000 0.750000 0.500000
#
# Coordination Sequence:
#
# PCOD9510688 Si02
#       5
#     8  16  16   8  16
#     4  12  23  48  76 104 144 187 250 298 376 444
#     4  12  21  41  73 107 148 193 241 293 381 465
#     4  12  26  44  67 110 151 186 241 311 368 451
#     4  12  20  40  66 106 142 193 229 288 378 446
#     4  12  28  51  78 105 143 198 254 315 372 442
#
# _framework density 21.558993999999998
#
# number of rings (size 3 to 8) (size 9 to 14) (size 15 to 20)
#    0.000    0.000    7.500    2.625    1.750    3.000 
#    0.000    2.500    0.000    0.000    0.000    0.000 
#    0.000    0.000    0.000    0.000    0.000    0.000 
#
# Total GULP energy -178705.447429 kJ/mol
# GULP energy per Si atom -5584.545232 kJ/mol
# Density = 2.150993 g / cm^3
# Si number density = 21.558994 Si / 1000 Ang^3
#
#
#
# Elastic Constant Matrix: (Units=GPa)
#
#
# Indices 1 2 3 4 5 6 
#
# 1 165.3412 45.3179 80.5316 0.0000 0.0000 0.0000
# 2 45.3179 60.1670 34.9685 0.0000 0.0000 0.0000
# 3 80.5316 34.9685 195.6884 0.0000 0.0000 0.0000
# 4 0.0000 0.0000 0.0000 35.5981 0.0000 0.0000
# 5 0.0000 0.0000 0.0000 0.0000 29.3531 0.0000
# 6 0.0000 0.0000 0.0000 0.0000 0.0000 34.1321
#
#
#
# Elastic Compliance Matrix: (Units=1/GPa)
#
#
# Indices 1 2 3 4 5 6 
#
# 1 0.008737 -0.005011 -0.002700 0.000000 0.000000 0.000000
# 2 -0.005011 0.021421 -0.001766 0.000000 0.000000 0.000000
# 3 -0.002700 -0.001766 0.006537 0.000000 0.000000 0.000000
# 4 0.000000 0.000000 0.000000 0.028091 0.000000 0.000000
# 5 0.000000 0.000000 0.000000 0.000000 0.034068 0.000000
# 6 0.000000 0.000000 0.000000 0.000000 0.000000 0.029298
#
#
# Mechanical properties :
#
#
# Convention : Reuss Voigt Hill
#
# Bulk Modulus (GPa) = 56.36670 82.53696 69.45183
# Shear Modulus (GPa) = 32.67571 37.17523 34.92547
#
# Velocity S-wave (km/s) = 3.89735 4.15703 4.02928
# Velocity P-wave (km/s) = 6.81576 7.83636 7.34381
#
# Compressibility (1/GPa) = 0.01774097
#
# Stress axis : x y z
#
# Youngs Moduli (GPa) = 114.46026 46.68309 152.98133
#
# Poissons Ratio (x) = 0.23394 0.41303
# Poissons Ratio (y) = 0.57360 0.27009
# Poissons Ratio (z) = 0.30903 0.08242
#
# Static dielectric constant tensor:
#      x y z
#    x 1.933840 0.000000 0.000000 
#    y 0.000000 1.838370 0.000000 
#    z 0.000000 0.000000 1.789340 
# 
# From -- ./inp_files/43919.got.cif
#   From: 2010.05.17/outbox.cif.g08.bks.cpg/sg68_22_cif.got.tgz:43919.got - 2010.06.03 18:57:09.
