data_PCOD9510549
_publ_section_title
;
Structure prediction by ZEFSAII (Michael W. Deem and Ramdas Pophale) SiO2 
 PCOD9510549
Probable space group: C C C A
;
_chemical_formula_sum "Si O2"
_cell_formula_units_Z 88
_cell_length_a 26.045016
_cell_length_b 8.502335
_cell_length_c 20.892185
_cell_angle_alpha 90.000000
_cell_angle_beta 90.000000
_cell_angle_gamma 90.000000
_cell_volume 4626.437548
_symmetry_space_group_name_H-M "C C C A"
_symmetry_group_IT_number 68
_space_group.IT_coordinate_system_code '2'
_symmetry_cell_setting 'orthorhombic'
loop_
_space_group_symop_operation_xyz
x,y,z
-x,1/2-y,z
x,1/2-y,1/2-z
-x,y,1/2-z
-x,-y,-z
x,1/2+y,-z
-x,1/2+y,1/2+z
x,-y,1/2+z
1/2+x,1/2+y,z
1/2-x,-y,z
1/2+x,-y,1/2-z
1/2-x,1/2+y,1/2-z
1/2-x,1/2-y,-z
1/2+x,y,-z
1/2-x,y,1/2+z
1/2+x,1/2-y,1/2+z
loop_
_atom_site_type_symbol
_atom_site_label
_atom_site_fract_x
_atom_site_fract_y
_atom_site_fract_z
Si Si1 0.625558 0.735612 0.981192
Si Si2 0.373352 0.250000 0.250000
Si Si3 0.691235 0.035181 0.570808
Si Si4 0.946044 0.837740 0.366945
Si Si5 0.693325 0.569689 0.278456
Si Si6 0.532776 0.904360 0.446095
O O1 0.660759 0.626564 0.937345
O O2 0.584611 0.811207 0.933070
O O3 0.662174 0.845905 0.023286
O O4 0.589100 0.636320 0.027784
O O5 0.409933 0.283634 0.310324
O O6 0.342398 0.416721 0.240150
O O7 0.689733 0.088882 0.644479
O O8 0.750000 0.000000 0.552480
O O9 0.000000 0.750000 0.365810
O O10 0.961548 0.017642 0.376517
O O11 0.685823 0.750000 0.250000
O O12 0.750000 0.500000 0.262673
O O13 0.500000 0.750000 0.438194
O O14 0.500000 0.000000 0.500000
#
# Coordination Sequence:
#
# PCOD9510549 Si02
#       6
#    16   8  16  16  16  16
#     4  12  21  40  66  97 138 175 218 290 356 411
#     4  12  27  48  70 102 146 192 235 300 360 412
#     4  11  25  42  65 104 140 174 231 289 355 428
#     4  12  25  44  67  96 138 185 231 293 358 423
#     4  11  25  47  74 103 138 191 244 285 344 434
#     4  12  21  38  67 101 132 178 232 283 346 431
#
# _framework density 19.021115999999999
#
# number of rings (size 3 to 8) (size 9 to 14) (size 15 to 20)
#    0.000    0.364    8.182    0.818    2.545    0.000 
#    0.000    1.818    0.000    0.000    0.000    0.000 
#    0.000    0.000    0.000    0.000    0.000    0.000 
#
# Total GULP energy -245140.923477 kJ/mol
# GULP energy per Si atom -5571.384624 kJ/mol
# Density = 1.897782 g / cm^3
# Si number density = 19.021116 Si / 1000 Ang^3
#
#
#
# Elastic Constant Matrix: (Units=GPa)
#
#
# Indices 1 2 3 4 5 6 
#
# 1 157.7360 70.0185 60.1120 0.0000 0.0000 0.0000
# 2 70.0185 138.1022 60.0147 0.0000 0.0000 0.0000
# 3 60.1120 60.0147 103.2454 0.0000 0.0000 0.0000
# 4 0.0000 0.0000 0.0000 35.4250 0.0000 0.0000
# 5 0.0000 0.0000 0.0000 0.0000 12.7225 0.0000
# 6 0.0000 0.0000 0.0000 0.0000 0.0000 39.1031
#
#
#
# Elastic Compliance Matrix: (Units=1/GPa)
#
#
# Indices 1 2 3 4 5 6 
#
# 1 0.009024 -0.003067 -0.003471 0.000000 0.000000 0.000000
# 2 -0.003067 0.010730 -0.004452 0.000000 0.000000 0.000000
# 3 -0.003471 -0.004452 0.014295 0.000000 0.000000 0.000000
# 4 0.000000 0.000000 0.000000 0.028229 0.000000 0.000000
# 5 0.000000 0.000000 0.000000 0.000000 0.078601 0.000000
# 6 0.000000 0.000000 0.000000 0.000000 0.000000 0.025573
#
#
# Mechanical properties :
#
#
# Convention : Reuss Voigt Hill
#
# Bulk Modulus (GPa) = 82.85627 86.59710 84.72668
# Shear Modulus (GPa) = 25.98016 31.37937 28.67976
#
# Velocity S-wave (km/s) = 3.69976 4.06607 3.88723
# Velocity P-wave (km/s) = 7.86802 8.22615 8.04908
#
# Compressibility (1/GPa) = 0.01206909
#
# Stress axis : x y z
#
# Youngs Moduli (GPa) = 110.81714 93.19241 69.95633
#
# Poissons Ratio (x) = 0.28579 0.24284
# Poissons Ratio (y) = 0.33983 0.31144
# Poissons Ratio (z) = 0.38469 0.41489
#
# Static dielectric constant tensor:
#      x y z
#    x 1.562410 0.000000 0.000000 
#    y 0.000000 1.997410 0.000000 
#    z 0.000000 0.000000 1.742330 
# 
# From -- ./inp_files/40767.got.cif
#   From: 2010.05.17/outbox.cif.g08.bks.cpg/sg68_21_cif.got.tgz:40767.got - 2010.06.03 18:57:09.
