data_PCOD9510774
_publ_section_title
;
Structure prediction by ZEFSAII (Michael W. Deem and Ramdas Pophale) SiO2 
 PCOD9510774
Probable space group: C C C A
;
_chemical_formula_sum "Si O2"
_cell_formula_units_Z 80
_cell_length_a 15.821685
_cell_length_b 8.991187
_cell_length_c 26.264084
_cell_angle_alpha 90.000000
_cell_angle_beta 90.000000
_cell_angle_gamma 90.000000
_cell_volume 3736.216403
_symmetry_space_group_name_H-M "C C C A"
_symmetry_group_IT_number 68
_space_group.IT_coordinate_system_code '2'
_symmetry_cell_setting 'orthorhombic'
loop_
_space_group_symop_operation_xyz
x,y,z
-x,1/2-y,z
x,1/2-y,1/2-z
-x,y,1/2-z
-x,-y,-z
x,1/2+y,-z
-x,1/2+y,1/2+z
x,-y,1/2+z
1/2+x,1/2+y,z
1/2-x,-y,z
1/2+x,-y,1/2-z
1/2-x,1/2+y,1/2-z
1/2-x,1/2-y,-z
1/2+x,y,-z
1/2-x,y,1/2+z
1/2+x,1/2-y,1/2+z
loop_
_atom_site_type_symbol
_atom_site_label
_atom_site_fract_x
_atom_site_fract_y
_atom_site_fract_z
Si Si1 0.402252 0.069030 0.749546
Si Si2 0.085280 0.349470 0.546180
Si Si3 0.890739 0.406603 0.139121
Si Si4 0.096078 0.563022 0.639533
Si Si5 0.341087 0.452070 0.465757
O O1 0.404208 0.250000 0.750000
O O2 0.500000 0.017793 0.750000
O O3 0.362035 0.035428 0.694823
O O4 0.369440 0.018556 0.804534
O O5 0.110491 0.442345 0.596066
O O6 0.088897 0.465660 0.499924
O O7 0.151395 0.223156 0.531840
O O8 0.000000 0.250000 0.553280
O O9 0.872000 0.231484 0.130113
O O10 0.855200 0.498078 0.092325
O O11 0.993251 0.421183 0.140880
O O12 0.250000 0.500000 0.484350
#
# Coordination Sequence:
#
# PCOD9510774 Si02
#       5
#    16  16  16  16  16
#     4   7  12  26  52  86 115 144 184 230 284 348
#     4  12  24  40  61  88 117 153 208 256 299 352
#     4   9  17  33  59  86 117 154 192 234 296 355
#     4   9  17  32  60  90 114 146 196 249 286 346
#     4  12  26  41  58  82 121 161 197 247 312 367
#
# _framework density 21.412034999999999
#
# number of rings (size 3 to 8) (size 9 to 14) (size 15 to 20)
#    0.000    2.200    2.000    4.800    2.800    0.000 
#    0.000    1.000    0.000    8.400    0.000    0.000 
#    0.000    0.000    0.000    0.000    0.000    0.000 
#
# Total GULP energy -223016.368428 kJ/mol
# GULP energy per Si atom -5575.409211 kJ/mol
# Density = 2.136330 g / cm^3
# Si number density = 21.412035 Si / 1000 Ang^3
#
#
#
# Elastic Constant Matrix: (Units=GPa)
#
#
# Indices 1 2 3 4 5 6 
#
# 1 44.6635 19.5836 8.9623 0.0000 0.0000 0.0000
# 2 19.5836 103.7540 69.2614 0.0000 0.0000 0.0000
# 3 8.9623 69.2614 165.7422 0.0000 0.0000 0.0000
# 4 0.0000 0.0000 0.0000 38.0855 0.0000 0.0000
# 5 0.0000 0.0000 0.0000 0.0000 -17.3832 0.0000
# 6 0.0000 0.0000 0.0000 0.0000 0.0000 20.5926
#
#
#
# Elastic Compliance Matrix: (Units=1/GPa)
#
#
# Indices 1 2 3 4 5 6 
#
# 1 0.024494 -0.005186 0.000843 0.000000 0.000000 0.000000
# 2 -0.005186 0.014465 -0.005764 0.000000 0.000000 0.000000
# 3 0.000843 -0.005764 0.008397 0.000000 0.000000 0.000000
# 4 0.000000 0.000000 0.000000 0.026257 0.000000 0.000000
# 5 0.000000 0.000000 0.000000 0.000000 -0.057527 0.000000
# 6 0.000000 0.000000 0.000000 0.000000 0.000000 0.048561
#
#
# Mechanical properties :
#
#
# Convention : Reuss Voigt Hill
#
# Bulk Modulus (GPa) = 36.84456 56.64157 46.74307
# Shear Modulus (GPa) = 53.24292 22.68248 37.96270
#
# Velocity S-wave (km/s) = 4.99198 3.25827 4.21522
# Velocity P-wave (km/s) = 7.10431 6.37696 6.75044
#
# Compressibility (1/GPa) = 0.02714105
#
# Stress axis : x y z
#
# Youngs Moduli (GPa) = 40.82574 69.13249 119.09402
#
# Poissons Ratio (x) = 0.35851 -0.10034
# Poissons Ratio (y) = 0.21171 0.68649
# Poissons Ratio (z) = -0.03440 0.39850
#
# Static dielectric constant tensor:
#      x y z
#    x 1.792770 0.000000 0.000000 
#    y 0.000000 1.752880 0.000000 
#    z 0.000000 0.000000 1.818080 
# 
# From -- ./inp_files/51314.got.cif
#   From: 2010.05.17/outbox.cif.g08.bks.cpg/sg68_26_cif.got.tgz:51314.got - 2010.06.03 18:57:09.
