data_PCOD9510604
_publ_section_title
;
Structure prediction by ZEFSAII (Michael W. Deem and Ramdas Pophale) SiO2 
 PCOD9510604
Probable space group: C C C A
;
_chemical_formula_sum "Si O2"
_cell_formula_units_Z 64
_cell_length_a 23.552325
_cell_length_b 10.776470
_cell_length_c 9.033961
_cell_angle_alpha 90.000000
_cell_angle_beta 90.000000
_cell_angle_gamma 90.000000
_cell_volume 2292.917987
_symmetry_space_group_name_H-M "C C C A"
_symmetry_group_IT_number 68
_space_group.IT_coordinate_system_code '2'
_symmetry_cell_setting 'orthorhombic'
loop_
_space_group_symop_operation_xyz
x,y,z
-x,1/2-y,z
x,1/2-y,1/2-z
-x,y,1/2-z
-x,-y,-z
x,1/2+y,-z
-x,1/2+y,1/2+z
x,-y,1/2+z
1/2+x,1/2+y,z
1/2-x,-y,z
1/2+x,-y,1/2-z
1/2-x,1/2+y,1/2-z
1/2-x,1/2-y,-z
1/2+x,y,-z
1/2-x,y,1/2+z
1/2+x,1/2-y,1/2+z
loop_
_atom_site_type_symbol
_atom_site_label
_atom_site_fract_x
_atom_site_fract_y
_atom_site_fract_z
Si Si1 0.935734 0.045365 0.254073
Si Si2 0.178615 0.241685 0.584167
Si Si3 0.811200 0.494324 0.376396
Si Si4 0.059576 0.739840 0.994410
O O1 0.942024 0.158109 0.136232
O O2 0.932298 0.106609 0.416961
O O3 0.000000 0.985927 0.250000
O O4 0.871346 0.999222 0.213008
O O5 0.202949 0.250000 0.750000
O O6 0.188193 0.380703 0.523385
O O7 0.111209 0.227556 0.595706
O O8 0.192213 0.131638 0.471818
O O9 0.750000 0.500000 0.293311
O O10 0.000000 0.750000 0.070523
#
# Coordination Sequence:
#
# PCOD9510604 Si02
#       4
#    16  16  16  16
#     4   8  16  37  70 104 135 192 248 303 371 443
#     4  11  26  46  68 109 148 196 257 312 372 449
#     4  11  25  48  73 106 153 199 254 311 376 450
#     4   8  16  37  67 100 141 188 242 300 374 444
#
# _framework density 27.912030999999999
#
# number of rings (size 3 to 8) (size 9 to 14) (size 15 to 20)
#    0.000    2.500    0.000    2.250    3.500    1.500 
#   13.500    3.750    0.000    0.000    0.000    0.000 
#    0.000    0.000    0.000    0.000    0.000    0.000 
#
# Total GULP energy -178568.724139 kJ/mol
# GULP energy per Si atom -5580.272629 kJ/mol
# Density = 2.784850 g / cm^3
# Si number density = 27.912031 Si / 1000 Ang^3
#
#
#
# Elastic Constant Matrix: (Units=GPa)
#
#
# Indices 1 2 3 4 5 6 
#
# 1 302.1959 55.4125 58.8575 0.0000 0.0000 0.0000
# 2 55.4125 165.0778 39.3668 0.0000 0.0000 0.0000
# 3 58.8575 39.3668 77.8548 0.0000 0.0000 0.0000
# 4 0.0000 0.0000 0.0000 47.4077 0.0000 0.0000
# 5 0.0000 0.0000 0.0000 0.0000 22.8443 0.0000
# 6 0.0000 0.0000 0.0000 0.0000 0.0000 36.8294
#
#
#
# Elastic Compliance Matrix: (Units=1/GPa)
#
#
# Indices 1 2 3 4 5 6 
#
# 1 0.003950 -0.000698 -0.002633 0.000000 0.000000 0.000000
# 2 -0.000698 0.007012 -0.003018 0.000000 0.000000 0.000000
# 3 -0.002633 -0.003018 0.016361 0.000000 0.000000 0.000000
# 4 0.000000 0.000000 0.000000 0.021094 0.000000 0.000000
# 5 0.000000 0.000000 0.000000 0.000000 0.043775 0.000000
# 6 0.000000 0.000000 0.000000 0.000000 0.000000 0.027152
#
#
# Mechanical properties :
#
#
# Convention : Reuss Voigt Hill
#
# Bulk Modulus (GPa) = 68.37702 94.71134 81.54418
# Shear Modulus (GPa) = 36.51877 47.51573 42.01725
#
# Velocity S-wave (km/s) = 3.62104 4.13042 3.88409
# Velocity P-wave (km/s) = 6.48329 7.53345 7.02801
#
# Compressibility (1/GPa) = 0.01462480
#
# Stress axis : x y z
#
# Youngs Moduli (GPa) = 253.16755 142.61888 61.12085
#
# Poissons Ratio (x) = 0.09954 0.16094
# Poissons Ratio (y) = 0.17670 0.18445
# Poissons Ratio (z) = 0.66665 0.43039
#
# Static dielectric constant tensor:
#      x y z
#    x 2.216570 0.000000 0.000000 
#    y 0.000000 2.276680 0.000000 
#    z 0.000000 0.000000 2.127610 
# 
# From -- ./inp_files/16084.got.cif
#   From: 2010.05.17/outbox.cif.g08.bks.cpg/sg68_9_cif.got.tgz:16084.got - 2010.06.03 18:57:09.
