data_PCOD9510730
_publ_section_title
;
Structure prediction by ZEFSAII (Michael W. Deem and Ramdas Pophale) SiO2 
 PCOD9510730
Probable space group: C C C A
;
_chemical_formula_sum "Si O2"
_cell_formula_units_Z 64
_cell_length_a 14.078861
_cell_length_b 14.663065
_cell_length_c 13.619934
_cell_angle_alpha 90.000000
_cell_angle_beta 90.000000
_cell_angle_gamma 90.000000
_cell_volume 2811.689014
_symmetry_space_group_name_H-M "C C C A"
_symmetry_group_IT_number 68
_space_group.IT_coordinate_system_code '2'
_symmetry_cell_setting 'orthorhombic'
loop_
_space_group_symop_operation_xyz
x,y,z
-x,1/2-y,z
x,1/2-y,1/2-z
-x,y,1/2-z
-x,-y,-z
x,1/2+y,-z
-x,1/2+y,1/2+z
x,-y,1/2+z
1/2+x,1/2+y,z
1/2-x,-y,z
1/2+x,-y,1/2-z
1/2-x,1/2+y,1/2-z
1/2-x,1/2-y,-z
1/2+x,y,-z
1/2-x,y,1/2+z
1/2+x,1/2-y,1/2+z
loop_
_atom_site_type_symbol
_atom_site_label
_atom_site_fract_x
_atom_site_fract_y
_atom_site_fract_z
Si Si1 0.320883 0.347430 0.419758
Si Si2 0.613156 0.522059 0.752445
Si Si3 0.870915 0.177504 0.334602
Si Si4 0.500000 0.750000 0.011372
Si Si5 0.250000 0.000000 0.428186
O O1 0.348401 0.404602 0.323708
O O2 0.226128 0.293212 0.389132
O O3 0.412833 0.290610 0.450921
O O4 0.289377 0.419012 0.503636
O O5 0.500000 0.528737 0.750000
O O6 0.638895 0.421411 0.712902
O O7 0.664463 0.532563 0.857166
O O8 0.891182 0.250000 0.250000
O O9 0.954150 0.175757 0.415053
#
# Coordination Sequence:
#
# PCOD9510730 Si02
#       5
#    16  16  16   8   8
#     4  12  27  48  74 112 149 201 259 309 395 459
#     4  12  26  45  79 108 145 198 253 316 379 467
#     4  12  24  49  72 109 149 196 250 315 393 452
#     4  12  29  42  75 108 148 204 246 325 377 470
#     4  12  22  48  78 106 150 198 258 314 380 470
#
# _framework density 22.762118000000001
#
# number of rings (size 3 to 8) (size 9 to 14) (size 15 to 20)
#    0.000    0.000    5.000    5.625    3.500    4.000 
#    0.000    0.000    0.000    0.000    0.000    0.000 
#    0.000    0.000    0.000    0.000    0.000    0.000 
#
# Total GULP energy -179361.078109 kJ/mol
# GULP energy per Si atom -5605.033691 kJ/mol
# Density = 2.271031 g / cm^3
# Si number density = 22.762118 Si / 1000 Ang^3
#
#
#
# Elastic Constant Matrix: (Units=GPa)
#
#
# Indices 1 2 3 4 5 6 
#
# 1 184.1501 -0.8716 48.1915 0.0000 0.0000 0.0000
# 2 -0.8716 29.6760 1.3443 0.0000 0.0000 0.0000
# 3 48.1915 1.3443 101.1649 0.0000 0.0000 0.0000
# 4 0.0000 0.0000 0.0000 20.0449 0.0000 0.0000
# 5 0.0000 0.0000 0.0000 0.0000 44.4438 0.0000
# 6 0.0000 0.0000 0.0000 0.0000 0.0000 39.7730
#
#
#
# Elastic Compliance Matrix: (Units=1/GPa)
#
#
# Indices 1 2 3 4 5 6 
#
# 1 0.006207 0.000316 -0.002961 0.000000 0.000000 0.000000
# 2 0.000316 0.033734 -0.000599 0.000000 0.000000 0.000000
# 3 -0.002961 -0.000599 0.011303 0.000000 0.000000 0.000000
# 4 0.000000 0.000000 0.000000 0.049888 0.000000 0.000000
# 5 0.000000 0.000000 0.000000 0.000000 0.022500 0.000000
# 6 0.000000 0.000000 0.000000 0.000000 0.000000 0.025143
#
#
# Mechanical properties :
#
#
# Convention : Reuss Voigt Hill
#
# Bulk Modulus (GPa) = 22.34298 45.81327 34.07812
# Shear Modulus (GPa) = 29.38056 38.60747 33.99402
#
# Velocity S-wave (km/s) = 3.59662 4.12288 3.86871
# Velocity P-wave (km/s) = 5.20430 6.54483 5.91268
#
# Compressibility (1/GPa) = 0.04475679
#
# Stress axis : x y z
#
# Youngs Moduli (GPa) = 161.11624 29.64394 88.47004
#
# Poissons Ratio (x) = -0.00938 0.26195
# Poissons Ratio (y) = -0.05098 0.05299
# Poissons Ratio (z) = 0.47704 0.01776
#
# Static dielectric constant tensor:
#      x y z
#    x 1.864530 0.000000 0.000000 
#    y 0.000000 1.814810 0.000000 
#    z 0.000000 0.000000 1.853610 
# 
# From -- ./inp_files/12879.got.cif
#   From: 2010.05.17/outbox.cif.g08.bks.cpg/sg68_7_cif.got.tgz:12879.got - 2010.06.03 18:57:09.
