data_PCOD9510274
_publ_section_title
;
Structure prediction by ZEFSAII (Michael W. Deem and Ramdas Pophale) SiO2 
 PCOD9510274
Probable space group: C C C A
;
_chemical_formula_sum "Si O2"
_cell_formula_units_Z 68
_cell_length_a 9.078430
_cell_length_b 17.399844
_cell_length_c 20.629996
_cell_angle_alpha 90.000000
_cell_angle_beta 90.000000
_cell_angle_gamma 90.000000
_cell_volume 3258.781541
_symmetry_space_group_name_H-M "C C C A"
_symmetry_group_IT_number 68
_space_group.IT_coordinate_system_code '2'
_symmetry_cell_setting 'orthorhombic'
loop_
_space_group_symop_operation_xyz
x,y,z
-x,1/2-y,z
x,1/2-y,1/2-z
-x,y,1/2-z
-x,-y,-z
x,1/2+y,-z
-x,1/2+y,1/2+z
x,-y,1/2+z
1/2+x,1/2+y,z
1/2-x,-y,z
1/2+x,-y,1/2-z
1/2-x,1/2+y,1/2-z
1/2-x,1/2-y,-z
1/2+x,y,-z
1/2-x,y,1/2+z
1/2+x,1/2-y,1/2+z
loop_
_atom_site_type_symbol
_atom_site_label
_atom_site_fract_x
_atom_site_fract_y
_atom_site_fract_z
Si Si1 0.422327 0.667383 0.450813
Si Si2 0.337705 0.428106 0.835750
Si Si3 0.500000 0.250000 0.750000
Si Si4 0.771353 0.411415 0.445669
Si Si5 0.162405 0.891630 0.805844
O O1 0.500000 0.750000 0.448788
O O2 0.335064 0.643110 0.385495
O O3 0.319937 0.648588 0.511568
O O4 0.557919 0.608409 0.454740
O O5 0.250000 0.500000 0.864110
O O6 0.512331 0.439942 0.821150
O O7 0.272770 0.412581 0.764029
O O8 0.598435 0.305949 0.794090
O O9 0.750000 0.500000 0.463918
O O10 0.739115 0.400212 0.368998
#
# Coordination Sequence:
#
# PCOD9510274 Si02
#       5
#    16  16   4  16  16
#     4  11  24  41  63  93 124 168 212 256 308 373
#     4   9  18  34  58  90 120 157 204 257 308 363
#     4   8  16  36  60  96 122 156 206 262 306 372
#     4  11  23  40  63  91 128 165 208 259 313 368
#     4   9  20  33  63  88 126 152 216 252 318 361
#
# _framework density 20.866695
#
# number of rings (size 3 to 8) (size 9 to 14) (size 15 to 20)
#    0.000    2.353    0.000    2.824   14.824    1.882 
#    0.000    0.000    0.000    0.000    0.000    0.000 
#    0.000    0.000    0.000    0.000    0.000    0.000 
#
# Total GULP energy -189580.333620 kJ/mol
# GULP energy per Si atom -5575.892165 kJ/mol
# Density = 2.081920 g / cm^3
# Si number density = 20.866695 Si / 1000 Ang^3
#
#
#
# Elastic Constant Matrix: (Units=GPa)
#
#
# Indices 1 2 3 4 5 6 
#
# 1 25.7199 16.8796 24.9007 0.0000 0.0000 0.0000
# 2 16.8796 109.6689 21.5714 0.0000 0.0000 0.0000
# 3 24.9007 21.5714 163.0343 0.0000 0.0000 0.0000
# 4 0.0000 0.0000 0.0000 25.8007 0.0000 0.0000
# 5 0.0000 0.0000 0.0000 0.0000 24.2983 0.0000
# 6 0.0000 0.0000 0.0000 0.0000 0.0000 32.3675
#
#
#
# Elastic Compliance Matrix: (Units=1/GPa)
#
#
# Indices 1 2 3 4 5 6 
#
# 1 0.049532 -0.006300 -0.006732 0.000000 0.000000 0.000000
# 2 -0.006300 0.010163 -0.000383 0.000000 0.000000 0.000000
# 3 -0.006732 -0.000383 0.007212 0.000000 0.000000 0.000000
# 4 0.000000 0.000000 0.000000 0.038759 0.000000 0.000000
# 5 0.000000 0.000000 0.000000 0.000000 0.041155 0.000000
# 6 0.000000 0.000000 0.000000 0.000000 0.000000 0.030895
#
#
# Mechanical properties :
#
#
# Convention : Reuss Voigt Hill
#
# Bulk Modulus (GPa) = 24.95006 47.23626 36.09316
# Shear Modulus (GPa) = 22.94586 32.16472 27.55529
#
# Velocity S-wave (km/s) = 3.31968 3.93037 3.63786
# Velocity P-wave (km/s) = 5.16493 6.57901 5.91439
#
# Compressibility (1/GPa) = 0.04008006
#
# Stress axis : x y z
#
# Youngs Moduli (GPa) = 20.18896 98.39419 138.64931
#
# Poissons Ratio (x) = 0.61984 0.93334
# Poissons Ratio (y) = 0.12718 0.05304
# Poissons Ratio (z) = 0.13591 0.03764
#
# Static dielectric constant tensor:
#      x y z
#    x 1.743050 0.000000 0.000000 
#    y 0.000000 1.778020 0.000000 
#    z 0.000000 0.000000 1.866080 
# 
# From -- ./inp_files/35857.got.cif
#   From: 2010.05.17/outbox.cif.g08.bks.cpg/sg68_18_cif.got.tgz:35857.got - 2010.06.03 18:57:09.
