data_PCOD9510701
_publ_section_title
;
Structure prediction by ZEFSAII (Michael W. Deem and Ramdas Pophale) SiO2 
 PCOD9510701
Probable space group: C C C A
;
_chemical_formula_sum "Si O2"
_cell_formula_units_Z 96
_cell_length_a 20.235650
_cell_length_b 19.750491
_cell_length_c 10.533041
_cell_angle_alpha 90.000000
_cell_angle_beta 90.000000
_cell_angle_gamma 90.000000
_cell_volume 4209.677543
_symmetry_space_group_name_H-M "C C C A"
_symmetry_group_IT_number 68
_space_group.IT_coordinate_system_code '2'
_symmetry_cell_setting 'orthorhombic'
loop_
_space_group_symop_operation_xyz
x,y,z
-x,1/2-y,z
x,1/2-y,1/2-z
-x,y,1/2-z
-x,-y,-z
x,1/2+y,-z
-x,1/2+y,1/2+z
x,-y,1/2+z
1/2+x,1/2+y,z
1/2-x,-y,z
1/2+x,-y,1/2-z
1/2-x,1/2+y,1/2-z
1/2-x,1/2-y,-z
1/2+x,y,-z
1/2-x,y,1/2+z
1/2+x,1/2-y,1/2+z
loop_
_atom_site_type_symbol
_atom_site_label
_atom_site_fract_x
_atom_site_fract_y
_atom_site_fract_z
Si Si1 0.441933 0.945517 0.516392
Si Si2 0.100756 0.804881 0.350027
Si Si3 0.566077 0.708545 0.425764
Si Si4 0.231126 0.860615 0.211007
Si Si5 0.500000 0.404783 0.250000
Si Si6 0.827155 0.250000 0.250000
Si Si7 0.797882 0.062029 0.052157
O O1 0.449983 0.867408 0.469979
O O2 0.443931 0.942134 0.669357
O O3 0.373162 0.964834 0.450964
O O4 0.500000 0.000000 0.500000
O O5 0.075969 0.750000 0.250000
O O6 0.102027 0.759842 0.475676
O O7 0.168697 0.833959 0.293558
O O8 0.044553 0.861526 0.347053
O O9 0.500000 0.750000 0.391690
O O10 0.621710 0.701163 0.320100
O O11 0.277842 0.797733 0.172862
O O12 0.272613 0.905242 0.314461
O O13 0.208180 0.892356 0.076737
O O14 0.750000 0.000000 0.028362
#
# Coordination Sequence:
#
# PCOD9510701 Si02
#       7
#    16  16  16  16   8   8  16
#     4  12  28  48  73 110 148 201 254 315 380 460
#     4  12  21  39  77 108 137 178 244 314 373 434
#     4  12  24  47  73 108 150 190 249 312 385 446
#     4  12  26  46  76 113 150 194 254 318 386 458
#     4  12  23  46  74 108 141 188 250 318 367 448
#     4  12  27  44  74 109 152 192 240 322 392 447
#     4  12  28  50  74 107 157 207 255 308 387 464
#
# _framework density 22.804599
#
# number of rings (size 3 to 8) (size 9 to 14) (size 15 to 20)
#    0.000    0.000    7.500    2.000    2.333    4.000 
#    3.000    0.000    0.000    0.000    0.000    0.000 
#    0.000    0.000    0.000    0.000    0.000    0.000 
#
# Total GULP energy -267581.163640 kJ/mol
# GULP energy per Si atom -5574.607576 kJ/mol
# Density = 2.275269 g / cm^3
# Si number density = 22.804599 Si / 1000 Ang^3
#
#
#
# Elastic Constant Matrix: (Units=GPa)
#
#
# Indices 1 2 3 4 5 6 
#
# 1 136.9213 33.7209 6.9085 0.0000 0.0000 0.0000
# 2 33.7209 71.7776 9.3066 0.0000 0.0000 0.0000
# 3 6.9085 9.3066 49.4282 0.0000 0.0000 0.0000
# 4 0.0000 0.0000 0.0000 5.7165 0.0000 0.0000
# 5 0.0000 0.0000 0.0000 0.0000 31.4632 0.0000
# 6 0.0000 0.0000 0.0000 0.0000 0.0000 159.6393
#
#
#
# Elastic Compliance Matrix: (Units=1/GPa)
#
#
# Indices 1 2 3 4 5 6 
#
# 1 0.008268 -0.003828 -0.000435 0.000000 0.000000 0.000000
# 2 -0.003828 0.016053 -0.002487 0.000000 0.000000 0.000000
# 3 -0.000435 -0.002487 0.020760 0.000000 0.000000 0.000000
# 4 0.000000 0.000000 0.000000 0.174932 0.000000 0.000000
# 5 0.000000 0.000000 0.000000 0.000000 0.031783 0.000000
# 6 0.000000 0.000000 0.000000 0.000000 0.000000 0.006264
#
#
# Mechanical properties :
#
#
# Convention : Reuss Voigt Hill
#
# Bulk Modulus (GPa) = 31.66477 39.77767 35.72122
# Shear Modulus (GPa) = 17.72496 53.24321 35.48409
#
# Velocity S-wave (km/s) = 2.79095 4.83717 3.94890
# Velocity P-wave (km/s) = 4.92963 6.97699 6.04068
#
# Compressibility (1/GPa) = 0.03158084
#
# Stress axis : x y z
#
# Youngs Moduli (GPa) = 120.94599 62.29439 48.16841
#
# Poissons Ratio (x) = 0.23846 0.02095
# Poissons Ratio (y) = 0.46298 0.11982
# Poissons Ratio (z) = 0.05260 0.15495
#
# Static dielectric constant tensor:
#      x y z
#    x 1.886270 0.000000 0.000000 
#    y 0.000000 1.887170 0.000000 
#    z 0.000000 0.000000 1.884930 
# 
# From -- ./inp_files/16473.got.cif
#   From: 2010.05.17/outbox.cif.g08.bks.cpg/sg68_9_cif.got.tgz:16473.got - 2010.06.03 18:57:09.
