data_PCOD9510700
_publ_section_title
;
Structure prediction by ZEFSAII (Michael W. Deem and Ramdas Pophale) SiO2 
 PCOD9510700
Probable space group: C C C A
;
_chemical_formula_sum "Si O2"
_cell_formula_units_Z 44
_cell_length_a 13.345850
_cell_length_b 8.313500
_cell_length_c 16.763537
_cell_angle_alpha 90.000000
_cell_angle_beta 90.000000
_cell_angle_gamma 90.000000
_cell_volume 1859.926567
_symmetry_space_group_name_H-M "C C C A"
_symmetry_group_IT_number 68
_space_group.IT_coordinate_system_code '2'
_symmetry_cell_setting 'orthorhombic'
loop_
_space_group_symop_operation_xyz
x,y,z
-x,1/2-y,z
x,1/2-y,1/2-z
-x,y,1/2-z
-x,-y,-z
x,1/2+y,-z
-x,1/2+y,1/2+z
x,-y,1/2+z
1/2+x,1/2+y,z
1/2-x,-y,z
1/2+x,-y,1/2-z
1/2-x,1/2+y,1/2-z
1/2-x,1/2-y,-z
1/2+x,y,-z
1/2-x,y,1/2+z
1/2+x,1/2-y,1/2+z
loop_
_atom_site_type_symbol
_atom_site_label
_atom_site_fract_x
_atom_site_fract_y
_atom_site_fract_z
Si Si1 0.674886 0.845034 0.145406
Si Si2 0.000000 0.250000 0.250000
Si Si3 0.920812 0.371729 0.527087
Si Si4 0.750000 0.000000 0.360842
O O1 0.571023 0.859259 0.193960
O O2 0.720007 0.673225 0.175287
O O3 0.750000 0.000000 0.150392
O O4 0.642152 0.820556 0.052022
O O5 0.844056 0.447050 0.587241
O O6 0.000000 0.250000 0.565910
O O7 0.000000 0.500000 0.500000
#
# Coordination Sequence:
#
# PCOD9510700 Si02
#       4
#    16   4  16   8
#     4  12  26  46  72 102 141 187 238 292 349 424
#     4  12  28  52  70  98 148 194 252 290 338 430
#     4  12  21  39  69 105 142 175 222 287 362 419
#     4  12  24  44  74 110 140 180 228 304 368 420
#
# _framework density 23.656849000000001
#
# number of rings (size 3 to 8) (size 9 to 14) (size 15 to 20)
#    0.000    0.000    7.273    3.273    2.545    0.000 
#    0.000    1.818    0.000    0.000    0.000    0.000 
#    0.000    0.000    0.000    0.000    0.000    0.000 
#
# Total GULP energy -122755.775534 kJ/mol
# GULP energy per Si atom -5579.807979 kJ/mol
# Density = 2.360300 g / cm^3
# Si number density = 23.656849 Si / 1000 Ang^3
#
#
#
# Elastic Constant Matrix: (Units=GPa)
#
#
# Indices 1 2 3 4 5 6 
#
# 1 184.4827 88.7418 55.5434 0.0000 0.0000 0.0000
# 2 88.7418 167.0177 47.6689 0.0000 0.0000 0.0000
# 3 55.5434 47.6689 82.8091 0.0000 0.0000 0.0000
# 4 0.0000 0.0000 0.0000 -54.5137 0.0000 0.0000
# 5 0.0000 0.0000 0.0000 0.0000 -5.6750 0.0000
# 6 0.0000 0.0000 0.0000 0.0000 0.0000 68.4228
#
#
#
# Elastic Compliance Matrix: (Units=1/GPa)
#
#
# Indices 1 2 3 4 5 6 
#
# 1 0.008055 -0.003276 -0.003517 0.000000 0.000000 0.000000
# 2 -0.003276 0.008497 -0.002694 0.000000 0.000000 0.000000
# 3 -0.003517 -0.002694 0.015986 0.000000 0.000000 0.000000
# 4 0.000000 0.000000 0.000000 -0.018344 0.000000 0.000000
# 5 0.000000 0.000000 0.000000 0.000000 -0.176212 0.000000
# 6 0.000000 0.000000 0.000000 0.000000 0.000000 0.014615
#
#
# Mechanical properties :
#
#
# Convention : Reuss Voigt Hill
#
# Bulk Modulus (GPa) = 73.72547 90.91308 82.31928
# Shear Modulus (GPa) = -40.35294 17.80385 -11.27454
#
# Velocity S-wave (km/s) = -4.13457 2.74631 -2.18546
# Velocity P-wave (km/s) = 2.90505 6.96919 5.33896
#
# Compressibility (1/GPa) = 0.01356383
#
# Stress axis : x y z
#
# Youngs Moduli (GPa) = 124.13881 117.68831 62.55586
#
# Poissons Ratio (x) = 0.38558 0.22002
# Poissons Ratio (y) = 0.40672 0.16851
# Poissons Ratio (z) = 0.43662 0.31702
#
# Static dielectric constant tensor:
#      x y z
#    x 1.781590 0.000000 0.000000 
#    y 0.000000 3.602870 0.000000 
#    z 0.000000 0.000000 1.845470 
# 
# From -- ./inp_files/27415.got.cif
#   From: 2010.05.17/outbox.cif.g08.bks.cpg/sg68_14_cif.got.tgz:27415.got - 2010.06.03 18:57:09.
