data_PCOD9510983
_publ_section_title
;
Structure prediction by ZEFSAII (Michael W. Deem and Ramdas Pophale) SiO2 
 PCOD9510983
Probable space group: F M M M
;
_chemical_formula_sum "Si O2"
_cell_formula_units_Z 240
_cell_length_a 28.611321
_cell_length_b 24.824627
_cell_length_c 21.511755
_cell_angle_alpha 90.000000
_cell_angle_beta 90.000000
_cell_angle_gamma 90.000000
_cell_volume 15279.054663
_symmetry_space_group_name_H-M "F M M M"
_symmetry_group_IT_number 69
_symmetry_cell_setting 'orthorhombic'
loop_
_space_group_symop_operation_xyz
x,y,z
-x,-y,z
x,-y,-z
-x,y,-z
-x,-y,-z
x,y,-z
-x,y,z
x,-y,z
x,1/2+y,1/2+z
-x,1/2-y,1/2+z
x,1/2-y,1/2-z
-x,1/2+y,1/2-z
-x,1/2-y,1/2-z
x,1/2+y,1/2-z
-x,1/2+y,1/2+z
x,1/2-y,1/2+z
1/2+x,y,1/2+z
1/2-x,-y,1/2+z
1/2+x,-y,1/2-z
1/2-x,y,1/2-z
1/2-x,-y,1/2-z
1/2+x,y,1/2-z
1/2-x,y,1/2+z
1/2+x,-y,1/2+z
1/2+x,1/2+y,z
1/2-x,1/2-y,z
1/2+x,1/2-y,-z
1/2-x,1/2+y,-z
1/2-x,1/2-y,-z
1/2+x,1/2+y,-z
1/2-x,1/2+y,z
1/2+x,1/2-y,z
loop_
_atom_site_type_symbol
_atom_site_label
_atom_site_fract_x
_atom_site_fract_y
_atom_site_fract_z
Si Si1 0.094912 0.824443 0.213554
Si Si2 0.944983 0.718206 0.157542
Si Si3 0.659630 0.058826 0.849090
Si Si4 0.777952 0.296453 0.123730
Si Si5 0.627002 0.841507 0.927446
Si Si6 0.178772 0.250000 0.250000
Si Si7 0.136104 0.438064 0.297132
Si Si8 0.760983 0.401330 0.323176
O O1 0.069861 0.780562 0.169342
O O2 0.068916 0.815376 0.279811
O O3 0.146080 0.798662 0.225915
O O4 0.102524 0.885997 0.191495
O O5 0.914271 0.693090 0.102908
O O6 0.000000 0.714639 0.147581
O O7 0.634191 0.103543 0.889334
O O8 0.644130 0.063736 0.777374
O O9 0.716033 0.065485 0.847575
O O10 0.647638 0.000000 0.872555
O O11 0.750000 0.250000 0.090227
O O12 0.823821 0.312399 0.086628
O O13 0.794558 0.273762 0.191034
O O14 0.744150 0.346020 0.139366
O O15 0.620161 0.850205 0.000000
O O16 0.121315 0.500000 0.312580
O O17 0.187663 0.427096 0.326443
O O18 0.750000 0.391624 0.250000
#
# Coordination Sequence:
#
# PCOD9510983 Si02
#       8
#    32  32  32  32  32  16  32  32
#     4  10  16  30  52  74 100 122 154 195 253 316
#     4  10  20  35  55  73  92 120 159 208 259 308
#     4   9  17  31  46  65  98 136 169 202 234 274
#     4  11  18  27  45  69 100 134 160 198 244 296
#     4  11  22  35  48  69  96 128 174 213 243 283
#     4  10  15  26  47  72  94 126 165 200 237 294
#     4  10  17  26  45  74 106 132 158 193 238 291
#     4   9  16  23  39  69 100 128 163 194 232 281
#
# _framework density 15.707777999999999
#
# number of rings (size 3 to 8) (size 9 to 14) (size 15 to 20)
#    0.000    2.133    4.000    4.600    0.000    2.400 
#    0.000    0.000    0.000    2.800    0.000    0.933 
#    0.000    0.533    0.000    1.200    0.000    0.000 
#
# Total GULP energy -334189.530466 kJ/mol
# GULP energy per Si atom -5569.825508 kJ/mol
# Density = 1.567203 g / cm^3
# Si number density = 15.707778 Si / 1000 Ang^3
#
#
#
# Elastic Constant Matrix: (Units=GPa)
#
#
# Indices 1 2 3 4 5 6 
#
# 1 67.9286 49.4144 23.9353 0.0000 0.0000 0.0000
# 2 49.4144 120.0986 19.0145 0.0000 0.0000 0.0000
# 3 23.9353 19.0145 47.3552 0.0000 0.0000 0.0000
# 4 0.0000 0.0000 0.0000 7.0212 0.0000 0.0000
# 5 0.0000 0.0000 0.0000 0.0000 -0.1705 0.0000
# 6 0.0000 0.0000 0.0000 0.0000 0.0000 7.4110
#
#
#
# Elastic Compliance Matrix: (Units=1/GPa)
#
#
# Indices 1 2 3 4 5 6 
#
# 1 0.023956 -0.008479 -0.008704 0.000000 0.000000 0.000000
# 2 -0.008479 0.011893 -0.000490 0.000000 0.000000 0.000000
# 3 -0.008704 -0.000490 0.025713 0.000000 0.000000 0.000000
# 4 0.000000 0.000000 0.000000 0.142427 0.000000 0.000000
# 5 0.000000 0.000000 0.000000 0.000000 -5.864522 0.000000
# 6 0.000000 0.000000 0.000000 0.000000 0.000000 0.134935
#
#
# Mechanical properties :
#
#
# Convention : Reuss Voigt Hill
#
# Bulk Modulus (GPa) = 38.14335 46.67899 42.41117
# Shear Modulus (GPa) = -0.91216 12.38686 5.73735
#
# Velocity S-wave (km/s) = -0.76287 2.81122 1.91324
# Velocity P-wave (km/s) = 4.85385 6.34971 5.65149
#
# Compressibility (1/GPa) = 0.02621689
#
# Stress axis : x y z
#
# Youngs Moduli (GPa) = 41.74315 84.08619 38.89079
#
# Poissons Ratio (x) = 0.71294 0.33850
# Poissons Ratio (y) = 0.35392 0.01905
# Poissons Ratio (z) = 0.36333 0.04118
#
# Static dielectric constant tensor:
#      x y z
#    x 1.529290 0.000000 0.000000 
#    y 0.000000 1.578340 0.000000 
#    z 0.000000 0.000000 1.496990 
# 
# From -- ./inp_files/34120.got.cif
#   From: 2010.05.17/outbox.cif.g08.bks.cpg/sg69_18_cif.got.tgz:34120.got - 2010.06.03 19:29:58.
