data_PCOD9510861
_publ_section_title
;
Structure prediction by ZEFSAII (Michael W. Deem and Ramdas Pophale) SiO2 
 PCOD9510861
Probable space group: C C C A
;
_chemical_formula_sum "Si O2"
_cell_formula_units_Z 72
_cell_length_a 21.371138
_cell_length_b 12.100832
_cell_length_c 13.969619
_cell_angle_alpha 90.000000
_cell_angle_beta 90.000000
_cell_angle_gamma 90.000000
_cell_volume 3612.662922
_symmetry_space_group_name_H-M "C C C A"
_symmetry_group_IT_number 68
_space_group.IT_coordinate_system_code '2'
_symmetry_cell_setting 'orthorhombic'
loop_
_space_group_symop_operation_xyz
x,y,z
-x,1/2-y,z
x,1/2-y,1/2-z
-x,y,1/2-z
-x,-y,-z
x,1/2+y,-z
-x,1/2+y,1/2+z
x,-y,1/2+z
1/2+x,1/2+y,z
1/2-x,-y,z
1/2+x,-y,1/2-z
1/2-x,1/2+y,1/2-z
1/2-x,1/2-y,-z
1/2+x,y,-z
1/2-x,y,1/2+z
1/2+x,1/2-y,1/2+z
loop_
_atom_site_type_symbol
_atom_site_label
_atom_site_fract_x
_atom_site_fract_y
_atom_site_fract_z
Si Si1 0.331162 0.626051 0.232560
Si Si2 0.192083 0.666326 0.515974
Si Si3 0.572637 0.249605 0.413444
Si Si4 0.750000 0.500000 0.122449
Si Si5 0.928356 0.068989 0.744124
O O1 0.354011 0.750000 0.250000
O O2 0.307026 0.624265 0.124263
O O3 0.277971 0.593930 0.308663
O O4 0.383022 0.533628 0.247735
O O5 0.250000 0.750000 0.500000
O O6 0.126509 0.726600 0.490523
O O7 0.201050 0.562064 0.445676
O O8 0.500000 0.250000 0.447670
O O9 0.582553 0.362324 0.353711
O O10 0.579040 0.154288 0.332250
O O11 0.000000 0.032208 0.750000
#
# Coordination Sequence:
#
# PCOD9510861 Si02
#       5
#    16  16  16   8  16
#     4  12  26  42  64  98 136 179 216 277 349 403
#     4  12  26  43  67 100 133 175 227 284 344 407
#     4   9  20  43  71  96 124 177 234 276 327 403
#     4  12  26  46  66  92 138 176 230 284 338 410
#     4   9  20  42  70  93 128 178 227 275 331 400
#
# _framework density 19.929897
#
# number of rings (size 3 to 8) (size 9 to 14) (size 15 to 20)
#    0.000    1.333    4.444    2.000    6.222    0.444 
#    4.000    2.222    0.000    0.000    0.000    0.000 
#    0.000    0.000    0.000    0.000    0.000    0.000 
#
# Total GULP energy -201128.523560 kJ/mol
# GULP energy per Si atom -5586.903432 kJ/mol
# Density = 1.988454 g / cm^3
# Si number density = 19.929897 Si / 1000 Ang^3
#
#
#
# Elastic Constant Matrix: (Units=GPa)
#
#
# Indices 1 2 3 4 5 6 
#
# 1 78.8502 40.2490 35.8567 0.0000 0.0000 0.0000
# 2 40.2490 90.8975 22.9415 0.0000 0.0000 0.0000
# 3 35.8567 22.9415 110.6225 0.0000 0.0000 0.0000
# 4 0.0000 0.0000 0.0000 21.5803 0.0000 0.0000
# 5 0.0000 0.0000 0.0000 0.0000 21.0148 0.0000
# 6 0.0000 0.0000 0.0000 0.0000 0.0000 33.1604
#
#
#
# Elastic Compliance Matrix: (Units=1/GPa)
#
#
# Indices 1 2 3 4 5 6 
#
# 1 0.018272 -0.006960 -0.004479 0.000000 0.000000 0.000000
# 2 -0.006960 0.014260 -0.000701 0.000000 0.000000 0.000000
# 3 -0.004479 -0.000701 0.010637 0.000000 0.000000 0.000000
# 4 0.000000 0.000000 0.000000 0.046339 0.000000 0.000000
# 5 0.000000 0.000000 0.000000 0.000000 0.047586 0.000000
# 6 0.000000 0.000000 0.000000 0.000000 0.000000 0.030156
#
#
# Mechanical properties :
#
#
# Convention : Reuss Voigt Hill
#
# Bulk Modulus (GPa) = 52.94379 53.16271 53.05325
# Shear Modulus (GPa) = 25.27455 27.23930 26.25693
#
# Velocity S-wave (km/s) = 3.56500 3.70098 3.63363
# Velocity P-wave (km/s) = 6.60063 6.70789 6.65448
#
# Compressibility (1/GPa) = 0.01888796
#
# Stress axis : x y z
#
# Youngs Moduli (GPa) = 54.72852 70.12440 94.01104
#
# Poissons Ratio (x) = 0.48808 0.42109
# Poissons Ratio (y) = 0.38093 0.06593
# Poissons Ratio (z) = 0.24514 0.04918
#
# Static dielectric constant tensor:
#      x y z
#    x 1.701700 0.000000 0.000000 
#    y 0.000000 1.689380 0.000000 
#    z 0.000000 0.000000 1.696560 
# 
# From -- ./inp_files/25115.got.cif
#   From: 2010.05.17/outbox.cif.g08.bks.cpg/sg68_13_cif.got.tgz:25115.got - 2010.06.03 18:57:09.
