data_PCOD9510754
_publ_section_title
;
Structure prediction by ZEFSAII (Michael W. Deem and Ramdas Pophale) SiO2 
 PCOD9510754
Probable space group: C C C A
;
_chemical_formula_sum "Si O2"
_cell_formula_units_Z 68
_cell_length_a 8.167585
_cell_length_b 22.837406
_cell_length_c 17.113451
_cell_angle_alpha 90.000000
_cell_angle_beta 90.000000
_cell_angle_gamma 90.000000
_cell_volume 3192.111342
_symmetry_space_group_name_H-M "C C C A"
_symmetry_group_IT_number 68
_space_group.IT_coordinate_system_code '2'
_symmetry_cell_setting 'orthorhombic'
loop_
_space_group_symop_operation_xyz
x,y,z
-x,1/2-y,z
x,1/2-y,1/2-z
-x,y,1/2-z
-x,-y,-z
x,1/2+y,-z
-x,1/2+y,1/2+z
x,-y,1/2+z
1/2+x,1/2+y,z
1/2-x,-y,z
1/2+x,-y,1/2-z
1/2-x,1/2+y,1/2-z
1/2-x,1/2-y,-z
1/2+x,y,-z
1/2-x,y,1/2+z
1/2+x,1/2-y,1/2+z
loop_
_atom_site_type_symbol
_atom_site_label
_atom_site_fract_x
_atom_site_fract_y
_atom_site_fract_z
Si Si1 0.500000 0.250000 0.250000
Si Si2 0.021361 0.625004 0.462821
Si Si3 0.303023 0.432839 0.604388
Si Si4 0.000000 0.615070 0.750000
Si Si5 0.500000 0.750000 0.455760
Si Si6 0.745255 0.185174 0.856652
O O1 0.611193 0.289696 0.195438
O O2 0.067091 0.584372 0.536443
O O3 0.004689 0.691164 0.494559
O O4 0.180958 0.632876 0.408894
O O5 0.860897 0.604729 0.415913
O O6 0.250000 0.500000 0.599396
O O7 0.384429 0.419817 0.688816
O O8 0.108480 0.656940 0.803289
O O9 0.339113 0.738624 0.403588
#
# Coordination Sequence:
#
# PCOD9510754 Si02
#       6
#     4  16  16   8   8  16
#     4  12  26  38  66 114 152 202 224 292 378 448
#     4  12  25  46  74 111 139 194 242 304 367 432
#     4  12  27  49  76 104 147 191 254 307 361 435
#     4  12  26  49  67 108 144 200 238 306 370 436
#     4  12  23  43  74 106 148 182 236 302 361 443
#     4  12  25  42  70 105 156 185 241 291 372 446
#
# _framework density 21.302515
#
# number of rings (size 3 to 8) (size 9 to 14) (size 15 to 20)
#    0.000    0.000    4.706    4.941    3.294    1.882 
#    0.000    1.176    0.000    0.000    0.000    0.000 
#    0.000    0.000    0.000    0.000    0.000    0.000 
#
# Total GULP energy -190292.005915 kJ/mol
# GULP energy per Si atom -5596.823703 kJ/mol
# Density = 2.125403 g / cm^3
# Si number density = 21.302515 Si / 1000 Ang^3
#
#
#
# Elastic Constant Matrix: (Units=GPa)
#
#
# Indices 1 2 3 4 5 6 
#
# 1 134.0657 56.3671 61.9861 0.0000 0.0000 0.0000
# 2 56.3671 145.4558 61.5817 0.0000 0.0000 0.0000
# 3 61.9861 61.5817 119.7695 0.0000 0.0000 0.0000
# 4 0.0000 0.0000 0.0000 11.9457 0.0000 0.0000
# 5 0.0000 0.0000 0.0000 0.0000 69.6619 0.0000
# 6 0.0000 0.0000 0.0000 0.0000 0.0000 36.9315
#
#
#
# Elastic Compliance Matrix: (Units=1/GPa)
#
#
# Indices 1 2 3 4 5 6 
#
# 1 0.010340 -0.002226 -0.004207 0.000000 0.000000 0.000000
# 2 -0.002226 0.009267 -0.003613 0.000000 0.000000 0.000000
# 3 -0.004207 -0.003613 0.012384 0.000000 0.000000 0.000000
# 4 0.000000 0.000000 0.000000 0.083712 0.000000 0.000000
# 5 0.000000 0.000000 0.000000 0.000000 0.014355 0.000000
# 6 0.000000 0.000000 0.000000 0.000000 0.000000 0.027077
#
#
# Mechanical properties :
#
#
# Convention : Reuss Voigt Hill
#
# Bulk Modulus (GPa) = 84.03348 84.35120 84.19234
# Shear Modulus (GPa) = 27.59477 38.33154 32.96315
#
# Velocity S-wave (km/s) = 3.60304 4.24652 3.93795
# Velocity P-wave (km/s) = 7.53940 7.98290 7.76432
#
# Compressibility (1/GPa) = 0.01190002
#
# Stress axis : x y z
#
# Youngs Moduli (GPa) = 96.71189 107.90885 80.74759
#
# Poissons Ratio (x) = 0.24019 0.33970
# Poissons Ratio (y) = 0.21527 0.29173
# Poissons Ratio (z) = 0.40686 0.38986
#
# Static dielectric constant tensor:
#      x y z
#    x 1.802850 0.000000 0.000000 
#    y 0.000000 1.716390 0.000000 
#    z 0.000000 0.000000 1.843790 
# 
# From -- ./inp_files/28020.got.cif
#   From: 2010.05.17/outbox.cif.g08.bks.cpg/sg68_15_cif.got.tgz:28020.got - 2010.06.03 18:57:09.
