data_PCOD9510200
_publ_section_title
;
Structure prediction by ZEFSAII (Michael W. Deem and Ramdas Pophale) SiO2 
 PCOD9510200
Probable space group: C C C A
;
_chemical_formula_sum "Si O2"
_cell_formula_units_Z 100
_cell_length_a 26.984505
_cell_length_b 20.919020
_cell_length_c 8.624431
_cell_angle_alpha 90.000000
_cell_angle_beta 90.000000
_cell_angle_gamma 90.000000
_cell_volume 4868.399879
_symmetry_space_group_name_H-M "C C C A"
_symmetry_group_IT_number 68
_space_group.IT_coordinate_system_code '2'
_symmetry_cell_setting 'orthorhombic'
loop_
_space_group_symop_operation_xyz
x,y,z
-x,1/2-y,z
x,1/2-y,1/2-z
-x,y,1/2-z
-x,-y,-z
x,1/2+y,-z
-x,1/2+y,1/2+z
x,-y,1/2+z
1/2+x,1/2+y,z
1/2-x,-y,z
1/2+x,-y,1/2-z
1/2-x,1/2+y,1/2-z
1/2-x,1/2-y,-z
1/2+x,y,-z
1/2-x,y,1/2+z
1/2+x,1/2-y,1/2+z
loop_
_atom_site_type_symbol
_atom_site_label
_atom_site_fract_x
_atom_site_fract_y
_atom_site_fract_z
Si Si1 0.809217 0.047243 0.296868
Si Si2 0.942912 0.908039 0.405749
Si Si3 0.500000 0.250000 0.750000
Si Si4 0.282851 0.913898 0.853697
Si Si5 0.041997 0.145951 0.023171
Si Si6 0.628105 0.325150 0.278096
Si Si7 0.925421 0.538401 0.753959
O O1 0.775604 0.090632 0.182464
O O2 0.793762 0.064805 0.471004
O O3 0.867547 0.051842 0.274708
O O4 0.798333 0.973470 0.255227
O O5 0.897575 0.861134 0.366491
O O6 0.936207 0.942415 0.570715
O O7 0.993208 0.867418 0.420347
O O8 0.940196 0.965364 0.280797
O O9 0.467920 0.295165 0.861672
O O10 0.318231 0.855110 0.813209
O O11 0.047883 0.084066 0.131452
O O12 0.090022 0.158826 0.918526
O O13 0.630347 0.250000 0.250000
#
# Coordination Sequence:
#
# PCOD9510200 Si02
#       7
#    16  16   4  16  16  16  16
#     4  11  22  41  72  99 135 166 222 287 360 411
#     4  12  25  43  70 104 143 183 232 291 351 416
#     4  12  24  48  70  96 140 204 248 264 340 444
#     4  11  23  42  69 104 129 171 226 284 350 427
#     4  12  25  45  66 101 139 188 238 280 340 420
#     4  12  27  46  68  96 141 188 236 286 348 422
#     4  12  23  42  71 107 137 177 224 298 355 404
#
# _framework density 20.54063
#
# number of rings (size 3 to 8) (size 9 to 14) (size 15 to 20)
#    0.000    0.320    4.800    5.760    2.240    1.920 
#    0.000    0.800    1.760    0.000    0.000    0.000 
#    0.000    0.000    0.000    0.000    0.000    0.000 
#
# Total GULP energy -279804.358136 kJ/mol
# GULP energy per Si atom -5596.087163 kJ/mol
# Density = 2.049388 g / cm^3
# Si number density = 20.540630 Si / 1000 Ang^3
#
#
#
# Elastic Constant Matrix: (Units=GPa)
#
#
# Indices 1 2 3 4 5 6 
#
# 1 117.5588 30.0869 25.6185 0.0000 0.0000 0.0000
# 2 30.0869 126.7415 41.2388 0.0000 0.0000 0.0000
# 3 25.6185 41.2388 102.3781 0.0000 0.0000 0.0000
# 4 0.0000 0.0000 0.0000 -43.9769 0.0000 0.0000
# 5 0.0000 0.0000 0.0000 0.0000 28.3585 0.0000
# 6 0.0000 0.0000 0.0000 0.0000 0.0000 26.4519
#
#
#
# Elastic Compliance Matrix: (Units=1/GPa)
#
#
# Indices 1 2 3 4 5 6 
#
# 1 0.009294 -0.001668 -0.001654 0.000000 0.000000 0.000000
# 2 -0.001668 0.009380 -0.003361 0.000000 0.000000 0.000000
# 3 -0.001654 -0.003361 0.011535 0.000000 0.000000 0.000000
# 4 0.000000 0.000000 0.000000 -0.022739 0.000000 0.000000
# 5 0.000000 0.000000 0.000000 0.000000 0.035263 0.000000
# 6 0.000000 0.000000 0.000000 0.000000 0.000000 0.037805
#
#
# Mechanical properties :
#
#
# Convention : Reuss Voigt Hill
#
# Bulk Modulus (GPa) = 59.37040 60.06300 59.71670
# Shear Modulus (GPa) = 50.24305 18.81563 34.52934
#
# Velocity S-wave (km/s) = 4.95110 3.02987 4.10448
# Velocity P-wave (km/s) = 7.85183 6.44552 7.18317
#
# Compressibility (1/GPa) = 0.01684341
#
# Stress axis : x y z
#
# Youngs Moduli (GPa) = 107.60005 106.61453 86.69078
#
# Poissons Ratio (x) = 0.17785 0.14336
# Poissons Ratio (y) = 0.17949 0.29135
# Poissons Ratio (z) = 0.17793 0.35831
#
# Static dielectric constant tensor:
#      x y z
#    x 1.826580 0.000000 0.000000 
#    y 0.000000 1.692340 0.000000 
#    z 0.000000 0.000000 1.741600 
# 
# From -- ./inp_files/9019.got.cif
#   From: 2010.05.17/outbox.cif.g08.bks.cpg/sg68_5_cif.got.tgz:9019.got - 2010.06.03 18:57:09.
