data_PCOD9510276
_publ_section_title
;
Structure prediction by ZEFSAII (Michael W. Deem and Ramdas Pophale) SiO2 
 PCOD9510276
Probable space group: C C C A
;
_chemical_formula_sum "Si O2"
_cell_formula_units_Z 56
_cell_length_a 11.425595
_cell_length_b 9.544533
_cell_length_c 23.093801
_cell_angle_alpha 90.000000
_cell_angle_beta 90.000000
_cell_angle_gamma 90.000000
_cell_volume 2518.424460
_symmetry_space_group_name_H-M "C C C A"
_symmetry_group_IT_number 68
_space_group.IT_coordinate_system_code '2'
_symmetry_cell_setting 'orthorhombic'
loop_
_space_group_symop_operation_xyz
x,y,z
-x,1/2-y,z
x,1/2-y,1/2-z
-x,y,1/2-z
-x,-y,-z
x,1/2+y,-z
-x,1/2+y,1/2+z
x,-y,1/2+z
1/2+x,1/2+y,z
1/2-x,-y,z
1/2+x,-y,1/2-z
1/2-x,1/2+y,1/2-z
1/2-x,1/2-y,-z
1/2+x,y,-z
1/2-x,y,1/2+z
1/2+x,1/2-y,1/2+z
loop_
_atom_site_type_symbol
_atom_site_label
_atom_site_fract_x
_atom_site_fract_y
_atom_site_fract_z
Si Si1 0.633188 0.586714 0.731337
Si Si2 0.750000 0.000000 0.106805
Si Si3 0.087545 0.126116 0.489627
Si Si4 0.635483 0.285466 0.112050
O O1 0.639319 0.750000 0.750000
O O2 0.500000 0.537472 0.750000
O O3 0.750000 0.500000 0.750317
O O4 0.641953 0.597571 0.661347
O O5 0.808971 0.861813 0.134030
O O6 0.659983 0.923002 0.064770
O O7 0.165698 0.163590 0.546701
O O8 0.000000 0.250000 0.474826
O O9 0.000000 0.000000 0.500000
O O10 0.500000 0.250000 0.104837
#
# Coordination Sequence:
#
# PCOD9510276 Si02
#       4
#    16   8  16  16
#     4  11  26  48  75 101 140 181 234 298 358 416
#     4  12  24  42  70  96 144 184 224 278 348 416
#     4  11  23  40  63  97 139 181 225 273 336 412
#     4  11  23  43  67 100 136 177 229 287 345 410
#
# _framework density 22.236125999999999
#
# number of rings (size 3 to 8) (size 9 to 14) (size 15 to 20)
#    0.000    0.857    8.571    0.857    4.000    0.571 
#    0.000    0.000    0.000    0.000    0.000    0.000 
#    0.000    0.000    0.000    0.000    0.000    0.000 
#
# Total GULP energy -156036.929130 kJ/mol
# GULP energy per Si atom -5572.747469 kJ/mol
# Density = 2.218552 g / cm^3
# Si number density = 22.236126 Si / 1000 Ang^3
#
#
#
# Elastic Constant Matrix: (Units=GPa)
#
#
# Indices 1 2 3 4 5 6 
#
# 1 119.2428 53.8152 23.5899 0.0000 0.0000 0.0000
# 2 53.8152 105.0168 10.2577 0.0000 0.0000 0.0000
# 3 23.5899 10.2577 80.8794 0.0000 0.0000 0.0000
# 4 0.0000 0.0000 0.0000 382.9426 0.0000 0.0000
# 5 0.0000 0.0000 0.0000 0.0000 -3.1940 0.0000
# 6 0.0000 0.0000 0.0000 0.0000 0.0000 63.0805
#
#
#
# Elastic Compliance Matrix: (Units=1/GPa)
#
#
# Indices 1 2 3 4 5 6 
#
# 1 0.011434 -0.005603 -0.002624 0.000000 0.000000 0.000000
# 2 -0.005603 0.012387 0.000063 0.000000 0.000000 0.000000
# 3 -0.002624 0.000063 0.013122 0.000000 0.000000 0.000000
# 4 0.000000 0.000000 0.000000 0.002611 0.000000 0.000000
# 5 0.000000 0.000000 0.000000 0.000000 -0.313085 0.000000
# 6 0.000000 0.000000 0.000000 0.000000 0.000000 0.015853
#
#
# Mechanical properties :
#
#
# Convention : Reuss Voigt Hill
#
# Bulk Modulus (GPa) = 48.50936 53.38498 50.94717
# Shear Modulus (GPa) = -21.32394 103.06424 40.87015
#
# Velocity S-wave (km/s) = -3.10010 6.81546 4.29185
# Velocity P-wave (km/s) = 3.00812 9.27332 6.89359
#
# Compressibility (1/GPa) = 0.02061458
#
# Stress axis : x y z
#
# Youngs Moduli (GPa) = 87.45769 80.72764 76.21076
#
# Poissons Ratio (x) = 0.45232 0.20000
# Poissons Ratio (y) = 0.49002 -0.00481
# Poissons Ratio (z) = 0.22952 -0.00510
#
# Static dielectric constant tensor:
#      x y z
#    x 1.878050 0.000000 0.000000 
#    y 0.000000 1.743090 0.000000 
#    z 0.000000 0.000000 1.811650 
# 
# From -- ./inp_files/48678.got.cif
#   From: 2010.05.17/outbox.cif.g08.bks.cpg/sg68_25_cif.got.tgz:48678.got - 2010.06.03 18:57:09.
