data_PCOD9510907
_publ_section_title
;
Structure prediction by ZEFSAII (Michael W. Deem and Ramdas Pophale) SiO2 
 PCOD9510907
Probable space group: C C C A
;
_chemical_formula_sum "Si O2"
_cell_formula_units_Z 36
_cell_length_a 8.760742
_cell_length_b 5.052646
_cell_length_c 33.649762
_cell_angle_alpha 90.000000
_cell_angle_beta 90.000000
_cell_angle_gamma 90.000000
_cell_volume 1489.504293
_symmetry_space_group_name_H-M "C C C A"
_symmetry_group_IT_number 68
_space_group.IT_coordinate_system_code '2'
_symmetry_cell_setting 'orthorhombic'
loop_
_space_group_symop_operation_xyz
x,y,z
-x,1/2-y,z
x,1/2-y,1/2-z
-x,y,1/2-z
-x,-y,-z
x,1/2+y,-z
-x,1/2+y,1/2+z
x,-y,1/2+z
1/2+x,1/2+y,z
1/2-x,-y,z
1/2+x,-y,1/2-z
1/2-x,1/2+y,1/2-z
1/2-x,1/2-y,-z
1/2+x,y,-z
1/2-x,y,1/2+z
1/2+x,1/2-y,1/2+z
loop_
_atom_site_type_symbol
_atom_site_label
_atom_site_fract_x
_atom_site_fract_y
_atom_site_fract_z
Si Si1 0.000000 0.750000 0.250000
Si Si2 0.750000 0.000000 0.360971
Si Si3 0.000000 0.750000 0.083025
Si Si4 0.250000 0.000000 0.805584
Si Si5 0.750000 0.000000 0.528906
O O1 0.108331 0.575368 0.222161
O O2 0.714307 0.750468 0.333189
O O3 0.888664 0.917888 0.389158
O O4 0.103423 0.553926 0.056527
O O5 0.750000 0.750000 0.500000
#
# Coordination Sequence:
#
# PCOD9510907 Si02
#       5
#     4   8   8   8   8
#     4  12  30  52  80 114 156 204 256 318 384 456
#     4  12  30  52  80 116 156 204 258 318 384 458
#     4  12  29  52  80 115 156 204 256 318 384 457
#     4  12  30  52  80 116 156 204 258 318 384 458
#     4  12  28  50  78 114 154 202 256 316 382 456
#
# _framework density 24.169115000000001
#
# number of rings (size 3 to 8) (size 9 to 14) (size 15 to 20)
#    0.000    0.000    0.000    6.667    0.000   32.889 
#    0.000    0.000    0.000    0.000    0.000    0.000 
#    0.000    0.000    0.000    0.000    0.000    0.000 
#
# Total GULP energy -101219.782773 kJ/mol
# GULP energy per Si atom -5623.321265 kJ/mol
# Density = 2.411411 g / cm^3
# Si number density = 24.169115 Si / 1000 Ang^3
#
#
#
# Elastic Constant Matrix: (Units=GPa)
#
#
# Indices 1 2 3 4 5 6 
#
# 1 231.9151 113.9131 149.3790 0.0000 0.0000 0.0000
# 2 113.9131 238.8424 143.6695 0.0000 0.0000 0.0000
# 3 149.3790 143.6695 226.8163 0.0000 0.0000 0.0000
# 4 0.0000 0.0000 0.0000 0.7667 0.0000 0.0000
# 5 0.0000 0.0000 0.0000 0.0000 17.4804 0.0000
# 6 0.0000 0.0000 0.0000 0.0000 0.0000 58.3684
#
#
#
# Elastic Compliance Matrix: (Units=1/GPa)
#
#
# Indices 1 2 3 4 5 6 
#
# 1 0.007633 -0.000996 -0.004396 0.000000 0.000000 0.000000
# 2 -0.000996 0.006894 -0.003711 0.000000 0.000000 0.000000
# 3 -0.004396 -0.003711 0.009654 0.000000 0.000000 0.000000
# 4 0.000000 0.000000 0.000000 1.304276 0.000000 0.000000
# 5 0.000000 0.000000 0.000000 0.000000 0.057207 0.000000
# 6 0.000000 0.000000 0.000000 0.000000 0.000000 0.017133
#
#
# Mechanical properties :
#
#
# Convention : Reuss Voigt Hill
#
# Bulk Modulus (GPa) = 167.34654 167.94413 167.64534
# Shear Modulus (GPa) = 3.51372 34.69725 19.10548
#
# Velocity S-wave (km/s) = 1.20705 3.79305 2.81462
# Velocity P-wave (km/s) = 8.44587 9.42448 8.94856
#
# Compressibility (1/GPa) = 0.00597562
#
# Stress axis : x y z
#
# Youngs Moduli (GPa) = 131.01766 145.05188 103.57988
#
# Poissons Ratio (x) = 0.14448 0.45532
# Poissons Ratio (y) = 0.13050 0.38437
# Poissons Ratio (z) = 0.57593 0.53826
#
# Static dielectric constant tensor:
#      x y z
#    x 2.048770 0.000000 0.000000 
#    y 0.000000 1.878930 0.000000 
#    z 0.000000 0.000000 1.897670 
# 
# From -- ./inp_files/52603.got.cif
#   From: 2010.05.17/outbox.cif.g08.bks.cpg/sg68_27_cif.got.tgz:52603.got - 2010.06.03 18:57:09.
