data_PCOD9510420
_publ_section_title
;
Structure prediction by ZEFSAII (Michael W. Deem and Ramdas Pophale) SiO2 
 PCOD9510420
Probable space group: C C C A
;
_chemical_formula_sum "Si O2"
_cell_formula_units_Z 80
_cell_length_a 26.046077
_cell_length_b 8.561816
_cell_length_c 15.920237
_cell_angle_alpha 90.000000
_cell_angle_beta 90.000000
_cell_angle_gamma 90.000000
_cell_volume 3550.240215
_symmetry_space_group_name_H-M "C C C A"
_symmetry_group_IT_number 68
_space_group.IT_coordinate_system_code '2'
_symmetry_cell_setting 'orthorhombic'
loop_
_space_group_symop_operation_xyz
x,y,z
-x,1/2-y,z
x,1/2-y,1/2-z
-x,y,1/2-z
-x,-y,-z
x,1/2+y,-z
-x,1/2+y,1/2+z
x,-y,1/2+z
1/2+x,1/2+y,z
1/2-x,-y,z
1/2+x,-y,1/2-z
1/2-x,1/2+y,1/2-z
1/2-x,1/2-y,-z
1/2+x,y,-z
1/2-x,y,1/2+z
1/2+x,1/2-y,1/2+z
loop_
_atom_site_type_symbol
_atom_site_label
_atom_site_fract_x
_atom_site_fract_y
_atom_site_fract_z
Si Si1 0.132458 0.305233 0.005774
Si Si2 0.099889 0.627703 0.826085
Si Si3 0.196284 0.562437 0.066684
Si Si4 0.528970 0.904817 0.923144
Si Si5 0.303880 0.436470 0.260099
O O1 0.121552 0.222068 0.093991
O O2 0.148002 0.480959 0.025195
O O3 0.181011 0.238749 0.953273
O O4 0.079964 0.319913 0.957282
O O5 0.091093 0.750000 0.750000
O O6 0.049477 0.531727 0.855799
O O7 0.145387 0.506942 0.801495
O O8 0.250000 0.500000 0.032551
O O9 0.195309 0.510487 0.163002
O O10 0.500000 0.750000 0.889688
O O11 0.500000 0.000000 0.000000
O O12 0.303230 0.250000 0.250000
O O13 0.250000 0.500000 0.297495
#
# Coordination Sequence:
#
# PCOD9510420 Si02
#       5
#    16  16  16  16  16
#     4  12  23  45  74 105 140 194 245 301 355 442
#     4  12  25  46  76 108 153 190 244 312 377 446
#     4  11  24  41  69 108 150 192 245 285 355 445
#     4  12  25  49  81 105 141 193 251 316 382 443
#     4  11  25  42  69 107 156 202 241 299 371 445
#
# _framework density 22.533687
#
# number of rings (size 3 to 8) (size 9 to 14) (size 15 to 20)
#    0.000    0.400    6.000    2.400    2.800    0.800 
#    0.000    2.000    4.400    0.000    0.000    0.000 
#    0.000    0.000    0.000    0.000    0.000    0.000 
#
# Total GULP energy -223270.778942 kJ/mol
# GULP energy per Si atom -5581.769474 kJ/mol
# Density = 2.248240 g / cm^3
# Si number density = 22.533687 Si / 1000 Ang^3
#
#
#
# Elastic Constant Matrix: (Units=GPa)
#
#
# Indices 1 2 3 4 5 6 
#
# 1 121.3890 50.8728 44.1020 0.0000 0.0000 0.0000
# 2 50.8728 114.7675 30.4890 0.0000 0.0000 0.0000
# 3 44.1020 30.4890 83.9762 0.0000 0.0000 0.0000
# 4 0.0000 0.0000 0.0000 37.3634 0.0000 0.0000
# 5 0.0000 0.0000 0.0000 0.0000 35.2715 0.0000
# 6 0.0000 0.0000 0.0000 0.0000 0.0000 42.6998
#
#
#
# Elastic Compliance Matrix: (Units=1/GPa)
#
#
# Indices 1 2 3 4 5 6 
#
# 1 0.011560 -0.003886 -0.004660 0.000000 0.000000 0.000000
# 2 -0.003886 0.010950 -0.001935 0.000000 0.000000 0.000000
# 3 -0.004660 -0.001935 0.015058 0.000000 0.000000 0.000000
# 4 0.000000 0.000000 0.000000 0.026764 0.000000 0.000000
# 5 0.000000 0.000000 0.000000 0.000000 0.028351 0.000000
# 6 0.000000 0.000000 0.000000 0.000000 0.000000 0.023419
#
#
# Mechanical properties :
#
#
# Convention : Reuss Voigt Hill
#
# Bulk Modulus (GPa) = 60.21930 63.45115 61.83522
# Shear Modulus (GPa) = 35.06346 36.04487 35.55417
#
# Velocity S-wave (km/s) = 3.94895 4.00384 3.97649
# Velocity P-wave (km/s) = 6.89742 7.04228 6.97023
#
# Compressibility (1/GPa) = 0.01660597
#
# Stress axis : x y z
#
# Youngs Moduli (GPa) = 86.50850 91.32597 66.41083
#
# Poissons Ratio (x) = 0.35490 0.30947
# Poissons Ratio (y) = 0.33618 0.12848
# Poissons Ratio (z) = 0.40312 0.17668
#
# Static dielectric constant tensor:
#      x y z
#    x 1.825710 0.000000 0.000000 
#    y 0.000000 1.897580 0.000000 
#    z 0.000000 0.000000 1.879300 
# 
# From -- ./inp_files/33973.got.cif
#   From: 2010.05.17/outbox.cif.g08.bks.cpg/sg68_17_cif.got.tgz:33973.got - 2010.06.03 18:57:09.
