data_PCOD9510829
_publ_section_title
;
Structure prediction by ZEFSAII (Michael W. Deem and Ramdas Pophale) SiO2 
 PCOD9510829
Probable space group: C C C A
;
_chemical_formula_sum "Si O2"
_cell_formula_units_Z 48
_cell_length_a 13.809188
_cell_length_b 31.189959
_cell_length_c 4.916480
_cell_angle_alpha 90.000000
_cell_angle_beta 90.000000
_cell_angle_gamma 90.000000
_cell_volume 2117.567305
_symmetry_space_group_name_H-M "C C C A"
_symmetry_group_IT_number 68
_space_group.IT_coordinate_system_code '2'
_symmetry_cell_setting 'orthorhombic'
loop_
_space_group_symop_operation_xyz
x,y,z
-x,1/2-y,z
x,1/2-y,1/2-z
-x,y,1/2-z
-x,-y,-z
x,1/2+y,-z
-x,1/2+y,1/2+z
x,-y,1/2+z
1/2+x,1/2+y,z
1/2-x,-y,z
1/2+x,-y,1/2-z
1/2-x,1/2+y,1/2-z
1/2-x,1/2-y,-z
1/2+x,y,-z
1/2-x,y,1/2+z
1/2+x,1/2-y,1/2+z
loop_
_atom_site_type_symbol
_atom_site_label
_atom_site_fract_x
_atom_site_fract_y
_atom_site_fract_z
Si Si1 0.561151 0.171828 0.509855
Si Si2 0.500000 0.532011 0.750000
Si Si3 0.817778 0.404670 0.735735
Si Si4 0.822669 0.750000 0.750000
O O1 0.500000 0.188682 0.250000
O O2 0.636622 0.140501 0.361150
O O3 0.610872 0.209231 0.684272
O O4 0.500000 0.147966 0.750000
O O5 0.500000 0.500000 0.500000
O O6 0.594437 0.561899 0.719688
O O7 0.726963 0.409403 0.533967
O O8 0.750000 0.750000 0.500000
#
# Coordination Sequence:
#
# PCOD9510829 Si02
#       4
#    16   8  16   8
#     4  12  25  45  74 105 149 201 259 312 381 452
#     4  12  28  48  76 112 155 191 248 316 378 456
#     4  12  26  47  77 111 150 200 251 306 379 456
#     4  12  25  44  67 106 148 192 256 315 372 447
#
# _framework density 22.66752
#
# number of rings (size 3 to 8) (size 9 to 14) (size 15 to 20)
#    0.000    0.000    1.667    8.500    2.333    5.333 
#    0.000    0.000    0.000    0.000    0.000    0.000 
#    0.000    0.000    0.000    0.000    0.000    0.000 
#
# Total GULP energy -134268.183371 kJ/mol
# GULP energy per Si atom -5594.507640 kJ/mol
# Density = 2.261593 g / cm^3
# Si number density = 22.667520 Si / 1000 Ang^3
#
#
#
# Elastic Constant Matrix: (Units=GPa)
#
#
# Indices 1 2 3 4 5 6 
#
# 1 105.2793 52.1766 17.2356 0.0000 0.0000 0.0000
# 2 52.1766 122.2288 15.0847 0.0000 0.0000 0.0000
# 3 17.2356 15.0847 138.8870 0.0000 0.0000 0.0000
# 4 0.0000 0.0000 0.0000 37.6589 0.0000 0.0000
# 5 0.0000 0.0000 0.0000 0.0000 63.3271 0.0000
# 6 0.0000 0.0000 0.0000 0.0000 0.0000 -92.1190
#
#
#
# Elastic Compliance Matrix: (Units=1/GPa)
#
#
# Indices 1 2 3 4 5 6 
#
# 1 0.012172 -0.005078 -0.000959 0.000000 0.000000 0.000000
# 2 -0.005078 0.010411 -0.000501 0.000000 0.000000 0.000000
# 3 -0.000959 -0.000501 0.007373 0.000000 0.000000 0.000000
# 4 0.000000 0.000000 0.000000 0.026554 0.000000 0.000000
# 5 0.000000 0.000000 0.000000 0.000000 0.015791 0.000000
# 6 0.000000 0.000000 0.000000 0.000000 0.000000 -0.010856
#
#
# Mechanical properties :
#
#
# Convention : Reuss Voigt Hill
#
# Bulk Modulus (GPa) = 59.23571 59.48766 59.36169
# Shear Modulus (GPa) = 62.38497 20.56659 41.47578
#
# Velocity S-wave (km/s) = 5.25181 3.01544 4.28219
# Velocity P-wave (km/s) = 7.93502 6.19874 7.12000
#
# Compressibility (1/GPa) = 0.01688171
#
# Stress axis : x y z
#
# Youngs Moduli (GPa) = 82.15570 96.05533 135.62107
#
# Poissons Ratio (x) = 0.48773 0.13007
# Poissons Ratio (y) = 0.41715 0.06789
# Poissons Ratio (z) = 0.07879 0.04809
#
# Static dielectric constant tensor:
#      x y z
#    x 1.907410 0.000000 0.000000 
#    y 0.000000 1.817640 0.000000 
#    z 0.000000 0.000000 1.804280 
# 
# From -- ./inp_files/599.got.cif
#   From: 2010.05.17/outbox.cif.g08.bks.cpg/sg68_1_cif.got.tgz:599.got - 2010.06.03 18:57:09.
