data_PCOD9510113
_publ_section_title
;
Structure prediction by ZEFSAII (Michael W. Deem and Ramdas Pophale) SiO2 
 PCOD9510113
Probable space group: C C C A
;
_chemical_formula_sum "Si O2"
_cell_formula_units_Z 96
_cell_length_a 17.536127
_cell_length_b 14.350416
_cell_length_c 18.630805
_cell_angle_alpha 90.000000
_cell_angle_beta 90.000000
_cell_angle_gamma 90.000000
_cell_volume 4688.455445
_symmetry_space_group_name_H-M "C C C A"
_symmetry_group_IT_number 68
_space_group.IT_coordinate_system_code '2'
_symmetry_cell_setting 'orthorhombic'
loop_
_space_group_symop_operation_xyz
x,y,z
-x,1/2-y,z
x,1/2-y,1/2-z
-x,y,1/2-z
-x,-y,-z
x,1/2+y,-z
-x,1/2+y,1/2+z
x,-y,1/2+z
1/2+x,1/2+y,z
1/2-x,-y,z
1/2+x,-y,1/2-z
1/2-x,1/2+y,1/2-z
1/2-x,1/2-y,-z
1/2+x,y,-z
1/2-x,y,1/2+z
1/2+x,1/2-y,1/2+z
loop_
_atom_site_type_symbol
_atom_site_label
_atom_site_fract_x
_atom_site_fract_y
_atom_site_fract_z
Si Si1 0.758090 0.260974 0.835445
Si Si2 0.922204 0.691909 0.153973
Si Si3 0.578774 0.458652 0.026739
Si Si4 0.176038 0.056292 0.390839
Si Si5 0.589637 0.018626 0.245713
Si Si6 0.319704 0.928109 0.127290
O O1 0.755412 0.250000 0.750000
O O2 0.847039 0.254428 0.857729
O O3 0.712612 0.353188 0.854965
O O4 0.714918 0.173959 0.871537
O O5 0.930826 0.619933 0.087703
O O6 0.904567 0.623523 0.221931
O O7 0.000000 0.750000 0.162443
O O8 0.626304 0.543186 0.062092
O O9 0.500000 0.500000 0.000000
O O10 0.624158 0.420252 0.958549
O O11 0.250000 0.000000 0.416207
O O12 0.127093 0.998146 0.331897
O O13 0.500000 0.996433 0.250000
O O14 0.634172 0.951212 0.300231
O O15 0.250000 0.000000 0.126199
#
# Coordination Sequence:
#
# PCOD9510113 Si02
#       6
#    16  16  16  16  16  16
#     4  12  25  43  75 110 138 181 244 300 355 429
#     4  11  27  44  71 108 143 187 240 300 356 429
#     4  11  26  48  69  99 148 196 233 296 368 426
#     4  12  26  43  71 108 141 188 243 292 354 436
#     4  11  23  43  69 102 145 181 230 295 356 420
#     4  11  21  47  71  98 143 188 231 288 362 421
#
# _framework density 20.475826999999999
#
# number of rings (size 3 to 8) (size 9 to 14) (size 15 to 20)
#    0.000    0.667    5.000    4.000    7.000    2.000 
#    0.000    3.333    0.000    0.000    0.000    0.000 
#    0.000    0.000    0.000    0.000    0.000    0.000 
#
# Total GULP energy -268609.516570 kJ/mol
# GULP energy per Si atom -5596.031595 kJ/mol
# Density = 2.042922 g / cm^3
# Si number density = 20.475827 Si / 1000 Ang^3
#
#
#
# Elastic Constant Matrix: (Units=GPa)
#
#
# Indices 1 2 3 4 5 6 
#
# 1 151.3126 54.4039 41.4930 0.0000 0.0000 0.0000
# 2 54.4039 106.0607 36.8637 0.0000 0.0000 0.0000
# 3 41.4930 36.8637 99.9903 0.0000 0.0000 0.0000
# 4 0.0000 0.0000 0.0000 18.6849 0.0000 0.0000
# 5 0.0000 0.0000 0.0000 0.0000 19.4895 0.0000
# 6 0.0000 0.0000 0.0000 0.0000 0.0000 37.2558
#
#
#
# Elastic Compliance Matrix: (Units=1/GPa)
#
#
# Indices 1 2 3 4 5 6 
#
# 1 0.008507 -0.003598 -0.002204 0.000000 0.000000 0.000000
# 2 -0.003598 0.012336 -0.003055 0.000000 0.000000 0.000000
# 3 -0.002204 -0.003055 0.012042 0.000000 0.000000 0.000000
# 4 0.000000 0.000000 0.000000 0.053519 0.000000 0.000000
# 5 0.000000 0.000000 0.000000 0.000000 0.051310 0.000000
# 6 0.000000 0.000000 0.000000 0.000000 0.000000 0.026841
#
#
# Mechanical properties :
#
#
# Convention : Reuss Voigt Hill
#
# Bulk Modulus (GPa) = 65.91227 69.20943 67.56085
# Shear Modulus (GPa) = 26.69170 30.05956 28.37563
#
# Velocity S-wave (km/s) = 3.61442 3.83567 3.72669
# Velocity P-wave (km/s) = 7.04832 7.31372 7.18225
#
# Compressibility (1/GPa) = 0.01517168
#
# Stress axis : x y z
#
# Youngs Moduli (GPa) = 117.55570 81.06518 83.04462
#
# Poissons Ratio (x) = 0.29163 0.18300
# Poissons Ratio (y) = 0.42291 0.25370
# Poissons Ratio (z) = 0.25905 0.24765
#
# Static dielectric constant tensor:
#      x y z
#    x 1.663330 0.000000 0.000000 
#    y 0.000000 1.740680 0.000000 
#    z 0.000000 0.000000 1.729170 
# 
# From -- ./inp_files/38551.got.cif
#   From: 2010.05.17/outbox.cif.g08.bks.cpg/sg68_20_cif.got.tgz:38551.got - 2010.06.03 18:57:09.
