data_PCOD9510283
_publ_section_title
;
Structure prediction by ZEFSAII (Michael W. Deem and Ramdas Pophale) SiO2 
 PCOD9510283
Probable space group: C C C A
;
_chemical_formula_sum "Si O2"
_cell_formula_units_Z 80
_cell_length_a 26.036626
_cell_length_b 8.790815
_cell_length_c 16.120160
_cell_angle_alpha 90.000000
_cell_angle_beta 90.000000
_cell_angle_gamma 90.000000
_cell_volume 3689.633199
_symmetry_space_group_name_H-M "C C C A"
_symmetry_group_IT_number 68
_space_group.IT_coordinate_system_code '2'
_symmetry_cell_setting 'orthorhombic'
loop_
_space_group_symop_operation_xyz
x,y,z
-x,1/2-y,z
x,1/2-y,1/2-z
-x,y,1/2-z
-x,-y,-z
x,1/2+y,-z
-x,1/2+y,1/2+z
x,-y,1/2+z
1/2+x,1/2+y,z
1/2-x,-y,z
1/2+x,-y,1/2-z
1/2-x,1/2+y,1/2-z
1/2-x,1/2-y,-z
1/2+x,y,-z
1/2-x,y,1/2+z
1/2+x,1/2-y,1/2+z
loop_
_atom_site_type_symbol
_atom_site_label
_atom_site_fract_x
_atom_site_fract_y
_atom_site_fract_z
Si Si1 0.637393 0.690015 0.841051
Si Si2 0.952905 0.133548 0.924746
Si Si3 0.382210 0.900622 0.435038
Si Si4 0.785195 0.859077 0.446000
Si Si5 0.553638 0.678539 0.157915
O O1 0.627147 0.750000 0.750000
O O2 0.594856 0.762266 0.900273
O O3 0.630609 0.512181 0.858747
O O4 0.690872 0.760658 0.871848
O O5 0.000000 0.250000 0.929637
O O6 0.955058 0.000796 0.855462
O O7 0.933116 0.056779 0.010636
O O8 0.332722 0.908514 0.494666
O O9 0.398523 0.737948 0.396787
O O10 0.750000 0.750000 0.500000
O O11 0.750000 0.000000 0.419008
O O12 0.500000 0.750000 0.127325
O O13 0.560125 0.750000 0.250000
#
# Coordination Sequence:
#
# PCOD9510283 Si02
#       5
#    16  16  16  16  16
#     4  11  24  42  64  98 134 171 222 277 343 406
#     4  11  23  40  69  99 133 181 225 269 329 406
#     4  11  23  42  69  94 132 172 225 278 327 407
#     4  11  23  45  69  91 125 169 224 283 339 400
#     4  11  24  41  61  96 139 175 216 269 334 401
#
# _framework density 21.682372000000001
#
# number of rings (size 3 to 8) (size 9 to 14) (size 15 to 20)
#    0.000    1.000    2.000    5.400    2.800    4.400 
#    3.600    0.000    0.000    0.000    0.000    0.000 
#    0.000    0.000    0.000    0.000    0.000    0.000 
#
# Total GULP energy -223284.393101 kJ/mol
# GULP energy per Si atom -5582.109828 kJ/mol
# Density = 2.163302 g / cm^3
# Si number density = 21.682372 Si / 1000 Ang^3
#
#
#
# Elastic Constant Matrix: (Units=GPa)
#
#
# Indices 1 2 3 4 5 6 
#
# 1 105.1287 41.1277 16.8260 0.0000 0.0000 0.0000
# 2 41.1277 121.6655 22.9756 0.0000 0.0000 0.0000
# 3 16.8260 22.9756 87.6730 0.0000 0.0000 0.0000
# 4 0.0000 0.0000 0.0000 28.7023 0.0000 0.0000
# 5 0.0000 0.0000 0.0000 0.0000 17.0250 0.0000
# 6 0.0000 0.0000 0.0000 0.0000 0.0000 33.3186
#
#
#
# Elastic Compliance Matrix: (Units=1/GPa)
#
#
# Indices 1 2 3 4 5 6 
#
# 1 0.011081 -0.003518 -0.001205 0.000000 0.000000 0.000000
# 2 -0.003518 0.009764 -0.001884 0.000000 0.000000 0.000000
# 3 -0.001205 -0.001884 0.012131 0.000000 0.000000 0.000000
# 4 0.000000 0.000000 0.000000 0.034840 0.000000 0.000000
# 5 0.000000 0.000000 0.000000 0.000000 0.058737 0.000000
# 6 0.000000 0.000000 0.000000 0.000000 0.000000 0.030013
#
#
# Mechanical properties :
#
#
# Convention : Reuss Voigt Hill
#
# Bulk Modulus (GPa) = 50.59923 52.92510 51.76216
# Shear Modulus (GPa) = 28.34971 31.37837 29.86404
#
# Velocity S-wave (km/s) = 3.61986 3.80831 3.71528
# Velocity P-wave (km/s) = 6.39206 6.61815 6.50609
#
# Compressibility (1/GPa) = 0.01976315
#
# Stress axis : x y z
#
# Youngs Moduli (GPa) = 90.24110 102.41353 82.43459
#
# Poissons Ratio (x) = 0.36034 0.09931
# Poissons Ratio (y) = 0.31751 0.15527
# Poissons Ratio (z) = 0.10871 0.19291
#
# Static dielectric constant tensor:
#      x y z
#    x 1.781220 0.000000 0.000000 
#    y 0.000000 1.980970 0.000000 
#    z 0.000000 0.000000 1.835480 
# 
# From -- ./inp_files/33984.got.cif
#   From: 2010.05.17/outbox.cif.g08.bks.cpg/sg68_17_cif.got.tgz:33984.got - 2010.06.03 18:57:09.
