data_PCOD9510820
_publ_section_title
;
Structure prediction by ZEFSAII (Michael W. Deem and Ramdas Pophale) SiO2 
 PCOD9510820
Probable space group: C C C A
;
_chemical_formula_sum "Si O2"
_cell_formula_units_Z 52
_cell_length_a 23.581591
_cell_length_b 5.026776
_cell_length_c 17.579302
_cell_angle_alpha 90.000000
_cell_angle_beta 90.000000
_cell_angle_gamma 90.000000
_cell_volume 2083.839484
_symmetry_space_group_name_H-M "C C C A"
_symmetry_group_IT_number 68
_space_group.IT_coordinate_system_code '2'
_symmetry_cell_setting 'orthorhombic'
loop_
_space_group_symop_operation_xyz
x,y,z
-x,1/2-y,z
x,1/2-y,1/2-z
-x,y,1/2-z
-x,-y,-z
x,1/2+y,-z
-x,1/2+y,1/2+z
x,-y,1/2+z
1/2+x,1/2+y,z
1/2-x,-y,z
1/2+x,-y,1/2-z
1/2-x,1/2+y,1/2-z
1/2-x,1/2-y,-z
1/2+x,y,-z
1/2-x,y,1/2+z
1/2+x,1/2-y,1/2+z
loop_
_atom_site_type_symbol
_atom_site_label
_atom_site_fract_x
_atom_site_fract_y
_atom_site_fract_z
Si Si1 0.092589 0.606757 0.827372
Si Si2 0.793559 0.721297 0.160109
Si Si3 0.353363 0.417592 0.556010
Si Si4 0.000000 0.750000 0.250000
O O1 0.109880 0.750000 0.750000
O O2 0.143771 0.409614 0.846409
O O3 0.091995 0.830437 0.893137
O O4 0.037843 0.438244 0.804087
O O5 0.781717 0.750000 0.250000
O O6 0.750000 0.500000 0.128177
O O7 0.805874 0.003920 0.118985
O O8 0.349148 0.669612 0.500696
#
# Coordination Sequence:
#
# PCOD9510820 Si02
#       4
#    16  16  16   4
#     4  12  24  50  80 116 156 215 281 342 410 488
#     4  12  26  46  80 119 159 218 281 344 402 493
#     4  12  27  49  77 116 173 213 267 339 422 499
#     4  12  26  48  88 118 156 214 298 356 400 486
#
# _framework density 24.953935999999999
#
# number of rings (size 3 to 8) (size 9 to 14) (size 15 to 20)
#    0.000    0.000    7.692    1.385    0.000    1.231 
#    0.000    1.538    0.000    0.000    0.000    0.000 
#    0.000    0.000    0.000    0.000    0.000    0.000 
#
# Total GULP energy -145283.435850 kJ/mol
# GULP energy per Si atom -5587.824456 kJ/mol
# Density = 2.489714 g / cm^3
# Si number density = 24.953936 Si / 1000 Ang^3
#
#
#
# Elastic Constant Matrix: (Units=GPa)
#
#
# Indices 1 2 3 4 5 6 
#
# 1 141.2701 67.7631 23.7411 0.0000 0.0000 0.0000
# 2 67.7631 231.2480 80.8214 0.0000 0.0000 0.0000
# 3 23.7411 80.8214 171.8065 0.0000 0.0000 0.0000
# 4 0.0000 0.0000 0.0000 43.5274 0.0000 0.0000
# 5 0.0000 0.0000 0.0000 0.0000 -9.8024 0.0000
# 6 0.0000 0.0000 0.0000 0.0000 0.0000 38.0494
#
#
#
# Elastic Compliance Matrix: (Units=1/GPa)
#
#
# Indices 1 2 3 4 5 6 
#
# 1 0.008236 -0.002412 -0.000003 0.000000 0.000000 0.000000
# 2 -0.002412 0.005882 -0.002434 0.000000 0.000000 0.000000
# 3 -0.000003 -0.002434 0.006966 0.000000 0.000000 0.000000
# 4 0.000000 0.000000 0.000000 0.022974 0.000000 0.000000
# 5 0.000000 0.000000 0.000000 0.000000 -0.102016 0.000000
# 6 0.000000 0.000000 0.000000 0.000000 0.000000 0.026282
#
#
# Mechanical properties :
#
#
# Convention : Reuss Voigt Hill
#
# Bulk Modulus (GPa) = 87.83170 98.77510 93.30340
# Shear Modulus (GPa) = -274.98449 39.15480 -117.91485
#
# Velocity S-wave (km/s) = -10.50886 3.96546 -6.88154
# Velocity P-wave (km/s) = 10.58178 7.78688 5.06649
#
# Compressibility (1/GPa) = 0.01138541
#
# Stress axis : x y z
#
# Youngs Moduli (GPa) = 121.41328 170.01620 143.55926
#
# Poissons Ratio (x) = 0.41014 0.00048
# Poissons Ratio (y) = 0.29289 0.34936
# Poissons Ratio (z) = 0.00040 0.41375
#
# Static dielectric constant tensor:
#      x y z
#    x 2.071610 0.000000 0.000000 
#    y 0.000000 2.149710 0.000000 
#    z 0.000000 0.000000 2.002980 
# 
# From -- ./inp_files/39968.got.cif
#   From: 2010.05.17/outbox.cif.g08.bks.cpg/sg68_20_cif.got.tgz:39968.got - 2010.06.03 18:57:09.
