data_PCOD9510247
_publ_section_title
;
Structure prediction by ZEFSAII (Michael W. Deem and Ramdas Pophale) SiO2 
 PCOD9510247
Probable space group: C C C A
;
_chemical_formula_sum "Si O2"
_cell_formula_units_Z 96
_cell_length_a 19.988566
_cell_length_b 13.714968
_cell_length_c 18.262114
_cell_angle_alpha 90.000000
_cell_angle_beta 90.000000
_cell_angle_gamma 90.000000
_cell_volume 5006.422374
_symmetry_space_group_name_H-M "C C C A"
_symmetry_group_IT_number 68
_space_group.IT_coordinate_system_code '2'
_symmetry_cell_setting 'orthorhombic'
loop_
_space_group_symop_operation_xyz
x,y,z
-x,1/2-y,z
x,1/2-y,1/2-z
-x,y,1/2-z
-x,-y,-z
x,1/2+y,-z
-x,1/2+y,1/2+z
x,-y,1/2+z
1/2+x,1/2+y,z
1/2-x,-y,z
1/2+x,-y,1/2-z
1/2-x,1/2+y,1/2-z
1/2-x,1/2-y,-z
1/2+x,y,-z
1/2-x,y,1/2+z
1/2+x,1/2-y,1/2+z
loop_
_atom_site_type_symbol
_atom_site_label
_atom_site_fract_x
_atom_site_fract_y
_atom_site_fract_z
Si Si1 0.915007 0.577542 0.477956
Si Si2 0.323678 0.759141 0.033871
Si Si3 0.938395 0.868463 0.457055
Si Si4 0.573225 0.348556 0.214923
Si Si5 0.849474 0.464702 0.822856
Si Si6 0.721363 0.827471 0.183505
O O1 0.854281 0.636722 0.513297
O O2 0.927345 0.482581 0.526565
O O3 0.896388 0.546239 0.394689
O O4 0.982756 0.642502 0.476515
O O5 0.310600 0.734579 0.117913
O O6 0.250000 0.750000 0.000000
O O7 0.380121 0.686347 0.001410
O O8 0.929669 0.843395 0.371820
O O9 0.602173 0.250000 0.250000
O O10 0.500000 0.357361 0.250000
O O11 0.614920 0.436432 0.247482
O O12 0.791813 0.382141 0.833837
O O13 0.823835 0.574553 0.811484
O O14 0.727043 0.750000 0.250000
#
# Coordination Sequence:
#
# PCOD9510247 Si02
#       6
#    16  16  16  16  16  16
#     4  11  23  44  70  96 132 174 223 277 338 402
#     4  12  25  41  69  96 136 170 224 275 335 406
#     4  11  25  43  66 101 133 175 226 278 343 404
#     4  11  23  38  67  99 128 165 221 282 338 399
#     4  11  22  45  67  93 136 171 219 279 339 402
#     4  11  26  44  64  97 135 181 217 274 341 404
#
# _framework density 19.175369
#
# number of rings (size 3 to 8) (size 9 to 14) (size 15 to 20)
#    0.000    0.833    5.000    2.000    7.000    0.667 
#    0.000    0.000    0.000    0.000    0.000    0.000 
#    0.000    0.000    0.000    0.000    0.000    0.000 
#
# Total GULP energy -267779.089495 kJ/mol
# GULP energy per Si atom -5578.731031 kJ/mol
# Density = 1.913172 g / cm^3
# Si number density = 19.175369 Si / 1000 Ang^3
#
#
#
# Elastic Constant Matrix: (Units=GPa)
#
#
# Indices 1 2 3 4 5 6 
#
# 1 104.9913 30.3270 28.9961 0.0000 0.0000 0.0000
# 2 30.3270 77.9212 28.7714 0.0000 0.0000 0.0000
# 3 28.9961 28.7714 120.6291 0.0000 0.0000 0.0000
# 4 0.0000 0.0000 0.0000 28.0078 0.0000 0.0000
# 5 0.0000 0.0000 0.0000 0.0000 26.2956 0.0000
# 6 0.0000 0.0000 0.0000 0.0000 0.0000 34.7718
#
#
#
# Elastic Compliance Matrix: (Units=1/GPa)
#
#
# Indices 1 2 3 4 5 6 
#
# 1 0.011073 -0.003648 -0.001792 0.000000 0.000000 0.000000
# 2 -0.003648 0.015275 -0.002766 0.000000 0.000000 0.000000
# 3 -0.001792 -0.002766 0.009380 0.000000 0.000000 0.000000
# 4 0.000000 0.000000 0.000000 0.035704 0.000000 0.000000
# 5 0.000000 0.000000 0.000000 0.000000 0.038029 0.000000
# 6 0.000000 0.000000 0.000000 0.000000 0.000000 0.028759
#
#
# Mechanical properties :
#
#
# Convention : Reuss Voigt Hill
#
# Bulk Modulus (GPa) = 51.77002 53.30341 52.53671
# Shear Modulus (GPa) = 31.04212 32.17819 31.61016
#
# Velocity S-wave (km/s) = 4.02786 4.10091 4.06455
# Velocity P-wave (km/s) = 6.97771 7.09094 7.03455
#
# Compressibility (1/GPa) = 0.01931620
#
# Stress axis : x y z
#
# Youngs Moduli (GPa) = 90.30835 65.46745 106.60634
#
# Poissons Ratio (x) = 0.23884 0.19099
# Poissons Ratio (y) = 0.32946 0.29490
# Poissons Ratio (z) = 0.16179 0.18110
#
# Static dielectric constant tensor:
#      x y z
#    x 1.729320 0.000000 0.000000 
#    y 0.000000 1.705890 0.000000 
#    z 0.000000 0.000000 1.639970 
# 
# From -- ./inp_files/24478.got.cif
#   From: 2010.05.17/outbox.cif.g08.bks.cpg/sg68_13_cif.got.tgz:24478.got - 2010.06.03 18:57:09.
