data_PCOD9510460
_publ_section_title
;
Structure prediction by ZEFSAII (Michael W. Deem and Ramdas Pophale) SiO2 
 PCOD9510460
Probable space group: C C C A
;
_chemical_formula_sum "Si O2"
_cell_formula_units_Z 96
_cell_length_a 17.594005
_cell_length_b 8.903924
_cell_length_c 29.272141
_cell_angle_alpha 90.000000
_cell_angle_beta 90.000000
_cell_angle_gamma 90.000000
_cell_volume 4585.647252
_symmetry_space_group_name_H-M "C C C A"
_symmetry_group_IT_number 68
_space_group.IT_coordinate_system_code '2'
_symmetry_cell_setting 'orthorhombic'
loop_
_space_group_symop_operation_xyz
x,y,z
-x,1/2-y,z
x,1/2-y,1/2-z
-x,y,1/2-z
-x,-y,-z
x,1/2+y,-z
-x,1/2+y,1/2+z
x,-y,1/2+z
1/2+x,1/2+y,z
1/2-x,-y,z
1/2+x,-y,1/2-z
1/2-x,1/2+y,1/2-z
1/2-x,1/2-y,-z
1/2+x,y,-z
1/2-x,y,1/2+z
1/2+x,1/2-y,1/2+z
loop_
_atom_site_type_symbol
_atom_site_label
_atom_site_fract_x
_atom_site_fract_y
_atom_site_fract_z
Si Si1 0.690392 0.622201 0.719034
Si Si2 0.415853 0.684221 0.455343
Si Si3 0.582006 0.595425 0.272107
Si Si4 0.852895 0.139309 0.131315
Si Si5 0.415636 0.324911 0.450614
Si Si6 0.322292 0.790392 0.867553
O O1 0.728095 0.750000 0.750000
O O2 0.750000 0.500000 0.701095
O O3 0.636550 0.535069 0.754515
O O4 0.647719 0.704030 0.677434
O O5 0.500000 0.750000 0.454397
O O6 0.377501 0.757858 0.410990
O O7 0.421483 0.504351 0.456219
O O8 0.384166 0.747294 0.503245
O O9 0.607043 0.750000 0.250000
O O10 0.500000 0.563493 0.250000
O O11 0.589551 0.632366 0.325769
O O12 0.768037 0.198282 0.142488
O O13 0.845642 0.961654 0.121711
O O14 0.500000 0.250000 0.441364
O O15 0.355507 0.298003 0.410388
#
# Coordination Sequence:
#
# PCOD9510460 Si02
#       6
#    16  16  16  16  16  16
#     4  12  24  43  68  96 136 185 225 282 340 408
#     4  11  24  43  75  97 141 179 225 287 348 416
#     4  11  26  44  66  97 138 178 232 284 340 407
#     4  11  24  46  65 102 136 184 230 285 346 407
#     4  11  24  45  69 106 134 181 228 284 351 417
#     4  11  25  42  70  96 142 180 231 285 342 415
#
# _framework density 20.934885999999999
#
# number of rings (size 3 to 8) (size 9 to 14) (size 15 to 20)
#    0.000    0.833    1.667    6.500    7.000    2.333 
#    0.000    0.000    0.000    0.000    0.000    0.000 
#    0.000    0.000    0.000    0.000    0.000    0.000 
#
# Total GULP energy -267780.100995 kJ/mol
# GULP energy per Si atom -5578.752104 kJ/mol
# Density = 2.088724 g / cm^3
# Si number density = 20.934886 Si / 1000 Ang^3
#
#
#
# Elastic Constant Matrix: (Units=GPa)
#
#
# Indices 1 2 3 4 5 6 
#
# 1 47.5182 19.0637 15.3310 0.0000 0.0000 0.0000
# 2 19.0637 168.9723 48.5925 0.0000 0.0000 0.0000
# 3 15.3310 48.5925 122.4840 0.0000 0.0000 0.0000
# 4 0.0000 0.0000 0.0000 43.2895 0.0000 0.0000
# 5 0.0000 0.0000 0.0000 0.0000 33.6884 0.0000
# 6 0.0000 0.0000 0.0000 0.0000 0.0000 32.2363
#
#
#
# Elastic Compliance Matrix: (Units=1/GPa)
#
#
# Indices 1 2 3 4 5 6 
#
# 1 0.022485 -0.001950 -0.002041 0.000000 0.000000 0.000000
# 2 -0.001950 0.006849 -0.002473 0.000000 0.000000 0.000000
# 3 -0.002041 -0.002473 0.009401 0.000000 0.000000 0.000000
# 4 0.000000 0.000000 0.000000 0.023100 0.000000 0.000000
# 5 0.000000 0.000000 0.000000 0.000000 0.029684 0.000000
# 6 0.000000 0.000000 0.000000 0.000000 0.000000 0.031021
#
#
# Mechanical properties :
#
#
# Convention : Reuss Voigt Hill
#
# Bulk Modulus (GPa) = 38.74825 56.10545 47.42685
# Shear Modulus (GPa) = 34.70504 38.90866 36.80685
#
# Velocity S-wave (km/s) = 4.07598 4.31577 4.19759
# Velocity P-wave (km/s) = 6.37970 7.18976 6.79681
#
# Compressibility (1/GPa) = 0.02580762
#
# Stress axis : x y z
#
# Youngs Moduli (GPa) = 44.47350 145.99874 106.37190
#
# Poissons Ratio (x) = 0.28469 0.21709
# Poissons Ratio (y) = 0.08672 0.26308
# Poissons Ratio (z) = 0.09076 0.36109
#
# Static dielectric constant tensor:
#      x y z
#    x 1.806280 0.000000 0.000000 
#    y 0.000000 1.753220 0.000000 
#    z 0.000000 0.000000 1.946510 
# 
# From -- ./inp_files/51736.got.cif
#   From: 2010.05.17/outbox.cif.g08.bks.cpg/sg68_26_cif.got.tgz:51736.got - 2010.06.03 18:57:09.
