data_PCOD9510654
_publ_section_title
;
Structure prediction by ZEFSAII (Michael W. Deem and Ramdas Pophale) SiO2 
 PCOD9510654
Probable space group: C C C A
;
_chemical_formula_sum "Si O2"
_cell_formula_units_Z 72
_cell_length_a 12.000658
_cell_length_b 23.734005
_cell_length_c 11.450329
_cell_angle_alpha 90.000000
_cell_angle_beta 90.000000
_cell_angle_gamma 90.000000
_cell_volume 3261.324808
_symmetry_space_group_name_H-M "C C C A"
_symmetry_group_IT_number 68
_space_group.IT_coordinate_system_code '2'
_symmetry_cell_setting 'orthorhombic'
loop_
_space_group_symop_operation_xyz
x,y,z
-x,1/2-y,z
x,1/2-y,1/2-z
-x,y,1/2-z
-x,-y,-z
x,1/2+y,-z
-x,1/2+y,1/2+z
x,-y,1/2+z
1/2+x,1/2+y,z
1/2-x,-y,z
1/2+x,-y,1/2-z
1/2-x,1/2+y,1/2-z
1/2-x,1/2-y,-z
1/2+x,y,-z
1/2-x,y,1/2+z
1/2+x,1/2-y,1/2+z
loop_
_atom_site_type_symbol
_atom_site_label
_atom_site_fract_x
_atom_site_fract_y
_atom_site_fract_z
Si Si1 0.438822 0.558608 0.970329
Si Si2 0.320157 0.107987 0.807243
Si Si3 0.500000 0.750000 0.038284
Si Si4 0.250000 0.500000 0.820433
Si Si5 0.500000 0.321960 0.750000
Si Si6 0.421327 0.158358 0.358974
O O1 0.334702 0.537191 0.895052
O O2 0.522454 0.600587 0.904780
O O3 0.500000 0.500000 0.000000
O O4 0.388320 0.596171 0.074485
O O5 0.396588 0.140135 0.712633
O O6 0.204446 0.140956 0.825302
O O7 0.308269 0.045179 0.760331
O O8 0.445855 0.710539 0.139399
O O9 0.570013 0.708405 0.955169
O O10 0.500000 0.175860 0.250000
#
# Coordination Sequence:
#
# PCOD9510654 Si02
#       6
#    16  16   8   8   8  16
#     4  12  25  44  71 110 152 194 246 303 377 455
#     4  12  26  46  76 108 152 196 246 310 373 457
#     4  11  27  52  74 102 145 197 256 312 366 433
#     4  12  24  42  74 108 148 200 238 302 384 452
#     4  11  26  52  74 108 142 198 256 307 376 443
#     4  12  26  50  72 112 147 195 254 308 376 437
#
# _framework density 22.076917999999999
#
# number of rings (size 3 to 8) (size 9 to 14) (size 15 to 20)
#    0.000    0.222    4.444    5.000    3.111    0.889 
#    8.000    0.000    0.000    0.000    0.000    0.000 
#    0.000    0.000    0.000    0.000    0.000    0.000 
#
# Total GULP energy -200829.143609 kJ/mol
# GULP energy per Si atom -5578.587322 kJ/mol
# Density = 2.202667 g / cm^3
# Si number density = 22.076918 Si / 1000 Ang^3
#
#
#
# Elastic Constant Matrix: (Units=GPa)
#
#
# Indices 1 2 3 4 5 6 
#
# 1 116.5456 29.7459 36.1164 0.0000 0.0000 0.0000
# 2 29.7459 126.5930 32.2666 0.0000 0.0000 0.0000
# 3 36.1164 32.2666 88.9045 0.0000 0.0000 0.0000
# 4 0.0000 0.0000 0.0000 32.9510 0.0000 0.0000
# 5 0.0000 0.0000 0.0000 0.0000 31.2740 0.0000
# 6 0.0000 0.0000 0.0000 0.0000 0.0000 18.0221
#
#
#
# Elastic Compliance Matrix: (Units=1/GPa)
#
#
# Indices 1 2 3 4 5 6 
#
# 1 0.010054 -0.001456 -0.003556 0.000000 0.000000 0.000000
# 2 -0.001456 0.008915 -0.002644 0.000000 0.000000 0.000000
# 3 -0.003556 -0.002644 0.013652 0.000000 0.000000 0.000000
# 4 0.000000 0.000000 0.000000 0.030348 0.000000 0.000000
# 5 0.000000 0.000000 0.000000 0.000000 0.031975 0.000000
# 6 0.000000 0.000000 0.000000 0.000000 0.000000 0.055488
#
#
# Mechanical properties :
#
#
# Convention : Reuss Voigt Hill
#
# Bulk Modulus (GPa) = 57.77230 58.70010 58.23620
# Shear Modulus (GPa) = 29.15205 32.04370 30.59787
#
# Velocity S-wave (km/s) = 3.63778 3.81393 3.72690
# Velocity P-wave (km/s) = 6.62345 6.78538 6.70490
#
# Compressibility (1/GPa) = 0.01730933
#
# Stress axis : x y z
#
# Youngs Moduli (GPa) = 99.46417 112.16498 73.24822
#
# Poissons Ratio (x) = 0.16332 0.26046
# Poissons Ratio (y) = 0.14483 0.19368
# Poissons Ratio (z) = 0.35368 0.29659
#
# Static dielectric constant tensor:
#      x y z
#    x -1.659130 0.000000 0.000000 
#    y 0.000000 1.787690 0.000000 
#    z 0.000000 0.000000 0.488390 
# 
# From -- ./inp_files/11882.got.cif
#   From: 2010.05.17/outbox.cif.g08.bks.cpg/sg68_6_cif.got.tgz:11882.got - 2010.06.03 18:57:09.
