data_PCOD9510943
_publ_section_title
;
Structure prediction by ZEFSAII (Michael W. Deem and Ramdas Pophale) SiO2 
 PCOD9510943
Probable space group: C C C A
;
_chemical_formula_sum "Si O2"
_cell_formula_units_Z 46
_cell_length_a 27.000000
_cell_length_b 9.000000
_cell_length_c 21.000000
_cell_angle_alpha 90.000000
_cell_angle_beta 90.000000
_cell_angle_gamma 90.000000
_cell_volume 5103.000000
_symmetry_space_group_name_H-M "C C C A"
_symmetry_group_IT_number 68
_space_group.IT_coordinate_system_code '2'
_symmetry_cell_setting 'orthorhombic'
loop_
_space_group_symop_operation_xyz
x,y,z
-x,1/2-y,z
x,1/2-y,1/2-z
-x,y,1/2-z
-x,-y,-z
x,1/2+y,-z
-x,1/2+y,1/2+z
x,-y,1/2+z
1/2+x,1/2+y,z
1/2-x,-y,z
1/2+x,-y,1/2-z
1/2-x,1/2+y,1/2-z
1/2-x,1/2-y,-z
1/2+x,y,-z
1/2-x,y,1/2+z
1/2+x,1/2-y,1/2+z
loop_
_atom_site_type_symbol
_atom_site_label
_atom_site_fract_x
_atom_site_fract_y
_atom_site_fract_z
Si Si1 0.613662 0.763131 0.325431
Si Si2 0.183867 0.752134 0.942248
Si Si3 0.250000 0.500000 0.000095
Si Si4 0.547755 0.072942 0.582864
Si Si5 0.586075 0.236470 0.027797
Si Si6 0.947315 0.444976 0.641584
Si Si7 0.000000 0.750000 0.250000
O O1 0.622342 0.750000 0.250000
O O2 0.660980 0.753102 0.371873
O O3 0.576845 0.638245 0.355733
O O4 0.587954 0.921951 0.337338
O O5 0.219542 0.614530 0.956861
O O6 0.139336 0.742632 0.993847
O O7 0.213339 0.902715 0.956650
O O8 0.551045 0.197714 0.527980
O O9 0.573398 0.929239 0.550599
O O10 0.494488 0.018778 0.606307
O O11 0.579189 0.339641 0.089766
O O12 0.967226 0.351131 0.702065
#
# Coordination Sequence:
#
# PCOD9510943 Si02
#       7
#    16  16   8  16  16  16   4
#     4  11  24  40  60  84 124 165 207 244 295 360
#     4  10  21  39  63  93 113 147 190 249 312 373
#     4  10  20  40  68  88 116 138 184 254 324 374
#     4  11  22  38  57  91 122 167 210 254 296 335
#     4  11  21  37  62  89 122 152 206 260 298 349
#     4  12  23  38  56  83 126 171 212 248 288 345
#     4  12  24  40  54  84 124 180 224 244 292 352
#
# _framework density 9.0143050000000002
#
# number of rings (size 3 to 8) (size 9 to 14) (size 15 to 20)
#    0.000    1.043    1.739    7.304    0.000    3.478 
#    0.000    0.870    0.000    0.000    0.000    0.000 
#    0.000    0.000    0.000    0.000    0.000    0.000 
#
# Total GULP energy -257178.270466 kJ/mol
# GULP energy per Si atom -5590.831967 kJ/mol
# Density = 0.899379 g / cm^3
# Si number density = 9.014305 Si / 1000 Ang^3
#
#
#
# Elastic Constant Matrix: (Units=GPa)
#
#
# Indices 1 2 3 4 5 6 
#
# 1 72.3200 38.6401 43.0827 0.0000 0.0000 0.0000
# 2 38.6401 110.7375 53.5211 0.0000 0.0000 0.0000
# 3 43.0827 53.5211 159.5269 0.0000 0.0000 0.0000
# 4 0.0000 0.0000 0.0000 29.2645 0.0000 0.0000
# 5 0.0000 0.0000 0.0000 0.0000 18.4097 0.0000
# 6 0.0000 0.0000 0.0000 0.0000 0.0000 24.8730
#
#
#
# Elastic Compliance Matrix: (Units=1/GPa)
#
#
# Indices 1 2 3 4 5 6 
#
# 1 0.018389 -0.004794 -0.003358 0.000000 0.000000 0.000000
# 2 -0.004794 0.012028 -0.002741 0.000000 0.000000 0.000000
# 3 -0.003358 -0.002741 0.008095 0.000000 0.000000 0.000000
# 4 0.000000 0.000000 0.000000 0.034171 0.000000 0.000000
# 5 0.000000 0.000000 0.000000 0.000000 0.054319 0.000000
# 6 0.000000 0.000000 0.000000 0.000000 0.000000 0.040204
#
#
# Mechanical properties :
#
#
# Convention : Reuss Voigt Hill
#
# Bulk Modulus (GPa) = 59.78340 68.11912 63.95126
# Shear Modulus (GPa) = 25.69819 28.33214 27.01517
#
# Velocity S-wave (km/s) = 3.77956 3.96853 3.87520
# Velocity P-wave (km/s) = 7.23042 7.67235 7.45466
#
# Compressibility (1/GPa) = 0.01672705
#
# Stress axis : x y z
#
# Youngs Moduli (GPa) = 54.38020 83.14200 123.53445
#
# Poissons Ratio (x) = 0.39855 0.41483
# Poissons Ratio (y) = 0.26068 0.33857
# Poissons Ratio (z) = 0.18261 0.22786
#
# Static dielectric constant tensor:
#      x y z
#    x 1.638380 0.000000 0.000000 
#    y 0.000000 1.633740 0.000000 
#    z 0.000000 0.000000 1.583130 
# 
# From -- ./inp_files/36345.got.cif
#   From: 2010.05.17/outbox.ucp.g08.bks.cvg/sg68_19_cif.got.tgz:36345.got - 2010.06.11 16:49:25.
