data_PCOD9510954
_publ_section_title
;
Structure prediction by ZEFSAII (Michael W. Deem and Ramdas Pophale) SiO2 
 PCOD9510954
Probable space group: C C C A
;
_chemical_formula_sum "Si O2"
_cell_formula_units_Z 52
_cell_length_a 21.000000
_cell_length_b 9.000000
_cell_length_c 27.000000
_cell_angle_alpha 90.000000
_cell_angle_beta 90.000000
_cell_angle_gamma 90.000000
_cell_volume 5103.000000
_symmetry_space_group_name_H-M "C C C A"
_symmetry_group_IT_number 68
_space_group.IT_coordinate_system_code '2'
_symmetry_cell_setting 'orthorhombic'
loop_
_space_group_symop_operation_xyz
x,y,z
-x,1/2-y,z
x,1/2-y,1/2-z
-x,y,1/2-z
-x,-y,-z
x,1/2+y,-z
-x,1/2+y,1/2+z
x,-y,1/2+z
1/2+x,1/2+y,z
1/2-x,-y,z
1/2+x,-y,1/2-z
1/2-x,1/2+y,1/2-z
1/2-x,1/2-y,-z
1/2+x,y,-z
1/2-x,y,1/2+z
1/2+x,1/2-y,1/2+z
loop_
_atom_site_type_symbol
_atom_site_label
_atom_site_fract_x
_atom_site_fract_y
_atom_site_fract_z
Si Si1 0.618315 0.221358 0.326785
Si Si2 0.379124 0.515598 0.505769
Si Si3 0.069875 0.705670 0.432814
Si Si4 0.844634 0.250000 0.250000
Si Si5 0.257863 0.323368 0.843503
Si Si6 0.298731 0.747287 0.453554
Si Si7 0.427937 0.024693 0.264130
O O1 0.605243 0.165948 0.382180
O O2 0.692842 0.252903 0.325444
O O3 0.578382 0.366083 0.310989
O O4 0.601819 0.105836 0.283826
O O5 0.430288 0.423682 0.473876
O O6 0.400176 0.649638 0.540886
O O7 0.336341 0.594975 0.464008
O O8 0.341516 0.392830 0.537242
O O9 0.000000 0.750000 0.417659
O O10 0.804898 0.304750 0.202742
O O11 0.888658 0.378054 0.271910
O O12 0.250000 0.500000 0.851009
O O13 0.274447 0.256298 0.897431
O O14 0.250000 0.750000 0.500000
O O15 0.500000 0.994486 0.250000
#
# Coordination Sequence:
#
# PCOD9510954 Si02
#       7
#    16  16  16   8  16  16  16
#     4  11  23  41  69  95 125 174 215 264 332 388
#     4  10  23  39  62  94 129 169 222 266 329 384
#     4  11  22  41  64  92 128 174 223 270 324 390
#     4  12  27  42  68 100 129 172 212 270 342 378
#     4  12  24  42  66  97 140 168 213 275 327 392
#     4  11  22  41  65  95 131 174 212 269 328 393
#     4  11  24  46  67  94 128 167 221 270 318 395
#
# _framework density 10.190084000000001
#
# number of rings (size 3 to 8) (size 9 to 14) (size 15 to 20)
#    0.000    0.923    1.538    7.615    2.154    0.000 
#    0.000    0.000    0.000    0.000    0.000    0.000 
#    0.000    0.000    0.000    0.000    0.000    0.000 
#
# Total GULP energy -290278.642108 kJ/mol
# GULP energy per Si atom -5582.281579 kJ/mol
# Density = 1.016689 g / cm^3
# Si number density = 10.190084 Si / 1000 Ang^3
#
#
#
# Elastic Constant Matrix: (Units=GPa)
#
#
# Indices 1 2 3 4 5 6 
#
# 1 71.6833 5.9659 15.0907 0.0000 0.0000 0.0000
# 2 5.9659 18.2799 26.2441 0.0000 0.0000 0.0000
# 3 15.0907 26.2441 105.7991 0.0000 0.0000 0.0000
# 4 0.0000 0.0000 0.0000 3.5061 0.0000 0.0000
# 5 0.0000 0.0000 0.0000 0.0000 32.6066 0.0000
# 6 0.0000 0.0000 0.0000 0.0000 0.0000 16.7394
#
#
#
# Elastic Compliance Matrix: (Units=1/GPa)
#
#
# Indices 1 2 3 4 5 6 
#
# 1 0.014469 -0.002732 -0.001386 0.000000 0.000000 0.000000
# 2 -0.002732 0.085478 -0.020814 0.000000 0.000000 0.000000
# 3 -0.001386 -0.020814 0.014813 0.000000 0.000000 0.000000
# 4 0.000000 0.000000 0.000000 0.285217 0.000000 0.000000
# 5 0.000000 0.000000 0.000000 0.000000 0.030669 0.000000
# 6 0.000000 0.000000 0.000000 0.000000 0.000000 0.059739
#
#
# Mechanical properties :
#
#
# Convention : Reuss Voigt Hill
#
# Bulk Modulus (GPa) = 15.40924 32.26264 23.83594
# Shear Modulus (GPa) = 8.89866 20.46785 14.68325
#
# Velocity S-wave (km/s) = 2.09184 3.17251 2.68707
# Velocity P-wave (km/s) = 3.66220 5.41152 4.62040
#
# Compressibility (1/GPa) = 0.06489614
#
# Stress axis : x y z
#
# Youngs Moduli (GPa) = 69.11110 11.69886 67.51038
#
# Poissons Ratio (x) = 0.03197 0.09357
# Poissons Ratio (y) = 0.18884 1.40514
# Poissons Ratio (z) = 0.09579 0.24350
#
# Static dielectric constant tensor:
#      x y z
#    x 1.810750 0.000000 0.000000 
#    y 0.000000 1.726090 0.000000 
#    z 0.000000 0.000000 1.676430 
# 
# From -- ./inp_files/51845.got.cif
#   From: 2010.05.17/outbox.ucp.g08.bks.cvg/sg68_26_cif.got.tgz:51845.got - 2010.06.11 16:49:25.
