data_PCOD9510269
_publ_section_title
;
Structure prediction by ZEFSAII (Michael W. Deem and Ramdas Pophale) SiO2 
 PCOD9510269
Probable space group: C C C A
;
_chemical_formula_sum "Si O2"
_cell_formula_units_Z 80
_cell_length_a 12.135135
_cell_length_b 13.752878
_cell_length_c 23.408202
_cell_angle_alpha 90.000000
_cell_angle_beta 90.000000
_cell_angle_gamma 90.000000
_cell_volume 3906.665786
_symmetry_space_group_name_H-M "C C C A"
_symmetry_group_IT_number 68
_space_group.IT_coordinate_system_code '2'
_symmetry_cell_setting 'orthorhombic'
loop_
_space_group_symop_operation_xyz
x,y,z
-x,1/2-y,z
x,1/2-y,1/2-z
-x,y,1/2-z
-x,-y,-z
x,1/2+y,-z
-x,1/2+y,1/2+z
x,-y,1/2+z
1/2+x,1/2+y,z
1/2-x,-y,z
1/2+x,-y,1/2-z
1/2-x,1/2+y,1/2-z
1/2-x,1/2-y,-z
1/2+x,y,-z
1/2-x,y,1/2+z
1/2+x,1/2-y,1/2+z
loop_
_atom_site_type_symbol
_atom_site_label
_atom_site_fract_x
_atom_site_fract_y
_atom_site_fract_z
Si Si1 0.257656 0.392912 0.108394
Si Si2 0.628813 0.535059 0.611750
Si Si3 0.994226 0.642673 0.899567
Si Si4 0.037169 0.358927 0.530309
Si Si5 0.630143 0.770823 0.815874
O O1 0.250000 0.500000 0.136049
O O2 0.134090 0.374333 0.088645
O O3 0.348426 0.391984 0.058398
O O4 0.299232 0.306590 0.148542
O O5 0.750000 0.500000 0.595204
O O6 0.555142 0.443973 0.633631
O O7 0.558805 0.575543 0.557970
O O8 0.643835 0.621160 0.658156
O O9 0.000000 0.750000 0.873085
O O10 0.048753 0.642509 0.962331
O O11 0.000000 0.250000 0.546757
O O12 0.500000 0.750000 0.822163
O O13 0.657663 0.750000 0.750000
#
# Coordination Sequence:
#
# PCOD9510269 Si02
#       5
#    16  16  16  16  16
#     4  12  22  41  65  91 134 165 220 280 326 396
#     4  12  23  41  64  94 134 170 221 270 320 394
#     4  11  26  37  62  99 138 177 212 264 335 386
#     4  11  23  40  61  94 130 182 221 256 319 403
#     4  11  23  45  71  93 121 172 228 275 327 391
#
# _framework density 20.477820000000001
#
# number of rings (size 3 to 8) (size 9 to 14) (size 15 to 20)
#    0.000    0.600    6.000    1.800    2.800    2.400 
#    0.000    0.000    0.000    4.200    0.000    0.000 
#    0.000    0.000    0.000    0.000    0.000    0.000 
#
# Total GULP energy -223405.588135 kJ/mol
# GULP energy per Si atom -5585.139703 kJ/mol
# Density = 2.043121 g / cm^3
# Si number density = 20.477820 Si / 1000 Ang^3
#
#
#
# Elastic Constant Matrix: (Units=GPa)
#
#
# Indices 1 2 3 4 5 6 
#
# 1 138.0755 36.8046 -0.0689 0.0000 0.0000 0.0000
# 2 36.8046 181.7095 19.1347 0.0000 0.0000 0.0000
# 3 -0.0689 19.1347 57.7560 0.0000 0.0000 0.0000
# 4 0.0000 0.0000 0.0000 13.5295 0.0000 0.0000
# 5 0.0000 0.0000 0.0000 0.0000 7.4490 0.0000
# 6 0.0000 0.0000 0.0000 0.0000 0.0000 37.6838
#
#
#
# Elastic Compliance Matrix: (Units=1/GPa)
#
#
# Indices 1 2 3 4 5 6 
#
# 1 0.007672 -0.001611 0.000543 0.000000 0.000000 0.000000
# 2 -0.001611 0.006041 -0.002003 0.000000 0.000000 0.000000
# 3 0.000543 -0.002003 0.017979 0.000000 0.000000 0.000000
# 4 0.000000 0.000000 0.000000 0.073913 0.000000 0.000000
# 5 0.000000 0.000000 0.000000 0.000000 0.134246 0.000000
# 6 0.000000 0.000000 0.000000 0.000000 0.000000 0.026537
#
#
# Mechanical properties :
#
#
# Convention : Reuss Voigt Hill
#
# Bulk Modulus (GPa) = 39.14133 54.36466 46.75299
# Shear Modulus (GPa) = 17.79074 33.17717 25.48395
#
# Velocity S-wave (km/s) = 2.95071 4.02948 3.53153
# Velocity P-wave (km/s) = 5.54657 6.94655 6.28566
#
# Compressibility (1/GPa) = 0.02554844
#
# Stress axis : x y z
#
# Youngs Moduli (GPa) = 130.34171 165.54753 55.62196
#
# Poissons Ratio (x) = 0.26672 -0.03020
# Poissons Ratio (y) = 0.21000 0.11142
# Poissons Ratio (z) = -0.07077 0.33162
#
# Static dielectric constant tensor:
#      x y z
#    x 1.743930 0.000000 0.000000 
#    y 0.000000 1.831720 0.000000 
#    z 0.000000 0.000000 1.706010 
# 
# From -- ./inp_files/44094.got.cif
#   From: 2010.05.17/outbox.cif.g08.bks.cpg/sg68_23_cif.got.tgz:44094.got - 2010.06.03 18:57:09.
