data_PCOD9510382
_publ_section_title
;
Structure prediction by ZEFSAII (Michael W. Deem and Ramdas Pophale) SiO2 
 PCOD9510382
Probable space group: C C C A
;
_chemical_formula_sum "Si O2"
_cell_formula_units_Z 64
_cell_length_a 12.269102
_cell_length_b 9.916714
_cell_length_c 22.818158
_cell_angle_alpha 90.000000
_cell_angle_beta 90.000000
_cell_angle_gamma 90.000000
_cell_volume 2776.266472
_symmetry_space_group_name_H-M "C C C A"
_symmetry_group_IT_number 68
_space_group.IT_coordinate_system_code '2'
_symmetry_cell_setting 'orthorhombic'
loop_
_space_group_symop_operation_xyz
x,y,z
-x,1/2-y,z
x,1/2-y,1/2-z
-x,y,1/2-z
-x,-y,-z
x,1/2+y,-z
-x,1/2+y,1/2+z
x,-y,1/2+z
1/2+x,1/2+y,z
1/2-x,-y,z
1/2+x,-y,1/2-z
1/2-x,1/2+y,1/2-z
1/2-x,1/2-y,-z
1/2+x,y,-z
1/2-x,y,1/2+z
1/2+x,1/2-y,1/2+z
loop_
_atom_site_type_symbol
_atom_site_label
_atom_site_fract_x
_atom_site_fract_y
_atom_site_fract_z
Si Si1 0.362269 0.916770 0.356673
Si Si2 0.250000 0.000000 0.672712
Si Si3 0.049425 0.104232 0.593725
Si Si4 0.175813 0.633289 0.523313
Si Si5 0.341159 0.750000 0.250000
O O1 0.347254 0.815914 0.410845
O O2 0.399376 0.840542 0.298935
O O3 0.250000 0.000000 0.344524
O O4 0.451105 0.010402 0.386531
O O5 0.152173 0.052172 0.631147
O O6 0.277974 0.132533 0.712732
O O7 0.082689 0.107098 0.524975
O O8 0.000000 0.250000 0.608495
O O9 0.250000 0.500000 0.528627
O O10 0.250000 0.750000 0.500000
#
# Coordination Sequence:
#
# PCOD9510382 Si02
#       5
#    16   8  16  16   8
#     4  11  25  47  76 112 154 207 257 315 390 466
#     4  12  28  50  80 112 152 210 266 320 396 466
#     4  12  26  49  81 115 153 201 259 330 398 467
#     4  11  23  46  79 114 152 194 256 324 396 464
#     4  12  26  53  71 110 160 202 261 319 378 476
#
# _framework density 23.052543
#
# number of rings (size 3 to 8) (size 9 to 14) (size 15 to 20)
#    0.000    0.500    2.500    6.750    0.000    3.000 
#    0.000    0.000    0.000    0.000    0.000    0.000 
#    0.000    0.000    0.000    0.000    0.000    0.000 
#
# Total GULP energy -178716.582792 kJ/mol
# GULP energy per Si atom -5584.893212 kJ/mol
# Density = 2.300007 g / cm^3
# Si number density = 23.052543 Si / 1000 Ang^3
#
#
#
# Elastic Constant Matrix: (Units=GPa)
#
#
# Indices 1 2 3 4 5 6 
#
# 1 96.8847 4.1722 31.8820 0.0000 0.0000 0.0000
# 2 4.1722 59.5362 21.3512 0.0000 0.0000 0.0000
# 3 31.8820 21.3512 168.0992 0.0000 0.0000 0.0000
# 4 0.0000 0.0000 0.0000 132.3049 0.0000 0.0000
# 5 0.0000 0.0000 0.0000 0.0000 100.6057 0.0000
# 6 0.0000 0.0000 0.0000 0.0000 0.0000 36.0015
#
#
#
# Elastic Compliance Matrix: (Units=1/GPa)
#
#
# Indices 1 2 3 4 5 6 
#
# 1 0.011009 -0.000024 -0.002085 0.000000 0.000000 0.000000
# 2 -0.000024 0.017598 -0.002231 0.000000 0.000000 0.000000
# 3 -0.002085 -0.002231 0.006628 0.000000 0.000000 0.000000
# 4 0.000000 0.000000 0.000000 0.007558 0.000000 0.000000
# 5 0.000000 0.000000 0.000000 0.000000 0.009940 0.000000
# 6 0.000000 0.000000 0.000000 0.000000 0.000000 0.027777
#
#
# Mechanical properties :
#
#
# Convention : Reuss Voigt Hill
#
# Bulk Modulus (GPa) = 37.65678 48.81454 43.23566
# Shear Modulus (GPa) = 50.99966 71.59007 61.29487
#
# Velocity S-wave (km/s) = 4.70864 5.57876 5.16207
# Velocity P-wave (km/s) = 6.77734 7.91948 7.37056
#
# Compressibility (1/GPa) = 0.02655564
#
# Stress axis : x y z
#
# Youngs Moduli (GPa) = 90.83763 56.82412 150.88352
#
# Poissons Ratio (x) = 0.00135 0.31458
# Poissons Ratio (y) = 0.00216 0.33658
# Poissons Ratio (z) = 0.18939 0.12676
#
# Static dielectric constant tensor:
#      x y z
#    x 1.880110 0.000000 0.000000 
#    y 0.000000 1.796780 0.000000 
#    z 0.000000 0.000000 1.783120 
# 
# From -- ./inp_files/45022.got.cif
#   From: 2010.05.17/outbox.cif.g08.bks.cpg/sg68_23_cif.got.tgz:45022.got - 2010.06.03 18:57:09.
