data_PCOD9510294
_publ_section_title
;
Structure prediction by ZEFSAII (Michael W. Deem and Ramdas Pophale) SiO2 
 PCOD9510294
Probable space group: C C C A
;
_chemical_formula_sum "Si O2"
_cell_formula_units_Z 80
_cell_length_a 16.568467
_cell_length_b 9.023493
_cell_length_c 25.859173
_cell_angle_alpha 90.000000
_cell_angle_beta 90.000000
_cell_angle_gamma 90.000000
_cell_volume 3866.087192
_symmetry_space_group_name_H-M "C C C A"
_symmetry_group_IT_number 68
_space_group.IT_coordinate_system_code '2'
_symmetry_cell_setting 'orthorhombic'
loop_
_space_group_symop_operation_xyz
x,y,z
-x,1/2-y,z
x,1/2-y,1/2-z
-x,y,1/2-z
-x,-y,-z
x,1/2+y,-z
-x,1/2+y,1/2+z
x,-y,1/2+z
1/2+x,1/2+y,z
1/2-x,-y,z
1/2+x,-y,1/2-z
1/2-x,1/2+y,1/2-z
1/2-x,1/2-y,-z
1/2+x,y,-z
1/2-x,y,1/2+z
1/2+x,1/2-y,1/2+z
loop_
_atom_site_type_symbol
_atom_site_label
_atom_site_fract_x
_atom_site_fract_y
_atom_site_fract_z
Si Si1 0.165775 0.085286 0.869530
Si Si2 0.566221 0.457122 0.542319
Si Si3 0.916301 0.186766 0.807522
Si Si4 0.838683 0.750223 0.476466
Si Si5 0.997887 0.079600 0.156993
O O1 0.156620 0.242626 0.839446
O O2 0.154349 0.131996 0.929521
O O3 0.250000 0.000000 0.863613
O O4 0.093162 0.985638 0.846045
O O5 0.500000 0.500000 0.500000
O O6 0.604733 0.305297 0.522683
O O7 0.631947 0.589330 0.542167
O O8 0.530049 0.439372 0.598654
O O9 0.910951 0.250000 0.750000
O O10 0.000000 0.250000 0.832542
O O11 0.938598 0.014774 0.808651
O O12 0.750000 0.750000 0.500000
O O13 0.000000 0.250000 0.172120
#
# Coordination Sequence:
#
# PCOD9510294 Si02
#       5
#    16  16  16  16  16
#     4  11  23  42  63  91 131 172 215 269 328 386
#     4  12  23  38  61  91 128 174 219 261 320 386
#     4   9  20  44  73  94 122 171 221 270 336 397
#     4  12  25  40  57  91 132 175 220 268 321 387
#     4  11  23  41  66 100 129 166 222 275 323 397
#
# _framework density 20.692755999999999
#
# number of rings (size 3 to 8) (size 9 to 14) (size 15 to 20)
#    0.000    1.000    4.000    3.600    2.800    0.000 
#    0.000   11.000    0.000    0.000    0.000    0.000 
#    0.000    0.000    0.000    0.000    0.000    0.000 
#
# Total GULP energy -223425.939844 kJ/mol
# GULP energy per Si atom -5585.648496 kJ/mol
# Density = 2.064566 g / cm^3
# Si number density = 20.692756 Si / 1000 Ang^3
#
#
#
# Elastic Constant Matrix: (Units=GPa)
#
#
# Indices 1 2 3 4 5 6 
#
# 1 69.9620 29.2964 24.8590 0.0000 0.0000 0.0000
# 2 29.2964 137.7527 25.0204 0.0000 0.0000 0.0000
# 3 24.8590 25.0204 77.8449 0.0000 0.0000 0.0000
# 4 0.0000 0.0000 0.0000 23.6464 0.0000 0.0000
# 5 0.0000 0.0000 0.0000 0.0000 17.7455 0.0000
# 6 0.0000 0.0000 0.0000 0.0000 0.0000 43.7910
#
#
#
# Elastic Compliance Matrix: (Units=1/GPa)
#
#
# Indices 1 2 3 4 5 6 
#
# 1 0.017087 -0.002807 -0.004554 0.000000 0.000000 0.000000
# 2 -0.002807 0.008170 -0.001730 0.000000 0.000000 0.000000
# 3 -0.004554 -0.001730 0.014856 0.000000 0.000000 0.000000
# 4 0.000000 0.000000 0.000000 0.042290 0.000000 0.000000
# 5 0.000000 0.000000 0.000000 0.000000 0.056352 0.000000
# 6 0.000000 0.000000 0.000000 0.000000 0.000000 0.022836
#
#
# Mechanical properties :
#
#
# Convention : Reuss Voigt Hill
#
# Bulk Modulus (GPa) = 45.59544 49.32348 47.45946
# Shear Modulus (GPa) = 26.72585 30.79548 28.76066
#
# Velocity S-wave (km/s) = 3.59772 3.86194 3.73217
# Velocity P-wave (km/s) = 6.27220 6.61619 6.44649
#
# Compressibility (1/GPa) = 0.02193202
#
# Stress axis : x y z
#
# Youngs Moduli (GPa) = 58.52370 122.39161 67.31076
#
# Poissons Ratio (x) = 0.34352 0.30657
# Poissons Ratio (y) = 0.16426 0.11643
# Poissons Ratio (z) = 0.26655 0.21171
#
# Static dielectric constant tensor:
#      x y z
#    x 2.045320 0.000000 0.000000 
#    y 0.000000 1.825130 0.000000 
#    z 0.000000 0.000000 1.740650 
# 
# From -- ./inp_files/49102.got.cif
#   From: 2010.05.17/outbox.cif.g08.bks.cpg/sg68_25_cif.got.tgz:49102.got - 2010.06.03 18:57:09.
