data_PCOD9510649
_publ_section_title
;
Structure prediction by ZEFSAII (Michael W. Deem and Ramdas Pophale) SiO2 
 PCOD9510649
Probable space group: C C C A
;
_chemical_formula_sum "Si O2"
_cell_formula_units_Z 56
_cell_length_a 10.530757
_cell_length_b 24.911063
_cell_length_c 8.347571
_cell_angle_alpha 90.000000
_cell_angle_beta 90.000000
_cell_angle_gamma 90.000000
_cell_volume 2189.837926
_symmetry_space_group_name_H-M "C C C A"
_symmetry_group_IT_number 68
_space_group.IT_coordinate_system_code '2'
_symmetry_cell_setting 'orthorhombic'
loop_
_space_group_symop_operation_xyz
x,y,z
-x,1/2-y,z
x,1/2-y,1/2-z
-x,y,1/2-z
-x,-y,-z
x,1/2+y,-z
-x,1/2+y,1/2+z
x,-y,1/2+z
1/2+x,1/2+y,z
1/2-x,-y,z
1/2+x,-y,1/2-z
1/2-x,1/2+y,1/2-z
1/2-x,1/2-y,-z
1/2+x,y,-z
1/2-x,y,1/2+z
1/2+x,1/2-y,1/2+z
loop_
_atom_site_type_symbol
_atom_site_label
_atom_site_fract_x
_atom_site_fract_y
_atom_site_fract_z
Si Si1 0.056694 0.810281 0.919471
Si Si2 0.000000 0.133770 0.750000
Si Si3 0.361703 0.042429 0.725482
Si Si4 0.224633 0.887225 0.434607
O O1 0.000000 0.750000 0.921661
O O2 0.000000 0.830944 0.750000
O O3 0.005810 0.833523 0.085699
O O4 0.206736 0.828226 0.930991
O O5 0.866649 0.105899 0.720177
O O6 0.500000 0.017170 0.750000
O O7 0.349491 0.086156 0.582276
O O8 0.250000 0.000000 0.704158
O O9 0.340501 0.073793 0.892376
#
# Coordination Sequence:
#
# PCOD9510649 Si02
#       4
#    16   8  16  16
#     4  11  26  50  78 118 160 214 282 342 417 498
#     4  12  25  46  80 114 162 220 266 342 423 490
#     4  12  29  49  82 121 165 218 279 346 422 504
#     4  12  25  50  79 113 167 213 275 344 417 500
#
# _framework density 25.572669999999999
#
# number of rings (size 3 to 8) (size 9 to 14) (size 15 to 20)
#    0.000    0.286    2.857    5.571    2.000    3.429 
#    5.143    0.000    0.000    0.000    0.000    0.000 
#    0.000    0.000    0.000    0.000    0.000    0.000 
#
# Total GULP energy -156164.866920 kJ/mol
# GULP energy per Si atom -5577.316676 kJ/mol
# Density = 2.551447 g / cm^3
# Si number density = 25.572670 Si / 1000 Ang^3
#
#
#
# Elastic Constant Matrix: (Units=GPa)
#
#
# Indices 1 2 3 4 5 6 
#
# 1 191.7985 74.7254 39.8927 0.0000 0.0000 0.0000
# 2 74.7254 128.4341 53.8019 0.0000 0.0000 0.0000
# 3 39.8927 53.8019 173.7139 0.0000 0.0000 0.0000
# 4 0.0000 0.0000 0.0000 23.2473 0.0000 0.0000
# 5 0.0000 0.0000 0.0000 0.0000 50.8246 0.0000
# 6 0.0000 0.0000 0.0000 0.0000 0.0000 -20.9947
#
#
#
# Elastic Compliance Matrix: (Units=1/GPa)
#
#
# Indices 1 2 3 4 5 6 
#
# 1 0.006764 -0.003775 -0.000384 0.000000 0.000000 0.000000
# 2 -0.003775 0.011053 -0.002557 0.000000 0.000000 0.000000
# 3 -0.000384 -0.002557 0.006637 0.000000 0.000000 0.000000
# 4 0.000000 0.000000 0.000000 0.043016 0.000000 0.000000
# 5 0.000000 0.000000 0.000000 0.000000 0.019676 0.000000
# 6 0.000000 0.000000 0.000000 0.000000 0.000000 -0.047631
#
#
# Mechanical properties :
#
#
# Convention : Reuss Voigt Hill
#
# Bulk Modulus (GPa) = 90.71767 92.30962 91.51364
# Shear Modulus (GPa) = 88.30839 32.31721 60.31280
#
# Velocity S-wave (km/s) = 5.88280 3.55877 4.86169
# Velocity P-wave (km/s) = 9.03850 7.28435 8.20842
#
# Compressibility (1/GPa) = 0.01102321
#
# Stress axis : x y z
#
# Youngs Moduli (GPa) = 147.83381 90.47168 150.67847
#
# Poissons Ratio (x) = 0.34150 0.05791
# Poissons Ratio (y) = 0.55802 0.38521
# Poissons Ratio (z) = 0.05682 0.23129
#
# Static dielectric constant tensor:
#      x y z
#    x 2.359330 0.000000 0.000000 
#    y 0.000000 2.092900 0.000000 
#    z 0.000000 0.000000 2.022890 
# 
# From -- ./inp_files/3893.got.cif
#   From: 2010.05.17/outbox.cif.g08.bks.cpg/sg68_2_cif.got.tgz:3893.got - 2010.06.03 18:57:09.
