data_PCOD9510024
_publ_section_title
;
Structure prediction by ZEFSAII (Michael W. Deem and Ramdas Pophale) SiO2 
 PCOD9510024
Probable space group: C C C A
;
_chemical_formula_sum "Si O2"
_cell_formula_units_Z 64
_cell_length_a 21.229874
_cell_length_b 15.391219
_cell_length_c 7.150985
_cell_angle_alpha 90.000000
_cell_angle_beta 90.000000
_cell_angle_gamma 90.000000
_cell_volume 2336.610379
_symmetry_space_group_name_H-M "C C C A"
_symmetry_group_IT_number 68
_space_group.IT_coordinate_system_code '2'
_symmetry_cell_setting 'orthorhombic'
loop_
_space_group_symop_operation_xyz
x,y,z
-x,1/2-y,z
x,1/2-y,1/2-z
-x,y,1/2-z
-x,-y,-z
x,1/2+y,-z
-x,1/2+y,1/2+z
x,-y,1/2+z
1/2+x,1/2+y,z
1/2-x,-y,z
1/2+x,-y,1/2-z
1/2-x,1/2+y,1/2-z
1/2-x,1/2-y,-z
1/2+x,y,-z
1/2-x,y,1/2+z
1/2+x,1/2-y,1/2+z
loop_
_atom_site_type_symbol
_atom_site_label
_atom_site_fract_x
_atom_site_fract_y
_atom_site_fract_z
Si Si1 0.822968 0.816479 0.075208
Si Si2 0.055687 0.383737 0.499552
Si Si3 0.577317 0.087039 0.439290
Si Si4 0.714202 0.909958 0.910136
O O1 0.830930 0.750000 0.250000
O O2 0.886146 0.821202 0.952172
O O3 0.810251 0.903976 0.197909
O O4 0.762442 0.830682 0.943222
O O5 0.069455 0.482527 0.436747
O O6 0.064747 0.383073 0.726284
O O7 0.982121 0.370239 0.454786
O O8 0.647739 0.102418 0.516752
O O9 0.750000 0.000000 0.925505
#
# Coordination Sequence:
#
# PCOD9510024 Si02
#       4
#    16  16  16  16
#     4  11  23  37  56  85 123 157 191 245 308 356
#     4   9  18  34  53  81 110 146 188 245 285 341
#     4   9  18  32  55  81 108 142 197 241 280 332
#     4  11  21  36  58  85 113 156 201 245 287 362
#
# _framework density 27.390104999999998
#
# number of rings (size 3 to 8) (size 9 to 14) (size 15 to 20)
#    0.000    2.000    2.500    1.500    3.500    0.000 
#    0.000   10.000    0.000    0.000    0.000    1.750 
#    0.000    0.000    0.000    0.000    0.000    0.000 
#
# Total GULP energy -178288.055691 kJ/mol
# GULP energy per Si atom -5571.501740 kJ/mol
# Density = 2.732776 g / cm^3
# Si number density = 27.390105 Si / 1000 Ang^3
#
#
#
# Elastic Constant Matrix: (Units=GPa)
#
#
# Indices 1 2 3 4 5 6 
#
# 1 228.6943 42.6856 1.9507 0.0000 0.0000 0.0000
# 2 42.6856 76.9823 -0.6441 0.0000 0.0000 0.0000
# 3 1.9507 -0.6441 43.0355 0.0000 0.0000 0.0000
# 4 0.0000 0.0000 0.0000 29.9883 0.0000 0.0000
# 5 0.0000 0.0000 0.0000 0.0000 22.3051 0.0000
# 6 0.0000 0.0000 0.0000 0.0000 0.0000 16.4412
#
#
#
# Elastic Compliance Matrix: (Units=1/GPa)
#
#
# Indices 1 2 3 4 5 6 
#
# 1 0.004880 -0.002708 -0.000262 0.000000 0.000000 0.000000
# 2 -0.002708 0.014495 0.000340 0.000000 0.000000 0.000000
# 3 -0.000262 0.000340 0.023254 0.000000 0.000000 0.000000
# 4 0.000000 0.000000 0.000000 0.033346 0.000000 0.000000
# 5 0.000000 0.000000 0.000000 0.000000 0.044833 0.000000
# 6 0.000000 0.000000 0.000000 0.000000 0.000000 0.060823
#
#
# Mechanical properties :
#
#
# Convention : Reuss Voigt Hill
#
# Bulk Modulus (GPa) = 26.76099 48.52184 37.64142
# Shear Modulus (GPa) = 25.08186 34.06158 29.57172
#
# Velocity S-wave (km/s) = 3.02938 3.53026 3.28937
# Velocity P-wave (km/s) = 4.69337 5.86264 5.31028
#
# Compressibility (1/GPa) = 0.03736782
#
# Stress axis : x y z
#
# Youngs Moduli (GPa) = 204.90204 68.99148 43.00409
#
# Poissons Ratio (x) = 0.18685 0.01126
# Poissons Ratio (y) = 0.55493 -0.01461
# Poissons Ratio (z) = 0.05363 -0.02344
#
# Static dielectric constant tensor:
#      x y z
#    x 2.538090 0.000000 0.000000 
#    y 0.000000 2.225460 0.000000 
#    z 0.000000 0.000000 2.317580 
# 
# From -- ./inp_files/6027.got.cif
#   From: 2010.05.17/outbox.cif.g08.bks.cpg/sg68_4_cif.got.tgz:6027.got - 2010.06.03 18:57:09.
