data_PCOD9510181
_publ_section_title
;
Structure prediction by ZEFSAII (Michael W. Deem and Ramdas Pophale) SiO2 
 PCOD9510181
Probable space group: C C C A
;
_chemical_formula_sum "Si O2"
_cell_formula_units_Z 64
_cell_length_a 20.806064
_cell_length_b 15.010621
_cell_length_c 8.930838
_cell_angle_alpha 90.000000
_cell_angle_beta 90.000000
_cell_angle_gamma 90.000000
_cell_volume 2789.207352
_symmetry_space_group_name_H-M "C C C A"
_symmetry_group_IT_number 68
_space_group.IT_coordinate_system_code '2'
_symmetry_cell_setting 'orthorhombic'
loop_
_space_group_symop_operation_xyz
x,y,z
-x,1/2-y,z
x,1/2-y,1/2-z
-x,y,1/2-z
-x,-y,-z
x,1/2+y,-z
-x,1/2+y,1/2+z
x,-y,1/2+z
1/2+x,1/2+y,z
1/2-x,-y,z
1/2+x,-y,1/2-z
1/2-x,1/2+y,1/2-z
1/2-x,1/2-y,-z
1/2+x,y,-z
1/2-x,y,1/2+z
1/2+x,1/2-y,1/2+z
loop_
_atom_site_type_symbol
_atom_site_label
_atom_site_fract_x
_atom_site_fract_y
_atom_site_fract_z
Si Si1 0.605220 0.815993 0.862550
Si Si2 0.700405 0.919067 0.292231
Si Si3 0.068430 0.351630 0.186173
Si Si4 0.192962 0.347244 0.619796
O O1 0.568105 0.750000 0.750000
O O2 0.642304 0.881049 0.748118
O O3 0.568475 0.849334 0.005640
O O4 0.662677 0.749411 0.918380
O O5 0.627776 0.912587 0.235351
O O6 0.738464 0.843971 0.198303
O O7 0.697353 0.902538 0.469163
O O8 0.750000 0.000000 0.263742
O O9 0.077829 0.250000 0.250000
O O10 0.000000 0.381884 0.250000
#
# Coordination Sequence:
#
# PCOD9510181 Si02
#       4
#    16  16  16  16
#     4   8  19  37  65 101 129 171 228 300 341 392
#     4  12  23  38  62  99 141 183 236 286 354 411
#     4  11  22  40  68 104 140 184 227 289 359 418
#     4   9  21  36  62  96 133 174 229 306 332 410
#
# _framework density 22.945585999999999
#
# number of rings (size 3 to 8) (size 9 to 14) (size 15 to 20)
#    1.500    0.250    2.500    2.250    3.500    5.000 
#    0.000   10.000    0.000   13.500    0.000    0.000 
#    0.000    0.000    0.000    0.000    0.000    0.000 
#
# Total GULP energy -178259.658601 kJ/mol
# GULP energy per Si atom -5570.614331 kJ/mol
# Density = 2.289336 g / cm^3
# Si number density = 22.945586 Si / 1000 Ang^3
#
#
#
# Elastic Constant Matrix: (Units=GPa)
#
#
# Indices 1 2 3 4 5 6 
#
# 1 196.8587 44.5671 86.1569 0.0000 0.0000 0.0000
# 2 44.5671 63.9560 11.0039 0.0000 0.0000 0.0000
# 3 86.1569 11.0039 211.9111 0.0000 0.0000 0.0000
# 4 0.0000 0.0000 0.0000 3.1225 0.0000 0.0000
# 5 0.0000 0.0000 0.0000 0.0000 33.4288 0.0000
# 6 0.0000 0.0000 0.0000 0.0000 0.0000 23.3797
#
#
#
# Elastic Compliance Matrix: (Units=1/GPa)
#
#
# Indices 1 2 3 4 5 6 
#
# 1 0.007328 -0.004635 -0.002739 0.000000 0.000000 0.000000
# 2 -0.004635 0.018709 0.000913 0.000000 0.000000 0.000000
# 3 -0.002739 0.000913 0.005785 0.000000 0.000000 0.000000
# 4 0.000000 0.000000 0.000000 0.320255 0.000000 0.000000
# 5 0.000000 0.000000 0.000000 0.000000 0.029914 0.000000
# 6 0.000000 0.000000 0.000000 0.000000 0.000000 0.042772
#
#
# Mechanical properties :
#
#
# Convention : Reuss Voigt Hill
#
# Bulk Modulus (GPa) = 52.90999 84.02019 68.46509
# Shear Modulus (GPa) = 11.26167 34.05272 22.65720
#
# Velocity S-wave (km/s) = 2.21780 3.85653 3.14575
# Velocity P-wave (km/s) = 5.44676 7.51845 6.56484
#
# Compressibility (1/GPa) = 0.01890002
#
# Stress axis : x y z
#
# Youngs Moduli (GPa) = 136.46929 53.45148 172.86216
#
# Poissons Ratio (x) = 0.24775 0.47339
# Poissons Ratio (y) = 0.63254 -0.15782
# Poissons Ratio (z) = 0.37372 -0.04880
#
# Static dielectric constant tensor:
#      x y z
#    x 1.841830 0.000000 0.000000 
#    y 0.000000 2.059630 0.000000 
#    z 0.000000 0.000000 1.866470 
# 
# From -- ./inp_files/6892.got.cif
#   From: 2010.05.17/outbox.cif.g08.bks.cpg/sg68_4_cif.got.tgz:6892.got - 2010.06.03 18:57:09.
