data_PCOD9510503
_publ_section_title
;
Structure prediction by ZEFSAII (Michael W. Deem and Ramdas Pophale) SiO2 
 PCOD9510503
Probable space group: C C C A
;
_chemical_formula_sum "Si O2"
_cell_formula_units_Z 80
_cell_length_a 22.958994
_cell_length_b 16.870291
_cell_length_c 9.098951
_cell_angle_alpha 90.000000
_cell_angle_beta 90.000000
_cell_angle_gamma 90.000000
_cell_volume 3524.250376
_symmetry_space_group_name_H-M "C C C A"
_symmetry_group_IT_number 68
_space_group.IT_coordinate_system_code '2'
_symmetry_cell_setting 'orthorhombic'
loop_
_space_group_symop_operation_xyz
x,y,z
-x,1/2-y,z
x,1/2-y,1/2-z
-x,y,1/2-z
-x,-y,-z
x,1/2+y,-z
-x,1/2+y,1/2+z
x,-y,1/2+z
1/2+x,1/2+y,z
1/2-x,-y,z
1/2+x,-y,1/2-z
1/2-x,1/2+y,1/2-z
1/2-x,1/2-y,-z
1/2+x,y,-z
1/2-x,y,1/2+z
1/2+x,1/2-y,1/2+z
loop_
_atom_site_type_symbol
_atom_site_label
_atom_site_fract_x
_atom_site_fract_y
_atom_site_fract_z
Si Si1 0.080017 0.824631 0.860102
Si Si2 0.471319 0.426513 0.410909
Si Si3 0.295725 0.057100 0.427193
Si Si4 0.787907 0.801896 0.608119
Si Si5 0.871798 0.033172 0.314173
O O1 0.069535 0.750000 0.750000
O O2 0.145002 0.818729 0.933412
O O3 0.085437 0.904360 0.762276
O O4 0.033976 0.848478 0.986775
O O5 0.500000 0.414123 0.250000
O O6 0.500000 0.500000 0.500000
O O7 0.406863 0.460231 0.381653
O O8 0.254614 0.124284 0.361222
O O9 0.329385 0.006402 0.305298
O O10 0.250000 0.000000 0.508028
O O11 0.340042 0.080903 0.555081
O O12 0.795368 0.750000 0.750000
O O13 0.750000 0.750000 0.500000
#
# Coordination Sequence:
#
# PCOD9510503 Si02
#       5
#    16  16  16  16  16
#     4  11  24  45  73 110 154 198 248 318 398 459
#     4  12  24  47  78 110 144 196 266 333 388 450
#     4  12  23  37  67  99 144 191 249 296 363 461
#     4  11  25  42  64 102 156 198 237 300 376 453
#     4  12  23  42  69 104 144 195 250 313 374 460
#
# _framework density 22.699864000000002
#
# number of rings (size 3 to 8) (size 9 to 14) (size 15 to 20)
#    0.000    0.400    6.000    3.000    5.600    0.000 
#    0.000    2.000    0.000    6.000    0.000    0.000 
#    0.000    0.000    0.000    0.000    0.000    0.000 
#
# Total GULP energy -223417.986114 kJ/mol
# GULP energy per Si atom -5585.449653 kJ/mol
# Density = 2.264820 g / cm^3
# Si number density = 22.699864 Si / 1000 Ang^3
#
#
#
# Elastic Constant Matrix: (Units=GPa)
#
#
# Indices 1 2 3 4 5 6 
#
# 1 75.8838 25.0840 57.5807 0.0000 0.0000 0.0000
# 2 25.0840 116.9980 52.8573 0.0000 0.0000 0.0000
# 3 57.5807 52.8573 126.7845 0.0000 0.0000 0.0000
# 4 0.0000 0.0000 0.0000 44.4959 0.0000 0.0000
# 5 0.0000 0.0000 0.0000 0.0000 55.0705 0.0000
# 6 0.0000 0.0000 0.0000 0.0000 0.0000 34.2894
#
#
#
# Elastic Compliance Matrix: (Units=1/GPa)
#
#
# Indices 1 2 3 4 5 6 
#
# 1 0.020112 -0.000228 -0.009039 0.000000 0.000000 0.000000
# 2 -0.000228 0.010533 -0.004288 0.000000 0.000000 0.000000
# 3 -0.009039 -0.004288 0.013780 0.000000 0.000000 0.000000
# 4 0.000000 0.000000 0.000000 0.022474 0.000000 0.000000
# 5 0.000000 0.000000 0.000000 0.000000 0.018159 0.000000
# 6 0.000000 0.000000 0.000000 0.000000 0.000000 0.029164
#
#
# Mechanical properties :
#
#
# Convention : Reuss Voigt Hill
#
# Bulk Modulus (GPa) = 57.75150 65.63447 61.69299
# Shear Modulus (GPa) = 33.98959 39.04744 36.51852
#
# Velocity S-wave (km/s) = 3.87376 4.15198 4.01528
# Velocity P-wave (km/s) = 6.74571 7.20847 6.98093
#
# Compressibility (1/GPa) = 0.01731557
#
# Stress axis : x y z
#
# Youngs Moduli (GPa) = 49.72059 94.93805 72.56812
#
# Poissons Ratio (x) = 0.02168 0.65595
# Poissons Ratio (y) = 0.01135 0.31115
# Poissons Ratio (z) = 0.44943 0.40706
#
# Static dielectric constant tensor:
#      x y z
#    x 1.952350 0.000000 0.000000 
#    y 0.000000 1.889710 0.000000 
#    z 0.000000 0.000000 1.878330 
# 
# From -- ./inp_files/6253.got.cif
#   From: 2010.05.17/outbox.cif.g08.bks.cpg/sg68_4_cif.got.tgz:6253.got - 2010.06.03 18:57:09.
