data_PCOD9510422
_publ_section_title
;
Structure prediction by ZEFSAII (Michael W. Deem and Ramdas Pophale) SiO2 
 PCOD9510422
Probable space group: C C C A
;
_chemical_formula_sum "Si O2"
_cell_formula_units_Z 112
_cell_length_a 11.907169
_cell_length_b 28.245492
_cell_length_c 13.630001
_cell_angle_alpha 90.000000
_cell_angle_beta 90.000000
_cell_angle_gamma 90.000000
_cell_volume 4584.094367
_symmetry_space_group_name_H-M "C C C A"
_symmetry_group_IT_number 68
_space_group.IT_coordinate_system_code '2'
_symmetry_cell_setting 'orthorhombic'
loop_
_space_group_symop_operation_xyz
x,y,z
-x,1/2-y,z
x,1/2-y,1/2-z
-x,y,1/2-z
-x,-y,-z
x,1/2+y,-z
-x,1/2+y,1/2+z
x,-y,1/2+z
1/2+x,1/2+y,z
1/2-x,-y,z
1/2+x,-y,1/2-z
1/2-x,1/2+y,1/2-z
1/2-x,1/2-y,-z
1/2+x,y,-z
1/2-x,y,1/2+z
1/2+x,1/2-y,1/2+z
loop_
_atom_site_type_symbol
_atom_site_label
_atom_site_fract_x
_atom_site_fract_y
_atom_site_fract_z
Si Si1 0.935142 0.203877 0.895959
Si Si2 0.052354 0.587815 0.645900
Si Si3 0.873019 0.524173 0.006560
Si Si4 0.588698 0.848184 0.465552
Si Si5 0.760643 0.142709 0.657367
Si Si6 0.789912 0.289258 0.189198
Si Si7 0.900445 0.596592 0.185175
O O1 0.805464 0.219805 0.893290
O O2 0.936299 0.150339 0.848429
O O3 0.000000 0.250000 0.856085
O O4 0.999154 0.190291 0.995720
O O5 0.131556 0.548463 0.600020
O O6 0.129019 0.634583 0.648395
O O7 0.000000 0.576381 0.750000
O O8 0.959806 0.601024 0.564620
O O9 0.750000 0.500000 0.021470
O O10 0.876586 0.564297 0.092010
O O11 0.000000 0.500000 0.000000
O O12 0.677324 0.855674 0.553811
O O13 0.637845 0.828166 0.364884
O O14 0.781055 0.190293 0.718559
O O15 0.802639 0.103642 0.735375
O O16 0.856245 0.250000 0.250000
O O17 0.000000 0.575566 0.250000
#
# Coordination Sequence:
#
# PCOD9510422 Si02
#       7
#    16  16  16  16  16  16  16
#     4  11  24  41  74 113 157 210 271 326 402 496
#     4  12  27  50  80 112 156 212 269 343 420 507
#     4  12  32  55  85 122 164 213 279 350 436 524
#     4  12  24  47  74 112 157 217 272 335 424 491
#     4  11  25  44  80 107 151 214 267 331 422 497
#     4  11  26  43  67 111 159 211 279 337 394 493
#     4  11  24  50  82 118 163 216 270 348 423 507
#
# _framework density 24.432307000000002
#
# number of rings (size 3 to 8) (size 9 to 14) (size 15 to 20)
#    0.000    0.571    4.286    1.714   10.000    4.000 
#    0.000    0.714    0.000    0.000    0.000    0.000 
#    0.000    0.000    0.000    0.000    0.000    0.000 
#
# Total GULP energy -312124.326083 kJ/mol
# GULP energy per Si atom -5573.648680 kJ/mol
# Density = 2.437670 g / cm^3
# Si number density = 24.432307 Si / 1000 Ang^3
#
#
#
# Elastic Constant Matrix: (Units=GPa)
#
#
# Indices 1 2 3 4 5 6 
#
# 1 87.2745 43.9676 47.3272 0.0000 0.0000 0.0000
# 2 43.9676 99.0310 60.6816 0.0000 0.0000 0.0000
# 3 47.3272 60.6816 162.5171 0.0000 0.0000 0.0000
# 4 0.0000 0.0000 0.0000 8.9148 0.0000 0.0000
# 5 0.0000 0.0000 0.0000 0.0000 42.9530 0.0000
# 6 0.0000 0.0000 0.0000 0.0000 0.0000 36.2691
#
#
#
# Elastic Compliance Matrix: (Units=1/GPa)
#
#
# Indices 1 2 3 4 5 6 
#
# 1 0.015519 -0.005343 -0.002524 0.000000 0.000000 0.000000
# 2 -0.005343 0.014933 -0.004020 0.000000 0.000000 0.000000
# 3 -0.002524 -0.004020 0.008389 0.000000 0.000000 0.000000
# 4 0.000000 0.000000 0.000000 0.112174 0.000000 0.000000
# 5 0.000000 0.000000 0.000000 0.000000 0.023281 0.000000
# 6 0.000000 0.000000 0.000000 0.000000 0.000000 0.027572
#
#
# Mechanical properties :
#
#
# Convention : Reuss Voigt Hill
#
# Bulk Modulus (GPa) = 66.37157 72.53061 69.45109
# Shear Modulus (GPa) = 21.67648 30.75045 26.21346
#
# Velocity S-wave (km/s) = 2.98183 3.55152 3.27907
# Velocity P-wave (km/s) = 6.25136 6.82411 6.54401
#
# Compressibility (1/GPa) = 0.01506669
#
# Stress axis : x y z
#
# Youngs Moduli (GPa) = 64.43805 66.96420 119.20044
#
# Poissons Ratio (x) = 0.35781 0.30088
# Poissons Ratio (y) = 0.34431 0.47917
# Poissons Ratio (z) = 0.16265 0.26919
#
# Static dielectric constant tensor:
#      x y z
#    x 2.168280 0.000000 0.000000 
#    y 0.000000 2.060800 0.000000 
#    z 0.000000 0.000000 1.954450 
# 
# From -- ./inp_files/21250.got.cif
#   From: 2010.05.17/outbox.cif.g08.bks.cpg/sg68_11_cif.got.tgz:21250.got - 2010.06.03 18:57:09.
