data_PCOD9510707
_publ_section_title
;
Structure prediction by ZEFSAII (Michael W. Deem and Ramdas Pophale) SiO2 
 PCOD9510707
Probable space group: C C C A
;
_chemical_formula_sum "Si O2"
_cell_formula_units_Z 72
_cell_length_a 12.573956
_cell_length_b 18.621850
_cell_length_c 12.373644
_cell_angle_alpha 90.000000
_cell_angle_beta 90.000000
_cell_angle_gamma 90.000000
_cell_volume 2897.292734
_symmetry_space_group_name_H-M "C C C A"
_symmetry_group_IT_number 68
_space_group.IT_coordinate_system_code '2'
_symmetry_cell_setting 'orthorhombic'
loop_
_space_group_symop_operation_xyz
x,y,z
-x,1/2-y,z
x,1/2-y,1/2-z
-x,y,1/2-z
-x,-y,-z
x,1/2+y,-z
-x,1/2+y,1/2+z
x,-y,1/2+z
1/2+x,1/2+y,z
1/2-x,-y,z
1/2+x,-y,1/2-z
1/2-x,1/2+y,1/2-z
1/2-x,1/2-y,-z
1/2+x,y,-z
1/2-x,y,1/2+z
1/2+x,1/2-y,1/2+z
loop_
_atom_site_type_symbol
_atom_site_label
_atom_site_fract_x
_atom_site_fract_y
_atom_site_fract_z
Si Si1 0.627313 0.028424 0.981281
Si Si2 0.106694 0.622678 0.425873
Si Si3 0.832374 0.153234 0.346443
Si Si4 0.690518 0.076907 0.206252
Si Si5 0.500000 0.750000 0.449238
O O1 0.634281 0.072948 0.091798
O O2 0.750000 0.000000 0.962591
O O3 0.606389 0.080376 0.880841
O O4 0.576172 0.949678 0.990967
O O5 0.229149 0.651963 0.426320
O O6 0.108420 0.594166 0.302291
O O7 0.038441 0.686778 0.471905
O O8 0.780809 0.137801 0.228987
O O9 0.906979 0.218861 0.373480
O O10 0.750000 0.000000 0.217432
#
# Coordination Sequence:
#
# PCOD9510707 Si02
#       5
#    16  16  16  16   8
#     4   9  16  35  65  85 110 154 216 261 287 354
#     4   9  19  37  59  94 117 164 205 242 323 354
#     4   9  19  37  59  93 113 166 206 242 322 351
#     4   9  16  35  65  84 110 154 211 261 292 351
#     4  12  22  34  65  87 146 158 186 262 306 396
#
# _framework density 24.850784999999998
#
# number of rings (size 3 to 8) (size 9 to 14) (size 15 to 20)
#    1.333    1.333    2.222    0.667    0.000    0.889 
#    0.000    3.333   14.667   16.000    0.000    0.000 
#    0.000    0.000    0.000    0.000    0.000    0.000 
#
# Total GULP energy -200706.404291 kJ/mol
# GULP energy per Si atom -5575.177897 kJ/mol
# Density = 2.479422 g / cm^3
# Si number density = 24.850785 Si / 1000 Ang^3
#
#
#
# Elastic Constant Matrix: (Units=GPa)
#
#
# Indices 1 2 3 4 5 6 
#
# 1 84.3513 53.6082 27.3418 0.0000 0.0000 0.0000
# 2 53.6082 156.1314 42.4476 0.0000 0.0000 0.0000
# 3 27.3418 42.4476 100.9739 0.0000 0.0000 0.0000
# 4 0.0000 0.0000 0.0000 25.4275 0.0000 0.0000
# 5 0.0000 0.0000 0.0000 0.0000 31.3323 0.0000
# 6 0.0000 0.0000 0.0000 0.0000 0.0000 45.4023
#
#
#
# Elastic Compliance Matrix: (Units=1/GPa)
#
#
# Indices 1 2 3 4 5 6 
#
# 1 0.015595 -0.004749 -0.002226 0.000000 0.000000 0.000000
# 2 -0.004749 0.008678 -0.002362 0.000000 0.000000 0.000000
# 3 -0.002226 -0.002362 0.011499 0.000000 0.000000 0.000000
# 4 0.000000 0.000000 0.000000 0.039327 0.000000 0.000000
# 5 0.000000 0.000000 0.000000 0.000000 0.031916 0.000000
# 6 0.000000 0.000000 0.000000 0.000000 0.000000 0.022025
#
#
# Mechanical properties :
#
#
# Convention : Reuss Voigt Hill
#
# Bulk Modulus (GPa) = 58.48987 65.36132 61.92560
# Shear Modulus (GPa) = 32.59128 34.96968 33.78048
#
# Velocity S-wave (km/s) = 3.62536 3.75532 3.69091
# Velocity P-wave (km/s) = 6.41185 6.72025 6.56786
#
# Compressibility (1/GPa) = 0.01709698
#
# Stress axis : x y z
#
# Youngs Moduli (GPa) = 64.12221 115.23771 86.96184
#
# Poissons Ratio (x) = 0.54731 0.19360
# Poissons Ratio (y) = 0.30454 0.20540
# Poissons Ratio (z) = 0.14276 0.27218
#
# Static dielectric constant tensor:
#      x y z
#    x 2.338460 0.000000 0.000000 
#    y 0.000000 1.975700 0.000000 
#    z 0.000000 0.000000 1.967850 
# 
# From -- ./inp_files/30676.got.cif
#   From: 2010.05.17/outbox.cif.g08.bks.cpg/sg68_16_cif.got.tgz:30676.got - 2010.06.03 18:57:09.
