data_PCOD9510330
_publ_section_title
;
Structure prediction by ZEFSAII (Michael W. Deem and Ramdas Pophale) SiO2 
 PCOD9510330
Probable space group: C C C A
;
_chemical_formula_sum "Si O2"
_cell_formula_units_Z 64
_cell_length_a 20.572436
_cell_length_b 16.489030
_cell_length_c 9.352137
_cell_angle_alpha 90.000000
_cell_angle_beta 90.000000
_cell_angle_gamma 90.000000
_cell_volume 3172.427372
_symmetry_space_group_name_H-M "C C C A"
_symmetry_group_IT_number 68
_space_group.IT_coordinate_system_code '2'
_symmetry_cell_setting 'orthorhombic'
loop_
_space_group_symop_operation_xyz
x,y,z
-x,1/2-y,z
x,1/2-y,1/2-z
-x,y,1/2-z
-x,-y,-z
x,1/2+y,-z
-x,1/2+y,1/2+z
x,-y,1/2+z
1/2+x,1/2+y,z
1/2-x,-y,z
1/2+x,-y,1/2-z
1/2-x,1/2+y,1/2-z
1/2-x,1/2-y,-z
1/2+x,y,-z
1/2-x,y,1/2+z
1/2+x,1/2-y,1/2+z
loop_
_atom_site_type_symbol
_atom_site_label
_atom_site_fract_x
_atom_site_fract_y
_atom_site_fract_z
Si Si1 0.500000 0.250000 0.019118
Si Si2 0.476974 0.423784 0.594041
Si Si3 0.823705 0.434446 0.420141
Si Si4 0.794838 0.901528 0.248699
Si Si5 0.111461 0.250000 0.750000
O O1 0.507412 0.164451 0.939129
O O2 0.436620 0.239109 0.117243
O O3 0.500000 0.447162 0.750000
O O4 0.500000 0.500000 0.500000
O O5 0.399388 0.413420 0.582984
O O6 0.817948 0.524473 0.352465
O O7 0.798355 0.426470 0.583706
O O8 0.777205 0.383485 0.312958
O O9 0.842926 0.827123 0.230305
#
# Coordination Sequence:
#
# PCOD9510330 Si02
#       5
#     8  16  16  16   8
#     4  11  25  46  68 100 144 178 236 292 352 424
#     4  12  26  45  73 104 137 184 235 293 357 425
#     4  11  23  43  67 102 133 184 228 286 351 418
#     4  11  23  43  69  98 139 178 232 287 346 426
#     4  11  24  44  70  98 135 186 230 292 355 410
#
# _framework density 20.173828
#
# number of rings (size 3 to 8) (size 9 to 14) (size 15 to 20)
#    0.000    0.750    2.500    6.375    3.500    3.000 
#    4.500    0.000    0.000    0.000    0.000    0.000 
#    0.000    0.000    0.000    0.000    0.000    0.000 
#
# Total GULP energy -178691.994166 kJ/mol
# GULP energy per Si atom -5584.124818 kJ/mol
# Density = 2.012791 g / cm^3
# Si number density = 20.173828 Si / 1000 Ang^3
#
#
#
# Elastic Constant Matrix: (Units=GPa)
#
#
# Indices 1 2 3 4 5 6 
#
# 1 130.0459 32.4855 35.7940 0.0000 0.0000 0.0000
# 2 32.4855 114.7338 50.5492 0.0000 0.0000 0.0000
# 3 35.7940 50.5492 163.1011 0.0000 0.0000 0.0000
# 4 0.0000 0.0000 0.0000 16.5807 0.0000 0.0000
# 5 0.0000 0.0000 0.0000 0.0000 18.4427 0.0000
# 6 0.0000 0.0000 0.0000 0.0000 0.0000 45.3877
#
#
#
# Elastic Compliance Matrix: (Units=1/GPa)
#
#
# Indices 1 2 3 4 5 6 
#
# 1 0.008505 -0.001837 -0.001297 0.000000 0.000000 0.000000
# 2 -0.001837 0.010491 -0.002848 0.000000 0.000000 0.000000
# 3 -0.001297 -0.002848 0.007299 0.000000 0.000000 0.000000
# 4 0.000000 0.000000 0.000000 0.060311 0.000000 0.000000
# 5 0.000000 0.000000 0.000000 0.000000 0.054222 0.000000
# 6 0.000000 0.000000 0.000000 0.000000 0.000000 0.022032
#
#
# Mechanical properties :
#
#
# Convention : Reuss Voigt Hill
#
# Bulk Modulus (GPa) = 69.78235 71.72647 70.75441
# Shear Modulus (GPa) = 27.83943 35.35238 31.59590
#
# Velocity S-wave (km/s) = 3.71883 4.19070 3.96180
# Velocity P-wave (km/s) = 7.28734 7.68422 7.48841
#
# Compressibility (1/GPa) = 0.01433027
#
# Stress axis : x y z
#
# Youngs Moduli (GPa) = 117.57132 95.32212 137.01171
#
# Poissons Ratio (x) = 0.17507 0.17776
# Poissons Ratio (y) = 0.21593 0.39025
# Poissons Ratio (z) = 0.15254 0.27150
#
# Static dielectric constant tensor:
#      x y z
#    x 1.596780 0.000000 0.000000 
#    y 0.000000 1.804410 0.000000 
#    z 0.000000 0.000000 1.602910 
# 
# From -- ./inp_files/7777.got.cif
#   From: 2010.05.17/outbox.cif.g08.bks.cpg/sg68_4_cif.got.tgz:7777.got - 2010.06.03 18:57:09.
