data_PCOD9510683
_publ_section_title
;
Structure prediction by ZEFSAII (Michael W. Deem and Ramdas Pophale) SiO2 
 PCOD9510683
Probable space group: C C C A
;
_chemical_formula_sum "Si O2"
_cell_formula_units_Z 72
_cell_length_a 20.295945
_cell_length_b 8.716057
_cell_length_c 19.008152
_cell_angle_alpha 90.000000
_cell_angle_beta 90.000000
_cell_angle_gamma 90.000000
_cell_volume 3362.553750
_symmetry_space_group_name_H-M "C C C A"
_symmetry_group_IT_number 68
_space_group.IT_coordinate_system_code '2'
_symmetry_cell_setting 'orthorhombic'
loop_
_space_group_symop_operation_xyz
x,y,z
-x,1/2-y,z
x,1/2-y,1/2-z
-x,y,1/2-z
-x,-y,-z
x,1/2+y,-z
-x,1/2+y,1/2+z
x,-y,1/2+z
1/2+x,1/2+y,z
1/2-x,-y,z
1/2+x,-y,1/2-z
1/2-x,1/2+y,1/2-z
1/2-x,1/2-y,-z
1/2+x,y,-z
1/2-x,y,1/2+z
1/2+x,1/2-y,1/2+z
loop_
_atom_site_type_symbol
_atom_site_label
_atom_site_fract_x
_atom_site_fract_y
_atom_site_fract_z
Si Si1 0.500000 0.750000 0.137966
Si Si2 0.078978 0.777852 0.077800
Si Si3 0.185702 0.103936 0.301336
Si Si4 0.112467 0.930171 0.935694
Si Si5 0.932296 0.523616 0.214348
O O1 0.457197 0.634327 0.092426
O O2 0.548476 0.642924 0.182455
O O3 0.112394 0.612202 0.072998
O O4 0.087196 0.862775 0.152058
O O5 0.000000 0.750000 0.067199
O O6 0.111294 0.880709 0.016592
O O7 0.193477 0.250000 0.250000
O O8 0.166354 0.140318 0.382337
O O9 0.250000 0.000000 0.299519
O O10 0.124471 0.005932 0.270343
O O11 0.000000 0.577225 0.250000
#
# Coordination Sequence:
#
# PCOD9510683 Si02
#       5
#     8  16  16  16  16
#     4  12  19  42  70 102 135 176 228 296 349 408
#     4  12  24  40  68 109 147 182 230 298 357 421
#     4  12  28  48  72 102 142 186 238 294 360 427
#     4  12  25  43  69 102 144 185 235 289 361 419
#     4  12  23  43  73 107 141 181 235 298 356 416
#
# _framework density 21.412299000000001
#
# number of rings (size 3 to 8) (size 9 to 14) (size 15 to 20)
#    0.000    0.000    7.778    2.333    3.111    2.222 
#    0.000    2.222    0.000    0.000    0.000    0.000 
#    0.000    0.000    0.000    0.000    0.000    0.000 
#
# Total GULP energy -201556.318544 kJ/mol
# GULP energy per Si atom -5598.786626 kJ/mol
# Density = 2.136356 g / cm^3
# Si number density = 21.412299 Si / 1000 Ang^3
#
#
#
# Elastic Constant Matrix: (Units=GPa)
#
#
# Indices 1 2 3 4 5 6 
#
# 1 73.7311 -3.5973 13.3047 0.0000 0.0000 0.0000
# 2 -3.5973 108.1399 38.9970 0.0000 0.0000 0.0000
# 3 13.3047 38.9970 126.3874 0.0000 0.0000 0.0000
# 4 0.0000 0.0000 0.0000 35.2254 0.0000 0.0000
# 5 0.0000 0.0000 0.0000 0.0000 4.4811 0.0000
# 6 0.0000 0.0000 0.0000 0.0000 0.0000 21.8608
#
#
#
# Elastic Compliance Matrix: (Units=1/GPa)
#
#
# Indices 1 2 3 4 5 6 
#
# 1 0.013944 0.001118 -0.001813 0.000000 0.000000 0.000000
# 2 0.001118 0.010495 -0.003356 0.000000 0.000000 0.000000
# 3 -0.001813 -0.003356 0.009138 0.000000 0.000000 0.000000
# 4 0.000000 0.000000 0.000000 0.028389 0.000000 0.000000
# 5 0.000000 0.000000 0.000000 0.000000 0.223159 0.000000
# 6 0.000000 0.000000 0.000000 0.000000 0.000000 0.045744
#
#
# Mechanical properties :
#
#
# Convention : Reuss Voigt Hill
#
# Bulk Modulus (GPa) = 39.25329 45.07413 42.16371
# Shear Modulus (GPa) = 14.39002 29.61706 22.00354
#
# Velocity S-wave (km/s) = 2.59519 3.72315 3.20912
# Velocity P-wave (km/s) = 5.22991 6.29116 5.78492
#
# Compressibility (1/GPa) = 0.02547557
#
# Stress axis : x y z
#
# Youngs Moduli (GPa) = 71.71324 95.28709 109.42790
#
# Poissons Ratio (x) = -0.10649 0.19837
# Poissons Ratio (y) = -0.08014 0.36721
# Poissons Ratio (z) = 0.13000 0.31976
#
# Static dielectric constant tensor:
#      x y z
#    x 1.745790 0.000000 0.000000 
#    y 0.000000 1.790930 0.000000 
#    z 0.000000 0.000000 1.807640 
# 
# From -- ./inp_files/40107.got.cif
#   From: 2010.05.17/outbox.cif.g08.bks.cpg/sg68_21_cif.got.tgz:40107.got - 2010.06.03 18:57:09.
