data_PCOD9510080
_publ_section_title
;
Structure prediction by ZEFSAII (Michael W. Deem and Ramdas Pophale) SiO2 
 PCOD9510080
Probable space group: C C C A
;
_chemical_formula_sum "Si O2"
_cell_formula_units_Z 64
_cell_length_a 11.966709
_cell_length_b 17.229978
_cell_length_c 14.182300
_cell_angle_alpha 90.000000
_cell_angle_beta 90.000000
_cell_angle_gamma 90.000000
_cell_volume 2924.193591
_symmetry_space_group_name_H-M "C C C A"
_symmetry_group_IT_number 68
_space_group.IT_coordinate_system_code '2'
_symmetry_cell_setting 'orthorhombic'
loop_
_space_group_symop_operation_xyz
x,y,z
-x,1/2-y,z
x,1/2-y,1/2-z
-x,y,1/2-z
-x,-y,-z
x,1/2+y,-z
-x,1/2+y,1/2+z
x,-y,1/2+z
1/2+x,1/2+y,z
1/2-x,-y,z
1/2+x,-y,1/2-z
1/2-x,1/2+y,1/2-z
1/2-x,1/2-y,-z
1/2+x,y,-z
1/2-x,y,1/2+z
1/2+x,1/2-y,1/2+z
loop_
_atom_site_type_symbol
_atom_site_label
_atom_site_fract_x
_atom_site_fract_y
_atom_site_fract_z
Si Si1 0.535939 0.665343 0.444504
Si Si2 0.756420 0.587551 0.843979
Si Si3 0.499535 0.622471 0.853238
Si Si4 0.094231 0.052677 0.173758
O O1 0.500000 0.750000 0.410880
O O2 0.649833 0.636809 0.396443
O O3 0.550016 0.664883 0.556968
O O4 0.438094 0.604017 0.416174
O O5 0.750000 0.500000 0.881886
O O6 0.632687 0.615388 0.864338
O O7 0.795300 0.576699 0.733272
O O8 0.500000 0.659121 0.750000
O O9 0.436189 0.537867 0.846684
O O10 0.000000 0.074623 0.250000
#
# Coordination Sequence:
#
# PCOD9510080 Si02
#       4
#    16  16  16  16
#     4  11  25  42  63  99 141 182 224 282 357 425
#     4  11  21  41  70 102 128 173 235 290 355 395
#     4  11  22  42  66  98 133 175 239 291 333 409
#     4   9  19  38  64  95 121 166 225 290 328 402
#
# _framework density 21.886375000000001
#
# number of rings (size 3 to 8) (size 9 to 14) (size 15 to 20)
#    0.000    1.500    7.500    0.750    0.000    8.000 
#    0.000    2.500    0.000    0.000    0.000    0.000 
#    0.000    0.000    0.000    0.000    0.000    0.000 
#
# Total GULP energy -178255.834025 kJ/mol
# GULP energy per Si atom -5570.494813 kJ/mol
# Density = 2.183656 g / cm^3
# Si number density = 21.886375 Si / 1000 Ang^3
#
#
#
# Elastic Constant Matrix: (Units=GPa)
#
#
# Indices 1 2 3 4 5 6 
#
# 1 119.0676 38.5199 28.9478 0.0000 0.0000 0.0000
# 2 38.5199 100.5689 30.4331 0.0000 0.0000 0.0000
# 3 28.9478 30.4331 89.9614 0.0000 0.0000 0.0000
# 4 0.0000 0.0000 0.0000 134.7447 0.0000 0.0000
# 5 0.0000 0.0000 0.0000 0.0000 25.4602 0.0000
# 6 0.0000 0.0000 0.0000 0.0000 0.0000 25.1336
#
#
#
# Elastic Compliance Matrix: (Units=1/GPa)
#
#
# Indices 1 2 3 4 5 6 
#
# 1 0.009939 -0.003163 -0.002128 0.000000 0.000000 0.000000
# 2 -0.003163 0.012084 -0.003070 0.000000 0.000000 0.000000
# 3 -0.002128 -0.003070 0.012839 0.000000 0.000000 0.000000
# 4 0.000000 0.000000 0.000000 0.007421 0.000000 0.000000
# 5 0.000000 0.000000 0.000000 0.000000 0.039277 0.000000
# 6 0.000000 0.000000 0.000000 0.000000 0.000000 0.039787
#
#
# Mechanical properties :
#
#
# Convention : Reuss Voigt Hill
#
# Bulk Modulus (GPa) = 55.12710 56.15551 55.64130
# Shear Modulus (GPa) = 34.69391 51.18084 42.93737
#
# Velocity S-wave (km/s) = 3.98575 4.84103 4.43406
# Velocity P-wave (km/s) = 6.81353 7.54724 7.18975
#
# Compressibility (1/GPa) = 0.01813990
#
# Stress axis : x y z
#
# Youngs Moduli (GPa) = 100.61118 82.75452 77.88581
#
# Poissons Ratio (x) = 0.26174 0.16576
# Poissons Ratio (y) = 0.31822 0.23912
# Poissons Ratio (z) = 0.21413 0.25407
#
# Static dielectric constant tensor:
#      x y z
#    x 1.803900 0.000000 0.000000 
#    y 0.000000 1.859410 0.000000 
#    z 0.000000 0.000000 1.890800 
# 
# From -- ./inp_files/20420.got.cif
#   From: 2010.05.17/outbox.cif.g08.bks.cpg/sg68_11_cif.got.tgz:20420.got - 2010.06.03 18:57:09.
