data_PCOD9510203
_publ_section_title
;
Structure prediction by ZEFSAII (Michael W. Deem and Ramdas Pophale) SiO2 
 PCOD9510203
Probable space group: C C C A
;
_chemical_formula_sum "Si O2"
_cell_formula_units_Z 72
_cell_length_a 26.504332
_cell_length_b 9.000305
_cell_length_c 14.589937
_cell_angle_alpha 90.000000
_cell_angle_beta 90.000000
_cell_angle_gamma 90.000000
_cell_volume 3480.386749
_symmetry_space_group_name_H-M "C C C A"
_symmetry_group_IT_number 68
_space_group.IT_coordinate_system_code '2'
_symmetry_cell_setting 'orthorhombic'
loop_
_space_group_symop_operation_xyz
x,y,z
-x,1/2-y,z
x,1/2-y,1/2-z
-x,y,1/2-z
-x,-y,-z
x,1/2+y,-z
-x,1/2+y,1/2+z
x,-y,1/2+z
1/2+x,1/2+y,z
1/2-x,-y,z
1/2+x,-y,1/2-z
1/2-x,1/2+y,1/2-z
1/2-x,1/2-y,-z
1/2+x,y,-z
1/2-x,y,1/2+z
1/2+x,1/2-y,1/2+z
loop_
_atom_site_type_symbol
_atom_site_label
_atom_site_fract_x
_atom_site_fract_y
_atom_site_fract_z
Si Si1 0.700862 0.907317 0.934661
Si Si2 0.181621 0.750000 0.250000
Si Si3 0.634701 0.816108 0.474676
Si Si4 0.586228 0.361634 0.328168
Si Si5 0.050505 0.682258 0.649558
O O1 0.708280 0.825741 0.836308
O O2 0.750000 0.000000 0.958781
O O3 0.653554 0.023176 0.940170
O O4 0.684461 0.779740 0.004608
O O5 0.143094 0.878422 0.286570
O O6 0.601444 0.813734 0.568695
O O7 0.599933 0.735236 0.402097
O O8 0.564522 0.250000 0.250000
O O9 0.552335 0.505767 0.339386
O O10 0.052566 0.750000 0.750000
O O11 0.000000 0.750000 0.604568
#
# Coordination Sequence:
#
# PCOD9510203 Si02
#       5
#    16   8  16  16  16
#     4  11  22  42  66 100 134 183 230 282 342 408
#     4   8  20  40  64  93 138 174 229 274 348 390
#     4  11  22  43  70  94 138 176 226 287 341 402
#     4   9  20  42  67  91 133 177 218 279 347 402
#     4  11  24  41  66  99 130 173 229 277 345 417
#
# _framework density 20.687355
#
# number of rings (size 3 to 8) (size 9 to 14) (size 15 to 20)
#    0.667    1.111    2.222    2.000    0.000    0.889 
#    6.000    4.444    2.444    0.000    0.000    0.000 
#    0.000    0.000    0.000    0.000    0.000    0.000 
#
# Total GULP energy -200420.952361 kJ/mol
# GULP energy per Si atom -5567.248677 kJ/mol
# Density = 2.064027 g / cm^3
# Si number density = 20.687355 Si / 1000 Ang^3
#
#
#
# Elastic Constant Matrix: (Units=GPa)
#
#
# Indices 1 2 3 4 5 6 
#
# 1 66.8667 43.0706 29.5331 0.0000 0.0000 0.0000
# 2 43.0706 126.3803 25.3808 0.0000 0.0000 0.0000
# 3 29.5331 25.3808 85.2963 0.0000 0.0000 0.0000
# 4 0.0000 0.0000 0.0000 18.6682 0.0000 0.0000
# 5 0.0000 0.0000 0.0000 0.0000 9.5183 0.0000
# 6 0.0000 0.0000 0.0000 0.0000 0.0000 46.7277
#
#
#
# Elastic Compliance Matrix: (Units=1/GPa)
#
#
# Indices 1 2 3 4 5 6 
#
# 1 0.021390 -0.006171 -0.005570 0.000000 0.000000 0.000000
# 2 -0.006171 0.010196 -0.000897 0.000000 0.000000 0.000000
# 3 -0.005570 -0.000897 0.013919 0.000000 0.000000 0.000000
# 4 0.000000 0.000000 0.000000 0.053567 0.000000 0.000000
# 5 0.000000 0.000000 0.000000 0.000000 0.105061 0.000000
# 6 0.000000 0.000000 0.000000 0.000000 0.000000 0.021401
#
#
# Mechanical properties :
#
#
# Convention : Reuss Voigt Hill
#
# Bulk Modulus (GPa) = 49.43410 52.72362 51.07886
# Shear Modulus (GPa) = 19.41346 27.02009 23.21678
#
# Velocity S-wave (km/s) = 3.06669 3.61794 3.35366
# Velocity P-wave (km/s) = 6.04046 6.55698 6.30401
#
# Compressibility (1/GPa) = 0.02022895
#
# Stress axis : x y z
#
# Youngs Moduli (GPa) = 46.75035 98.07797 71.84259
#
# Poissons Ratio (x) = 0.60526 0.40015
# Poissons Ratio (y) = 0.28851 0.06446
# Poissons Ratio (z) = 0.26039 0.08799
#
# Static dielectric constant tensor:
#      x y z
#    x 1.799270 0.000000 0.000000 
#    y 0.000000 1.780160 0.000000 
#    z 0.000000 0.000000 2.011610 
# 
# From -- ./inp_files/25817.got.cif
#   From: 2010.05.17/outbox.cif.g08.bks.cpg/sg68_13_cif.got.tgz:25817.got - 2010.06.03 18:57:09.
