data_PCOD9510586
_publ_section_title
;
Structure prediction by ZEFSAII (Michael W. Deem and Ramdas Pophale) SiO2 
 PCOD9510586
Probable space group: C C C A
;
_chemical_formula_sum "Si O2"
_cell_formula_units_Z 40
_cell_length_a 11.415074
_cell_length_b 29.930939
_cell_length_c 5.047543
_cell_angle_alpha 90.000000
_cell_angle_beta 90.000000
_cell_angle_gamma 90.000000
_cell_volume 1724.563144
_symmetry_space_group_name_H-M "C C C A"
_symmetry_group_IT_number 68
_space_group.IT_coordinate_system_code '2'
_symmetry_cell_setting 'orthorhombic'
loop_
_space_group_symop_operation_xyz
x,y,z
-x,1/2-y,z
x,1/2-y,1/2-z
-x,y,1/2-z
-x,-y,-z
x,1/2+y,-z
-x,1/2+y,1/2+z
x,-y,1/2+z
1/2+x,1/2+y,z
1/2-x,-y,z
1/2+x,-y,1/2-z
1/2-x,1/2+y,1/2-z
1/2-x,1/2-y,-z
1/2+x,y,-z
1/2-x,y,1/2+z
1/2+x,1/2-y,1/2+z
loop_
_atom_site_type_symbol
_atom_site_label
_atom_site_fract_x
_atom_site_fract_y
_atom_site_fract_z
Si Si1 0.165747 0.113751 0.631787
Si Si2 0.500000 0.668328 0.250000
Si Si3 0.500000 0.032472 0.250000
Si Si4 0.670054 0.750000 0.250000
O O1 0.268206 0.122142 0.411917
O O2 0.054918 0.139399 0.490674
O O3 0.110712 0.064894 0.690103
O O4 0.599563 0.704772 0.196685
O O5 0.500000 0.000000 0.500000
O O6 0.750000 0.750000 0.500000
#
# Coordination Sequence:
#
# PCOD9510586 Si02
#       4
#    16   8   8   8
#     4  12  26  45  73 106 146 195 247 308 377 448
#     4  11  25  46  73 108 152 196 251 310 371 447
#     4  12  27  48  73 107 146 189 249 314 377 454
#     4  11  26  45  72 106 148 199 252 309 370 442
#
# _framework density 23.194281
#
# number of rings (size 3 to 8) (size 9 to 14) (size 15 to 20)
#    0.000    0.400    0.000    8.400    0.000   14.400 
#    0.000    0.000    0.000    0.000    0.000    0.000 
#    0.000    0.000    0.000    0.000    0.000    0.000 
#
# Total GULP energy -111416.809504 kJ/mol
# GULP energy per Si atom -5570.840475 kJ/mol
# Density = 2.314149 g / cm^3
# Si number density = 23.194281 Si / 1000 Ang^3
#
#
#
# Elastic Constant Matrix: (Units=GPa)
#
#
# Indices 1 2 3 4 5 6 
#
# 1 118.2310 68.0237 75.1228 0.0000 0.0000 0.0000
# 2 68.0237 157.5464 70.2358 0.0000 0.0000 0.0000
# 3 75.1228 70.2358 209.1390 0.0000 0.0000 0.0000
# 4 0.0000 0.0000 0.0000 31.7358 0.0000 0.0000
# 5 0.0000 0.0000 0.0000 0.0000 38.4941 0.0000
# 6 0.0000 0.0000 0.0000 0.0000 0.0000 33.0293
#
#
#
# Elastic Compliance Matrix: (Units=1/GPa)
#
#
# Indices 1 2 3 4 5 6 
#
# 1 0.012891 -0.004118 -0.003247 0.000000 0.000000 0.000000
# 2 -0.004118 0.008781 -0.001470 0.000000 0.000000 0.000000
# 3 -0.003247 -0.001470 0.006441 0.000000 0.000000 0.000000
# 4 0.000000 0.000000 0.000000 0.031510 0.000000 0.000000
# 5 0.000000 0.000000 0.000000 0.000000 0.025978 0.000000
# 6 0.000000 0.000000 0.000000 0.000000 0.000000 0.030276
#
#
# Mechanical properties :
#
#
# Convention : Reuss Voigt Hill
#
# Bulk Modulus (GPa) = 95.76081 101.29788 98.52935
# Shear Modulus (GPa) = 36.48892 38.75413 37.62152
#
# Velocity S-wave (km/s) = 3.97064 4.09204 4.03180
# Velocity P-wave (km/s) = 7.89920 8.12987 8.01537
#
# Compressibility (1/GPa) = 0.01044269
#
# Stress axis : x y z
#
# Youngs Moduli (GPa) = 77.57542 113.88795 155.24360
#
# Poissons Ratio (x) = 0.46900 0.50413
# Poissons Ratio (y) = 0.31946 0.22814
# Poissons Ratio (z) = 0.25191 0.16737
#
# Static dielectric constant tensor:
#      x y z
#    x 1.937560 0.000000 0.000000 
#    y 0.000000 1.876340 0.000000 
#    z 0.000000 0.000000 1.904210 
# 
# From -- ./inp_files/293.got.cif
#   From: 2010.05.17/outbox.cif.g08.bks.cpg/sg68_1_cif.got.tgz:293.got - 2010.06.03 18:57:09.
