data_PCOD9510209
_publ_section_title
;
Structure prediction by ZEFSAII (Michael W. Deem and Ramdas Pophale) SiO2 
 PCOD9510209
Probable space group: C C C A
;
_chemical_formula_sum "Si O2"
_cell_formula_units_Z 60
_cell_length_a 12.089642
_cell_length_b 9.699149
_cell_length_c 22.288686
_cell_angle_alpha 90.000000
_cell_angle_beta 90.000000
_cell_angle_gamma 90.000000
_cell_volume 2613.554361
_symmetry_space_group_name_H-M "C C C A"
_symmetry_group_IT_number 68
_space_group.IT_coordinate_system_code '2'
_symmetry_cell_setting 'orthorhombic'
loop_
_space_group_symop_operation_xyz
x,y,z
-x,1/2-y,z
x,1/2-y,1/2-z
-x,y,1/2-z
-x,-y,-z
x,1/2+y,-z
-x,1/2+y,1/2+z
x,-y,1/2+z
1/2+x,1/2+y,z
1/2-x,-y,z
1/2+x,-y,1/2-z
1/2-x,1/2+y,1/2-z
1/2-x,1/2-y,-z
1/2+x,y,-z
1/2-x,y,1/2+z
1/2+x,1/2-y,1/2+z
loop_
_atom_site_type_symbol
_atom_site_label
_atom_site_fract_x
_atom_site_fract_y
_atom_site_fract_z
Si Si1 0.109342 0.155505 0.051619
Si Si2 0.879782 0.482885 0.174821
Si Si3 0.691265 0.634725 0.921481
Si Si4 0.000000 0.250000 0.250000
Si Si5 0.500000 0.750000 0.837307
O O1 0.099155 0.042246 0.103631
O O2 0.214416 0.250546 0.068871
O O3 0.000000 0.250000 0.049347
O O4 0.136853 0.097549 0.985876
O O5 0.750000 0.500000 0.184803
O O6 0.942477 0.620770 0.194350
O O7 0.926331 0.349483 0.208659
O O8 0.750000 0.500000 0.895901
O O9 0.597364 0.689378 0.878440
#
# Coordination Sequence:
#
# PCOD9510209 Si02
#       5
#    16  16  16   4   8
#     4  11  22  42  69 104 154 194 240 287 353 434
#     4  12  27  51  76 105 141 189 242 308 364 426
#     4  11  24  38  68 112 153 196 231 284 353 443
#     4  12  32  52  76 102 136 184 248 320 366 416
#     4  12  26  44  76 108 144 190 240 290 360 440
#
# _framework density 22.957241
#
# number of rings (size 3 to 8) (size 9 to 14) (size 15 to 20)
#    0.000    0.533    5.333    2.400    3.733    4.800 
#    0.000    0.000    0.000    0.000    0.000    0.000 
#    0.000    0.000    0.000    0.000    0.000    0.000 
#
# Total GULP energy -168210.879409 kJ/mol
# GULP energy per Si atom -5607.029314 kJ/mol
# Density = 2.290499 g / cm^3
# Si number density = 22.957241 Si / 1000 Ang^3
#
#
#
# Elastic Constant Matrix: (Units=GPa)
#
#
# Indices 1 2 3 4 5 6 
#
# 1 185.3795 68.9179 48.0343 0.0000 0.0000 0.0000
# 2 68.9179 146.0937 40.4516 0.0000 0.0000 0.0000
# 3 48.0343 40.4516 74.0281 0.0000 0.0000 0.0000
# 4 0.0000 0.0000 0.0000 -12.8373 0.0000 0.0000
# 5 0.0000 0.0000 0.0000 0.0000 -15.7284 0.0000
# 6 0.0000 0.0000 0.0000 0.0000 0.0000 50.0540
#
#
#
# Elastic Compliance Matrix: (Units=1/GPa)
#
#
# Indices 1 2 3 4 5 6 
#
# 1 0.007167 -0.002467 -0.003303 0.000000 0.000000 0.000000
# 2 -0.002467 0.008914 -0.003271 0.000000 0.000000 0.000000
# 3 -0.003303 -0.003271 0.017439 0.000000 0.000000 0.000000
# 4 0.000000 0.000000 0.000000 -0.077898 0.000000 0.000000
# 5 0.000000 0.000000 0.000000 0.000000 -0.063579 0.000000
# 6 0.000000 0.000000 0.000000 0.000000 0.000000 0.019978
#
#
# Mechanical properties :
#
#
# Convention : Reuss Voigt Hill
#
# Bulk Modulus (GPa) = 64.76599 80.03434 72.40017
# Shear Modulus (GPa) = -77.21644 20.83749 -28.18947
#
# Velocity S-wave (km/s) = -5.80585 3.01602 -3.50796
# Velocity P-wave (km/s) = 4.08302 6.86050 3.89843
#
# Compressibility (1/GPa) = 0.01544020
#
# Stress axis : x y z
#
# Youngs Moduli (GPa) = 139.52697 112.18266 57.34438
#
# Poissons Ratio (x) = 0.27670 0.18939
# Poissons Ratio (y) = 0.34414 0.18755
# Poissons Ratio (z) = 0.46081 0.36690
#
# Static dielectric constant tensor:
#      x y z
#    x 1.793790 0.000000 0.000000 
#    y 0.000000 1.864040 0.000000 
#    z 0.000000 0.000000 1.868470 
# 
# From -- ./inp_files/48757.got.cif
#   From: 2010.05.17/outbox.cif.g08.bks.cpg/sg68_25_cif.got.tgz:48757.got - 2010.06.03 18:57:09.
