data_PCOD9510166
_publ_section_title
;
Structure prediction by ZEFSAII (Michael W. Deem and Ramdas Pophale) SiO2 
 PCOD9510166
Probable space group: C C C A
;
_chemical_formula_sum "Si O2"
_cell_formula_units_Z 68
_cell_length_a 21.157629
_cell_length_b 14.966476
_cell_length_c 9.252141
_cell_angle_alpha 90.000000
_cell_angle_beta 90.000000
_cell_angle_gamma 90.000000
_cell_volume 2929.738065
_symmetry_space_group_name_H-M "C C C A"
_symmetry_group_IT_number 68
_space_group.IT_coordinate_system_code '2'
_symmetry_cell_setting 'orthorhombic'
loop_
_space_group_symop_operation_xyz
x,y,z
-x,1/2-y,z
x,1/2-y,1/2-z
-x,y,1/2-z
-x,-y,-z
x,1/2+y,-z
-x,1/2+y,1/2+z
x,-y,1/2+z
1/2+x,1/2+y,z
1/2-x,-y,z
1/2+x,-y,1/2-z
1/2-x,1/2+y,1/2-z
1/2-x,1/2-y,-z
1/2+x,y,-z
1/2-x,y,1/2+z
1/2+x,1/2-y,1/2+z
loop_
_atom_site_type_symbol
_atom_site_label
_atom_site_fract_x
_atom_site_fract_y
_atom_site_fract_z
Si Si1 0.777915 0.096264 0.250419
Si Si2 0.927979 0.359907 0.742459
Si Si3 0.323176 0.156676 0.450239
Si Si4 0.388842 0.163637 0.934108
Si Si5 0.000000 0.750000 0.750000
O O1 0.727690 0.163622 0.177925
O O2 0.787965 0.107686 0.420070
O O3 0.845046 0.110675 0.175205
O O4 0.750000 0.000000 0.218802
O O5 0.927637 0.250000 0.750000
O O6 0.883825 0.388891 0.874432
O O7 0.901309 0.384839 0.585767
O O8 0.000000 0.389569 0.750000
O O9 0.349687 0.247523 0.520388
O O10 0.453381 0.193440 0.854292
#
# Coordination Sequence:
#
# PCOD9510166 Si02
#       5
#    16  16  16  16   4
#     4  12  25  41  64  96 142 188 234 288 353 426
#     4   9  19  36  64  98 137 173 223 291 355 410
#     4  11  22  42  64 100 137 184 241 288 351 417
#     4  11  22  39  69 106 138 181 232 296 352 417
#     4  12  20  40  74 112 140 172 242 296 348 416
#
# _framework density 23.210267999999999
#
# number of rings (size 3 to 8) (size 9 to 14) (size 15 to 20)
#    0.000    1.176    2.353    5.647    0.000    3.765 
#    0.000    1.176    2.588    4.235    0.000    0.000 
#    0.000    0.000    0.000    0.000    0.000    0.000 
#
# Total GULP energy -190315.445642 kJ/mol
# GULP energy per Si atom -5597.513107 kJ/mol
# Density = 2.315744 g / cm^3
# Si number density = 23.210268 Si / 1000 Ang^3
#
#
#
# Elastic Constant Matrix: (Units=GPa)
#
#
# Indices 1 2 3 4 5 6 
#
# 1 163.3217 38.1521 69.8354 0.0000 0.0000 0.0000
# 2 38.1521 57.3264 38.2852 0.0000 0.0000 0.0000
# 3 69.8354 38.2852 169.9117 0.0000 0.0000 0.0000
# 4 0.0000 0.0000 0.0000 6.2237 0.0000 0.0000
# 5 0.0000 0.0000 0.0000 0.0000 46.6227 0.0000
# 6 0.0000 0.0000 0.0000 0.0000 0.0000 105.4235
#
#
#
# Elastic Compliance Matrix: (Units=1/GPa)
#
#
# Indices 1 2 3 4 5 6 
#
# 1 0.008045 -0.003703 -0.002472 0.000000 0.000000 0.000000
# 2 -0.003703 0.022239 -0.003489 0.000000 0.000000 0.000000
# 3 -0.002472 -0.003489 0.007688 0.000000 0.000000 0.000000
# 4 0.000000 0.000000 0.000000 0.160677 0.000000 0.000000
# 5 0.000000 0.000000 0.000000 0.000000 0.021449 0.000000
# 6 0.000000 0.000000 0.000000 0.000000 0.000000 0.009486
#
#
# Mechanical properties :
#
#
# Convention : Reuss Voigt Hill
#
# Bulk Modulus (GPa) = 53.63990 75.90058 64.77024
# Shear Modulus (GPa) = 19.59820 47.93977 33.76899
#
# Velocity S-wave (km/s) = 2.90897 4.54966 3.81847
# Velocity P-wave (km/s) = 5.86885 7.76991 6.88531
#
# Compressibility (1/GPa) = 0.01864284
#
# Stress axis : x y z
#
# Youngs Moduli (GPa) = 124.30034 44.96705 130.07921
#
# Poissons Ratio (x) = 0.16652 0.32158
# Poissons Ratio (y) = 0.46030 0.45383
# Poissons Ratio (z) = 0.30729 0.15688
#
# Static dielectric constant tensor:
#      x y z
#    x 1.864130 0.000000 0.000000 
#    y 0.000000 1.932350 0.000000 
#    z 0.000000 0.000000 1.873600 
# 
# From -- ./inp_files/5966.got.cif
#   From: 2010.05.17/outbox.cif.g08.bks.cpg/sg68_3_cif.got.tgz:5966.got - 2010.06.03 18:57:09.
