data_PCOD9510041
_publ_section_title
;
Structure prediction by ZEFSAII (Michael W. Deem and Ramdas Pophale) SiO2 
 PCOD9510041
Probable space group: C C C A
;
_chemical_formula_sum "Si O2"
_cell_formula_units_Z 88
_cell_length_a 25.333678
_cell_length_b 5.773379
_cell_length_c 28.106949
_cell_angle_alpha 90.000000
_cell_angle_beta 90.000000
_cell_angle_gamma 90.000000
_cell_volume 4110.948347
_symmetry_space_group_name_H-M "C C C A"
_symmetry_group_IT_number 68
_space_group.IT_coordinate_system_code '2'
_symmetry_cell_setting 'orthorhombic'
loop_
_space_group_symop_operation_xyz
x,y,z
-x,1/2-y,z
x,1/2-y,1/2-z
-x,y,1/2-z
-x,-y,-z
x,1/2+y,-z
-x,1/2+y,1/2+z
x,-y,1/2+z
1/2+x,1/2+y,z
1/2-x,-y,z
1/2+x,-y,1/2-z
1/2-x,1/2+y,1/2-z
1/2-x,1/2-y,-z
1/2+x,y,-z
1/2-x,y,1/2+z
1/2+x,1/2-y,1/2+z
loop_
_atom_site_type_symbol
_atom_site_label
_atom_site_fract_x
_atom_site_fract_y
_atom_site_fract_z
Si Si1 0.000000 0.250000 0.040960
Si Si2 0.405370 0.696769 0.303336
Si Si3 0.113140 0.906715 0.977058
Si Si4 0.696670 0.139407 0.302905
Si Si5 0.136967 0.571392 0.125307
Si Si6 0.452870 0.074042 0.118788
O O1 0.951980 0.095327 0.019459
O O2 0.964826 0.403738 0.076412
O O3 0.420192 0.750000 0.250000
O O4 0.352402 0.539237 0.302541
O O5 0.448955 0.555750 0.331584
O O6 0.393234 0.922030 0.334747
O O7 0.137008 0.923892 0.923314
O O8 0.128943 0.655418 0.999062
O O9 0.698937 0.250000 0.250000
O O10 0.686268 0.325687 0.345092
O O11 0.750000 0.000000 0.311490
O O12 0.101251 0.790452 0.110950
O O13 0.500000 0.250000 0.119699
#
# Coordination Sequence:
#
# PCOD9510041 Si02
#       6
#     8  16  16  16  16  16
#     4  12  22  40  63  96 130 180 241 312 348 386
#     4  11  22  41  65  90 134 179 224 274 345 431
#     4  12  26  42  68 100 135 187 247 299 356 411
#     4  11  24  41  72 107 133 165 218 283 354 429
#     4  11  24  42  64  95 139 179 219 287 350 411
#     4  11  21  38  62  87 136 183 229 279 340 409
#
# _framework density 21.406251000000001
#
# number of rings (size 3 to 8) (size 9 to 14) (size 15 to 20)
#    0.000    0.727    5.455    2.182    2.545    0.000 
#    0.000    6.818    0.000    1.091    0.000    0.000 
#    0.000    0.000    0.000    0.000    0.000    0.000 
#
# Total GULP energy -245767.942007 kJ/mol
# GULP energy per Si atom -5585.635046 kJ/mol
# Density = 2.135753 g / cm^3
# Si number density = 21.406251 Si / 1000 Ang^3
#
#
#
# Elastic Constant Matrix: (Units=GPa)
#
#
# Indices 1 2 3 4 5 6 
#
# 1 29.7043 4.8220 20.8814 0.0000 0.0000 0.0000
# 2 4.8220 103.3657 61.3608 0.0000 0.0000 0.0000
# 3 20.8814 61.3608 170.1841 0.0000 0.0000 0.0000
# 4 0.0000 0.0000 0.0000 41.5437 0.0000 0.0000
# 5 0.0000 0.0000 0.0000 0.0000 9.6652 0.0000
# 6 0.0000 0.0000 0.0000 0.0000 0.0000 31.7907
#
#
#
# Elastic Compliance Matrix: (Units=1/GPa)
#
#
# Indices 1 2 3 4 5 6 
#
# 1 0.036966 0.001232 -0.004980 0.000000 0.000000 0.000000
# 2 0.001232 0.012350 -0.004604 0.000000 0.000000 0.000000
# 3 -0.004980 -0.004604 0.008147 0.000000 0.000000 0.000000
# 4 0.000000 0.000000 0.000000 0.024071 0.000000 0.000000
# 5 0.000000 0.000000 0.000000 0.000000 0.103464 0.000000
# 6 0.000000 0.000000 0.000000 0.000000 0.000000 0.031456
#
#
# Mechanical properties :
#
#
# Convention : Reuss Voigt Hill
#
# Bulk Modulus (GPa) = 24.53464 53.04250 38.78857
# Shear Modulus (GPa) = 20.26391 31.01258 25.63825
#
# Velocity S-wave (km/s) = 3.08008 3.81039 3.46453
# Velocity P-wave (km/s) = 4.91279 6.64767 5.84496
#
# Compressibility (1/GPa) = 0.04075871
#
# Stress axis : x y z
#
# Youngs Moduli (GPa) = 27.05197 80.97175 122.74476
#
# Poissons Ratio (x) = -0.09973 0.61124
# Poissons Ratio (y) = -0.03332 0.56511
# Poissons Ratio (z) = 0.13471 0.37279
#
# Static dielectric constant tensor:
#      x y z
#    x 1.739030 0.000000 0.000000 
#    y 0.000000 1.855650 0.000000 
#    z 0.000000 0.000000 1.826950 
# 
# From -- ./inp_files/52452.got.cif
#   From: 2010.05.17/outbox.cif.g08.bks.cpg/sg68_27_cif.got.tgz:52452.got - 2010.06.03 18:57:09.
