data_PCOD9510013
_publ_section_title
;
Structure prediction by ZEFSAII (Michael W. Deem and Ramdas Pophale) SiO2 
 PCOD9510013
Probable space group: C C C A
;
_chemical_formula_sum "Si O2"
_cell_formula_units_Z 80
_cell_length_a 27.079088
_cell_length_b 15.133619
_cell_length_c 7.159842
_cell_angle_alpha 90.000000
_cell_angle_beta 90.000000
_cell_angle_gamma 90.000000
_cell_volume 2934.136192
_symmetry_space_group_name_H-M "C C C A"
_symmetry_group_IT_number 68
_space_group.IT_coordinate_system_code '2'
_symmetry_cell_setting 'orthorhombic'
loop_
_space_group_symop_operation_xyz
x,y,z
-x,1/2-y,z
x,1/2-y,1/2-z
-x,y,1/2-z
-x,-y,-z
x,1/2+y,-z
-x,1/2+y,1/2+z
x,-y,1/2+z
1/2+x,1/2+y,z
1/2-x,-y,z
1/2+x,-y,1/2-z
1/2-x,1/2+y,1/2-z
1/2-x,1/2-y,-z
1/2+x,y,-z
1/2-x,y,1/2+z
1/2+x,1/2-y,1/2+z
loop_
_atom_site_type_symbol
_atom_site_label
_atom_site_fract_x
_atom_site_fract_y
_atom_site_fract_z
Si Si1 0.195398 0.183934 0.425555
Si Si2 0.388866 0.918957 0.077507
Si Si3 0.098390 0.125042 0.515082
Si Si4 0.506506 0.393953 0.529085
Si Si5 0.718362 0.412480 0.589607
O O1 0.188035 0.250000 0.250000
O O2 0.146717 0.183584 0.552810
O O3 0.244645 0.168300 0.546816
O O4 0.201105 0.093617 0.303646
O O5 0.397013 0.882936 0.287688
O O6 0.436649 0.879140 0.972678
O O7 0.334675 0.903042 0.990257
O O8 0.393599 0.025356 0.088814
O O9 0.041945 0.150962 0.558878
O O10 0.500000 0.376694 0.750000
O O11 0.500000 0.500000 0.500000
O O12 0.750000 0.500000 0.575474
#
# Coordination Sequence:
#
# PCOD9510013 Si02
#       5
#    16  16  16  16  16
#     4  11  23  36  51  77 111 146 180 223 279 330
#     4   9  17  28  49  75  98 129 173 224 260 305
#     4   9  17  30  49  72 102 132 169 214 270 316
#     4   8  14  26  44  70  99 124 159 213 266 301
#     4  11  21  35  55  76 104 141 188 226 266 322
#
# _framework density 27.265264999999999
#
# number of rings (size 3 to 8) (size 9 to 14) (size 15 to 20)
#    0.000    2.400    2.000    1.200    2.800    0.000 
#    0.000    0.000    0.000   15.000    0.000    0.000 
#    0.000    1.600    0.000    0.000    0.000    0.000 
#
# Total GULP energy -222890.042347 kJ/mol
# GULP energy per Si atom -5572.251059 kJ/mol
# Density = 2.720321 g / cm^3
# Si number density = 27.265265 Si / 1000 Ang^3
#
#
#
# Elastic Constant Matrix: (Units=GPa)
#
#
# Indices 1 2 3 4 5 6 
#
# 1 267.4653 24.9340 8.5867 0.0000 0.0000 0.0000
# 2 24.9340 62.8947 -2.4430 0.0000 0.0000 0.0000
# 3 8.5867 -2.4430 61.0204 0.0000 0.0000 0.0000
# 4 0.0000 0.0000 0.0000 17.2938 0.0000 0.0000
# 5 0.0000 0.0000 0.0000 0.0000 18.7482 0.0000
# 6 0.0000 0.0000 0.0000 0.0000 0.0000 -31.1984
#
#
#
# Elastic Compliance Matrix: (Units=1/GPa)
#
#
# Indices 1 2 3 4 5 6 
#
# 1 0.003905 -0.001572 -0.000612 0.000000 0.000000 0.000000
# 2 -0.001572 0.016557 0.000884 0.000000 0.000000 0.000000
# 3 -0.000612 0.000884 0.016510 0.000000 0.000000 0.000000
# 4 0.000000 0.000000 0.000000 0.057824 0.000000 0.000000
# 5 0.000000 0.000000 0.000000 0.000000 0.053338 0.000000
# 6 0.000000 0.000000 0.000000 0.000000 0.000000 -0.032053
#
#
# Mechanical properties :
#
#
# Convention : Reuss Voigt Hill
#
# Bulk Modulus (GPa) = 29.09418 50.39286 39.74352
# Shear Modulus (GPa) = 38.42049 24.98891 31.70470
#
# Velocity S-wave (km/s) = 3.75792 3.03068 3.41372
# Velocity P-wave (km/s) = 5.43353 5.54700 5.49056
#
# Compressibility (1/GPa) = 0.03437113
#
# Stress axis : x y z
#
# Youngs Moduli (GPa) = 256.08187 60.39710 60.57105
#
# Poissons Ratio (x) = 0.09494 0.03710
# Poissons Ratio (y) = 0.40253 -0.05355
# Poissons Ratio (z) = 0.15683 -0.05340
#
# Static dielectric constant tensor:
#      x y z
#    x 2.412180 0.000000 0.000000 
#    y 0.000000 2.293120 0.000000 
#    z 0.000000 0.000000 2.316390 
# 
# From -- ./inp_files/8750.got.cif
#   From: 2010.05.17/outbox.cif.g08.bks.cpg/sg68_5_cif.got.tgz:8750.got - 2010.06.03 18:57:09.
