data_PCOD9510982
_publ_section_title
;
Structure prediction by ZEFSAII (Michael W. Deem and Ramdas Pophale) SiO2 
 PCOD9510982
Probable space group: F M M M
;
_chemical_formula_sum "Si O2"
_cell_formula_units_Z 144
_cell_length_a 19.002513
_cell_length_b 19.633053
_cell_length_c 23.805478
_cell_angle_alpha 90.000000
_cell_angle_beta 90.000000
_cell_angle_gamma 90.000000
_cell_volume 8881.284525
_symmetry_space_group_name_H-M "F M M M"
_symmetry_group_IT_number 69
_symmetry_cell_setting 'orthorhombic'
loop_
_space_group_symop_operation_xyz
x,y,z
-x,-y,z
x,-y,-z
-x,y,-z
-x,-y,-z
x,y,-z
-x,y,z
x,-y,z
x,1/2+y,1/2+z
-x,1/2-y,1/2+z
x,1/2-y,1/2-z
-x,1/2+y,1/2-z
-x,1/2-y,1/2-z
x,1/2+y,1/2-z
-x,1/2+y,1/2+z
x,1/2-y,1/2+z
1/2+x,y,1/2+z
1/2-x,-y,1/2+z
1/2+x,-y,1/2-z
1/2-x,y,1/2-z
1/2-x,-y,1/2-z
1/2+x,y,1/2-z
1/2-x,y,1/2+z
1/2+x,-y,1/2+z
1/2+x,1/2+y,z
1/2-x,1/2-y,z
1/2+x,1/2-y,-z
1/2-x,1/2+y,-z
1/2-x,1/2-y,-z
1/2+x,1/2+y,-z
1/2-x,1/2+y,z
1/2+x,1/2-y,z
loop_
_atom_site_type_symbol
_atom_site_label
_atom_site_fract_x
_atom_site_fract_y
_atom_site_fract_z
Si Si1 0.848809 0.865687 0.650680
Si Si2 0.250000 0.858895 0.250000
Si Si3 0.857909 0.297606 0.337558
Si Si4 0.766172 0.168697 0.063713
Si Si5 0.000000 0.580169 0.827933
Si Si6 0.000000 0.175910 0.220738
O O1 0.805621 0.892885 0.705781
O O2 0.861163 0.784332 0.659431
O O3 0.797103 0.868564 0.596941
O O4 0.925693 0.898322 0.643744
O O5 0.201349 0.816125 0.207943
O O6 0.833602 0.331638 0.395709
O O7 0.930722 0.326972 0.316355
O O8 0.750000 0.250000 0.061898
O O9 0.775384 0.144941 0.000000
O O10 0.000000 0.500000 0.820291
O O11 0.000000 0.619934 0.768937
O O12 0.000000 0.250000 0.250000
#
# Coordination Sequence:
#
# PCOD9510982 Si02
#       6
#    32  16  32  32  16  16
#     4  10  17  29  48  69 100 133 165 204 256 303
#     4  10  15  24  47  78  93 122 169 210 247 310
#     4  10  16  25  49  76  99 129 166 203 254 310
#     4   8  16  29  48  75 102 125 161 213 260 296
#     4  12  24  34  45  72 111 140 168 211 253 305
#     4  12  18  30  51  73 103 137 173 202 251 322
#
# _framework density 16.213871000000001
#
# number of rings (size 3 to 8) (size 9 to 14) (size 15 to 20)
#    0.000    2.000    4.444    3.333    0.000    0.000 
#    0.000    1.667    0.000    6.667    0.000    0.000 
#    0.000    0.889    0.000    0.000    0.000    0.000 
#
# Total GULP energy -200456.733546 kJ/mol
# GULP energy per Si atom -5568.242599 kJ/mol
# Density = 1.617697 g / cm^3
# Si number density = 16.213871 Si / 1000 Ang^3
#
#
#
# Elastic Constant Matrix: (Units=GPa)
#
#
# Indices 1 2 3 4 5 6 
#
# 1 130.9990 29.2307 52.1554 0.0000 0.0000 0.0000
# 2 29.2307 39.1075 20.6028 0.0000 0.0000 0.0000
# 3 52.1554 20.6028 123.6714 0.0000 0.0000 0.0000
# 4 0.0000 0.0000 0.0000 6.3297 0.0000 0.0000
# 5 0.0000 0.0000 0.0000 0.0000 17.2387 0.0000
# 6 0.0000 0.0000 0.0000 0.0000 0.0000 5.9093
#
#
#
# Elastic Compliance Matrix: (Units=1/GPa)
#
#
# Indices 1 2 3 4 5 6 
#
# 1 0.010291 -0.005925 -0.003353 0.000000 0.000000 0.000000
# 2 -0.005925 0.031443 -0.002739 0.000000 0.000000 0.000000
# 3 -0.003353 -0.002739 0.009956 0.000000 0.000000 0.000000
# 4 0.000000 0.000000 0.000000 0.157984 0.000000 0.000000
# 5 0.000000 0.000000 0.000000 0.000000 0.058009 0.000000
# 6 0.000000 0.000000 0.000000 0.000000 0.000000 0.169224
#
#
# Mechanical properties :
#
#
# Convention : Reuss Voigt Hill
#
# Bulk Modulus (GPa) = 36.16013 55.30619 45.73316
# Shear Modulus (GPa) = 10.63468 18.68147 14.65807
#
# Velocity S-wave (km/s) = 2.56383 3.39808 3.01000
# Velocity P-wave (km/s) = 5.57806 7.04133 6.35197
#
# Compressibility (1/GPa) = 0.02765477
#
# Stress axis : x y z
#
# Youngs Moduli (GPa) = 97.17560 31.80402 100.43992
#
# Poissons Ratio (x) = 0.18845 0.33675
# Poissons Ratio (y) = 0.57580 0.27513
# Poissons Ratio (z) = 0.32580 0.08712
#
# Static dielectric constant tensor:
#      x y z
#    x 1.564920 0.000000 0.000000 
#    y 0.000000 1.533980 0.000000 
#    z 0.000000 0.000000 1.567670 
# 
# From -- ./inp_files/36597.got.cif
#   From: 2010.05.17/outbox.cif.g08.bks.cpg/sg69_19_cif.got.tgz:36597.got - 2010.06.03 19:29:58.
