data_PCOD9510859
_publ_section_title
;
Structure prediction by ZEFSAII (Michael W. Deem and Ramdas Pophale) SiO2 
 PCOD9510859
Probable space group: C C C A
;
_chemical_formula_sum "Si O2"
_cell_formula_units_Z 60
_cell_length_a 16.012516
_cell_length_b 8.633042
_cell_length_c 17.107734
_cell_angle_alpha 90.000000
_cell_angle_beta 90.000000
_cell_angle_gamma 90.000000
_cell_volume 2364.917089
_symmetry_space_group_name_H-M "C C C A"
_symmetry_group_IT_number 68
_space_group.IT_coordinate_system_code '2'
_symmetry_cell_setting 'orthorhombic'
loop_
_space_group_symop_operation_xyz
x,y,z
-x,1/2-y,z
x,1/2-y,1/2-z
-x,y,1/2-z
-x,-y,-z
x,1/2+y,-z
-x,1/2+y,1/2+z
x,-y,1/2+z
1/2+x,1/2+y,z
1/2-x,-y,z
1/2+x,-y,1/2-z
1/2-x,1/2+y,1/2-z
1/2-x,1/2-y,-z
1/2+x,y,-z
1/2-x,y,1/2+z
1/2+x,1/2-y,1/2+z
loop_
_atom_site_type_symbol
_atom_site_label
_atom_site_fract_x
_atom_site_fract_y
_atom_site_fract_z
Si Si1 0.793439 0.750000 0.750000
Si Si2 0.332378 0.643547 0.503585
Si Si3 0.903369 0.994248 0.652804
Si Si4 0.500000 0.250000 0.939003
Si Si5 0.500000 0.250000 0.250000
Si Si6 0.750000 0.000000 0.366488
O O1 0.851653 0.874801 0.706262
O O2 0.741284 0.650020 0.687956
O O3 0.250000 0.750000 0.500000
O O4 0.342943 0.551260 0.583405
O O5 0.418540 0.731958 0.491482
O O6 0.324480 0.035865 0.573487
O O7 0.979216 0.896972 0.614767
O O8 0.941762 0.137528 0.698759
#
# Coordination Sequence:
#
# PCOD9510859 Si02
#       6
#     8  16  16   8   4   8
#     4  12  30  52  84 121 177 218 304 369 447 515
#     4  12  29  52  90 128 173 233 303 360 447 545
#     4  12  28  54  85 127 171 236 287 371 447 532
#     4  12  25  57  82 122 178 228 296 370 429 539
#     4  12  30  48  92 128 180 226 300 364 460 520
#     4  12  30  52  82 122 168 228 286 370 432 528
#
# _framework density 25.370868999999999
#
# number of rings (size 3 to 8) (size 9 to 14) (size 15 to 20)
#    0.000    0.000    2.667    4.800    7.467    0.000 
#    0.000    0.000    0.000    0.000    0.000    0.000 
#    0.000    0.000    0.000    0.000    0.000    0.000 
#
# Total GULP energy -168414.988265 kJ/mol
# GULP energy per Si atom -5613.832942 kJ/mol
# Density = 2.531312 g / cm^3
# Si number density = 25.370869 Si / 1000 Ang^3
#
#
#
# Elastic Constant Matrix: (Units=GPa)
#
#
# Indices 1 2 3 4 5 6 
#
# 1 180.8092 92.3148 74.6739 0.0000 0.0000 0.0000
# 2 92.3148 199.3527 119.3837 0.0000 0.0000 0.0000
# 3 74.6739 119.3837 184.8450 0.0000 0.0000 0.0000
# 4 0.0000 0.0000 0.0000 68.1074 0.0000 0.0000
# 5 0.0000 0.0000 0.0000 0.0000 44.1303 0.0000
# 6 0.0000 0.0000 0.0000 0.0000 0.0000 56.8269
#
#
#
# Elastic Compliance Matrix: (Units=1/GPa)
#
#
# Indices 1 2 3 4 5 6 
#
# 1 0.007422 -0.002676 -0.001270 0.000000 0.000000 0.000000
# 2 -0.002676 0.009145 -0.004825 0.000000 0.000000 0.000000
# 3 -0.001270 -0.004825 0.009039 0.000000 0.000000 0.000000
# 4 0.000000 0.000000 0.000000 0.014683 0.000000 0.000000
# 5 0.000000 0.000000 0.000000 0.000000 0.022660 0.000000
# 6 0.000000 0.000000 0.000000 0.000000 0.000000 0.017597
#
#
# Mechanical properties :
#
#
# Convention : Reuss Voigt Hill
#
# Bulk Modulus (GPa) = 124.01617 126.41686 125.21652
# Shear Modulus (GPa) = 49.61462 52.38854 51.00158
#
# Velocity S-wave (km/s) = 4.42698 4.54906 4.48844
# Velocity P-wave (km/s) = 8.66709 8.80498 8.73630
#
# Compressibility (1/GPa) = 0.00806346
#
# Stress axis : x y z
#
# Youngs Moduli (GPa) = 134.74362 109.34580 110.62787
#
# Poissons Ratio (x) = 0.29265 0.14045
# Poissons Ratio (y) = 0.36063 0.53382
# Poissons Ratio (z) = 0.17107 0.52763
#
# Static dielectric constant tensor:
#      x y z
#    x 1.957210 0.000000 0.000000 
#    y 0.000000 2.068040 0.000000 
#    z 0.000000 0.000000 2.017540 
# 
# From -- ./inp_files/27753.got.cif
#   From: 2010.05.17/outbox.cif.g08.bks.cpg/sg68_14_cif.got.tgz:27753.got - 2010.06.03 18:57:09.
