data_PCOD9510461
_publ_section_title
;
Structure prediction by ZEFSAII (Michael W. Deem and Ramdas Pophale) SiO2 
 PCOD9510461
Probable space group: C C C A
;
_chemical_formula_sum "Si O2"
_cell_formula_units_Z 64
_cell_length_a 8.571645
_cell_length_b 31.582533
_cell_length_c 10.850148
_cell_angle_alpha 90.000000
_cell_angle_beta 90.000000
_cell_angle_gamma 90.000000
_cell_volume 2937.289798
_symmetry_space_group_name_H-M "C C C A"
_symmetry_group_IT_number 68
_space_group.IT_coordinate_system_code '2'
_symmetry_cell_setting 'orthorhombic'
loop_
_space_group_symop_operation_xyz
x,y,z
-x,1/2-y,z
x,1/2-y,1/2-z
-x,y,1/2-z
-x,-y,-z
x,1/2+y,-z
-x,1/2+y,1/2+z
x,-y,1/2+z
1/2+x,1/2+y,z
1/2-x,-y,z
1/2+x,-y,1/2-z
1/2-x,1/2+y,1/2-z
1/2-x,1/2-y,-z
1/2+x,y,-z
1/2-x,y,1/2+z
1/2+x,1/2-y,1/2+z
loop_
_atom_site_type_symbol
_atom_site_label
_atom_site_fract_x
_atom_site_fract_y
_atom_site_fract_z
Si Si1 0.550800 0.610035 0.622304
Si Si2 0.605754 0.365820 0.629418
Si Si3 0.676279 0.232597 0.875458
Si Si4 0.424804 0.015668 0.374961
O O1 0.500000 0.632757 0.750000
O O2 0.497181 0.630652 0.494295
O O3 0.738527 0.605270 0.623669
O O4 0.456579 0.565833 0.626051
O O5 0.500000 0.374104 0.750000
O O6 0.670000 0.317952 0.632913
O O7 0.500000 0.250000 0.876454
O O8 0.752933 0.250000 0.750000
O O9 0.750000 0.250000 0.000000
O O10 0.500000 0.998004 0.250000
O O11 0.500000 0.000000 0.500000
O O12 0.250000 0.000000 0.375231
#
# Coordination Sequence:
#
# PCOD9510461 Si02
#       4
#    16  16  16  16
#     4  11  26  43  69 105 139 188 236 288 368 420
#     4  12  24  45  70  99 145 186 239 304 350 430
#     4  11  24  44  66 100 138 184 245 287 357 415
#     4  11  24  45  71 105 143 182 237 289 353 435
#
# _framework density 21.788792999999998
#
# number of rings (size 3 to 8) (size 9 to 14) (size 15 to 20)
#    0.000    0.750    2.500    5.250    3.500    5.500 
#    0.000    0.000    0.000    0.000    0.000    0.000 
#    0.000    0.000    0.000    0.000    0.000    0.000 
#
# Total GULP energy -178945.008786 kJ/mol
# GULP energy per Si atom -5592.031525 kJ/mol
# Density = 2.173920 g / cm^3
# Si number density = 21.788793 Si / 1000 Ang^3
#
#
#
# Elastic Constant Matrix: (Units=GPa)
#
#
# Indices 1 2 3 4 5 6 
#
# 1 162.2615 29.9074 88.2668 0.0000 0.0000 0.0000
# 2 29.9074 80.5285 25.9506 0.0000 0.0000 0.0000
# 3 88.2668 25.9506 268.6518 0.0000 0.0000 0.0000
# 4 0.0000 0.0000 0.0000 19.2962 0.0000 0.0000
# 5 0.0000 0.0000 0.0000 0.0000 51.9883 0.0000
# 6 0.0000 0.0000 0.0000 0.0000 0.0000 24.6608
#
#
#
# Elastic Compliance Matrix: (Units=1/GPa)
#
#
# Indices 1 2 3 4 5 6 
#
# 1 0.007849 -0.002151 -0.002371 0.000000 0.000000 0.000000
# 2 -0.002151 0.013406 -0.000588 0.000000 0.000000 0.000000
# 3 -0.002371 -0.000588 0.004558 0.000000 0.000000 0.000000
# 4 0.000000 0.000000 0.000000 0.051824 0.000000 0.000000
# 5 0.000000 0.000000 0.000000 0.000000 0.019235 0.000000
# 6 0.000000 0.000000 0.000000 0.000000 0.000000 0.040550
#
#
# Mechanical properties :
#
#
# Convention : Reuss Voigt Hill
#
# Bulk Modulus (GPa) = 64.13150 88.85459 76.49304
# Shear Modulus (GPa) = 32.71373 43.67686 38.19529
#
# Velocity S-wave (km/s) = 3.87900 4.48208 4.19140
# Velocity P-wave (km/s) = 7.03984 8.22520 7.65550
#
# Compressibility (1/GPa) = 0.01559296
#
# Stress axis : x y z
#
# Youngs Moduli (GPa) = 127.40174 74.59124 219.38701
#
# Poissons Ratio (x) = 0.16045 0.52019
# Poissons Ratio (y) = 0.27404 0.12906
# Poissons Ratio (z) = 0.30208 0.04388
#
# Static dielectric constant tensor:
#      x y z
#    x 1.774450 0.000000 0.000000 
#    y 0.000000 5.274220 0.000000 
#    z 0.000000 0.000000 1.755680 
# 
# From -- ./inp_files/10743.got.cif
#   From: 2010.05.17/outbox.cif.g08.bks.cpg/sg68_6_cif.got.tgz:10743.got - 2010.06.03 18:57:09.
