data_PCOD9510761
_publ_section_title
;
Structure prediction by ZEFSAII (Michael W. Deem and Ramdas Pophale) SiO2 
 PCOD9510761
Probable space group: C C C A
;
_chemical_formula_sum "Si O2"
_cell_formula_units_Z 68
_cell_length_a 19.126153
_cell_length_b 5.019825
_cell_length_c 30.887670
_cell_angle_alpha 90.000000
_cell_angle_beta 90.000000
_cell_angle_gamma 90.000000
_cell_volume 2965.523374
_symmetry_space_group_name_H-M "C C C A"
_symmetry_group_IT_number 68
_space_group.IT_coordinate_system_code '2'
_symmetry_cell_setting 'orthorhombic'
loop_
_space_group_symop_operation_xyz
x,y,z
-x,1/2-y,z
x,1/2-y,1/2-z
-x,y,1/2-z
-x,-y,-z
x,1/2+y,-z
-x,1/2+y,1/2+z
x,-y,1/2+z
1/2+x,1/2+y,z
1/2-x,-y,z
1/2+x,-y,1/2-z
1/2-x,1/2+y,1/2-z
1/2-x,1/2-y,-z
1/2+x,y,-z
1/2-x,y,1/2+z
1/2+x,1/2-y,1/2+z
loop_
_atom_site_type_symbol
_atom_site_label
_atom_site_fract_x
_atom_site_fract_y
_atom_site_fract_z
Si Si1 0.615499 0.615668 0.294167
Si Si2 0.000000 0.250000 0.591254
Si Si3 0.500000 0.750000 0.750000
Si Si4 0.000000 0.750000 0.851046
Si Si5 0.250000 0.500000 0.651435
Si Si6 0.750000 0.000000 0.911404
Si Si7 0.383768 0.014072 0.028879
O O1 0.642232 0.750000 0.250000
O O2 0.552747 0.423137 0.278915
O O3 0.570390 0.818704 0.323954
O O4 0.680135 0.486232 0.319212
O O5 0.055268 0.108117 0.560270
O O6 0.024111 0.494644 0.621238
O O7 0.259548 0.248913 0.620199
O O8 0.814385 0.049789 0.943251
O O9 0.386920 0.211964 0.987826
#
# Coordination Sequence:
#
# PCOD9510761 Si02
#       7
#    16   8   4   8   8   8  16
#     4  12  27  46  72 106 139 197 244 297 359 431
#     4  12  25  41  69 104 143 178 241 290 367 409
#     4  12  24  48  72 102 142 184 252 284 360 434
#     4  12  23  45  68 100 142 192 229 305 350 437
#     4  12  30  46  76 104 154 180 248 308 360 416
#     4  12  26  50  68 110 138 196 232 298 368 432
#     4  12  24  44  72 102 141 187 236 292 352 438
#
# _framework density 22.930187
#
# number of rings (size 3 to 8) (size 9 to 14) (size 15 to 20)
#    0.000    0.000    2.353    7.765    4.941    0.000 
#    0.000    0.000    0.000    0.000    0.000    0.000 
#    0.000    0.000    0.000    0.000    0.000    0.000 
#
# Total GULP energy -190405.873597 kJ/mol
# GULP energy per Si atom -5600.172753 kJ/mol
# Density = 2.287800 g / cm^3
# Si number density = 22.930187 Si / 1000 Ang^3
#
#
#
# Elastic Constant Matrix: (Units=GPa)
#
#
# Indices 1 2 3 4 5 6 
#
# 1 76.6270 -23.6264 2.1865 0.0000 0.0000 0.0000
# 2 -23.6264 85.4492 0.5797 0.0000 0.0000 0.0000
# 3 2.1865 0.5797 75.1492 0.0000 0.0000 0.0000
# 4 0.0000 0.0000 0.0000 48.1037 0.0000 0.0000
# 5 0.0000 0.0000 0.0000 0.0000 52.4279 0.0000
# 6 0.0000 0.0000 0.0000 0.0000 0.0000 27.2275
#
#
#
# Elastic Compliance Matrix: (Units=1/GPa)
#
#
# Indices 1 2 3 4 5 6 
#
# 1 0.014281 0.003952 -0.000446 0.000000 0.000000 0.000000
# 2 0.003952 0.012797 -0.000214 0.000000 0.000000 0.000000
# 3 -0.000446 -0.000214 0.013321 0.000000 0.000000 0.000000
# 4 0.000000 0.000000 0.000000 0.020788 0.000000 0.000000
# 5 0.000000 0.000000 0.000000 0.000000 0.019074 0.000000
# 6 0.000000 0.000000 0.000000 0.000000 0.000000 0.036728
#
#
# Mechanical properties :
#
#
# Convention : Reuss Voigt Hill
#
# Bulk Modulus (GPa) = 21.28384 21.72279 21.50331
# Shear Modulus (GPa) = 39.66152 42.75753 41.20952
#
# Velocity S-wave (km/s) = 4.16343 4.32288 4.24391
# Velocity P-wave (km/s) = 5.69337 5.86604 5.78035
#
# Compressibility (1/GPa) = 0.04698400
#
# Stress axis : x y z
#
# Youngs Moduli (GPa) = 70.02112 78.14355 75.06673
#
# Poissons Ratio (x) = -0.30881 0.03348
# Poissons Ratio (y) = -0.27671 0.01604
# Poissons Ratio (z) = 0.03123 0.01670
#
# Static dielectric constant tensor:
#      x y z
#    x 1.810630 0.000000 0.000000 
#    y 0.000000 1.872720 0.000000 
#    z 0.000000 0.000000 1.937540 
# 
# From -- ./inp_files/51660.got.cif
#   From: 2010.05.17/outbox.cif.g08.bks.cpg/sg68_26_cif.got.tgz:51660.got - 2010.06.03 18:57:09.
