data_PCOD9510871
_publ_section_title
;
Structure prediction by ZEFSAII (Michael W. Deem and Ramdas Pophale) SiO2 
 PCOD9510871
Probable space group: C C C A
;
_chemical_formula_sum "Si O2"
_cell_formula_units_Z 56
_cell_length_a 15.541401
_cell_length_b 9.127742
_cell_length_c 16.238940
_cell_angle_alpha 90.000000
_cell_angle_beta 90.000000
_cell_angle_gamma 90.000000
_cell_volume 2303.621905
_symmetry_space_group_name_H-M "C C C A"
_symmetry_group_IT_number 68
_space_group.IT_coordinate_system_code '2'
_symmetry_cell_setting 'orthorhombic'
loop_
_space_group_symop_operation_xyz
x,y,z
-x,1/2-y,z
x,1/2-y,1/2-z
-x,y,1/2-z
-x,-y,-z
x,1/2+y,-z
-x,1/2+y,1/2+z
x,-y,1/2+z
1/2+x,1/2+y,z
1/2-x,-y,z
1/2+x,-y,1/2-z
1/2-x,1/2+y,1/2-z
1/2-x,1/2-y,-z
1/2+x,y,-z
1/2-x,y,1/2+z
1/2+x,1/2-y,1/2+z
loop_
_atom_site_type_symbol
_atom_site_label
_atom_site_fract_x
_atom_site_fract_y
_atom_site_fract_z
Si Si1 0.940269 0.423166 0.431052
Si Si2 0.000000 0.484062 0.250000
Si Si3 0.156757 0.793729 0.467897
Si Si4 0.323034 0.621577 0.805359
O O1 0.980786 0.414638 0.340046
O O2 0.860686 0.541408 0.437168
O O3 0.906653 0.266252 0.461562
O O4 0.000000 0.500000 0.500000
O O5 0.910157 0.568158 0.237466
O O6 0.250000 0.750000 0.500000
O O7 0.143961 0.689349 0.389964
O O8 0.282791 0.750000 0.750000
O O9 0.250000 0.500000 0.818407
#
# Coordination Sequence:
#
# PCOD9510871 Si02
#       4
#    16   8  16  16
#     4  12  26  48  77 111 152 202 260 313 390 466
#     4  12  27  50  81 110 155 214 255 318 393 470
#     4  12  27  48  77 112 155 201 256 324 390 461
#     4  12  27  49  78 114 154 206 261 319 392 469
#
# _framework density 24.309543999999999
#
# number of rings (size 3 to 8) (size 9 to 14) (size 15 to 20)
#    0.000    0.000    5.714    3.857    4.000    0.000 
#    0.000    3.571    0.000    0.000    0.000    0.000 
#    0.000    0.000    0.000    0.000    0.000    0.000 
#
# Total GULP energy -156581.105222 kJ/mol
# GULP energy per Si atom -5592.182329 kJ/mol
# Density = 2.425421 g / cm^3
# Si number density = 24.309544 Si / 1000 Ang^3
#
#
#
# Elastic Constant Matrix: (Units=GPa)
#
#
# Indices 1 2 3 4 5 6 
#
# 1 77.4294 10.9918 9.1070 0.0000 0.0000 0.0000
# 2 10.9918 118.6463 33.5212 0.0000 0.0000 0.0000
# 3 9.1070 33.5212 187.6019 0.0000 0.0000 0.0000
# 4 0.0000 0.0000 0.0000 41.3465 0.0000 0.0000
# 5 0.0000 0.0000 0.0000 0.0000 41.9758 0.0000
# 6 0.0000 0.0000 0.0000 0.0000 0.0000 38.6574
#
#
#
# Elastic Compliance Matrix: (Units=1/GPa)
#
#
# Indices 1 2 3 4 5 6 
#
# 1 0.013122 -0.001091 -0.000442 0.000000 0.000000 0.000000
# 2 -0.001091 0.008967 -0.001549 0.000000 0.000000 0.000000
# 3 -0.000442 -0.001549 0.005629 0.000000 0.000000 0.000000
# 4 0.000000 0.000000 0.000000 0.024186 0.000000 0.000000
# 5 0.000000 0.000000 0.000000 0.000000 0.023823 0.000000
# 6 0.000000 0.000000 0.000000 0.000000 0.000000 0.025868
#
#
# Mechanical properties :
#
#
# Convention : Reuss Voigt Hill
#
# Bulk Modulus (GPa) = 46.39633 54.54638 50.47135
# Shear Modulus (GPa) = 43.49947 46.39978 44.94962
#
# Velocity S-wave (km/s) = 4.23472 4.37361 4.30473
# Velocity P-wave (km/s) = 6.56030 6.92760 6.74645
#
# Compressibility (1/GPa) = 0.02155343
#
# Stress axis : x y z
#
# Youngs Moduli (GPa) = 76.20886 111.51760 177.65974
#
# Poissons Ratio (x) = 0.12164 0.07854
# Poissons Ratio (y) = 0.08312 0.27525
# Poissons Ratio (z) = 0.03369 0.17278
#
# Static dielectric constant tensor:
#      x y z
#    x 1.993360 0.000000 0.000000 
#    y 0.000000 1.914220 0.000000 
#    z 0.000000 0.000000 1.843270 
# 
# From -- ./inp_files/21596.got.cif
#   From: 2010.05.17/outbox.cif.g08.bks.cpg/sg68_11_cif.got.tgz:21596.got - 2010.06.03 18:57:09.
