data_PCOD9510738
_publ_section_title
;
Structure prediction by ZEFSAII (Michael W. Deem and Ramdas Pophale) SiO2 
 PCOD9510738
Probable space group: C C C A
;
_chemical_formula_sum "Si O2"
_cell_formula_units_Z 68
_cell_length_a 7.792222
_cell_length_b 17.557957
_cell_length_c 23.390972
_cell_angle_alpha 90.000000
_cell_angle_beta 90.000000
_cell_angle_gamma 90.000000
_cell_volume 3200.247502
_symmetry_space_group_name_H-M "C C C A"
_symmetry_group_IT_number 68
_space_group.IT_coordinate_system_code '2'
_symmetry_cell_setting 'orthorhombic'
loop_
_space_group_symop_operation_xyz
x,y,z
-x,1/2-y,z
x,1/2-y,1/2-z
-x,y,1/2-z
-x,-y,-z
x,1/2+y,-z
-x,1/2+y,1/2+z
x,-y,1/2+z
1/2+x,1/2+y,z
1/2-x,-y,z
1/2+x,-y,1/2-z
1/2-x,1/2+y,1/2-z
1/2-x,1/2-y,-z
1/2+x,y,-z
1/2-x,y,1/2+z
1/2+x,1/2-y,1/2+z
loop_
_atom_site_type_symbol
_atom_site_label
_atom_site_fract_x
_atom_site_fract_y
_atom_site_fract_z
Si Si1 0.035984 0.561166 0.449399
Si Si2 0.250000 0.000000 0.151935
Si Si3 0.830443 0.658211 0.707969
Si Si4 0.769277 0.666803 0.972623
Si Si5 0.000000 0.250000 0.110634
Si Si6 0.500000 0.750000 0.750000
O O1 0.095412 0.523286 0.391060
O O2 0.187583 0.611710 0.475323
O O3 0.000000 0.500000 0.500000
O O4 0.885159 0.623163 0.441951
O O5 0.192016 0.071204 0.189499
O O6 0.866211 0.709665 0.652132
O O7 0.646118 0.689722 0.728184
O O8 0.000000 0.665232 0.750000
O O9 0.920075 0.683167 0.927961
O O10 0.750000 0.750000 0.000000
#
# Coordination Sequence:
#
# PCOD9510738 Si02
#       6
#    16   8  16  16   8   4
#     4  12  23  44  64 109 153 191 240 293 362 459
#     4  12  28  44  78 108 152 208 238 302 406 450
#     4  12  28  53  75 110 148 187 263 325 371 455
#     4  12  23  40  69 103 152 193 239 295 354 443
#     4  12  23  46  73 106 146 193 247 314 376 420
#     4  12  26  56  82 102 136 188 250 332 396 426
#
# _framework density 21.248356999999999
#
# number of rings (size 3 to 8) (size 9 to 14) (size 15 to 20)
#    0.000    0.000    7.059    2.824    4.941    0.000 
#    0.000    0.000    0.000    0.000    0.000    0.000 
#    0.000    0.000    0.000    0.000    0.000    0.000 
#
# Total GULP energy -189616.189515 kJ/mol
# GULP energy per Si atom -5576.946750 kJ/mol
# Density = 2.119999 g / cm^3
# Si number density = 21.248357 Si / 1000 Ang^3
#
#
#
# Elastic Constant Matrix: (Units=GPa)
#
#
# Indices 1 2 3 4 5 6 
#
# 1 154.1828 53.2958 58.1320 0.0000 0.0000 0.0000
# 2 53.2958 164.8444 47.9122 0.0000 0.0000 0.0000
# 3 58.1320 47.9122 83.0060 0.0000 0.0000 0.0000
# 4 0.0000 0.0000 0.0000 29.0943 0.0000 0.0000
# 5 0.0000 0.0000 0.0000 0.0000 32.2913 0.0000
# 6 0.0000 0.0000 0.0000 0.0000 0.0000 55.3917
#
#
#
# Elastic Compliance Matrix: (Units=1/GPa)
#
#
# Indices 1 2 3 4 5 6 
#
# 1 0.009039 -0.001301 -0.005580 0.000000 0.000000 0.000000
# 2 -0.001301 0.007476 -0.003405 0.000000 0.000000 0.000000
# 3 -0.005580 -0.003405 0.017920 0.000000 0.000000 0.000000
# 4 0.000000 0.000000 0.000000 0.034371 0.000000 0.000000
# 5 0.000000 0.000000 0.000000 0.000000 0.030968 0.000000
# 6 0.000000 0.000000 0.000000 0.000000 0.000000 0.018053
#
#
# Mechanical properties :
#
#
# Convention : Reuss Voigt Hill
#
# Bulk Modulus (GPa) = 72.11971 80.07926 76.09948
# Shear Modulus (GPa) = 34.96022 39.53501 37.24762
#
# Velocity S-wave (km/s) = 4.06065 4.31816 4.19138
# Velocity P-wave (km/s) = 7.48332 7.91398 7.70166
#
# Compressibility (1/GPa) = 0.01386583
#
# Stress axis : x y z
#
# Youngs Moduli (GPa) = 110.63015 133.75431 55.80327
#
# Poissons Ratio (x) = 0.17398 0.31136
# Poissons Ratio (y) = 0.14390 0.18998
# Poissons Ratio (z) = 0.61728 0.45537
#
# Static dielectric constant tensor:
#      x y z
#    x 1.328990 0.000000 0.000000 
#    y 0.000000 2.177120 0.000000 
#    z 0.000000 0.000000 1.799160 
# 
# From -- ./inp_files/35901.got.cif
#   From: 2010.05.17/outbox.cif.g08.bks.cpg/sg68_18_cif.got.tgz:35901.got - 2010.06.03 18:57:09.
