data_PCOD9510177
_publ_section_title
;
Structure prediction by ZEFSAII (Michael W. Deem and Ramdas Pophale) SiO2 
 PCOD9510177
Probable space group: C C C A
;
_chemical_formula_sum "Si O2"
_cell_formula_units_Z 104
_cell_length_a 20.052396
_cell_length_b 11.990789
_cell_length_c 20.588401
_cell_angle_alpha 90.000000
_cell_angle_beta 90.000000
_cell_angle_gamma 90.000000
_cell_volume 4950.358507
_symmetry_space_group_name_H-M "C C C A"
_symmetry_group_IT_number 68
_space_group.IT_coordinate_system_code '2'
_symmetry_cell_setting 'orthorhombic'
loop_
_space_group_symop_operation_xyz
x,y,z
-x,1/2-y,z
x,1/2-y,1/2-z
-x,y,1/2-z
-x,-y,-z
x,1/2+y,-z
-x,1/2+y,1/2+z
x,-y,1/2+z
1/2+x,1/2+y,z
1/2-x,-y,z
1/2+x,-y,1/2-z
1/2-x,1/2+y,1/2-z
1/2-x,1/2-y,-z
1/2+x,y,-z
1/2-x,y,1/2+z
1/2+x,1/2-y,1/2+z
loop_
_atom_site_type_symbol
_atom_site_label
_atom_site_fract_x
_atom_site_fract_y
_atom_site_fract_z
Si Si1 0.250000 0.500000 0.024947
Si Si2 0.181089 0.195844 0.912985
Si Si3 0.837434 0.949881 0.406265
Si Si4 0.482484 0.529627 0.396608
Si Si5 0.500000 0.489185 0.750000
Si Si6 0.750000 0.000000 0.799601
Si Si7 0.449358 0.654983 0.522501
Si Si8 0.635736 0.873909 0.724849
O O1 0.240090 0.614102 0.064727
O O2 0.187045 0.486264 0.976937
O O3 0.192164 0.325370 0.895784
O O4 0.125239 0.198087 0.968830
O O5 0.147643 0.136797 0.851385
O O6 0.915987 0.952782 0.397401
O O7 0.806754 0.033545 0.352420
O O8 0.495944 0.565536 0.322305
O O9 0.465886 0.625571 0.448218
O O10 0.537994 0.454149 0.432729
O O11 0.430652 0.558090 0.743299
O O12 0.795098 0.079012 0.754835
O O13 0.500000 0.750000 0.545410
O O14 0.624906 0.750000 0.750000
#
# Coordination Sequence:
#
# PCOD9510177 Si02
#       8
#     8  16  16  16   8   8  16  16
#     4  11  25  40  60  92 127 167 220 264 328 396
#     4  12  22  41  64  94 127 169 222 269 329 398
#     4  11  22  40  65  90 129 174 213 276 330 388
#     4  11  22  41  65  95 131 166 216 270 332 393
#     4  12  23  40  69  98 130 174 217 276 329 396
#     4  11  23  40  62  92 137 173 212 272 334 382
#     4  11  23  39  67  97 127 162 209 279 332 383
#     4  12  24  40  66  97 131 170 219 272 332 394
#
# _framework density 21.008579000000001
#
# number of rings (size 3 to 8) (size 9 to 14) (size 15 to 20)
#    0.000    0.615    7.692    1.154    0.000    0.000 
#    0.000    0.385    3.385    0.000    0.000    0.000 
#    0.000    0.000    0.000    0.000    0.000    0.000 
#
# Total GULP energy -289764.861738 kJ/mol
# GULP energy per Si atom -5572.401187 kJ/mol
# Density = 2.096076 g / cm^3
# Si number density = 21.008579 Si / 1000 Ang^3
#
#
#
# Elastic Constant Matrix: (Units=GPa)
#
#
# Indices 1 2 3 4 5 6 
#
# 1 66.4735 19.9803 14.6842 0.0000 0.0000 0.0000
# 2 19.9803 44.3016 9.2771 0.0000 0.0000 0.0000
# 3 14.6842 9.2771 117.4500 0.0000 0.0000 0.0000
# 4 0.0000 0.0000 0.0000 15.4448 0.0000 0.0000
# 5 0.0000 0.0000 0.0000 0.0000 7.1874 0.0000
# 6 0.0000 0.0000 0.0000 0.0000 0.0000 19.6727
#
#
#
# Elastic Compliance Matrix: (Units=1/GPa)
#
#
# Indices 1 2 3 4 5 6 
#
# 1 0.017697 -0.007644 -0.001609 0.000000 0.000000 0.000000
# 2 -0.007644 0.026254 -0.001118 0.000000 0.000000 0.000000
# 3 -0.001609 -0.001118 0.008804 0.000000 0.000000 0.000000
# 4 0.000000 0.000000 0.000000 0.064747 0.000000 0.000000
# 5 0.000000 0.000000 0.000000 0.000000 0.139131 0.000000
# 6 0.000000 0.000000 0.000000 0.000000 0.000000 0.050832
#
#
# Mechanical properties :
#
#
# Convention : Reuss Voigt Hill
#
# Bulk Modulus (GPa) = 31.23791 35.12316 33.18053
# Shear Modulus (GPa) = 14.75458 20.74656 17.75057
#
# Velocity S-wave (km/s) = 2.65299 3.14591 2.90990
# Velocity P-wave (km/s) = 4.92807 5.47270 5.20751
#
# Compressibility (1/GPa) = 0.03201238
#
# Stress axis : x y z
#
# Youngs Moduli (GPa) = 56.50780 38.08893 113.58862
#
# Poissons Ratio (x) = 0.29117 0.18273
# Poissons Ratio (y) = 0.43197 0.12700
# Poissons Ratio (z) = 0.09090 0.04258
#
# Static dielectric constant tensor:
#      x y z
#    x 1.778750 0.000000 0.000000 
#    y 0.000000 1.763140 0.000000 
#    z 0.000000 0.000000 1.816180 
# 
# From -- ./inp_files/39659.got.cif
#   From: 2010.05.17/outbox.cif.g08.bks.cpg/sg68_20_cif.got.tgz:39659.got - 2010.06.03 18:57:09.
