data_PCOD9510211
_publ_section_title
;
Structure prediction by ZEFSAII (Michael W. Deem and Ramdas Pophale) SiO2 
 PCOD9510211
Probable space group: C C C A
;
_chemical_formula_sum "Si O2"
_cell_formula_units_Z 68
_cell_length_a 8.524969
_cell_length_b 16.363800
_cell_length_c 22.526773
_cell_angle_alpha 90.000000
_cell_angle_beta 90.000000
_cell_angle_gamma 90.000000
_cell_volume 3142.504831
_symmetry_space_group_name_H-M "C C C A"
_symmetry_group_IT_number 68
_space_group.IT_coordinate_system_code '2'
_symmetry_cell_setting 'orthorhombic'
loop_
_space_group_symop_operation_xyz
x,y,z
-x,1/2-y,z
x,1/2-y,1/2-z
-x,y,1/2-z
-x,-y,-z
x,1/2+y,-z
-x,1/2+y,1/2+z
x,-y,1/2+z
1/2+x,1/2+y,z
1/2-x,-y,z
1/2+x,-y,1/2-z
1/2-x,1/2+y,1/2-z
1/2-x,1/2-y,-z
1/2+x,y,-z
1/2-x,y,1/2+z
1/2+x,1/2-y,1/2+z
loop_
_atom_site_type_symbol
_atom_site_label
_atom_site_fract_x
_atom_site_fract_y
_atom_site_fract_z
Si Si1 0.500000 0.750000 0.250000
Si Si2 0.532235 0.431606 0.316286
Si Si3 0.610352 0.888436 0.161014
Si Si4 0.438741 0.841580 0.040306
Si Si5 0.921972 0.838815 0.423274
O O1 0.587394 0.811476 0.204707
O O2 0.500000 0.401413 0.250000
O O3 0.526002 0.529601 0.315949
O O4 0.705081 0.406740 0.338724
O O5 0.418133 0.391780 0.363854
O O6 0.536659 0.874228 0.096164
O O7 0.500000 0.750000 0.031976
O O8 0.255515 0.835069 0.053701
O O9 0.477071 0.880570 0.976286
O O10 0.000000 0.750000 0.409664
#
# Coordination Sequence:
#
# PCOD9510211 Si02
#       5
#     4  16  16  16  16
#     4  12  24  44  74 100 126 192 224 268 340 408
#     4  11  26  44  65 102 144 176 222 284 344 405
#     4  11  25  43  71 100 137 177 228 281 340 409
#     4  11  22  42  69  98 134 180 237 285 337 410
#     4  11  24  41  68  99 137 183 230 286 346 408
#
# _framework density 21.638788000000002
#
# number of rings (size 3 to 8) (size 9 to 14) (size 15 to 20)
#    0.000    0.941    2.353    5.647    3.294    2.353 
#    0.000    0.000    0.000    0.000    0.000    0.000 
#    0.000    0.000    0.000    0.000    0.000    0.000 
#
# Total GULP energy -190007.491761 kJ/mol
# GULP energy per Si atom -5588.455640 kJ/mol
# Density = 2.158954 g / cm^3
# Si number density = 21.638788 Si / 1000 Ang^3
#
#
#
# Elastic Constant Matrix: (Units=GPa)
#
#
# Indices 1 2 3 4 5 6 
#
# 1 83.3269 20.7533 35.0061 0.0000 0.0000 0.0000
# 2 20.7533 72.0875 31.5857 0.0000 0.0000 0.0000
# 3 35.0061 31.5857 151.2035 0.0000 0.0000 0.0000
# 4 0.0000 0.0000 0.0000 37.3222 0.0000 0.0000
# 5 0.0000 0.0000 0.0000 0.0000 18.6334 0.0000
# 6 0.0000 0.0000 0.0000 0.0000 0.0000 21.4447
#
#
#
# Elastic Compliance Matrix: (Units=1/GPa)
#
#
# Indices 1 2 3 4 5 6 
#
# 1 0.013800 -0.002832 -0.002603 0.000000 0.000000 0.000000
# 2 -0.002832 0.015851 -0.002655 0.000000 0.000000 0.000000
# 3 -0.002603 -0.002655 0.007771 0.000000 0.000000 0.000000
# 4 0.000000 0.000000 0.000000 0.026794 0.000000 0.000000
# 5 0.000000 0.000000 0.000000 0.000000 0.053667 0.000000
# 6 0.000000 0.000000 0.000000 0.000000 0.000000 0.046632
#
#
# Mechanical properties :
#
#
# Convention : Reuss Voigt Hill
#
# Bulk Modulus (GPa) = 47.08112 53.47867 50.27989
# Shear Modulus (GPa) = 26.62743 30.09825 28.36284
#
# Velocity S-wave (km/s) = 3.51171 3.73358 3.62434
# Velocity P-wave (km/s) = 6.18448 6.58438 6.38756
#
# Compressibility (1/GPa) = 0.02123994
#
# Stress axis : x y z
#
# Youngs Moduli (GPa) = 72.46396 63.08781 128.68331
#
# Poissons Ratio (x) = 0.17868 0.33500
# Poissons Ratio (y) = 0.20524 0.34171
# Poissons Ratio (z) = 0.18864 0.16753
#
# Static dielectric constant tensor:
#      x y z
#    x 1.795030 0.000000 0.000000 
#    y 0.000000 1.806910 0.000000 
#    z 0.000000 0.000000 1.863090 
# 
# From -- ./inp_files/35859.got.cif
#   From: 2010.05.17/outbox.cif.g08.bks.cpg/sg68_18_cif.got.tgz:35859.got - 2010.06.03 18:57:09.
