data_PCOD9510341
_publ_section_title
;
Structure prediction by ZEFSAII (Michael W. Deem and Ramdas Pophale) SiO2 
 PCOD9510341
Probable space group: C C C A
;
_chemical_formula_sum "Si O2"
_cell_formula_units_Z 64
_cell_length_a 17.338151
_cell_length_b 9.388357
_cell_length_c 19.633718
_cell_angle_alpha 90.000000
_cell_angle_beta 90.000000
_cell_angle_gamma 90.000000
_cell_volume 3195.912832
_symmetry_space_group_name_H-M "C C C A"
_symmetry_group_IT_number 68
_space_group.IT_coordinate_system_code '2'
_symmetry_cell_setting 'orthorhombic'
loop_
_space_group_symop_operation_xyz
x,y,z
-x,1/2-y,z
x,1/2-y,1/2-z
-x,y,1/2-z
-x,-y,-z
x,1/2+y,-z
-x,1/2+y,1/2+z
x,-y,1/2+z
1/2+x,1/2+y,z
1/2-x,-y,z
1/2+x,-y,1/2-z
1/2-x,1/2+y,1/2-z
1/2-x,1/2-y,-z
1/2+x,y,-z
1/2-x,y,1/2+z
1/2+x,1/2-y,1/2+z
loop_
_atom_site_type_symbol
_atom_site_label
_atom_site_fract_x
_atom_site_fract_y
_atom_site_fract_z
Si Si1 0.528297 0.402743 0.328271
Si Si2 0.962711 0.598164 0.558364
Si Si3 0.781399 0.160994 0.435523
Si Si4 0.207513 0.351134 0.684360
O O1 0.500000 0.250000 0.354932
O O2 0.500000 0.413609 0.250000
O O3 0.488022 0.525083 0.371242
O O4 0.620492 0.396316 0.335713
O O5 0.872094 0.630508 0.556861
O O6 0.000000 0.750000 0.551451
O O7 0.000000 0.500000 0.500000
O O8 0.750000 0.250000 0.500000
O O9 0.753369 0.257972 0.371900
O O10 0.750000 0.000000 0.430457
O O11 0.200950 0.250000 0.750000
O O12 0.250000 0.500000 0.698642
#
# Coordination Sequence:
#
# PCOD9510341 Si02
#       4
#    16  16  16  16
#     4  11  23  44  67  95 133 180 224 277 342 405
#     4  12  25  44  69 101 137 180 227 282 337 404
#     4  12  25  44  71 102 139 181 229 283 341 406
#     4  12  25  43  67  98 135 177 228 282 344 408
#
# _framework density 20.025577999999999
#
# number of rings (size 3 to 8) (size 9 to 14) (size 15 to 20)
#    0.000    0.250    2.500    8.250    3.500    0.500 
#    0.000    0.000    0.000    0.000    0.000    0.000 
#    0.000    0.000    0.000    0.000    0.000    0.000 
#
# Total GULP energy -178899.492146 kJ/mol
# GULP energy per Si atom -5590.609130 kJ/mol
# Density = 1.998000 g / cm^3
# Si number density = 20.025578 Si / 1000 Ang^3
#
#
#
# Elastic Constant Matrix: (Units=GPa)
#
#
# Indices 1 2 3 4 5 6 
#
# 1 229.9791 74.5884 33.8993 0.0000 0.0000 0.0000
# 2 74.5884 175.5109 44.2371 0.0000 0.0000 0.0000
# 3 33.8993 44.2371 95.6317 0.0000 0.0000 0.0000
# 4 0.0000 0.0000 0.0000 24.8991 0.0000 0.0000
# 5 0.0000 0.0000 0.0000 0.0000 13.3501 0.0000
# 6 0.0000 0.0000 0.0000 0.0000 0.0000 47.7304
#
#
#
# Elastic Compliance Matrix: (Units=1/GPa)
#
#
# Indices 1 2 3 4 5 6 
#
# 1 0.005113 -0.001943 -0.000914 0.000000 0.000000 0.000000
# 2 -0.001943 0.007188 -0.002636 0.000000 0.000000 0.000000
# 3 -0.000914 -0.002636 0.012000 0.000000 0.000000 0.000000
# 4 0.000000 0.000000 0.000000 0.040162 0.000000 0.000000
# 5 0.000000 0.000000 0.000000 0.000000 0.074906 0.000000
# 6 0.000000 0.000000 0.000000 0.000000 0.000000 0.020951
#
#
# Mechanical properties :
#
#
# Convention : Reuss Voigt Hill
#
# Bulk Modulus (GPa) = 75.10055 89.61904 82.35979
# Shear Modulus (GPa) = 28.45053 40.42238 34.43645
#
# Velocity S-wave (km/s) = 3.77332 4.49769 4.15133
# Velocity P-wave (km/s) = 7.52115 8.47477 8.01216
#
# Compressibility (1/GPa) = 0.01331548
#
# Stress axis : x y z
#
# Youngs Moduli (GPa) = 195.58191 139.12735 83.33205
#
# Poissons Ratio (x) = 0.27026 0.07615
# Poissons Ratio (y) = 0.37993 0.21968
# Poissons Ratio (z) = 0.17873 0.36677
#
# Static dielectric constant tensor:
#      x y z
#    x 1.715080 0.000000 0.000000 
#    y 0.000000 1.644050 0.000000 
#    z 0.000000 0.000000 1.699770 
# 
# From -- ./inp_files/39107.got.cif
#   From: 2010.05.17/outbox.cif.g08.bks.cpg/sg68_20_cif.got.tgz:39107.got - 2010.06.03 18:57:09.
