data_PCOD9510291
_publ_section_title
;
Structure prediction by ZEFSAII (Michael W. Deem and Ramdas Pophale) SiO2 
 PCOD9510291
Probable space group: C C C A
;
_chemical_formula_sum "Si O2"
_cell_formula_units_Z 64
_cell_length_a 8.440731
_cell_length_b 25.424855
_cell_length_c 13.717150
_cell_angle_alpha 90.000000
_cell_angle_beta 90.000000
_cell_angle_gamma 90.000000
_cell_volume 2943.760221
_symmetry_space_group_name_H-M "C C C A"
_symmetry_group_IT_number 68
_space_group.IT_coordinate_system_code '2'
_symmetry_cell_setting 'orthorhombic'
loop_
_space_group_symop_operation_xyz
x,y,z
-x,1/2-y,z
x,1/2-y,1/2-z
-x,y,1/2-z
-x,-y,-z
x,1/2+y,-z
-x,1/2+y,1/2+z
x,-y,1/2+z
1/2+x,1/2+y,z
1/2-x,-y,z
1/2+x,-y,1/2-z
1/2-x,1/2+y,1/2-z
1/2-x,1/2-y,-z
1/2+x,y,-z
1/2-x,y,1/2+z
1/2+x,1/2-y,1/2+z
loop_
_atom_site_type_symbol
_atom_site_label
_atom_site_fract_x
_atom_site_fract_y
_atom_site_fract_z
Si Si1 0.197913 0.939744 0.594015
Si Si2 0.625981 0.118344 0.572997
Si Si3 0.142071 0.286203 0.933032
Si Si4 0.186740 0.144928 0.736011
O O1 0.252914 0.915969 0.490679
O O2 0.288427 0.910075 0.680730
O O3 0.016420 0.920421 0.603344
O O4 0.250000 0.000000 0.596495
O O5 0.576641 0.165560 0.499455
O O6 0.713155 0.143452 0.665744
O O7 0.236732 0.311235 0.842887
O O8 0.000000 0.250000 0.896369
O O9 0.250000 0.250000 0.000000
O O10 0.000000 0.152613 0.750000
#
# Coordination Sequence:
#
# PCOD9510291 Si02
#       4
#    16  16  16  16
#     4  11  24  42  66  95 128 173 218 271 336 396
#     4  11  23  43  65  95 134 169 222 282 330 396
#     4  11  23  41  65  94 130 176 224 271 332 396
#     4  11  24  42  64  96 133 172 221 276 327 392
#
# _framework density 21.740901999999998
#
# number of rings (size 3 to 8) (size 9 to 14) (size 15 to 20)
#    0.000    1.000    0.000    9.000    0.000    6.500 
#    0.000    1.250    0.000    0.000    0.000    0.000 
#    0.000    0.000    0.000    0.000    0.000    0.000 
#
# Total GULP energy -178992.743710 kJ/mol
# GULP energy per Si atom -5593.523241 kJ/mol
# Density = 2.169142 g / cm^3
# Si number density = 21.740902 Si / 1000 Ang^3
#
#
#
# Elastic Constant Matrix: (Units=GPa)
#
#
# Indices 1 2 3 4 5 6 
#
# 1 82.9315 23.9611 22.5355 0.0000 0.0000 0.0000
# 2 23.9611 128.4627 50.6521 0.0000 0.0000 0.0000
# 3 22.5355 50.6521 125.6112 0.0000 0.0000 0.0000
# 4 0.0000 0.0000 0.0000 24.4292 0.0000 0.0000
# 5 0.0000 0.0000 0.0000 0.0000 36.7880 0.0000
# 6 0.0000 0.0000 0.0000 0.0000 0.0000 27.6479
#
#
#
# Elastic Compliance Matrix: (Units=1/GPa)
#
#
# Indices 1 2 3 4 5 6 
#
# 1 0.013014 -0.001792 -0.001612 0.000000 0.000000 0.000000
# 2 -0.001792 0.009503 -0.003510 0.000000 0.000000 0.000000
# 3 -0.001612 -0.003510 0.009666 0.000000 0.000000 0.000000
# 4 0.000000 0.000000 0.000000 0.040935 0.000000 0.000000
# 5 0.000000 0.000000 0.000000 0.000000 0.027183 0.000000
# 6 0.000000 0.000000 0.000000 0.000000 0.000000 0.036169
#
#
# Mechanical properties :
#
#
# Convention : Reuss Voigt Hill
#
# Bulk Modulus (GPa) = 54.48510 59.03366 56.75938
# Shear Modulus (GPa) = 31.96609 33.76348 32.86478
#
# Velocity S-wave (km/s) = 3.83864 3.94508 3.89222
# Velocity P-wave (km/s) = 6.69047 6.92559 6.80904
#
# Compressibility (1/GPa) = 0.01835364
#
# Stress axis : x y z
#
# Youngs Moduli (GPa) = 76.84079 105.23322 103.45634
#
# Poissons Ratio (x) = 0.18854 0.16680
# Poissons Ratio (y) = 0.13767 0.36318
# Poissons Ratio (z) = 0.12389 0.36942
#
# Static dielectric constant tensor:
#      x y z
#    x 1.852040 0.000000 0.000000 
#    y 0.000000 1.795150 0.000000 
#    z 0.000000 0.000000 1.791650 
# 
# From -- ./inp_files/19216.got.cif
#   From: 2010.05.17/outbox.cif.g08.bks.cpg/sg68_10_cif.got.tgz:19216.got - 2010.06.03 18:57:09.
