data_PCOD9510930
_publ_section_title
;
Structure prediction by ZEFSAII (Michael W. Deem and Ramdas Pophale) SiO2 
 PCOD9510930
Probable space group: C C C A
;
_chemical_formula_sum "Si O2"
_cell_formula_units_Z 58
_cell_length_a 27.000000
_cell_length_b 9.000000
_cell_length_c 24.000000
_cell_angle_alpha 90.000000
_cell_angle_beta 90.000000
_cell_angle_gamma 90.000000
_cell_volume 5832.000000
_symmetry_space_group_name_H-M "C C C A"
_symmetry_group_IT_number 68
_space_group.IT_coordinate_system_code '2'
_symmetry_cell_setting 'orthorhombic'
loop_
_space_group_symop_operation_xyz
x,y,z
-x,1/2-y,z
x,1/2-y,1/2-z
-x,y,1/2-z
-x,-y,-z
x,1/2+y,-z
-x,1/2+y,1/2+z
x,-y,1/2+z
1/2+x,1/2+y,z
1/2-x,-y,z
1/2+x,-y,1/2-z
1/2-x,1/2+y,1/2-z
1/2-x,1/2-y,-z
1/2+x,y,-z
1/2-x,y,1/2+z
1/2+x,1/2-y,1/2+z
loop_
_atom_site_type_symbol
_atom_site_label
_atom_site_fract_x
_atom_site_fract_y
_atom_site_fract_z
Si Si1 0.383161 0.757301 0.906795
Si Si2 0.443796 0.203918 0.516765
Si Si3 0.500000 0.750000 0.750000
Si Si4 0.850802 0.710644 0.931117
Si Si5 0.808882 0.534212 0.032527
Si Si6 0.441084 0.952934 0.834456
Si Si7 0.048149 0.005590 0.120388
Si Si8 0.390331 0.251775 0.687094
O O1 0.334492 0.664856 0.928258
O O2 0.390515 0.893153 0.864023
O O3 0.419319 0.640418 0.877086
O O4 0.412593 0.811513 0.961185
O O5 0.500000 0.250000 0.506290
O O6 0.408728 0.314701 0.552676
O O7 0.445712 0.063555 0.557318
O O8 0.463553 0.848214 0.787228
O O9 0.851158 0.720877 0.863853
O O10 0.834775 0.876430 0.952592
O O11 0.820451 0.593006 0.969273
O O12 0.750000 0.500000 0.039198
O O13 0.490102 0.977277 0.872109
O O14 0.427229 0.110412 0.809948
O O15 0.074672 0.117447 0.164002
O O16 0.368700 0.250000 0.750000
#
# Coordination Sequence:
#
# PCOD9510930 Si02
#       8
#    16  16   4  16  16  16  16  16
#     4  11  23  38  57  93 131 168 218 273 332 393
#     4  10  20  32  55  87 131 171 202 246 321 395
#     4  12  24  40  58  92 132 184 242 264 302 392
#     4  10  23  42  65 100 131 166 221 272 334 407
#     4  11  23  44  71  99 131 169 220 284 351 407
#     4  12  24  37  61  87 133 179 227 266 317 388
#     4  11  20  40  56  88 131 175 218 261 313 387
#     4  11  24  40  64  91 132 180 224 271 319 388
#
# _framework density 9.9451300000000007
#
# number of rings (size 3 to 8) (size 9 to 14) (size 15 to 20)
#    0.000    1.103    4.138    4.138    3.862    3.862 
#    0.000    0.000    0.000    0.828    1.793    0.000 
#    0.000    0.000    0.000    0.000    0.000    0.000 
#
# Total GULP energy -323271.336852 kJ/mol
# GULP energy per Si atom -5573.643739 kJ/mol
# Density = 0.992249 g / cm^3
# Si number density = 9.945130 Si / 1000 Ang^3
#
#
#
# Elastic Constant Matrix: (Units=GPa)
#
#
# Indices 1 2 3 4 5 6 
#
# 1 103.5212 17.1006 23.9385 0.0000 0.0000 0.0000
# 2 17.1006 88.9851 43.4321 0.0000 0.0000 0.0000
# 3 23.9385 43.4321 127.0073 0.0000 0.0000 0.0000
# 4 0.0000 0.0000 0.0000 289.4374 0.0000 0.0000
# 5 0.0000 0.0000 0.0000 0.0000 17.4184 0.0000
# 6 0.0000 0.0000 0.0000 0.0000 0.0000 21.5652
#
#
#
# Elastic Compliance Matrix: (Units=1/GPa)
#
#
# Indices 1 2 3 4 5 6 
#
# 1 0.010211 -0.001228 -0.001505 0.000000 0.000000 0.000000
# 2 -0.001228 0.013637 -0.004432 0.000000 0.000000 0.000000
# 3 -0.001505 -0.004432 0.009673 0.000000 0.000000 0.000000
# 4 0.000000 0.000000 0.000000 0.003455 0.000000 0.000000
# 5 0.000000 0.000000 0.000000 0.000000 0.057411 0.000000
# 6 0.000000 0.000000 0.000000 0.000000 0.000000 0.046371
#
#
# Mechanical properties :
#
#
# Convention : Reuss Voigt Hill
#
# Bulk Modulus (GPa) = 52.10645 54.27291 53.18968
# Shear Modulus (GPa) = 30.96302 81.35368 56.15835
#
# Velocity S-wave (km/s) = 3.94977 6.40235 5.31934
# Velocity P-wave (km/s) = 6.85965 9.05532 8.03286
#
# Compressibility (1/GPa) = 0.01919148
#
# Stress axis : x y z
#
# Youngs Moduli (GPa) = 97.93730 73.33018 103.38343
#
# Poissons Ratio (x) = 0.09004 0.15555
# Poissons Ratio (y) = 0.12025 0.45819
# Poissons Ratio (z) = 0.14736 0.32500
#
# Static dielectric constant tensor:
#      x y z
#    x 1.682270 0.000000 0.000000 
#    y 0.000000 1.662210 0.000000 
#    z 0.000000 0.000000 1.794290 
# 
# From -- ./inp_files/47323.got.cif
#   From: 2010.05.17/outbox.ucp.g08.bks.cvg/sg68_24_cif.got.tgz:47323.got - 2010.06.11 16:49:25.
