data_PCOD9510295
_publ_section_title
;
Structure prediction by ZEFSAII (Michael W. Deem and Ramdas Pophale) SiO2 
 PCOD9510295
Probable space group: C C C A
;
_chemical_formula_sum "Si O2"
_cell_formula_units_Z 60
_cell_length_a 10.843776
_cell_length_b 9.807120
_cell_length_c 26.343265
_cell_angle_alpha 90.000000
_cell_angle_beta 90.000000
_cell_angle_gamma 90.000000
_cell_volume 2801.506457
_symmetry_space_group_name_H-M "C C C A"
_symmetry_group_IT_number 68
_space_group.IT_coordinate_system_code '2'
_symmetry_cell_setting 'orthorhombic'
loop_
_space_group_symop_operation_xyz
x,y,z
-x,1/2-y,z
x,1/2-y,1/2-z
-x,y,1/2-z
-x,-y,-z
x,1/2+y,-z
-x,1/2+y,1/2+z
x,-y,1/2+z
1/2+x,1/2+y,z
1/2-x,-y,z
1/2+x,-y,1/2-z
1/2-x,1/2+y,1/2-z
1/2-x,1/2-y,-z
1/2+x,y,-z
1/2-x,y,1/2+z
1/2+x,1/2-y,1/2+z
loop_
_atom_site_type_symbol
_atom_site_label
_atom_site_fract_x
_atom_site_fract_y
_atom_site_fract_z
Si Si1 0.183946 0.279762 0.080162
Si Si2 0.381163 0.560244 0.334352
Si Si3 0.500000 0.250000 0.492305
Si Si4 0.439869 0.073199 0.405787
Si Si5 0.500000 0.250000 0.750000
O O1 0.142572 0.164883 0.119404
O O2 0.326336 0.319037 0.091554
O O3 0.117513 0.424240 0.088811
O O4 0.122745 0.234508 0.026681
O O5 0.250000 0.500000 0.320427
O O6 0.474481 0.444481 0.356208
O O7 0.428754 0.648907 0.287686
O O8 0.514617 0.119065 0.455608
#
# Coordination Sequence:
#
# PCOD9510295 Si02
#       5
#    16  16   8  16   4
#     4  11  23  42  66 101 147 189 231 280 335 409
#     4  12  26  48  75 101 136 179 227 294 360 418
#     4  12  21  40  64 106 148 198 231 274 332 406
#     4  11  23  41  66 100 148 187 235 280 332 409
#     4  12  26  52  72 108 128 168 234 298 370 418
#
# _framework density 21.417048000000001
#
# number of rings (size 3 to 8) (size 9 to 14) (size 15 to 20)
#    0.000    0.533    5.333    3.200    0.000    2.133 
#    0.000    0.000    0.000    0.000    0.000    0.000 
#    0.000    0.000    0.000    0.000    0.000    0.000 
#
# Total GULP energy -167423.453200 kJ/mol
# GULP energy per Si atom -5580.781773 kJ/mol
# Density = 2.136830 g / cm^3
# Si number density = 21.417048 Si / 1000 Ang^3
#
#
#
# Elastic Constant Matrix: (Units=GPa)
#
#
# Indices 1 2 3 4 5 6 
#
# 1 150.9605 70.3131 94.0533 0.0000 0.0000 0.0000
# 2 70.3131 73.4991 39.5111 0.0000 0.0000 0.0000
# 3 94.0533 39.5111 134.5674 0.0000 0.0000 0.0000
# 4 0.0000 0.0000 0.0000 61.7441 0.0000 0.0000
# 5 0.0000 0.0000 0.0000 0.0000 35.0050 0.0000
# 6 0.0000 0.0000 0.0000 0.0000 0.0000 37.6459
#
#
#
# Elastic Compliance Matrix: (Units=1/GPa)
#
#
# Indices 1 2 3 4 5 6 
#
# 1 0.017931 -0.012369 -0.008901 0.000000 0.000000 0.000000
# 2 -0.012369 0.024688 0.001396 0.000000 0.000000 0.000000
# 3 -0.008901 0.001396 0.013242 0.000000 0.000000 0.000000
# 4 0.000000 0.000000 0.000000 0.016196 0.000000 0.000000
# 5 0.000000 0.000000 0.000000 0.000000 0.028567 0.000000
# 6 0.000000 0.000000 0.000000 0.000000 0.000000 0.026563
#
#
# Mechanical properties :
#
#
# Convention : Reuss Voigt Hill
#
# Bulk Modulus (GPa) = 62.05714 85.19799 73.62757
# Shear Modulus (GPa) = 29.01842 37.22231 33.12037
#
# Velocity S-wave (km/s) = 3.68492 4.17343 3.93676
# Velocity P-wave (km/s) = 6.86610 7.94293 7.42406
#
# Compressibility (1/GPa) = 0.01611418
#
# Stress axis : x y z
#
# Youngs Moduli (GPa) = 55.77069 40.50626 75.51621
#
# Poissons Ratio (x) = 0.50101 0.67214
# Poissons Ratio (y) = 0.68981 -0.10543
# Poissons Ratio (z) = 0.49639 -0.05655
#
# Static dielectric constant tensor:
#      x y z
#    x 1.920520 0.000000 0.000000 
#    y 0.000000 1.752850 0.000000 
#    z 0.000000 0.000000 1.778810 
# 
# From -- ./inp_files/49915.got.cif
#   From: 2010.05.17/outbox.cif.g08.bks.cpg/sg68_25_cif.got.tgz:49915.got - 2010.06.03 18:57:09.
