data_PCOD9510742
_publ_section_title
;
Structure prediction by ZEFSAII (Michael W. Deem and Ramdas Pophale) SiO2 
 PCOD9510742
Probable space group: C C C A
;
_chemical_formula_sum "Si O2"
_cell_formula_units_Z 64
_cell_length_a 8.522393
_cell_length_b 14.751383
_cell_length_c 21.909394
_cell_angle_alpha 90.000000
_cell_angle_beta 90.000000
_cell_angle_gamma 90.000000
_cell_volume 2754.385109
_symmetry_space_group_name_H-M "C C C A"
_symmetry_group_IT_number 68
_space_group.IT_coordinate_system_code '2'
_symmetry_cell_setting 'orthorhombic'
loop_
_space_group_symop_operation_xyz
x,y,z
-x,1/2-y,z
x,1/2-y,1/2-z
-x,y,1/2-z
-x,-y,-z
x,1/2+y,-z
-x,1/2+y,1/2+z
x,-y,1/2+z
1/2+x,1/2+y,z
1/2-x,-y,z
1/2+x,-y,1/2-z
1/2-x,1/2+y,1/2-z
1/2-x,1/2-y,-z
1/2+x,y,-z
1/2-x,y,1/2+z
1/2+x,1/2-y,1/2+z
loop_
_atom_site_type_symbol
_atom_site_label
_atom_site_fract_x
_atom_site_fract_y
_atom_site_fract_z
Si Si1 0.598654 0.341258 0.093982
Si Si2 0.117288 0.430485 0.031781
Si Si3 0.060473 0.155417 0.145632
Si Si4 0.065668 0.527357 0.188791
O O1 0.500000 0.250000 0.088547
O O2 0.659941 0.369616 0.026627
O O3 0.757359 0.332704 0.131943
O O4 0.489403 0.413209 0.130437
O O5 0.250000 0.500000 0.054076
O O6 0.000000 0.500000 0.000000
O O7 0.039227 0.369888 0.084122
O O8 0.000000 0.250000 0.171261
O O9 0.031152 0.066220 0.184568
O O10 0.250000 0.500000 0.191074
O O11 0.000000 0.574805 0.250000
#
# Coordination Sequence:
#
# PCOD9510742 Si02
#       4
#    16  16  16  16
#     4  12  26  44  68 102 138 180 229 279 336 403
#     4  12  23  41  70  99 141 184 227 276 340 402
#     4  12  26  43  69 102 139 179 229 278 337 404
#     4  12  26  48  74  98 133 175 224 283 344 403
#
# _framework density 23.235676999999999
#
# number of rings (size 3 to 8) (size 9 to 14) (size 15 to 20)
#    0.000    0.000    5.000    5.250    3.500    3.000 
#    0.000    5.000    0.000    0.000    0.000    0.000 
#    0.000    0.000    0.000    0.000    0.000    0.000 
#
# Total GULP energy -178977.089540 kJ/mol
# GULP energy per Si atom -5593.034048 kJ/mol
# Density = 2.318279 g / cm^3
# Si number density = 23.235677 Si / 1000 Ang^3
#
#
#
# Elastic Constant Matrix: (Units=GPa)
#
#
# Indices 1 2 3 4 5 6 
#
# 1 147.0341 22.0449 5.6016 0.0000 0.0000 0.0000
# 2 22.0449 122.5533 6.7949 0.0000 0.0000 0.0000
# 3 5.6016 6.7949 110.0244 0.0000 0.0000 0.0000
# 4 0.0000 0.0000 0.0000 -61.4606 0.0000 0.0000
# 5 0.0000 0.0000 0.0000 0.0000 29.3734 0.0000
# 6 0.0000 0.0000 0.0000 0.0000 0.0000 43.1998
#
#
#
# Elastic Compliance Matrix: (Units=1/GPa)
#
#
# Indices 1 2 3 4 5 6 
#
# 1 0.006998 -0.001243 -0.000280 0.000000 0.000000 0.000000
# 2 -0.001243 0.008409 -0.000456 0.000000 0.000000 0.000000
# 3 -0.000280 -0.000456 0.009131 0.000000 0.000000 0.000000
# 4 0.000000 0.000000 0.000000 -0.016271 0.000000 0.000000
# 5 0.000000 0.000000 0.000000 0.000000 0.034044 0.000000
# 6 0.000000 0.000000 0.000000 0.000000 0.000000 0.023148
#
#
# Mechanical properties :
#
#
# Convention : Reuss Voigt Hill
#
# Bulk Modulus (GPa) = 48.58980 49.83271 49.21125
# Shear Modulus (GPa) = 65.54966 25.23389 45.39178
#
# Velocity S-wave (km/s) = 5.31714 3.29902 4.42468
# Velocity P-wave (km/s) = 7.65853 6.00038 6.87960
#
# Compressibility (1/GPa) = 0.02058045
#
# Stress axis : x y z
#
# Youngs Moduli (GPa) = 142.89376 118.92513 109.51358
#
# Poissons Ratio (x) = 0.14786 0.03061
# Poissons Ratio (y) = 0.17767 0.04994
# Poissons Ratio (z) = 0.03994 0.05423
#
# Static dielectric constant tensor:
#      x y z
#    x 1.613710 0.000000 0.000000 
#    y 0.000000 1.861410 0.000000 
#    z 0.000000 0.000000 2.000120 
# 
# From -- ./inp_files/42736.got.cif
#   From: 2010.05.17/outbox.cif.g08.bks.cpg/sg68_22_cif.got.tgz:42736.got - 2010.06.03 18:57:09.
