data_PCOD9510288
_publ_section_title
;
Structure prediction by ZEFSAII (Michael W. Deem and Ramdas Pophale) SiO2 
 PCOD9510288
Probable space group: C C C A
;
_chemical_formula_sum "Si O2"
_cell_formula_units_Z 96
_cell_length_a 8.775340
_cell_length_b 27.579230
_cell_length_c 16.400916
_cell_angle_alpha 90.000000
_cell_angle_beta 90.000000
_cell_angle_gamma 90.000000
_cell_volume 3969.302459
_symmetry_space_group_name_H-M "C C C A"
_symmetry_group_IT_number 68
_space_group.IT_coordinate_system_code '2'
_symmetry_cell_setting 'orthorhombic'
loop_
_space_group_symop_operation_xyz
x,y,z
-x,1/2-y,z
x,1/2-y,1/2-z
-x,y,1/2-z
-x,-y,-z
x,1/2+y,-z
-x,1/2+y,1/2+z
x,-y,1/2+z
1/2+x,1/2+y,z
1/2-x,-y,z
1/2+x,-y,1/2-z
1/2-x,1/2+y,1/2-z
1/2-x,1/2-y,-z
1/2+x,y,-z
1/2-x,y,1/2+z
1/2+x,1/2-y,1/2+z
loop_
_atom_site_type_symbol
_atom_site_label
_atom_site_fract_x
_atom_site_fract_y
_atom_site_fract_z
Si Si1 0.768399 0.114985 0.675961
Si Si2 0.773448 0.214465 0.607671
Si Si3 0.389542 0.961191 0.424921
Si Si4 0.928672 0.416789 0.589062
Si Si5 0.668794 0.956781 0.307968
Si Si6 0.116336 0.808184 0.057088
O O1 0.753198 0.173119 0.675432
O O2 0.682708 0.090798 0.599718
O O3 0.688383 0.091211 0.753912
O O4 0.940551 0.095711 0.656087
O O5 0.792283 0.272214 0.618431
O O6 0.655676 0.206558 0.534806
O O7 0.938277 0.199895 0.571658
O O8 0.477578 0.947292 0.508912
O O9 0.509023 0.969701 0.350119
O O10 0.250000 0.000000 0.429923
O O11 0.790511 0.448125 0.621652
O O12 0.857447 0.364516 0.569231
O O13 0.750000 0.000000 0.258114
#
# Coordination Sequence:
#
# PCOD9510288 Si02
#       6
#    16  16  16  16  16  16
#     4  11  23  41  63  95 138 181 234 286 352 431
#     4   9  18  35  61  96 134 173 221 278 340 418
#     4  12  25  43  68  98 134 182 243 303 354 424
#     4  11  23  41  68 100 133 176 236 298 354 425
#     4  12  27  45  65  92 136 190 234 295 370 428
#     4   9  18  34  62  98 132 171 219 282 343 406
#
# _framework density 24.185608999999999
#
# number of rings (size 3 to 8) (size 9 to 14) (size 15 to 20)
#    0.000    1.333    1.667    4.000    2.333    3.333 
#    0.000    1.667    0.000    4.000    0.000    2.333 
#    0.000    0.000    0.000    0.000    0.000    0.000 
#
# Total GULP energy -267835.935022 kJ/mol
# GULP energy per Si atom -5579.915313 kJ/mol
# Density = 2.413056 g / cm^3
# Si number density = 24.185609 Si / 1000 Ang^3
#
#
#
# Elastic Constant Matrix: (Units=GPa)
#
#
# Indices 1 2 3 4 5 6 
#
# 1 89.7020 38.9749 37.0153 0.0000 0.0000 0.0000
# 2 38.9749 169.7354 38.7170 0.0000 0.0000 0.0000
# 3 37.0153 38.7170 90.0609 0.0000 0.0000 0.0000
# 4 0.0000 0.0000 0.0000 29.9511 0.0000 0.0000
# 5 0.0000 0.0000 0.0000 0.0000 33.0911 0.0000
# 6 0.0000 0.0000 0.0000 0.0000 0.0000 21.3986
#
#
#
# Elastic Compliance Matrix: (Units=1/GPa)
#
#
# Indices 1 2 3 4 5 6 
#
# 1 0.014082 -0.002121 -0.004876 0.000000 0.000000 0.000000
# 2 -0.002121 0.006852 -0.002074 0.000000 0.000000 0.000000
# 3 -0.004876 -0.002074 0.013999 0.000000 0.000000 0.000000
# 4 0.000000 0.000000 0.000000 0.033388 0.000000 0.000000
# 5 0.000000 0.000000 0.000000 0.000000 0.030220 0.000000
# 6 0.000000 0.000000 0.000000 0.000000 0.000000 0.046732
#
#
# Mechanical properties :
#
#
# Convention : Reuss Voigt Hill
#
# Bulk Modulus (GPa) = 59.55558 64.32363 61.93961
# Shear Modulus (GPa) = 29.58407 32.54088 31.06248
#
# Velocity S-wave (km/s) = 3.50124 3.67204 3.58765
# Velocity P-wave (km/s) = 6.40490 6.68072 6.54426
#
# Compressibility (1/GPa) = 0.01679104
#
# Stress axis : x y z
#
# Youngs Moduli (GPa) = 71.01440 145.95090 71.43386
#
# Poissons Ratio (x) = 0.30961 0.34829
# Poissons Ratio (y) = 0.15064 0.14813
# Poissons Ratio (z) = 0.34624 0.30265
#
# Static dielectric constant tensor:
#      x y z
#    x 1.964370 0.000000 0.000000 
#    y 0.000000 2.149140 0.000000 
#    z 0.000000 0.000000 1.978710 
# 
# From -- ./inp_files/29943.got.cif
#   From: 2010.05.17/outbox.cif.g08.bks.cpg/sg68_15_cif.got.tgz:29943.got - 2010.06.03 18:57:09.
