data_PCOD9510853
_publ_section_title
;
Structure prediction by ZEFSAII (Michael W. Deem and Ramdas Pophale) SiO2 
 PCOD9510853
Probable space group: C C C A
;
_chemical_formula_sum "Si O2"
_cell_formula_units_Z 52
_cell_length_a 22.992433
_cell_length_b 6.726555
_cell_length_c 13.093457
_cell_angle_alpha 90.000000
_cell_angle_beta 90.000000
_cell_angle_gamma 90.000000
_cell_volume 2025.032294
_symmetry_space_group_name_H-M "C C C A"
_symmetry_group_IT_number 68
_space_group.IT_coordinate_system_code '2'
_symmetry_cell_setting 'orthorhombic'
loop_
_space_group_symop_operation_xyz
x,y,z
-x,1/2-y,z
x,1/2-y,1/2-z
-x,y,1/2-z
-x,-y,-z
x,1/2+y,-z
-x,1/2+y,1/2+z
x,-y,1/2+z
1/2+x,1/2+y,z
1/2-x,-y,z
1/2+x,-y,1/2-z
1/2-x,1/2+y,1/2-z
1/2-x,1/2-y,-z
1/2+x,y,-z
1/2-x,y,1/2+z
1/2+x,1/2-y,1/2+z
loop_
_atom_site_type_symbol
_atom_site_label
_atom_site_fract_x
_atom_site_fract_y
_atom_site_fract_z
Si Si1 0.089670 0.748692 0.856555
Si Si2 0.186196 0.416285 0.841766
Si Si3 0.912096 0.801623 0.077942
Si Si4 0.500000 0.250000 0.250000
O O1 0.056347 0.750000 0.750000
O O2 0.145478 0.888806 0.667742
O O3 0.098266 0.981094 0.878045
O O4 0.063139 0.677742 0.964323
O O5 0.187302 0.250000 0.750000
O O6 0.250000 0.500000 0.860815
O O7 0.151077 0.300490 0.930185
O O8 0.951976 0.688307 0.162160
#
# Coordination Sequence:
#
# PCOD9510853 Si02
#       4
#    16  16  16   4
#     4  12  25  51  79 118 167 214 277 337 410 495
#     4  12  26  48  81 120 165 212 273 341 414 494
#     4  12  27  51  78 119 159 221 273 342 419 480
#     4  12  28  56  84 112 178 212 288 346 400 520
#
# _framework density 25.678602000000001
#
# number of rings (size 3 to 8) (size 9 to 14) (size 15 to 20)
#    0.000    0.000    7.692    0.923    0.000    2.462 
#    0.000    1.538    0.000    0.000    0.000    0.000 
#    0.000    0.000    0.000    0.000    0.000    0.000 
#
# Total GULP energy -144874.830740 kJ/mol
# GULP energy per Si atom -5572.108875 kJ/mol
# Density = 2.562016 g / cm^3
# Si number density = 25.678602 Si / 1000 Ang^3
#
#
#
# Elastic Constant Matrix: (Units=GPa)
#
#
# Indices 1 2 3 4 5 6 
#
# 1 202.8345 58.5400 60.7222 0.0000 0.0000 0.0000
# 2 58.5400 158.8321 46.9280 0.0000 0.0000 0.0000
# 3 60.7222 46.9280 265.2981 0.0000 0.0000 0.0000
# 4 0.0000 0.0000 0.0000 58.1585 0.0000 0.0000
# 5 0.0000 0.0000 0.0000 0.0000 -5.6220 0.0000
# 6 0.0000 0.0000 0.0000 0.0000 0.0000 -117.7092
#
#
#
# Elastic Compliance Matrix: (Units=1/GPa)
#
#
# Indices 1 2 3 4 5 6 
#
# 1 0.005755 -0.001827 -0.000994 0.000000 0.000000 0.000000
# 2 -0.001827 0.007223 -0.000859 0.000000 0.000000 0.000000
# 3 -0.000994 -0.000859 0.004149 0.000000 0.000000 0.000000
# 4 0.000000 0.000000 0.000000 0.017194 0.000000 0.000000
# 5 0.000000 0.000000 0.000000 0.000000 -0.177872 0.000000
# 6 0.000000 0.000000 0.000000 0.000000 0.000000 -0.008496
#
#
# Mechanical properties :
#
#
# Convention : Reuss Voigt Hill
#
# Bulk Modulus (GPa) = 102.40024 106.59392 104.49708
# Shear Modulus (GPa) = -35.35347 17.68374 -8.83486
#
# Velocity S-wave (km/s) = -3.71451 2.62707 -1.85689
# Velocity P-wave (km/s) = 4.64408 7.12762 6.01541
#
# Compressibility (1/GPa) = 0.00976560
#
# Stress axis : x y z
#
# Youngs Moduli (GPa) = 173.75829 138.43846 241.02884
#
# Poissons Ratio (x) = 0.25299 0.23958
# Poissons Ratio (y) = 0.31754 0.20716
# Poissons Ratio (z) = 0.17271 0.11898
#
# Static dielectric constant tensor:
#      x y z
#    x 1.975080 0.000000 0.000000 
#    y 0.000000 2.124200 0.000000 
#    z 0.000000 0.000000 2.072720 
# 
# From -- ./inp_files/16803.got.cif
#   From: 2010.05.17/outbox.cif.g08.bks.cpg/sg68_9_cif.got.tgz:16803.got - 2010.06.03 18:57:09.
