data_PCOD9510342
_publ_section_title
;
Structure prediction by ZEFSAII (Michael W. Deem and Ramdas Pophale) SiO2 
 PCOD9510342
Probable space group: C C C A
;
_chemical_formula_sum "Si O2"
_cell_formula_units_Z 64
_cell_length_a 12.663889
_cell_length_b 12.429250
_cell_length_c 18.953180
_cell_angle_alpha 90.000000
_cell_angle_beta 90.000000
_cell_angle_gamma 90.000000
_cell_volume 2983.280613
_symmetry_space_group_name_H-M "C C C A"
_symmetry_group_IT_number 68
_space_group.IT_coordinate_system_code '2'
_symmetry_cell_setting 'orthorhombic'
loop_
_space_group_symop_operation_xyz
x,y,z
-x,1/2-y,z
x,1/2-y,1/2-z
-x,y,1/2-z
-x,-y,-z
x,1/2+y,-z
-x,1/2+y,1/2+z
x,-y,1/2+z
1/2+x,1/2+y,z
1/2-x,-y,z
1/2+x,-y,1/2-z
1/2-x,1/2+y,1/2-z
1/2-x,1/2-y,-z
1/2+x,y,-z
1/2-x,y,1/2+z
1/2+x,1/2-y,1/2+z
loop_
_atom_site_type_symbol
_atom_site_label
_atom_site_fract_x
_atom_site_fract_y
_atom_site_fract_z
Si Si1 0.547046 0.368950 0.574888
Si Si2 0.162674 0.635518 0.779114
Si Si3 0.885987 0.592808 0.276521
Si Si4 0.365507 0.551216 0.569043
O O1 0.500000 0.250000 0.579404
O O2 0.622401 0.384896 0.642266
O O3 0.454263 0.457962 0.575398
O O4 0.608442 0.383289 0.501342
O O5 0.125256 0.750000 0.750000
O O6 0.122273 0.537312 0.730972
O O7 0.289475 0.633226 0.771162
O O8 0.869488 0.618829 0.358507
O O9 0.000000 0.626476 0.250000
O O10 0.250000 0.500000 0.563949
#
# Coordination Sequence:
#
# PCOD9510342 Si02
#       4
#    16  16  16  16
#     4  11  26  44  69  98 131 179 226 274 333 403
#     4  11  24  42  70  99 126 176 225 275 323 395
#     4  11  23  44  67  99 137 174 219 275 337 393
#     4  11  24  44  66  98 138 174 218 280 338 397
#
# _framework density 21.452894000000001
#
# number of rings (size 3 to 8) (size 9 to 14) (size 15 to 20)
#    0.000    1.000    5.000    1.500    3.500    1.500 
#    4.500    0.000    0.000    0.000    0.000    0.000 
#    0.000    0.000    0.000    0.000    0.000    0.000 
#
# Total GULP energy -179116.310863 kJ/mol
# GULP energy per Si atom -5597.384714 kJ/mol
# Density = 2.140407 g / cm^3
# Si number density = 21.452894 Si / 1000 Ang^3
#
#
#
# Elastic Constant Matrix: (Units=GPa)
#
#
# Indices 1 2 3 4 5 6 
#
# 1 161.7254 -8.7396 71.0943 0.0000 0.0000 0.0000
# 2 -8.7396 63.5443 13.0640 0.0000 0.0000 0.0000
# 3 71.0943 13.0640 193.0261 0.0000 0.0000 0.0000
# 4 0.0000 0.0000 0.0000 11.1757 0.0000 0.0000
# 5 0.0000 0.0000 0.0000 0.0000 42.6045 0.0000
# 6 0.0000 0.0000 0.0000 0.0000 0.0000 -1.7877
#
#
#
# Elastic Compliance Matrix: (Units=1/GPa)
#
#
# Indices 1 2 3 4 5 6 
#
# 1 0.007541 0.001631 -0.002888 0.000000 0.000000 0.000000
# 2 0.001631 0.016312 -0.001705 0.000000 0.000000 0.000000
# 3 -0.002888 -0.001705 0.006360 0.000000 0.000000 0.000000
# 4 0.000000 0.000000 0.000000 0.089480 0.000000 0.000000
# 5 0.000000 0.000000 0.000000 0.000000 0.023472 0.000000
# 6 0.000000 0.000000 0.000000 0.000000 0.000000 -0.559378
#
#
# Mechanical properties :
#
#
# Convention : Reuss Voigt Hill
#
# Bulk Modulus (GPa) = 41.17063 63.23702 52.20382
# Shear Modulus (GPa) = -12.43181 33.25696 10.41258
#
# Velocity S-wave (km/s) = -2.40988 3.94157 2.20550
# Velocity P-wave (km/s) = 3.38961 7.08913 5.55631
#
# Compressibility (1/GPa) = 0.02428916
#
# Stress axis : x y z
#
# Youngs Moduli (GPa) = 132.60969 61.30527 157.24171
#
# Poissons Ratio (x) = -0.09998 0.45408
# Poissons Ratio (y) = -0.21627 0.26804
# Poissons Ratio (z) = 0.38295 0.10450
#
# Static dielectric constant tensor:
#      x y z
#    x 1.786350 0.000000 0.000000 
#    y 0.000000 1.804850 0.000000 
#    z 0.000000 0.000000 1.744400 
# 
# From -- ./inp_files/29144.got.cif
#   From: 2010.05.17/outbox.cif.g08.bks.cpg/sg68_15_cif.got.tgz:29144.got - 2010.06.03 18:57:09.
