data_PCOD9510284
_publ_section_title
;
Structure prediction by ZEFSAII (Michael W. Deem and Ramdas Pophale) SiO2 
 PCOD9510284
Probable space group: C C C A
;
_chemical_formula_sum "Si O2"
_cell_formula_units_Z 80
_cell_length_a 8.325919
_cell_length_b 16.460597
_cell_length_c 30.840892
_cell_angle_alpha 90.000000
_cell_angle_beta 90.000000
_cell_angle_gamma 90.000000
_cell_volume 4226.731829
_symmetry_space_group_name_H-M "C C C A"
_symmetry_group_IT_number 68
_space_group.IT_coordinate_system_code '2'
_symmetry_cell_setting 'orthorhombic'
loop_
_space_group_symop_operation_xyz
x,y,z
-x,1/2-y,z
x,1/2-y,1/2-z
-x,y,1/2-z
-x,-y,-z
x,1/2+y,-z
-x,1/2+y,1/2+z
x,-y,1/2+z
1/2+x,1/2+y,z
1/2-x,-y,z
1/2+x,-y,1/2-z
1/2-x,1/2+y,1/2-z
1/2-x,1/2-y,-z
1/2+x,y,-z
1/2-x,y,1/2+z
1/2+x,1/2-y,1/2+z
loop_
_atom_site_type_symbol
_atom_site_label
_atom_site_fract_x
_atom_site_fract_y
_atom_site_fract_z
Si Si1 0.808383 0.406732 0.296704
Si Si2 0.618123 0.825961 0.121086
Si Si3 0.697331 0.406342 0.702859
Si Si4 0.311494 0.763326 0.548540
Si Si5 0.700562 0.093100 0.892756
O O1 0.750000 0.500000 0.301306
O O2 0.771985 0.353434 0.338847
O O3 0.750647 0.373149 0.249941
O O4 0.003355 0.404592 0.296685
O O5 0.500000 0.750000 0.132815
O O6 0.720855 0.798787 0.080340
O O7 0.492464 0.896407 0.108176
O O8 0.750000 0.500000 0.703904
O O9 0.754031 0.375988 0.655719
O O10 0.500000 0.750000 0.549803
O O11 0.250000 0.750000 0.500000
O O12 0.268334 0.850675 0.569347
O O13 0.750000 0.000000 0.897069
#
# Coordination Sequence:
#
# PCOD9510284 Si02
#       5
#    16  16  16  16  16
#     4   9  16  28  49  78 108 144 183 217 253 305
#     4   9  19  35  53  78 112 143 177 220 270 320
#     4   8  15  28  48  76 111 144 176 217 259 299
#     4  11  23  41  60  78 106 139 172 221 283 329
#     4   9  18  36  59  82 108 143 184 220 256 313
#
# _framework density 18.927153000000001
#
# number of rings (size 3 to 8) (size 9 to 14) (size 15 to 20)
#    0.000    2.800    0.000    1.800    0.000    4.800 
#    0.000   22.000    0.000    1.200    0.000    0.000 
#    0.000    0.000    0.000    0.000    0.000    0.000 
#
# Total GULP energy -222702.960193 kJ/mol
# GULP energy per Si atom -5567.574005 kJ/mol
# Density = 1.888407 g / cm^3
# Si number density = 18.927153 Si / 1000 Ang^3
#
#
#
# Elastic Constant Matrix: (Units=GPa)
#
#
# Indices 1 2 3 4 5 6 
#
# 1 42.9351 31.0437 42.7477 0.0000 0.0000 0.0000
# 2 31.0437 66.3078 77.7742 0.0000 0.0000 0.0000
# 3 42.7477 77.7742 219.0444 0.0000 0.0000 0.0000
# 4 0.0000 0.0000 0.0000 30.3539 0.0000 0.0000
# 5 0.0000 0.0000 0.0000 0.0000 21.7166 0.0000
# 6 0.0000 0.0000 0.0000 0.0000 0.0000 29.0794
#
#
#
# Elastic Compliance Matrix: (Units=1/GPa)
#
#
# Indices 1 2 3 4 5 6 
#
# 1 0.035603 -0.014599 -0.001765 0.000000 0.000000 0.000000
# 2 -0.014599 0.031830 -0.008453 0.000000 0.000000 0.000000
# 3 -0.001765 -0.008453 0.007911 0.000000 0.000000 0.000000
# 4 0.000000 0.000000 0.000000 0.032945 0.000000 0.000000
# 5 0.000000 0.000000 0.000000 0.000000 0.046048 0.000000
# 6 0.000000 0.000000 0.000000 0.000000 0.000000 0.034389
#
#
# Mechanical properties :
#
#
# Convention : Reuss Voigt Hill
#
# Bulk Modulus (GPa) = 38.89182 70.15762 54.52472
# Shear Modulus (GPa) = 20.24876 28.01144 24.13010
#
# Velocity S-wave (km/s) = 3.27437 3.85120 3.57444
# Velocity P-wave (km/s) = 5.90661 7.54475 6.77537
#
# Compressibility (1/GPa) = 0.02571235
#
# Stress axis : x y z
#
# Youngs Moduli (GPa) = 28.08719 31.41656 126.40752
#
# Poissons Ratio (x) = 0.45864 0.22308
# Poissons Ratio (y) = 0.41004 1.06849
# Poissons Ratio (z) = 0.04957 0.26556
#
# Static dielectric constant tensor:
#      x y z
#    x 1.670360 0.000000 0.000000 
#    y 0.000000 1.670060 0.000000 
#    z 0.000000 0.000000 1.724160 
# 
# From -- ./inp_files/53980.got.cif
#   From: 2010.05.17/outbox.cif.g08.bks.cpg/sg68_27_cif.got.tgz:53980.got - 2010.06.03 18:57:09.
