data_PCOD9510254
_publ_section_title
;
Structure prediction by ZEFSAII (Michael W. Deem and Ramdas Pophale) SiO2 
 PCOD9510254
Probable space group: C C C A
;
_chemical_formula_sum "Si O2"
_cell_formula_units_Z 88
_cell_length_a 14.398456
_cell_length_b 11.089013
_cell_length_c 25.993713
_cell_angle_alpha 90.000000
_cell_angle_beta 90.000000
_cell_angle_gamma 90.000000
_cell_volume 4150.277498
_symmetry_space_group_name_H-M "C C C A"
_symmetry_group_IT_number 68
_space_group.IT_coordinate_system_code '2'
_symmetry_cell_setting 'orthorhombic'
loop_
_space_group_symop_operation_xyz
x,y,z
-x,1/2-y,z
x,1/2-y,1/2-z
-x,y,1/2-z
-x,-y,-z
x,1/2+y,-z
-x,1/2+y,1/2+z
x,-y,1/2+z
1/2+x,1/2+y,z
1/2-x,-y,z
1/2+x,-y,1/2-z
1/2-x,1/2+y,1/2-z
1/2-x,1/2-y,-z
1/2+x,y,-z
1/2-x,y,1/2+z
1/2+x,1/2-y,1/2+z
loop_
_atom_site_type_symbol
_atom_site_label
_atom_site_fract_x
_atom_site_fract_y
_atom_site_fract_z
Si Si1 0.750000 0.000000 0.106238
Si Si2 0.671725 0.152193 0.015194
Si Si3 0.500000 0.750000 0.572933
Si Si4 0.250000 0.500000 0.931098
Si Si5 0.642356 0.642805 0.650667
Si Si6 0.802179 0.310388 0.316200
Si Si7 0.900173 0.411723 0.220450
O O1 0.812206 0.087453 0.140828
O O2 0.697214 0.086728 0.067975
O O3 0.673011 0.055025 0.969222
O O4 0.750000 0.250000 0.000000
O O5 0.576241 0.207656 0.032135
O O6 0.553219 0.666967 0.614890
O O7 0.284620 0.601138 0.892526
O O8 0.698395 0.752788 0.678018
O O9 0.618696 0.536055 0.690701
O O10 0.822574 0.381372 0.263456
O O11 0.878415 0.202165 0.317271
O O12 0.000000 0.409543 0.250000
#
# Coordination Sequence:
#
# PCOD9510254 Si02
#       7
#     8  16   8   8  16  16  16
#     4  11  24  41  76 108 142 197 242 297 374 448
#     4  11  24  47  72 107 149 186 245 307 373 442
#     4  12  26  48  75 108 146 190 255 308 372 448
#     4  11  22  47  78 100 144 193 232 303 384 436
#     4  12  25  50  74 108 146 196 251 306 374 447
#     4  11  23  45  72 103 148 197 237 301 372 439
#     4  11  27  46  73 108 149 196 255 307 366 443
#
# _framework density 21.203399999999998
#
# number of rings (size 3 to 8) (size 9 to 14) (size 15 to 20)
#    0.000    0.727    5.455    1.091    7.636    0.727 
#    0.000    1.818    0.000    0.000    0.000    0.000 
#    0.000    0.000    0.000    0.000    0.000    0.000 
#
# Total GULP energy -245243.949300 kJ/mol
# GULP energy per Si atom -5573.726120 kJ/mol
# Density = 2.115514 g / cm^3
# Si number density = 21.203400 Si / 1000 Ang^3
#
#
#
# Elastic Constant Matrix: (Units=GPa)
#
#
# Indices 1 2 3 4 5 6 
#
# 1 117.5809 57.6033 63.9891 0.0000 0.0000 0.0000
# 2 57.6033 94.7453 65.8878 0.0000 0.0000 0.0000
# 3 63.9891 65.8878 130.5361 0.0000 0.0000 0.0000
# 4 0.0000 0.0000 0.0000 3.9834 0.0000 0.0000
# 5 0.0000 0.0000 0.0000 0.0000 69.6955 0.0000
# 6 0.0000 0.0000 0.0000 0.0000 0.0000 23.1426
#
#
#
# Elastic Compliance Matrix: (Units=1/GPa)
#
#
# Indices 1 2 3 4 5 6 
#
# 1 0.013193 -0.005429 -0.003727 0.000000 0.000000 0.000000
# 2 -0.005429 0.018498 -0.006675 0.000000 0.000000 0.000000
# 3 -0.003727 -0.006675 0.012857 0.000000 0.000000 0.000000
# 4 0.000000 0.000000 0.000000 0.251040 0.000000 0.000000
# 5 0.000000 0.000000 0.000000 0.000000 0.014348 0.000000
# 6 0.000000 0.000000 0.000000 0.000000 0.000000 0.043210
#
#
# Mechanical properties :
#
#
# Convention : Reuss Voigt Hill
#
# Bulk Modulus (GPa) = 77.61062 79.75809 78.68436
# Shear Modulus (GPa) = 12.85008 29.72313 21.28660
#
# Velocity S-wave (km/s) = 2.46446 3.74814 3.17191
# Velocity P-wave (km/s) = 6.69182 7.51191 7.11369
#
# Compressibility (1/GPa) = 0.01288483
#
# Stress axis : x y z
#
# Youngs Moduli (GPa) = 75.79939 54.06117 77.77983
#
# Poissons Ratio (x) = 0.29351 0.28986
# Poissons Ratio (y) = 0.41154 0.51919
# Poissons Ratio (z) = 0.28248 0.36087
#
# Static dielectric constant tensor:
#      x y z
#    x 2.141430 0.000000 0.000000 
#    y 0.000000 1.766240 0.000000 
#    z 0.000000 0.000000 1.776310 
# 
# From -- ./inp_files/45366.got.cif
#   From: 2010.05.17/outbox.cif.g08.bks.cpg/sg68_23_cif.got.tgz:45366.got - 2010.06.03 18:57:09.
