data_PCOD9510990
_publ_section_title
;
Structure prediction by ZEFSAII (Michael W. Deem and Ramdas Pophale) SiO2 
 PCOD9510990
Probable space group: F M M M
;
_chemical_formula_sum "Si O2"
_cell_formula_units_Z 168
_cell_length_a 32.525126
_cell_length_b 14.979218
_cell_length_c 15.311312
_cell_angle_alpha 90.000000
_cell_angle_beta 90.000000
_cell_angle_gamma 90.000000
_cell_volume 7459.685795
_symmetry_space_group_name_H-M "F M M M"
_symmetry_group_IT_number 69
_symmetry_cell_setting 'orthorhombic'
loop_
_space_group_symop_operation_xyz
x,y,z
-x,-y,z
x,-y,-z
-x,y,-z
-x,-y,-z
x,y,-z
-x,y,z
x,-y,z
x,1/2+y,1/2+z
-x,1/2-y,1/2+z
x,1/2-y,1/2-z
-x,1/2+y,1/2-z
-x,1/2-y,1/2-z
x,1/2+y,1/2-z
-x,1/2+y,1/2+z
x,1/2-y,1/2+z
1/2+x,y,1/2+z
1/2-x,-y,1/2+z
1/2+x,-y,1/2-z
1/2-x,y,1/2-z
1/2-x,-y,1/2-z
1/2+x,y,1/2-z
1/2-x,y,1/2+z
1/2+x,-y,1/2+z
1/2+x,1/2+y,z
1/2-x,1/2-y,z
1/2+x,1/2-y,-z
1/2-x,1/2+y,-z
1/2-x,1/2-y,-z
1/2+x,1/2+y,-z
1/2-x,1/2+y,z
1/2+x,1/2-y,z
loop_
_atom_site_type_symbol
_atom_site_label
_atom_site_fract_x
_atom_site_fract_y
_atom_site_fract_z
Si Si1 0.941532 0.608352 0.345530
Si Si2 0.500000 0.168487 0.500000
Si Si3 0.044623 0.891757 0.356227
Si Si4 0.203859 0.855502 0.749610
Si Si5 0.146279 0.394300 0.596609
Si Si6 0.136947 0.607140 0.097165
O O1 0.946321 0.500000 0.358953
O O2 0.965046 0.656577 0.422713
O O3 0.955673 0.626137 0.247353
O O4 0.894268 0.636487 0.353334
O O5 0.089566 0.859896 0.388388
O O6 0.000000 0.859165 0.393298
O O7 0.044365 0.000000 0.368433
O O8 0.207464 0.750000 0.750000
O O9 0.250000 0.894068 0.750000
O O10 0.184333 0.880923 0.841607
O O11 0.171130 0.875343 0.671771
O O12 0.149798 0.355350 0.500000
O O13 0.140459 0.500000 0.587676
O O14 0.132998 0.500000 0.097271
O O15 0.150503 0.635610 0.000000
#
# Coordination Sequence:
#
# PCOD9510990 Si02
#       6
#    32   8  32  32  32  32
#     4  10  16  23  41  75 118 154 182 223 278 337
#     4  12  17  20  40  84 128 156 186 230 291 348
#     4   9  16  27  48  81 119 155 189 230 283 337
#     4  11  25  43  62  84 113 153 198 244 298 360
#     4  10  20  35  58  88 119 149 186 237 295 351
#     4  10  21  38  62  91 121 153 195 246 294 342
#
# _framework density 22.521056999999999
#
# number of rings (size 3 to 8) (size 9 to 14) (size 15 to 20)
#    0.000    1.905    3.810    1.429    0.000    3.429 
#    0.000    5.714    0.000    0.571    0.000    0.000 
#    0.000    0.000    0.000    0.000    0.000    0.000 
#
# Total GULP energy -233895.684178 kJ/mol
# GULP energy per Si atom -5568.944861 kJ/mol
# Density = 2.246980 g / cm^3
# Si number density = 22.521057 Si / 1000 Ang^3
#
#
#
# Elastic Constant Matrix: (Units=GPa)
#
#
# Indices 1 2 3 4 5 6 
#
# 1 196.0548 0.4055 58.7553 0.0000 0.0000 0.0000
# 2 0.4055 45.8109 -3.4965 0.0000 0.0000 0.0000
# 3 58.7553 -3.4965 101.7402 0.0000 0.0000 0.0000
# 4 0.0000 0.0000 0.0000 -97.2354 0.0000 0.0000
# 5 0.0000 0.0000 0.0000 0.0000 34.2891 0.0000
# 6 0.0000 0.0000 0.0000 0.0000 0.0000 17.4777
#
#
#
# Elastic Compliance Matrix: (Units=1/GPa)
#
#
# Indices 1 2 3 4 5 6 
#
# 1 0.006173 -0.000328 -0.003576 0.000000 0.000000 0.000000
# 2 -0.000328 0.021904 0.000942 0.000000 0.000000 0.000000
# 3 -0.003576 0.000942 0.011927 0.000000 0.000000 0.000000
# 4 0.000000 0.000000 0.000000 -0.010284 0.000000 0.000000
# 5 0.000000 0.000000 0.000000 0.000000 0.029164 0.000000
# 6 0.000000 0.000000 0.000000 0.000000 0.000000 0.057216
#
#
# Mechanical properties :
#
#
# Convention : Reuss Voigt Hill
#
# Bulk Modulus (GPa) = 29.34308 50.54829 39.94568
# Shear Modulus (GPa) = 37.48629 10.10238 23.79433
#
# Velocity S-wave (km/s) = 4.08425 2.12026 3.25397
# Velocity P-wave (km/s) = 5.94129 5.33738 5.64741
#
# Compressibility (1/GPa) = 0.03407959
#
# Stress axis : x y z
#
# Youngs Moduli (GPa) = 161.99480 45.65447 83.84622
#
# Poissons Ratio (x) = 0.01496 0.29985
# Poissons Ratio (y) = 0.05307 -0.07898
# Poissons Ratio (z) = 0.57933 -0.04300
#
# Static dielectric constant tensor:
#      x y z
#    x 1.885880 0.000000 0.000000 
#    y 0.000000 1.882390 0.000000 
#    z 0.000000 0.000000 1.777850 
# 
# From -- ./inp_files/18827.got.cif
#   From: 2010.05.17/outbox.cif.g08.bks.cpg/sg69_10_cif.got.tgz:18827.got - 2010.06.03 19:29:58.
