data_PCOD9510222
_publ_section_title
;
Structure prediction by ZEFSAII (Michael W. Deem and Ramdas Pophale) SiO2 
 PCOD9510222
Probable space group: C C C A
;
_chemical_formula_sum "Si O2"
_cell_formula_units_Z 64
_cell_length_a 7.791601
_cell_length_b 12.902984
_cell_length_c 26.788048
_cell_angle_alpha 90.000000
_cell_angle_beta 90.000000
_cell_angle_gamma 90.000000
_cell_volume 2693.133808
_symmetry_space_group_name_H-M "C C C A"
_symmetry_group_IT_number 68
_space_group.IT_coordinate_system_code '2'
_symmetry_cell_setting 'orthorhombic'
loop_
_space_group_symop_operation_xyz
x,y,z
-x,1/2-y,z
x,1/2-y,1/2-z
-x,y,1/2-z
-x,-y,-z
x,1/2+y,-z
-x,1/2+y,1/2+z
x,-y,1/2+z
1/2+x,1/2+y,z
1/2-x,-y,z
1/2+x,-y,1/2-z
1/2-x,1/2+y,1/2-z
1/2-x,1/2-y,-z
1/2+x,y,-z
1/2-x,y,1/2+z
1/2+x,1/2-y,1/2+z
loop_
_atom_site_type_symbol
_atom_site_label
_atom_site_fract_x
_atom_site_fract_y
_atom_site_fract_z
Si Si1 0.860801 0.917012 0.476246
Si Si2 0.812495 0.701963 0.323748
Si Si3 0.312649 0.102595 0.728621
Si Si4 0.796768 0.717664 0.930307
O O1 0.777230 0.866228 0.526015
O O2 0.836582 0.812956 0.441731
O O3 0.750000 0.000000 0.446184
O O4 0.000000 0.000000 0.500000
O O5 0.695298 0.797906 0.306100
O O6 0.804258 0.623066 0.277720
O O7 0.747046 0.667506 0.377311
O O8 0.000000 0.750000 0.327473
O O9 0.500000 0.089919 0.750000
O O10 0.250000 0.000000 0.701724
O O11 0.000000 0.750000 0.932581
#
# Coordination Sequence:
#
# PCOD9510222 Si02
#       4
#    16  16  16  16
#     4  11  24  43  66  92 131 173 220 276 332 393
#     4  11  24  41  64  95 130 165 214 268 323 386
#     4  11  22  43  68  92 129 168 209 263 324 387
#     4  11  24  42  65  94 131 173 220 273 336 397
#
# _framework density 23.764135
#
# number of rings (size 3 to 8) (size 9 to 14) (size 15 to 20)
#    0.000    1.000    2.500    6.000    3.500    2.000 
#    4.500    0.000    0.000    0.000    0.000    0.000 
#    0.000    0.000    0.000    0.000    0.000    0.000 
#
# Total GULP energy -178213.600828 kJ/mol
# GULP energy per Si atom -5569.175026 kJ/mol
# Density = 2.371005 g / cm^3
# Si number density = 23.764135 Si / 1000 Ang^3
#
#
#
# Elastic Constant Matrix: (Units=GPa)
#
#
# Indices 1 2 3 4 5 6 
#
# 1 95.3773 18.7747 -17.7275 0.0000 0.0000 0.0000
# 2 18.7747 113.6232 -11.2135 0.0000 0.0000 0.0000
# 3 -17.7275 -11.2135 88.6834 0.0000 0.0000 0.0000
# 4 0.0000 0.0000 0.0000 0.7263 0.0000 0.0000
# 5 0.0000 0.0000 0.0000 0.0000 22.0556 0.0000
# 6 0.0000 0.0000 0.0000 0.0000 0.0000 42.0628
#
#
#
# Elastic Compliance Matrix: (Units=1/GPa)
#
#
# Indices 1 2 3 4 5 6 
#
# 1 0.011186 -0.001648 0.002028 0.000000 0.000000 0.000000
# 2 -0.001648 0.009155 0.000828 0.000000 0.000000 0.000000
# 3 0.002028 0.000828 0.011786 0.000000 0.000000 0.000000
# 4 0.000000 0.000000 0.000000 1.376854 0.000000 0.000000
# 5 0.000000 0.000000 0.000000 0.000000 0.045340 0.000000
# 6 0.000000 0.000000 0.000000 0.000000 0.000000 0.023774
#
#
# Mechanical properties :
#
#
# Convention : Reuss Voigt Hill
#
# Bulk Modulus (GPa) = 28.95003 30.81680 29.88342
# Shear Modulus (GPa) = 3.36204 33.49229 18.42716
#
# Velocity S-wave (km/s) = 1.19072 3.75822 2.78766
# Velocity P-wave (km/s) = 3.75488 5.64165 4.79204
#
# Compressibility (1/GPa) = 0.03454228
#
# Stress axis : x y z
#
# Youngs Moduli (GPa) = 89.39752 109.22884 84.84570
#
# Poissons Ratio (x) = 0.18003 -0.17204
# Poissons Ratio (y) = 0.14735 -0.07026
# Poissons Ratio (z) = -0.18127 -0.09046
#
# Static dielectric constant tensor:
#      x y z
#    x 2.063370 0.000000 0.000000 
#    y 0.000000 1.870980 0.000000 
#    z 0.000000 0.000000 1.853130 
# 
# From -- ./inp_files/53784.got.cif
#   From: 2010.05.17/outbox.cif.g08.bks.cpg/sg68_27_cif.got.tgz:53784.got - 2010.06.03 18:57:09.
