data_PCOD9510806
_publ_section_title
;
Structure prediction by ZEFSAII (Michael W. Deem and Ramdas Pophale) SiO2 
 PCOD9510806
Probable space group: C C C A
;
_chemical_formula_sum "Si O2"
_cell_formula_units_Z 60
_cell_length_a 17.916177
_cell_length_b 16.554314
_cell_length_c 8.115834
_cell_angle_alpha 90.000000
_cell_angle_beta 90.000000
_cell_angle_gamma 90.000000
_cell_volume 2407.075366
_symmetry_space_group_name_H-M "C C C A"
_symmetry_group_IT_number 68
_space_group.IT_coordinate_system_code '2'
_symmetry_cell_setting 'orthorhombic'
loop_
_space_group_symop_operation_xyz
x,y,z
-x,1/2-y,z
x,1/2-y,1/2-z
-x,y,1/2-z
-x,-y,-z
x,1/2+y,-z
-x,1/2+y,1/2+z
x,-y,1/2+z
1/2+x,1/2+y,z
1/2-x,-y,z
1/2+x,-y,1/2-z
1/2-x,1/2+y,1/2-z
1/2-x,1/2-y,-z
1/2+x,y,-z
1/2-x,y,1/2+z
1/2+x,1/2-y,1/2+z
loop_
_atom_site_type_symbol
_atom_site_label
_atom_site_fract_x
_atom_site_fract_y
_atom_site_fract_z
Si Si1 0.500000 0.250000 0.750000
Si Si2 0.939076 0.408043 0.117636
Si Si3 0.855133 0.158205 0.783568
Si Si4 0.000000 0.438421 0.750000
Si Si5 0.781196 0.089059 0.456441
O O1 0.545735 0.186874 0.860150
O O2 0.000000 0.451782 0.250000
O O3 0.853026 0.420670 0.165926
O O4 0.955732 0.439119 0.937949
O O5 0.877629 0.250000 0.750000
O O6 0.926637 0.106573 0.834219
O O7 0.817839 0.124587 0.618266
O O8 0.786663 0.147015 0.908562
O O9 0.750000 0.000000 0.481037
#
# Coordination Sequence:
#
# PCOD9510806 Si02
#       5
#     4  16  16   8  16
#     4   6  16  36  62  96 140 162 230 276 330 418
#     4   8  18  39  66 104 133 182 225 279 348 416
#     4  12  27  47  68 105 142 187 235 296 355 415
#     4   9  21  47  65 100 140 182 231 283 353 415
#     4  12  24  46  73 101 139 187 239 293 352 427
#
# _framework density 24.926514999999998
#
# number of rings (size 3 to 8) (size 9 to 14) (size 15 to 20)
#    1.600    0.000    2.667    2.000    1.867    1.067 
#    9.600    0.000    0.000    0.000    0.000    0.000 
#    0.000    0.000    0.000    0.000    0.000    0.000 
#
# Total GULP energy -167371.189673 kJ/mol
# GULP energy per Si atom -5579.039656 kJ/mol
# Density = 2.486978 g / cm^3
# Si number density = 24.926515 Si / 1000 Ang^3
#
#
#
# Elastic Constant Matrix: (Units=GPa)
#
#
# Indices 1 2 3 4 5 6 
#
# 1 180.2178 47.7890 12.4865 0.0000 0.0000 0.0000
# 2 47.7890 161.3804 14.1832 0.0000 0.0000 0.0000
# 3 12.4865 14.1832 46.1705 0.0000 0.0000 0.0000
# 4 0.0000 0.0000 0.0000 83.5360 0.0000 0.0000
# 5 0.0000 0.0000 0.0000 0.0000 57.7433 0.0000
# 6 0.0000 0.0000 0.0000 0.0000 0.0000 2.4583
#
#
#
# Elastic Compliance Matrix: (Units=1/GPa)
#
#
# Indices 1 2 3 4 5 6 
#
# 1 0.006078 -0.001701 -0.001121 0.000000 0.000000 0.000000
# 2 -0.001701 0.006845 -0.001643 0.000000 0.000000 0.000000
# 3 -0.001121 -0.001643 0.022467 0.000000 0.000000 0.000000
# 4 0.000000 0.000000 0.000000 0.011971 0.000000 0.000000
# 5 0.000000 0.000000 0.000000 0.000000 0.017318 0.000000
# 6 0.000000 0.000000 0.000000 0.000000 0.000000 0.406792
#
#
# Mechanical properties :
#
#
# Convention : Reuss Voigt Hill
#
# Bulk Modulus (GPa) = 37.79390 59.63179 48.71285
# Shear Modulus (GPa) = 10.22036 49.63483 29.92760
#
# Velocity S-wave (km/s) = 2.02709 4.46718 3.46877
# Velocity P-wave (km/s) = 4.54685 7.11214 5.96894
#
# Compressibility (1/GPa) = 0.02645929
#
# Stress axis : x y z
#
# Youngs Moduli (GPa) = 164.53774 146.09898 44.51045
#
# Poissons Ratio (x) = 0.24855 0.04990
# Poissons Ratio (y) = 0.27992 0.07311
# Poissons Ratio (z) = 0.18446 0.23997
#
# Static dielectric constant tensor:
#      x y z
#    x 2.164730 0.000000 0.000000 
#    y 0.000000 2.001520 0.000000 
#    z 0.000000 0.000000 2.182190 
# 
# From -- ./inp_files/5661.got.cif
#   From: 2010.05.17/outbox.cif.g08.bks.cpg/sg68_3_cif.got.tgz:5661.got - 2010.06.03 18:57:09.
