data_PCOD9510150
_publ_section_title
;
Structure prediction by ZEFSAII (Michael W. Deem and Ramdas Pophale) SiO2 
 PCOD9510150
Probable space group: C C C A
;
_chemical_formula_sum "Si O2"
_cell_formula_units_Z 80
_cell_length_a 26.891271
_cell_length_b 16.173749
_cell_length_c 8.868679
_cell_angle_alpha 90.000000
_cell_angle_beta 90.000000
_cell_angle_gamma 90.000000
_cell_volume 3857.278214
_symmetry_space_group_name_H-M "C C C A"
_symmetry_group_IT_number 68
_space_group.IT_coordinate_system_code '2'
_symmetry_cell_setting 'orthorhombic'
loop_
_space_group_symop_operation_xyz
x,y,z
-x,1/2-y,z
x,1/2-y,1/2-z
-x,y,1/2-z
-x,-y,-z
x,1/2+y,-z
-x,1/2+y,1/2+z
x,-y,1/2+z
1/2+x,1/2+y,z
1/2-x,-y,z
1/2+x,-y,1/2-z
1/2-x,1/2+y,1/2-z
1/2-x,1/2-y,-z
1/2+x,y,-z
1/2-x,y,1/2+z
1/2+x,1/2-y,1/2+z
loop_
_atom_site_type_symbol
_atom_site_label
_atom_site_fract_x
_atom_site_fract_y
_atom_site_fract_z
Si Si1 0.230950 0.750000 0.250000
Si Si2 0.112012 0.250000 0.250000
Si Si3 0.486805 0.847710 0.574594
Si Si4 0.686710 0.825671 0.040807
Si Si5 0.102309 0.450692 0.044847
Si Si6 0.933707 0.082601 0.350430
O O1 0.265442 0.690017 0.146721
O O2 0.200181 0.695597 0.369529
O O3 0.147227 0.259883 0.106021
O O4 0.079637 0.328921 0.282974
O O5 0.500000 0.750000 0.545229
O O6 0.500000 0.861259 0.750000
O O7 0.431066 0.882094 0.545248
O O8 0.519262 0.901327 0.456184
O O9 0.656559 0.910583 0.066759
O O10 0.071008 0.469389 0.196848
O O11 0.105390 0.535984 0.955703
#
# Coordination Sequence:
#
# PCOD9510150 Si02
#       6
#     8   8  16  16  16  16
#     4   9  18  36  63  88 120 152 199 252 308 371
#     4   9  20  38  62  86 114 160 207 242 307 381
#     4  11  23  38  58  88 124 165 208 248 297 363
#     4   9  19  36  61  89 113 154 197 247 307 364
#     4  11  23  37  59  86 119 160 205 253 307 364
#     4  11  22  39  59  87 126 162 202 251 302 367
#
# _framework density 20.740013000000001
#
# number of rings (size 3 to 8) (size 9 to 14) (size 15 to 20)
#    0.000    1.800    0.000    4.800    0.000    5.600 
#    0.000    0.000    0.000   40.800    0.000    0.000 
#    0.000    0.000    0.000    0.000    0.000    0.000 
#
# Total GULP energy -222751.872067 kJ/mol
# GULP energy per Si atom -5568.796802 kJ/mol
# Density = 2.069281 g / cm^3
# Si number density = 20.740013 Si / 1000 Ang^3
#
#
#
# Elastic Constant Matrix: (Units=GPa)
#
#
# Indices 1 2 3 4 5 6 
#
# 1 60.2519 12.5430 33.7940 0.0000 0.0000 0.0000
# 2 12.5430 69.9306 21.0361 0.0000 0.0000 0.0000
# 3 33.7940 21.0361 150.6296 0.0000 0.0000 0.0000
# 4 0.0000 0.0000 0.0000 35.5240 0.0000 0.0000
# 5 0.0000 0.0000 0.0000 0.0000 -871.1461 0.0000
# 6 0.0000 0.0000 0.0000 0.0000 0.0000 19.2616
#
#
#
# Elastic Compliance Matrix: (Units=1/GPa)
#
#
# Indices 1 2 3 4 5 6 
#
# 1 0.019321 -0.002256 -0.004020 0.000000 0.000000 0.000000
# 2 -0.002256 0.015190 -0.001615 0.000000 0.000000 0.000000
# 3 -0.004020 -0.001615 0.007766 0.000000 0.000000 0.000000
# 4 0.000000 0.000000 0.000000 0.028150 0.000000 0.000000
# 5 0.000000 0.000000 0.000000 0.000000 -0.001148 0.000000
# 6 0.000000 0.000000 0.000000 0.000000 0.000000 0.051917
#
#
# Mechanical properties :
#
#
# Convention : Reuss Voigt Hill
#
# Bulk Modulus (GPa) = 37.74228 46.17316 41.95772
# Shear Modulus (GPa) = 34.29098 -149.04284 -57.37593
#
# Velocity S-wave (km/s) = 4.07058 -8.48637 -5.26540
# Velocity P-wave (km/s) = 6.35060 8.58565 4.08554
#
# Compressibility (1/GPa) = 0.02649548
#
# Stress axis : x y z
#
# Youngs Moduli (GPa) = 51.75646 65.83071 128.76328
#
# Poissons Ratio (x) = 0.14854 0.51758
# Poissons Ratio (y) = 0.11678 0.20798
# Poissons Ratio (z) = 0.20804 0.10633
#
# Static dielectric constant tensor:
#      x y z
#    x 1.749650 0.000000 0.000000 
#    y 0.000000 1.788510 0.000000 
#    z 0.000000 0.000000 1.831280 
# 
# From -- ./inp_files/8802.got.cif
#   From: 2010.05.17/outbox.cif.g08.bks.cpg/sg68_5_cif.got.tgz:8802.got - 2010.06.03 18:57:09.
