data_PCOD9510872
_publ_section_title
;
Structure prediction by ZEFSAII (Michael W. Deem and Ramdas Pophale) SiO2 
 PCOD9510872
Probable space group: C C C A
;
_chemical_formula_sum "Si O2"
_cell_formula_units_Z 60
_cell_length_a 10.553025
_cell_length_b 25.476943
_cell_length_c 9.313809
_cell_angle_alpha 90.000000
_cell_angle_beta 90.000000
_cell_angle_gamma 90.000000
_cell_volume 2504.099664
_symmetry_space_group_name_H-M "C C C A"
_symmetry_group_IT_number 68
_space_group.IT_coordinate_system_code '2'
_symmetry_cell_setting 'orthorhombic'
loop_
_space_group_symop_operation_xyz
x,y,z
-x,1/2-y,z
x,1/2-y,1/2-z
-x,y,1/2-z
-x,-y,-z
x,1/2+y,-z
-x,1/2+y,1/2+z
x,-y,1/2+z
1/2+x,1/2+y,z
1/2-x,-y,z
1/2+x,-y,1/2-z
1/2-x,1/2+y,1/2-z
1/2-x,1/2-y,-z
1/2+x,y,-z
1/2-x,y,1/2+z
1/2+x,1/2-y,1/2+z
loop_
_atom_site_type_symbol
_atom_site_label
_atom_site_fract_x
_atom_site_fract_y
_atom_site_fract_z
Si Si1 0.500000 0.750000 0.250000
Si Si2 0.750000 0.000000 0.632839
Si Si3 0.851782 0.604368 0.492732
Si Si4 0.000000 0.337906 0.750000
Si Si5 0.160250 0.700241 0.502497
Si Si6 0.500000 0.943145 0.250000
O O1 0.419368 0.788589 0.353200
O O2 0.711867 0.951032 0.536120
O O3 0.877092 0.979454 0.714306
O O4 0.745464 0.648387 0.516608
O O5 0.914665 0.624224 0.346346
O O6 0.954404 0.593749 0.617718
O O7 0.928527 0.302602 0.635085
O O8 0.250000 0.750000 0.500000
#
# Coordination Sequence:
#
# PCOD9510872 Si02
#       6
#     4   8  16   8  16   8
#     4  12  28  52  78 114 154 202 268 338 404 482
#     4  12  26  48  80 118 160 210 270 338 404 478
#     4  12  27  49  77 113 156 207 264 328 400 476
#     4  12  27  49  74 110 150 196 255 323 390 468
#     4  12  28  50  78 113 154 206 261 327 401 477
#     4  12  27  51  79 117 159 213 271 335 404 486
#
# _framework density 23.960708
#
# number of rings (size 3 to 8) (size 9 to 14) (size 15 to 20)
#    0.000    0.000    0.000    8.800    0.000   11.200 
#    0.000    0.000    0.000    0.000    0.000    0.000 
#    0.000    0.000    0.000    0.000    0.000    0.000 
#
# Total GULP energy -168102.961836 kJ/mol
# GULP energy per Si atom -5603.432061 kJ/mol
# Density = 2.390617 g / cm^3
# Si number density = 23.960708 Si / 1000 Ang^3
#
#
#
# Elastic Constant Matrix: (Units=GPa)
#
#
# Indices 1 2 3 4 5 6 
#
# 1 152.9500 82.5973 95.6046 0.0000 0.0000 0.0000
# 2 82.5973 199.7086 81.6586 0.0000 0.0000 0.0000
# 3 95.6046 81.6586 168.0408 0.0000 0.0000 0.0000
# 4 0.0000 0.0000 0.0000 29.7094 0.0000 0.0000
# 5 0.0000 0.0000 0.0000 0.0000 -16.6559 0.0000
# 6 0.0000 0.0000 0.0000 0.0000 0.0000 71.0237
#
#
#
# Elastic Compliance Matrix: (Units=1/GPa)
#
#
# Indices 1 2 3 4 5 6 
#
# 1 0.011062 -0.002498 -0.005080 0.000000 0.000000 0.000000
# 2 -0.002498 0.006813 -0.001889 0.000000 0.000000 0.000000
# 3 -0.005080 -0.001889 0.009759 0.000000 0.000000 0.000000
# 4 0.000000 0.000000 0.000000 0.033659 0.000000 0.000000
# 5 0.000000 0.000000 0.000000 0.000000 -0.060039 0.000000
# 6 0.000000 0.000000 0.000000 0.000000 0.000000 0.014080
#
#
# Mechanical properties :
#
#
# Convention : Reuss Voigt Hill
#
# Bulk Modulus (GPa) = 114.94609 115.60227 115.27418
# Shear Modulus (GPa) = 134.51604 34.20469 84.36036
#
# Velocity S-wave (km/s) = 7.50081 3.78237 5.94005
# Velocity P-wave (km/s) = 11.09473 8.21136 9.76011
#
# Compressibility (1/GPa) = 0.00869973
#
# Stress axis : x y z
#
# Youngs Moduli (GPa) = 90.39584 146.77577 102.46712
#
# Poissons Ratio (x) = 0.36668 0.52052
# Poissons Ratio (y) = 0.22583 0.19361
# Poissons Ratio (z) = 0.45920 0.27733
#
# Static dielectric constant tensor:
#      x y z
#    x 2.458920 0.000000 0.000000 
#    y 0.000000 1.840320 0.000000 
#    z 0.000000 0.000000 2.074520 
# 
# From -- ./inp_files/3972.got.cif
#   From: 2010.05.17/outbox.cif.g08.bks.cpg/sg68_2_cif.got.tgz:3972.got - 2010.06.03 18:57:09.
