data_PCOD9510607
_publ_section_title
;
Structure prediction by ZEFSAII (Michael W. Deem and Ramdas Pophale) SiO2 
 PCOD9510607
Probable space group: C C C A
;
_chemical_formula_sum "Si O2"
_cell_formula_units_Z 56
_cell_length_a 15.210049
_cell_length_b 14.311543
_cell_length_c 10.992521
_cell_angle_alpha 90.000000
_cell_angle_beta 90.000000
_cell_angle_gamma 90.000000
_cell_volume 2392.843950
_symmetry_space_group_name_H-M "C C C A"
_symmetry_group_IT_number 68
_space_group.IT_coordinate_system_code '2'
_symmetry_cell_setting 'orthorhombic'
loop_
_space_group_symop_operation_xyz
x,y,z
-x,1/2-y,z
x,1/2-y,1/2-z
-x,y,1/2-z
-x,-y,-z
x,1/2+y,-z
-x,1/2+y,1/2+z
x,-y,1/2+z
1/2+x,1/2+y,z
1/2-x,-y,z
1/2+x,-y,1/2-z
1/2-x,1/2+y,1/2-z
1/2-x,1/2-y,-z
1/2+x,y,-z
1/2-x,y,1/2+z
1/2+x,1/2-y,1/2+z
loop_
_atom_site_type_symbol
_atom_site_label
_atom_site_fract_x
_atom_site_fract_y
_atom_site_fract_z
Si Si1 0.721178 0.801792 0.376667
Si Si2 0.750000 0.000000 0.304431
Si Si3 0.538296 0.843960 0.475469
Si Si4 0.923988 0.006160 0.153877
O O1 0.745000 0.750000 0.250000
O O2 0.750000 0.750000 0.500000
O O3 0.615331 0.814192 0.383369
O O4 0.764261 0.905085 0.378459
O O5 0.666620 0.979213 0.221091
O O6 0.500000 0.750000 0.533554
O O7 0.582733 0.918321 0.564747
O O8 0.459693 0.902310 0.414276
O O9 0.000000 0.982471 0.250000
#
# Coordination Sequence:
#
# PCOD9510607 Si02
#       4
#    16   8  16  16
#     4  12  28  48  78 116 150 205 261 318 396 465
#     4  12  26  50  80 106 164 194 262 326 382 476
#     4  11  26  45  75 109 155 197 257 324 385 470
#     4  11  25  49  72 110 150 209 253 318 401 452
#
# _framework density 23.403113000000001
#
# number of rings (size 3 to 8) (size 9 to 14) (size 15 to 20)
#    0.000    0.571    2.857    3.429    4.000    5.143 
#    0.000    0.000    0.000    0.000    0.000    0.000 
#    0.000    0.000    0.000    0.000    0.000    0.000 
#
# Total GULP energy -156884.436137 kJ/mol
# GULP energy per Si atom -5603.015576 kJ/mol
# Density = 2.334985 g / cm^3
# Si number density = 23.403113 Si / 1000 Ang^3
#
#
#
# Elastic Constant Matrix: (Units=GPa)
#
#
# Indices 1 2 3 4 5 6 
#
# 1 87.4621 12.5889 19.9179 0.0000 0.0000 0.0000
# 2 12.5889 192.9270 77.0235 0.0000 0.0000 0.0000
# 3 19.9179 77.0235 122.7587 0.0000 0.0000 0.0000
# 4 0.0000 0.0000 0.0000 -5.5569 0.0000 0.0000
# 5 0.0000 0.0000 0.0000 0.0000 19.3563 0.0000
# 6 0.0000 0.0000 0.0000 0.0000 0.0000 21.7879
#
#
#
# Elastic Compliance Matrix: (Units=1/GPa)
#
#
# Indices 1 2 3 4 5 6 
#
# 1 0.011872 -0.000008 -0.001922 0.000000 0.000000 0.000000
# 2 -0.000008 0.006916 -0.004338 0.000000 0.000000 0.000000
# 3 -0.001922 -0.004338 0.011180 0.000000 0.000000 0.000000
# 4 0.000000 0.000000 0.000000 -0.179955 0.000000 0.000000
# 5 0.000000 0.000000 0.000000 0.000000 0.051663 0.000000
# 6 0.000000 0.000000 0.000000 0.000000 0.000000 0.045897
#
#
# Mechanical properties :
#
#
# Convention : Reuss Voigt Hill
#
# Bulk Modulus (GPa) = 57.36103 69.13427 63.24765
# Shear Modulus (GPa) = -146.70243 26.69195 -60.00524
#
# Velocity S-wave (km/s) = -7.92598 3.38084 -5.06907
# Velocity P-wave (km/s) = 7.69404 6.69663 2.67894
#
# Compressibility (1/GPa) = 0.01743344
#
# Stress axis : x y z
#
# Youngs Moduli (GPa) = 84.23036 144.59942 89.44848
#
# Poissons Ratio (x) = 0.00109 0.17188
# Poissons Ratio (y) = 0.00063 0.38802
# Poissons Ratio (z) = 0.16185 0.62726
#
# Static dielectric constant tensor:
#      x y z
#    x 1.826740 0.000000 0.000000 
#    y 0.000000 1.926030 0.000000 
#    z 0.000000 0.000000 1.909900 
# 
# From -- ./inp_files/12523.got.cif
#   From: 2010.05.17/outbox.cif.g08.bks.cpg/sg68_7_cif.got.tgz:12523.got - 2010.06.03 18:57:09.
