data_PCOD9510466
_publ_section_title
;
Structure prediction by ZEFSAII (Michael W. Deem and Ramdas Pophale) SiO2 
 PCOD9510466
Probable space group: C C C A
;
_chemical_formula_sum "Si O2"
_cell_formula_units_Z 96
_cell_length_a 25.331997
_cell_length_b 9.670756
_cell_length_c 19.735080
_cell_angle_alpha 90.000000
_cell_angle_beta 90.000000
_cell_angle_gamma 90.000000
_cell_volume 4834.691254
_symmetry_space_group_name_H-M "C C C A"
_symmetry_group_IT_number 68
_space_group.IT_coordinate_system_code '2'
_symmetry_cell_setting 'orthorhombic'
loop_
_space_group_symop_operation_xyz
x,y,z
-x,1/2-y,z
x,1/2-y,1/2-z
-x,y,1/2-z
-x,-y,-z
x,1/2+y,-z
-x,1/2+y,1/2+z
x,-y,1/2+z
1/2+x,1/2+y,z
1/2-x,-y,z
1/2+x,-y,1/2-z
1/2-x,1/2+y,1/2-z
1/2-x,1/2-y,-z
1/2+x,y,-z
1/2-x,y,1/2+z
1/2+x,1/2-y,1/2+z
loop_
_atom_site_type_symbol
_atom_site_label
_atom_site_fract_x
_atom_site_fract_y
_atom_site_fract_z
Si Si1 0.300372 0.293244 0.044561
Si Si2 0.931892 0.100170 0.366195
Si Si3 0.215938 0.363072 0.699261
Si Si4 0.130171 0.966472 0.010969
Si Si5 0.405252 0.407706 0.238134
Si Si6 0.944539 0.916051 0.615415
O O1 0.287895 0.301676 0.123961
O O2 0.345614 0.179453 0.032788
O O3 0.250000 0.250000 0.000000
O O4 0.323620 0.440203 0.021221
O O5 0.926314 0.265342 0.356862
O O6 0.992379 0.082365 0.390248
O O7 0.893470 0.045866 0.424700
O O8 0.921329 0.009288 0.299321
O O9 0.239559 0.250000 0.750000
O O10 0.250000 0.500000 0.696806
O O11 0.157864 0.400262 0.727646
O O12 0.085163 0.943241 0.954821
O O13 0.423316 0.250000 0.250000
O O14 0.428703 0.468634 0.169414
#
# Coordination Sequence:
#
# PCOD9510466 Si02
#       6
#    16  16  16  16  16  16
#     4  12  26  45  72 100 137 180 230 281 345 412
#     4  11  25  42  69  99 135 185 229 282 344 406
#     4  11  25  45  68 101 137 178 230 281 339 409
#     4  12  23  46  67 100 139 178 224 287 343 404
#     4  11  24  44  67  99 139 178 230 284 344 407
#     4  11  24  44  66  99 138 181 234 279 340 412
#
# _framework density 19.856490999999998
#
# number of rings (size 3 to 8) (size 9 to 14) (size 15 to 20)
#    0.000    0.667    3.333    5.000    0.000    6.667 
#    0.000    0.000    0.000    0.000    0.000    0.000 
#    0.000    0.000    0.000    0.000    0.000    0.000 
#
# Total GULP energy -268586.604076 kJ/mol
# GULP energy per Si atom -5595.554252 kJ/mol
# Density = 1.981130 g / cm^3
# Si number density = 19.856491 Si / 1000 Ang^3
#
#
#
# Elastic Constant Matrix: (Units=GPa)
#
#
# Indices 1 2 3 4 5 6 
#
# 1 56.4037 8.9456 22.0549 0.0000 0.0000 0.0000
# 2 8.9456 87.6451 31.5719 0.0000 0.0000 0.0000
# 3 22.0549 31.5719 113.7574 0.0000 0.0000 0.0000
# 4 0.0000 0.0000 0.0000 39.7450 0.0000 0.0000
# 5 0.0000 0.0000 0.0000 0.0000 35.0895 0.0000
# 6 0.0000 0.0000 0.0000 0.0000 0.0000 29.9409
#
#
#
# Elastic Compliance Matrix: (Units=1/GPa)
#
#
# Indices 1 2 3 4 5 6 
#
# 1 0.019221 -0.000688 -0.003535 0.000000 0.000000 0.000000
# 2 -0.000688 0.012702 -0.003392 0.000000 0.000000 0.000000
# 3 -0.003535 -0.003392 0.010417 0.000000 0.000000 0.000000
# 4 0.000000 0.000000 0.000000 0.025160 0.000000 0.000000
# 5 0.000000 0.000000 0.000000 0.000000 0.028499 0.000000
# 6 0.000000 0.000000 0.000000 0.000000 0.000000 0.033399
#
#
# Mechanical properties :
#
#
# Convention : Reuss Voigt Hill
#
# Bulk Modulus (GPa) = 36.88800 42.55010 39.71905
# Shear Modulus (GPa) = 32.53822 33.97066 33.25444
#
# Velocity S-wave (km/s) = 4.05244 4.14068 4.09680
# Velocity P-wave (km/s) = 6.36506 6.65850 6.51343
#
# Compressibility (1/GPa) = 0.02710909
#
# Stress axis : x y z
#
# Youngs Moduli (GPa) = 52.02661 78.72973 95.99307
#
# Poissons Ratio (x) = 0.05419 0.33938
# Poissons Ratio (y) = 0.03581 0.32558
# Poissons Ratio (z) = 0.18394 0.26703
#
# Static dielectric constant tensor:
#      x y z
#    x 1.771620 0.000000 0.000000 
#    y 0.000000 1.709650 0.000000 
#    z 0.000000 0.000000 1.659120 
# 
# From -- ./inp_files/41239.got.cif
#   From: 2010.05.17/outbox.cif.g08.bks.cpg/sg68_21_cif.got.tgz:41239.got - 2010.06.03 18:57:09.
