data_PCOD9510354
_publ_section_title
;
Structure prediction by ZEFSAII (Michael W. Deem and Ramdas Pophale) SiO2 
 PCOD9510354
Probable space group: C C C A
;
_chemical_formula_sum "Si O2"
_cell_formula_units_Z 64
_cell_length_a 20.422807
_cell_length_b 14.577293
_cell_length_c 9.028721
_cell_angle_alpha 90.000000
_cell_angle_beta 90.000000
_cell_angle_gamma 90.000000
_cell_volume 2687.933681
_symmetry_space_group_name_H-M "C C C A"
_symmetry_group_IT_number 68
_space_group.IT_coordinate_system_code '2'
_symmetry_cell_setting 'orthorhombic'
loop_
_space_group_symop_operation_xyz
x,y,z
-x,1/2-y,z
x,1/2-y,1/2-z
-x,y,1/2-z
-x,-y,-z
x,1/2+y,-z
-x,1/2+y,1/2+z
x,-y,1/2+z
1/2+x,1/2+y,z
1/2-x,-y,z
1/2+x,-y,1/2-z
1/2-x,1/2+y,1/2-z
1/2-x,1/2-y,-z
1/2+x,y,-z
1/2-x,y,1/2+z
1/2+x,1/2-y,1/2+z
loop_
_atom_site_type_symbol
_atom_site_label
_atom_site_fract_x
_atom_site_fract_y
_atom_site_fract_z
Si Si1 0.135604 0.938548 0.378168
Si Si2 0.500000 0.750000 0.006200
Si Si3 0.648326 0.743044 0.080342
Si Si4 0.500000 0.398824 0.250000
Si Si5 0.694391 0.576255 0.569028
O O1 0.148863 0.853338 0.490052
O O2 0.186909 0.927068 0.244836
O O3 0.068009 0.946315 0.285603
O O4 0.136773 0.029122 0.475691
O O5 0.495419 0.664620 0.894371
O O6 0.569301 0.756381 0.087270
O O7 0.672648 0.750000 0.250000
O O8 0.688649 0.819164 0.986441
O O9 0.750000 0.500000 0.532611
#
# Coordination Sequence:
#
# PCOD9510354 Si02
#       5
#    16   8  16   8  16
#     4  11  24  45  72 105 145 192 245 306 373 435
#     4   9  17  38  70 108 144 180 230 298 364 448
#     4  11  23  44  73 108 147 191 240 300 376 437
#     4   9  18  38  70 104 143 182 236 299 372 434
#     4  12  26  46  69 103 147 196 254 301 361 445
#
# _framework density 23.810112
#
# number of rings (size 3 to 8) (size 9 to 14) (size 15 to 20)
#    0.000    1.250    2.500    3.375    0.000    2.000 
#    4.500    3.750    0.000    0.000    0.000    0.000 
#    0.000    0.000    0.000    0.000    0.000    0.000 
#
# Total GULP energy -178367.887090 kJ/mol
# GULP energy per Si atom -5573.996472 kJ/mol
# Density = 2.375592 g / cm^3
# Si number density = 23.810112 Si / 1000 Ang^3
#
#
#
# Elastic Constant Matrix: (Units=GPa)
#
#
# Indices 1 2 3 4 5 6 
#
# 1 67.6626 24.4609 9.8994 0.0000 0.0000 0.0000
# 2 24.4609 87.4801 20.3220 0.0000 0.0000 0.0000
# 3 9.8994 20.3220 159.2935 0.0000 0.0000 0.0000
# 4 0.0000 0.0000 0.0000 -23.0018 0.0000 0.0000
# 5 0.0000 0.0000 0.0000 0.0000 84.4644 0.0000
# 6 0.0000 0.0000 0.0000 0.0000 0.0000 26.9804
#
#
#
# Elastic Compliance Matrix: (Units=1/GPa)
#
#
# Indices 1 2 3 4 5 6 
#
# 1 0.016472 -0.004502 -0.000449 0.000000 0.000000 0.000000
# 2 -0.004502 0.013010 -0.001380 0.000000 0.000000 0.000000
# 3 -0.000449 -0.001380 0.006482 0.000000 0.000000 0.000000
# 4 0.000000 0.000000 0.000000 -0.043475 0.000000 0.000000
# 5 0.000000 0.000000 0.000000 0.000000 0.011839 0.000000
# 6 0.000000 0.000000 0.000000 0.000000 0.000000 0.037064
#
#
# Mechanical properties :
#
#
# Convention : Reuss Voigt Hill
#
# Bulk Modulus (GPa) = 42.91383 47.08896 45.00140
# Shear Modulus (GPa) = 80.87688 35.00553 57.94120
#
# Velocity S-wave (km/s) = 5.83448 3.83847 4.93837
# Velocity P-wave (km/s) = 7.96560 6.28212 7.17341
#
# Compressibility (1/GPa) = 0.02330251
#
# Stress axis : x y z
#
# Youngs Moduli (GPa) = 60.70785 76.86113 154.28025
#
# Poissons Ratio (x) = 0.34599 0.06933
# Poissons Ratio (y) = 0.27328 0.21292
# Poissons Ratio (z) = 0.02728 0.10607
#
# Static dielectric constant tensor:
#      x y z
#    x 2.175980 0.000000 0.000000 
#    y 0.000000 1.879080 0.000000 
#    z 0.000000 0.000000 1.908370 
# 
# From -- ./inp_files/5055.got.cif
#   From: 2010.05.17/outbox.cif.g08.bks.cpg/sg68_3_cif.got.tgz:5055.got - 2010.06.03 18:57:09.
