data_PCOD9510647
_publ_section_title
;
Structure prediction by ZEFSAII (Michael W. Deem and Ramdas Pophale) SiO2 
 PCOD9510647
Probable space group: C C C A
;
_chemical_formula_sum "Si O2"
_cell_formula_units_Z 48
_cell_length_a 7.266797
_cell_length_b 18.731081
_cell_length_c 13.775134
_cell_angle_alpha 90.000000
_cell_angle_beta 90.000000
_cell_angle_gamma 90.000000
_cell_volume 1875.001858
_symmetry_space_group_name_H-M "C C C A"
_symmetry_group_IT_number 68
_space_group.IT_coordinate_system_code '2'
_symmetry_cell_setting 'orthorhombic'
loop_
_space_group_symop_operation_xyz
x,y,z
-x,1/2-y,z
x,1/2-y,1/2-z
-x,y,1/2-z
-x,-y,-z
x,1/2+y,-z
-x,1/2+y,1/2+z
x,-y,1/2+z
1/2+x,1/2+y,z
1/2-x,-y,z
1/2+x,-y,1/2-z
1/2-x,1/2+y,1/2-z
1/2-x,1/2-y,-z
1/2+x,y,-z
1/2-x,y,1/2+z
1/2+x,1/2-y,1/2+z
loop_
_atom_site_type_symbol
_atom_site_label
_atom_site_fract_x
_atom_site_fract_y
_atom_site_fract_z
Si Si1 0.911976 0.319141 0.143492
Si Si2 0.676791 0.575752 0.444560
Si Si3 0.033324 0.119171 0.639661
O O1 0.992490 0.391942 0.099891
O O2 0.000000 0.250000 0.091897
O O3 0.000000 0.319444 0.250000
O O4 0.690791 0.319928 0.146709
O O5 0.750000 0.500000 0.407797
O O6 0.626089 0.568996 0.557880
O O7 0.833790 0.631725 0.408711
O O8 0.000000 0.093855 0.750000
#
# Coordination Sequence:
#
# PCOD9510647 Si02
#       3
#    16  16  16
#     4  11  26  50  76 114 158 209 268 320 391 482
#     4  12  27  48  77 114 158 202 265 326 399 474
#     4  12  26  47  78 113 153 205 255 330 394 468
#
# _framework density 25.599976000000002
#
# number of rings (size 3 to 8) (size 9 to 14) (size 15 to 20)
#    0.000    0.333    6.667    1.000    0.000    5.333 
#    0.000    0.000    0.000    0.000    0.000    0.000 
#    0.000    0.000    0.000    0.000    0.000    0.000 
#
# Total GULP energy -133839.747267 kJ/mol
# GULP energy per Si atom -5576.656136 kJ/mol
# Density = 2.554171 g / cm^3
# Si number density = 25.599976 Si / 1000 Ang^3
#
#
#
# Elastic Constant Matrix: (Units=GPa)
#
#
# Indices 1 2 3 4 5 6 
#
# 1 196.0404 21.7387 28.7350 0.0000 0.0000 0.0000
# 2 21.7387 91.8255 29.5348 0.0000 0.0000 0.0000
# 3 28.7350 29.5348 148.9721 0.0000 0.0000 0.0000
# 4 0.0000 0.0000 0.0000 8.7297 0.0000 0.0000
# 5 0.0000 0.0000 0.0000 0.0000 57.1378 0.0000
# 6 0.0000 0.0000 0.0000 0.0000 0.0000 18.2099
#
#
#
# Elastic Compliance Matrix: (Units=1/GPa)
#
#
# Indices 1 2 3 4 5 6 
#
# 1 0.005333 -0.000995 -0.000831 0.000000 0.000000 0.000000
# 2 -0.000995 0.011818 -0.002151 0.000000 0.000000 0.000000
# 3 -0.000831 -0.002151 0.007299 0.000000 0.000000 0.000000
# 4 0.000000 0.000000 0.000000 0.114551 0.000000 0.000000
# 5 0.000000 0.000000 0.000000 0.000000 0.017502 0.000000
# 6 0.000000 0.000000 0.000000 0.000000 0.000000 0.054915
#
#
# Mechanical properties :
#
#
# Convention : Reuss Voigt Hill
#
# Bulk Modulus (GPa) = 60.62358 66.31722 63.47040
# Shear Modulus (GPa) = 22.23487 40.60411 31.41949
#
# Velocity S-wave (km/s) = 2.95032 3.98691 3.50712
# Velocity P-wave (km/s) = 5.94461 6.86697 6.42237
#
# Compressibility (1/GPa) = 0.01649523
#
# Stress axis : x y z
#
# Youngs Moduli (GPa) = 187.50443 84.61918 136.99603
#
# Poissons Ratio (x) = 0.08421 0.11390
# Poissons Ratio (y) = 0.18660 0.29468
# Poissons Ratio (z) = 0.15589 0.18201
#
# Static dielectric constant tensor:
#      x y z
#    x 2.029890 0.000000 0.000000 
#    y 0.000000 2.154140 0.000000 
#    z 0.000000 0.000000 2.069730 
# 
# From -- ./inp_files/18905.got.cif
#   From: 2010.05.17/outbox.cif.g08.bks.cpg/sg68_10_cif.got.tgz:18905.got - 2010.06.03 18:57:09.
