data_PCOD9510086
_publ_section_title
;
Structure prediction by ZEFSAII (Michael W. Deem and Ramdas Pophale) SiO2 
 PCOD9510086
Probable space group: C C C A
;
_chemical_formula_sum "Si O2"
_cell_formula_units_Z 96
_cell_length_a 22.268564
_cell_length_b 11.947985
_cell_length_c 18.482599
_cell_angle_alpha 90.000000
_cell_angle_beta 90.000000
_cell_angle_gamma 90.000000
_cell_volume 4917.562882
_symmetry_space_group_name_H-M "C C C A"
_symmetry_group_IT_number 68
_space_group.IT_coordinate_system_code '2'
_symmetry_cell_setting 'orthorhombic'
loop_
_space_group_symop_operation_xyz
x,y,z
-x,1/2-y,z
x,1/2-y,1/2-z
-x,y,1/2-z
-x,-y,-z
x,1/2+y,-z
-x,1/2+y,1/2+z
x,-y,1/2+z
1/2+x,1/2+y,z
1/2-x,-y,z
1/2+x,-y,1/2-z
1/2-x,1/2+y,1/2-z
1/2-x,1/2-y,-z
1/2+x,y,-z
1/2-x,y,1/2+z
1/2+x,1/2-y,1/2+z
loop_
_atom_site_type_symbol
_atom_site_label
_atom_site_fract_x
_atom_site_fract_y
_atom_site_fract_z
Si Si1 0.310561 0.284247 0.169075
Si Si2 0.106545 0.463852 0.605378
Si Si3 0.301127 0.074019 0.084074
Si Si4 0.696848 0.662764 0.432012
Si Si5 0.609518 0.121699 0.949641
Si Si6 0.002282 0.614691 0.835279
O O1 0.295087 0.250000 0.250000
O O2 0.362327 0.376716 0.160680
O O3 0.330543 0.169400 0.131230
O O4 0.250520 0.317974 0.124535
O O5 0.159042 0.553893 0.590086
O O6 0.089314 0.391974 0.533390
O O7 0.051167 0.540163 0.630950
O O8 0.250000 0.000000 0.122350
O O9 0.348012 0.983736 0.059804
O O10 0.276498 0.133929 0.011391
O O11 0.649216 0.765710 0.437711
O O12 0.559221 0.102013 0.888699
O O13 0.000000 0.750000 0.835439
O O14 0.000000 0.583269 0.750000
#
# Coordination Sequence:
#
# PCOD9510086 Si02
#       6
#    16  16  16  16  16  16
#     4  12  26  40  63 100 137 176 213 269 350 399
#     4  11  24  44  69  94 138 171 225 283 327 406
#     4  11  22  39  67  94 133 173 216 269 327 406
#     4  11  21  42  68  98 131 170 222 274 328 399
#     4  11  22  42  71  98 123 175 229 275 329 398
#     4  11  25  44  68  97 130 176 226 280 341 400
#
# _framework density 19.521864999999998
#
# number of rings (size 3 to 8) (size 9 to 14) (size 15 to 20)
#    0.000    0.833    5.000    3.500    2.333    2.667 
#    0.000    0.833    0.000    0.000    0.000    0.000 
#    0.000    0.000    0.000    0.000    0.000    0.000 
#
# Total GULP energy -267529.741289 kJ/mol
# GULP energy per Si atom -5573.536277 kJ/mol
# Density = 1.947743 g / cm^3
# Si number density = 19.521865 Si / 1000 Ang^3
#
#
#
# Elastic Constant Matrix: (Units=GPa)
#
#
# Indices 1 2 3 4 5 6 
#
# 1 80.7745 30.7590 35.5669 0.0000 0.0000 0.0000
# 2 30.7590 115.1550 30.0974 0.0000 0.0000 0.0000
# 3 35.5669 30.0974 106.0158 0.0000 0.0000 0.0000
# 4 0.0000 0.0000 0.0000 -10.3385 0.0000 0.0000
# 5 0.0000 0.0000 0.0000 0.0000 19.4672 0.0000
# 6 0.0000 0.0000 0.0000 0.0000 0.0000 39.8646
#
#
#
# Elastic Compliance Matrix: (Units=1/GPa)
#
#
# Indices 1 2 3 4 5 6 
#
# 1 0.015423 -0.002989 -0.004326 0.000000 0.000000 0.000000
# 2 -0.002989 0.009959 -0.001825 0.000000 0.000000 0.000000
# 3 -0.004326 -0.001825 0.011402 0.000000 0.000000 0.000000
# 4 0.000000 0.000000 0.000000 -0.096726 0.000000 0.000000
# 5 0.000000 0.000000 0.000000 0.000000 0.051368 0.000000
# 6 0.000000 0.000000 0.000000 0.000000 0.000000 0.025085
#
#
# Mechanical properties :
#
#
# Convention : Reuss Voigt Hill
#
# Bulk Modulus (GPa) = 54.03820 54.97687 54.50753
# Shear Modulus (GPa) = 122.07398 23.50013 72.78705
#
# Velocity S-wave (km/s) = 7.91629 3.47332 6.11276
# Velocity P-wave (km/s) = 10.54978 6.65644 8.82060
#
# Compressibility (1/GPa) = 0.01850543
#
# Stress axis : x y z
#
# Youngs Moduli (GPa) = 64.83790 100.40930 87.70585
#
# Poissons Ratio (x) = 0.30013 0.37938
# Poissons Ratio (y) = 0.19381 0.16003
# Poissons Ratio (z) = 0.28047 0.18320
#
# Static dielectric constant tensor:
#      x y z
#    x 1.713620 0.000000 0.000000 
#    y 0.000000 1.596200 0.000000 
#    z 0.000000 0.000000 1.729020 
# 
# From -- ./inp_files/29800.got.cif
#   From: 2010.05.17/outbox.cif.g08.bks.cpg/sg68_15_cif.got.tgz:29800.got - 2010.06.03 18:57:09.
