data_PCOD9510698
_publ_section_title
;
Structure prediction by ZEFSAII (Michael W. Deem and Ramdas Pophale) SiO2 
 PCOD9510698
Probable space group: C C C A
;
_chemical_formula_sum "Si O2"
_cell_formula_units_Z 68
_cell_length_a 8.222177
_cell_length_b 17.063249
_cell_length_c 22.888570
_cell_angle_alpha 90.000000
_cell_angle_beta 90.000000
_cell_angle_gamma 90.000000
_cell_volume 3211.198929
_symmetry_space_group_name_H-M "C C C A"
_symmetry_group_IT_number 68
_space_group.IT_coordinate_system_code '2'
_symmetry_cell_setting 'orthorhombic'
loop_
_space_group_symop_operation_xyz
x,y,z
-x,1/2-y,z
x,1/2-y,1/2-z
-x,y,1/2-z
-x,-y,-z
x,1/2+y,-z
-x,1/2+y,1/2+z
x,-y,1/2+z
1/2+x,1/2+y,z
1/2-x,-y,z
1/2+x,-y,1/2-z
1/2-x,1/2+y,1/2-z
1/2-x,1/2-y,-z
1/2+x,y,-z
1/2-x,y,1/2+z
1/2+x,1/2-y,1/2+z
loop_
_atom_site_type_symbol
_atom_site_label
_atom_site_fract_x
_atom_site_fract_y
_atom_site_fract_z
Si Si1 0.000000 0.250000 0.750000
Si Si2 0.889035 0.157346 0.646650
Si Si3 0.250000 0.500000 0.166335
Si Si4 0.188150 0.727504 0.935681
Si Si5 0.742288 0.405465 0.646910
Si Si6 0.000000 0.077587 0.250000
O O1 0.117433 0.303202 0.710287
O O2 0.813428 0.222983 0.604782
O O3 0.074556 0.127507 0.649386
O O4 0.788261 0.079265 0.633154
O O5 0.395507 0.521912 0.208857
O O6 0.186521 0.637722 0.912588
O O7 0.000000 0.750000 0.929396
O O8 0.250000 0.750000 0.000000
O O9 0.750000 0.500000 0.644544
O O10 0.624553 0.382866 0.702436
#
# Coordination Sequence:
#
# PCOD9510698 Si02
#       6
#     4  16   8  16  16   8
#     4  12  22  44  70 106 148 206 234 308 396 446
#     4  12  25  45  71 106 153 197 250 309 388 454
#     4  12  22  38  62 104 142 194 236 308 364 454
#     4  12  28  54  77 107 149 201 263 327 382 462
#     4  12  24  47  73 112 153 204 253 311 385 464
#     4  12  21  38  69 104 156 188 248 299 380 459
#
# _framework density 21.175891
#
# number of rings (size 3 to 8) (size 9 to 14) (size 15 to 20)
#    0.000    0.000    5.882    4.941    0.000    0.000 
#    2.118    2.353    0.000    0.000    0.000    0.000 
#    0.000    0.000    0.000    0.000    0.000    0.000 
#
# Total GULP energy -189371.827908 kJ/mol
# GULP energy per Si atom -5569.759644 kJ/mol
# Density = 2.112769 g / cm^3
# Si number density = 21.175891 Si / 1000 Ang^3
#
#
#
# Elastic Constant Matrix: (Units=GPa)
#
#
# Indices 1 2 3 4 5 6 
#
# 1 137.6443 45.8538 39.9663 0.0000 0.0000 0.0000
# 2 45.8538 134.1880 56.5921 0.0000 0.0000 0.0000
# 3 39.9663 56.5921 124.0198 0.0000 0.0000 0.0000
# 4 0.0000 0.0000 0.0000 22.1273 0.0000 0.0000
# 5 0.0000 0.0000 0.0000 0.0000 21.5701 0.0000
# 6 0.0000 0.0000 0.0000 0.0000 0.0000 28.5485
#
#
#
# Elastic Compliance Matrix: (Units=1/GPa)
#
#
# Indices 1 2 3 4 5 6 
#
# 1 0.008494 -0.002165 -0.001750 0.000000 0.000000 0.000000
# 2 -0.002165 0.009780 -0.003765 0.000000 0.000000 0.000000
# 3 -0.001750 -0.003765 0.010345 0.000000 0.000000 0.000000
# 4 0.000000 0.000000 0.000000 0.045193 0.000000 0.000000
# 5 0.000000 0.000000 0.000000 0.000000 0.046361 0.000000
# 6 0.000000 0.000000 0.000000 0.000000 0.000000 0.035028
#
#
# Mechanical properties :
#
#
# Convention : Reuss Voigt Hill
#
# Bulk Modulus (GPa) = 75.41221 75.63073 75.52147
# Shear Modulus (GPa) = 28.57474 31.34516 29.95995
#
# Velocity S-wave (km/s) = 3.67740 3.85155 3.76548
# Velocity P-wave (km/s) = 7.32944 7.45468 7.39232
#
# Compressibility (1/GPa) = 0.01326045
#
# Stress axis : x y z
#
# Youngs Moduli (GPa) = 117.72674 102.25125 96.66421
#
# Poissons Ratio (x) = 0.22135 0.16912
# Poissons Ratio (y) = 0.25485 0.36395
# Poissons Ratio (z) = 0.20597 0.38498
#
# Static dielectric constant tensor:
#      x y z
#    x 1.883730 0.000000 0.000000 
#    y 0.000000 1.811150 0.000000 
#    z 0.000000 0.000000 1.791720 
# 
# From -- ./inp_files/35904.got.cif
#   From: 2010.05.17/outbox.cif.g08.bks.cpg/sg68_18_cif.got.tgz:35904.got - 2010.06.03 18:57:09.
