data_PCOD9510726
_publ_section_title
;
Structure prediction by ZEFSAII (Michael W. Deem and Ramdas Pophale) SiO2 
 PCOD9510726
Probable space group: C C C A
;
_chemical_formula_sum "Si O2"
_cell_formula_units_Z 48
_cell_length_a 8.006906
_cell_length_b 13.563658
_cell_length_c 17.576480
_cell_angle_alpha 90.000000
_cell_angle_beta 90.000000
_cell_angle_gamma 90.000000
_cell_volume 1908.857308
_symmetry_space_group_name_H-M "C C C A"
_symmetry_group_IT_number 68
_space_group.IT_coordinate_system_code '2'
_symmetry_cell_setting 'orthorhombic'
loop_
_space_group_symop_operation_xyz
x,y,z
-x,1/2-y,z
x,1/2-y,1/2-z
-x,y,1/2-z
-x,-y,-z
x,1/2+y,-z
-x,1/2+y,1/2+z
x,-y,1/2+z
1/2+x,1/2+y,z
1/2-x,-y,z
1/2+x,-y,1/2-z
1/2-x,1/2+y,1/2-z
1/2-x,1/2-y,-z
1/2+x,y,-z
1/2-x,y,1/2+z
1/2+x,1/2-y,1/2+z
loop_
_atom_site_type_symbol
_atom_site_label
_atom_site_fract_x
_atom_site_fract_y
_atom_site_fract_z
Si Si1 0.979378 0.635750 0.529799
Si Si2 0.500000 0.114201 0.250000
Si Si3 0.250000 0.500000 0.364072
Si Si4 0.684562 0.600685 0.880202
O O1 0.836846 0.587494 0.584682
O O2 0.947974 0.584139 0.448355
O O3 0.000000 0.750000 0.505762
O O4 0.152100 0.631008 0.574724
O O5 0.611066 0.049201 0.308722
O O6 0.621088 0.166498 0.189001
O O7 0.750000 0.500000 0.843405
#
# Coordination Sequence:
#
# PCOD9510726 Si02
#       4
#    16   8   8  16
#     4  12  26  46  74 107 142 190 251 307 360 439
#     4  12  24  42  76 100 142 198 232 288 379 437
#     4  12  22  46  72 104 146 192 246 302 368 448
#     4  12  23  46  73 103 139 188 238 297 366 439
#
# _framework density 25.145934
#
# number of rings (size 3 to 8) (size 9 to 14) (size 15 to 20)
#    0.000    0.000    6.667    4.000    0.000    0.000 
#    0.000   13.333    0.000    0.000    0.000    0.000 
#    0.000    0.000    0.000    0.000    0.000    0.000 
#
# Total GULP energy -133768.249253 kJ/mol
# GULP energy per Si atom -5573.677052 kJ/mol
# Density = 2.508870 g / cm^3
# Si number density = 25.145934 Si / 1000 Ang^3
#
#
#
# Elastic Constant Matrix: (Units=GPa)
#
#
# Indices 1 2 3 4 5 6 
#
# 1 129.1327 5.6214 85.8080 0.0000 0.0000 0.0000
# 2 5.6214 50.8184 14.8030 0.0000 0.0000 0.0000
# 3 85.8080 14.8030 247.3234 0.0000 0.0000 0.0000
# 4 0.0000 0.0000 0.0000 15.2050 0.0000 0.0000
# 5 0.0000 0.0000 0.0000 0.0000 50.3504 0.0000
# 6 0.0000 0.0000 0.0000 0.0000 0.0000 26.2701
#
#
#
# Elastic Compliance Matrix: (Units=1/GPa)
#
#
# Indices 1 2 3 4 5 6 
#
# 1 0.010065 -0.000098 -0.003486 0.000000 0.000000 0.000000
# 2 -0.000098 0.020028 -0.001165 0.000000 0.000000 0.000000
# 3 -0.003486 -0.001165 0.005322 0.000000 0.000000 0.000000
# 4 0.000000 0.000000 0.000000 0.065768 0.000000 0.000000
# 5 0.000000 0.000000 0.000000 0.000000 0.019861 0.000000
# 6 0.000000 0.000000 0.000000 0.000000 0.000000 0.038066
#
#
# Mechanical properties :
#
#
# Convention : Reuss Voigt Hill
#
# Bulk Modulus (GPa) = 38.58352 71.08213 54.83282
# Shear Modulus (GPa) = 28.20931 39.76792 33.98862
#
# Velocity S-wave (km/s) = 3.35300 3.98110 3.68047
# Velocity P-wave (km/s) = 5.51065 7.03288 6.31778
#
# Compressibility (1/GPa) = 0.02591780
#
# Stress axis : x y z
#
# Youngs Moduli (GPa) = 99.35722 49.93003 187.88250
#
# Poissons Ratio (x) = 0.00489 0.65497
# Poissons Ratio (y) = 0.00972 0.21884
# Poissons Ratio (z) = 0.34636 0.05816
#
# Static dielectric constant tensor:
#      x y z
#    x 2.174040 0.000000 0.000000 
#    y 0.000000 2.140970 0.000000 
#    z 0.000000 0.000000 1.900130 
# 
# From -- ./inp_files/22979.got.cif
#   From: 2010.05.17/outbox.cif.g08.bks.cpg/sg68_12_cif.got.tgz:22979.got - 2010.06.03 18:57:09.
