data_PCOD9510525
_publ_section_title
;
Structure prediction by ZEFSAII (Michael W. Deem and Ramdas Pophale) SiO2 
 PCOD9510525
Probable space group: C C C A
;
_chemical_formula_sum "Si O2"
_cell_formula_units_Z 100
_cell_length_a 15.938380
_cell_length_b 16.187096
_cell_length_c 14.621937
_cell_angle_alpha 90.000000
_cell_angle_beta 90.000000
_cell_angle_gamma 90.000000
_cell_volume 3772.402532
_symmetry_space_group_name_H-M "C C C A"
_symmetry_group_IT_number 68
_space_group.IT_coordinate_system_code '2'
_symmetry_cell_setting 'orthorhombic'
loop_
_space_group_symop_operation_xyz
x,y,z
-x,1/2-y,z
x,1/2-y,1/2-z
-x,y,1/2-z
-x,-y,-z
x,1/2+y,-z
-x,1/2+y,1/2+z
x,-y,1/2+z
1/2+x,1/2+y,z
1/2-x,-y,z
1/2+x,-y,1/2-z
1/2-x,1/2+y,1/2-z
1/2-x,1/2-y,-z
1/2+x,y,-z
1/2-x,y,1/2+z
1/2+x,1/2-y,1/2+z
loop_
_atom_site_type_symbol
_atom_site_label
_atom_site_fract_x
_atom_site_fract_y
_atom_site_fract_z
Si Si1 0.252720 0.099854 0.517462
Si Si2 0.764900 0.597770 0.806625
Si Si3 0.449648 0.650737 0.622045
Si Si4 0.440868 0.969677 0.336173
Si Si5 0.932929 0.144198 0.416531
Si Si6 0.862741 0.179584 0.838593
Si Si7 0.000000 0.750000 0.750000
O O1 0.254886 0.124870 0.410950
O O2 0.336170 0.121761 0.573060
O O3 0.176389 0.147794 0.565399
O O4 0.250000 0.000000 0.519438
O O5 0.750000 0.500000 0.789140
O O6 0.866693 0.593809 0.811509
O O7 0.710879 0.646842 0.730614
O O8 0.410181 0.559649 0.632826
O O9 0.454328 0.677027 0.516809
O O10 0.393516 0.724674 0.663043
O O11 0.543356 0.640864 0.663647
O O12 0.500000 0.979250 0.250000
O O13 0.503007 0.932057 0.410189
O O14 0.948030 0.197248 0.325247
#
# Coordination Sequence:
#
# PCOD9510525 Si02
#       7
#    16  16  16  16  16  16   4
#     4  11  24  48  84 123 168 221 287 356 437 520
#     4  11  24  46  80 123 169 225 284 354 429 513
#     4  11  25  47  81 120 171 229 283 351 439 513
#     4  12  24  48  87 126 163 225 287 349 425 525
#     4  12  26  51  86 122 165 224 284 355 424 518
#     4  11  24  47  77 121 177 221 278 362 430 515
#     4  12  28  52  80 128 162 220 292 344 424 516
#
# _framework density 26.508305
#
# number of rings (size 3 to 8) (size 9 to 14) (size 15 to 20)
#    0.000    0.640    0.800    7.680    0.000    0.640 
#    0.000   16.000    7.040    5.760    0.000    0.000 
#    0.000    0.000    0.000    0.000    0.000    0.000 
#
# Total GULP energy -279637.058771 kJ/mol
# GULP energy per Si atom -5592.741175 kJ/mol
# Density = 2.644797 g / cm^3
# Si number density = 26.508305 Si / 1000 Ang^3
#
#
#
# Elastic Constant Matrix: (Units=GPa)
#
#
# Indices 1 2 3 4 5 6 
#
# 1 215.6328 78.2003 98.9778 0.0000 0.0000 0.0000
# 2 78.2003 132.5110 79.2374 0.0000 0.0000 0.0000
# 3 98.9778 79.2374 218.7848 0.0000 0.0000 0.0000
# 4 0.0000 0.0000 0.0000 -13.8378 0.0000 0.0000
# 5 0.0000 0.0000 0.0000 0.0000 53.1558 0.0000
# 6 0.0000 0.0000 0.0000 0.0000 0.0000 61.2458
#
#
#
# Elastic Compliance Matrix: (Units=1/GPa)
#
#
# Indices 1 2 3 4 5 6 
#
# 1 0.006511 -0.002657 -0.001984 0.000000 0.000000 0.000000
# 2 -0.002657 0.010716 -0.002679 0.000000 0.000000 0.000000
# 3 -0.001984 -0.002679 0.006438 0.000000 0.000000 0.000000
# 4 0.000000 0.000000 0.000000 -0.072266 0.000000 0.000000
# 5 0.000000 0.000000 0.000000 0.000000 0.018813 0.000000
# 6 0.000000 0.000000 0.000000 0.000000 0.000000 0.016328
#
#
# Mechanical properties :
#
#
# Convention : Reuss Voigt Hill
#
# Bulk Modulus (GPa) = 110.77520 119.97328 115.37424
# Shear Modulus (GPa) = 1193.65375 40.81364 617.23369
#
# Velocity S-wave (km/s) = 21.24316 3.92810 15.27583
# Velocity P-wave (km/s) = 25.36879 8.11975 18.83488
#
# Compressibility (1/GPa) = 0.00902729
#
# Stress axis : x y z
#
# Youngs Moduli (GPa) = 153.57627 93.31447 155.31582
#
# Poissons Ratio (x) = 0.24789 0.30809
# Poissons Ratio (y) = 0.40798 0.41615
# Poissons Ratio (z) = 0.30464 0.25003
#
# Static dielectric constant tensor:
#      x y z
#    x 2.153880 0.000000 0.000000 
#    y 0.000000 2.157220 0.000000 
#    z 0.000000 0.000000 1.594520 
# 
# From -- ./inp_files/22534.got.cif
#   From: 2010.05.17/outbox.cif.g08.bks.cpg/sg68_12_cif.got.tgz:22534.got - 2010.06.03 18:57:09.
