data_PCOD9510309
_publ_section_title
;
Structure prediction by ZEFSAII (Michael W. Deem and Ramdas Pophale) SiO2 
 PCOD9510309
Probable space group: C C C A
;
_chemical_formula_sum "Si O2"
_cell_formula_units_Z 68
_cell_length_a 18.261443
_cell_length_b 14.086480
_cell_length_c 11.496736
_cell_angle_alpha 90.000000
_cell_angle_beta 90.000000
_cell_angle_gamma 90.000000
_cell_volume 2957.414064
_symmetry_space_group_name_H-M "C C C A"
_symmetry_group_IT_number 68
_space_group.IT_coordinate_system_code '2'
_symmetry_cell_setting 'orthorhombic'
loop_
_space_group_symop_operation_xyz
x,y,z
-x,1/2-y,z
x,1/2-y,1/2-z
-x,y,1/2-z
-x,-y,-z
x,1/2+y,-z
-x,1/2+y,1/2+z
x,-y,1/2+z
1/2+x,1/2+y,z
1/2-x,-y,z
1/2+x,-y,1/2-z
1/2-x,1/2+y,1/2-z
1/2-x,1/2-y,-z
1/2+x,y,-z
1/2-x,y,1/2+z
1/2+x,1/2-y,1/2+z
loop_
_atom_site_type_symbol
_atom_site_label
_atom_site_fract_x
_atom_site_fract_y
_atom_site_fract_z
Si Si1 0.000000 0.750000 0.750000
Si Si2 0.290229 0.102525 0.072999
Si Si3 0.167606 0.744395 0.616826
Si Si4 0.462315 0.637050 0.460512
Si Si5 0.444109 0.062768 0.146509
O O1 0.011332 0.669762 0.647853
O O2 0.237444 0.185879 0.119990
O O3 0.360251 0.093986 0.158711
O O4 0.250000 0.000000 0.065401
O O5 0.314640 0.144512 0.945439
O O6 0.135613 0.750000 0.750000
O O7 0.109640 0.799482 0.537122
O O8 0.436937 0.530588 0.433858
O O9 0.511557 0.639591 0.572835
O O10 0.500000 0.041197 0.250000
#
# Coordination Sequence:
#
# PCOD9510309 Si02
#       5
#     4  16  16  16  16
#     4  12  20  40  66 100 140 182 234 294 348 436
#     4  11  25  47  71 109 148 188 244 306 368 444
#     4  11  25  46  72 103 143 198 243 295 369 439
#     4  11  23  41  71 103 140 187 242 292 359 435
#     4  11  25  45  72 109 143 191 242 306 367 431
#
# _framework density 22.993061000000001
#
# number of rings (size 3 to 8) (size 9 to 14) (size 15 to 20)
#    0.000    0.941    4.706    1.412    0.000    4.706 
#    0.000    4.118    0.000    0.000    0.000    0.000 
#    0.000    0.000    0.000    0.000    0.000    0.000 
#
# Total GULP energy -189401.849144 kJ/mol
# GULP energy per Si atom -5570.642622 kJ/mol
# Density = 2.294073 g / cm^3
# Si number density = 22.993061 Si / 1000 Ang^3
#
#
#
# Elastic Constant Matrix: (Units=GPa)
#
#
# Indices 1 2 3 4 5 6 
#
# 1 144.4527 41.8566 0.0139 0.0000 0.0000 0.0000
# 2 41.8566 103.4177 3.7312 0.0000 0.0000 0.0000
# 3 0.0139 3.7312 17.7858 0.0000 0.0000 0.0000
# 4 0.0000 0.0000 0.0000 28.6046 0.0000 0.0000
# 5 0.0000 0.0000 0.0000 0.0000 27.1919 0.0000
# 6 0.0000 0.0000 0.0000 0.0000 0.0000 40.0586
#
#
#
# Elastic Compliance Matrix: (Units=1/GPa)
#
#
# Indices 1 2 3 4 5 6 
#
# 1 0.007850 -0.003201 0.000665 0.000000 0.000000 0.000000
# 2 -0.003201 0.011049 -0.002315 0.000000 0.000000 0.000000
# 3 0.000665 -0.002315 0.056710 0.000000 0.000000 0.000000
# 4 0.000000 0.000000 0.000000 0.034959 0.000000 0.000000
# 5 0.000000 0.000000 0.000000 0.000000 0.036776 0.000000
# 6 0.000000 0.000000 0.000000 0.000000 0.000000 0.024963
#
#
# Mechanical properties :
#
#
# Convention : Reuss Voigt Hill
#
# Bulk Modulus (GPa) = 15.17305 39.65108 27.41206
# Shear Modulus (GPa) = 24.51242 33.84133 29.17688
#
# Velocity S-wave (km/s) = 3.26863 3.84057 3.56609
# Velocity P-wave (km/s) = 4.56712 6.07856 5.37622
#
# Compressibility (1/GPa) = 0.06590632
#
# Stress axis : x y z
#
# Youngs Moduli (GPa) = 127.38513 90.50831 17.63367
#
# Poissons Ratio (x) = 0.28974 -0.01173
# Poissons Ratio (y) = 0.40779 0.04083
# Poissons Ratio (z) = -0.08477 0.20956
#
# Static dielectric constant tensor:
#      x y z
#    x 1.942520 0.000000 0.000000 
#    y 0.000000 1.938310 0.000000 
#    z 0.000000 0.000000 1.889950 
# 
# From -- ./inp_files/15253.got.cif
#   From: 2010.05.17/outbox.cif.g08.bks.cpg/sg68_8_cif.got.tgz:15253.got - 2010.06.03 18:57:09.
