data_PCOD9510724
_publ_section_title
;
Structure prediction by ZEFSAII (Michael W. Deem and Ramdas Pophale) SiO2 
 PCOD9510724
Probable space group: C C C A
;
_chemical_formula_sum "Si O2"
_cell_formula_units_Z 52
_cell_length_a 29.493028
_cell_length_b 5.254335
_cell_length_c 14.401159
_cell_angle_alpha 90.000000
_cell_angle_beta 90.000000
_cell_angle_gamma 90.000000
_cell_volume 2231.693595
_symmetry_space_group_name_H-M "C C C A"
_symmetry_group_IT_number 68
_space_group.IT_coordinate_system_code '2'
_symmetry_cell_setting 'orthorhombic'
loop_
_space_group_symop_operation_xyz
x,y,z
-x,1/2-y,z
x,1/2-y,1/2-z
-x,y,1/2-z
-x,-y,-z
x,1/2+y,-z
-x,1/2+y,1/2+z
x,-y,1/2+z
1/2+x,1/2+y,z
1/2-x,-y,z
1/2+x,-y,1/2-z
1/2-x,1/2+y,1/2-z
1/2-x,1/2-y,-z
1/2+x,y,-z
1/2-x,y,1/2+z
1/2+x,1/2-y,1/2+z
loop_
_atom_site_type_symbol
_atom_site_label
_atom_site_fract_x
_atom_site_fract_y
_atom_site_fract_z
Si Si1 0.578183 0.910000 0.164848
Si Si2 0.163040 0.627723 0.064412
Si Si3 0.279221 0.750000 0.750000
Si Si4 0.000000 0.250000 0.750000
Si Si5 0.500000 0.250000 0.940916
O O1 0.599962 0.750000 0.250000
O O2 0.549159 0.710415 0.107331
O O3 0.613081 0.078841 0.107824
O O4 0.535033 0.075459 0.195740
O O5 0.192882 0.671317 0.157310
O O6 0.170179 0.371108 0.002945
O O7 0.250000 0.500000 0.773997
O O8 0.500000 0.500000 0.000000
#
# Coordination Sequence:
#
# PCOD9510724 Si02
#       5
#    16  16   8   4   8
#     4  12  26  44  72 105 156 220 270 336 395 459
#     4  12  30  52  83 124 163 211 267 333 407 493
#     4  12  29  56  92 123 162 207 254 334 419 504
#     4  12  22  44  72 104 156 220 284 340 386 452
#     4  12  24  42  63 101 146 200 270 328 384 448
#
# _framework density 23.300688999999998
#
# number of rings (size 3 to 8) (size 9 to 14) (size 15 to 20)
#    0.000    0.000    3.077    5.538   10.769    3.692 
#    0.000    0.000    0.000    0.000    0.000    0.000 
#    0.000    0.000    0.000    0.000    0.000    0.000 
#
# Total GULP energy -145199.654934 kJ/mol
# GULP energy per Si atom -5584.602113 kJ/mol
# Density = 2.324766 g / cm^3
# Si number density = 23.300689 Si / 1000 Ang^3
#
#
#
# Elastic Constant Matrix: (Units=GPa)
#
#
# Indices 1 2 3 4 5 6 
#
# 1 109.4561 49.7788 66.2265 0.0000 0.0000 0.0000
# 2 49.7788 171.0833 77.6011 0.0000 0.0000 0.0000
# 3 66.2265 77.6011 152.3856 0.0000 0.0000 0.0000
# 4 0.0000 0.0000 0.0000 -23.7045 0.0000 0.0000
# 5 0.0000 0.0000 0.0000 0.0000 7.0037 0.0000
# 6 0.0000 0.0000 0.0000 0.0000 0.0000 61.5458
#
#
#
# Elastic Compliance Matrix: (Units=1/GPa)
#
#
# Indices 1 2 3 4 5 6 
#
# 1 0.012704 -0.001550 -0.004732 0.000000 0.000000 0.000000
# 2 -0.001550 0.007790 -0.003293 0.000000 0.000000 0.000000
# 3 -0.004732 -0.003293 0.010296 0.000000 0.000000 0.000000
# 4 0.000000 0.000000 0.000000 -0.042186 0.000000 0.000000
# 5 0.000000 0.000000 0.000000 0.000000 0.142782 0.000000
# 6 0.000000 0.000000 0.000000 0.000000 0.000000 0.016248
#
#
# Mechanical properties :
#
#
# Convention : Reuss Voigt Hill
#
# Bulk Modulus (GPa) = 85.91499 91.12642 88.52070
# Shear Modulus (GPa) = 29.29732 24.92357 27.11045
#
# Velocity S-wave (km/s) = 3.54977 3.27410 3.41472
# Velocity P-wave (km/s) = 7.33168 7.31346 7.32258
#
# Compressibility (1/GPa) = 0.01163941
#
# Stress axis : x y z
#
# Youngs Moduli (GPa) = 78.71531 128.37107 97.12718
#
# Poissons Ratio (x) = 0.19899 0.45958
# Poissons Ratio (y) = 0.12202 0.31987
# Poissons Ratio (z) = 0.37246 0.42276
#
# Static dielectric constant tensor:
#      x y z
#    x 1.899080 0.000000 0.000000 
#    y 0.000000 1.138340 0.000000 
#    z 0.000000 0.000000 1.653720 
# 
# From -- ./inp_files/26236.got.cif
#   From: 2010.05.17/outbox.cif.g08.bks.cpg/sg68_14_cif.got.tgz:26236.got - 2010.06.03 18:57:09.
