data_PCOD9510484
_publ_section_title
;
Structure prediction by ZEFSAII (Michael W. Deem and Ramdas Pophale) SiO2 
 PCOD9510484
Probable space group: C C C A
;
_chemical_formula_sum "Si O2"
_cell_formula_units_Z 44
_cell_length_a 5.079528
_cell_length_b 13.380342
_cell_length_c 23.895128
_cell_angle_alpha 90.000000
_cell_angle_beta 90.000000
_cell_angle_gamma 90.000000
_cell_volume 1624.052012
_symmetry_space_group_name_H-M "C C C A"
_symmetry_group_IT_number 68
_space_group.IT_coordinate_system_code '2'
_symmetry_cell_setting 'orthorhombic'
loop_
_space_group_symop_operation_xyz
x,y,z
-x,1/2-y,z
x,1/2-y,1/2-z
-x,y,1/2-z
-x,-y,-z
x,1/2+y,-z
-x,1/2+y,1/2+z
x,-y,1/2+z
1/2+x,1/2+y,z
1/2-x,-y,z
1/2+x,-y,1/2-z
1/2-x,1/2+y,1/2-z
1/2-x,1/2-y,-z
1/2+x,y,-z
1/2-x,y,1/2+z
1/2+x,1/2-y,1/2+z
loop_
_atom_site_type_symbol
_atom_site_label
_atom_site_fract_x
_atom_site_fract_y
_atom_site_fract_z
Si Si1 0.500000 0.250000 0.250000
Si Si2 0.750000 0.000000 0.790757
Si Si3 0.716315 0.379039 0.965865
Si Si4 0.869161 0.386922 0.845273
O O1 0.679201 0.183133 0.208351
O O2 0.500000 0.011503 0.750000
O O3 0.678740 0.910038 0.832792
O O4 0.750000 0.500000 0.962489
O O5 0.795872 0.341322 0.904523
O O6 0.425921 0.352592 0.986168
O O7 0.750000 0.500000 0.846241
#
# Coordination Sequence:
#
# PCOD9510484 Si02
#       4
#     4   8  16  16
#     4  12  24  48  74 110 142 212 250 294 398 438
#     4  12  22  40  66  96 144 190 226 304 362 416
#     4   9  20  37  68 103 138 190 240 297 375 438
#     4  11  24  44  74 106 150 189 251 309 365 451
#
# _framework density 27.092727
#
# number of rings (size 3 to 8) (size 9 to 14) (size 15 to 20)
#    0.000    1.455    3.636    0.000   12.727    0.000 
#    0.000   10.000    0.000    0.000    0.000    0.000 
#    0.000    0.000    0.000    0.000    0.000    0.000 
#
# Total GULP energy -122823.339572 kJ/mol
# GULP energy per Si atom -5582.879071 kJ/mol
# Density = 2.703106 g / cm^3
# Si number density = 27.092727 Si / 1000 Ang^3
#
#
#
# Elastic Constant Matrix: (Units=GPa)
#
#
# Indices 1 2 3 4 5 6 
#
# 1 113.8876 -5.5682 58.7197 0.0000 0.0000 0.0000
# 2 -5.5682 119.6557 23.3084 0.0000 0.0000 0.0000
# 3 58.7197 23.3084 261.7650 0.0000 0.0000 0.0000
# 4 0.0000 0.0000 0.0000 29.2576 0.0000 0.0000
# 5 0.0000 0.0000 0.0000 0.0000 27.5642 0.0000
# 6 0.0000 0.0000 0.0000 0.0000 0.0000 34.6166
#
#
#
# Elastic Compliance Matrix: (Units=1/GPa)
#
#
# Indices 1 2 3 4 5 6 
#
# 1 0.010028 0.000921 -0.002331 0.000000 0.000000 0.000000
# 2 0.000921 0.008589 -0.000971 0.000000 0.000000 0.000000
# 3 -0.002331 -0.000971 0.004430 0.000000 0.000000 0.000000
# 4 0.000000 0.000000 0.000000 0.034179 0.000000 0.000000
# 5 0.000000 0.000000 0.000000 0.000000 0.036279 0.000000
# 6 0.000000 0.000000 0.000000 0.000000 0.000000 0.028888
#
#
# Mechanical properties :
#
#
# Convention : Reuss Voigt Hill
#
# Bulk Modulus (GPa) = 54.69639 72.02533 63.36086
# Shear Modulus (GPa) = 37.52319 46.21092 41.86706
#
# Velocity S-wave (km/s) = 3.72558 4.13444 3.93533
# Velocity P-wave (km/s) = 6.22407 7.03093 6.63977
#
# Compressibility (1/GPa) = 0.01828274
#
# Stress axis : x y z
#
# Youngs Moduli (GPa) = 99.72399 116.42285 225.74863
#
# Poissons Ratio (x) = -0.10720 0.52632
# Poissons Ratio (y) = -0.09183 0.21929
# Poissons Ratio (z) = 0.23250 0.11309
#
# Static dielectric constant tensor:
#      x y z
#    x 2.269510 0.000000 0.000000 
#    y 0.000000 2.397270 0.000000 
#    z 0.000000 0.000000 2.127050 
# 
# From -- ./inp_files/47777.got.cif
#   From: 2010.05.17/outbox.cif.g08.bks.cpg/sg68_24_cif.got.tgz:47777.got - 2010.06.03 18:57:09.
