data_PCOD9510638
_publ_section_title
;
Structure prediction by ZEFSAII (Michael W. Deem and Ramdas Pophale) SiO2 
 PCOD9510638
Probable space group: C C C A
;
_chemical_formula_sum "Si O2"
_cell_formula_units_Z 72
_cell_length_a 9.550908
_cell_length_b 24.873300
_cell_length_c 14.314232
_cell_angle_alpha 90.000000
_cell_angle_beta 90.000000
_cell_angle_gamma 90.000000
_cell_volume 3400.526170
_symmetry_space_group_name_H-M "C C C A"
_symmetry_group_IT_number 68
_space_group.IT_coordinate_system_code '2'
_symmetry_cell_setting 'orthorhombic'
loop_
_space_group_symop_operation_xyz
x,y,z
-x,1/2-y,z
x,1/2-y,1/2-z
-x,y,1/2-z
-x,-y,-z
x,1/2+y,-z
-x,1/2+y,1/2+z
x,-y,1/2+z
1/2+x,1/2+y,z
1/2-x,-y,z
1/2+x,-y,1/2-z
1/2-x,1/2+y,1/2-z
1/2-x,1/2-y,-z
1/2+x,y,-z
1/2-x,y,1/2+z
1/2+x,1/2-y,1/2+z
loop_
_atom_site_type_symbol
_atom_site_label
_atom_site_fract_x
_atom_site_fract_y
_atom_site_fract_z
Si Si1 0.942005 0.864565 0.886585
Si Si2 0.409325 0.510007 0.409867
Si Si3 0.000000 0.572363 0.250000
Si Si4 0.261335 0.152306 0.788904
Si Si5 0.635040 0.786139 0.550969
O O1 0.918068 0.928155 0.879658
O O2 0.838606 0.837717 0.809746
O O3 0.104899 0.859009 0.857143
O O4 0.903579 0.838168 0.986292
O O5 0.500000 0.500000 0.500000
O O6 0.250000 0.500000 0.433925
O O7 0.459163 0.467404 0.333523
O O8 0.138839 0.607716 0.226210
O O9 0.183782 0.198594 0.845653
O O10 0.500000 0.750000 0.556014
O O11 0.750000 0.750000 0.500000
#
# Coordination Sequence:
#
# PCOD9510638 Si02
#       5
#    16  16   8  16  16
#     4  11  26  49  73 110 151 196 250 309 374 452
#     4  12  28  45  76 110 155 201 246 299 376 446
#     4  12  26  48  75 116 149 194 248 306 374 454
#     4  11  26  48  77 105 151 193 251 309 376 453
#     4  12  27  50  76 108 146 194 255 314 380 444
#
# _framework density 21.173195
#
# number of rings (size 3 to 8) (size 9 to 14) (size 15 to 20)
#    0.000    0.444    4.444    2.667    9.333    0.889 
#    0.000    0.000    0.000    0.000    0.000    0.000 
#    0.000    0.000    0.000    0.000    0.000    0.000 
#
# Total GULP energy -201231.410990 kJ/mol
# GULP energy per Si atom -5589.761416 kJ/mol
# Density = 2.112500 g / cm^3
# Si number density = 21.173195 Si / 1000 Ang^3
#
#
#
# Elastic Constant Matrix: (Units=GPa)
#
#
# Indices 1 2 3 4 5 6 
#
# 1 183.7704 45.4828 53.3882 0.0000 0.0000 0.0000
# 2 45.4828 81.7408 29.9319 0.0000 0.0000 0.0000
# 3 53.3882 29.9319 103.9450 0.0000 0.0000 0.0000
# 4 0.0000 0.0000 0.0000 58.5887 0.0000 0.0000
# 5 0.0000 0.0000 0.0000 0.0000 35.7975 0.0000
# 6 0.0000 0.0000 0.0000 0.0000 0.0000 37.0019
#
#
#
# Elastic Compliance Matrix: (Units=1/GPa)
#
#
# Indices 1 2 3 4 5 6 
#
# 1 0.006947 -0.002860 -0.002744 0.000000 0.000000 0.000000
# 2 -0.002860 0.014854 -0.002808 0.000000 0.000000 0.000000
# 3 -0.002744 -0.002808 0.011839 0.000000 0.000000 0.000000
# 4 0.000000 0.000000 0.000000 0.017068 0.000000 0.000000
# 5 0.000000 0.000000 0.000000 0.000000 0.027935 0.000000
# 6 0.000000 0.000000 0.000000 0.000000 0.000000 0.027026
#
#
# Mechanical properties :
#
#
# Convention : Reuss Voigt Hill
#
# Bulk Modulus (GPa) = 59.47632 69.67354 64.57493
# Shear Modulus (GPa) = 39.03261 42.32116 40.67689
#
# Velocity S-wave (km/s) = 4.29825 4.47565 4.38785
# Velocity P-wave (km/s) = 7.26530 7.72571 7.49904
#
# Compressibility (1/GPa) = 0.01681342
#
# Stress axis : x y z
#
# Youngs Moduli (GPa) = 143.95115 67.32326 84.46936
#
# Poissons Ratio (x) = 0.19258 0.23181
# Poissons Ratio (y) = 0.41177 0.23720
# Poissons Ratio (z) = 0.39505 0.18905
#
# Static dielectric constant tensor:
#      x y z
#    x 1.735770 0.000000 0.000000 
#    y 0.000000 1.870590 0.000000 
#    z 0.000000 0.000000 1.723450 
# 
# From -- ./inp_files/19460.got.cif
#   From: 2010.05.17/outbox.cif.g08.bks.cpg/sg68_10_cif.got.tgz:19460.got - 2010.06.03 18:57:09.
