data_PCOD9510365
_publ_section_title
;
Structure prediction by ZEFSAII (Michael W. Deem and Ramdas Pophale) SiO2 
 PCOD9510365
Probable space group: C C C A
;
_chemical_formula_sum "Si O2"
_cell_formula_units_Z 68
_cell_length_a 9.827937
_cell_length_b 14.001884
_cell_length_c 20.211464
_cell_angle_alpha 90.000000
_cell_angle_beta 90.000000
_cell_angle_gamma 90.000000
_cell_volume 2781.292160
_symmetry_space_group_name_H-M "C C C A"
_symmetry_group_IT_number 68
_space_group.IT_coordinate_system_code '2'
_symmetry_cell_setting 'orthorhombic'
loop_
_space_group_symop_operation_xyz
x,y,z
-x,1/2-y,z
x,1/2-y,1/2-z
-x,y,1/2-z
-x,-y,-z
x,1/2+y,-z
-x,1/2+y,1/2+z
x,-y,1/2+z
1/2+x,1/2+y,z
1/2-x,-y,z
1/2+x,-y,1/2-z
1/2-x,1/2+y,1/2-z
1/2-x,1/2-y,-z
1/2+x,y,-z
1/2-x,y,1/2+z
1/2+x,1/2-y,1/2+z
loop_
_atom_site_type_symbol
_atom_site_label
_atom_site_fract_x
_atom_site_fract_y
_atom_site_fract_z
Si Si1 0.500000 0.750000 0.250000
Si Si2 0.638917 0.693145 0.045610
Si Si3 0.314662 0.398584 0.340006
Si Si4 0.568610 0.855212 0.584046
Si Si5 0.238089 0.116304 0.300439
O O1 0.597242 0.674314 0.289222
O O2 0.500000 0.750000 0.060955
O O3 0.595233 0.613568 0.990867
O O4 0.750000 0.750000 0.000000
O O5 0.713433 0.654393 0.109763
O O6 0.250000 0.500000 0.329004
O O7 0.457981 0.413360 0.375217
O O8 0.322000 0.356153 0.266320
O O9 0.500000 0.750000 0.580706
O O10 0.698871 0.850750 0.630500
O O11 0.250000 0.000000 0.305290
#
# Coordination Sequence:
#
# PCOD9510365 Si02
#       5
#     4  16  16  16  16
#     4  12  28  48  74 118 144 212 246 310 416 422
#     4  11  23  45  71 103 141 185 248 302 367 457
#     4  11  25  44  71 105 145 190 240 313 377 445
#     4  11  23  48  73 104 141 200 243 307 385 447
#     4  11  28  47  74 111 154 191 259 318 376 469
#
# _framework density 24.449066999999999
#
# number of rings (size 3 to 8) (size 9 to 14) (size 15 to 20)
#    0.000    0.941    4.706    2.118    8.235    2.824 
#    0.000    0.000    0.000    0.000    0.000    0.000 
#    0.000    0.000    0.000    0.000    0.000    0.000 
#
# Total GULP energy -189896.666037 kJ/mol
# GULP energy per Si atom -5585.196060 kJ/mol
# Density = 2.439342 g / cm^3
# Si number density = 24.449067 Si / 1000 Ang^3
#
#
#
# Elastic Constant Matrix: (Units=GPa)
#
#
# Indices 1 2 3 4 5 6 
#
# 1 125.3579 26.9633 11.5607 0.0000 0.0000 0.0000
# 2 26.9633 108.6711 26.6578 0.0000 0.0000 0.0000
# 3 11.5607 26.6578 141.5797 0.0000 0.0000 0.0000
# 4 0.0000 0.0000 0.0000 14.1681 0.0000 0.0000
# 5 0.0000 0.0000 0.0000 0.0000 49.9256 0.0000
# 6 0.0000 0.0000 0.0000 0.0000 0.0000 33.8457
#
#
#
# Elastic Compliance Matrix: (Units=1/GPa)
#
#
# Indices 1 2 3 4 5 6 
#
# 1 0.008440 -0.002018 -0.000309 0.000000 0.000000 0.000000
# 2 -0.002018 0.010130 -0.001743 0.000000 0.000000 0.000000
# 3 -0.000309 -0.001743 0.007417 0.000000 0.000000 0.000000
# 4 0.000000 0.000000 0.000000 0.070581 0.000000 0.000000
# 5 0.000000 0.000000 0.000000 0.000000 0.020030 0.000000
# 6 0.000000 0.000000 0.000000 0.000000 0.000000 0.029546
#
#
# Mechanical properties :
#
#
# Convention : Reuss Voigt Hill
#
# Bulk Modulus (GPa) = 56.03300 56.21914 56.12607
# Shear Modulus (GPa) = 31.20472 40.28302 35.74387
#
# Velocity S-wave (km/s) = 3.57643 4.06350 3.82772
# Velocity P-wave (km/s) = 6.32633 6.71270 6.52238
#
# Compressibility (1/GPa) = 0.01784662
#
# Stress axis : x y z
#
# Youngs Moduli (GPa) = 118.48668 98.71363 134.83413
#
# Poissons Ratio (x) = 0.19923 0.04168
# Poissons Ratio (y) = 0.23913 0.23496
# Poissons Ratio (z) = 0.03663 0.17202
#
# Static dielectric constant tensor:
#      x y z
#    x 2.035220 0.000000 0.000000 
#    y 0.000000 2.009260 0.000000 
#    z 0.000000 0.000000 1.957100 
# 
# From -- ./inp_files/35853.got.cif
#   From: 2010.05.17/outbox.cif.g08.bks.cpg/sg68_18_cif.got.tgz:35853.got - 2010.06.03 18:57:09.
