data_PCOD9510567
_publ_section_title
;
Structure prediction by ZEFSAII (Michael W. Deem and Ramdas Pophale) SiO2 
 PCOD9510567
Probable space group: C C C A
;
_chemical_formula_sum "Si O2"
_cell_formula_units_Z 48
_cell_length_a 13.946358
_cell_length_b 18.173675
_cell_length_c 7.736868
_cell_angle_alpha 90.000000
_cell_angle_beta 90.000000
_cell_angle_gamma 90.000000
_cell_volume 1960.960086
_symmetry_space_group_name_H-M "C C C A"
_symmetry_group_IT_number 68
_space_group.IT_coordinate_system_code '2'
_symmetry_cell_setting 'orthorhombic'
loop_
_space_group_symop_operation_xyz
x,y,z
-x,1/2-y,z
x,1/2-y,1/2-z
-x,y,1/2-z
-x,-y,-z
x,1/2+y,-z
-x,1/2+y,1/2+z
x,-y,1/2+z
1/2+x,1/2+y,z
1/2-x,-y,z
1/2+x,-y,1/2-z
1/2-x,1/2+y,1/2-z
1/2-x,1/2-y,-z
1/2+x,y,-z
1/2-x,y,1/2+z
1/2+x,1/2-y,1/2+z
loop_
_atom_site_type_symbol
_atom_site_label
_atom_site_fract_x
_atom_site_fract_y
_atom_site_fract_z
Si Si1 0.887706 0.937987 0.785761
Si Si2 0.216532 0.692408 0.642795
Si Si3 0.390306 0.100631 0.311073
O O1 0.840428 0.884127 0.643799
O O2 0.000000 0.940037 0.750000
O O3 0.857285 0.022827 0.769272
O O4 0.877792 0.908893 0.981285
O O5 0.151814 0.750000 0.750000
O O6 0.250000 0.750000 0.500000
O O7 0.315487 0.664259 0.733368
O O8 0.500000 0.114307 0.250000
#
# Coordination Sequence:
#
# PCOD9510567 Si02
#       3
#    16  16  16
#     4  11  25  45  73 101 138 184 242 291 349 421
#     4  12  27  46  68 105 144 184 231 290 367 429
#     4  11  25  45  73 102 136 187 238 294 348 423
#
# _framework density 24.477805
#
# number of rings (size 3 to 8) (size 9 to 14) (size 15 to 20)
#    0.000    0.667    3.333    5.000    9.333    4.000 
#    0.000    0.000    0.000    0.000    0.000    0.000 
#    0.000    0.000    0.000    0.000    0.000    0.000 
#
# Total GULP energy -133799.470121 kJ/mol
# GULP energy per Si atom -5574.977922 kJ/mol
# Density = 2.442209 g / cm^3
# Si number density = 24.477805 Si / 1000 Ang^3
#
#
#
# Elastic Constant Matrix: (Units=GPa)
#
#
# Indices 1 2 3 4 5 6 
#
# 1 113.8854 71.9989 4.7076 0.0000 0.0000 0.0000
# 2 71.9989 211.1445 51.1622 0.0000 0.0000 0.0000
# 3 4.7076 51.1622 96.7470 0.0000 0.0000 0.0000
# 4 0.0000 0.0000 0.0000 47.3718 0.0000 0.0000
# 5 0.0000 0.0000 0.0000 0.0000 32.4524 0.0000
# 6 0.0000 0.0000 0.0000 0.0000 0.0000 -4.7456
#
#
#
# Elastic Compliance Matrix: (Units=1/GPa)
#
#
# Indices 1 2 3 4 5 6 
#
# 1 0.011440 -0.004320 0.001728 0.000000 0.000000 0.000000
# 2 -0.004320 0.007063 -0.003525 0.000000 0.000000 0.000000
# 3 0.001728 -0.003525 0.012116 0.000000 0.000000 0.000000
# 4 0.000000 0.000000 0.000000 0.021110 0.000000 0.000000
# 5 0.000000 0.000000 0.000000 0.000000 0.030814 0.000000
# 6 0.000000 0.000000 0.000000 0.000000 0.000000 -0.210721
#
#
# Mechanical properties :
#
#
# Convention : Reuss Voigt Hill
#
# Bulk Modulus (GPa) = 54.38996 75.27935 64.83466
# Shear Modulus (GPa) = -45.53124 34.60960 -5.46082
#
# Velocity S-wave (km/s) = -4.31757 3.76429 -1.49525
# Velocity P-wave (km/s) = 1.60837 7.05082 4.85423
#
# Compressibility (1/GPa) = 0.01838574
#
# Stress axis : x y z
#
# Youngs Moduli (GPa) = 87.41051 141.57848 82.53360
#
# Poissons Ratio (x) = 0.61158 -0.14259
# Poissons Ratio (y) = 0.37759 0.29093
# Poissons Ratio (z) = -0.15102 0.49907
#
# Static dielectric constant tensor:
#      x y z
#    x 1.896410 0.000000 0.000000 
#    y 0.000000 1.594510 0.000000 
#    z 0.000000 0.000000 2.525550 
# 
# From -- ./inp_files/4411.got.cif
#   From: 2010.05.17/outbox.cif.g08.bks.cpg/sg68_3_cif.got.tgz:4411.got - 2010.06.03 18:57:09.
