data_PCOD9510603
_publ_section_title
;
Structure prediction by ZEFSAII (Michael W. Deem and Ramdas Pophale) SiO2 
 PCOD9510603
Probable space group: C C C A
;
_chemical_formula_sum "Si O2"
_cell_formula_units_Z 48
_cell_length_a 10.018485
_cell_length_b 15.483061
_cell_length_c 14.977218
_cell_angle_alpha 90.000000
_cell_angle_beta 90.000000
_cell_angle_gamma 90.000000
_cell_volume 2323.218344
_symmetry_space_group_name_H-M "C C C A"
_symmetry_group_IT_number 68
_space_group.IT_coordinate_system_code '2'
_symmetry_cell_setting 'orthorhombic'
loop_
_space_group_symop_operation_xyz
x,y,z
-x,1/2-y,z
x,1/2-y,1/2-z
-x,y,1/2-z
-x,-y,-z
x,1/2+y,-z
-x,1/2+y,1/2+z
x,-y,1/2+z
1/2+x,1/2+y,z
1/2-x,-y,z
1/2+x,-y,1/2-z
1/2-x,1/2+y,1/2-z
1/2-x,1/2-y,-z
1/2+x,y,-z
1/2-x,y,1/2+z
1/2+x,1/2-y,1/2+z
loop_
_atom_site_type_symbol
_atom_site_label
_atom_site_fract_x
_atom_site_fract_y
_atom_site_fract_z
Si Si1 0.219660 0.750000 0.750000
Si Si2 0.860892 0.720140 0.070585
Si Si3 0.000000 0.098204 0.250000
Si Si4 0.093950 0.480463 0.915931
O O1 0.311904 0.758942 0.836385
O O2 0.125225 0.835157 0.751310
O O3 0.894238 0.621749 0.095807
O O4 0.000000 0.750000 0.030501
O O5 0.750000 0.750000 0.000000
O O6 0.967575 0.035623 0.333976
O O7 0.250000 0.500000 0.932677
O O8 0.000000 0.500000 0.000000
#
# Coordination Sequence:
#
# PCOD9510603 Si02
#       4
#     8  16   8  16
#     4  11  25  48  70 102 144 190 238 294 364 424
#     4  12  27  46  74 106 144 189 238 292 361 427
#     4  11  26  46  73 102 146 188 239 302 356 423
#     4  12  26  47  72 108 143 189 241 293 358 424
#
# _framework density 20.660993999999999
#
# number of rings (size 3 to 8) (size 9 to 14) (size 15 to 20)
#    0.000    0.333    3.333    4.500    9.333    1.333 
#    0.000    0.000    0.000    0.000    0.000    0.000 
#    0.000    0.000    0.000    0.000    0.000    0.000 
#
# Total GULP energy -133861.599708 kJ/mol
# GULP energy per Si atom -5577.566654 kJ/mol
# Density = 2.061397 g / cm^3
# Si number density = 20.660994 Si / 1000 Ang^3
#
#
#
# Elastic Constant Matrix: (Units=GPa)
#
#
# Indices 1 2 3 4 5 6 
#
# 1 157.8399 25.3669 69.9863 0.0000 0.0000 0.0000
# 2 25.3669 122.1470 29.7752 0.0000 0.0000 0.0000
# 3 69.9863 29.7752 171.1417 0.0000 0.0000 0.0000
# 4 0.0000 0.0000 0.0000 43.3383 0.0000 0.0000
# 5 0.0000 0.0000 0.0000 0.0000 38.3560 0.0000
# 6 0.0000 0.0000 0.0000 0.0000 0.0000 16.5168
#
#
#
# Elastic Compliance Matrix: (Units=1/GPa)
#
#
# Indices 1 2 3 4 5 6 
#
# 1 0.007829 -0.000883 -0.003048 0.000000 0.000000 0.000000
# 2 -0.000883 0.008649 -0.001144 0.000000 0.000000 0.000000
# 3 -0.003048 -0.001144 0.007289 0.000000 0.000000 0.000000
# 4 0.000000 0.000000 0.000000 0.023074 0.000000 0.000000
# 5 0.000000 0.000000 0.000000 0.000000 0.026072 0.000000
# 6 0.000000 0.000000 0.000000 0.000000 0.000000 0.060545
#
#
# Mechanical properties :
#
#
# Convention : Reuss Voigt Hill
#
# Bulk Modulus (GPa) = 73.43567 77.93172 75.68369
# Shear Modulus (GPa) = 33.75073 41.37555 37.56314
#
# Velocity S-wave (km/s) = 4.04610 4.47989 4.26851
# Velocity P-wave (km/s) = 7.57946 8.03494 7.81052
#
# Compressibility (1/GPa) = 0.01361736
#
# Stress axis : x y z
#
# Youngs Moduli (GPa) = 127.73223 115.62016 137.20235
#
# Poissons Ratio (x) = 0.10208 0.41818
# Poissons Ratio (y) = 0.11277 0.15692
# Poissons Ratio (z) = 0.38932 0.13224
#
# Static dielectric constant tensor:
#      x y z
#    x 1.684280 0.000000 0.000000 
#    y 0.000000 1.635700 0.000000 
#    z 0.000000 0.000000 1.689090 
# 
# From -- ./inp_files/18827.got.cif
#   From: 2010.05.17/outbox.cif.g08.bks.cpg/sg68_10_cif.got.tgz:18827.got - 2010.06.03 18:57:09.
