data_PCOD9510191
_publ_section_title
;
Structure prediction by ZEFSAII (Michael W. Deem and Ramdas Pophale) SiO2 
 PCOD9510191
Probable space group: C C C A
;
_chemical_formula_sum "Si O2"
_cell_formula_units_Z 60
_cell_length_a 7.044246
_cell_length_b 12.476270
_cell_length_c 26.062651
_cell_angle_alpha 90.000000
_cell_angle_beta 90.000000
_cell_angle_gamma 90.000000
_cell_volume 2290.539932
_symmetry_space_group_name_H-M "C C C A"
_symmetry_group_IT_number 68
_space_group.IT_coordinate_system_code '2'
_symmetry_cell_setting 'orthorhombic'
loop_
_space_group_symop_operation_xyz
x,y,z
-x,1/2-y,z
x,1/2-y,1/2-z
-x,y,1/2-z
-x,-y,-z
x,1/2+y,-z
-x,1/2+y,1/2+z
x,-y,1/2+z
1/2+x,1/2+y,z
1/2-x,-y,z
1/2+x,-y,1/2-z
1/2-x,1/2+y,1/2-z
1/2-x,1/2-y,-z
1/2+x,y,-z
1/2-x,y,1/2+z
1/2+x,1/2-y,1/2+z
loop_
_atom_site_type_symbol
_atom_site_label
_atom_site_fract_x
_atom_site_fract_y
_atom_site_fract_z
Si Si1 0.723037 0.730231 0.828919
Si Si2 0.936347 0.478900 0.558351
Si Si3 0.250000 0.500000 0.144927
Si Si4 0.500000 0.250000 0.750000
Si Si5 0.814309 0.724017 0.057413
O O1 0.500000 0.750000 0.823671
O O2 0.749792 0.604579 0.820128
O O3 0.850862 0.799273 0.790755
O O4 0.775874 0.746252 0.888257
O O5 0.021514 0.339844 0.559705
O O6 0.772001 0.587963 0.561028
O O7 0.000000 0.500000 0.500000
O O8 0.068976 0.507597 0.606588
O O9 0.750000 0.750000 0.000000
#
# Coordination Sequence:
#
# PCOD9510191 Si02
#       5
#    16  16   8   4  16
#     4  11  26  52  73 109 150 190 258 318 378 461
#     4  12  23  38  64 107 152 197 249 297 370 465
#     4  12  24  46  72 106 146 194 248 320 384 446
#     4  12  30  52  84 106 138 208 250 310 388 442
#     4  11  22  41  67 103 152 192 233 307 368 439
#
# _framework density 26.194697000000001
#
# number of rings (size 3 to 8) (size 9 to 14) (size 15 to 20)
#    0.000    0.533    6.667    3.600    5.600    0.000 
#    4.800    0.000    0.000    0.000    0.000    0.000 
#    0.000    0.000    0.000    0.000    0.000    0.000 
#
# Total GULP energy -167317.607852 kJ/mol
# GULP energy per Si atom -5577.253595 kJ/mol
# Density = 2.613508 g / cm^3
# Si number density = 26.194697 Si / 1000 Ang^3
#
#
#
# Elastic Constant Matrix: (Units=GPa)
#
#
# Indices 1 2 3 4 5 6 
#
# 1 188.6249 21.4035 60.7764 0.0000 0.0000 0.0000
# 2 21.4035 200.6196 28.9746 0.0000 0.0000 0.0000
# 3 60.7764 28.9746 169.6285 0.0000 0.0000 0.0000
# 4 0.0000 0.0000 0.0000 18.0812 0.0000 0.0000
# 5 0.0000 0.0000 0.0000 0.0000 35.2514 0.0000
# 6 0.0000 0.0000 0.0000 0.0000 0.0000 51.0467
#
#
#
# Elastic Compliance Matrix: (Units=1/GPa)
#
#
# Indices 1 2 3 4 5 6 
#
# 1 0.006016 -0.000339 -0.002098 0.000000 0.000000 0.000000
# 2 -0.000339 0.005130 -0.000755 0.000000 0.000000 0.000000
# 3 -0.002098 -0.000755 0.006776 0.000000 0.000000 0.000000
# 4 0.000000 0.000000 0.000000 0.055306 0.000000 0.000000
# 5 0.000000 0.000000 0.000000 0.000000 0.028368 0.000000
# 6 0.000000 0.000000 0.000000 0.000000 0.000000 0.019590
#
#
# Mechanical properties :
#
#
# Convention : Reuss Voigt Hill
#
# Bulk Modulus (GPa) = 86.66399 86.79802 86.73100
# Shear Modulus (GPa) = 38.04783 50.72376 44.38579
#
# Velocity S-wave (km/s) = 3.81530 4.40524 4.12084
# Velocity P-wave (km/s) = 7.25018 7.68652 7.47153
#
# Compressibility (1/GPa) = 0.01153882
#
# Stress axis : x y z
#
# Youngs Moduli (GPa) = 166.22834 194.94230 147.58637
#
# Poissons Ratio (x) = 0.06606 0.30957
# Poissons Ratio (y) = 0.05633 0.11140
# Poissons Ratio (z) = 0.34867 0.14714
#
# Static dielectric constant tensor:
#      x y z
#    x 2.428720 0.000000 0.000000 
#    y 0.000000 3.180680 0.000000 
#    z 0.000000 0.000000 1.797290 
# 
# From -- ./inp_files/48756.got.cif
#   From: 2010.05.17/outbox.cif.g08.bks.cpg/sg68_25_cif.got.tgz:48756.got - 2010.06.03 18:57:09.
