data_PCOD9510515
_publ_section_title
;
Structure prediction by ZEFSAII (Michael W. Deem and Ramdas Pophale) SiO2 
 PCOD9510515
Probable space group: C C C A
;
_chemical_formula_sum "Si O2"
_cell_formula_units_Z 36
_cell_length_a 12.282149
_cell_length_b 7.516807
_cell_length_c 14.172548
_cell_angle_alpha 90.000000
_cell_angle_beta 90.000000
_cell_angle_gamma 90.000000
_cell_volume 1308.445680
_symmetry_space_group_name_H-M "C C C A"
_symmetry_group_IT_number 68
_space_group.IT_coordinate_system_code '2'
_symmetry_cell_setting 'orthorhombic'
loop_
_space_group_symop_operation_xyz
x,y,z
-x,1/2-y,z
x,1/2-y,1/2-z
-x,y,1/2-z
-x,-y,-z
x,1/2+y,-z
-x,1/2+y,1/2+z
x,-y,1/2+z
1/2+x,1/2+y,z
1/2-x,-y,z
1/2+x,-y,1/2-z
1/2-x,1/2+y,1/2-z
1/2-x,1/2-y,-z
1/2+x,y,-z
1/2-x,y,1/2+z
1/2+x,1/2-y,1/2+z
loop_
_atom_site_type_symbol
_atom_site_label
_atom_site_fract_x
_atom_site_fract_y
_atom_site_fract_z
Si Si1 0.448936 0.480468 0.396510
Si Si2 0.678026 0.668171 0.849803
Si Si3 0.500000 0.750000 0.250000
O O1 0.500000 0.500000 0.500000
O O2 0.651350 0.155152 0.410053
O O3 0.555748 0.408941 0.341588
O O4 0.424491 0.646744 0.328322
O O5 0.710131 0.750000 0.750000
O O6 0.750000 0.500000 0.879132
#
# Coordination Sequence:
#
# PCOD9510515 Si02
#       3
#    16  16   4
#     4  11  24  46  76 115 157 212 270 336 417 496
#     4  11  24  46  72 109 156 204 270 330 406 487
#     4  12  20  42  80 106 158 206 256 334 412 486
#
# _framework density 27.513562
#
# number of rings (size 3 to 8) (size 9 to 14) (size 15 to 20)
#    0.000    0.889    4.444    4.000    3.111    1.778 
#    0.000    2.222    0.000    0.000    0.000    0.000 
#    0.000    0.000    0.000    0.000    0.000    0.000 
#
# Total GULP energy -100358.204354 kJ/mol
# GULP energy per Si atom -5575.455797 kJ/mol
# Density = 2.745094 g / cm^3
# Si number density = 27.513562 Si / 1000 Ang^3
#
#
#
# Elastic Constant Matrix: (Units=GPa)
#
#
# Indices 1 2 3 4 5 6 
#
# 1 131.3082 78.2512 49.9826 0.0000 0.0000 0.0000
# 2 78.2512 172.8231 99.3923 0.0000 0.0000 0.0000
# 3 49.9826 99.3923 214.4875 0.0000 0.0000 0.0000
# 4 0.0000 0.0000 0.0000 17.5415 0.0000 0.0000
# 5 0.0000 0.0000 0.0000 0.0000 25.7951 0.0000
# 6 0.0000 0.0000 0.0000 0.0000 0.0000 91.1966
#
#
#
# Elastic Compliance Matrix: (Units=1/GPa)
#
#
# Indices 1 2 3 4 5 6 
#
# 1 0.010447 -0.004540 -0.000331 0.000000 0.000000 0.000000
# 2 -0.004540 0.009862 -0.003512 0.000000 0.000000 0.000000
# 3 -0.000331 -0.003512 0.006367 0.000000 0.000000 0.000000
# 4 0.000000 0.000000 0.000000 0.057008 0.000000 0.000000
# 5 0.000000 0.000000 0.000000 0.000000 0.038767 0.000000
# 6 0.000000 0.000000 0.000000 0.000000 0.000000 0.010965
#
#
# Mechanical properties :
#
#
# Convention : Reuss Voigt Hill
#
# Bulk Modulus (GPa) = 100.90548 108.20787 104.55668
# Shear Modulus (GPa) = 32.57666 46.30616 39.44141
#
# Velocity S-wave (km/s) = 3.44469 4.10693 3.79030
# Velocity P-wave (km/s) = 7.25091 7.86787 7.56568
#
# Compressibility (1/GPa) = 0.00991026
#
# Stress axis : x y z
#
# Youngs Moduli (GPa) = 95.71981 101.40302 157.06736
#
# Poissons Ratio (x) = 0.46038 0.05194
# Poissons Ratio (y) = 0.43458 0.55159
# Poissons Ratio (z) = 0.03165 0.35611
#
# Static dielectric constant tensor:
#      x y z
#    x 1.666350 0.000000 0.000000 
#    y 0.000000 4.020550 0.000000 
#    z 0.000000 0.000000 2.195820 
# 
# From -- ./inp_files/11045.got.cif
#   From: 2010.05.17/outbox.cif.g08.bks.cpg/sg68_6_cif.got.tgz:11045.got - 2010.06.03 18:57:09.
