data_PCOD9510694
_publ_section_title
;
Structure prediction by ZEFSAII (Michael W. Deem and Ramdas Pophale) SiO2 
 PCOD9510694
Probable space group: C C C A
;
_chemical_formula_sum "Si O2"
_cell_formula_units_Z 68
_cell_length_a 18.105865
_cell_length_b 16.851415
_cell_length_c 9.596799
_cell_angle_alpha 90.000000
_cell_angle_beta 90.000000
_cell_angle_gamma 90.000000
_cell_volume 2928.074017
_symmetry_space_group_name_H-M "C C C A"
_symmetry_group_IT_number 68
_space_group.IT_coordinate_system_code '2'
_symmetry_cell_setting 'orthorhombic'
loop_
_space_group_symop_operation_xyz
x,y,z
-x,1/2-y,z
x,1/2-y,1/2-z
-x,y,1/2-z
-x,-y,-z
x,1/2+y,-z
-x,1/2+y,1/2+z
x,-y,1/2+z
1/2+x,1/2+y,z
1/2-x,-y,z
1/2+x,-y,1/2-z
1/2-x,1/2+y,1/2-z
1/2-x,1/2-y,-z
1/2+x,y,-z
1/2-x,y,1/2+z
1/2+x,1/2-y,1/2+z
loop_
_atom_site_type_symbol
_atom_site_label
_atom_site_fract_x
_atom_site_fract_y
_atom_site_fract_z
Si Si1 0.995008 0.077064 0.093324
Si Si2 0.728312 0.908246 0.751602
Si Si3 0.000000 0.750000 0.250000
Si Si4 0.615123 0.667417 0.950274
Si Si5 0.661350 0.161792 0.538216
O O1 0.000000 0.049190 0.250000
O O2 0.921663 0.127133 0.055436
O O3 0.068584 0.128385 0.071548
O O4 0.000000 0.000000 0.000000
O O5 0.664494 0.893704 0.636516
O O6 0.700501 0.877577 0.901985
O O7 0.794864 0.859424 0.679302
O O8 0.750000 0.000000 0.761989
O O9 0.053294 0.697717 0.156674
O O10 0.657751 0.744752 0.004497
#
# Coordination Sequence:
#
# PCOD9510694 Si02
#       5
#    16  16   4  16  16
#     4  12  30  50  82 116 156 203 267 337 404 474
#     4  12  27  47  75 113 162 209 259 321 397 472
#     4  12  20  48  78 108 148 208 278 328 396 456
#     4  12  24  49  80 109 154 210 271 331 393 469
#     4  12  27  49  77 114 157 210 262 323 393 479
#
# _framework density 23.223458000000001
#
# number of rings (size 3 to 8) (size 9 to 14) (size 15 to 20)
#    0.000    0.000    4.706    2.824   11.529    1.882 
#    0.000    0.000    0.000    0.000    0.000    0.000 
#    0.000    0.000    0.000    0.000    0.000    0.000 
#
# Total GULP energy -190628.265207 kJ/mol
# GULP energy per Si atom -5606.713683 kJ/mol
# Density = 2.317060 g / cm^3
# Si number density = 23.223458 Si / 1000 Ang^3
#
#
#
# Elastic Constant Matrix: (Units=GPa)
#
#
# Indices 1 2 3 4 5 6 
#
# 1 123.6830 51.3416 54.6218 0.0000 0.0000 0.0000
# 2 51.3416 137.0241 70.5286 0.0000 0.0000 0.0000
# 3 54.6218 70.5286 163.1340 0.0000 0.0000 0.0000
# 4 0.0000 0.0000 0.0000 27.4797 0.0000 0.0000
# 5 0.0000 0.0000 0.0000 0.0000 -1.7852 0.0000
# 6 0.0000 0.0000 0.0000 0.0000 0.0000 -57.3050
#
#
#
# Elastic Compliance Matrix: (Units=1/GPa)
#
#
# Indices 1 2 3 4 5 6 
#
# 1 0.010186 -0.002651 -0.002264 0.000000 0.000000 0.000000
# 2 -0.002651 0.010077 -0.003469 0.000000 0.000000 0.000000
# 3 -0.002264 -0.003469 0.008388 0.000000 0.000000 0.000000
# 4 0.000000 0.000000 0.000000 0.036391 0.000000 0.000000
# 5 0.000000 0.000000 0.000000 0.000000 -0.560168 0.000000
# 6 0.000000 0.000000 0.000000 0.000000 0.000000 -0.017450
#
#
# Mechanical properties :
#
#
# Convention : Reuss Voigt Hill
#
# Bulk Modulus (GPa) = 84.16238 86.31388 85.23813
# Shear Modulus (GPa) = -10.16573 10.16783 0.00105
#
# Velocity S-wave (km/s) = -2.09448 2.09470 0.02132
# Velocity P-wave (km/s) = 5.51994 6.56489 6.06496
#
# Compressibility (1/GPa) = 0.01188179
#
# Stress axis : x y z
#
# Youngs Moduli (GPa) = 98.17778 99.23791 119.22027
#
# Poissons Ratio (x) = 0.26308 0.26995
# Poissons Ratio (y) = 0.26027 0.41357
# Poissons Ratio (z) = 0.22231 0.34425
#
# Static dielectric constant tensor:
#      x y z
#    x 1.905600 0.000000 0.000000 
#    y 0.000000 1.912880 0.000000 
#    z 0.000000 0.000000 1.950660 
# 
# From -- ./inp_files/6840.got.cif
#   From: 2010.05.17/outbox.cif.g08.bks.cpg/sg68_4_cif.got.tgz:6840.got - 2010.06.03 18:57:09.
