data_PCOD9510713
_publ_section_title
;
Structure prediction by ZEFSAII (Michael W. Deem and Ramdas Pophale) SiO2 
 PCOD9510713
Probable space group: C C C A
;
_chemical_formula_sum "Si O2"
_cell_formula_units_Z 68
_cell_length_a 4.961201
_cell_length_b 20.751940
_cell_length_c 26.813115
_cell_angle_alpha 90.000000
_cell_angle_beta 90.000000
_cell_angle_gamma 90.000000
_cell_volume 2760.532068
_symmetry_space_group_name_H-M "C C C A"
_symmetry_group_IT_number 68
_space_group.IT_coordinate_system_code '2'
_symmetry_cell_setting 'orthorhombic'
loop_
_space_group_symop_operation_xyz
x,y,z
-x,1/2-y,z
x,1/2-y,1/2-z
-x,y,1/2-z
-x,-y,-z
x,1/2+y,-z
-x,1/2+y,1/2+z
x,-y,1/2+z
1/2+x,1/2+y,z
1/2-x,-y,z
1/2+x,-y,1/2-z
1/2-x,1/2+y,1/2-z
1/2-x,1/2-y,-z
1/2+x,y,-z
1/2-x,y,1/2+z
1/2+x,1/2-y,1/2+z
loop_
_atom_site_type_symbol
_atom_site_label
_atom_site_fract_x
_atom_site_fract_y
_atom_site_fract_z
Si Si1 0.111669 0.136298 0.318257
Si Si2 0.000000 0.750000 0.750000
Si Si3 0.750000 0.500000 0.097873
Si Si4 0.660980 0.871759 0.466728
Si Si5 0.586050 0.321713 0.126836
Si Si6 0.750000 0.000000 0.172608
O O1 0.304439 0.141263 0.366644
O O2 0.187292 0.065944 0.297487
O O3 0.164520 0.197987 0.283027
O O4 0.804108 0.146599 0.335646
O O5 0.709278 0.561059 0.062118
O O6 0.500854 0.492928 0.135173
O O7 0.358049 0.867227 0.485818
O O8 0.767461 0.821087 0.426295
O O9 0.500000 0.250000 0.139078
#
# Coordination Sequence:
#
# PCOD9510713 Si02
#       6
#    16   4   8  16  16   8
#     4  12  25  46  76 108 144 185 245 300 384 449
#     4  12  28  50  84 114 140 188 244 322 372 474
#     4  12  22  41  69  98 144 194 248 288 369 423
#     4  12  24  39  64 104 142 191 250 303 350 421
#     4  12  24  46  71 100 144 198 238 301 371 448
#     4  12  22  45  73 106 142 198 234 300 371 459
#
# _framework density 24.632933999999999
#
# number of rings (size 3 to 8) (size 9 to 14) (size 15 to 20)
#    0.000    0.000    7.059    3.529    0.000    2.824 
#    0.000    3.529    0.000    0.000    0.000    0.000 
#    0.000    0.000    0.000    0.000    0.000    0.000 
#
# Total GULP energy -190153.021364 kJ/mol
# GULP energy per Si atom -5592.735922 kJ/mol
# Density = 2.457687 g / cm^3
# Si number density = 24.632934 Si / 1000 Ang^3
#
#
#
# Elastic Constant Matrix: (Units=GPa)
#
#
# Indices 1 2 3 4 5 6 
#
# 1 113.1101 35.5343 14.6817 0.0000 0.0000 0.0000
# 2 35.5343 181.3831 33.8910 0.0000 0.0000 0.0000
# 3 14.6817 33.8910 88.6126 0.0000 0.0000 0.0000
# 4 0.0000 0.0000 0.0000 35.3986 0.0000 0.0000
# 5 0.0000 0.0000 0.0000 0.0000 31.0828 0.0000
# 6 0.0000 0.0000 0.0000 0.0000 0.0000 32.9417
#
#
#
# Elastic Compliance Matrix: (Units=1/GPa)
#
#
# Indices 1 2 3 4 5 6 
#
# 1 0.009491 -0.001686 -0.000928 0.000000 0.000000 0.000000
# 2 -0.001686 0.006237 -0.002106 0.000000 0.000000 0.000000
# 3 -0.000928 -0.002106 0.012244 0.000000 0.000000 0.000000
# 4 0.000000 0.000000 0.000000 0.028250 0.000000 0.000000
# 5 0.000000 0.000000 0.000000 0.000000 0.032172 0.000000
# 6 0.000000 0.000000 0.000000 0.000000 0.000000 0.030357
#
#
# Mechanical properties :
#
#
# Convention : Reuss Voigt Hill
#
# Bulk Modulus (GPa) = 53.95849 61.25775 57.60812
# Shear Modulus (GPa) = 37.21125 39.81787 38.51456
#
# Velocity S-wave (km/s) = 3.89090 4.02487 3.95845
# Velocity P-wave (km/s) = 6.49138 6.82068 6.65807
#
# Compressibility (1/GPa) = 0.01853277
#
# Stress axis : x y z
#
# Youngs Moduli (GPa) = 105.36257 160.33317 81.67091
#
# Poissons Ratio (x) = 0.27033 0.07576
# Poissons Ratio (y) = 0.17764 0.17200
# Poissons Ratio (z) = 0.09774 0.33767
#
# Static dielectric constant tensor:
#      x y z
#    x 1.887690 0.000000 0.000000 
#    y 0.000000 2.010850 0.000000 
#    z 0.000000 0.000000 1.971400 
# 
# From -- ./inp_files/53079.got.cif
#   From: 2010.05.17/outbox.cif.g08.bks.cpg/sg68_27_cif.got.tgz:53079.got - 2010.06.03 18:57:09.
