data_PCOD9510419
_publ_section_title
;
Structure prediction by ZEFSAII (Michael W. Deem and Ramdas Pophale) SiO2 
 PCOD9510419
Probable space group: C C C A
;
_chemical_formula_sum "Si O2"
_cell_formula_units_Z 96
_cell_length_a 13.105217
_cell_length_b 15.723349
_cell_length_c 21.676797
_cell_angle_alpha 90.000000
_cell_angle_beta 90.000000
_cell_angle_gamma 90.000000
_cell_volume 4466.675282
_symmetry_space_group_name_H-M "C C C A"
_symmetry_group_IT_number 68
_space_group.IT_coordinate_system_code '2'
_symmetry_cell_setting 'orthorhombic'
loop_
_space_group_symop_operation_xyz
x,y,z
-x,1/2-y,z
x,1/2-y,1/2-z
-x,y,1/2-z
-x,-y,-z
x,1/2+y,-z
-x,1/2+y,1/2+z
x,-y,1/2+z
1/2+x,1/2+y,z
1/2-x,-y,z
1/2+x,-y,1/2-z
1/2-x,1/2+y,1/2-z
1/2-x,1/2-y,-z
1/2+x,y,-z
1/2-x,y,1/2+z
1/2+x,1/2-y,1/2+z
loop_
_atom_site_type_symbol
_atom_site_label
_atom_site_fract_x
_atom_site_fract_y
_atom_site_fract_z
Si Si1 0.298195 0.416453 0.063077
Si Si2 0.010132 0.489502 0.626057
Si Si3 0.206308 0.752722 0.888438
Si Si4 0.000000 0.402169 0.250000
Si Si5 0.338579 0.250000 0.750000
Si Si6 0.419912 0.321420 0.423720
Si Si7 0.047355 0.645217 0.960103
O O1 0.250000 0.500000 0.033947
O O2 0.376575 0.452031 0.114620
O O3 0.218382 0.350804 0.091827
O O4 0.365914 0.371467 0.011389
O O5 0.997669 0.537306 0.690483
O O6 0.938349 0.408601 0.612733
O O7 0.983706 0.559688 0.574632
O O8 0.218372 0.745957 0.814957
O O9 0.304012 0.707008 0.918216
O O10 0.101598 0.708443 0.911010
O O11 0.906131 0.335977 0.253199
O O12 0.500000 0.250000 0.399306
O O13 0.452767 0.331039 0.495318
#
# Coordination Sequence:
#
# PCOD9510419 Si02
#       7
#    16  16  16   8   8  16  16
#     4  11  24  41  69 102 145 182 230 289 361 423
#     4  11  24  45  68 105 141 191 235 300 358 428
#     4  12  25  47  71 110 141 194 242 294 365 437
#     4  11  24  50  71 100 142 188 245 298 354 429
#     4  11  26  48  73 102 144 188 245 296 355 438
#     4  11  24  44  71 105 148 186 238 296 370 432
#     4  11  25  42  72 106 144 185 235 301 357 432
#
# _framework density 21.492495999999999
#
# number of rings (size 3 to 8) (size 9 to 14) (size 15 to 20)
#    0.000    0.833    5.000    3.500    4.667    2.667 
#    0.000    1.667    0.000    0.000    0.000    0.000 
#    0.000    0.000    0.000    0.000    0.000    0.000 
#
# Total GULP energy -268471.410157 kJ/mol
# GULP energy per Si atom -5593.154378 kJ/mol
# Density = 2.144358 g / cm^3
# Si number density = 21.492496 Si / 1000 Ang^3
#
#
#
# Elastic Constant Matrix: (Units=GPa)
#
#
# Indices 1 2 3 4 5 6 
#
# 1 93.5148 42.7777 28.2481 0.0000 0.0000 0.0000
# 2 42.7777 155.6963 55.6096 0.0000 0.0000 0.0000
# 3 28.2481 55.6096 137.3968 0.0000 0.0000 0.0000
# 4 0.0000 0.0000 0.0000 36.0726 0.0000 0.0000
# 5 0.0000 0.0000 0.0000 0.0000 4.9218 0.0000
# 6 0.0000 0.0000 0.0000 0.0000 0.0000 33.9487
#
#
#
# Elastic Compliance Matrix: (Units=1/GPa)
#
#
# Indices 1 2 3 4 5 6 
#
# 1 0.012449 -0.002930 -0.001374 0.000000 0.000000 0.000000
# 2 -0.002930 0.008198 -0.002716 0.000000 0.000000 0.000000
# 3 -0.001374 -0.002716 0.008660 0.000000 0.000000 0.000000
# 4 0.000000 0.000000 0.000000 0.027722 0.000000 0.000000
# 5 0.000000 0.000000 0.000000 0.000000 0.203178 0.000000
# 6 0.000000 0.000000 0.000000 0.000000 0.000000 0.029456
#
#
# Mechanical properties :
#
#
# Convention : Reuss Voigt Hill
#
# Bulk Modulus (GPa) = 65.49560 71.09763 68.29662
# Shear Modulus (GPa) = 16.19227 32.32011 24.25619
#
# Velocity S-wave (km/s) = 2.74778 3.88207 3.36309
# Velocity P-wave (km/s) = 6.37235 7.29699 6.85029
#
# Compressibility (1/GPa) = 0.01526820
#
# Stress axis : x y z
#
# Youngs Moduli (GPa) = 80.33054 121.98711 115.47759
#
# Poissons Ratio (x) = 0.35738 0.15862
# Poissons Ratio (y) = 0.23534 0.31359
# Poissons Ratio (z) = 0.11034 0.33126
#
# Static dielectric constant tensor:
#      x y z
#    x 1.820440 0.000000 0.000000 
#    y 0.000000 1.833660 0.000000 
#    z 0.000000 0.000000 1.738240 
# 
# From -- ./inp_files/38625.got.cif
#   From: 2010.05.17/outbox.cif.g08.bks.cpg/sg68_20_cif.got.tgz:38625.got - 2010.06.03 18:57:09.
