data_PCOD9510797
_publ_section_title
;
Structure prediction by ZEFSAII (Michael W. Deem and Ramdas Pophale) SiO2 
 PCOD9510797
Probable space group: C C C A
;
_chemical_formula_sum "Si O2"
_cell_formula_units_Z 32
_cell_length_a 4.850847
_cell_length_b 13.475449
_cell_length_c 17.272095
_cell_angle_alpha 90.000000
_cell_angle_beta 90.000000
_cell_angle_gamma 90.000000
_cell_volume 1129.030930
_symmetry_space_group_name_H-M "C C C A"
_symmetry_group_IT_number 68
_space_group.IT_coordinate_system_code '2'
_symmetry_cell_setting 'orthorhombic'
loop_
_space_group_symop_operation_xyz
x,y,z
-x,1/2-y,z
x,1/2-y,1/2-z
-x,y,1/2-z
-x,-y,-z
x,1/2+y,-z
-x,1/2+y,1/2+z
x,-y,1/2+z
1/2+x,1/2+y,z
1/2-x,-y,z
1/2+x,-y,1/2-z
1/2-x,1/2+y,1/2-z
1/2-x,1/2-y,-z
1/2+x,y,-z
1/2-x,y,1/2+z
1/2+x,1/2-y,1/2+z
loop_
_atom_site_type_symbol
_atom_site_label
_atom_site_fract_x
_atom_site_fract_y
_atom_site_fract_z
Si Si1 0.250000 0.000000 0.940879
Si Si2 0.000000 0.250000 0.064492
Si Si3 0.387162 0.890631 0.667412
O O1 0.344212 0.910408 0.886167
O O2 0.500000 0.000000 0.000000
O O3 0.166478 0.177639 0.124977
O O4 0.250000 0.250000 0.000000
O O5 0.500000 0.858077 0.750000
O O6 0.250000 0.000000 0.676434
#
# Coordination Sequence:
#
# PCOD9510797 Si02
#       3
#     8   8  16
#     4  12  24  44  88 132 178 242 316 390 478 588
#     4  12  32  56  90 140 194 256 324 408 495 594
#     4  12  28  55  96 136 192 255 328 406 503 583
#
# _framework density 28.342889
#
# number of rings (size 3 to 8) (size 9 to 14) (size 15 to 20)
#    0.000    0.000    5.000    3.000    7.000    0.000 
#    0.000   10.000   11.000    0.000    0.000    0.000 
#    0.000    0.000    0.000    0.000    0.000    0.000 
#
# Total GULP energy -89418.618681 kJ/mol
# GULP energy per Si atom -5588.663668 kJ/mol
# Density = 2.827838 g / cm^3
# Si number density = 28.342889 Si / 1000 Ang^3
#
#
#
# Elastic Constant Matrix: (Units=GPa)
#
#
# Indices 1 2 3 4 5 6 
#
# 1 366.4537 102.2440 176.9838 0.0000 0.0000 0.0000
# 2 102.2440 202.0924 125.8203 0.0000 0.0000 0.0000
# 3 176.9838 125.8203 336.6837 0.0000 0.0000 0.0000
# 4 0.0000 0.0000 0.0000 26.1474 0.0000 0.0000
# 5 0.0000 0.0000 0.0000 0.0000 32.8581 0.0000
# 6 0.0000 0.0000 0.0000 0.0000 0.0000 49.4851
#
#
#
# Elastic Compliance Matrix: (Units=1/GPa)
#
#
# Indices 1 2 3 4 5 6 
#
# 1 0.003773 -0.000879 -0.001655 0.000000 0.000000 0.000000
# 2 -0.000879 0.006653 -0.002024 0.000000 0.000000 0.000000
# 3 -0.001655 -0.002024 0.004597 0.000000 0.000000 0.000000
# 4 0.000000 0.000000 0.000000 0.038245 0.000000 0.000000
# 5 0.000000 0.000000 0.000000 0.000000 0.030434 0.000000
# 6 0.000000 0.000000 0.000000 0.000000 0.000000 0.020208
#
#
# Mechanical properties :
#
#
# Convention : Reuss Voigt Hill
#
# Bulk Modulus (GPa) = 169.29598 190.59178 179.94388
# Shear Modulus (GPa) = 43.47996 55.04356 49.26176
#
# Velocity S-wave (km/s) = 3.92097 4.41166 4.17353
# Velocity P-wave (km/s) = 8.96436 9.66133 9.31936
#
# Compressibility (1/GPa) = 0.00590681
#
# Stress axis : x y z
#
# Youngs Moduli (GPa) = 265.01311 150.30532 217.54180
#
# Poissons Ratio (x) = 0.13205 0.36008
# Poissons Ratio (y) = 0.23282 0.44041
# Poissons Ratio (z) = 0.43866 0.30429
#
# Static dielectric constant tensor:
#      x y z
#    x 2.416150 0.000000 0.000000 
#    y 0.000000 2.684670 0.000000 
#    z 0.000000 0.000000 2.083230 
# 
# From -- ./inp_files/26679.got.cif
#   From: 2010.05.17/outbox.cif.g08.bks.cpg/sg68_14_cif.got.tgz:26679.got - 2010.06.03 18:57:09.
