data_PCOD9510670
_publ_section_title
;
Structure prediction by ZEFSAII (Michael W. Deem and Ramdas Pophale) SiO2 
 PCOD9510670
Probable space group: C C C A
;
_chemical_formula_sum "Si O2"
_cell_formula_units_Z 56
_cell_length_a 16.027532
_cell_length_b 8.847233
_cell_length_c 16.004369
_cell_angle_alpha 90.000000
_cell_angle_beta 90.000000
_cell_angle_gamma 90.000000
_cell_volume 2269.408481
_symmetry_space_group_name_H-M "C C C A"
_symmetry_group_IT_number 68
_space_group.IT_coordinate_system_code '2'
_symmetry_cell_setting 'orthorhombic'
loop_
_space_group_symop_operation_xyz
x,y,z
-x,1/2-y,z
x,1/2-y,1/2-z
-x,y,1/2-z
-x,-y,-z
x,1/2+y,-z
-x,1/2+y,1/2+z
x,-y,1/2+z
1/2+x,1/2+y,z
1/2-x,-y,z
1/2+x,-y,1/2-z
1/2-x,1/2+y,1/2-z
1/2-x,1/2-y,-z
1/2+x,y,-z
1/2-x,y,1/2+z
1/2+x,1/2-y,1/2+z
loop_
_atom_site_type_symbol
_atom_site_label
_atom_site_fract_x
_atom_site_fract_y
_atom_site_fract_z
Si Si1 0.058807 0.053991 0.574770
Si Si2 0.338159 0.666869 0.511362
Si Si3 0.250000 0.000000 0.854245
Si Si4 0.843707 0.250000 0.250000
Si Si5 0.000000 0.518934 0.750000
O O1 0.099284 0.208520 0.545070
O O2 0.129840 0.920338 0.571203
O O3 0.012145 0.066110 0.662428
O O4 0.000000 0.000000 0.500000
O O5 0.250000 0.750000 0.500000
O O6 0.324544 0.543062 0.582881
O O7 0.277095 0.150639 0.805052
O O8 0.915270 0.117276 0.250894
#
# Coordination Sequence:
#
# PCOD9510670 Si02
#       5
#    16  16   8   8   8
#     4  12  27  49  79 115 159 210 266 326 407 486
#     4  12  25  48  80 117 158 209 271 337 411 483
#     4  12  26  50  76 120 158 214 278 338 414 480
#     4  11  28  46  76 107 162 206 274 331 404 480
#     4  11  28  50  77 111 168 215 258 333 414 495
#
# _framework density 24.676031999999999
#
# number of rings (size 3 to 8) (size 9 to 14) (size 15 to 20)
#    0.000    0.286    2.857    4.286   12.000    0.000 
#    0.000    7.143    0.000    0.000    0.000    0.000 
#    0.000    0.000    0.000    0.000    0.000    0.000 
#
# Total GULP energy -156235.764523 kJ/mol
# GULP energy per Si atom -5579.848733 kJ/mol
# Density = 2.461987 g / cm^3
# Si number density = 24.676032 Si / 1000 Ang^3
#
#
#
# Elastic Constant Matrix: (Units=GPa)
#
#
# Indices 1 2 3 4 5 6 
#
# 1 101.0323 40.3780 62.5149 0.0000 0.0000 0.0000
# 2 40.3780 148.8652 91.3918 0.0000 0.0000 0.0000
# 3 62.5149 91.3918 173.4509 0.0000 0.0000 0.0000
# 4 0.0000 0.0000 0.0000 33.3719 0.0000 0.0000
# 5 0.0000 0.0000 0.0000 0.0000 48.5221 0.0000
# 6 0.0000 0.0000 0.0000 0.0000 0.0000 65.5156
#
#
#
# Elastic Compliance Matrix: (Units=1/GPa)
#
#
# Indices 1 2 3 4 5 6 
#
# 1 0.012829 -0.000948 -0.004124 0.000000 0.000000 0.000000
# 2 -0.000948 0.009999 -0.004927 0.000000 0.000000 0.000000
# 3 -0.004124 -0.004927 0.009848 0.000000 0.000000 0.000000
# 4 0.000000 0.000000 0.000000 0.029965 0.000000 0.000000
# 5 0.000000 0.000000 0.000000 0.000000 0.020609 0.000000
# 6 0.000000 0.000000 0.000000 0.000000 0.000000 0.015264
#
#
# Mechanical properties :
#
#
# Convention : Reuss Voigt Hill
#
# Bulk Modulus (GPa) = 78.87884 90.21308 84.54596
# Shear Modulus (GPa) = 40.73714 44.75283 42.74498
#
# Velocity S-wave (km/s) = 4.06751 4.26328 4.16654
# Velocity P-wave (km/s) = 7.35491 7.80208 7.58179
#
# Compressibility (1/GPa) = 0.01267767
#
# Stress axis : x y z
#
# Youngs Moduli (GPa) = 77.95134 100.00573 101.54364
#
# Poissons Ratio (x) = 0.09476 0.41880
# Poissons Ratio (y) = 0.07386 0.50033
# Poissons Ratio (z) = 0.32150 0.49275
#
# Static dielectric constant tensor:
#      x y z
#    x 2.189020 0.000000 0.000000 
#    y 0.000000 2.026880 0.000000 
#    z 0.000000 0.000000 2.165050 
# 
# From -- ./inp_files/31501.got.cif
#   From: 2010.05.17/outbox.cif.g08.bks.cpg/sg68_16_cif.got.tgz:31501.got - 2010.06.03 18:57:09.
