data_PCOD9510989
_publ_section_title
;
Structure prediction by ZEFSAII (Michael W. Deem and Ramdas Pophale) SiO2 
 PCOD9510989
Probable space group: F M M M
;
_chemical_formula_sum "Si O2"
_cell_formula_units_Z 112
_cell_length_a 38.096316
_cell_length_b 8.794391
_cell_length_c 18.785529
_cell_angle_alpha 90.000000
_cell_angle_beta 90.000000
_cell_angle_gamma 90.000000
_cell_volume 6293.789017
_symmetry_space_group_name_H-M "F M M M"
_symmetry_group_IT_number 69
_symmetry_cell_setting 'orthorhombic'
loop_
_space_group_symop_operation_xyz
x,y,z
-x,-y,z
x,-y,-z
-x,y,-z
-x,-y,-z
x,y,-z
-x,y,z
x,-y,z
x,1/2+y,1/2+z
-x,1/2-y,1/2+z
x,1/2-y,1/2-z
-x,1/2+y,1/2-z
-x,1/2-y,1/2-z
x,1/2+y,1/2-z
-x,1/2+y,1/2+z
x,1/2-y,1/2+z
1/2+x,y,1/2+z
1/2-x,-y,1/2+z
1/2+x,-y,1/2-z
1/2-x,y,1/2-z
1/2-x,-y,1/2-z
1/2+x,y,1/2-z
1/2-x,y,1/2+z
1/2+x,-y,1/2+z
1/2+x,1/2+y,z
1/2-x,1/2-y,z
1/2+x,1/2-y,-z
1/2-x,1/2+y,-z
1/2-x,1/2-y,-z
1/2+x,1/2+y,-z
1/2-x,1/2+y,z
1/2+x,1/2-y,z
loop_
_atom_site_type_symbol
_atom_site_label
_atom_site_fract_x
_atom_site_fract_y
_atom_site_fract_z
Si Si1 0.351408 0.181800 0.170673
Si Si2 0.570856 0.317830 0.329970
Si Si3 0.287103 0.319131 0.084308
Si Si4 0.000000 0.818267 0.830724
O O1 0.349352 0.250000 0.250000
O O2 0.390434 0.216248 0.139753
O O3 0.320026 0.248277 0.124529
O O4 0.348534 0.000000 0.175274
O O5 0.566319 0.500000 0.326545
O O6 0.572471 0.250000 0.250000
O O7 0.536259 0.243284 0.364025
O O8 0.286563 0.500000 0.094308
O O9 0.250000 0.250000 0.109139
O O10 0.290139 0.286659 0.000000
O O11 0.000000 0.750000 0.750000
O O12 0.000000 0.000000 0.827335
#
# Coordination Sequence:
#
# PCOD9510989 Si02
#       4
#    32  32  32  16
#     4  10  20  33  51  75 103 133 165 204 248 294
#     4   9  16  26  40  61  91 125 159 196 238 283
#     4  10  21  37  56  76  99 128 163 203 245 293
#     4  10  16  22  36  58  87 124 161 196 235 281
#
# _framework density 17.795321000000001
#
# number of rings (size 3 to 8) (size 9 to 14) (size 15 to 20)
#    0.000    2.286    0.000    5.571    0.000    5.714 
#    0.000    2.857    0.000    0.000    0.000    1.000 
#    0.000    8.000    0.000    0.000    0.000    0.000 
#
# Total GULP energy -156066.537567 kJ/mol
# GULP energy per Si atom -5573.804913 kJ/mol
# Density = 1.775482 g / cm^3
# Si number density = 17.795321 Si / 1000 Ang^3
#
#
#
# Elastic Constant Matrix: (Units=GPa)
#
#
# Indices 1 2 3 4 5 6 
#
# 1 234.6424 89.2945 50.5575 0.0000 0.0000 0.0000
# 2 89.2945 88.1083 31.3984 0.0000 0.0000 0.0000
# 3 50.5575 31.3984 18.4316 0.0000 0.0000 0.0000
# 4 0.0000 0.0000 0.0000 17.5689 0.0000 0.0000
# 5 0.0000 0.0000 0.0000 0.0000 -14.2188 0.0000
# 6 0.0000 0.0000 0.0000 0.0000 0.0000 33.5634
#
#
#
# Elastic Compliance Matrix: (Units=1/GPa)
#
#
# Indices 1 2 3 4 5 6 
#
# 1 0.010452 -0.000957 -0.027040 0.000000 0.000000 0.000000
# 2 -0.000957 0.028972 -0.046730 0.000000 0.000000 0.000000
# 3 -0.027040 -0.046730 0.208030 0.000000 0.000000 0.000000
# 4 0.000000 0.000000 0.000000 0.056919 0.000000 0.000000
# 5 0.000000 0.000000 0.000000 0.000000 -0.070329 0.000000
# 6 0.000000 0.000000 0.000000 0.000000 0.000000 0.029794
#
#
# Mechanical properties :
#
#
# Convention : Reuss Voigt Hill
#
# Bulk Modulus (GPa) = 10.20401 75.96479 43.08440
# Shear Modulus (GPa) = 11.21184 18.71151 14.96167
#
# Velocity S-wave (km/s) = 2.51279 3.24618 2.90274
# Velocity P-wave (km/s) = 3.76369 7.53863 5.95803
#
# Compressibility (1/GPa) = 0.09800070
#
# Stress axis : x y z
#
# Youngs Moduli (GPa) = 95.67406 34.51612 4.80701
#
# Poissons Ratio (x) = 0.03303 0.12998
# Poissons Ratio (y) = 0.09154 0.22463
# Poissons Ratio (z) = 2.58704 1.61292
#
# Static dielectric constant tensor:
#      x y z
#    x 1.671710 0.000000 0.000000 
#    y 0.000000 1.588420 0.000000 
#    z 0.000000 0.000000 1.572380 
# 
# From -- ./inp_files/3990.got.cif
#   From: 2010.05.17/outbox.cif.g08.bks.cpg/sg69_2_cif.got.tgz:3990.got - 2010.06.03 19:29:58.
