data_PCOD9510521
_publ_section_title
;
Structure prediction by ZEFSAII (Michael W. Deem and Ramdas Pophale) SiO2 
 PCOD9510521
Probable space group: C C C A
;
_chemical_formula_sum "Si O2"
_cell_formula_units_Z 64
_cell_length_a 10.248641
_cell_length_b 11.610785
_cell_length_c 22.704622
_cell_angle_alpha 90.000000
_cell_angle_beta 90.000000
_cell_angle_gamma 90.000000
_cell_volume 2701.731209
_symmetry_space_group_name_H-M "C C C A"
_symmetry_group_IT_number 68
_space_group.IT_coordinate_system_code '2'
_symmetry_cell_setting 'orthorhombic'
loop_
_space_group_symop_operation_xyz
x,y,z
-x,1/2-y,z
x,1/2-y,1/2-z
-x,y,1/2-z
-x,-y,-z
x,1/2+y,-z
-x,1/2+y,1/2+z
x,-y,1/2+z
1/2+x,1/2+y,z
1/2-x,-y,z
1/2+x,-y,1/2-z
1/2-x,1/2+y,1/2-z
1/2-x,1/2-y,-z
1/2+x,y,-z
1/2-x,y,1/2+z
1/2+x,1/2-y,1/2+z
loop_
_atom_site_type_symbol
_atom_site_label
_atom_site_fract_x
_atom_site_fract_y
_atom_site_fract_z
Si Si1 0.809847 0.786044 0.183134
Si Si2 0.321365 0.122463 0.001927
Si Si3 0.063901 0.372855 0.126833
Si Si4 0.939533 0.900217 0.378773
O O1 0.832326 0.750000 0.250000
O O2 0.679826 0.859943 0.174028
O O3 0.815223 0.666673 0.146776
O O4 0.930172 0.852534 0.152979
O O5 0.371566 0.102199 0.936184
O O6 0.250000 0.000000 0.017716
O O7 0.250000 0.250000 0.000000
O O8 0.433932 0.125517 0.051656
O O9 0.000000 0.250000 0.122996
O O10 0.953484 0.466995 0.136186
#
# Coordination Sequence:
#
# PCOD9510521 Si02
#       4
#    16  16  16  16
#     4  11  26  51  74 104 148 200 257 307 369 447
#     4  12  25  45  77 113 156 195 245 316 391 467
#     4  12  27  46  73 113 151 194 249 313 380 456
#     4  11  24  46  76 106 142 198 245 309 386 445
#
# _framework density 23.688514000000001
#
# number of rings (size 3 to 8) (size 9 to 14) (size 15 to 20)
#    0.000    0.500    2.500    6.000    7.000    0.500 
#   13.500    0.000    0.000    0.000    0.000    0.000 
#    0.000    0.000    0.000    0.000    0.000    0.000 
#
# Total GULP energy -178801.322234 kJ/mol
# GULP energy per Si atom -5587.541320 kJ/mol
# Density = 2.363460 g / cm^3
# Si number density = 23.688514 Si / 1000 Ang^3
#
#
#
# Elastic Constant Matrix: (Units=GPa)
#
#
# Indices 1 2 3 4 5 6 
#
# 1 62.8570 37.3978 14.8691 0.0000 0.0000 0.0000
# 2 37.3978 186.8081 4.7202 0.0000 0.0000 0.0000
# 3 14.8691 4.7202 100.6835 0.0000 0.0000 0.0000
# 4 0.0000 0.0000 0.0000 86.0042 0.0000 0.0000
# 5 0.0000 0.0000 0.0000 0.0000 29.6163 0.0000
# 6 0.0000 0.0000 0.0000 0.0000 0.0000 14.3960
#
#
#
# Elastic Compliance Matrix: (Units=1/GPa)
#
#
# Indices 1 2 3 4 5 6 
#
# 1 0.018712 -0.003681 -0.002591 0.000000 0.000000 0.000000
# 2 -0.003681 0.006083 0.000258 0.000000 0.000000 0.000000
# 3 -0.002591 0.000258 0.010303 0.000000 0.000000 0.000000
# 4 0.000000 0.000000 0.000000 0.011627 0.000000 0.000000
# 5 0.000000 0.000000 0.000000 0.000000 0.033765 0.000000
# 6 0.000000 0.000000 0.000000 0.000000 0.000000 0.069464
#
#
# Mechanical properties :
#
#
# Convention : Reuss Voigt Hill
#
# Bulk Modulus (GPa) = 43.34302 51.59143 47.46722
# Shear Modulus (GPa) = 29.46889 45.56074 37.51481
#
# Velocity S-wave (km/s) = 3.53089 4.39033 3.98385
# Velocity P-wave (km/s) = 5.91267 6.89394 6.42207
#
# Compressibility (1/GPa) = 0.02307177
#
# Stress axis : x y z
#
# Youngs Moduli (GPa) = 53.44227 164.38249 97.06272
#
# Poissons Ratio (x) = 0.60501 0.25147
# Poissons Ratio (y) = 0.19669 -0.02508
# Poissons Ratio (z) = 0.13846 -0.04247
#
# Static dielectric constant tensor:
#      x y z
#    x 1.936250 0.000000 0.000000 
#    y 0.000000 2.036610 0.000000 
#    z 0.000000 0.000000 1.894630 
# 
# From -- ./inp_files/37025.got.cif
#   From: 2010.05.17/outbox.cif.g08.bks.cpg/sg68_19_cif.got.tgz:37025.got - 2010.06.03 18:57:09.
