data_PCOD9510702
_publ_section_title
;
Structure prediction by ZEFSAII (Michael W. Deem and Ramdas Pophale) SiO2 
 PCOD9510702
Probable space group: C C C A
;
_chemical_formula_sum "Si O2"
_cell_formula_units_Z 112
_cell_length_a 11.773412
_cell_length_b 27.350647
_cell_length_c 18.003989
_cell_angle_alpha 90.000000
_cell_angle_beta 90.000000
_cell_angle_gamma 90.000000
_cell_volume 5797.472340
_symmetry_space_group_name_H-M "C C C A"
_symmetry_group_IT_number 68
_space_group.IT_coordinate_system_code '2'
_symmetry_cell_setting 'orthorhombic'
loop_
_space_group_symop_operation_xyz
x,y,z
-x,1/2-y,z
x,1/2-y,1/2-z
-x,y,1/2-z
-x,-y,-z
x,1/2+y,-z
-x,1/2+y,1/2+z
x,-y,1/2+z
1/2+x,1/2+y,z
1/2-x,-y,z
1/2+x,-y,1/2-z
1/2-x,1/2+y,1/2-z
1/2-x,1/2-y,-z
1/2+x,y,-z
1/2-x,y,1/2+z
1/2+x,1/2-y,1/2+z
loop_
_atom_site_type_symbol
_atom_site_label
_atom_site_fract_x
_atom_site_fract_y
_atom_site_fract_z
Si Si1 0.304553 0.097331 0.717032
Si Si2 0.187165 0.305561 0.757988
Si Si3 0.994251 0.305703 0.876764
Si Si4 0.599341 0.599842 0.931609
Si Si5 0.563235 0.555924 0.089231
Si Si6 0.812201 0.052452 0.130085
Si Si7 0.571451 0.457748 0.175285
O O1 0.279546 0.152222 0.742787
O O2 0.389979 0.094849 0.648481
O O3 0.346545 0.064883 0.785798
O O4 0.183542 0.072643 0.695384
O O5 0.229793 0.250000 0.750000
O O6 0.098122 0.310321 0.689939
O O7 0.113693 0.313285 0.833706
O O8 0.952221 0.345641 0.935828
O O9 0.000000 0.250000 0.904541
O O10 0.723553 0.593493 0.896214
O O11 0.513258 0.573914 0.874797
O O12 0.605511 0.570813 0.008584
O O13 0.427325 0.552509 0.084105
O O14 0.601988 0.504913 0.126120
O O15 0.750000 0.000000 0.126784
O O16 0.500000 0.469700 0.250000
#
# Coordination Sequence:
#
# PCOD9510702 Si02
#       7
#    16  16  16  16  16  16  16
#     4  12  22  39  66  91 128 173 215 264 313 384
#     4   9  17  32  64 101 116 149 212 279 317 351
#     4   9  17  35  64  96 121 149 211 279 320 355
#     4  12  24  39  64  95 128 166 214 273 323 373
#     4  12  28  39  58  92 136 174 209 256 328 398
#     4  12  24  41  62  87 129 175 212 254 311 389
#     4  12  21  41  65  92 124 172 224 262 308 377
#
# _framework density 19.318764000000002
#
# number of rings (size 3 to 8) (size 9 to 14) (size 15 to 20)
#    0.000    0.857    5.714    3.857    2.000    0.000 
#    0.000    0.000    3.143    3.429    0.000    0.000 
#    0.000    0.000    0.000    0.000    0.000    0.000 
#
# Total GULP energy -312796.961159 kJ/mol
# GULP energy per Si atom -5585.660021 kJ/mol
# Density = 1.927479 g / cm^3
# Si number density = 19.318764 Si / 1000 Ang^3
#
#
#
# Elastic Constant Matrix: (Units=GPa)
#
#
# Indices 1 2 3 4 5 6 
#
# 1 39.4943 15.7990 2.5447 0.0000 0.0000 0.0000
# 2 15.7990 118.9771 16.7197 0.0000 0.0000 0.0000
# 3 2.5447 16.7197 79.3491 0.0000 0.0000 0.0000
# 4 0.0000 0.0000 0.0000 14.8605 0.0000 0.0000
# 5 0.0000 0.0000 0.0000 0.0000 18.3041 0.0000
# 6 0.0000 0.0000 0.0000 0.0000 0.0000 21.2394
#
#
#
# Elastic Compliance Matrix: (Units=1/GPa)
#
#
# Indices 1 2 3 4 5 6 
#
# 1 0.026742 -0.003535 -0.000113 0.000000 0.000000 0.000000
# 2 -0.003535 0.009129 -0.001810 0.000000 0.000000 0.000000
# 3 -0.000113 -0.001810 0.012988 0.000000 0.000000 0.000000
# 4 0.000000 0.000000 0.000000 0.067292 0.000000 0.000000
# 5 0.000000 0.000000 0.000000 0.000000 0.054633 0.000000
# 6 0.000000 0.000000 0.000000 0.000000 0.000000 0.047082
#
#
# Mechanical properties :
#
#
# Convention : Reuss Voigt Hill
#
# Bulk Modulus (GPa) = 26.35612 34.21637 30.28624
# Shear Modulus (GPa) = 20.71006 24.39795 22.55401
#
# Velocity S-wave (km/s) = 3.27772 3.55761 3.42053
# Velocity P-wave (km/s) = 5.29122 5.88433 5.59564
#
# Compressibility (1/GPa) = 0.03794185
#
# Stress axis : x y z
#
# Youngs Moduli (GPa) = 37.39500 109.54352 76.99666
#
# Poissons Ratio (x) = 0.38726 0.00868
# Poissons Ratio (y) = 0.13220 0.13938
# Poissons Ratio (z) = 0.00421 0.19829
#
# Static dielectric constant tensor:
#      x y z
#    x 1.673880 0.000000 0.000000 
#    y 0.000000 1.721760 0.000000 
#    z 0.000000 0.000000 1.670280 
# 
# From -- ./inp_files/37943.got.cif
#   From: 2010.05.17/outbox.cif.g08.bks.cpg/sg68_19_cif.got.tgz:37943.got - 2010.06.03 18:57:09.
