data_PCOD9510760
_publ_section_title
;
Structure prediction by ZEFSAII (Michael W. Deem and Ramdas Pophale) SiO2 
 PCOD9510760
Probable space group: C C C A
;
_chemical_formula_sum "Si O2"
_cell_formula_units_Z 96
_cell_length_a 20.581776
_cell_length_b 13.974136
_cell_length_c 15.120549
_cell_angle_alpha 90.000000
_cell_angle_beta 90.000000
_cell_angle_gamma 90.000000
_cell_volume 4348.859458
_symmetry_space_group_name_H-M "C C C A"
_symmetry_group_IT_number 68
_space_group.IT_coordinate_system_code '2'
_symmetry_cell_setting 'orthorhombic'
loop_
_space_group_symop_operation_xyz
x,y,z
-x,1/2-y,z
x,1/2-y,1/2-z
-x,y,1/2-z
-x,-y,-z
x,1/2+y,-z
-x,1/2+y,1/2+z
x,-y,1/2+z
1/2+x,1/2+y,z
1/2-x,-y,z
1/2+x,-y,1/2-z
1/2-x,1/2+y,1/2-z
1/2-x,1/2-y,-z
1/2+x,y,-z
1/2-x,y,1/2+z
1/2+x,1/2-y,1/2+z
loop_
_atom_site_type_symbol
_atom_site_label
_atom_site_fract_x
_atom_site_fract_y
_atom_site_fract_z
Si Si1 0.723610 0.259048 0.600791
Si Si2 0.106610 0.568485 0.073351
Si Si3 0.311473 0.440309 0.691976
Si Si4 0.862957 0.276292 0.649893
Si Si5 0.866966 0.426775 0.119888
Si Si6 0.528511 0.565277 0.651446
O O1 0.750000 0.250000 0.500000
O O2 0.705009 0.164269 0.655233
O O3 0.787512 0.306972 0.645091
O O4 0.657503 0.319256 0.605129
O O5 0.127947 0.490725 0.145186
O O6 0.130311 0.675757 0.097823
O O7 0.029010 0.573860 0.080781
O O8 0.136724 0.534816 0.980359
O O9 0.250000 0.500000 0.662386
O O10 0.322981 0.454226 0.796320
O O11 0.878168 0.250000 0.750000
O O12 0.914226 0.359236 0.627628
O O13 0.938410 0.460664 0.148931
O O14 0.500000 0.585204 0.750000
#
# Coordination Sequence:
#
# PCOD9510760 Si02
#       6
#    16  16  16  16  16  16
#     4  12  27  48  74 112 147 192 250 303 378 448
#     4  12  26  48  73 112 145 196 249 307 374 449
#     4  12  25  47  76 110 151 193 246 310 375 451
#     4  12  23  44  76 110 145 186 252 314 364 437
#     4  12  27  46  74 106 152 194 242 310 376 441
#     4  12  26  47  77 107 146 196 255 304 370 446
#
# _framework density 22.074753999999999
#
# number of rings (size 3 to 8) (size 9 to 14) (size 15 to 20)
#    0.000    0.000    6.667    2.500    4.667    0.667 
#    0.000    0.833    0.000    0.000    0.000    0.000 
#    0.000    0.000    0.000    0.000    0.000    0.000 
#
# Total GULP energy -267769.196693 kJ/mol
# GULP energy per Si atom -5578.524931 kJ/mol
# Density = 2.202451 g / cm^3
# Si number density = 22.074754 Si / 1000 Ang^3
#
#
#
# Elastic Constant Matrix: (Units=GPa)
#
#
# Indices 1 2 3 4 5 6 
#
# 1 92.4705 51.6833 26.1955 0.0000 0.0000 0.0000
# 2 51.6833 74.3098 41.6567 0.0000 0.0000 0.0000
# 3 26.1955 41.6567 115.2071 0.0000 0.0000 0.0000
# 4 0.0000 0.0000 0.0000 18.8558 0.0000 0.0000
# 5 0.0000 0.0000 0.0000 0.0000 28.9673 0.0000
# 6 0.0000 0.0000 0.0000 0.0000 0.0000 55.2264
#
#
#
# Elastic Compliance Matrix: (Units=1/GPa)
#
#
# Indices 1 2 3 4 5 6 
#
# 1 0.017718 -0.012623 0.000536 0.000000 0.000000 0.000000
# 2 -0.012623 0.025872 -0.006485 0.000000 0.000000 0.000000
# 3 0.000536 -0.006485 0.010903 0.000000 0.000000 0.000000
# 4 0.000000 0.000000 0.000000 0.053034 0.000000 0.000000
# 5 0.000000 0.000000 0.000000 0.000000 0.034522 0.000000
# 6 0.000000 0.000000 0.000000 0.000000 0.000000 0.018107
#
#
# Mechanical properties :
#
#
# Convention : Reuss Voigt Hill
#
# Bulk Modulus (GPa) = 57.64208 57.89537 57.76873
# Shear Modulus (GPa) = 24.62046 31.44000 28.03023
#
# Velocity S-wave (km/s) = 3.34327 3.77802 3.56727
# Velocity P-wave (km/s) = 6.40876 6.73165 6.57219
#
# Compressibility (1/GPa) = 0.01734844
#
# Stress axis : x y z
#
# Youngs Moduli (GPa) = 56.44013 38.65187 91.71864
#
# Poissons Ratio (x) = 0.48791 -0.04913
# Poissons Ratio (y) = 0.71246 0.59475
# Poissons Ratio (z) = -0.03023 0.25064
#
# Static dielectric constant tensor:
#      x y z
#    x 1.891490 0.000000 0.000000 
#    y 0.000000 1.912880 0.000000 
#    z 0.000000 0.000000 1.883470 
# 
# From -- ./inp_files/24458.got.cif
#   From: 2010.05.17/outbox.cif.g08.bks.cpg/sg68_13_cif.got.tgz:24458.got - 2010.06.03 18:57:09.
