data_PCOD9510154
_publ_section_title
;
Structure prediction by ZEFSAII (Michael W. Deem and Ramdas Pophale) SiO2 
 PCOD9510154
Probable space group: C C C A
;
_chemical_formula_sum "Si O2"
_cell_formula_units_Z 64
_cell_length_a 9.362732
_cell_length_b 34.065557
_cell_length_c 10.439709
_cell_angle_alpha 90.000000
_cell_angle_beta 90.000000
_cell_angle_gamma 90.000000
_cell_volume 3329.710532
_symmetry_space_group_name_H-M "C C C A"
_symmetry_group_IT_number 68
_space_group.IT_coordinate_system_code '2'
_symmetry_cell_setting 'orthorhombic'
loop_
_space_group_symop_operation_xyz
x,y,z
-x,1/2-y,z
x,1/2-y,1/2-z
-x,y,1/2-z
-x,-y,-z
x,1/2+y,-z
-x,1/2+y,1/2+z
x,-y,1/2+z
1/2+x,1/2+y,z
1/2-x,-y,z
1/2+x,-y,1/2-z
1/2-x,1/2+y,1/2-z
1/2-x,1/2-y,-z
1/2+x,y,-z
1/2-x,y,1/2+z
1/2+x,1/2-y,1/2+z
loop_
_atom_site_type_symbol
_atom_site_label
_atom_site_fract_x
_atom_site_fract_y
_atom_site_fract_z
Si Si1 0.163543 0.391206 0.624322
Si Si2 0.410383 0.482741 0.119849
Si Si3 0.146971 0.859711 0.101576
Si Si4 0.338496 0.233471 0.116562
O O1 0.114046 0.436031 0.608357
O O2 0.203500 0.382232 0.771659
O O3 0.282598 0.378323 0.523925
O O4 0.022722 0.365664 0.597875
O O5 0.500000 0.490554 0.250000
O O6 0.250000 0.500000 0.125605
O O7 0.500000 0.500000 0.000000
O O8 0.170885 0.813462 0.115093
O O9 0.500000 0.250000 0.106730
O O10 0.279930 0.250000 0.250000
O O11 0.250000 0.250000 0.000000
#
# Coordination Sequence:
#
# PCOD9510154 Si02
#       4
#    16  16  16  16
#     4  11  24  43  64  94 127 169 218 261 327 385
#     4  12  26  45  70 100 136 175 222 274 333 398
#     4  11  22  42  64  90 130 168 214 268 319 388
#     4  11  22  39  63  93 126 168 214 267 324 381
#
# _framework density 19.220890000000001
#
# number of rings (size 3 to 8) (size 9 to 14) (size 15 to 20)
#    0.000    0.750    2.500    8.250    3.500    1.500 
#    0.000    5.000    0.000    0.000    0.000    0.000 
#    0.000    0.000    0.000    0.000    0.000    0.000 
#
# Total GULP energy -178905.745105 kJ/mol
# GULP energy per Si atom -5590.804535 kJ/mol
# Density = 1.917714 g / cm^3
# Si number density = 19.220890 Si / 1000 Ang^3
#
#
#
# Elastic Constant Matrix: (Units=GPa)
#
#
# Indices 1 2 3 4 5 6 
#
# 1 66.5246 3.9352 40.8705 0.0000 0.0000 0.0000
# 2 3.9352 125.9297 8.2628 0.0000 0.0000 0.0000
# 3 40.8705 8.2628 110.9961 0.0000 0.0000 0.0000
# 4 0.0000 0.0000 0.0000 30.9020 0.0000 0.0000
# 5 0.0000 0.0000 0.0000 0.0000 46.3408 0.0000
# 6 0.0000 0.0000 0.0000 0.0000 0.0000 36.9993
#
#
#
# Elastic Compliance Matrix: (Units=1/GPa)
#
#
# Indices 1 2 3 4 5 6 
#
# 1 0.019429 -0.000138 -0.007144 0.000000 0.000000 0.000000
# 2 -0.000138 0.007981 -0.000543 0.000000 0.000000 0.000000
# 3 -0.007144 -0.000543 0.011680 0.000000 0.000000 0.000000
# 4 0.000000 0.000000 0.000000 0.032360 0.000000 0.000000
# 5 0.000000 0.000000 0.000000 0.000000 0.021579 0.000000
# 6 0.000000 0.000000 0.000000 0.000000 0.000000 0.027028
#
#
# Mechanical properties :
#
#
# Convention : Reuss Voigt Hill
#
# Bulk Modulus (GPa) = 42.66298 45.50971 44.08635
# Shear Modulus (GPa) = 34.83803 39.54054 37.18928
#
# Velocity S-wave (km/s) = 4.26198 4.54052 4.40345
# Velocity P-wave (km/s) = 6.81642 7.15661 6.98858
#
# Compressibility (1/GPa) = 0.02343952
#
# Stress axis : x y z
#
# Youngs Moduli (GPa) = 51.46914 125.29911 85.61486
#
# Poissons Ratio (x) = 0.01734 0.61162
# Poissons Ratio (y) = 0.00712 0.04650
# Poissons Ratio (z) = 0.36769 0.06806
#
# Static dielectric constant tensor:
#      x y z
#    x 1.650790 0.000000 0.000000 
#    y 0.000000 1.698520 0.000000 
#    z 0.000000 0.000000 1.674940 
# 
# From -- ./inp_files/10752.got.cif
#   From: 2010.05.17/outbox.cif.g08.bks.cpg/sg68_6_cif.got.tgz:10752.got - 2010.06.03 18:57:09.
