data_PCOD9510058
_publ_section_title
;
Structure prediction by ZEFSAII (Michael W. Deem and Ramdas Pophale) SiO2 
 PCOD9510058
Probable space group: C C C A
;
_chemical_formula_sum "Si O2"
_cell_formula_units_Z 80
_cell_length_a 11.902710
_cell_length_b 10.757304
_cell_length_c 26.880078
_cell_angle_alpha 90.000000
_cell_angle_beta 90.000000
_cell_angle_gamma 90.000000
_cell_volume 3441.753946
_symmetry_space_group_name_H-M "C C C A"
_symmetry_group_IT_number 68
_space_group.IT_coordinate_system_code '2'
_symmetry_cell_setting 'orthorhombic'
loop_
_space_group_symop_operation_xyz
x,y,z
-x,1/2-y,z
x,1/2-y,1/2-z
-x,y,1/2-z
-x,-y,-z
x,1/2+y,-z
-x,1/2+y,1/2+z
x,-y,1/2+z
1/2+x,1/2+y,z
1/2-x,-y,z
1/2+x,-y,1/2-z
1/2-x,1/2+y,1/2-z
1/2-x,1/2-y,-z
1/2+x,y,-z
1/2-x,y,1/2+z
1/2+x,1/2-y,1/2+z
loop_
_atom_site_type_symbol
_atom_site_label
_atom_site_fract_x
_atom_site_fract_y
_atom_site_fract_z
Si Si1 0.664218 0.809922 0.649256
Si Si2 0.628754 0.057395 0.937603
Si Si3 0.967760 0.427278 0.693329
Si Si4 0.387435 0.312340 0.837079
Si Si5 0.074974 0.868522 0.454012
O O1 0.591625 0.926155 0.668584
O O2 0.597764 0.684676 0.665941
O O3 0.784864 0.780560 0.671546
O O4 0.658690 0.828922 0.590000
O O5 0.609914 0.162995 0.896570
O O6 0.750000 0.000000 0.923789
O O7 0.518030 0.969148 0.935809
O O8 0.635421 0.093321 0.995438
O O9 0.892946 0.549903 0.686449
O O10 0.000000 0.400774 0.750000
O O11 0.500000 0.250000 0.819036
O O12 0.000000 0.750000 0.466852
#
# Coordination Sequence:
#
# PCOD9510058 Si02
#       5
#    16  16  16  16  16
#     4  11  22  45  76  98 137 184 232 290 355 420
#     4  11  24  40  65  98 141 188 230 288 345 420
#     4  11  24  49  74 104 135 182 242 291 358 420
#     4  12  26  45  68 103 147 182 230 292 354 418
#     4  11  21  39  66  99 137 178 237 283 348 423
#
# _framework density 23.243960999999999
#
# number of rings (size 3 to 8) (size 9 to 14) (size 15 to 20)
#    0.000    0.800    4.000    4.800    0.000    7.600 
#   10.800    0.000    0.000    0.000    0.000    0.000 
#    0.000    0.000    0.000    0.000    0.000    0.000 
#
# Total GULP energy -223454.877081 kJ/mol
# GULP energy per Si atom -5586.371927 kJ/mol
# Density = 2.319106 g / cm^3
# Si number density = 23.243961 Si / 1000 Ang^3
#
#
#
# Elastic Constant Matrix: (Units=GPa)
#
#
# Indices 1 2 3 4 5 6 
#
# 1 70.3998 -10.4434 -20.2509 0.0000 0.0000 0.0000
# 2 -10.4434 22.8538 -4.3134 0.0000 0.0000 0.0000
# 3 -20.2509 -4.3134 89.6572 0.0000 0.0000 0.0000
# 4 0.0000 0.0000 0.0000 10.1778 0.0000 0.0000
# 5 0.0000 0.0000 0.0000 0.0000 -12.1035 0.0000
# 6 0.0000 0.0000 0.0000 0.0000 0.0000 17.4430
#
#
#
# Elastic Compliance Matrix: (Units=1/GPa)
#
#
# Indices 1 2 3 4 5 6 
#
# 1 0.016647 0.008393 0.004164 0.000000 0.000000 0.000000
# 2 0.008393 0.048389 0.004224 0.000000 0.000000 0.000000
# 3 0.004164 0.004224 0.012297 0.000000 0.000000 0.000000
# 4 0.000000 0.000000 0.000000 0.098253 0.000000 0.000000
# 5 0.000000 0.000000 0.000000 0.000000 -0.082621 0.000000
# 6 0.000000 0.000000 0.000000 0.000000 0.000000 0.057329
#
#
# Mechanical properties :
#
#
# Convention : Reuss Voigt Hill
#
# Bulk Modulus (GPa) = 9.01748 12.54392 10.78070
# Shear Modulus (GPa) = 32.53113 17.63137 25.08125
#
# Velocity S-wave (km/s) = 3.74512 2.75714 3.28844
# Velocity P-wave (km/s) = 4.75280 3.94260 4.36653
#
# Compressibility (1/GPa) = 0.11089576
#
# Stress axis : x y z
#
# Youngs Moduli (GPa) = 60.06914 20.66586 81.31854
#
# Poissons Ratio (x) = -0.17345 -0.33861
# Poissons Ratio (y) = -0.50418 -0.34347
# Poissons Ratio (z) = -0.25013 -0.08729
#
# Static dielectric constant tensor:
#      x y z
#    x 1.906200 0.000000 0.000000 
#    y 0.000000 1.873710 0.000000 
#    z 0.000000 0.000000 1.911420 
# 
# From -- ./inp_files/54511.got.cif
#   From: 2010.05.17/outbox.cif.g08.bks.cpg/sg68_28_cif.got.tgz:54511.got - 2010.06.03 18:57:09.
