data_PCOD9510727
_publ_section_title
;
Structure prediction by ZEFSAII (Michael W. Deem and Ramdas Pophale) SiO2 
 PCOD9510727
Probable space group: C C C A
;
_chemical_formula_sum "Si O2"
_cell_formula_units_Z 104
_cell_length_a 8.165690
_cell_length_b 21.920466
_cell_length_c 26.931921
_cell_angle_alpha 90.000000
_cell_angle_beta 90.000000
_cell_angle_gamma 90.000000
_cell_volume 4820.698860
_symmetry_space_group_name_H-M "C C C A"
_symmetry_group_IT_number 68
_space_group.IT_coordinate_system_code '2'
_symmetry_cell_setting 'orthorhombic'
loop_
_space_group_symop_operation_xyz
x,y,z
-x,1/2-y,z
x,1/2-y,1/2-z
-x,y,1/2-z
-x,-y,-z
x,1/2+y,-z
-x,1/2+y,1/2+z
x,-y,1/2+z
1/2+x,1/2+y,z
1/2-x,-y,z
1/2+x,-y,1/2-z
1/2-x,1/2+y,1/2-z
1/2-x,1/2-y,-z
1/2+x,y,-z
1/2-x,y,1/2+z
1/2+x,1/2-y,1/2+z
loop_
_atom_site_type_symbol
_atom_site_label
_atom_site_fract_x
_atom_site_fract_y
_atom_site_fract_z
Si Si1 0.314195 0.774380 0.947249
Si Si2 0.547918 0.885669 0.366740
Si Si3 0.750000 0.500000 0.179329
Si Si4 0.303183 0.067805 0.337165
Si Si5 0.940030 0.091625 0.557830
Si Si6 0.500000 0.067389 0.250000
Si Si7 0.201441 0.566002 0.958450
Si Si8 0.000000 0.250000 0.377676
O O1 0.500000 0.750000 0.935822
O O2 0.341537 0.846386 0.947349
O O3 0.164388 0.762665 0.909703
O O4 0.250000 0.750000 0.000000
O O5 0.365459 0.902708 0.352655
O O6 0.573391 0.896087 0.425825
O O7 0.555567 0.814191 0.352145
O O8 0.672735 0.937751 0.345500
O O9 0.607053 0.474115 0.213804
O O10 0.415248 0.065620 0.386809
O O11 0.386362 0.100896 0.290268
O O12 0.250000 0.000000 0.321650
O O13 0.868213 0.052352 0.512832
O O14 0.129410 0.102406 0.545399
O O15 0.250000 0.500000 0.936650
#
# Coordination Sequence:
#
# PCOD9510727 Si02
#       8
#    16  16   8  16  16   8  16   8
#     4  12  24  41  65  98 142 203 259 296 347 434
#     4  12  24  45  72 105 149 190 241 295 371 442
#     4  12  22  46  74 110 142 180 242 314 378 450
#     4  12  23  43  69 105 138 179 235 306 366 438
#     4  12  24  41  64 100 149 189 245 298 360 432
#     4  12  24  42  78 108 136 180 240 314 376 444
#     4  12  24  41  63 102 148 200 234 292 363 439
#     4  12  26  46  70 103 150 200 246 299 366 444
#
# _framework density 21.573636
#
# number of rings (size 3 to 8) (size 9 to 14) (size 15 to 20)
#    0.000    0.000    5.385    6.462    0.000    0.000 
#    0.000    0.000    0.000    5.077    0.000    0.000 
#    0.000    0.000    0.000    0.000    0.000    0.000 
#
# Total GULP energy -290157.715217 kJ/mol
# GULP energy per Si atom -5579.956062 kJ/mol
# Density = 2.152453 g / cm^3
# Si number density = 21.573636 Si / 1000 Ang^3
#
#
#
# Elastic Constant Matrix: (Units=GPa)
#
#
# Indices 1 2 3 4 5 6 
#
# 1 148.1555 30.2046 53.9661 0.0000 0.0000 0.0000
# 2 30.2046 93.8271 20.1212 0.0000 0.0000 0.0000
# 3 53.9661 20.1212 106.7719 0.0000 0.0000 0.0000
# 4 0.0000 0.0000 0.0000 -4.2135 0.0000 0.0000
# 5 0.0000 0.0000 0.0000 0.0000 24.1747 0.0000
# 6 0.0000 0.0000 0.0000 0.0000 0.0000 40.7668
#
#
#
# Elastic Compliance Matrix: (Units=1/GPa)
#
#
# Indices 1 2 3 4 5 6 
#
# 1 0.008590 -0.001911 -0.003981 0.000000 0.000000 0.000000
# 2 -0.001911 0.011532 -0.001207 0.000000 0.000000 0.000000
# 3 -0.003981 -0.001207 0.011606 0.000000 0.000000 0.000000
# 4 0.000000 0.000000 0.000000 -0.237332 0.000000 0.000000
# 5 0.000000 0.000000 0.000000 0.000000 0.041366 0.000000
# 6 0.000000 0.000000 0.000000 0.000000 0.000000 0.024530
#
#
# Mechanical properties :
#
#
# Convention : Reuss Voigt Hill
#
# Bulk Modulus (GPa) = 57.05289 61.92649 59.48969
# Shear Modulus (GPa) = -41.78233 28.44309 -6.66962
#
# Velocity S-wave (km/s) = -4.40561 3.63494 -1.76019
# Velocity P-wave (km/s) = 0.78989 6.81059 4.84809
#
# Compressibility (1/GPa) = 0.01752760
#
# Stress axis : x y z
#
# Youngs Moduli (GPa) = 116.42103 86.71463 86.16601
#
# Poissons Ratio (x) = 0.16574 0.34305
# Poissons Ratio (y) = 0.22252 0.10402
# Poissons Ratio (z) = 0.46350 0.10468
#
# Static dielectric constant tensor:
#      x y z
#    x 1.845090 0.000000 0.000000 
#    y 0.000000 1.855470 0.000000 
#    z 0.000000 0.000000 1.871830 
# 
# From -- ./inp_files/49469.got.cif
#   From: 2010.05.17/outbox.cif.g08.bks.cpg/sg68_25_cif.got.tgz:49469.got - 2010.06.03 18:57:09.
