data_PCOD9510693
_publ_section_title
;
Structure prediction by ZEFSAII (Michael W. Deem and Ramdas Pophale) SiO2 
 PCOD9510693
Probable space group: C C C A
;
_chemical_formula_sum "Si O2"
_cell_formula_units_Z 88
_cell_length_a 14.327059
_cell_length_b 24.908752
_cell_length_c 9.991693
_cell_angle_alpha 90.000000
_cell_angle_beta 90.000000
_cell_angle_gamma 90.000000
_cell_volume 3565.727083
_symmetry_space_group_name_H-M "C C C A"
_symmetry_group_IT_number 68
_space_group.IT_coordinate_system_code '2'
_symmetry_cell_setting 'orthorhombic'
loop_
_space_group_symop_operation_xyz
x,y,z
-x,1/2-y,z
x,1/2-y,1/2-z
-x,y,1/2-z
-x,-y,-z
x,1/2+y,-z
-x,1/2+y,1/2+z
x,-y,1/2+z
1/2+x,1/2+y,z
1/2-x,-y,z
1/2+x,-y,1/2-z
1/2-x,1/2+y,1/2-z
1/2-x,1/2-y,-z
1/2+x,y,-z
1/2-x,y,1/2+z
1/2+x,1/2-y,1/2+z
loop_
_atom_site_type_symbol
_atom_site_label
_atom_site_fract_x
_atom_site_fract_y
_atom_site_fract_z
Si Si1 0.678950 0.844951 0.324531
Si Si2 0.000000 0.856937 0.250000
Si Si3 0.908188 0.723131 0.462174
Si Si4 0.000000 0.598195 0.750000
Si Si5 0.400014 0.987418 0.431594
Si Si6 0.664648 0.065031 0.308198
Si Si7 0.220471 0.250000 0.750000
O O1 0.670174 0.805874 0.451175
O O2 0.572997 0.864764 0.324273
O O3 0.745579 0.896439 0.315361
O O4 0.716418 0.801719 0.217074
O O5 0.950048 0.820740 0.139669
O O6 0.923915 0.895638 0.316513
O O7 0.851182 0.764489 0.369274
O O8 0.000000 0.750000 0.528374
O O9 0.931718 0.561951 0.839061
O O10 0.338684 0.971579 0.559528
O O11 0.500000 0.000000 0.500000
O O12 0.353441 0.030784 0.329299
#
# Coordination Sequence:
#
# PCOD9510693 Si02
#       7
#    16   8  16   8  16  16   8
#     4  12  31  47  79 118 163 214 276 350 418 503
#     4  12  20  44  82 113 157 220 276 342 420 510
#     4  12  24  47  77 112 163 218 277 345 423 507
#     4  12  29  51  70 117 161 217 274 335 418 488
#     4  12  24  52  80 116 162 216 271 339 414 498
#     4  12  26  49  84 120 166 215 278 342 419 506
#     4  12  25  49  76 122 152 212 282 340 424 512
#
# _framework density 24.679400000000001
#
# number of rings (size 3 to 8) (size 9 to 14) (size 15 to 20)
#    0.000    0.000    7.273    1.636    5.091    0.727 
#    3.273    0.000    0.000    0.000    0.000    0.000 
#    0.000    0.000    0.000    0.000    0.000    0.000 
#
# Total GULP energy -245897.488914 kJ/mol
# GULP energy per Si atom -5588.579294 kJ/mol
# Density = 2.462323 g / cm^3
# Si number density = 24.679400 Si / 1000 Ang^3
#
#
#
# Elastic Constant Matrix: (Units=GPa)
#
#
# Indices 1 2 3 4 5 6 
#
# 1 155.8092 58.9518 37.3068 0.0000 0.0000 0.0000
# 2 58.9518 118.6029 50.2194 0.0000 0.0000 0.0000
# 3 37.3068 50.2194 112.0741 0.0000 0.0000 0.0000
# 4 0.0000 0.0000 0.0000 0.1890 0.0000 0.0000
# 5 0.0000 0.0000 0.0000 0.0000 31.3129 0.0000
# 6 0.0000 0.0000 0.0000 0.0000 0.0000 174.7238
#
#
#
# Elastic Compliance Matrix: (Units=1/GPa)
#
#
# Indices 1 2 3 4 5 6 
#
# 1 0.008011 -0.003521 -0.001089 0.000000 0.000000 0.000000
# 2 -0.003521 0.011953 -0.004184 0.000000 0.000000 0.000000
# 3 -0.001089 -0.004184 0.011160 0.000000 0.000000 0.000000
# 4 0.000000 0.000000 0.000000 5.290010 0.000000 0.000000
# 5 0.000000 0.000000 0.000000 0.000000 0.031936 0.000000
# 6 0.000000 0.000000 0.000000 0.000000 0.000000 0.005723
#
#
# Mechanical properties :
#
#
# Convention : Reuss Voigt Hill
#
# Bulk Modulus (GPa) = 73.87518 75.49357 74.68438
# Shear Modulus (GPa) = 0.92921 57.24570 29.08746
#
# Velocity S-wave (km/s) = 0.61427 4.82142 3.43682
# Velocity P-wave (km/s) = 5.52287 7.85181 6.78797
#
# Compressibility (1/GPa) = 0.01353635
#
# Stress axis : x y z
#
# Youngs Moduli (GPa) = 124.82886 83.65997 89.60526
#
# Poissons Ratio (x) = 0.29454 0.09758
# Poissons Ratio (y) = 0.43949 0.37492
# Poissons Ratio (z) = 0.13594 0.35004
#
# Static dielectric constant tensor:
#      x y z
#    x 2.021620 0.000000 0.000000 
#    y 0.000000 3.701570 0.000000 
#    z 0.000000 0.000000 2.040610 
# 
# From -- ./inp_files/13362.got.cif
#   From: 2010.05.17/outbox.cif.g08.bks.cpg/sg68_7_cif.got.tgz:13362.got - 2010.06.03 18:57:09.
