data_PCOD9510169
_publ_section_title
;
Structure prediction by ZEFSAII (Michael W. Deem and Ramdas Pophale) SiO2 
 PCOD9510169
Probable space group: C C C A
;
_chemical_formula_sum "Si O2"
_cell_formula_units_Z 80
_cell_length_a 23.747160
_cell_length_b 15.253593
_cell_length_c 11.681282
_cell_angle_alpha 90.000000
_cell_angle_beta 90.000000
_cell_angle_gamma 90.000000
_cell_volume 4231.305096
_symmetry_space_group_name_H-M "C C C A"
_symmetry_group_IT_number 68
_space_group.IT_coordinate_system_code '2'
_symmetry_cell_setting 'orthorhombic'
loop_
_space_group_symop_operation_xyz
x,y,z
-x,1/2-y,z
x,1/2-y,1/2-z
-x,y,1/2-z
-x,-y,-z
x,1/2+y,-z
-x,1/2+y,1/2+z
x,-y,1/2+z
1/2+x,1/2+y,z
1/2-x,-y,z
1/2+x,-y,1/2-z
1/2-x,1/2+y,1/2-z
1/2-x,1/2-y,-z
1/2+x,y,-z
1/2-x,y,1/2+z
1/2+x,1/2-y,1/2+z
loop_
_atom_site_type_symbol
_atom_site_label
_atom_site_fract_x
_atom_site_fract_y
_atom_site_fract_z
Si Si1 0.706009 0.847593 0.302094
Si Si2 0.835237 0.351032 0.618889
Si Si3 0.187905 0.972345 0.910532
Si Si4 0.862005 0.654826 0.463404
Si Si5 0.440396 0.851648 0.781915
O O1 0.703097 0.750000 0.250000
O O2 0.771422 0.863192 0.335940
O O3 0.690677 0.919898 0.207787
O O4 0.662623 0.850141 0.408639
O O5 0.839307 0.408734 0.504403
O O6 0.840019 0.247076 0.588586
O O7 0.886571 0.377365 0.702614
O O8 0.250000 0.000000 0.949901
O O9 0.160145 0.066510 0.905536
O O10 0.926195 0.648891 0.417863
O O11 0.445091 0.750000 0.750000
O O12 0.500000 0.895108 0.750000
#
# Coordination Sequence:
#
# PCOD9510169 Si02
#       5
#    16  16  16  16  16
#     4  12  23  38  59  89 132 160 198 255 316 365
#     4  11  22  40  59  88 124 158 201 256 298 369
#     4  12  24  35  57  90 127 166 197 243 314 377
#     4  11  23  39  60  89 123 157 207 251 305 366
#     4   9  20  40  66  87 112 160 212 251 295 357
#
# _framework density 18.906697000000001
#
# number of rings (size 3 to 8) (size 9 to 14) (size 15 to 20)
#    0.000    1.000    4.000    4.800    5.600    0.000 
#    0.000    1.000    0.000    0.000    0.000    0.000 
#    0.000    0.000    0.000    0.000    0.000    0.000 
#
# Total GULP energy -222777.732559 kJ/mol
# GULP energy per Si atom -5569.443314 kJ/mol
# Density = 1.886366 g / cm^3
# Si number density = 18.906697 Si / 1000 Ang^3
#
#
#
# Elastic Constant Matrix: (Units=GPa)
#
#
# Indices 1 2 3 4 5 6 
#
# 1 99.1442 23.5949 83.0895 0.0000 0.0000 0.0000
# 2 23.5949 87.9029 28.5839 0.0000 0.0000 0.0000
# 3 83.0895 28.5839 122.6414 0.0000 0.0000 0.0000
# 4 0.0000 0.0000 0.0000 6.0421 0.0000 0.0000
# 5 0.0000 0.0000 0.0000 0.0000 25.0246 0.0000
# 6 0.0000 0.0000 0.0000 0.0000 0.0000 9.3266
#
#
#
# Elastic Compliance Matrix: (Units=1/GPa)
#
#
# Indices 1 2 3 4 5 6 
#
# 1 0.023457 -0.001221 -0.015608 0.000000 0.000000 0.000000
# 2 -0.001221 0.012373 -0.002056 0.000000 0.000000 0.000000
# 3 -0.015608 -0.002056 0.019207 0.000000 0.000000 0.000000
# 4 0.000000 0.000000 0.000000 0.165506 0.000000 0.000000
# 5 0.000000 0.000000 0.000000 0.000000 0.039961 0.000000
# 6 0.000000 0.000000 0.000000 0.000000 0.000000 0.107221
#
#
# Mechanical properties :
#
#
# Convention : Reuss Voigt Hill
#
# Bulk Modulus (GPa) = 57.91439 64.46945 61.19192
# Shear Modulus (GPa) = 12.15804 19.70666 15.93235
#
# Velocity S-wave (km/s) = 2.53860 3.23199 2.90605
# Velocity P-wave (km/s) = 6.26824 6.93545 6.61027
#
# Compressibility (1/GPa) = 0.01726687
#
# Stress axis : x y z
#
# Youngs Moduli (GPa) = 42.63091 80.82346 52.06360
#
# Poissons Ratio (x) = 0.09870 0.81259
# Poissons Ratio (y) = 0.05206 0.10706
# Poissons Ratio (z) = 0.66537 0.16620
#
# Static dielectric constant tensor:
#      x y z
#    x 1.563330 0.000000 0.000000 
#    y 0.000000 1.623270 0.000000 
#    z 0.000000 0.000000 1.708560 
# 
# From -- ./inp_files/13159.got.cif
#   From: 2010.05.17/outbox.cif.g08.bks.cpg/sg68_7_cif.got.tgz:13159.got - 2010.06.03 18:57:09.
