data_PCOD9510657
_publ_section_title
;
Structure prediction by ZEFSAII (Michael W. Deem and Ramdas Pophale) SiO2 
 PCOD9510657
Probable space group: C C C A
;
_chemical_formula_sum "Si O2"
_cell_formula_units_Z 64
_cell_length_a 18.048975
_cell_length_b 9.214395
_cell_length_c 17.738716
_cell_angle_alpha 90.000000
_cell_angle_beta 90.000000
_cell_angle_gamma 90.000000
_cell_volume 2950.132687
_symmetry_space_group_name_H-M "C C C A"
_symmetry_group_IT_number 68
_space_group.IT_coordinate_system_code '2'
_symmetry_cell_setting 'orthorhombic'
loop_
_space_group_symop_operation_xyz
x,y,z
-x,1/2-y,z
x,1/2-y,1/2-z
-x,y,1/2-z
-x,-y,-z
x,1/2+y,-z
-x,1/2+y,1/2+z
x,-y,1/2+z
1/2+x,1/2+y,z
1/2-x,-y,z
1/2+x,-y,1/2-z
1/2-x,1/2+y,1/2-z
1/2-x,1/2-y,-z
1/2+x,y,-z
1/2-x,y,1/2+z
1/2+x,1/2-y,1/2+z
loop_
_atom_site_type_symbol
_atom_site_label
_atom_site_fract_x
_atom_site_fract_y
_atom_site_fract_z
Si Si1 0.424789 0.446706 0.957794
Si Si2 0.194074 0.126179 0.805264
Si Si3 0.330230 0.221446 0.036842
Si Si4 0.418218 0.412350 0.778653
O O1 0.355017 0.555506 0.967196
O O2 0.427346 0.422370 0.868403
O O3 0.500000 0.500000 0.000000
O O4 0.397055 0.299104 0.993808
O O5 0.226126 0.250000 0.750000
O O6 0.168436 0.211932 0.879212
O O7 0.366331 0.963667 0.757054
O O8 0.250000 0.000000 0.829697
O O9 0.250000 0.250000 0.000000
O O10 0.396817 0.250000 0.750000
O O11 0.500000 0.440181 0.750000
#
# Coordination Sequence:
#
# PCOD9510657 Si02
#       4
#    16  16  16  16
#     4  12  27  48  75 109 146 197 249 306 370 444
#     4  12  26  47  73 106 147 191 244 305 372 447
#     4  12  28  47  74 107 149 190 248 303 372 441
#     4  11  27  46  75 108 148 193 247 305 376 445
#
# _framework density 21.693940000000001
#
# number of rings (size 3 to 8) (size 9 to 14) (size 15 to 20)
#    0.000    0.250    2.500    5.250   17.500    0.500 
#    0.000    0.000    0.000    0.000    0.000    0.000 
#    0.000    0.000    0.000    0.000    0.000    0.000 
#
# Total GULP energy -178863.826645 kJ/mol
# GULP energy per Si atom -5589.494583 kJ/mol
# Density = 2.164456 g / cm^3
# Si number density = 21.693940 Si / 1000 Ang^3
#
#
#
# Elastic Constant Matrix: (Units=GPa)
#
#
# Indices 1 2 3 4 5 6 
#
# 1 89.2640 -0.4009 21.2674 0.0000 0.0000 0.0000
# 2 -0.4009 63.3555 -8.1354 0.0000 0.0000 0.0000
# 3 21.2674 -8.1354 135.7546 0.0000 0.0000 0.0000
# 4 0.0000 0.0000 0.0000 41.3020 0.0000 0.0000
# 5 0.0000 0.0000 0.0000 0.0000 7.0851 0.0000
# 6 0.0000 0.0000 0.0000 0.0000 0.0000 62.3434
#
#
#
# Elastic Compliance Matrix: (Units=1/GPa)
#
#
# Indices 1 2 3 4 5 6 
#
# 1 0.011639 -0.000162 -0.001833 0.000000 0.000000 0.000000
# 2 -0.000162 0.015909 0.000979 0.000000 0.000000 0.000000
# 3 -0.001833 0.000979 0.007712 0.000000 0.000000 0.000000
# 4 0.000000 0.000000 0.000000 0.024212 0.000000 0.000000
# 5 0.000000 0.000000 0.000000 0.000000 0.141140 0.000000
# 6 0.000000 0.000000 0.000000 0.000000 0.000000 0.016040
#
#
# Mechanical properties :
#
#
# Convention : Reuss Voigt Hill
#
# Bulk Modulus (GPa) = 30.09578 34.87069 32.48324
# Shear Modulus (GPa) = 21.76187 40.52231 31.14209
#
# Velocity S-wave (km/s) = 3.17066 4.32662 3.79294
# Velocity P-wave (km/s) = 5.22562 6.40846 5.84703
#
# Compressibility (1/GPa) = 0.03322725
#
# Stress axis : x y z
#
# Youngs Moduli (GPa) = 85.92014 62.85911 129.66732
#
# Poissons Ratio (x) = 0.01017 0.23768
# Poissons Ratio (y) = 0.01390 -0.12691
# Poissons Ratio (z) = 0.15749 -0.06152
#
# Static dielectric constant tensor:
#      x y z
#    x 1.768720 0.000000 0.000000 
#    y 0.000000 1.824270 0.000000 
#    z 0.000000 0.000000 1.648830 
# 
# From -- ./inp_files/23138.got.cif
#   From: 2010.05.17/outbox.cif.g08.bks.cpg/sg68_12_cif.got.tgz:23138.got - 2010.06.03 18:57:09.
