data_PCOD9510616
_publ_section_title
;
Structure prediction by ZEFSAII (Michael W. Deem and Ramdas Pophale) SiO2 
 PCOD9510616
Probable space group: C C C A
;
_chemical_formula_sum "Si O2"
_cell_formula_units_Z 104
_cell_length_a 9.045762
_cell_length_b 25.804756
_cell_length_c 21.601602
_cell_angle_alpha 90.000000
_cell_angle_beta 90.000000
_cell_angle_gamma 90.000000
_cell_volume 5042.325460
_symmetry_space_group_name_H-M "C C C A"
_symmetry_group_IT_number 68
_space_group.IT_coordinate_system_code '2'
_symmetry_cell_setting 'orthorhombic'
loop_
_space_group_symop_operation_xyz
x,y,z
-x,1/2-y,z
x,1/2-y,1/2-z
-x,y,1/2-z
-x,-y,-z
x,1/2+y,-z
-x,1/2+y,1/2+z
x,-y,1/2+z
1/2+x,1/2+y,z
1/2-x,-y,z
1/2+x,-y,1/2-z
1/2-x,1/2+y,1/2-z
1/2-x,1/2-y,-z
1/2+x,y,-z
1/2-x,y,1/2+z
1/2+x,1/2-y,1/2+z
loop_
_atom_site_type_symbol
_atom_site_label
_atom_site_fract_x
_atom_site_fract_y
_atom_site_fract_z
Si Si1 0.333832 0.899579 0.030872
Si Si2 0.250000 0.500000 0.542522
Si Si3 0.452726 0.131166 0.079605
Si Si4 0.614592 0.556239 0.692996
Si Si5 0.923801 0.307027 0.810981
Si Si6 0.339407 0.378645 0.725500
Si Si7 0.012187 0.041943 0.366428
O O1 0.209546 0.859337 0.051981
O O2 0.420535 0.919480 0.090526
O O3 0.255429 0.949915 0.000952
O O4 0.442662 0.880787 0.977767
O O5 0.109983 0.506999 0.587151
O O6 0.432140 0.085433 0.130092
O O7 0.526214 0.173687 0.122457
O O8 0.500000 0.557889 0.750000
O O9 0.750518 0.589895 0.721227
O O10 0.595584 0.495825 0.672302
O O11 0.757097 0.329903 0.800176
O O12 0.000000 0.250000 0.810044
O O13 0.000000 0.331548 0.750000
O O14 0.500000 0.361213 0.750000
O O15 0.377039 0.423124 0.674644
#
# Coordination Sequence:
#
# PCOD9510616 Si02
#       7
#    16   8  16  16  16  16  16
#     4  12  25  39  65  93 145 193 237 293 342 419
#     4  12  20  40  56  96 134 202 250 276 316 424
#     4  12  23  45  68  97 138 184 244 291 361 424
#     4  12  23  43  64  98 148 198 239 285 354 421
#     4  11  25  52  83 102 130 182 236 307 391 437
#     4  12  25  44  71 110 148 184 241 305 360 434
#     4  12  25  38  65 100 150 193 242 279 343 430
#
# _framework density 20.625404
#
# number of rings (size 3 to 8) (size 9 to 14) (size 15 to 20)
#    0.000    0.154    6.154    4.615    0.000    4.308 
#    0.000    2.308    0.000    0.000    0.000    0.000 
#    0.000    0.000    0.000    0.000    0.000    0.000 
#
# Total GULP energy -289930.105540 kJ/mol
# GULP energy per Si atom -5575.578953 kJ/mol
# Density = 2.057846 g / cm^3
# Si number density = 20.625404 Si / 1000 Ang^3
#
#
#
# Elastic Constant Matrix: (Units=GPa)
#
#
# Indices 1 2 3 4 5 6 
#
# 1 110.8944 24.2622 69.0934 0.0000 0.0000 0.0000
# 2 24.2622 77.4598 41.3133 0.0000 0.0000 0.0000
# 3 69.0934 41.3133 141.6802 0.0000 0.0000 0.0000
# 4 0.0000 0.0000 0.0000 -9.3113 0.0000 0.0000
# 5 0.0000 0.0000 0.0000 0.0000 42.1800 0.0000
# 6 0.0000 0.0000 0.0000 0.0000 0.0000 23.0404
#
#
#
# Elastic Compliance Matrix: (Units=1/GPa)
#
#
# Indices 1 2 3 4 5 6 
#
# 1 0.012997 -0.000818 -0.006100 0.000000 0.000000 0.000000
# 2 -0.000818 0.015339 -0.004074 0.000000 0.000000 0.000000
# 3 -0.006100 -0.004074 0.011221 0.000000 0.000000 0.000000
# 4 0.000000 0.000000 0.000000 -0.107397 0.000000 0.000000
# 5 0.000000 0.000000 0.000000 0.000000 0.023708 0.000000
# 6 0.000000 0.000000 0.000000 0.000000 0.000000 0.043402
#
#
# Mechanical properties :
#
#
# Convention : Reuss Voigt Hill
#
# Bulk Modulus (GPa) = 56.90296 66.59690 61.74993
# Shear Modulus (GPa) = 184.42875 24.20619 104.31747
#
# Velocity S-wave (km/s) = 9.46638 3.42952 7.11948
# Velocity P-wave (km/s) = 12.12979 6.93116 9.87858
#
# Compressibility (1/GPa) = 0.01757378
#
# Stress axis : x y z
#
# Youngs Moduli (GPa) = 76.94074 65.19370 89.11988
#
# Poissons Ratio (x) = 0.05330 0.54362
# Poissons Ratio (y) = 0.06291 0.36308
# Poissons Ratio (z) = 0.46933 0.26560
#
# Static dielectric constant tensor:
#      x y z
#    x 1.879240 0.000000 0.000000 
#    y 0.000000 1.638440 0.000000 
#    z 0.000000 0.000000 1.733550 
# 
# From -- ./inp_files/36586.got.cif
#   From: 2010.05.17/outbox.cif.g08.bks.cpg/sg68_19_cif.got.tgz:36586.got - 2010.06.03 18:57:09.
