data_PCOD9510373
_publ_section_title
;
Structure prediction by ZEFSAII (Michael W. Deem and Ramdas Pophale) SiO2 
 PCOD9510373
Probable space group: C C C A
;
_chemical_formula_sum "Si O2"
_cell_formula_units_Z 56
_cell_length_a 12.078418
_cell_length_b 7.492363
_cell_length_c 25.672851
_cell_angle_alpha 90.000000
_cell_angle_beta 90.000000
_cell_angle_gamma 90.000000
_cell_volume 2323.287555
_symmetry_space_group_name_H-M "C C C A"
_symmetry_group_IT_number 68
_space_group.IT_coordinate_system_code '2'
_symmetry_cell_setting 'orthorhombic'
loop_
_space_group_symop_operation_xyz
x,y,z
-x,1/2-y,z
x,1/2-y,1/2-z
-x,y,1/2-z
-x,-y,-z
x,1/2+y,-z
-x,1/2+y,1/2+z
x,-y,1/2+z
1/2+x,1/2+y,z
1/2-x,-y,z
1/2+x,-y,1/2-z
1/2-x,1/2+y,1/2-z
1/2-x,1/2-y,-z
1/2+x,y,-z
1/2-x,y,1/2+z
1/2+x,1/2-y,1/2+z
loop_
_atom_site_type_symbol
_atom_site_label
_atom_site_fract_x
_atom_site_fract_y
_atom_site_fract_z
Si Si1 0.720395 0.707206 0.810415
Si Si2 0.162254 0.639809 0.906323
Si Si3 0.559589 0.487246 0.944816
Si Si4 0.000000 0.250000 0.625566
O O1 0.734106 0.750000 0.750000
O O2 0.750000 0.500000 0.818802
O O3 0.803299 0.811519 0.848465
O O4 0.599421 0.757851 0.831190
O O5 0.250000 0.500000 0.929399
O O6 0.141006 0.820668 0.939533
O O7 0.041403 0.547353 0.903764
O O8 0.590368 0.673903 0.920263
O O9 0.500000 0.500000 0.000000
#
# Coordination Sequence:
#
# PCOD9510373 Si02
#       4
#    16  16  16   8
#     4  12  26  47  73 104 141 188 238 303 375 444
#     4  11  23  46  71 102 143 185 241 300 363 445
#     4  11  25  45  68 106 146 187 239 305 364 444
#     4  12  23  46  70 106 146 180 245 302 364 442
#
# _framework density 24.103774999999999
#
# number of rings (size 3 to 8) (size 9 to 14) (size 15 to 20)
#    0.000    0.571    5.714    3.000    0.000    1.143 
#    5.143    2.857    0.000    0.000    0.000    0.000 
#    0.000    0.000    0.000    0.000    0.000    0.000 
#
# Total GULP energy -155961.999139 kJ/mol
# GULP energy per Si atom -5570.071398 kJ/mol
# Density = 2.404891 g / cm^3
# Si number density = 24.103775 Si / 1000 Ang^3
#
#
#
# Elastic Constant Matrix: (Units=GPa)
#
#
# Indices 1 2 3 4 5 6 
#
# 1 125.7366 37.3855 56.5539 0.0000 0.0000 0.0000
# 2 37.3855 125.8391 33.4834 0.0000 0.0000 0.0000
# 3 56.5539 33.4834 187.7671 0.0000 0.0000 0.0000
# 4 0.0000 0.0000 0.0000 44.3832 0.0000 0.0000
# 5 0.0000 0.0000 0.0000 0.0000 46.7863 0.0000
# 6 0.0000 0.0000 0.0000 0.0000 0.0000 33.2860
#
#
#
# Elastic Compliance Matrix: (Units=1/GPa)
#
#
# Indices 1 2 3 4 5 6 
#
# 1 0.009758 -0.002222 -0.002543 0.000000 0.000000 0.000000
# 2 -0.002222 0.008849 -0.000909 0.000000 0.000000 0.000000
# 3 -0.002543 -0.000909 0.006254 0.000000 0.000000 0.000000
# 4 0.000000 0.000000 0.000000 0.022531 0.000000 0.000000
# 5 0.000000 0.000000 0.000000 0.000000 0.021374 0.000000
# 6 0.000000 0.000000 0.000000 0.000000 0.000000 0.030043
#
#
# Mechanical properties :
#
#
# Convention : Reuss Voigt Hill
#
# Bulk Modulus (GPa) = 74.00422 77.13205 75.56814
# Shear Modulus (GPa) = 43.60778 45.68576 44.64677
#
# Velocity S-wave (km/s) = 4.25805 4.35832 4.30847
# Velocity P-wave (km/s) = 7.41239 7.57602 7.49465
#
# Compressibility (1/GPa) = 0.01351274
#
# Stress axis : x y z
#
# Youngs Moduli (GPa) = 102.48521 113.01167 159.90852
#
# Poissons Ratio (x) = 0.25115 0.40658
# Poissons Ratio (y) = 0.22776 0.14529
# Poissons Ratio (z) = 0.26058 0.10268
#
# Static dielectric constant tensor:
#      x y z
#    x 1.983620 0.000000 0.000000 
#    y 0.000000 1.476280 0.000000 
#    z 0.000000 0.000000 1.872520 
# 
# From -- ./inp_files/54350.got.cif
#   From: 2010.05.17/outbox.cif.g08.bks.cpg/sg68_28_cif.got.tgz:54350.got - 2010.06.03 18:57:09.
