data_PCOD9510347
_publ_section_title
;
Structure prediction by ZEFSAII (Michael W. Deem and Ramdas Pophale) SiO2 
 PCOD9510347
Probable space group: C C C A
;
_chemical_formula_sum "Si O2"
_cell_formula_units_Z 64
_cell_length_a 9.895443
_cell_length_b 17.561333
_cell_length_c 20.086201
_cell_angle_alpha 90.000000
_cell_angle_beta 90.000000
_cell_angle_gamma 90.000000
_cell_volume 3490.523160
_symmetry_space_group_name_H-M "C C C A"
_symmetry_group_IT_number 68
_space_group.IT_coordinate_system_code '2'
_symmetry_cell_setting 'orthorhombic'
loop_
_space_group_symop_operation_xyz
x,y,z
-x,1/2-y,z
x,1/2-y,1/2-z
-x,y,1/2-z
-x,-y,-z
x,1/2+y,-z
-x,1/2+y,1/2+z
x,-y,1/2+z
1/2+x,1/2+y,z
1/2-x,-y,z
1/2+x,-y,1/2-z
1/2-x,1/2+y,1/2-z
1/2-x,1/2-y,-z
1/2+x,y,-z
1/2-x,y,1/2+z
1/2+x,1/2-y,1/2+z
loop_
_atom_site_type_symbol
_atom_site_label
_atom_site_fract_x
_atom_site_fract_y
_atom_site_fract_z
Si Si1 0.644092 0.715269 0.323896
Si Si2 0.393632 0.465579 0.692338
Si Si3 0.395436 0.036044 0.449084
Si Si4 0.349024 0.783854 0.943117
O O1 0.500000 0.750000 0.347597
O O2 0.667769 0.750000 0.250000
O O3 0.624423 0.624354 0.320270
O O4 0.766851 0.730481 0.374381
O O5 0.500000 0.477000 0.750000
O O6 0.250000 0.500000 0.712484
O O7 0.435041 0.508902 0.625018
O O8 0.374030 0.126149 0.452703
O O9 0.500000 0.000000 0.500000
O O10 0.250000 0.000000 0.462441
O O11 0.500000 0.750000 0.943607
O O12 0.250000 0.750000 0.000000
#
# Coordination Sequence:
#
# PCOD9510347 Si02
#       4
#    16  16  16  16
#     4  11  23  44  70  96 134 180 222 272 340 401
#     4  11  23  44  69  97 135 174 223 275 328 401
#     4  11  24  44  66  95 136 172 218 272 328 396
#     4  12  26  43  69 102 134 175 226 281 333 401
#
# _framework density 18.335360999999999
#
# number of rings (size 3 to 8) (size 9 to 14) (size 15 to 20)
#    0.000    0.750    7.500    2.250    3.500    3.500 
#    0.000    0.000    0.000    0.000    0.000    0.000 
#    0.000    0.000    0.000    0.000    0.000    0.000 
#
# Total GULP energy -178753.895819 kJ/mol
# GULP energy per Si atom -5586.059244 kJ/mol
# Density = 1.829363 g / cm^3
# Si number density = 18.335361 Si / 1000 Ang^3
#
#
#
# Elastic Constant Matrix: (Units=GPa)
#
#
# Indices 1 2 3 4 5 6 
#
# 1 173.1725 76.7572 107.9344 0.0000 0.0000 0.0000
# 2 76.7572 183.1056 58.7846 0.0000 0.0000 0.0000
# 3 107.9344 58.7846 146.1319 0.0000 0.0000 0.0000
# 4 0.0000 0.0000 0.0000 36.4608 0.0000 0.0000
# 5 0.0000 0.0000 0.0000 0.0000 88.3975 0.0000
# 6 0.0000 0.0000 0.0000 0.0000 0.0000 34.5414
#
#
#
# Elastic Compliance Matrix: (Units=1/GPa)
#
#
# Indices 1 2 3 4 5 6 
#
# 1 0.011563 -0.002418 -0.007568 0.000000 0.000000 0.000000
# 2 -0.002418 0.006777 -0.000940 0.000000 0.000000 0.000000
# 3 -0.007568 -0.000940 0.012811 0.000000 0.000000 0.000000
# 4 0.000000 0.000000 0.000000 0.027427 0.000000 0.000000
# 5 0.000000 0.000000 0.000000 0.000000 0.011313 0.000000
# 6 0.000000 0.000000 0.000000 0.000000 0.000000 0.028951
#
#
# Mechanical properties :
#
#
# Convention : Reuss Voigt Hill
#
# Bulk Modulus (GPa) = 107.53933 109.92915 108.73424
# Shear Modulus (GPa) = 40.38991 49.14221 44.76606
#
# Velocity S-wave (km/s) = 4.69854 5.18267 4.94653
# Velocity P-wave (km/s) = 9.39221 9.79277 9.59458
#
# Compressibility (1/GPa) = 0.00929892
#
# Stress axis : x y z
#
# Youngs Moduli (GPa) = 86.48102 147.56493 78.05557
#
# Poissons Ratio (x) = 0.35675 0.59074
# Poissons Ratio (y) = 0.20907 0.07341
# Poissons Ratio (z) = 0.65451 0.13877
#
# Static dielectric constant tensor:
#      x y z
#    x 1.603610 0.000000 0.000000 
#    y 0.000000 1.626180 0.000000 
#    z 0.000000 0.000000 1.638680 
# 
# From -- ./inp_files/35733.got.cif
#   From: 2010.05.17/outbox.cif.g08.bks.cpg/sg68_18_cif.got.tgz:35733.got - 2010.06.03 18:57:09.
