data_PCOD9510390
_publ_section_title
;
Structure prediction by ZEFSAII (Michael W. Deem and Ramdas Pophale) SiO2 
 PCOD9510390
Probable space group: C C C A
;
_chemical_formula_sum "Si O2"
_cell_formula_units_Z 108
_cell_length_a 33.254003
_cell_length_b 11.974473
_cell_length_c 11.655782
_cell_angle_alpha 90.000000
_cell_angle_beta 90.000000
_cell_angle_gamma 90.000000
_cell_volume 4641.322614
_symmetry_space_group_name_H-M "C C C A"
_symmetry_group_IT_number 68
_space_group.IT_coordinate_system_code '2'
_symmetry_cell_setting 'orthorhombic'
loop_
_space_group_symop_operation_xyz
x,y,z
-x,1/2-y,z
x,1/2-y,1/2-z
-x,y,1/2-z
-x,-y,-z
x,1/2+y,-z
-x,1/2+y,1/2+z
x,-y,1/2+z
1/2+x,1/2+y,z
1/2-x,-y,z
1/2+x,-y,1/2-z
1/2-x,1/2+y,1/2-z
1/2-x,1/2-y,-z
1/2+x,y,-z
1/2-x,y,1/2+z
1/2+x,1/2-y,1/2+z
loop_
_atom_site_type_symbol
_atom_site_label
_atom_site_fract_x
_atom_site_fract_y
_atom_site_fract_z
Si Si1 0.000000 0.750000 0.250000
Si Si2 0.896949 0.671947 0.941072
Si Si3 0.135898 0.542282 0.772969
Si Si4 0.177081 0.205818 0.045759
Si Si5 0.036692 0.314968 0.371648
Si Si6 0.713340 0.073241 0.161706
Si Si7 0.235500 0.250000 0.250000
Si Si8 0.442967 0.435765 0.366011
O O1 0.029823 0.665444 0.319335
O O2 0.884197 0.628313 0.816708
O O3 0.854765 0.702547 0.998211
O O4 0.922685 0.785200 0.936135
O O5 0.926172 0.587620 0.006381
O O6 0.153117 0.609509 0.882629
O O7 0.174510 0.488456 0.711521
O O8 0.099289 0.457580 0.799388
O O9 0.207236 0.257625 0.139116
O O10 0.199260 0.153532 0.939105
O O11 0.039969 0.250000 0.250000
O O12 0.032922 0.447052 0.360467
O O13 0.000000 0.250000 0.430194
O O14 0.735713 0.143907 0.260075
O O15 0.750000 0.000000 0.114434
#
# Coordination Sequence:
#
# PCOD9510390 Si02
#       8
#     4  16  16  16  16  16   8  16
#     4  12  32  54  70 116 174 192 248 342 398 454
#     4  12  25  47  77 109 142 196 255 306 377 459
#     4  12  25  49  75 107 152 198 254 317 377 460
#     4  12  24  48  75 107 150 197 257 313 381 457
#     4  11  23  47  78 106 141 194 245 303 377 458
#     4  12  28  44  75 109 147 202 247 316 387 452
#     4  12  26  47  70 110 153 189 250 316 379 460
#     4  12  29  48  78 112 153 200 249 317 390 463
#
# _framework density 23.26923
#
# number of rings (size 3 to 8) (size 9 to 14) (size 15 to 20)
#    0.000    0.148    5.926    2.222    7.259    0.593 
#    0.000    0.000    0.000    0.000    0.000    0.000 
#    0.000    0.000    0.000    0.000    0.000    0.000 
#
# Total GULP energy -301918.846303 kJ/mol
# GULP energy per Si atom -5591.089746 kJ/mol
# Density = 2.321627 g / cm^3
# Si number density = 23.269230 Si / 1000 Ang^3
#
#
#
# Elastic Constant Matrix: (Units=GPa)
#
#
# Indices 1 2 3 4 5 6 
#
# 1 165.1569 56.7099 28.3193 0.0000 0.0000 0.0000
# 2 56.7099 121.5588 17.6592 0.0000 0.0000 0.0000
# 3 28.3193 17.6592 35.2751 0.0000 0.0000 0.0000
# 4 0.0000 0.0000 0.0000 35.7276 0.0000 0.0000
# 5 0.0000 0.0000 0.0000 0.0000 24.4605 0.0000
# 6 0.0000 0.0000 0.0000 0.0000 0.0000 55.2669
#
#
#
# Elastic Compliance Matrix: (Units=1/GPa)
#
#
# Indices 1 2 3 4 5 6 
#
# 1 0.007913 -0.002986 -0.004858 0.000000 0.000000 0.000000
# 2 -0.002986 0.009998 -0.002608 0.000000 0.000000 0.000000
# 3 -0.004858 -0.002608 0.033554 0.000000 0.000000 0.000000
# 4 0.000000 0.000000 0.000000 0.027990 0.000000 0.000000
# 5 0.000000 0.000000 0.000000 0.000000 0.040882 0.000000
# 6 0.000000 0.000000 0.000000 0.000000 0.000000 0.018094
#
#
# Mechanical properties :
#
#
# Convention : Reuss Voigt Hill
#
# Bulk Modulus (GPa) = 32.72073 58.59640 45.65856
# Shear Modulus (GPa) = 29.49456 37.71117 33.60287
#
# Velocity S-wave (km/s) = 3.56411 4.03009 3.80424
# Velocity P-wave (km/s) = 5.57041 6.84778 6.24186
#
# Compressibility (1/GPa) = 0.03056167
#
# Stress axis : x y z
#
# Youngs Moduli (GPa) = 126.37255 100.01630 29.80246
#
# Poissons Ratio (x) = 0.29864 0.14478
# Poissons Ratio (y) = 0.37734 0.07773
# Poissons Ratio (z) = 0.61391 0.26086
#
# Static dielectric constant tensor:
#      x y z
#    x 1.897710 0.000000 0.000000 
#    y 0.000000 1.929500 0.000000 
#    z 0.000000 0.000000 1.920860 
# 
# From -- ./inp_files/26468.got.cif
#   From: 2010.05.17/outbox.cif.g08.bks.cpg/sg68_14_cif.got.tgz:26468.got - 2010.06.03 18:57:09.
