data_PCOD9510477
_publ_section_title
;
Structure prediction by ZEFSAII (Michael W. Deem and Ramdas Pophale) SiO2 
 PCOD9510477
Probable space group: C C C A
;
_chemical_formula_sum "Si O2"
_cell_formula_units_Z 48
_cell_length_a 9.117681
_cell_length_b 16.378871
_cell_length_c 14.196751
_cell_angle_alpha 90.000000
_cell_angle_beta 90.000000
_cell_angle_gamma 90.000000
_cell_volume 2120.104760
_symmetry_space_group_name_H-M "C C C A"
_symmetry_group_IT_number 68
_space_group.IT_coordinate_system_code '2'
_symmetry_cell_setting 'orthorhombic'
loop_
_space_group_symop_operation_xyz
x,y,z
-x,1/2-y,z
x,1/2-y,1/2-z
-x,y,1/2-z
-x,-y,-z
x,1/2+y,-z
-x,1/2+y,1/2+z
x,-y,1/2+z
1/2+x,1/2+y,z
1/2-x,-y,z
1/2+x,-y,1/2-z
1/2-x,1/2+y,1/2-z
1/2-x,1/2-y,-z
1/2+x,y,-z
1/2-x,y,1/2+z
1/2+x,1/2-y,1/2+z
loop_
_atom_site_type_symbol
_atom_site_label
_atom_site_fract_x
_atom_site_fract_y
_atom_site_fract_z
Si Si1 0.651910 0.799858 0.640497
Si Si2 0.840237 0.349244 0.198039
Si Si3 0.132894 0.060594 0.008059
O O1 0.500000 0.750000 0.652393
O O2 0.708851 0.857718 0.725718
O O3 0.785802 0.734033 0.644038
O O4 0.630074 0.855959 0.550185
O O5 0.842165 0.416141 0.116756
O O6 0.000000 0.345507 0.250000
O O7 0.250000 0.000000 0.964851
O O8 0.000000 0.000000 0.000000
#
# Coordination Sequence:
#
# PCOD9510477 Si02
#       3
#    16  16  16
#     4  11  24  45  71  99 131 179 233 279 329 397
#     4  11  24  44  72 101 131 177 233 281 329 398
#     4  12  27  45  69 102 142 180 217 278 350 407
#
# _framework density 22.640391000000001
#
# number of rings (size 3 to 8) (size 9 to 14) (size 15 to 20)
#    0.000    0.667    0.000    9.000    0.000    9.333 
#    0.000    3.333    0.000    0.000    0.000    0.000 
#    0.000    0.000    0.000    0.000    0.000    0.000 
#
# Total GULP energy -133719.736186 kJ/mol
# GULP energy per Si atom -5571.655674 kJ/mol
# Density = 2.258886 g / cm^3
# Si number density = 22.640391 Si / 1000 Ang^3
#
#
#
# Elastic Constant Matrix: (Units=GPa)
#
#
# Indices 1 2 3 4 5 6 
#
# 1 137.7766 44.0084 47.9857 0.0000 0.0000 0.0000
# 2 44.0084 83.7018 68.2331 0.0000 0.0000 0.0000
# 3 47.9857 68.2331 143.7823 0.0000 0.0000 0.0000
# 4 0.0000 0.0000 0.0000 45.1223 0.0000 0.0000
# 5 0.0000 0.0000 0.0000 0.0000 15.4524 0.0000
# 6 0.0000 0.0000 0.0000 0.0000 0.0000 37.6063
#
#
#
# Elastic Compliance Matrix: (Units=1/GPa)
#
#
# Indices 1 2 3 4 5 6 
#
# 1 0.008852 -0.003663 -0.001216 0.000000 0.000000 0.000000
# 2 -0.003663 0.021001 -0.008744 0.000000 0.000000 0.000000
# 3 -0.001216 -0.008744 0.011510 0.000000 0.000000 0.000000
# 4 0.000000 0.000000 0.000000 0.022162 0.000000 0.000000
# 5 0.000000 0.000000 0.000000 0.000000 0.064715 0.000000
# 6 0.000000 0.000000 0.000000 0.000000 0.000000 0.026591
#
#
# Mechanical properties :
#
#
# Convention : Reuss Voigt Hill
#
# Bulk Modulus (GPa) = 70.83267 76.19055 73.51161
# Shear Modulus (GPa) = 26.76930 33.30511 30.03720
#
# Velocity S-wave (km/s) = 3.44229 3.83959 3.64635
# Velocity P-wave (km/s) = 6.86681 7.30631 7.08996
#
# Compressibility (1/GPa) = 0.01411778
#
# Stress axis : x y z
#
# Youngs Moduli (GPa) = 112.97449 47.61736 86.87976
#
# Poissons Ratio (x) = 0.17441 0.10564
# Poissons Ratio (y) = 0.41379 0.75965
# Poissons Ratio (z) = 0.13737 0.41635
#
# Static dielectric constant tensor:
#      x y z
#    x 1.815070 0.000000 0.000000 
#    y 0.000000 1.741870 0.000000 
#    z 0.000000 0.000000 1.965240 
# 
# From -- ./inp_files/18906.got.cif
#   From: 2010.05.17/outbox.cif.g08.bks.cpg/sg68_10_cif.got.tgz:18906.got - 2010.06.03 18:57:09.
