data_PCOD9510050
_publ_section_title
;
Structure prediction by ZEFSAII (Michael W. Deem and Ramdas Pophale) SiO2 
 PCOD9510050
Probable space group: C C C A
;
_chemical_formula_sum "Si O2"
_cell_formula_units_Z 112
_cell_length_a 28.790889
_cell_length_b 14.360084
_cell_length_c 11.387324
_cell_angle_alpha 90.000000
_cell_angle_beta 90.000000
_cell_angle_gamma 90.000000
_cell_volume 4707.970503
_symmetry_space_group_name_H-M "C C C A"
_symmetry_group_IT_number 68
_space_group.IT_coordinate_system_code '2'
_symmetry_cell_setting 'orthorhombic'
loop_
_space_group_symop_operation_xyz
x,y,z
-x,1/2-y,z
x,1/2-y,1/2-z
-x,y,1/2-z
-x,-y,-z
x,1/2+y,-z
-x,1/2+y,1/2+z
x,-y,1/2+z
1/2+x,1/2+y,z
1/2-x,-y,z
1/2+x,-y,1/2-z
1/2-x,1/2+y,1/2-z
1/2-x,1/2-y,-z
1/2+x,y,-z
1/2-x,y,1/2+z
1/2+x,1/2-y,1/2+z
loop_
_atom_site_type_symbol
_atom_site_label
_atom_site_fract_x
_atom_site_fract_y
_atom_site_fract_z
Si Si1 0.568621 0.534696 0.606108
Si Si2 0.392778 0.357119 0.002353
Si Si3 0.484420 0.657539 0.616148
Si Si4 0.279652 0.649480 0.739905
Si Si5 0.241325 0.109935 0.518259
Si Si6 0.858574 0.017491 0.694686
Si Si7 0.138547 0.155379 0.448250
O O1 0.576421 0.426632 0.575571
O O2 0.515815 0.567724 0.588244
O O3 0.595294 0.539893 0.730805
O O4 0.598229 0.602836 0.521487
O O5 0.429769 0.331596 0.102225
O O6 0.358030 0.426627 0.070010
O O7 0.372414 0.265092 0.944171
O O8 0.500000 0.750000 0.546953
O O9 0.500000 0.664782 0.750000
O O10 0.304655 0.750000 0.750000
O O11 0.260526 0.646046 0.606991
O O12 0.244070 0.644761 0.850802
O O13 0.313393 0.560723 0.755164
O O14 0.187472 0.139852 0.511789
O O15 0.250000 0.000000 0.514755
O O16 0.857198 0.907685 0.668940
#
# Coordination Sequence:
#
# PCOD9510050 Si02
#       7
#    16  16  16  16  16  16  16
#     4  11  23  42  70 101 139 190 238 304 374 462
#     4  11  24  42  70 102 143 185 243 305 375 457
#     4  11  21  38  70 104 139 184 240 301 369 452
#     4  12  26  45  73 105 147 198 263 325 395 475
#     4  12  25  47  73 104 147 202 259 329 403 467
#     4  11  24  43  69 101 140 191 245 306 381 461
#     4  11  24  45  68 101 142 191 245 310 385 460
#
# _framework density 23.789445000000001
#
# number of rings (size 3 to 8) (size 9 to 14) (size 15 to 20)
#    0.000    0.714    5.714    2.143    0.000    0.571 
#    2.571    0.000    0.000    0.000    0.000    0.000 
#    0.000    0.000    0.000    0.000    0.000    0.000 
#
# Total GULP energy -312050.619835 kJ/mol
# GULP energy per Si atom -5572.332497 kJ/mol
# Density = 2.373530 g / cm^3
# Si number density = 23.789445 Si / 1000 Ang^3
#
#
#
# Elastic Constant Matrix: (Units=GPa)
#
#
# Indices 1 2 3 4 5 6 
#
# 1 55.4019 25.2347 7.8979 0.0000 0.0000 0.0000
# 2 25.2347 186.1215 33.7663 0.0000 0.0000 0.0000
# 3 7.8979 33.7663 87.0562 0.0000 0.0000 0.0000
# 4 0.0000 0.0000 0.0000 22.5766 0.0000 0.0000
# 5 0.0000 0.0000 0.0000 0.0000 24.2606 0.0000
# 6 0.0000 0.0000 0.0000 0.0000 0.0000 36.6770
#
#
#
# Elastic Compliance Matrix: (Units=1/GPa)
#
#
# Indices 1 2 3 4 5 6 
#
# 1 0.019289 -0.002472 -0.000791 0.000000 0.000000 0.000000
# 2 -0.002472 0.006096 -0.002140 0.000000 0.000000 0.000000
# 3 -0.000791 -0.002140 0.012389 0.000000 0.000000 0.000000
# 4 0.000000 0.000000 0.000000 0.044294 0.000000 0.000000
# 5 0.000000 0.000000 0.000000 0.000000 0.041219 0.000000
# 6 0.000000 0.000000 0.000000 0.000000 0.000000 0.027265
#
#
# Mechanical properties :
#
#
# Convention : Reuss Voigt Hill
#
# Bulk Modulus (GPa) = 37.08205 51.37525 44.22865
# Shear Modulus (GPa) = 29.35189 34.14821 31.75005
#
# Velocity S-wave (km/s) = 3.51639 3.79282 3.65722
# Velocity P-wave (km/s) = 5.66640 6.38932 6.03869
#
# Compressibility (1/GPa) = 0.02696722
#
# Stress axis : x y z
#
# Youngs Moduli (GPa) = 51.84434 164.03561 80.71827
#
# Poissons Ratio (x) = 0.40543 0.06387
# Poissons Ratio (y) = 0.12814 0.17276
# Poissons Ratio (z) = 0.04102 0.35109
#
# Static dielectric constant tensor:
#      x y z
#    x 1.982240 0.000000 0.000000 
#    y 0.000000 2.091300 0.000000 
#    z 0.000000 0.000000 2.035020 
# 
# From -- ./inp_files/17774.got.cif
#   From: 2010.05.17/outbox.cif.g08.bks.cpg/sg68_9_cif.got.tgz:17774.got - 2010.06.03 18:57:09.
