data_PCOD9510251
_publ_section_title
;
Structure prediction by ZEFSAII (Michael W. Deem and Ramdas Pophale) SiO2 
 PCOD9510251
Probable space group: C C C A
;
_chemical_formula_sum "Si O2"
_cell_formula_units_Z 68
_cell_length_a 12.743411
_cell_length_b 18.016064
_cell_length_c 14.150555
_cell_angle_alpha 90.000000
_cell_angle_beta 90.000000
_cell_angle_gamma 90.000000
_cell_volume 3248.770851
_symmetry_space_group_name_H-M "C C C A"
_symmetry_group_IT_number 68
_space_group.IT_coordinate_system_code '2'
_symmetry_cell_setting 'orthorhombic'
loop_
_space_group_symop_operation_xyz
x,y,z
-x,1/2-y,z
x,1/2-y,1/2-z
-x,y,1/2-z
-x,-y,-z
x,1/2+y,-z
-x,1/2+y,1/2+z
x,-y,1/2+z
1/2+x,1/2+y,z
1/2-x,-y,z
1/2+x,-y,1/2-z
1/2-x,1/2+y,1/2-z
1/2-x,1/2-y,-z
1/2+x,y,-z
1/2-x,y,1/2+z
1/2+x,1/2-y,1/2+z
loop_
_atom_site_type_symbol
_atom_site_label
_atom_site_fract_x
_atom_site_fract_y
_atom_site_fract_z
Si Si1 0.606668 0.708329 0.909841
Si Si2 0.000000 0.750000 0.750000
Si Si3 0.653119 0.444461 0.985856
Si Si4 0.335116 0.716302 0.099419
Si Si5 0.980505 0.549787 0.360423
O O1 0.500000 0.750000 0.879874
O O2 0.587375 0.622961 0.884555
O O3 0.621799 0.724796 0.022260
O O4 0.717338 0.736662 0.867835
O O5 0.919992 0.706962 0.818481
O O6 0.750000 0.500000 0.995220
O O7 0.679094 0.361296 0.955141
O O8 0.578213 0.479770 0.905804
O O9 0.588712 0.441596 0.082787
O O10 0.000000 0.543053 0.250000
#
# Coordination Sequence:
#
# PCOD9510251 Si02
#       5
#    16   4  16  16  16
#     4  11  22  46  66  96 140 179 230 278 354 403
#     4  12  24  44  70 108 130 176 238 290 340 412
#     4  11  23  47  66  96 141 183 224 281 349 415
#     4  11  24  43  71 101 135 187 226 291 342 416
#     4  11  25  42  68 102 134 179 226 287 341 410
#
# _framework density 20.930992
#
# number of rings (size 3 to 8) (size 9 to 14) (size 15 to 20)
#    0.000    0.941    5.882    0.000    1.647    3.294 
#    0.000    0.000    0.000    0.000    0.000    0.000 
#    0.000    0.000    0.000    0.000    0.000    0.000 
#
# Total GULP energy -189967.944691 kJ/mol
# GULP energy per Si atom -5587.292491 kJ/mol
# Density = 2.088335 g / cm^3
# Si number density = 20.930992 Si / 1000 Ang^3
#
#
#
# Elastic Constant Matrix: (Units=GPa)
#
#
# Indices 1 2 3 4 5 6 
#
# 1 157.8589 4.2278 59.4201 0.0000 0.0000 0.0000
# 2 4.2278 50.7144 36.0954 0.0000 0.0000 0.0000
# 3 59.4201 36.0954 146.5392 0.0000 0.0000 0.0000
# 4 0.0000 0.0000 0.0000 2.4082 0.0000 0.0000
# 5 0.0000 0.0000 0.0000 0.0000 19.6228 0.0000
# 6 0.0000 0.0000 0.0000 0.0000 0.0000 19.4045
#
#
#
# Elastic Compliance Matrix: (Units=1/GPa)
#
#
# Indices 1 2 3 4 5 6 
#
# 1 0.007623 0.001897 -0.003559 0.000000 0.000000 0.000000
# 2 0.001897 0.024382 -0.006775 0.000000 0.000000 0.000000
# 3 -0.003559 -0.006775 0.009936 0.000000 0.000000 0.000000
# 4 0.000000 0.000000 0.000000 0.415251 0.000000 0.000000
# 5 0.000000 0.000000 0.000000 0.000000 0.050961 0.000000
# 6 0.000000 0.000000 0.000000 0.000000 0.000000 0.051534
#
#
# Mechanical properties :
#
#
# Convention : Reuss Voigt Hill
#
# Bulk Modulus (GPa) = 39.89041 61.62212 50.75627
# Shear Modulus (GPa) = 8.54822 25.31170 16.92996
#
# Velocity S-wave (km/s) = 2.02308 3.48126 2.84711
# Velocity P-wave (km/s) = 4.95546 6.75747 5.92537
#
# Compressibility (1/GPa) = 0.02506868
#
# Stress axis : x y z
#
# Youngs Moduli (GPa) = 131.17434 41.01355 100.64513
#
# Poissons Ratio (x) = -0.07781 0.35815
# Poissons Ratio (y) = -0.24887 0.68188
# Poissons Ratio (z) = 0.46679 0.27787
#
# Static dielectric constant tensor:
#      x y z
#    x 1.813710 0.000000 0.000000 
#    y 0.000000 1.724620 0.000000 
#    z 0.000000 0.000000 1.734710 
# 
# From -- ./inp_files/20691.got.cif
#   From: 2010.05.17/outbox.cif.g08.bks.cpg/sg68_11_cif.got.tgz:20691.got - 2010.06.03 18:57:09.
