data_PCOD9510708
_publ_section_title
;
Structure prediction by ZEFSAII (Michael W. Deem and Ramdas Pophale) SiO2 
 PCOD9510708
Probable space group: C C C A
;
_chemical_formula_sum "Si O2"
_cell_formula_units_Z 88
_cell_length_a 24.463770
_cell_length_b 16.593027
_cell_length_c 10.372915
_cell_angle_alpha 90.000000
_cell_angle_beta 90.000000
_cell_angle_gamma 90.000000
_cell_volume 4210.656600
_symmetry_space_group_name_H-M "C C C A"
_symmetry_group_IT_number 68
_space_group.IT_coordinate_system_code '2'
_symmetry_cell_setting 'orthorhombic'
loop_
_space_group_symop_operation_xyz
x,y,z
-x,1/2-y,z
x,1/2-y,1/2-z
-x,y,1/2-z
-x,-y,-z
x,1/2+y,-z
-x,1/2+y,1/2+z
x,-y,1/2+z
1/2+x,1/2+y,z
1/2-x,-y,z
1/2+x,-y,1/2-z
1/2-x,1/2+y,1/2-z
1/2-x,1/2-y,-z
1/2+x,y,-z
1/2-x,y,1/2+z
1/2+x,1/2-y,1/2+z
loop_
_atom_site_type_symbol
_atom_site_label
_atom_site_fract_x
_atom_site_fract_y
_atom_site_fract_z
Si Si1 0.867027 0.750000 0.750000
Si Si2 0.437172 0.088600 0.778958
Si Si3 0.301491 0.040587 0.416436
Si Si4 0.399537 0.535079 0.950044
Si Si5 0.733876 0.320102 0.595885
Si Si6 0.649469 0.840249 0.777092
O O1 0.903423 0.672762 0.791265
O O2 0.823690 0.708682 0.652987
O O3 0.500000 0.106943 0.750000
O O4 0.415221 0.032545 0.658319
O O5 0.434187 0.043253 0.918185
O O6 0.274408 0.098524 0.519592
O O7 0.343821 0.095076 0.336803
O O8 0.250000 0.000000 0.343058
O O9 0.338865 0.979295 0.493721
O O10 0.391976 0.619683 0.877349
O O11 0.750000 0.250000 0.500000
O O12 0.786317 0.331448 0.685586
O O13 0.630749 0.750000 0.750000
#
# Coordination Sequence:
#
# PCOD9510708 Si02
#       6
#     8  16  16  16  16  16
#     4  12  25  42  72 102 140 186 231 290 354 428
#     4  12  28  51  75 102 135 187 253 313 361 411
#     4  12  25  37  63 102 145 187 233 278 350 442
#     4  12  26  46  75 102 141 188 240 302 364 422
#     4  12  22  38  61  99 146 186 222 270 345 436
#     4  12  25  40  64 106 150 191 233 284 355 445
#
# _framework density 20.899355
#
# number of rings (size 3 to 8) (size 9 to 14) (size 15 to 20)
#    0.000    0.000    8.182    1.909    5.091    0.000 
#    0.000    0.000    0.000    0.000    0.000    0.000 
#    0.000    0.000    0.000    0.000    0.000    0.000 
#
# Total GULP energy -245421.047387 kJ/mol
# GULP energy per Si atom -5577.751077 kJ/mol
# Density = 2.085179 g / cm^3
# Si number density = 20.899355 Si / 1000 Ang^3
#
#
#
# Elastic Constant Matrix: (Units=GPa)
#
#
# Indices 1 2 3 4 5 6 
#
# 1 77.2104 10.0589 12.1769 0.0000 0.0000 0.0000
# 2 10.0589 83.9872 23.1509 0.0000 0.0000 0.0000
# 3 12.1769 23.1509 82.2562 0.0000 0.0000 0.0000
# 4 0.0000 0.0000 0.0000 34.9158 0.0000 0.0000
# 5 0.0000 0.0000 0.0000 0.0000 18.9947 0.0000
# 6 0.0000 0.0000 0.0000 0.0000 0.0000 24.0140
#
#
#
# Elastic Compliance Matrix: (Units=1/GPa)
#
#
# Indices 1 2 3 4 5 6 
#
# 1 0.013362 -0.001144 -0.001656 0.000000 0.000000 0.000000
# 2 -0.001144 0.013006 -0.003491 0.000000 0.000000 0.000000
# 3 -0.001656 -0.003491 0.013385 0.000000 0.000000 0.000000
# 4 0.000000 0.000000 0.000000 0.028640 0.000000 0.000000
# 5 0.000000 0.000000 0.000000 0.000000 0.052646 0.000000
# 6 0.000000 0.000000 0.000000 0.000000 0.000000 0.041642
#
#
# Mechanical properties :
#
#
# Convention : Reuss Voigt Hill
#
# Bulk Modulus (GPa) = 36.80471 37.13637 36.97054
# Shear Modulus (GPa) = 27.12665 28.78937 27.95801
#
# Velocity S-wave (km/s) = 3.60664 3.71553 3.66149
# Velocity P-wave (km/s) = 5.91544 6.01786 5.96687
#
# Compressibility (1/GPa) = 0.02717043
#
# Stress axis : x y z
#
# Youngs Moduli (GPa) = 74.84005 76.88816 74.71106
#
# Poissons Ratio (x) = 0.08794 0.12373
# Poissons Ratio (y) = 0.08560 0.26083
# Poissons Ratio (z) = 0.12394 0.26843
#
# Static dielectric constant tensor:
#      x y z
#    x 1.707670 0.000000 0.000000 
#    y 0.000000 1.958900 0.000000 
#    z 0.000000 0.000000 2.124710 
# 
# From -- ./inp_files/15420.got.cif
#   From: 2010.05.17/outbox.cif.g08.bks.cpg/sg68_8_cif.got.tgz:15420.got - 2010.06.03 18:57:09.
