data_PCOD9510236
_publ_section_title
;
Structure prediction by ZEFSAII (Michael W. Deem and Ramdas Pophale) SiO2 
 PCOD9510236
Probable space group: C C C A
;
_chemical_formula_sum "Si O2"
_cell_formula_units_Z 112
_cell_length_a 10.837882
_cell_length_b 14.729886
_cell_length_c 29.287350
_cell_angle_alpha 90.000000
_cell_angle_beta 90.000000
_cell_angle_gamma 90.000000
_cell_volume 4675.454998
_symmetry_space_group_name_H-M "C C C A"
_symmetry_group_IT_number 68
_space_group.IT_coordinate_system_code '2'
_symmetry_cell_setting 'orthorhombic'
loop_
_space_group_symop_operation_xyz
x,y,z
-x,1/2-y,z
x,1/2-y,1/2-z
-x,y,1/2-z
-x,-y,-z
x,1/2+y,-z
-x,1/2+y,1/2+z
x,-y,1/2+z
1/2+x,1/2+y,z
1/2-x,-y,z
1/2+x,-y,1/2-z
1/2-x,1/2+y,1/2-z
1/2-x,1/2-y,-z
1/2+x,y,-z
1/2-x,y,1/2+z
1/2+x,1/2-y,1/2+z
loop_
_atom_site_type_symbol
_atom_site_label
_atom_site_fract_x
_atom_site_fract_y
_atom_site_fract_z
Si Si1 0.845910 0.585539 0.754193
Si Si2 0.798566 0.401272 0.843856
Si Si3 0.660787 0.412686 0.056463
Si Si4 0.480057 0.516696 0.868776
Si Si5 0.899411 0.323617 0.170096
Si Si6 0.225945 0.734457 0.583824
Si Si7 0.378228 0.942451 0.458646
O O1 0.750000 0.500000 0.747836
O O2 0.796259 0.621285 0.803583
O O3 0.816078 0.655680 0.713827
O O4 0.000000 0.574001 0.750000
O O5 0.750000 0.500000 0.860978
O O6 0.936752 0.430024 0.832159
O O7 0.812360 0.330377 0.884800
O O8 0.750000 0.500000 0.056361
O O9 0.615007 0.413918 0.108916
O O10 0.720076 0.313111 0.052292
O O11 0.578178 0.428534 0.011193
O O12 0.439012 0.424840 0.845276
O O13 0.541852 0.484464 0.917365
O O14 0.849961 0.283231 0.123280
O O15 0.000000 0.250000 0.185472
O O16 0.148184 0.660241 0.557082
O O17 0.250000 0.000000 0.461384
#
# Coordination Sequence:
#
# PCOD9510236 Si02
#       7
#    16  16  16  16  16  16  16
#     4  11  26  46  76 114 146 191 252 315 381 453
#     4  11  22  46  71  99 137 190 243 289 366 457
#     4  11  26  41  65 109 148 186 245 316 366 430
#     4  12  22  45  72  99 140 195 241 294 377 450
#     4  12  24  41  73 106 142 185 247 314 363 446
#     4  12  22  42  67 102 143 188 241 299 373 436
#     4  11  22  44  70  98 143 193 247 304 366 446
#
# _framework density 23.954889000000001
#
# number of rings (size 3 to 8) (size 9 to 14) (size 15 to 20)
#    0.000    0.571    5.714    3.429    2.000    2.571 
#    0.000    1.429    0.000    0.000    0.000    0.000 
#    0.000    0.000    0.000    0.000    0.000    0.000 
#
# Total GULP energy -311805.794172 kJ/mol
# GULP energy per Si atom -5567.960610 kJ/mol
# Density = 2.390037 g / cm^3
# Si number density = 23.954889 Si / 1000 Ang^3
#
#
#
# Elastic Constant Matrix: (Units=GPa)
#
#
# Indices 1 2 3 4 5 6 
#
# 1 27.0228 22.1876 13.9184 0.0000 0.0000 0.0000
# 2 22.1876 87.1333 26.1328 0.0000 0.0000 0.0000
# 3 13.9184 26.1328 126.5484 0.0000 0.0000 0.0000
# 4 0.0000 0.0000 0.0000 62.8060 0.0000 0.0000
# 5 0.0000 0.0000 0.0000 0.0000 52.3656 0.0000
# 6 0.0000 0.0000 0.0000 0.0000 0.0000 38.0300
#
#
#
# Elastic Compliance Matrix: (Units=1/GPa)
#
#
# Indices 1 2 3 4 5 6 
#
# 1 0.047782 -0.011290 -0.002924 0.000000 0.000000 0.000000
# 2 -0.011290 0.014902 -0.001836 0.000000 0.000000 0.000000
# 3 -0.002924 -0.001836 0.008603 0.000000 0.000000 0.000000
# 4 0.000000 0.000000 0.000000 0.015922 0.000000 0.000000
# 5 0.000000 0.000000 0.000000 0.000000 0.019096 0.000000
# 6 0.000000 0.000000 0.000000 0.000000 0.000000 0.026295
#
#
# Mechanical properties :
#
#
# Convention : Reuss Voigt Hill
#
# Bulk Modulus (GPa) = 25.51839 40.57580 33.04709
# Shear Modulus (GPa) = 28.12744 42.53803 35.33273
#
# Velocity S-wave (km/s) = 3.43035 4.21854 3.84470
# Velocity P-wave (km/s) = 5.13474 6.37992 5.79089
#
# Compressibility (1/GPa) = 0.03918743
#
# Stress axis : x y z
#
# Youngs Moduli (GPa) = 20.92841 67.10433 116.24191
#
# Poissons Ratio (x) = 0.75763 0.33987
# Poissons Ratio (y) = 0.23629 0.21337
# Poissons Ratio (z) = 0.06119 0.12318
#
# Static dielectric constant tensor:
#      x y z
#    x 2.255370 0.000000 0.000000 
#    y 0.000000 2.040540 0.000000 
#    z 0.000000 0.000000 1.924970 
# 
# From -- ./inp_files/54813.got.cif
#   From: 2010.05.17/outbox.cif.g08.bks.cpg/sg68_28_cif.got.tgz:54813.got - 2010.06.03 18:57:09.
