data_PCOD9510851
_publ_section_title
;
Structure prediction by ZEFSAII (Michael W. Deem and Ramdas Pophale) SiO2 
 PCOD9510851
Probable space group: C C C A
;
_chemical_formula_sum "Si O2"
_cell_formula_units_Z 56
_cell_length_a 8.101651
_cell_length_b 15.324735
_cell_length_c 17.632165
_cell_angle_alpha 90.000000
_cell_angle_beta 90.000000
_cell_angle_gamma 90.000000
_cell_volume 2189.132988
_symmetry_space_group_name_H-M "C C C A"
_symmetry_group_IT_number 68
_space_group.IT_coordinate_system_code '2'
_symmetry_cell_setting 'orthorhombic'
loop_
_space_group_symop_operation_xyz
x,y,z
-x,1/2-y,z
x,1/2-y,1/2-z
-x,y,1/2-z
-x,-y,-z
x,1/2+y,-z
-x,1/2+y,1/2+z
x,-y,1/2+z
1/2+x,1/2+y,z
1/2-x,-y,z
1/2+x,-y,1/2-z
1/2-x,1/2+y,1/2-z
1/2-x,1/2-y,-z
1/2+x,y,-z
1/2-x,y,1/2+z
1/2+x,1/2-y,1/2+z
loop_
_atom_site_type_symbol
_atom_site_label
_atom_site_fract_x
_atom_site_fract_y
_atom_site_fract_z
Si Si1 0.911041 0.905978 0.508496
Si Si2 0.500000 0.947336 0.750000
Si Si3 0.659406 0.312768 0.149561
Si Si4 0.500000 0.750000 0.391986
Si Si5 0.250000 0.000000 0.370559
O O1 0.857076 0.867310 0.428580
O O2 0.010754 0.832261 0.551978
O O3 0.764860 0.920430 0.570541
O O4 0.000000 0.000000 0.500000
O O5 0.640010 0.884810 0.785084
O O6 0.589081 0.998493 0.682365
O O7 0.500000 0.250000 0.153904
O O8 0.829451 0.259286 0.153573
#
# Coordination Sequence:
#
# PCOD9510851 Si02
#       5
#    16   8  16   8   8
#     4  12  25  50  82 119 161 218 280 347 406 495
#     4  12  29  50  78 117 178 214 274 359 436 505
#     4  12  27  53  80 121 168 215 279 357 418 502
#     4  12  28  46  87 117 156 220 284 332 422 501
#     4  12  28  50  80 120 164 222 282 344 426 502
#
# _framework density 25.580901999999998
#
# number of rings (size 3 to 8) (size 9 to 14) (size 15 to 20)
#    0.000    0.000    4.286    4.714    4.000    1.143 
#    0.000    5.714    0.000    0.000    0.000    0.000 
#    0.000    0.000    0.000    0.000    0.000    0.000 
#
# Total GULP energy -156745.753328 kJ/mol
# GULP energy per Si atom -5598.062619 kJ/mol
# Density = 2.552268 g / cm^3
# Si number density = 25.580902 Si / 1000 Ang^3
#
#
#
# Elastic Constant Matrix: (Units=GPa)
#
#
# Indices 1 2 3 4 5 6 
#
# 1 148.1828 29.6451 20.9768 0.0000 0.0000 0.0000
# 2 29.6451 76.6274 6.8439 0.0000 0.0000 0.0000
# 3 20.9768 6.8439 114.8760 0.0000 0.0000 0.0000
# 4 0.0000 0.0000 0.0000 46.0282 0.0000 0.0000
# 5 0.0000 0.0000 0.0000 0.0000 38.5073 0.0000
# 6 0.0000 0.0000 0.0000 0.0000 0.0000 40.1721
#
#
#
# Elastic Compliance Matrix: (Units=1/GPa)
#
#
# Indices 1 2 3 4 5 6 
#
# 1 0.007475 -0.002785 -0.001199 0.000000 0.000000 0.000000
# 2 -0.002785 0.014157 -0.000335 0.000000 0.000000 0.000000
# 3 -0.001199 -0.000335 0.008944 0.000000 0.000000 0.000000
# 4 0.000000 0.000000 0.000000 0.021726 0.000000 0.000000
# 5 0.000000 0.000000 0.000000 0.000000 0.025969 0.000000
# 6 0.000000 0.000000 0.000000 0.000000 0.000000 0.024893
#
#
# Mechanical properties :
#
#
# Convention : Reuss Voigt Hill
#
# Bulk Modulus (GPa) = 45.58116 50.51309 48.04713
# Shear Modulus (GPa) = 41.97610 43.75620 42.86615
#
# Velocity S-wave (km/s) = 4.05522 4.14031 4.09798
# Velocity P-wave (km/s) = 6.30742 6.53035 6.41985
#
# Compressibility (1/GPa) = 0.02193889
#
# Stress axis : x y z
#
# Youngs Moduli (GPa) = 133.77372 70.63400 111.80741
#
# Poissons Ratio (x) = 0.19671 0.13407
# Poissons Ratio (y) = 0.37255 0.03745
# Poissons Ratio (z) = 0.16041 0.02366
#
# Static dielectric constant tensor:
#      x y z
#    x 2.307970 0.000000 0.000000 
#    y 0.000000 2.014030 0.000000 
#    z 0.000000 0.000000 1.965850 
# 
# From -- ./inp_files/27738.got.cif
#   From: 2010.05.17/outbox.cif.g08.bks.cpg/sg68_14_cif.got.tgz:27738.got - 2010.06.03 18:57:09.
