data_PCOD9510023
_publ_section_title
;
Structure prediction by ZEFSAII (Michael W. Deem and Ramdas Pophale) SiO2 
 PCOD9510023
Probable space group: C C C A
;
_chemical_formula_sum "Si O2"
_cell_formula_units_Z 80
_cell_length_a 23.948488
_cell_length_b 17.478135
_cell_length_c 9.741959
_cell_angle_alpha 90.000000
_cell_angle_beta 90.000000
_cell_angle_gamma 90.000000
_cell_volume 4077.739576
_symmetry_space_group_name_H-M "C C C A"
_symmetry_group_IT_number 68
_space_group.IT_coordinate_system_code '2'
_symmetry_cell_setting 'orthorhombic'
loop_
_space_group_symop_operation_xyz
x,y,z
-x,1/2-y,z
x,1/2-y,1/2-z
-x,y,1/2-z
-x,-y,-z
x,1/2+y,-z
-x,1/2+y,1/2+z
x,-y,1/2+z
1/2+x,1/2+y,z
1/2-x,-y,z
1/2+x,-y,1/2-z
1/2-x,1/2+y,1/2-z
1/2-x,1/2-y,-z
1/2+x,y,-z
1/2-x,y,1/2+z
1/2+x,1/2-y,1/2+z
loop_
_atom_site_type_symbol
_atom_site_label
_atom_site_fract_x
_atom_site_fract_y
_atom_site_fract_z
Si Si1 0.332135 0.171024 0.885811
Si Si2 0.307325 0.455431 0.402065
Si Si3 0.060351 0.731910 0.911986
Si Si4 0.793547 0.325339 0.829294
Si Si5 0.861991 0.111151 0.411134
O O1 0.383740 0.219128 0.949506
O O2 0.268061 0.198884 0.882843
O O3 0.343852 0.155467 0.726419
O O4 0.327852 0.092652 0.968900
O O5 0.250000 0.500000 0.432066
O O6 0.294125 0.395117 0.280740
O O7 0.351986 0.522648 0.378603
O O8 0.055356 0.750000 0.750000
O O9 0.076101 0.643459 0.935598
O O10 0.000000 0.750000 0.975195
O O11 0.816351 0.250000 0.750000
O O12 0.826107 0.359904 0.959431
#
# Coordination Sequence:
#
# PCOD9510023 Si02
#       5
#    16  16  16  16  16
#     4  11  21  36  58  84 118 159 200 248 303 373
#     4  12  23  36  56  90 132 158 191 245 316 383
#     4   9  20  39  61  84 112 156 214 261 296 357
#     4  12  23  36  57  92 128 162 199 249 317 391
#     4  11  22  36  60  88 120 160 200 248 313 365
#
# _framework density 19.618711999999999
#
# number of rings (size 3 to 8) (size 9 to 14) (size 15 to 20)
#    0.000    1.000    4.000    4.200    0.000    2.400 
#    0.000    1.000    0.000    7.800    0.000    0.000 
#    0.000    0.000    0.000    0.000    0.000    0.000 
#
# Total GULP energy -222976.729119 kJ/mol
# GULP energy per Si atom -5574.418228 kJ/mol
# Density = 1.957406 g / cm^3
# Si number density = 19.618712 Si / 1000 Ang^3
#
#
#
# Elastic Constant Matrix: (Units=GPa)
#
#
# Indices 1 2 3 4 5 6 
#
# 1 94.6387 54.4035 35.9744 0.0000 0.0000 0.0000
# 2 54.4035 130.3335 25.4168 0.0000 0.0000 0.0000
# 3 35.9744 25.4168 58.3248 0.0000 0.0000 0.0000
# 4 0.0000 0.0000 0.0000 43.4285 0.0000 0.0000
# 5 0.0000 0.0000 0.0000 0.0000 6.4720 0.0000
# 6 0.0000 0.0000 0.0000 0.0000 0.0000 21.5196
#
#
#
# Elastic Compliance Matrix: (Units=1/GPa)
#
#
# Indices 1 2 3 4 5 6 
#
# 1 0.016702 -0.005424 -0.007938 0.000000 0.000000 0.000000
# 2 -0.005424 0.010146 -0.001076 0.000000 0.000000 0.000000
# 3 -0.007938 -0.001076 0.022511 0.000000 0.000000 0.000000
# 4 0.000000 0.000000 0.000000 0.023026 0.000000 0.000000
# 5 0.000000 0.000000 0.000000 0.000000 0.154511 0.000000
# 6 0.000000 0.000000 0.000000 0.000000 0.000000 0.046469
#
#
# Mechanical properties :
#
#
# Convention : Reuss Voigt Hill
#
# Bulk Modulus (GPa) = 48.82165 57.20962 53.01563
# Shear Modulus (GPa) = 16.17764 25.45083 20.81423
#
# Velocity S-wave (km/s) = 2.87470 3.60568 3.26074
# Velocity P-wave (km/s) = 5.99649 6.82338 6.42326
#
# Compressibility (1/GPa) = 0.02048272
#
# Stress axis : x y z
#
# Youngs Moduli (GPa) = 59.87415 98.55692 44.42357
#
# Poissons Ratio (x) = 0.53453 0.35264
# Poissons Ratio (y) = 0.32473 0.04782
# Poissons Ratio (z) = 0.47528 0.10609
#
# Static dielectric constant tensor:
#      x y z
#    x 1.736430 0.000000 0.000000 
#    y 0.000000 1.755020 0.000000 
#    z 0.000000 0.000000 1.715140 
# 
# From -- ./inp_files/8788.got.cif
#   From: 2010.05.17/outbox.cif.g08.bks.cpg/sg68_5_cif.got.tgz:8788.got - 2010.06.03 18:57:09.
