data_PCOD9510003
_publ_section_title
;
Structure prediction by ZEFSAII (Michael W. Deem and Ramdas Pophale) SiO2 
 PCOD9510003
Probable space group: C C C A
;
_chemical_formula_sum "Si O2"
_cell_formula_units_Z 108
_cell_length_a 13.707428
_cell_length_b 28.720965
_cell_length_c 12.102114
_cell_angle_alpha 90.000000
_cell_angle_beta 90.000000
_cell_angle_gamma 90.000000
_cell_volume 4764.488036
_symmetry_space_group_name_H-M "C C C A"
_symmetry_group_IT_number 68
_space_group.IT_coordinate_system_code '2'
_symmetry_cell_setting 'orthorhombic'
loop_
_space_group_symop_operation_xyz
x,y,z
-x,1/2-y,z
x,1/2-y,1/2-z
-x,y,1/2-z
-x,-y,-z
x,1/2+y,-z
-x,1/2+y,1/2+z
x,-y,1/2+z
1/2+x,1/2+y,z
1/2-x,-y,z
1/2+x,-y,1/2-z
1/2-x,1/2+y,1/2-z
1/2-x,1/2-y,-z
1/2+x,y,-z
1/2-x,y,1/2+z
1/2+x,1/2-y,1/2+z
loop_
_atom_site_type_symbol
_atom_site_label
_atom_site_fract_x
_atom_site_fract_y
_atom_site_fract_z
Si Si1 0.250000 0.000000 0.198968
Si Si2 0.366642 0.857957 0.977360
Si Si3 0.104765 0.070131 0.310968
Si Si4 0.387255 0.672050 0.276263
Si Si5 0.075713 0.168548 0.595247
Si Si6 0.000000 0.250000 0.750000
Si Si7 0.809254 0.917009 0.452889
Si Si8 0.711083 0.789255 0.084327
O O1 0.325702 0.971192 0.272333
O O2 0.197371 0.962414 0.121095
O O3 0.375770 0.830610 0.093319
O O4 0.299479 0.903303 0.001172
O O5 0.472985 0.857863 0.923677
O O6 0.299900 0.824947 0.905479
O O7 0.138892 0.120217 0.265938
O O8 0.117216 0.075125 0.443469
O O9 0.000000 0.063577 0.250000
O O10 0.500000 0.679716 0.250000
O O11 0.326398 0.709128 0.208724
O O12 0.060996 0.213257 0.674558
O O13 0.153226 0.127416 0.618497
O O14 0.119007 0.189106 0.481804
O O15 0.750000 0.750000 0.000000
#
# Coordination Sequence:
#
# PCOD9510003 Si02
#       8
#     8  16  16  16  16   4  16  16
#     4  12  26  44  72 114 150 190 258 312 380 454
#     4  11  22  42  73  98 140 189 245 301 364 443
#     4  11  23  46  72 102 145 193 245 305 370 447
#     4  11  20  43  74  94 134 198 244 289 360 439
#     4  11  24  47  67 102 146 196 240 309 372 451
#     4  12  28  44  72 102 152 194 240 300 396 456
#     4  11  25  45  73 108 143 196 254 307 379 445
#     4  11  24  40  66 103 138 183 247 299 365 439
#
# _framework density 22.667704000000001
#
# number of rings (size 3 to 8) (size 9 to 14) (size 15 to 20)
#    0.000    0.889    5.926    2.222    0.000    7.111 
#    4.000    0.741    0.000    0.000    0.000    0.000 
#    0.000    0.000    0.000    0.000    0.000    0.000 
#
# Total GULP energy -301400.075303 kJ/mol
# GULP energy per Si atom -5581.482876 kJ/mol
# Density = 2.261611 g / cm^3
# Si number density = 22.667704 Si / 1000 Ang^3
#
#
#
# Elastic Constant Matrix: (Units=GPa)
#
#
# Indices 1 2 3 4 5 6 
#
# 1 113.2670 43.1154 22.7420 0.0000 0.0000 0.0000
# 2 43.1154 141.9868 52.2519 0.0000 0.0000 0.0000
# 3 22.7420 52.2519 56.0639 0.0000 0.0000 0.0000
# 4 0.0000 0.0000 0.0000 33.3829 0.0000 0.0000
# 5 0.0000 0.0000 0.0000 0.0000 11.0970 0.0000
# 6 0.0000 0.0000 0.0000 0.0000 0.0000 57.6893
#
#
#
# Elastic Compliance Matrix: (Units=1/GPa)
#
#
# Indices 1 2 3 4 5 6 
#
# 1 0.010112 -0.002376 -0.001887 0.000000 0.000000 0.000000
# 2 -0.002376 0.011278 -0.009547 0.000000 0.000000 0.000000
# 3 -0.001887 -0.009547 0.027500 0.000000 0.000000 0.000000
# 4 0.000000 0.000000 0.000000 0.029955 0.000000 0.000000
# 5 0.000000 0.000000 0.000000 0.000000 0.090114 0.000000
# 6 0.000000 0.000000 0.000000 0.000000 0.000000 0.017334
#
#
# Mechanical properties :
#
#
# Convention : Reuss Voigt Hill
#
# Bulk Modulus (GPa) = 47.01664 60.83736 53.92700
# Shear Modulus (GPa) = 22.62389 33.31441 27.96915
#
# Velocity S-wave (km/s) = 3.16265 3.83781 3.51647
# Velocity P-wave (km/s) = 5.84150 6.82169 6.35053
#
# Compressibility (1/GPa) = 0.02126906
#
# Stress axis : x y z
#
# Youngs Moduli (GPa) = 98.89137 88.66977 36.36310
#
# Poissons Ratio (x) = 0.21068 0.06863
# Poissons Ratio (y) = 0.23497 0.34716
# Poissons Ratio (z) = 0.18665 0.84654
#
# Static dielectric constant tensor:
#      x y z
#    x 1.995870 0.000000 0.000000 
#    y 0.000000 1.855970 0.000000 
#    z 0.000000 0.000000 1.756100 
# 
# From -- ./inp_files/13634.got.cif
#   From: 2010.05.17/outbox.cif.g08.bks.cpg/sg68_7_cif.got.tgz:13634.got - 2010.06.03 18:57:09.
