data_PCOD9510561
_publ_section_title
;
Structure prediction by ZEFSAII (Michael W. Deem and Ramdas Pophale) SiO2 
 PCOD9510561
Probable space group: C C C A
;
_chemical_formula_sum "Si O2"
_cell_formula_units_Z 72
_cell_length_a 10.902345
_cell_length_b 10.592006
_cell_length_c 25.230928
_cell_angle_alpha 90.000000
_cell_angle_beta 90.000000
_cell_angle_gamma 90.000000
_cell_volume 2913.609627
_symmetry_space_group_name_H-M "C C C A"
_symmetry_group_IT_number 68
_space_group.IT_coordinate_system_code '2'
_symmetry_cell_setting 'orthorhombic'
loop_
_space_group_symop_operation_xyz
x,y,z
-x,1/2-y,z
x,1/2-y,1/2-z
-x,y,1/2-z
-x,-y,-z
x,1/2+y,-z
-x,1/2+y,1/2+z
x,-y,1/2+z
1/2+x,1/2+y,z
1/2-x,-y,z
1/2+x,-y,1/2-z
1/2-x,1/2+y,1/2-z
1/2-x,1/2-y,-z
1/2+x,y,-z
1/2-x,y,1/2+z
1/2+x,1/2-y,1/2+z
loop_
_atom_site_type_symbol
_atom_site_label
_atom_site_fract_x
_atom_site_fract_y
_atom_site_fract_z
Si Si1 0.114165 0.671551 0.364819
Si Si2 0.750000 0.500000 0.218678
Si Si3 0.684999 0.364484 0.909283
Si Si4 0.000000 0.750000 0.659654
Si Si5 0.879545 0.426354 0.519893
Si Si6 0.816884 0.750000 0.750000
O O1 0.155013 0.564281 0.323599
O O2 0.226715 0.764056 0.380924
O O3 0.080380 0.622081 0.422997
O O4 0.000000 0.750000 0.342695
O O5 0.752985 0.381614 0.260307
O O6 0.750000 0.500000 0.908868
O O7 0.558731 0.356534 0.876792
O O8 0.652955 0.333881 0.970545
O O9 0.101786 0.795408 0.700789
O O10 0.750000 0.500000 0.528313
O O11 0.000000 0.500000 0.500000
#
# Coordination Sequence:
#
# PCOD9510561 Si02
#       6
#    16   8  16   8  16   8
#     4  12  26  47  78 114 162 209 266 333 399 495
#     4  12  28  56  80 120 156 212 280 352 420 494
#     4  11  26  44  75 115 158 211 263 324 394 493
#     4  11  26  48  80 108 148 208 258 335 402 480
#     4  11  25  44  74 114 166 214 267 321 402 493
#     4  11  28  52  83 110 155 206 278 351 414 475
#
# _framework density 24.711615999999999
#
# number of rings (size 3 to 8) (size 9 to 14) (size 15 to 20)
#    0.000    0.667    3.333    3.333   12.444    0.000 
#    4.000    0.000    0.000    0.000    0.000    0.000 
#    0.000    0.000    0.000    0.000    0.000    0.000 
#
# Total GULP energy -200874.719833 kJ/mol
# GULP energy per Si atom -5579.853329 kJ/mol
# Density = 2.465537 g / cm^3
# Si number density = 24.711616 Si / 1000 Ang^3
#
#
#
# Elastic Constant Matrix: (Units=GPa)
#
#
# Indices 1 2 3 4 5 6 
#
# 1 99.2234 47.3374 33.1437 0.0000 0.0000 0.0000
# 2 47.3374 145.9243 45.1931 0.0000 0.0000 0.0000
# 3 33.1437 45.1931 99.1290 0.0000 0.0000 0.0000
# 4 0.0000 0.0000 0.0000 -441.5595 0.0000 0.0000
# 5 0.0000 0.0000 0.0000 0.0000 92.0980 0.0000
# 6 0.0000 0.0000 0.0000 0.0000 0.0000 48.1720
#
#
#
# Elastic Compliance Matrix: (Units=1/GPa)
#
#
# Indices 1 2 3 4 5 6 
#
# 1 0.012523 -0.003220 -0.002719 0.000000 0.000000 0.000000
# 2 -0.003220 0.008808 -0.002939 0.000000 0.000000 0.000000
# 3 -0.002719 -0.002939 0.012337 0.000000 0.000000 0.000000
# 4 0.000000 0.000000 0.000000 -0.002265 0.000000 0.000000
# 5 0.000000 0.000000 0.000000 0.000000 0.010858 0.000000
# 6 0.000000 0.000000 0.000000 0.000000 0.000000 0.020759
#
#
# Mechanical properties :
#
#
# Convention : Reuss Voigt Hill
#
# Bulk Modulus (GPa) = 62.84814 66.18057 64.51436
# Shear Modulus (GPa) = 58.08625 -45.68439 6.20093
#
# Velocity S-wave (km/s) = 4.85352 -4.30432 1.58580
# Velocity P-wave (km/s) = 7.54299 1.46166 5.43292
#
# Compressibility (1/GPa) = 0.01591137
#
# Stress axis : x y z
#
# Youngs Moduli (GPa) = 79.85438 113.53757 81.05918
#
# Poissons Ratio (x) = 0.36563 0.22039
# Poissons Ratio (y) = 0.25716 0.23821
# Poissons Ratio (z) = 0.21711 0.33365
#
# Static dielectric constant tensor:
#      x y z
#    x 2.196240 0.000000 0.000000 
#    y 0.000000 5.194820 0.000000 
#    z 0.000000 0.000000 1.958100 
# 
# From -- ./inp_files/50040.got.cif
#   From: 2010.05.17/outbox.cif.g08.bks.cpg/sg68_26_cif.got.tgz:50040.got - 2010.06.03 18:57:09.
