data_PCOD9510799
_publ_section_title
;
Structure prediction by ZEFSAII (Michael W. Deem and Ramdas Pophale) SiO2 
 PCOD9510799
Probable space group: C C C A
;
_chemical_formula_sum "Si O2"
_cell_formula_units_Z 44
_cell_length_a 24.831865
_cell_length_b 14.076726
_cell_length_c 5.499579
_cell_angle_alpha 90.000000
_cell_angle_beta 90.000000
_cell_angle_gamma 90.000000
_cell_volume 1922.385317
_symmetry_space_group_name_H-M "C C C A"
_symmetry_group_IT_number 68
_space_group.IT_coordinate_system_code '2'
_symmetry_cell_setting 'orthorhombic'
loop_
_space_group_symop_operation_xyz
x,y,z
-x,1/2-y,z
x,1/2-y,1/2-z
-x,y,1/2-z
-x,-y,-z
x,1/2+y,-z
-x,1/2+y,1/2+z
x,-y,1/2+z
1/2+x,1/2+y,z
1/2-x,-y,z
1/2+x,-y,1/2-z
1/2-x,1/2+y,1/2-z
1/2-x,1/2-y,-z
1/2+x,y,-z
1/2-x,y,1/2+z
1/2+x,1/2-y,1/2+z
loop_
_atom_site_type_symbol
_atom_site_label
_atom_site_fract_x
_atom_site_fract_y
_atom_site_fract_z
Si Si1 0.216053 0.250000 0.250000
Si Si2 0.462462 0.590979 0.058985
Si Si3 0.658676 0.551164 0.314105
Si Si4 0.000000 0.250000 0.750000
O O1 0.250000 0.250000 0.500000
O O2 0.180681 0.155307 0.263483
O O3 0.500000 0.645119 0.250000
O O4 0.406263 0.557133 0.166976
O O5 0.500000 0.500000 0.000000
O O6 0.457861 0.670652 0.854332
O O7 0.675430 0.512256 0.580749
#
# Coordination Sequence:
#
# PCOD9510799 Si02
#       4
#     8  16  16   4
#     4  12  30  53  77 112 147 192 269 330 372 452
#     4  12  24  45  68 110 158 194 247 304 367 475
#     4  12  27  48  80 111 150 201 246 308 392 453
#     4  12  26  38  72  96 160 220 236 296 386 430
#
# _framework density 22.888231999999999
#
# number of rings (size 3 to 8) (size 9 to 14) (size 15 to 20)
#    0.000    0.000    5.455    2.727    5.091    5.818 
#    0.000    0.000    0.000    0.000    0.000    0.000 
#    0.000    0.000    0.000    0.000    0.000    0.000 
#
# Total GULP energy -122767.202538 kJ/mol
# GULP energy per Si atom -5580.327388 kJ/mol
# Density = 2.283614 g / cm^3
# Si number density = 22.888232 Si / 1000 Ang^3
#
#
#
# Elastic Constant Matrix: (Units=GPa)
#
#
# Indices 1 2 3 4 5 6 
#
# 1 86.8974 58.2845 36.5656 0.0000 0.0000 0.0000
# 2 58.2845 222.8335 73.0171 0.0000 0.0000 0.0000
# 3 36.5656 73.0171 139.2776 0.0000 0.0000 0.0000
# 4 0.0000 0.0000 0.0000 45.0961 0.0000 0.0000
# 5 0.0000 0.0000 0.0000 0.0000 22.7165 0.0000
# 6 0.0000 0.0000 0.0000 0.0000 0.0000 37.1341
#
#
#
# Elastic Compliance Matrix: (Units=1/GPa)
#
#
# Indices 1 2 3 4 5 6 
#
# 1 0.014491 -0.003071 -0.002194 0.000000 0.000000 0.000000
# 2 -0.003071 0.006069 -0.002376 0.000000 0.000000 0.000000
# 3 -0.002194 -0.002376 0.009001 0.000000 0.000000 0.000000
# 4 0.000000 0.000000 0.000000 0.022175 0.000000 0.000000
# 5 0.000000 0.000000 0.000000 0.000000 0.044021 0.000000
# 6 0.000000 0.000000 0.000000 0.000000 0.000000 0.026929
#
#
# Mechanical properties :
#
#
# Convention : Reuss Voigt Hill
#
# Bulk Modulus (GPa) = 70.03014 87.19366 78.61190
# Shear Modulus (GPa) = 35.03133 39.73210 37.38171
#
# Velocity S-wave (km/s) = 3.91645 4.17096 4.04571
# Velocity P-wave (km/s) = 7.14944 7.83415 7.49961
#
# Compressibility (1/GPa) = 0.01427957
#
# Stress axis : x y z
#
# Youngs Moduli (GPa) = 69.00748 164.76067 111.09352
#
# Poissons Ratio (x) = 0.50603 0.24378
# Poissons Ratio (y) = 0.21194 0.26391
# Poissons Ratio (z) = 0.15143 0.39140
#
# Static dielectric constant tensor:
#      x y z
#    x 1.873090 0.000000 0.000000 
#    y 0.000000 1.780950 0.000000 
#    z 0.000000 0.000000 1.864700 
# 
# From -- ./inp_files/638.got.cif
#   From: 2010.05.17/outbox.cif.g08.bks.cpg/sg68_1_cif.got.tgz:638.got - 2010.06.03 18:57:09.
