data_PCOD9510470
_publ_section_title
;
Structure prediction by ZEFSAII (Michael W. Deem and Ramdas Pophale) SiO2 
 PCOD9510470
Probable space group: C C C A
;
_chemical_formula_sum "Si O2"
_cell_formula_units_Z 88
_cell_length_a 14.647123
_cell_length_b 22.251708
_cell_length_c 11.199802
_cell_angle_alpha 90.000000
_cell_angle_beta 90.000000
_cell_angle_gamma 90.000000
_cell_volume 3650.278712
_symmetry_space_group_name_H-M "C C C A"
_symmetry_group_IT_number 68
_space_group.IT_coordinate_system_code '2'
_symmetry_cell_setting 'orthorhombic'
loop_
_space_group_symop_operation_xyz
x,y,z
-x,1/2-y,z
x,1/2-y,1/2-z
-x,y,1/2-z
-x,-y,-z
x,1/2+y,-z
-x,1/2+y,1/2+z
x,-y,1/2+z
1/2+x,1/2+y,z
1/2-x,-y,z
1/2+x,-y,1/2-z
1/2-x,1/2+y,1/2-z
1/2-x,1/2-y,-z
1/2+x,y,-z
1/2-x,y,1/2+z
1/2+x,1/2-y,1/2+z
loop_
_atom_site_type_symbol
_atom_site_label
_atom_site_fract_x
_atom_site_fract_y
_atom_site_fract_z
Si Si1 0.834061 0.269692 0.420682
Si Si2 0.500000 0.250000 0.070795
Si Si3 0.594827 0.541043 0.203528
Si Si4 0.352088 0.025327 0.448789
Si Si5 0.092358 0.362792 0.691989
Si Si6 0.216106 0.153007 0.218022
O O1 0.750000 0.250000 0.500000
O O2 0.803696 0.329674 0.354407
O O3 0.837234 0.208227 0.343318
O O4 0.926966 0.282196 0.487463
O O5 0.441662 0.298658 0.142927
O O6 0.500000 0.569253 0.250000
O O7 0.621442 0.502099 0.319060
O O8 0.672664 0.590495 0.185620
O O9 0.592391 0.511014 0.071594
O O10 0.368987 0.095472 0.414281
O O11 0.250000 0.000000 0.470480
O O12 0.173950 0.350675 0.786686
O O13 0.000000 0.390077 0.750000
#
# Coordination Sequence:
#
# PCOD9510470 Si02
#       6
#    16   8  16  16  16  16
#     4  11  24  44  69 108 156 207 268 335 407 491
#     4  12  25  45  76 114 158 210 273 341 412 502
#     4  12  28  51  81 116 161 214 275 345 412 501
#     4  12  27  54  79 118 163 214 275 344 418 489
#     4  12  26  47  79 115 157 214 271 343 413 499
#     4  11  26  45  73 111 158 212 265 340 417 482
#
# _framework density 24.107748000000001
#
# number of rings (size 3 to 8) (size 9 to 14) (size 15 to 20)
#    0.000    0.364    3.636    4.091    7.636    0.727 
#    0.000    0.000    0.000    0.000    0.000    0.000 
#    0.000    0.000    0.000    0.000    0.000    0.000 
#
# Total GULP energy -245696.289076 kJ/mol
# GULP energy per Si atom -5584.006570 kJ/mol
# Density = 2.405288 g / cm^3
# Si number density = 24.107748 Si / 1000 Ang^3
#
#
#
# Elastic Constant Matrix: (Units=GPa)
#
#
# Indices 1 2 3 4 5 6 
#
# 1 136.8440 32.2628 31.4801 0.0000 0.0000 0.0000
# 2 32.2628 79.9860 35.4228 0.0000 0.0000 0.0000
# 3 31.4801 35.4228 118.3236 0.0000 0.0000 0.0000
# 4 0.0000 0.0000 0.0000 32.9235 0.0000 0.0000
# 5 0.0000 0.0000 0.0000 0.0000 29.1139 0.0000
# 6 0.0000 0.0000 0.0000 0.0000 0.0000 40.3893
#
#
#
# Elastic Compliance Matrix: (Units=1/GPa)
#
#
# Indices 1 2 3 4 5 6 
#
# 1 0.008268 -0.002722 -0.001385 0.000000 0.000000 0.000000
# 2 -0.002722 0.015309 -0.003859 0.000000 0.000000 0.000000
# 3 -0.001385 -0.003859 0.009975 0.000000 0.000000 0.000000
# 4 0.000000 0.000000 0.000000 0.030373 0.000000 0.000000
# 5 0.000000 0.000000 0.000000 0.000000 0.034348 0.000000
# 6 0.000000 0.000000 0.000000 0.000000 0.000000 0.024759
#
#
# Mechanical properties :
#
#
# Convention : Reuss Voigt Hill
#
# Bulk Modulus (GPa) = 56.75052 59.27611 58.01332
# Shear Modulus (GPa) = 34.52162 36.21788 35.36975
#
# Velocity S-wave (km/s) = 3.78825 3.88020 3.83450
# Velocity P-wave (km/s) = 6.53650 6.68700 6.61218
#
# Compressibility (1/GPa) = 0.01762098
#
# Stress axis : x y z
#
# Youngs Moduli (GPa) = 120.95085 65.32130 100.24929
#
# Poissons Ratio (x) = 0.17778 0.13884
# Poissons Ratio (y) = 0.32917 0.38686
# Poissons Ratio (z) = 0.16751 0.25208
#
# Static dielectric constant tensor:
#      x y z
#    x 2.491210 0.000000 0.000000 
#    y 0.000000 11.658160 0.000000 
#    z 0.000000 0.000000 1.926900 
# 
# From -- ./inp_files/13299.got.cif
#   From: 2010.05.17/outbox.cif.g08.bks.cpg/sg68_7_cif.got.tgz:13299.got - 2010.06.03 18:57:09.
