data_PCOD9510737
_publ_section_title
;
Structure prediction by ZEFSAII (Michael W. Deem and Ramdas Pophale) SiO2 
 PCOD9510737
Probable space group: C C C A
;
_chemical_formula_sum "Si O2"
_cell_formula_units_Z 104
_cell_length_a 12.818749
_cell_length_b 26.369085
_cell_length_c 17.134689
_cell_angle_alpha 90.000000
_cell_angle_beta 90.000000
_cell_angle_gamma 90.000000
_cell_volume 5791.844992
_symmetry_space_group_name_H-M "C C C A"
_symmetry_group_IT_number 68
_space_group.IT_coordinate_system_code '2'
_symmetry_cell_setting 'orthorhombic'
loop_
_space_group_symop_operation_xyz
x,y,z
-x,1/2-y,z
x,1/2-y,1/2-z
-x,y,1/2-z
-x,-y,-z
x,1/2+y,-z
-x,1/2+y,1/2+z
x,-y,1/2+z
1/2+x,1/2+y,z
1/2-x,-y,z
1/2+x,-y,1/2-z
1/2-x,1/2+y,1/2-z
1/2-x,1/2-y,-z
1/2+x,y,-z
1/2-x,y,1/2+z
1/2+x,1/2-y,1/2+z
loop_
_atom_site_type_symbol
_atom_site_label
_atom_site_fract_x
_atom_site_fract_y
_atom_site_fract_z
Si Si1 0.044866 0.470181 0.924809
Si Si2 0.343902 0.407100 0.074343
Si Si3 0.625546 0.307056 0.154752
Si Si4 0.750000 0.000000 0.665148
Si Si5 0.623742 0.192656 0.159056
Si Si6 0.400590 0.547623 0.289196
Si Si7 0.746498 0.597192 0.591336
O O1 0.054839 0.509624 0.854476
O O2 0.158318 0.444509 0.930150
O O3 0.961502 0.425884 0.909530
O O4 0.000000 0.500000 0.000000
O O5 0.275232 0.451845 0.111638
O O6 0.323150 0.353703 0.115292
O O7 0.322201 0.401287 0.982911
O O8 0.657947 0.249285 0.135489
O O9 0.500729 0.310484 0.142689
O O10 0.639567 0.313291 0.248113
O O11 0.688226 0.350180 0.109492
O O12 0.656319 0.014994 0.722620
O O13 0.500000 0.574988 0.250000
O O14 0.313466 0.580772 0.333135
#
# Coordination Sequence:
#
# PCOD9510737 Si02
#       7
#    16  16  16   8  16  16  16
#     4  12  23  40  56  83 129 165 205 249 306 365
#     4  12  24  36  60  89 125 162 202 251 306 369
#     4   9  19  38  64  89 114 149 206 256 307 360
#     4  12  24  38  58  92 118 164 212 244 296 378
#     4   9  19  38  63  89 115 151 200 262 303 354
#     4  12  25  39  59  86 125 167 211 255 300 372
#     4  12  24  39  61  88 123 169 203 251 318 369
#
# _framework density 17.956282000000002
#
# number of rings (size 3 to 8) (size 9 to 14) (size 15 to 20)
#    0.000    0.923    6.154    2.769    0.000    0.615 
#    0.000    0.000    0.000    0.000    0.000    1.077 
#    0.000    0.000    0.000    0.000    0.000    0.000 
#
# Total GULP energy -290304.598094 kJ/mol
# GULP energy per Si atom -5582.780733 kJ/mol
# Density = 1.791541 g / cm^3
# Si number density = 17.956282 Si / 1000 Ang^3
#
#
#
# Elastic Constant Matrix: (Units=GPa)
#
#
# Indices 1 2 3 4 5 6 
#
# 1 68.5897 27.8687 13.4927 0.0000 0.0000 0.0000
# 2 27.8687 121.8203 41.1928 0.0000 0.0000 0.0000
# 3 13.4927 41.1928 46.0854 0.0000 0.0000 0.0000
# 4 0.0000 0.0000 0.0000 18.7297 0.0000 0.0000
# 5 0.0000 0.0000 0.0000 0.0000 32.8471 0.0000
# 6 0.0000 0.0000 0.0000 0.0000 0.0000 26.6734
#
#
#
# Elastic Compliance Matrix: (Units=1/GPa)
#
#
# Indices 1 2 3 4 5 6 
#
# 1 0.016208 -0.003014 -0.002051 0.000000 0.000000 0.000000
# 2 -0.003014 0.012325 -0.010134 0.000000 0.000000 0.000000
# 3 -0.002051 -0.010134 0.031358 0.000000 0.000000 0.000000
# 4 0.000000 0.000000 0.000000 0.053391 0.000000 0.000000
# 5 0.000000 0.000000 0.000000 0.000000 0.030444 0.000000
# 6 0.000000 0.000000 0.000000 0.000000 0.000000 0.037490
#
#
# Mechanical properties :
#
#
# Convention : Reuss Voigt Hill
#
# Bulk Modulus (GPa) = 33.90794 44.62265 39.26530
# Shear Modulus (GPa) = 22.57892 25.91280 24.24586
#
# Velocity S-wave (km/s) = 3.54989 3.80294 3.67859
# Velocity P-wave (km/s) = 5.97719 6.64739 6.32118
#
# Compressibility (1/GPa) = 0.02949161
#
# Stress axis : x y z
#
# Youngs Moduli (GPa) = 61.69926 81.13446 31.89019
#
# Poissons Ratio (x) = 0.24456 0.06540
# Poissons Ratio (y) = 0.18598 0.32318
# Poissons Ratio (z) = 0.12654 0.82223
#
# Static dielectric constant tensor:
#      x y z
#    x 1.642280 0.000000 0.000000 
#    y 0.000000 1.600860 0.000000 
#    z 0.000000 0.000000 1.612930 
# 
# From -- ./inp_files/29994.got.cif
#   From: 2010.05.17/outbox.cif.g08.bks.cpg/sg68_15_cif.got.tgz:29994.got - 2010.06.03 18:57:09.
