data_PCOD9510285
_publ_section_title
;
Structure prediction by ZEFSAII (Michael W. Deem and Ramdas Pophale) SiO2 
 PCOD9510285
Probable space group: C C C A
;
_chemical_formula_sum "Si O2"
_cell_formula_units_Z 80
_cell_length_a 11.768278
_cell_length_b 14.020971
_cell_length_c 23.599145
_cell_angle_alpha 90.000000
_cell_angle_beta 90.000000
_cell_angle_gamma 90.000000
_cell_volume 3893.922278
_symmetry_space_group_name_H-M "C C C A"
_symmetry_group_IT_number 68
_space_group.IT_coordinate_system_code '2'
_symmetry_cell_setting 'orthorhombic'
loop_
_space_group_symop_operation_xyz
x,y,z
-x,1/2-y,z
x,1/2-y,1/2-z
-x,y,1/2-z
-x,-y,-z
x,1/2+y,-z
-x,1/2+y,1/2+z
x,-y,1/2+z
1/2+x,1/2+y,z
1/2-x,-y,z
1/2+x,-y,1/2-z
1/2-x,1/2+y,1/2-z
1/2-x,1/2-y,-z
1/2+x,y,-z
1/2-x,y,1/2+z
1/2+x,1/2-y,1/2+z
loop_
_atom_site_type_symbol
_atom_site_label
_atom_site_fract_x
_atom_site_fract_y
_atom_site_fract_z
Si Si1 0.900785 0.631068 0.921388
Si Si2 0.645661 0.427477 0.801249
Si Si3 0.250000 0.500000 0.508481
Si Si4 0.167609 0.665190 0.926070
Si Si5 0.000000 0.921769 0.250000
Si Si6 0.235669 0.114041 0.693780
O O1 0.864681 0.634820 0.856046
O O2 0.851629 0.537461 0.951513
O O3 0.845636 0.726385 0.947711
O O4 0.036206 0.633882 0.919952
O O5 0.750000 0.500000 0.807777
O O6 0.543239 0.502525 0.796723
O O7 0.672500 0.369359 0.743991
O O8 0.220128 0.410982 0.468757
O O9 0.234666 0.661371 0.865986
O O10 0.890229 0.869676 0.277957
O O11 0.250000 0.000000 0.683345
#
# Coordination Sequence:
#
# PCOD9510285 Si02
#       6
#    16  16   8  16   8  16
#     4  11  23  41  61  91 122 160 211 261 318 368
#     4   9  17  32  58  87 118 157 192 245 307 374
#     4  12  24  44  62  84 122 170 214 266 316 364
#     4  11  24  39  64  92 121 160 212 264 307 374
#     4   8  16  30  62  92 122 160 200 236 306 384
#     4   9  17  34  58  94 124 157 200 246 311 375
#
# _framework density 20.544837999999999
#
# number of rings (size 3 to 8) (size 9 to 14) (size 15 to 20)
#    0.000    2.400    2.000    3.600    0.000    0.800 
#    0.000    2.000    0.000   14.400    0.000    0.000 
#    0.000    0.000    0.000    0.000    0.000    0.000 
#
# Total GULP energy -222818.935821 kJ/mol
# GULP energy per Si atom -5570.473396 kJ/mol
# Density = 2.049808 g / cm^3
# Si number density = 20.544838 Si / 1000 Ang^3
#
#
#
# Elastic Constant Matrix: (Units=GPa)
#
#
# Indices 1 2 3 4 5 6 
#
# 1 80.9940 16.1206 39.9089 0.0000 0.0000 0.0000
# 2 16.1206 43.9890 21.7760 0.0000 0.0000 0.0000
# 3 39.9089 21.7760 88.3918 0.0000 0.0000 0.0000
# 4 0.0000 0.0000 0.0000 34.5490 0.0000 0.0000
# 5 0.0000 0.0000 0.0000 0.0000 -5.5597 0.0000
# 6 0.0000 0.0000 0.0000 0.0000 0.0000 16.7681
#
#
#
# Elastic Compliance Matrix: (Units=1/GPa)
#
#
# Indices 1 2 3 4 5 6 
#
# 1 0.016142 -0.002628 -0.006641 0.000000 0.000000 0.000000
# 2 -0.002628 0.026318 -0.005297 0.000000 0.000000 0.000000
# 3 -0.006641 -0.005297 0.015616 0.000000 0.000000 0.000000
# 4 0.000000 0.000000 0.000000 0.028944 0.000000 0.000000
# 5 0.000000 0.000000 0.000000 0.000000 -0.179866 0.000000
# 6 0.000000 0.000000 0.000000 0.000000 0.000000 0.059637
#
#
# Mechanical properties :
#
#
# Convention : Reuss Voigt Hill
#
# Bulk Modulus (GPa) = 34.54839 40.99843 37.77341
# Shear Modulus (GPa) = 897.46657 18.18945 457.82801
#
# Velocity S-wave (km/s) = 20.92323 2.97872 14.94413
# Velocity P-wave (km/s) = 24.50635 5.64174 17.78188
#
# Compressibility (1/GPa) = 0.02894491
#
# Stress axis : x y z
#
# Youngs Moduli (GPa) = 61.95129 37.99635 64.03510
#
# Poissons Ratio (x) = 0.09986 0.42523
# Poissons Ratio (y) = 0.16282 0.33920
# Poissons Ratio (z) = 0.41139 0.20127
#
# Static dielectric constant tensor:
#      x y z
#    x 1.786520 0.000000 0.000000 
#    y 0.000000 1.771070 0.000000 
#    z 0.000000 0.000000 1.764800 
# 
# From -- ./inp_files/44152.got.cif
#   From: 2010.05.17/outbox.cif.g08.bks.cpg/sg68_23_cif.got.tgz:44152.got - 2010.06.03 18:57:09.
