data_PCOD9510725
_publ_section_title
;
Structure prediction by ZEFSAII (Michael W. Deem and Ramdas Pophale) SiO2 
 PCOD9510725
Probable space group: C C C A
;
_chemical_formula_sum "Si O2"
_cell_formula_units_Z 92
_cell_length_a 20.650557
_cell_length_b 22.503026
_cell_length_c 8.888317
_cell_angle_alpha 90.000000
_cell_angle_beta 90.000000
_cell_angle_gamma 90.000000
_cell_volume 4130.401097
_symmetry_space_group_name_H-M "C C C A"
_symmetry_group_IT_number 68
_space_group.IT_coordinate_system_code '2'
_symmetry_cell_setting 'orthorhombic'
loop_
_space_group_symop_operation_xyz
x,y,z
-x,1/2-y,z
x,1/2-y,1/2-z
-x,y,1/2-z
-x,-y,-z
x,1/2+y,-z
-x,1/2+y,1/2+z
x,-y,1/2+z
1/2+x,1/2+y,z
1/2-x,-y,z
1/2+x,-y,1/2-z
1/2-x,1/2+y,1/2-z
1/2-x,1/2-y,-z
1/2+x,y,-z
1/2-x,y,1/2+z
1/2+x,1/2-y,1/2+z
loop_
_atom_site_type_symbol
_atom_site_label
_atom_site_fract_x
_atom_site_fract_y
_atom_site_fract_z
Si Si1 0.250000 0.500000 0.184489
Si Si2 0.188006 0.614179 0.822526
Si Si3 0.206571 0.288758 0.887250
Si Si4 0.588963 0.845368 0.072866
Si Si5 0.000000 0.750000 0.750000
Si Si6 0.442692 0.453827 0.369794
Si Si7 0.873264 0.451201 0.930477
O O1 0.229847 0.443513 0.281589
O O2 0.188663 0.507079 0.077805
O O3 0.240520 0.665551 0.823110
O O4 0.130163 0.623142 0.704557
O O5 0.151407 0.606245 0.981257
O O6 0.181362 0.250000 0.750000
O O7 0.250000 0.250000 0.000000
O O8 0.145499 0.317585 0.969951
O O9 0.543940 0.794132 0.146378
O O10 0.551241 0.896514 0.978168
O O11 0.500000 0.464460 0.250000
O O12 0.424990 0.511720 0.469540
O O13 0.387965 0.440560 0.244394
#
# Coordination Sequence:
#
# PCOD9510725 Si02
#       7
#     8  16  16  16   4  16  16
#     4  12  22  44  72 116 152 188 242 304 398 462
#     4  12  25  45  78 113 160 191 244 313 399 460
#     4  12  26  47  76 112 154 195 251 317 396 463
#     4  12  27  52  77 112 141 211 256 320 379 448
#     4  12  32  56  82  92 160 204 282 318 374 440
#     4  12  27  47  73 107 153 203 260 301 372 452
#     4  12  25  44  73 112 155 198 236 311 379 470
#
# _framework density 22.273866000000002
#
# number of rings (size 3 to 8) (size 9 to 14) (size 15 to 20)
#    0.000    0.000    5.217    4.174    4.870    1.391 
#    1.565    0.000    0.000    0.000    0.000    0.000 
#    0.000    0.000    0.000    0.000    0.000    0.000 
#
# Total GULP energy -257108.038132 kJ/mol
# GULP energy per Si atom -5589.305177 kJ/mol
# Density = 2.222317 g / cm^3
# Si number density = 22.273866 Si / 1000 Ang^3
#
#
#
# Elastic Constant Matrix: (Units=GPa)
#
#
# Indices 1 2 3 4 5 6 
#
# 1 79.0303 14.1065 12.9040 0.0000 0.0000 0.0000
# 2 14.1065 75.6063 31.6404 0.0000 0.0000 0.0000
# 3 12.9040 31.6404 106.3509 0.0000 0.0000 0.0000
# 4 0.0000 0.0000 0.0000 55.1415 0.0000 0.0000
# 5 0.0000 0.0000 0.0000 0.0000 41.7640 0.0000
# 6 0.0000 0.0000 0.0000 0.0000 0.0000 35.1376
#
#
#
# Elastic Compliance Matrix: (Units=1/GPa)
#
#
# Indices 1 2 3 4 5 6 
#
# 1 0.013180 -0.002044 -0.000991 0.000000 0.000000 0.000000
# 2 -0.002044 0.015424 -0.004341 0.000000 0.000000 0.000000
# 3 -0.000991 -0.004341 0.010815 0.000000 0.000000 0.000000
# 4 0.000000 0.000000 0.000000 0.018135 0.000000 0.000000
# 5 0.000000 0.000000 0.000000 0.000000 0.023944 0.000000
# 6 0.000000 0.000000 0.000000 0.000000 0.000000 0.028460
#
#
# Mechanical properties :
#
#
# Convention : Reuss Voigt Hill
#
# Bulk Modulus (GPa) = 40.54065 42.03213 41.28639
# Shear Modulus (GPa) = 37.61307 39.89772 38.75540
#
# Velocity S-wave (km/s) = 4.11379 4.23689 4.17580
# Velocity P-wave (km/s) = 6.38787 6.54573 6.46728
#
# Compressibility (1/GPa) = 0.02466660
#
# Stress axis : x y z
#
# Youngs Moduli (GPa) = 75.87194 64.83212 92.46828
#
# Poissons Ratio (x) = 0.13254 0.09163
# Poissons Ratio (y) = 0.15511 0.40139
# Poissons Ratio (z) = 0.07519 0.28143
#
# Static dielectric constant tensor:
#      x y z
#    x 2.383510 0.000000 0.000000 
#    y 0.000000 1.805470 0.000000 
#    z 0.000000 0.000000 1.897660 
# 
# From -- ./inp_files/7170.got.cif
#   From: 2010.05.17/outbox.cif.g08.bks.cpg/sg68_4_cif.got.tgz:7170.got - 2010.06.03 18:57:09.
