data_PCOD9510550
_publ_section_title
;
Structure prediction by ZEFSAII (Michael W. Deem and Ramdas Pophale) SiO2 
 PCOD9510550
Probable space group: C C C A
;
_chemical_formula_sum "Si O2"
_cell_formula_units_Z 52
_cell_length_a 8.015073
_cell_length_b 22.660335
_cell_length_c 12.022857
_cell_angle_alpha 90.000000
_cell_angle_beta 90.000000
_cell_angle_gamma 90.000000
_cell_volume 2183.642256
_symmetry_space_group_name_H-M "C C C A"
_symmetry_group_IT_number 68
_space_group.IT_coordinate_system_code '2'
_symmetry_cell_setting 'orthorhombic'
loop_
_space_group_symop_operation_xyz
x,y,z
-x,1/2-y,z
x,1/2-y,1/2-z
-x,y,1/2-z
-x,-y,-z
x,1/2+y,-z
-x,1/2+y,1/2+z
x,-y,1/2+z
1/2+x,1/2+y,z
1/2-x,-y,z
1/2+x,-y,1/2-z
1/2-x,1/2+y,1/2-z
1/2-x,1/2-y,-z
1/2+x,y,-z
1/2-x,y,1/2+z
1/2+x,1/2-y,1/2+z
loop_
_atom_site_type_symbol
_atom_site_label
_atom_site_fract_x
_atom_site_fract_y
_atom_site_fract_z
Si Si1 0.557901 0.516103 0.872505
Si Si2 0.434186 0.317187 0.635257
Si Si3 0.951506 0.152985 0.600597
Si Si4 0.000000 0.750000 0.250000
O O1 0.500000 0.491444 0.750000
O O2 0.750000 0.500000 0.875213
O O3 0.527634 0.586189 0.864017
O O4 0.500000 0.500000 0.000000
O O5 0.500000 0.250000 0.631633
O O6 0.500000 0.343313 0.750000
O O7 0.235121 0.323435 0.625290
O O8 0.514260 0.347141 0.529247
O O9 0.070346 0.201067 0.662211
#
# Coordination Sequence:
#
# PCOD9510550 Si02
#       4
#    16  16  16   4
#     4  12  28  51  76 109 147 203 260 314 372 445
#     4  11  25  42  67 106 148 188 237 290 372 445
#     4  12  26  45  74 104 148 190 239 306 370 443
#     4  12  24  44  76 108 144 180 242 296 384 432
#
# _framework density 23.813426
#
# number of rings (size 3 to 8) (size 9 to 14) (size 15 to 20)
#    0.000    0.308    3.077    5.538    4.308    7.385 
#    0.000    0.000    0.000    0.000    0.000    0.000 
#    0.000    0.000    0.000    0.000    0.000    0.000 
#
# Total GULP energy -145032.640274 kJ/mol
# GULP energy per Si atom -5578.178472 kJ/mol
# Density = 2.375923 g / cm^3
# Si number density = 23.813426 Si / 1000 Ang^3
#
#
#
# Elastic Constant Matrix: (Units=GPa)
#
#
# Indices 1 2 3 4 5 6 
#
# 1 113.9155 -12.2288 93.7680 0.0000 0.0000 0.0000
# 2 -12.2288 138.6248 51.6926 0.0000 0.0000 0.0000
# 3 93.7680 51.6926 295.2876 0.0000 0.0000 0.0000
# 4 0.0000 0.0000 0.0000 60.1944 0.0000 0.0000
# 5 0.0000 0.0000 0.0000 0.0000 59.6179 0.0000
# 6 0.0000 0.0000 0.0000 0.0000 0.0000 19.1477
#
#
#
# Elastic Compliance Matrix: (Units=1/GPa)
#
#
# Indices 1 2 3 4 5 6 
#
# 1 0.012852 0.002841 -0.004579 0.000000 0.000000 0.000000
# 2 0.002841 0.008346 -0.002363 0.000000 0.000000 0.000000
# 3 -0.004579 -0.002363 0.005254 0.000000 0.000000 0.000000
# 4 0.000000 0.000000 0.000000 0.016613 0.000000 0.000000
# 5 0.000000 0.000000 0.000000 0.000000 0.016773 0.000000
# 6 0.000000 0.000000 0.000000 0.000000 0.000000 0.052226
#
#
# Mechanical properties :
#
#
# Convention : Reuss Voigt Hill
#
# Bulk Modulus (GPa) = 54.79257 90.47683 72.63470
# Shear Modulus (GPa) = 39.57308 55.43173 47.50241
#
# Velocity S-wave (km/s) = 4.08094 4.82991 4.47113
# Velocity P-wave (km/s) = 6.72789 8.31749 7.56456
#
# Compressibility (1/GPa) = 0.01825065
#
# Stress axis : x y z
#
# Youngs Moduli (GPa) = 77.80778 119.82443 190.32677
#
# Poissons Ratio (x) = -0.34043 0.87142
# Poissons Ratio (y) = -0.22106 0.44977
# Poissons Ratio (z) = 0.35625 0.28316
#
# Static dielectric constant tensor:
#      x y z
#    x 1.995560 0.000000 0.000000 
#    y 0.000000 1.860490 0.000000 
#    z 0.000000 0.000000 2.048800 
# 
# From -- ./inp_files/10519.got.cif
#   From: 2010.05.17/outbox.cif.g08.bks.cpg/sg68_6_cif.got.tgz:10519.got - 2010.06.03 18:57:09.
