data_PCOD9510788
_publ_section_title
;
Structure prediction by ZEFSAII (Michael W. Deem and Ramdas Pophale) SiO2 
 PCOD9510788
Probable space group: C C C A
;
_chemical_formula_sum "Si O2"
_cell_formula_units_Z 68
_cell_length_a 20.267979
_cell_length_b 8.716229
_cell_length_c 17.865178
_cell_angle_alpha 90.000000
_cell_angle_beta 90.000000
_cell_angle_gamma 90.000000
_cell_volume 3156.068533
_symmetry_space_group_name_H-M "C C C A"
_symmetry_group_IT_number 68
_space_group.IT_coordinate_system_code '2'
_symmetry_cell_setting 'orthorhombic'
loop_
_space_group_symop_operation_xyz
x,y,z
-x,1/2-y,z
x,1/2-y,1/2-z
-x,y,1/2-z
-x,-y,-z
x,1/2+y,-z
-x,1/2+y,1/2+z
x,-y,1/2+z
1/2+x,1/2+y,z
1/2-x,-y,z
1/2+x,-y,1/2-z
1/2-x,1/2+y,1/2-z
1/2-x,1/2-y,-z
1/2+x,y,-z
1/2-x,y,1/2+z
1/2+x,1/2-y,1/2+z
loop_
_atom_site_type_symbol
_atom_site_label
_atom_site_fract_x
_atom_site_fract_y
_atom_site_fract_z
Si Si1 0.082608 0.370219 0.611212
Si Si2 0.283529 0.348991 0.186067
Si Si3 0.287586 0.835602 0.067365
Si Si4 0.500000 0.250000 0.250000
Si Si5 0.571278 0.804548 0.031558
O O1 0.159810 0.387096 0.628350
O O2 0.043366 0.350123 0.689872
O O3 0.072067 0.220482 0.558680
O O4 0.071315 0.521300 0.560908
O O5 0.316062 0.250000 0.250000
O O6 0.250000 0.500000 0.216700
O O7 0.229725 0.247453 0.144675
O O8 0.365771 0.800084 0.056543
O O9 0.250000 0.000000 0.069135
O O10 0.250000 0.750000 0.000000
O O11 0.500000 0.750000 0.058716
#
# Coordination Sequence:
#
# PCOD9510788 Si02
#       5
#    16  16  16   4  16
#     4  12  26  48  78 107 148 197 253 309 380 449
#     4  12  25  47  71 105 146 194 247 308 379 447
#     4  12  24  42  73 107 142 189 252 310 363 445
#     4  12  28  48  74 108 160 198 244 316 388 468
#     4  12  26  46  77 110 151 197 253 309 379 458
#
# _framework density 21.545794000000001
#
# number of rings (size 3 to 8) (size 9 to 14) (size 15 to 20)
#    0.000    0.000    7.059    3.529    0.000    0.000 
#    4.235    0.588    0.000    0.000    0.000    0.000 
#    0.000    0.000    0.000    0.000    0.000    0.000 
#
# Total GULP energy -189591.682936 kJ/mol
# GULP energy per Si atom -5576.225969 kJ/mol
# Density = 2.149675 g / cm^3
# Si number density = 21.545794 Si / 1000 Ang^3
#
#
#
# Elastic Constant Matrix: (Units=GPa)
#
#
# Indices 1 2 3 4 5 6 
#
# 1 144.6185 38.7817 21.4325 0.0000 0.0000 0.0000
# 2 38.7817 142.0839 60.3066 0.0000 0.0000 0.0000
# 3 21.4325 60.3066 97.5297 0.0000 0.0000 0.0000
# 4 0.0000 0.0000 0.0000 29.8631 0.0000 0.0000
# 5 0.0000 0.0000 0.0000 0.0000 41.4844 0.0000
# 6 0.0000 0.0000 0.0000 0.0000 0.0000 28.3921
#
#
#
# Elastic Compliance Matrix: (Units=1/GPa)
#
#
# Indices 1 2 3 4 5 6 
#
# 1 0.007480 -0.001822 -0.000517 0.000000 0.000000 0.000000
# 2 -0.001822 0.009986 -0.005775 0.000000 0.000000 0.000000
# 3 -0.000517 -0.005775 0.013938 0.000000 0.000000 0.000000
# 4 0.000000 0.000000 0.000000 0.033486 0.000000 0.000000
# 5 0.000000 0.000000 0.000000 0.000000 0.024105 0.000000
# 6 0.000000 0.000000 0.000000 0.000000 0.000000 0.035221
#
#
# Mechanical properties :
#
#
# Convention : Reuss Voigt Hill
#
# Bulk Modulus (GPa) = 65.89179 69.47485 67.68332
# Shear Modulus (GPa) = 34.36350 37.52867 35.94609
#
# Velocity S-wave (km/s) = 3.99796 4.17803 4.08898
# Velocity P-wave (km/s) = 7.20834 7.45585 7.33314
#
# Compressibility (1/GPa) = 0.01517640
#
# Stress axis : x y z
#
# Youngs Moduli (GPa) = 133.68945 100.13559 71.74857
#
# Poissons Ratio (x) = 0.18247 0.03709
# Poissons Ratio (y) = 0.24361 0.41432
# Poissons Ratio (z) = 0.06912 0.57824
#
# Static dielectric constant tensor:
#      x y z
#    x 1.857180 0.000000 0.000000 
#    y 0.000000 1.850020 0.000000 
#    z 0.000000 0.000000 1.799070 
# 
# From -- ./inp_files/27962.got.cif
#   From: 2010.05.17/outbox.cif.g08.bks.cpg/sg68_14_cif.got.tgz:27962.got - 2010.06.03 18:57:09.
