data_PCOD9510445
_publ_section_title
;
Structure prediction by ZEFSAII (Michael W. Deem and Ramdas Pophale) SiO2 
 PCOD9510445
Probable space group: C C C A
;
_chemical_formula_sum "Si O2"
_cell_formula_units_Z 104
_cell_length_a 19.441553
_cell_length_b 8.105171
_cell_length_c 30.188256
_cell_angle_alpha 90.000000
_cell_angle_beta 90.000000
_cell_angle_gamma 90.000000
_cell_volume 4756.978184
_symmetry_space_group_name_H-M "C C C A"
_symmetry_group_IT_number 68
_space_group.IT_coordinate_system_code '2'
_symmetry_cell_setting 'orthorhombic'
loop_
_space_group_symop_operation_xyz
x,y,z
-x,1/2-y,z
x,1/2-y,1/2-z
-x,y,1/2-z
-x,-y,-z
x,1/2+y,-z
-x,1/2+y,1/2+z
x,-y,1/2+z
1/2+x,1/2+y,z
1/2-x,-y,z
1/2+x,-y,1/2-z
1/2-x,1/2+y,1/2-z
1/2-x,1/2-y,-z
1/2+x,y,-z
1/2-x,y,1/2+z
1/2+x,1/2-y,1/2+z
loop_
_atom_site_type_symbol
_atom_site_label
_atom_site_fract_x
_atom_site_fract_y
_atom_site_fract_z
Si Si1 0.320599 0.560344 0.566893
Si Si2 0.316872 0.575196 0.927893
Si Si3 0.079445 0.239905 0.803069
Si Si4 0.500000 0.750000 0.088196
Si Si5 0.671542 0.050264 0.832660
Si Si6 0.925378 0.058442 0.486147
Si Si7 0.612504 0.399467 0.851166
O O1 0.250000 0.500000 0.545798
O O2 0.306642 0.739655 0.587142
O O3 0.380144 0.579595 0.530262
O O4 0.338613 0.442783 0.607550
O O5 0.250000 0.500000 0.950849
O O6 0.327716 0.461441 0.885750
O O7 0.381908 0.574084 0.959308
O O8 0.080577 0.250000 0.750000
O O9 0.121623 0.401198 0.818323
O O10 0.000000 0.250000 0.818302
O O11 0.107500 0.063804 0.820947
O O12 0.441590 0.809335 0.052868
O O13 0.460243 0.631060 0.122859
O O14 0.640465 0.235334 0.825355
O O15 0.750000 0.000000 0.817918
O O16 0.000000 0.000000 0.500000
#
# Coordination Sequence:
#
# PCOD9510445 Si02
#       7
#    16  16  16   8  16  16  16
#     4  12  26  42  65  98 140 200 245 299 371 424
#     4  11  24  43  67  93 138 185 239 305 358 424
#     4  11  27  51  78 114 152 189 237 304 387 470
#     4  12  24  44  66 109 138 196 257 304 374 438
#     4  11  24  47  75 111 145 188 249 307 370 455
#     4  12  25  41  62  97 143 186 251 313 353 420
#     4  12  25  46  78 103 146 195 247 306 373 449
#
# _framework density 21.862618000000001
#
# number of rings (size 3 to 8) (size 9 to 14) (size 15 to 20)
#    0.000    0.462    4.615    4.154    0.000    1.846 
#    4.154    1.538    0.000    0.000    0.000    0.000 
#    0.000    0.000    0.000    0.000    0.000    0.000 
#
# Total GULP energy -289927.630171 kJ/mol
# GULP energy per Si atom -5575.531349 kJ/mol
# Density = 2.181286 g / cm^3
# Si number density = 21.862618 Si / 1000 Ang^3
#
#
#
# Elastic Constant Matrix: (Units=GPa)
#
#
# Indices 1 2 3 4 5 6 
#
# 1 156.8378 62.9743 37.3913 0.0000 0.0000 0.0000
# 2 62.9743 179.0262 39.0778 0.0000 0.0000 0.0000
# 3 37.3913 39.0778 65.1196 0.0000 0.0000 0.0000
# 4 0.0000 0.0000 0.0000 21.7712 0.0000 0.0000
# 5 0.0000 0.0000 0.0000 0.0000 10.7882 0.0000
# 6 0.0000 0.0000 0.0000 0.0000 0.0000 34.3786
#
#
#
# Elastic Compliance Matrix: (Units=1/GPa)
#
#
# Indices 1 2 3 4 5 6 
#
# 1 0.008012 -0.002088 -0.003348 0.000000 0.000000 0.000000
# 2 -0.002088 0.006972 -0.002985 0.000000 0.000000 0.000000
# 3 -0.003348 -0.002985 0.019070 0.000000 0.000000 0.000000
# 4 0.000000 0.000000 0.000000 0.045932 0.000000 0.000000
# 5 0.000000 0.000000 0.000000 0.000000 0.092694 0.000000
# 6 0.000000 0.000000 0.000000 0.000000 0.000000 0.029088
#
#
# Mechanical properties :
#
#
# Convention : Reuss Voigt Hill
#
# Bulk Modulus (GPa) = 58.09544 75.54116 66.81830
# Shear Modulus (GPa) = 22.28692 30.82360 26.55526
#
# Velocity S-wave (km/s) = 3.19628 3.75891 3.48895
# Velocity P-wave (km/s) = 6.34447 7.31210 6.84540
#
# Compressibility (1/GPa) = 0.01721305
#
# Stress axis : x y z
#
# Youngs Moduli (GPa) = 124.80608 143.43731 52.43856
#
# Poissons Ratio (x) = 0.29945 0.17556
# Poissons Ratio (y) = 0.26055 0.15653
# Poissons Ratio (z) = 0.41784 0.42815
#
# Static dielectric constant tensor:
#      x y z
#    x 1.867100 0.000000 0.000000 
#    y 0.000000 1.914050 0.000000 
#    z 0.000000 0.000000 1.760810 
# 
# From -- ./inp_files/51843.got.cif
#   From: 2010.05.17/outbox.cif.g08.bks.cpg/sg68_26_cif.got.tgz:51843.got - 2010.06.03 18:57:09.
