data_PCOD9510719
_publ_section_title
;
Structure prediction by ZEFSAII (Michael W. Deem and Ramdas Pophale) SiO2 
 PCOD9510719
Probable space group: C C C A
;
_chemical_formula_sum "Si O2"
_cell_formula_units_Z 64
_cell_length_a 5.187108
_cell_length_b 19.044289
_cell_length_c 27.384898
_cell_angle_alpha 90.000000
_cell_angle_beta 90.000000
_cell_angle_gamma 90.000000
_cell_volume 2705.211229
_symmetry_space_group_name_H-M "C C C A"
_symmetry_group_IT_number 68
_space_group.IT_coordinate_system_code '2'
_symmetry_cell_setting 'orthorhombic'
loop_
_space_group_symop_operation_xyz
x,y,z
-x,1/2-y,z
x,1/2-y,1/2-z
-x,y,1/2-z
-x,-y,-z
x,1/2+y,-z
-x,1/2+y,1/2+z
x,-y,1/2+z
1/2+x,1/2+y,z
1/2-x,-y,z
1/2+x,-y,1/2-z
1/2-x,1/2+y,1/2-z
1/2-x,1/2-y,-z
1/2+x,y,-z
1/2-x,y,1/2+z
1/2+x,1/2-y,1/2+z
loop_
_atom_site_type_symbol
_atom_site_label
_atom_site_fract_x
_atom_site_fract_y
_atom_site_fract_z
Si Si1 0.750000 0.000000 0.558405
Si Si2 0.747161 0.703737 0.361423
Si Si3 0.849674 0.845858 0.528123
Si Si4 0.250000 0.000000 0.623407
Si Si5 0.905557 0.073413 0.195788
O O1 0.834044 0.930916 0.529691
O O2 0.498123 0.980523 0.590860
O O3 0.500000 0.750000 0.347226
O O4 0.706690 0.679281 0.417352
O O5 0.758008 0.635847 0.327070
O O6 0.000000 0.750000 0.358044
O O7 0.628833 0.823604 0.490476
O O8 0.355850 0.060871 0.658745
O O9 0.000000 0.088966 0.250000
O O10 0.750000 0.000000 0.197098
#
# Coordination Sequence:
#
# PCOD9510719 Si02
#       5
#     8  16  16   8  16
#     4  12  24  42  74 112 152 192 248 326 390 436
#     4  12  30  51  76 110 161 205 251 313 386 458
#     4  12  25  44  75 108 147 198 257 313 378 452
#     4  12  22  42  78 108 150 192 242 314 378 454
#     4  12  27  49  85 117 150 198 262 319 386 460
#
# _framework density 23.658041000000001
#
# number of rings (size 3 to 8) (size 9 to 14) (size 15 to 20)
#    0.000    0.000    5.000    3.750    7.000    3.500 
#    0.000    1.250    0.000    0.000    0.000    0.000 
#    0.000    0.000    0.000    0.000    0.000    0.000 
#
# Total GULP energy -179595.981946 kJ/mol
# GULP energy per Si atom -5612.374436 kJ/mol
# Density = 2.360419 g / cm^3
# Si number density = 23.658041 Si / 1000 Ang^3
#
#
#
# Elastic Constant Matrix: (Units=GPa)
#
#
# Indices 1 2 3 4 5 6 
#
# 1 148.1630 40.5228 46.3580 0.0000 0.0000 0.0000
# 2 40.5228 141.7764 51.2073 0.0000 0.0000 0.0000
# 3 46.3580 51.2073 127.2596 0.0000 0.0000 0.0000
# 4 0.0000 0.0000 0.0000 16.0944 0.0000 0.0000
# 5 0.0000 0.0000 0.0000 0.0000 27.0405 0.0000
# 6 0.0000 0.0000 0.0000 0.0000 0.0000 45.1862
#
#
#
# Elastic Compliance Matrix: (Units=1/GPa)
#
#
# Indices 1 2 3 4 5 6 
#
# 1 0.007854 -0.001417 -0.002291 0.000000 0.000000 0.000000
# 2 -0.001417 0.008509 -0.002907 0.000000 0.000000 0.000000
# 3 -0.002291 -0.002907 0.009862 0.000000 0.000000 0.000000
# 4 0.000000 0.000000 0.000000 0.062134 0.000000 0.000000
# 5 0.000000 0.000000 0.000000 0.000000 0.036982 0.000000
# 6 0.000000 0.000000 0.000000 0.000000 0.000000 0.022131
#
#
# Mechanical properties :
#
#
# Convention : Reuss Voigt Hill
#
# Bulk Modulus (GPa) = 76.96019 77.04169 77.00094
# Shear Modulus (GPa) = 30.29709 36.27159 33.28434
#
# Velocity S-wave (km/s) = 3.58247 3.91981 3.75493
# Velocity P-wave (km/s) = 7.05074 7.28848 7.17060
#
# Compressibility (1/GPa) = 0.01299373
#
# Stress axis : x y z
#
# Youngs Moduli (GPa) = 127.32874 117.52824 101.39672
#
# Poissons Ratio (x) = 0.16659 0.23226
# Poissons Ratio (y) = 0.18048 0.29480
# Poissons Ratio (z) = 0.29166 0.34170
#
# Static dielectric constant tensor:
#      x y z
#    x 1.895830 0.000000 0.000000 
#    y 0.000000 1.932000 0.000000 
#    z 0.000000 0.000000 1.860230 
# 
# From -- ./inp_files/52957.got.cif
#   From: 2010.05.17/outbox.cif.g08.bks.cpg/sg68_27_cif.got.tgz:52957.got - 2010.06.03 18:57:09.
