data_PCOD9510781
_publ_section_title
;
Structure prediction by ZEFSAII (Michael W. Deem and Ramdas Pophale) SiO2 
 PCOD9510781
Probable space group: C C C A
;
_chemical_formula_sum "Si O2"
_cell_formula_units_Z 68
_cell_length_a 6.940706
_cell_length_b 16.871146
_cell_length_c 26.805191
_cell_angle_alpha 90.000000
_cell_angle_beta 90.000000
_cell_angle_gamma 90.000000
_cell_volume 3138.825256
_symmetry_space_group_name_H-M "C C C A"
_symmetry_group_IT_number 68
_space_group.IT_coordinate_system_code '2'
_symmetry_cell_setting 'orthorhombic'
loop_
_space_group_symop_operation_xyz
x,y,z
-x,1/2-y,z
x,1/2-y,1/2-z
-x,y,1/2-z
-x,-y,-z
x,1/2+y,-z
-x,1/2+y,1/2+z
x,-y,1/2+z
1/2+x,1/2+y,z
1/2-x,-y,z
1/2+x,-y,1/2-z
1/2-x,1/2+y,1/2-z
1/2-x,1/2-y,-z
1/2+x,y,-z
1/2-x,y,1/2+z
1/2+x,1/2-y,1/2+z
loop_
_atom_site_type_symbol
_atom_site_label
_atom_site_fract_x
_atom_site_fract_y
_atom_site_fract_z
Si Si1 0.000000 0.250000 0.250000
Si Si2 0.724060 0.092066 0.608723
Si Si3 0.981577 0.838088 0.028222
Si Si4 0.343588 0.085980 0.567809
Si Si5 0.125885 0.172348 0.797336
O O1 0.842720 0.198849 0.218717
O O2 0.806437 0.148788 0.565786
O O3 0.494883 0.104139 0.611041
O O4 0.842333 0.111149 0.658313
O O5 0.750000 0.000000 0.594187
O O6 0.000000 0.750000 0.007266
O O7 0.169364 0.853946 0.061150
O O8 0.957834 0.902373 0.984458
O O9 0.250000 0.000000 0.572845
O O10 0.000000 0.250000 0.813357
O O11 0.000000 0.142261 0.750000
#
# Coordination Sequence:
#
# PCOD9510781 Si02
#       5
#     4  16  16  16  16
#     4   8  18  44  72  98 120 168 200 276 340 394
#     4  12  25  42  65  97 135 175 221 270 330 394
#     4  12  25  41  64  98 134 179 231 274 317 384
#     4  12  24  42  63  90 137 185 221 269 326 383
#     4   9  21  44  71  96 128 161 213 273 335 397
#
# _framework density 21.664155999999998
#
# number of rings (size 3 to 8) (size 9 to 14) (size 15 to 20)
#    0.000    1.176    4.706    2.824    0.000    5.647 
#    2.118    0.000    0.000    0.000    0.000    0.000 
#    0.000    0.000    0.000    0.000    0.000    0.000 
#
# Total GULP energy -189780.373626 kJ/mol
# GULP energy per Si atom -5581.775695 kJ/mol
# Density = 2.161485 g / cm^3
# Si number density = 21.664156 Si / 1000 Ang^3
#
#
#
# Elastic Constant Matrix: (Units=GPa)
#
#
# Indices 1 2 3 4 5 6 
#
# 1 163.9181 26.0056 27.7904 0.0000 0.0000 0.0000
# 2 26.0056 71.3663 27.4122 0.0000 0.0000 0.0000
# 3 27.7904 27.4122 71.6279 0.0000 0.0000 0.0000
# 4 0.0000 0.0000 0.0000 8.7495 0.0000 0.0000
# 5 0.0000 0.0000 0.0000 0.0000 22.3882 0.0000
# 6 0.0000 0.0000 0.0000 0.0000 0.0000 16.1731
#
#
#
# Elastic Compliance Matrix: (Units=1/GPa)
#
#
# Indices 1 2 3 4 5 6 
#
# 1 0.006700 -0.001692 -0.001952 0.000000 0.000000 0.000000
# 2 -0.001692 0.016854 -0.005794 0.000000 0.000000 0.000000
# 3 -0.001952 -0.005794 0.016936 0.000000 0.000000 0.000000
# 4 0.000000 0.000000 0.000000 0.114292 0.000000 0.000000
# 5 0.000000 0.000000 0.000000 0.000000 0.044666 0.000000
# 6 0.000000 0.000000 0.000000 0.000000 0.000000 0.061831
#
#
# Mechanical properties :
#
#
# Convention : Reuss Voigt Hill
#
# Bulk Modulus (GPa) = 46.26469 52.14764 49.20617
# Shear Modulus (GPa) = 17.39982 24.50910 20.95446
#
# Velocity S-wave (km/s) = 2.83709 3.36716 3.11342
# Velocity P-wave (km/s) = 5.66867 6.26420 5.97386
#
# Compressibility (1/GPa) = 0.02161475
#
# Stress axis : x y z
#
# Youngs Moduli (GPa) = 149.25519 59.33290 59.04691
#
# Poissons Ratio (x) = 0.10037 0.11526
# Poissons Ratio (y) = 0.25248 0.34210
# Poissons Ratio (z) = 0.29136 0.34376
#
# Static dielectric constant tensor:
#      x y z
#    x 1.851870 0.000000 0.000000 
#    y 0.000000 1.761580 0.000000 
#    z 0.000000 0.000000 1.807590 
# 
# From -- ./inp_files/48182.got.cif
#   From: 2010.05.17/outbox.cif.g08.bks.cpg/sg68_25_cif.got.tgz:48182.got - 2010.06.03 18:57:09.
