data_PCOD9510505
_publ_section_title
;
Structure prediction by ZEFSAII (Michael W. Deem and Ramdas Pophale) SiO2 
 PCOD9510505
Probable space group: C C C A
;
_chemical_formula_sum "Si O2"
_cell_formula_units_Z 40
_cell_length_a 5.037862
_cell_length_b 9.201785
_cell_length_c 34.822232
_cell_angle_alpha 90.000000
_cell_angle_beta 90.000000
_cell_angle_gamma 90.000000
_cell_volume 1614.265456
_symmetry_space_group_name_H-M "C C C A"
_symmetry_group_IT_number 68
_space_group.IT_coordinate_system_code '2'
_symmetry_cell_setting 'orthorhombic'
loop_
_space_group_symop_operation_xyz
x,y,z
-x,1/2-y,z
x,1/2-y,1/2-z
-x,y,1/2-z
-x,-y,-z
x,1/2+y,-z
-x,1/2+y,1/2+z
x,-y,1/2+z
1/2+x,1/2+y,z
1/2-x,-y,z
1/2+x,-y,1/2-z
1/2-x,1/2+y,1/2-z
1/2-x,1/2-y,-z
1/2+x,y,-z
1/2-x,y,1/2+z
1/2+x,1/2-y,1/2+z
loop_
_atom_site_type_symbol
_atom_site_label
_atom_site_fract_x
_atom_site_fract_y
_atom_site_fract_z
Si Si1 0.250000 0.500000 0.922582
Si Si2 0.000000 0.250000 0.129028
Si Si3 0.500000 0.750000 0.971977
Si Si4 0.500000 0.750000 0.818894
Si Si5 0.000000 0.570529 0.250000
O O1 0.412329 0.386275 0.896726
O O2 0.448195 0.604702 0.946824
O O3 0.256806 0.293782 0.154159
O O4 0.250000 0.750000 0.000000
O O5 0.635964 0.851472 0.786375
O O6 0.750000 0.500000 0.269896
#
# Coordination Sequence:
#
# PCOD9510505 Si02
#       5
#     8   8   8   8   8
#     4  12  30  54  80 128 162 210 264 328 394 498
#     4  12  29  49  80 111 171 205 264 323 415 469
#     4  12  28  54  87 118 159 209 264 325 393 468
#     4  11  27  46  71 111 146 219 258 339 390 467
#     4  11  24  45  74 104 148 195 290 323 388 463
#
# _framework density 24.779071999999999
#
# number of rings (size 3 to 8) (size 9 to 14) (size 15 to 20)
#    0.000    0.400    0.000    6.000    8.400   14.400 
#    0.000    0.000    0.000    0.000    0.000    0.000 
#    0.000    0.000    0.000    0.000    0.000    0.000 
#
# Total GULP energy -111672.699200 kJ/mol
# GULP energy per Si atom -5583.634960 kJ/mol
# Density = 2.472267 g / cm^3
# Si number density = 24.779072 Si / 1000 Ang^3
#
#
#
# Elastic Constant Matrix: (Units=GPa)
#
#
# Indices 1 2 3 4 5 6 
#
# 1 175.4674 50.8088 93.4875 0.0000 0.0000 0.0000
# 2 50.8088 156.4975 97.8269 0.0000 0.0000 0.0000
# 3 93.4875 97.8269 189.1760 0.0000 0.0000 0.0000
# 4 0.0000 0.0000 0.0000 165.5595 0.0000 0.0000
# 5 0.0000 0.0000 0.0000 0.0000 228.1192 0.0000
# 6 0.0000 0.0000 0.0000 0.0000 0.0000 48.6233
#
#
#
# Elastic Compliance Matrix: (Units=1/GPa)
#
#
# Indices 1 2 3 4 5 6 
#
# 1 0.007739 -0.000180 -0.003732 0.000000 0.000000 0.000000
# 2 -0.000180 0.009446 -0.004796 0.000000 0.000000 0.000000
# 3 -0.003732 -0.004796 0.009610 0.000000 0.000000 0.000000
# 4 0.000000 0.000000 0.000000 0.006040 0.000000 0.000000
# 5 0.000000 0.000000 0.000000 0.000000 0.004384 0.000000
# 6 0.000000 0.000000 0.000000 0.000000 0.000000 0.020566
#
#
# Mechanical properties :
#
#
# Convention : Reuss Voigt Hill
#
# Bulk Modulus (GPa) = 106.60040 111.70969 109.15505
# Shear Modulus (GPa) = 63.83442 107.06160 85.44801
#
# Velocity S-wave (km/s) = 5.08108 6.58029 5.87867
# Velocity P-wave (km/s) = 8.80550 10.14464 9.49870
#
# Compressibility (1/GPa) = 0.00938083
#
# Stress axis : x y z
#
# Youngs Moduli (GPa) = 129.21016 105.86224 104.05648
#
# Poissons Ratio (x) = 0.01906 0.38829
# Poissons Ratio (y) = 0.02327 0.49904
# Poissons Ratio (z) = 0.48215 0.50770
#
# Static dielectric constant tensor:
#      x y z
#    x 1.693260 0.000000 0.000000 
#    y 0.000000 4.481380 0.000000 
#    z 0.000000 0.000000 1.888960 
# 
# From -- ./inp_files/47712.got.cif
#   From: 2010.05.17/outbox.cif.g08.bks.cpg/sg68_24_cif.got.tgz:47712.got - 2010.06.03 18:57:09.
