data_PCOD9510802
_publ_section_title
;
Structure prediction by ZEFSAII (Michael W. Deem and Ramdas Pophale) SiO2 
 PCOD9510802
Probable space group: C C C A
;
_chemical_formula_sum "Si O2"
_cell_formula_units_Z 64
_cell_length_a 26.971042
_cell_length_b 21.562137
_cell_length_c 4.894983
_cell_angle_alpha 90.000000
_cell_angle_beta 90.000000
_cell_angle_gamma 90.000000
_cell_volume 2846.693530
_symmetry_space_group_name_H-M "C C C A"
_symmetry_group_IT_number 68
_space_group.IT_coordinate_system_code '2'
_symmetry_cell_setting 'orthorhombic'
loop_
_space_group_symop_operation_xyz
x,y,z
-x,1/2-y,z
x,1/2-y,1/2-z
-x,y,1/2-z
-x,-y,-z
x,1/2+y,-z
-x,1/2+y,1/2+z
x,-y,1/2+z
1/2+x,1/2+y,z
1/2-x,-y,z
1/2+x,-y,1/2-z
1/2-x,1/2+y,1/2-z
1/2-x,1/2-y,-z
1/2+x,y,-z
1/2-x,y,1/2+z
1/2+x,1/2-y,1/2+z
loop_
_atom_site_type_symbol
_atom_site_label
_atom_site_fract_x
_atom_site_fract_y
_atom_site_fract_z
Si Si1 0.966099 0.367234 0.991855
Si Si2 0.124013 0.458199 0.463320
Si Si3 0.591379 0.250000 0.250000
Si Si4 0.716435 0.629758 0.045671
Si Si5 0.340406 0.250000 0.750000
O O1 0.941069 0.305727 0.868199
O O2 0.000000 0.394999 0.750000
O O3 0.922694 0.413530 0.081361
O O4 0.000000 0.351668 0.250000
O O5 0.122259 0.481778 0.772850
O O6 0.174337 0.421046 0.404617
O O7 0.625296 0.226374 0.501156
O O8 0.764220 0.623827 0.238508
O O9 0.692463 0.695868 0.119666
#
# Coordination Sequence:
#
# PCOD9510802 Si02
#       5
#    16  16   8  16   8
#     4  12  27  48  75 110 145 191 241 299 367 432
#     4  12  28  49  74 103 146 194 248 299 351 424
#     4  12  25  45  78 105 152 189 230 301 373 434
#     4  12  26  46  75 108 144 188 239 300 366 430
#     4  12  24  45  77 107 150 191 233 297 376 438
#
# _framework density 22.482223999999999
#
# number of rings (size 3 to 8) (size 9 to 14) (size 15 to 20)
#    0.000    0.000    2.500    7.125    3.500    7.000 
#    0.000    0.000    0.000    0.000    0.000    0.000 
#    0.000    0.000    0.000    0.000    0.000    0.000 
#
# Total GULP energy -179445.458988 kJ/mol
# GULP energy per Si atom -5607.670593 kJ/mol
# Density = 2.243105 g / cm^3
# Si number density = 22.482224 Si / 1000 Ang^3
#
#
#
# Elastic Constant Matrix: (Units=GPa)
#
#
# Indices 1 2 3 4 5 6 
#
# 1 115.2253 45.1999 21.1709 0.0000 0.0000 0.0000
# 2 45.1999 77.2327 -5.3062 0.0000 0.0000 0.0000
# 3 21.1709 -5.3062 90.0985 0.0000 0.0000 0.0000
# 4 0.0000 0.0000 0.0000 33.8944 0.0000 0.0000
# 5 0.0000 0.0000 0.0000 0.0000 72.3656 0.0000
# 6 0.0000 0.0000 0.0000 0.0000 0.0000 -17.0260
#
#
#
# Elastic Compliance Matrix: (Units=1/GPa)
#
#
# Indices 1 2 3 4 5 6 
#
# 1 0.012165 -0.007345 -0.003291 0.000000 0.000000 0.000000
# 2 -0.007345 0.017436 0.002753 0.000000 0.000000 0.000000
# 3 -0.003291 0.002753 0.012034 0.000000 0.000000 0.000000
# 4 0.000000 0.000000 0.000000 0.029503 0.000000 0.000000
# 5 0.000000 0.000000 0.000000 0.000000 0.013819 0.000000
# 6 0.000000 0.000000 0.000000 0.000000 0.000000 -0.058734
#
#
# Mechanical properties :
#
#
# Convention : Reuss Voigt Hill
#
# Bulk Modulus (GPa) = 38.65803 44.96506 41.81155
# Shear Modulus (GPa) = 98.78818 32.61293 65.70056
#
# Velocity S-wave (km/s) = 6.63596 3.81282 5.41173
# Velocity P-wave (km/s) = 8.71475 6.27910 7.59520
#
# Compressibility (1/GPa) = 0.02586784
#
# Stress axis : x y z
#
# Youngs Moduli (GPa) = 82.20469 57.35295 83.09517
#
# Poissons Ratio (x) = 0.42128 0.27347
# Poissons Ratio (y) = 0.60383 -0.22875
# Poissons Ratio (z) = 0.27054 -0.15788
#
# Static dielectric constant tensor:
#      x y z
#    x 1.815100 0.000000 0.000000 
#    y 0.000000 1.790690 0.000000 
#    z 0.000000 0.000000 1.788710 
# 
# From -- ./inp_files/1865.got.cif
#   From: 2010.05.17/outbox.cif.g08.bks.cpg/sg68_1_cif.got.tgz:1865.got - 2010.06.03 18:57:09.
