data_PCOD9510262
_publ_section_title
;
Structure prediction by ZEFSAII (Michael W. Deem and Ramdas Pophale) SiO2 
 PCOD9510262
Probable space group: C C C A
;
_chemical_formula_sum "Si O2"
_cell_formula_units_Z 64
_cell_length_a 28.557666
_cell_length_b 12.430457
_cell_length_c 7.989215
_cell_angle_alpha 90.000000
_cell_angle_beta 90.000000
_cell_angle_gamma 90.000000
_cell_volume 2836.050202
_symmetry_space_group_name_H-M "C C C A"
_symmetry_group_IT_number 68
_space_group.IT_coordinate_system_code '2'
_symmetry_cell_setting 'orthorhombic'
loop_
_space_group_symop_operation_xyz
x,y,z
-x,1/2-y,z
x,1/2-y,1/2-z
-x,y,1/2-z
-x,-y,-z
x,1/2+y,-z
-x,1/2+y,1/2+z
x,-y,1/2+z
1/2+x,1/2+y,z
1/2-x,-y,z
1/2+x,-y,1/2-z
1/2-x,1/2+y,1/2-z
1/2-x,1/2-y,-z
1/2+x,y,-z
1/2-x,y,1/2+z
1/2+x,1/2-y,1/2+z
loop_
_atom_site_type_symbol
_atom_site_label
_atom_site_fract_x
_atom_site_fract_y
_atom_site_fract_z
Si Si1 0.208376 0.140606 0.837599
Si Si2 0.810565 0.906616 0.776317
Si Si3 0.464190 0.442828 0.372924
Si Si4 0.085847 0.862160 0.824969
O O1 0.192639 0.250000 0.750000
O O2 0.264985 0.134232 0.823759
O O3 0.190819 0.035997 0.737569
O O4 0.193773 0.128199 0.030408
O O5 0.858600 0.867482 0.697232
O O6 0.500000 0.383200 0.250000
O O7 0.500000 0.500000 0.500000
O O8 0.429522 0.372851 0.483348
O O9 0.435846 0.536435 0.276046
O O10 0.068101 0.750000 0.750000
#
# Coordination Sequence:
#
# PCOD9510262 Si02
#       4
#    16  16  16  16
#     4  11  23  40  62  89 134 186 225 276 333 383
#     4  11  23  39  61  96 131 175 233 276 320 396
#     4   9  21  42  65  95 127 159 211 268 328 409
#     4  11  23  42  68  96 131 172 215 276 335 390
#
# _framework density 22.566597000000002
#
# number of rings (size 3 to 8) (size 9 to 14) (size 15 to 20)
#    0.000    1.500    0.000    6.000    0.000    8.500 
#    0.000    8.750    0.000    0.000    0.000    0.000 
#    0.000    0.000    0.000    0.000    0.000    0.000 
#
# Total GULP energy -179117.056214 kJ/mol
# GULP energy per Si atom -5597.408007 kJ/mol
# Density = 2.251523 g / cm^3
# Si number density = 22.566597 Si / 1000 Ang^3
#
#
#
# Elastic Constant Matrix: (Units=GPa)
#
#
# Indices 1 2 3 4 5 6 
#
# 1 108.3946 35.5697 76.0154 0.0000 0.0000 0.0000
# 2 35.5697 139.8722 53.0239 0.0000 0.0000 0.0000
# 3 76.0154 53.0239 159.8113 0.0000 0.0000 0.0000
# 4 0.0000 0.0000 0.0000 34.0168 0.0000 0.0000
# 5 0.0000 0.0000 0.0000 0.0000 34.1288 0.0000
# 6 0.0000 0.0000 0.0000 0.0000 0.0000 -8.3398
#
#
#
# Elastic Compliance Matrix: (Units=1/GPa)
#
#
# Indices 1 2 3 4 5 6 
#
# 1 0.014013 -0.001186 -0.006272 0.000000 0.000000 0.000000
# 2 -0.001186 0.008278 -0.002183 0.000000 0.000000 0.000000
# 3 -0.006272 -0.002183 0.009965 0.000000 0.000000 0.000000
# 4 0.000000 0.000000 0.000000 0.029397 0.000000 0.000000
# 5 0.000000 0.000000 0.000000 0.000000 0.029301 0.000000
# 6 0.000000 0.000000 0.000000 0.000000 0.000000 -0.119907
#
#
# Mechanical properties :
#
#
# Convention : Reuss Voigt Hill
#
# Bulk Modulus (GPa) = 77.06902 81.92177 79.49540
# Shear Modulus (GPa) = -935.19880 28.19243 -453.50319
#
# Velocity S-wave (km/s) = -20.37933 3.53838 -14.19149
# Velocity P-wave (km/s) = 22.79320 7.28523 15.27180
#
# Compressibility (1/GPa) = 0.01297538
#
# Stress axis : x y z
#
# Youngs Moduli (GPa) = 71.36151 120.79682 100.35269
#
# Poissons Ratio (x) = 0.14326 0.62941
# Poissons Ratio (y) = 0.08463 0.21903
# Poissons Ratio (z) = 0.44758 0.26365
#
# Static dielectric constant tensor:
#      x y z
#    x 1.822350 0.000000 0.000000 
#    y 0.000000 1.821740 0.000000 
#    z 0.000000 0.000000 1.841520 
# 
# From -- ./inp_files/9344.got.cif
#   From: 2010.05.17/outbox.cif.g08.bks.cpg/sg68_5_cif.got.tgz:9344.got - 2010.06.03 18:57:09.
