data_PCOD9510981
_publ_section_title
;
Structure prediction by ZEFSAII (Michael W. Deem and Ramdas Pophale) SiO2 
 PCOD9510981
Probable space group: F M M M
;
_chemical_formula_sum "Si O2"
_cell_formula_units_Z 136
_cell_length_a 24.566440
_cell_length_b 36.310232
_cell_length_c 7.533842
_cell_angle_alpha 90.000000
_cell_angle_beta 90.000000
_cell_angle_gamma 90.000000
_cell_volume 6720.286027
_symmetry_space_group_name_H-M "F M M M"
_symmetry_group_IT_number 69
_symmetry_cell_setting 'orthorhombic'
loop_
_space_group_symop_operation_xyz
x,y,z
-x,-y,z
x,-y,-z
-x,y,-z
-x,-y,-z
x,y,-z
-x,y,z
x,-y,z
x,1/2+y,1/2+z
-x,1/2-y,1/2+z
x,1/2-y,1/2-z
-x,1/2+y,1/2-z
-x,1/2-y,1/2-z
x,1/2+y,1/2-z
-x,1/2+y,1/2+z
x,1/2-y,1/2+z
1/2+x,y,1/2+z
1/2-x,-y,1/2+z
1/2+x,-y,1/2-z
1/2-x,y,1/2-z
1/2-x,-y,1/2-z
1/2+x,y,1/2-z
1/2-x,y,1/2+z
1/2+x,-y,1/2+z
1/2+x,1/2+y,z
1/2-x,1/2-y,z
1/2+x,1/2-y,-z
1/2-x,1/2+y,-z
1/2-x,1/2-y,-z
1/2+x,1/2+y,-z
1/2-x,1/2+y,z
1/2+x,1/2-y,z
loop_
_atom_site_type_symbol
_atom_site_label
_atom_site_fract_x
_atom_site_fract_y
_atom_site_fract_z
Si Si1 0.562442 0.790787 0.212720
Si Si2 0.500000 0.917398 0.215634
Si Si3 0.894666 0.367545 0.784474
Si Si4 0.500000 0.500000 0.240770
Si Si5 0.128769 0.000000 0.296073
Si Si6 0.186387 0.072956 0.286881
O O1 0.500000 0.792459 0.280475
O O2 0.584365 0.750000 0.250000
O O3 0.595343 0.826095 0.280260
O O4 0.559427 0.794188 0.000000
O O5 0.552873 0.892965 0.255101
O O6 0.500000 0.956610 0.312143
O O7 0.500000 0.925509 0.000000
O O8 0.842054 0.389734 0.720318
O O9 0.892241 0.365473 0.000000
O O10 0.563482 0.500000 0.303476
O O11 0.153634 0.962699 0.216979
O O12 0.147720 0.000000 0.500000
O O13 0.179389 0.073477 0.500000
O O14 0.250000 0.070199 0.250000
#
# Coordination Sequence:
#
# PCOD9510981 Si02
#       6
#    32  16  32   8  16  32
#     4   9  16  27  45  70  98 124 147 180 232 290
#     4  10  15  22  39  67  99 125 150 191 242 278
#     4   9  16  27  45  68  95 124 155 192 235 280
#     4  12  17  22  42  76 107 124 149 196 245 278
#     4  10  18  27  44  71 100 124 153 197 240 275
#     4  10  20  33  48  68  94 127 164 198 231 270
#
# _framework density 20.237234000000001
#
# number of rings (size 3 to 8) (size 9 to 14) (size 15 to 20)
#    0.000    2.353    3.529    1.412    0.000    0.000 
#    0.000    1.176    0.000    0.706    0.000    8.235 
#    0.000    0.000    0.000    0.000    0.000    0.000 
#
# Total GULP energy -189398.226934 kJ/mol
# GULP energy per Si atom -5570.536086 kJ/mol
# Density = 2.019117 g / cm^3
# Si number density = 20.237234 Si / 1000 Ang^3
#
#
#
# Elastic Constant Matrix: (Units=GPa)
#
#
# Indices 1 2 3 4 5 6 
#
# 1 114.3287 77.9335 1.1911 0.0185 -0.0268 -0.0057
# 2 77.9335 227.1072 15.5601 0.0073 -0.0035 -0.0046
# 3 1.1911 15.5601 51.5044 0.0188 -0.0166 -0.0043
# 4 0.0185 0.0073 0.0188 -22.5379 -0.0755 -0.0103
# 5 -0.0268 -0.0035 -0.0166 -0.0755 -102.6119 0.0094
# 6 -0.0057 -0.0046 -0.0043 -0.0103 0.0094 13.9758
#
#
#
# Elastic Compliance Matrix: (Units=1/GPa)
#
#
# Indices 1 2 3 4 5 6 
#
# 1 0.011462 -0.003998 0.000943 0.000009 -0.000003 0.000004
# 2 -0.003998 0.005891 -0.001687 -0.000003 0.000001 0.000000
# 3 0.000943 -0.001687 0.019904 0.000017 -0.000003 0.000006
# 4 0.000009 -0.000003 0.000017 -0.044370 0.000033 -0.000033
# 5 -0.000003 0.000001 -0.000003 0.000033 -0.009745 0.000007
# 6 0.000004 0.000000 0.000006 -0.000033 0.000007 0.071552
#
#
# Mechanical properties :
#
#
# Convention : Reuss Voigt Hill
#
# Bulk Modulus (GPa) = 36.00773 64.70108 50.35440
# Shear Modulus (GPa) = 68.08700 -2.35110 32.86795
#
# Velocity S-wave (km/s) = 5.80667 -1.07902 4.03442
# Velocity P-wave (km/s) = 7.92389 5.52162 6.82922
#
# Compressibility (1/GPa) = 0.02777182
#
# Stress axis : x y z
#
# Youngs Moduli (GPa) = 87.24411 169.75882 50.24182
#
# Poissons Ratio (x) = 0.67868 -0.04736
# Poissons Ratio (y) = 0.34879 0.08477
# Poissons Ratio (z) = -0.08225 0.28642
#
# Static dielectric constant tensor:
#      x y z
#    x 1.672380 0.000000 0.000030 
#    y 0.000000 1.742610 0.000000 
#    z 0.000030 0.000000 1.776100 
# 
# From -- ./inp_files/9499.got.cif
#   From: 2010.05.17/outbox.cif.g08.bks.cpg/sg69_5_cif.got.tgz:9499.got - 2010.06.03 19:29:58.
