data_PCOD9510845
_publ_section_title
;
Structure prediction by ZEFSAII (Michael W. Deem and Ramdas Pophale) SiO2 
 PCOD9510845
Probable space group: C C C A
;
_chemical_formula_sum "Si O2"
_cell_formula_units_Z 60
_cell_length_a 5.367545
_cell_length_b 23.170675
_cell_length_c 21.813289
_cell_angle_alpha 90.000000
_cell_angle_beta 90.000000
_cell_angle_gamma 90.000000
_cell_volume 2712.910916
_symmetry_space_group_name_H-M "C C C A"
_symmetry_group_IT_number 68
_space_group.IT_coordinate_system_code '2'
_symmetry_cell_setting 'orthorhombic'
loop_
_space_group_symop_operation_xyz
x,y,z
-x,1/2-y,z
x,1/2-y,1/2-z
-x,y,1/2-z
-x,-y,-z
x,1/2+y,-z
-x,1/2+y,1/2+z
x,-y,1/2+z
1/2+x,1/2+y,z
1/2-x,-y,z
1/2+x,-y,1/2-z
1/2-x,1/2+y,1/2-z
1/2-x,1/2-y,-z
1/2+x,y,-z
1/2-x,y,1/2+z
1/2+x,1/2-y,1/2+z
loop_
_atom_site_type_symbol
_atom_site_label
_atom_site_fract_x
_atom_site_fract_y
_atom_site_fract_z
Si Si1 0.000000 0.250000 0.750000
Si Si2 0.250000 0.500000 0.306685
Si Si3 0.000000 0.899182 0.750000
Si Si4 0.750000 0.000000 0.611065
Si Si5 0.650462 0.808479 0.153665
Si Si6 0.804154 0.119642 0.539017
O O1 0.157286 0.210263 0.794417
O O2 0.275582 0.556456 0.263908
O O3 0.496552 0.501280 0.348873
O O4 0.994123 0.859162 0.689639
O O5 0.728078 0.943233 0.569369
O O6 0.500000 0.750000 0.139941
O O7 0.771056 0.834133 0.093169
O O8 0.573392 0.126208 0.492159
#
# Coordination Sequence:
#
# PCOD9510845 Si02
#       6
#     4   8   8   8  16  16
#     4  12  26  46  84 110 154 200 258 322 392 464
#     4  12  27  43  78 118 158 199 245 324 388 476
#     4  12  25  49  72 122 160 194 258 322 404 466
#     4  12  25  49  76 112 156 203 263 314 396 452
#     4  12  28  49  78 113 154 208 254 321 390 459
#     4  12  29  51  78 109 156 204 264 321 376 462
#
# _framework density 22.116463
#
# number of rings (size 3 to 8) (size 9 to 14) (size 15 to 20)
#    0.000    0.000    5.333    3.200    7.467    1.067 
#    0.000    0.000    0.000    0.000    0.000    0.000 
#    0.000    0.000    0.000    0.000    0.000    0.000 
#
# Total GULP energy -167923.528068 kJ/mol
# GULP energy per Si atom -5597.450936 kJ/mol
# Density = 2.206613 g / cm^3
# Si number density = 22.116463 Si / 1000 Ang^3
#
#
#
# Elastic Constant Matrix: (Units=GPa)
#
#
# Indices 1 2 3 4 5 6 
#
# 1 85.2470 11.0199 12.6949 0.0000 0.0000 0.0000
# 2 11.0199 139.4385 34.6717 0.0000 0.0000 0.0000
# 3 12.6949 34.6717 86.6689 0.0000 0.0000 0.0000
# 4 0.0000 0.0000 0.0000 53.5127 0.0000 0.0000
# 5 0.0000 0.0000 0.0000 0.0000 74.9489 0.0000
# 6 0.0000 0.0000 0.0000 0.0000 0.0000 51.7416
#
#
#
# Elastic Compliance Matrix: (Units=1/GPa)
#
#
# Indices 1 2 3 4 5 6 
#
# 1 0.012033 -0.000569 -0.001535 0.000000 0.000000 0.000000
# 2 -0.000569 0.007991 -0.003113 0.000000 0.000000 0.000000
# 3 -0.001535 -0.003113 0.013008 0.000000 0.000000 0.000000
# 4 0.000000 0.000000 0.000000 0.018687 0.000000 0.000000
# 5 0.000000 0.000000 0.000000 0.000000 0.013342 0.000000
# 6 0.000000 0.000000 0.000000 0.000000 0.000000 0.019327
#
#
# Mechanical properties :
#
#
# Convention : Reuss Voigt Hill
#
# Bulk Modulus (GPa) = 44.25326 47.56971 45.91148
# Shear Modulus (GPa) = 48.84937 52.90517 50.87727
#
# Velocity S-wave (km/s) = 4.70481 4.89623 4.80148
# Velocity P-wave (km/s) = 7.04034 7.31571 7.17934
#
# Compressibility (1/GPa) = 0.02259721
#
# Stress axis : x y z
#
# Youngs Moduli (GPa) = 83.10635 125.14479 76.87325
#
# Poissons Ratio (x) = 0.07125 0.11798
# Poissons Ratio (y) = 0.04732 0.23933
# Poissons Ratio (z) = 0.12755 0.38961
#
# Static dielectric constant tensor:
#      x y z
#    x 1.805750 0.000000 0.000000 
#    y 0.000000 1.805700 0.000000 
#    z 0.000000 0.000000 1.773380 
# 
# From -- ./inp_files/34986.got.cif
#   From: 2010.05.17/outbox.cif.g08.bks.cpg/sg68_18_cif.got.tgz:34986.got - 2010.06.03 18:57:09.
