data_PCOD9510771
_publ_section_title
;
Structure prediction by ZEFSAII (Michael W. Deem and Ramdas Pophale) SiO2 
 PCOD9510771
Probable space group: C C C A
;
_chemical_formula_sum "Si O2"
_cell_formula_units_Z 44
_cell_length_a 5.447702
_cell_length_b 25.781792
_cell_length_c 14.608309
_cell_angle_alpha 90.000000
_cell_angle_beta 90.000000
_cell_angle_gamma 90.000000
_cell_volume 2051.759201
_symmetry_space_group_name_H-M "C C C A"
_symmetry_group_IT_number 68
_space_group.IT_coordinate_system_code '2'
_symmetry_cell_setting 'orthorhombic'
loop_
_space_group_symop_operation_xyz
x,y,z
-x,1/2-y,z
x,1/2-y,1/2-z
-x,y,1/2-z
-x,-y,-z
x,1/2+y,-z
-x,1/2+y,1/2+z
x,-y,1/2+z
1/2+x,1/2+y,z
1/2-x,-y,z
1/2+x,-y,1/2-z
1/2-x,1/2+y,1/2-z
1/2-x,1/2-y,-z
1/2+x,y,-z
1/2-x,y,1/2+z
1/2+x,1/2-y,1/2+z
loop_
_atom_site_type_symbol
_atom_site_label
_atom_site_fract_x
_atom_site_fract_y
_atom_site_fract_z
Si Si1 0.261976 0.155491 0.345583
Si Si2 0.250000 0.500000 0.940516
Si Si3 0.741449 0.112602 0.859152
Si Si4 0.000000 0.250000 0.750000
O O1 0.251296 0.123312 0.249887
O O2 0.501882 0.134773 0.396928
O O3 0.327730 0.213368 0.312130
O O4 0.000703 0.143959 0.390210
O O5 0.267564 0.447662 0.881678
O O6 0.500000 0.500000 0.000000
#
# Coordination Sequence:
#
# PCOD9510771 Si02
#       4
#    16   8  16   4
#     4   9  18  31  55  80 106 128 158 213 263 318
#     4  12  24  36  52  70 100 146 184 214 250 300
#     4   9  19  33  48  77 102 132 170 210 259 302
#     4   8  16  30  52  90 112 130 156 198 288 334
#
# _framework density 21.44501
#
# number of rings (size 3 to 8) (size 9 to 14) (size 15 to 20)
#    0.000    2.909    0.000    2.182    0.000   17.455 
#    0.000    0.000    0.000    0.000    0.000  134.909 
#    0.000    0.000    0.000    0.000    0.000    0.000 
#
# Total GULP energy -122635.373673 kJ/mol
# GULP energy per Si atom -5574.335167 kJ/mol
# Density = 2.139620 g / cm^3
# Si number density = 21.445010 Si / 1000 Ang^3
#
#
#
# Elastic Constant Matrix: (Units=GPa)
#
#
# Indices 1 2 3 4 5 6 
#
# 1 244.9471 70.3531 17.4260 0.0000 0.0000 0.0000
# 2 70.3531 198.3368 32.9500 0.0000 0.0000 0.0000
# 3 17.4260 32.9500 74.0972 0.0000 0.0000 0.0000
# 4 0.0000 0.0000 0.0000 -11.9207 0.0000 0.0000
# 5 0.0000 0.0000 0.0000 0.0000 -5.6317 0.0000
# 6 0.0000 0.0000 0.0000 0.0000 0.0000 28.6722
#
#
#
# Elastic Compliance Matrix: (Units=1/GPa)
#
#
# Indices 1 2 3 4 5 6 
#
# 1 0.004556 -0.001553 -0.000381 0.000000 0.000000 0.000000
# 2 -0.001553 0.005973 -0.002291 0.000000 0.000000 0.000000
# 3 -0.000381 -0.002291 0.014604 0.000000 0.000000 0.000000
# 4 0.000000 0.000000 0.000000 -0.083888 0.000000 0.000000
# 5 0.000000 0.000000 0.000000 0.000000 -0.177565 0.000000
# 6 0.000000 0.000000 0.000000 0.000000 0.000000 0.034877
#
#
# Mechanical properties :
#
#
# Convention : Reuss Voigt Hill
#
# Bulk Modulus (GPa) = 59.93869 84.31549 72.12709
# Shear Modulus (GPa) = -26.67627 28.66742 0.99557
#
# Velocity S-wave (km/s) = -3.53078 3.66018 0.68209
# Velocity P-wave (km/s) = 3.37473 7.56736 5.85891
#
# Compressibility (1/GPa) = 0.01668371
#
# Stress axis : x y z
#
# Youngs Moduli (GPa) = 219.51197 167.41165 68.47351
#
# Poissons Ratio (x) = 0.25993 0.02608
# Poissons Ratio (y) = 0.34082 0.15688
# Poissons Ratio (z) = 0.08362 0.38356
#
# Static dielectric constant tensor:
#      x y z
#    x 2.153500 0.000000 0.000000 
#    y 0.000000 1.735130 0.000000 
#    z 0.000000 0.000000 1.739020 
# 
# From -- ./inp_files/26853.got.cif
#   From: 2010.05.17/outbox.cif.g08.bks.cpg/sg68_14_cif.got.tgz:26853.got - 2010.06.03 18:57:09.
