data_PCOD9510625
_publ_section_title
;
Structure prediction by ZEFSAII (Michael W. Deem and Ramdas Pophale) SiO2 
 PCOD9510625
Probable space group: C C C A
;
_chemical_formula_sum "Si O2"
_cell_formula_units_Z 56
_cell_length_a 16.045755
_cell_length_b 9.157000
_cell_length_c 17.434887
_cell_angle_alpha 90.000000
_cell_angle_beta 90.000000
_cell_angle_gamma 90.000000
_cell_volume 2561.725008
_symmetry_space_group_name_H-M "C C C A"
_symmetry_group_IT_number 68
_space_group.IT_coordinate_system_code '2'
_symmetry_cell_setting 'orthorhombic'
loop_
_space_group_symop_operation_xyz
x,y,z
-x,1/2-y,z
x,1/2-y,1/2-z
-x,y,1/2-z
-x,-y,-z
x,1/2+y,-z
-x,1/2+y,1/2+z
x,-y,1/2+z
1/2+x,1/2+y,z
1/2-x,-y,z
1/2+x,-y,1/2-z
1/2-x,1/2+y,1/2-z
1/2-x,1/2-y,-z
1/2+x,y,-z
1/2-x,y,1/2+z
1/2+x,1/2-y,1/2+z
loop_
_atom_site_type_symbol
_atom_site_label
_atom_site_fract_x
_atom_site_fract_y
_atom_site_fract_z
Si Si1 0.181909 0.660386 0.455358
Si Si2 0.092141 0.923358 0.276777
Si Si3 0.419012 0.432785 0.041667
Si Si4 0.750000 0.500000 0.686433
O O1 0.250000 0.750000 0.500000
O O2 0.155397 0.512108 0.496208
O O3 0.219984 0.627388 0.371804
O O4 0.098849 0.759946 0.460037
O O5 0.100984 0.750000 0.250000
O O6 0.167998 0.013554 0.238901
O O7 0.000000 0.966716 0.250000
O O8 0.089718 0.956247 0.367364
O O9 0.500000 0.500000 0.000000
#
# Coordination Sequence:
#
# PCOD9510625 Si02
#       4
#    16  16  16   8
#     4  12  25  45  74 106 144 196 249 306 381 455
#     4  11  26  45  73 109 152 200 252 318 393 452
#     4  12  26  47  76 108 146 198 255 315 377 464
#     4  12  24  44  74 112 152 192 256 320 386 458
#
# _framework density 21.860268999999999
#
# number of rings (size 3 to 8) (size 9 to 14) (size 15 to 20)
#    0.000    0.286    5.714    2.571    8.000    0.000 
#    0.000    0.000    0.000    0.000    0.000    0.000 
#    0.000    0.000    0.000    0.000    0.000    0.000 
#
# Total GULP energy -156091.130635 kJ/mol
# GULP energy per Si atom -5574.683237 kJ/mol
# Density = 2.181051 g / cm^3
# Si number density = 21.860269 Si / 1000 Ang^3
#
#
#
# Elastic Constant Matrix: (Units=GPa)
#
#
# Indices 1 2 3 4 5 6 
#
# 1 185.4271 58.2203 78.1340 0.0000 0.0000 0.0000
# 2 58.2203 93.3700 40.4162 0.0000 0.0000 0.0000
# 3 78.1340 40.4162 177.4307 0.0000 0.0000 0.0000
# 4 0.0000 0.0000 0.0000 167.7898 0.0000 0.0000
# 5 0.0000 0.0000 0.0000 0.0000 44.6385 0.0000
# 6 0.0000 0.0000 0.0000 0.0000 0.0000 42.0636
#
#
#
# Elastic Compliance Matrix: (Units=1/GPa)
#
#
# Indices 1 2 3 4 5 6 
#
# 1 0.007598 -0.003649 -0.002515 0.000000 0.000000 0.000000
# 2 -0.003649 0.013634 -0.001499 0.000000 0.000000 0.000000
# 3 -0.002515 -0.001499 0.007085 0.000000 0.000000 0.000000
# 4 0.000000 0.000000 0.000000 0.005960 0.000000 0.000000
# 5 0.000000 0.000000 0.000000 0.000000 0.022402 0.000000
# 6 0.000000 0.000000 0.000000 0.000000 0.000000 0.023774
#
#
# Mechanical properties :
#
#
# Convention : Reuss Voigt Hill
#
# Bulk Modulus (GPa) = 76.97104 89.97430 83.47267
# Shear Modulus (GPa) = 49.94528 69.52886 59.73707
#
# Velocity S-wave (km/s) = 4.78509 5.64580 5.23317
# Velocity P-wave (km/s) = 8.11273 9.15141 8.64768
#
# Compressibility (1/GPa) = 0.01299190
#
# Stress axis : x y z
#
# Youngs Moduli (GPa) = 131.60545 73.34410 141.14724
#
# Poissons Ratio (x) = 0.26766 0.35496
# Poissons Ratio (y) = 0.48028 0.21153
# Poissons Ratio (z) = 0.33096 0.10992
#
# Static dielectric constant tensor:
#      x y z
#    x 1.871960 0.000000 0.000000 
#    y 0.000000 1.857910 0.000000 
#    z 0.000000 0.000000 1.834610 
# 
# From -- ./inp_files/27682.got.cif
#   From: 2010.05.17/outbox.cif.g08.bks.cpg/sg68_14_cif.got.tgz:27682.got - 2010.06.03 18:57:09.
