data_PCOD9510944
_publ_section_title
;
Structure prediction by ZEFSAII (Michael W. Deem and Ramdas Pophale) SiO2 
 PCOD9510944
Probable space group: C C C A
;
_chemical_formula_sum "Si O2"
_cell_formula_units_Z 50
_cell_length_a 21.000000
_cell_length_b 27.000000
_cell_length_c 9.000000
_cell_angle_alpha 90.000000
_cell_angle_beta 90.000000
_cell_angle_gamma 90.000000
_cell_volume 5103.000000
_symmetry_space_group_name_H-M "C C C A"
_symmetry_group_IT_number 68
_space_group.IT_coordinate_system_code '2'
_symmetry_cell_setting 'orthorhombic'
loop_
_space_group_symop_operation_xyz
x,y,z
-x,1/2-y,z
x,1/2-y,1/2-z
-x,y,1/2-z
-x,-y,-z
x,1/2+y,-z
-x,1/2+y,1/2+z
x,-y,1/2+z
1/2+x,1/2+y,z
1/2-x,-y,z
1/2+x,-y,1/2-z
1/2-x,1/2+y,1/2-z
1/2-x,1/2-y,-z
1/2+x,y,-z
1/2-x,y,1/2+z
1/2+x,1/2-y,1/2+z
loop_
_atom_site_type_symbol
_atom_site_label
_atom_site_fract_x
_atom_site_fract_y
_atom_site_fract_z
Si Si1 0.145323 0.250000 0.750000
Si Si2 0.000000 0.750000 0.750000
Si Si3 0.500000 0.372099 0.250000
Si Si4 0.827195 0.879882 0.927610
Si Si5 0.324618 0.512938 0.532773
Si Si6 0.627399 0.067064 0.324481
Si Si7 0.778274 0.848457 0.243223
Si Si8 0.936907 0.809616 0.009569
O O1 0.191132 0.203832 0.714063
O O2 0.102075 0.228547 0.884310
O O3 0.040622 0.782963 0.637611
O O4 0.439176 0.406268 0.287538
O O5 0.489967 0.334886 0.112194
O O6 0.794221 0.855498 0.787215
O O7 0.827799 0.938982 0.925182
O O8 0.787218 0.861163 0.070687
O O9 0.894588 0.856220 0.961045
O O10 0.250000 0.500000 0.549169
O O11 0.364485 0.467304 0.467702
O O12 0.353294 0.532337 0.686273
O O13 0.680578 0.109832 0.327478
#
# Coordination Sequence:
#
# PCOD9510944 Si02
#       8
#     8   4   8  16  16  16  16  16
#     4  10  20  42  72  86 119 179 212 244 332 404
#     4  12  28  40  66 100 126 172 224 278 328 356
#     4  12  22  49  65  84 136 175 220 255 310 414
#     4  10  22  40  62  94 133 158 211 271 324 384
#     4  11  21  40  65  93 127 165 214 266 326 388
#     4  11  24  39  64  96 121 173 216 258 322 379
#     4  10  21  38  61  98 121 164 209 262 326 380
#     4  11  24  45  64  93 129 168 224 264 318 389
#
# _framework density 9.7981580000000008
#
# number of rings (size 3 to 8) (size 9 to 14) (size 15 to 20)
#    0.000    1.280    6.400    1.440    2.240    5.120 
#    2.880    0.000    0.000    0.000    0.000    0.000 
#    0.000    0.000    0.000    0.000    0.000    0.000 
#
# Total GULP energy -279038.727462 kJ/mol
# GULP energy per Si atom -5580.774549 kJ/mol
# Density = 0.977586 g / cm^3
# Si number density = 9.798158 Si / 1000 Ang^3
#
#
#
# Elastic Constant Matrix: (Units=GPa)
#
#
# Indices 1 2 3 4 5 6 
#
# 1 -14.8921 -64.9211 25.2043 0.0000 0.0000 0.0000
# 2 -64.9211 8.7130 32.6975 0.0000 0.0000 0.0000
# 3 25.2043 32.6975 42.7552 0.0000 0.0000 0.0000
# 4 0.0000 0.0000 0.0000 -13.4512 0.0000 0.0000
# 5 0.0000 0.0000 0.0000 0.0000 -9.7864 0.0000
# 6 0.0000 0.0000 0.0000 0.0000 0.0000 31.1929
#
#
#
# Elastic Compliance Matrix: (Units=1/GPa)
#
#
# Indices 1 2 3 4 5 6 
#
# 1 0.002467 -0.012749 0.008295 0.000000 0.000000 0.000000
# 2 -0.012749 0.004505 0.004070 0.000000 0.000000 0.000000
# 3 0.008295 0.004070 0.015386 0.000000 0.000000 0.000000
# 4 0.000000 0.000000 0.000000 -0.074343 0.000000 0.000000
# 5 0.000000 0.000000 0.000000 0.000000 -0.102182 0.000000
# 6 0.000000 0.000000 0.000000 0.000000 0.000000 0.032059
#
#
# Mechanical properties :
#
#
# Convention : Reuss Voigt Hill
#
# Bulk Modulus (GPa) = 46.31395 2.50417 24.40906
# Shear Modulus (GPa) = -43.80346 4.49742 -19.65302
#
# Velocity S-wave (km/s) = -4.73301 1.51658 -3.17028
# Velocity P-wave (km/s) = 2.48662 2.08503 0.95810
#
# Compressibility (1/GPa) = 0.02159177
#
# Stress axis : x y z
#
# Youngs Moduli (GPa) = 405.35157 221.99360 64.99454
#
# Poissons Ratio (x) = 2.83013 -0.53916
# Poissons Ratio (y) = 5.16770 -0.26455
# Poissons Ratio (z) = -3.36255 -0.90360
#
# Static dielectric constant tensor:
#      x y z
#    x 1.717070 0.000000 0.000000 
#    y 0.000000 1.681060 0.000000 
#    z 0.000000 0.000000 12.555600 
# 
# From -- ./inp_files/7417.got.cif
#   From: 2010.05.17/outbox.ucp.g08.bks.cvg/sg68_4_cif.got.tgz:7417.got - 2010.06.11 16:49:25.
