data_PCOD9510456
_publ_section_title
;
Structure prediction by ZEFSAII (Michael W. Deem and Ramdas Pophale) SiO2 
 PCOD9510456
Probable space group: C C C A
;
_chemical_formula_sum "Si O2"
_cell_formula_units_Z 48
_cell_length_a 12.277731
_cell_length_b 9.140686
_cell_length_c 18.243245
_cell_angle_alpha 90.000000
_cell_angle_beta 90.000000
_cell_angle_gamma 90.000000
_cell_volume 2047.382538
_symmetry_space_group_name_H-M "C C C A"
_symmetry_group_IT_number 68
_space_group.IT_coordinate_system_code '2'
_symmetry_cell_setting 'orthorhombic'
loop_
_space_group_symop_operation_xyz
x,y,z
-x,1/2-y,z
x,1/2-y,1/2-z
-x,y,1/2-z
-x,-y,-z
x,1/2+y,-z
-x,1/2+y,1/2+z
x,-y,1/2+z
1/2+x,1/2+y,z
1/2-x,-y,z
1/2+x,-y,1/2-z
1/2-x,1/2+y,1/2-z
1/2-x,1/2-y,-z
1/2+x,y,-z
1/2-x,y,1/2+z
1/2+x,1/2-y,1/2+z
loop_
_atom_site_type_symbol
_atom_site_label
_atom_site_fract_x
_atom_site_fract_y
_atom_site_fract_z
Si Si1 0.497875 0.573155 0.165894
Si Si2 0.310502 0.632906 0.070172
Si Si3 0.889789 0.329992 0.583844
O O1 0.500000 0.750000 0.163294
O O2 0.500000 0.525354 0.250000
O O3 0.379792 0.549358 0.130826
O O4 0.589150 0.490824 0.117607
O O5 0.250000 0.500000 0.029443
O O6 0.225016 0.750381 0.101255
O O7 0.387537 0.686375 0.004700
O O8 0.000000 0.250000 0.610736
#
# Coordination Sequence:
#
# PCOD9510456 Si02
#       3
#    16  16  16
#     4  11  26  48  66 100 148 187 230 293 359 432
#     4  11  24  43  72 108 131 184 243 289 357 422
#     4  11  24  44  74  99 140 182 237 301 348 417
#
# _framework density 23.444569999999999
#
# number of rings (size 3 to 8) (size 9 to 14) (size 15 to 20)
#    0.000    1.000    3.333    2.000    9.333    0.667 
#   12.000    0.000    0.000    0.000    0.000    0.000 
#    0.000    0.000    0.000    0.000    0.000    0.000 
#
# Total GULP energy -133776.843726 kJ/mol
# GULP energy per Si atom -5574.035155 kJ/mol
# Density = 2.339121 g / cm^3
# Si number density = 23.444570 Si / 1000 Ang^3
#
#
#
# Elastic Constant Matrix: (Units=GPa)
#
#
# Indices 1 2 3 4 5 6 
#
# 1 134.7253 68.6021 61.6687 0.0000 0.0000 0.0000
# 2 68.6021 111.9539 29.7333 0.0000 0.0000 0.0000
# 3 61.6687 29.7333 112.8334 0.0000 0.0000 0.0000
# 4 0.0000 0.0000 0.0000 24.6914 0.0000 0.0000
# 5 0.0000 0.0000 0.0000 0.0000 4.8070 0.0000
# 6 0.0000 0.0000 0.0000 0.0000 0.0000 51.3816
#
#
#
# Elastic Compliance Matrix: (Units=1/GPa)
#
#
# Indices 1 2 3 4 5 6 
#
# 1 0.013387 -0.006731 -0.005543 0.000000 0.000000 0.000000
# 2 -0.006731 0.012989 0.000256 0.000000 0.000000 0.000000
# 3 -0.005543 0.000256 0.011825 0.000000 0.000000 0.000000
# 4 0.000000 0.000000 0.000000 0.040500 0.000000 0.000000
# 5 0.000000 0.000000 0.000000 0.000000 0.208031 0.000000
# 6 0.000000 0.000000 0.000000 0.000000 0.000000 0.019462
#
#
# Mechanical properties :
#
#
# Convention : Reuss Voigt Hill
#
# Bulk Modulus (GPa) = 70.59801 75.50230 73.05016
# Shear Modulus (GPa) = 14.92752 29.47655 22.20203
#
# Velocity S-wave (km/s) = 2.52606 3.54967 3.08068
# Velocity P-wave (km/s) = 6.21981 7.00534 6.62423
#
# Compressibility (1/GPa) = 0.01416470
#
# Stress axis : x y z
#
# Youngs Moduli (GPa) = 74.69789 76.98880 84.56921
#
# Poissons Ratio (x) = 0.51823 0.46877
# Poissons Ratio (y) = 0.50281 -0.02166
# Poissons Ratio (z) = 0.41405 -0.01972
#
# Static dielectric constant tensor:
#      x y z
#    x 2.047360 0.000000 0.000000 
#    y 0.000000 2.114530 0.000000 
#    z 0.000000 0.000000 1.809950 
# 
# From -- ./inp_files/27403.got.cif
#   From: 2010.05.17/outbox.cif.g08.bks.cpg/sg68_14_cif.got.tgz:27403.got - 2010.06.03 18:57:09.
