data_PCOD9510935
_publ_section_title
;
Structure prediction by ZEFSAII (Michael W. Deem and Ramdas Pophale) SiO2 
 PCOD9510935
Probable space group: C C C A
;
_chemical_formula_sum "Si O2"
_cell_formula_units_Z 44
_cell_length_a 12.000000
_cell_length_b 21.000000
_cell_length_c 18.000000
_cell_angle_alpha 90.000000
_cell_angle_beta 90.000000
_cell_angle_gamma 90.000000
_cell_volume 4536.000000
_symmetry_space_group_name_H-M "C C C A"
_symmetry_group_IT_number 68
_space_group.IT_coordinate_system_code '2'
_symmetry_cell_setting 'orthorhombic'
loop_
_space_group_symop_operation_xyz
x,y,z
-x,1/2-y,z
x,1/2-y,1/2-z
-x,y,1/2-z
-x,-y,-z
x,1/2+y,-z
-x,1/2+y,1/2+z
x,-y,1/2+z
1/2+x,1/2+y,z
1/2-x,-y,z
1/2+x,-y,1/2-z
1/2-x,1/2+y,1/2-z
1/2-x,1/2-y,-z
1/2+x,y,-z
1/2-x,y,1/2+z
1/2+x,1/2-y,1/2+z
loop_
_atom_site_type_symbol
_atom_site_label
_atom_site_fract_x
_atom_site_fract_y
_atom_site_fract_z
Si Si1 0.710341 0.656424 0.365987
Si Si2 0.441799 0.187595 0.430198
Si Si3 0.750000 0.000000 0.382987
Si Si4 0.116074 0.900145 0.715232
Si Si5 0.155945 0.798600 0.593037
Si Si6 0.149575 0.386023 0.971282
O O1 0.841452 0.663217 0.380722
O O2 0.683859 0.626268 0.286446
O O3 0.666771 0.728902 0.372599
O O4 0.664161 0.620213 0.439743
O O5 0.500000 0.250000 0.397009
O O6 0.400291 0.207438 0.512571
O O7 0.526861 0.131550 0.446426
O O8 0.824472 0.043826 0.329605
O O9 0.683423 0.046905 0.437309
O O10 0.099275 0.844265 0.653817
O O11 0.000000 0.921245 0.750000
O O12 0.271501 0.833144 0.569244
#
# Coordination Sequence:
#
# PCOD9510935 Si02
#       6
#    16  16   8  16  16  16
#     4  11  21  36  63  99 124 156 208 257 311 388
#     4  11  18  34  66  96 124 155 201 259 319 362
#     4  10  26  46  58  80 126 170 216 262 302 372
#     4  11  25  41  61  85 125 169 204 249 316 375
#     4  10  20  36  59  95 130 152 193 253 319 387
#     4  10  20  39  62  87 122 161 205 262 310 360
#
# _framework density 9.7001760000000008
#
# number of rings (size 3 to 8) (size 9 to 14) (size 15 to 20)
#    0.000    1.455    3.636    2.727    0.000    2.909 
#    0.000   15.455    0.000    0.000    0.000    0.000 
#    0.000    0.000    0.000    0.000    0.000    0.000 
#
# Total GULP energy -245680.049902 kJ/mol
# GULP energy per Si atom -5583.637498 kJ/mol
# Density = 0.967810 g / cm^3
# Si number density = 9.700176 Si / 1000 Ang^3
#
#
#
# Elastic Constant Matrix: (Units=GPa)
#
#
# Indices 1 2 3 4 5 6 
#
# 1 51.6481 17.1931 -23.0418 0.0000 0.0000 0.0000
# 2 17.1931 95.7465 15.6210 0.0000 0.0000 0.0000
# 3 -23.0418 15.6210 42.8795 0.0000 0.0000 0.0000
# 4 0.0000 0.0000 0.0000 -1.1598 0.0000 0.0000
# 5 0.0000 0.0000 0.0000 0.0000 8.1905 0.0000
# 6 0.0000 0.0000 0.0000 0.0000 0.0000 16.7713
#
#
#
# Elastic Compliance Matrix: (Units=1/GPa)
#
#
# Indices 1 2 3 4 5 6 
#
# 1 0.031254 -0.008880 0.020029 0.000000 0.000000 0.000000
# 2 -0.008880 0.013627 -0.009736 0.000000 0.000000 0.000000
# 3 0.020029 -0.009736 0.037631 0.000000 0.000000 0.000000
# 4 0.000000 0.000000 0.000000 -0.862199 0.000000 0.000000
# 5 0.000000 0.000000 0.000000 0.000000 0.122093 0.000000
# 6 0.000000 0.000000 0.000000 0.000000 0.000000 0.059626
#
#
# Mechanical properties :
#
#
# Convention : Reuss Voigt Hill
#
# Bulk Modulus (GPa) = 11.71803 23.31317 17.51560
# Shear Modulus (GPa) = -8.73594 16.79384 4.02895
#
# Velocity S-wave (km/s) = -2.12432 2.94538 1.44265
# Velocity P-wave (km/s) = 0.19030 4.85901 3.43847
#
# Compressibility (1/GPa) = 0.08533860
#
# Stress axis : x y z
#
# Youngs Moduli (GPa) = 31.99633 73.38231 26.57378
#
# Poissons Ratio (x) = 0.65163 -0.53226
# Poissons Ratio (y) = 0.28413 0.25873
# Poissons Ratio (z) = -0.64087 0.71446
#
# Static dielectric constant tensor:
#      x y z
#    x 1.776110 0.000000 0.000000 
#    y 0.000000 1.684730 0.000000 
#    z 0.000000 0.000000 1.617410 
# 
# From -- ./inp_files/29628.got.cif
#   From: 2010.05.17/outbox.ucp.g08.bks.cvg/sg68_15_cif.got.tgz:29628.got - 2010.06.11 16:49:25.
