data_PCOD9510141
_publ_section_title
;
Structure prediction by ZEFSAII (Michael W. Deem and Ramdas Pophale) SiO2 
 PCOD9510141
Probable space group: C C C A
;
_chemical_formula_sum "Si O2"
_cell_formula_units_Z 60
_cell_length_a 15.882196
_cell_length_b 13.397519
_cell_length_c 11.791960
_cell_angle_alpha 90.000000
_cell_angle_beta 90.000000
_cell_angle_gamma 90.000000
_cell_volume 2509.117100
_symmetry_space_group_name_H-M "C C C A"
_symmetry_group_IT_number 68
_space_group.IT_coordinate_system_code '2'
_symmetry_cell_setting 'orthorhombic'
loop_
_space_group_symop_operation_xyz
x,y,z
-x,1/2-y,z
x,1/2-y,1/2-z
-x,y,1/2-z
-x,-y,-z
x,1/2+y,-z
-x,1/2+y,1/2+z
x,-y,1/2+z
1/2+x,1/2+y,z
1/2-x,-y,z
1/2+x,-y,1/2-z
1/2-x,1/2+y,1/2-z
1/2-x,1/2-y,-z
1/2+x,y,-z
1/2-x,y,1/2+z
1/2+x,1/2-y,1/2+z
loop_
_atom_site_type_symbol
_atom_site_label
_atom_site_fract_x
_atom_site_fract_y
_atom_site_fract_z
Si Si1 0.500000 0.750000 0.750000
Si Si2 0.500000 0.250000 0.921622
Si Si3 0.338438 0.444211 0.633892
Si Si4 0.000000 0.431655 0.250000
Si Si5 0.770264 0.750000 0.750000
Si Si6 0.630044 0.670878 0.582008
O O1 0.558359 0.677054 0.676614
O O2 0.510996 0.147985 0.852366
O O3 0.414602 0.246829 0.994731
O O4 0.250000 0.500000 0.645820
O O5 0.417372 0.488629 0.703308
O O6 0.323797 0.338595 0.696802
O O7 0.355837 0.424141 0.499943
O O8 0.712692 0.707174 0.647415
#
# Coordination Sequence:
#
# PCOD9510141 Si02
#       6
#     4   8  16   8   8  16
#     4   8  16  34  66  96 122 164 216 266 330 392
#     4   8  14  32  64  92 120 168 218 270 328 388
#     4  11  23  39  64  97 133 176 224 274 326 388
#     4   9  18  36  59  89 129 168 218 273 329 387
#     4  11  22  38  62  93 134 176 218 270 326 386
#     4   9  18  35  61  93 125 163 214 269 329 391
#
# _framework density 23.912794999999999
#
# number of rings (size 3 to 8) (size 9 to 14) (size 15 to 20)
#    0.000    2.400    0.000    4.000    0.000    1.067 
#    0.000    8.000    0.000   20.800    0.000   26.133 
#    0.000    0.000    0.000    0.000    0.000    0.000 
#
# Total GULP energy -167291.720214 kJ/mol
# GULP energy per Si atom -5576.390674 kJ/mol
# Density = 2.385837 g / cm^3
# Si number density = 23.912795 Si / 1000 Ang^3
#
#
#
# Elastic Constant Matrix: (Units=GPa)
#
#
# Indices 1 2 3 4 5 6 
#
# 1 165.0648 33.9603 74.8129 0.0000 0.0000 0.0000
# 2 33.9603 63.5143 39.6437 0.0000 0.0000 0.0000
# 3 74.8129 39.6437 139.7524 0.0000 0.0000 0.0000
# 4 0.0000 0.0000 0.0000 -1.6625 0.0000 0.0000
# 5 0.0000 0.0000 0.0000 0.0000 76.3644 0.0000
# 6 0.0000 0.0000 0.0000 0.0000 0.0000 26.8957
#
#
#
# Elastic Compliance Matrix: (Units=1/GPa)
#
#
# Indices 1 2 3 4 5 6 
#
# 1 0.008203 -0.001999 -0.003824 0.000000 0.000000 0.000000
# 2 -0.001999 0.019619 -0.004495 0.000000 0.000000 0.000000
# 3 -0.003824 -0.004495 0.010478 0.000000 0.000000 0.000000
# 4 0.000000 0.000000 0.000000 -0.601516 0.000000 0.000000
# 5 0.000000 0.000000 0.000000 0.000000 0.013095 0.000000
# 6 0.000000 0.000000 0.000000 0.000000 0.000000 0.037181
#
#
# Mechanical properties :
#
#
# Convention : Reuss Voigt Hill
#
# Bulk Modulus (GPa) = 56.61559 73.90725 65.26142
# Shear Modulus (GPa) = -10.27926 34.98051 12.35062
#
# Velocity S-wave (km/s) = -2.07557 3.82885 2.27510
# Velocity P-wave (km/s) = 4.24067 7.10781 5.85253
#
# Compressibility (1/GPa) = 0.01766298
#
# Stress axis : x y z
#
# Youngs Moduli (GPa) = 121.91133 50.97067 95.44005
#
# Poissons Ratio (x) = 0.10189 0.36497
# Poissons Ratio (y) = 0.24370 0.42903
# Poissons Ratio (z) = 0.46619 0.22913
#
# Static dielectric constant tensor:
#      x y z
#    x 1.984460 0.000000 0.000000 
#    y 0.000000 2.121560 0.000000 
#    z 0.000000 0.000000 1.956780 
# 
# From -- ./inp_files/12764.got.cif
#   From: 2010.05.17/outbox.cif.g08.bks.cpg/sg68_7_cif.got.tgz:12764.got - 2010.06.03 18:57:09.
