data_PCOD9510121
_publ_section_title
;
Structure prediction by ZEFSAII (Michael W. Deem and Ramdas Pophale) SiO2 
 PCOD9510121
Probable space group: C C C A
;
_chemical_formula_sum "Si O2"
_cell_formula_units_Z 80
_cell_length_a 16.154461
_cell_length_b 27.497389
_cell_length_c 8.854717
_cell_angle_alpha 90.000000
_cell_angle_beta 90.000000
_cell_angle_gamma 90.000000
_cell_volume 3933.313976
_symmetry_space_group_name_H-M "C C C A"
_symmetry_group_IT_number 68
_space_group.IT_coordinate_system_code '2'
_symmetry_cell_setting 'orthorhombic'
loop_
_space_group_symop_operation_xyz
x,y,z
-x,1/2-y,z
x,1/2-y,1/2-z
-x,y,1/2-z
-x,-y,-z
x,1/2+y,-z
-x,1/2+y,1/2+z
x,-y,1/2+z
1/2+x,1/2+y,z
1/2-x,-y,z
1/2+x,-y,1/2-z
1/2-x,1/2+y,1/2-z
1/2-x,1/2-y,-z
1/2+x,y,-z
1/2-x,y,1/2+z
1/2+x,1/2-y,1/2+z
loop_
_atom_site_type_symbol
_atom_site_label
_atom_site_fract_x
_atom_site_fract_y
_atom_site_fract_z
Si Si1 0.903940 0.800012 0.192771
Si Si2 0.457706 0.159387 0.600780
Si Si3 0.575867 0.607847 0.641289
Si Si4 0.341579 0.518562 0.021325
Si Si5 0.090699 0.057104 0.178356
O O1 0.864849 0.750000 0.250000
O O2 0.874088 0.850454 0.267221
O O3 0.000000 0.799104 0.250000
O O4 0.910846 0.804915 0.012903
O O5 0.500000 0.180700 0.750000
O O6 0.530462 0.133685 0.501120
O O7 0.399597 0.114252 0.647929
O O8 0.500000 0.591586 0.750000
O O9 0.630139 0.563694 0.582237
O O10 0.250000 0.500000 0.991979
O O11 0.350148 0.535427 0.193744
O O12 0.400040 0.473584 0.974005
O O13 0.000000 0.051312 0.250000
#
# Coordination Sequence:
#
# PCOD9510121 Si02
#       5
#    16  16  16  16  16
#     4   8  16  30  52  84 119 147 191 242 297 342
#     4   9  16  31  54  79 109 152 202 232 287 346
#     4   9  18  33  55  79 114 158 195 236 290 352
#     4  12  24  36  51  82 119 152 198 251 295 343
#     4  11  22  36  56  77 111 159 202 232 290 360
#
# _framework density 20.339082999999999
#
# number of rings (size 3 to 8) (size 9 to 14) (size 15 to 20)
#    0.000    2.600    4.000    1.800    5.600    0.000 
#    0.000    8.000    0.000    0.000    0.000    1.400 
#    0.000    0.000    0.000    0.000    0.000    0.400 
#
# Total GULP energy -223081.732067 kJ/mol
# GULP energy per Si atom -5577.043302 kJ/mol
# Density = 2.029279 g / cm^3
# Si number density = 20.339083 Si / 1000 Ang^3
#
#
#
# Elastic Constant Matrix: (Units=GPa)
#
#
# Indices 1 2 3 4 5 6 
#
# 1 38.7037 17.4814 14.5719 0.0000 0.0000 0.0000
# 2 17.4814 99.0893 46.7312 0.0000 0.0000 0.0000
# 3 14.5719 46.7312 138.1768 0.0000 0.0000 0.0000
# 4 0.0000 0.0000 0.0000 33.9336 0.0000 0.0000
# 5 0.0000 0.0000 0.0000 0.0000 15.9502 0.0000
# 6 0.0000 0.0000 0.0000 0.0000 0.0000 -7.0100
#
#
#
# Elastic Compliance Matrix: (Units=1/GPa)
#
#
# Indices 1 2 3 4 5 6 
#
# 1 0.028349 -0.004273 -0.001545 0.000000 0.000000 0.000000
# 2 -0.004273 0.012651 -0.003828 0.000000 0.000000 0.000000
# 3 -0.001545 -0.003828 0.008695 0.000000 0.000000 0.000000
# 4 0.000000 0.000000 0.000000 0.029469 0.000000 0.000000
# 5 0.000000 0.000000 0.000000 0.000000 0.062695 0.000000
# 6 0.000000 0.000000 0.000000 0.000000 0.000000 -0.142654
#
#
# Mechanical properties :
#
#
# Convention : Reuss Voigt Hill
#
# Bulk Modulus (GPa) = 32.89078 48.17096 40.53087
# Shear Modulus (GPa) = 174.64032 21.72044 98.18038
#
# Velocity S-wave (km/s) = 9.27636 3.27144 6.95533
# Velocity P-wave (km/s) = 11.44293 6.16483 9.19092
#
# Compressibility (1/GPa) = 0.03040366
#
# Stress axis : x y z
#
# Youngs Moduli (GPa) = 35.27489 79.04501 115.01401
#
# Poissons Ratio (x) = 0.33775 0.17764
# Poissons Ratio (y) = 0.15073 0.44027
# Poissons Ratio (z) = 0.05448 0.30258
#
# Static dielectric constant tensor:
#      x y z
#    x 1.725830 0.000000 0.000000 
#    y 0.000000 1.810240 0.000000 
#    z 0.000000 0.000000 1.791070 
# 
# From -- ./inp_files/6357.got.cif
#   From: 2010.05.17/outbox.cif.g08.bks.cpg/sg68_4_cif.got.tgz:6357.got - 2010.06.03 18:57:09.
