data_PCOD9510020
_publ_section_title
;
Structure prediction by ZEFSAII (Michael W. Deem and Ramdas Pophale) SiO2 
 PCOD9510020
Probable space group: C C C A
;
_chemical_formula_sum "Si O2"
_cell_formula_units_Z 80
_cell_length_a 8.253264
_cell_length_b 15.435678
_cell_length_c 29.322693
_cell_angle_alpha 90.000000
_cell_angle_beta 90.000000
_cell_angle_gamma 90.000000
_cell_volume 3735.556427
_symmetry_space_group_name_H-M "C C C A"
_symmetry_group_IT_number 68
_space_group.IT_coordinate_system_code '2'
_symmetry_cell_setting 'orthorhombic'
loop_
_space_group_symop_operation_xyz
x,y,z
-x,1/2-y,z
x,1/2-y,1/2-z
-x,y,1/2-z
-x,-y,-z
x,1/2+y,-z
-x,1/2+y,1/2+z
x,-y,1/2+z
1/2+x,1/2+y,z
1/2-x,-y,z
1/2+x,-y,1/2-z
1/2-x,1/2+y,1/2-z
1/2-x,1/2-y,-z
1/2+x,y,-z
1/2-x,y,1/2+z
1/2+x,1/2-y,1/2+z
loop_
_atom_site_type_symbol
_atom_site_label
_atom_site_fract_x
_atom_site_fract_y
_atom_site_fract_z
Si Si1 0.503768 0.143764 0.303126
Si Si2 0.189984 0.652694 0.642429
Si Si3 0.822868 0.857400 0.853975
Si Si4 0.312038 0.404930 0.958088
Si Si5 0.370652 0.669887 0.039849
O O1 0.500000 0.250000 0.306388
O O2 0.500000 0.121292 0.250000
O O3 0.342833 0.114892 0.330582
O O4 0.672164 0.109520 0.324398
O O5 0.174241 0.754260 0.655166
O O6 0.219919 0.657458 0.587759
O O7 0.010579 0.612766 0.651566
O O8 0.777580 0.873733 0.906716
O O9 0.250000 0.500000 0.964850
O O10 0.503865 0.408551 0.963462
O O11 0.236588 0.339716 0.995142
O O12 0.500000 0.750000 0.043885
#
# Coordination Sequence:
#
# PCOD9510020 Si02
#       5
#    16  16  16  16  16
#     4   9  18  30  52  85 110 139 187 243 298 339
#     4   9  17  33  51  77 113 146 191 231 283 347
#     4   9  18  33  52  75 112 150 187 232 289 342
#     4  11  23  36  53  84 118 154 194 244 292 341
#     4  11  21  36  56  81 113 159 202 232 289 347
#
# _framework density 21.41582
#
# number of rings (size 3 to 8) (size 9 to 14) (size 15 to 20)
#    0.000    2.200    4.000    1.200    2.800    1.600 
#    0.000    4.000    0.000    0.000   10.400    0.000 
#    0.000    0.000    0.000    0.000    0.000    0.000 
#
# Total GULP energy -222899.247465 kJ/mol
# GULP energy per Si atom -5572.481187 kJ/mol
# Density = 2.136708 g / cm^3
# Si number density = 21.415820 Si / 1000 Ang^3
#
#
#
# Elastic Constant Matrix: (Units=GPa)
#
#
# Indices 1 2 3 4 5 6 
#
# 1 142.8760 17.4681 127.3112 0.0000 0.0000 0.0000
# 2 17.4681 38.4290 -1.3906 0.0000 0.0000 0.0000
# 3 127.3112 -1.3906 171.6069 0.0000 0.0000 0.0000
# 4 0.0000 0.0000 0.0000 180.9732 0.0000 0.0000
# 5 0.0000 0.0000 0.0000 0.0000 41.9724 0.0000
# 6 0.0000 0.0000 0.0000 0.0000 0.0000 14.8100
#
#
#
# Elastic Compliance Matrix: (Units=1/GPa)
#
#
# Indices 1 2 3 4 5 6 
#
# 1 0.025305 -0.012185 -0.018872 0.000000 0.000000 0.000000
# 2 -0.012185 0.031897 0.009298 0.000000 0.000000 0.000000
# 3 -0.018872 0.009298 0.019903 0.000000 0.000000 0.000000
# 4 0.000000 0.000000 0.000000 0.005526 0.000000 0.000000
# 5 0.000000 0.000000 0.000000 0.000000 0.023825 0.000000
# 6 0.000000 0.000000 0.000000 0.000000 0.000000 0.067522
#
#
# Mechanical properties :
#
#
# Convention : Reuss Voigt Hill
#
# Bulk Modulus (GPa) = 29.77246 71.07657 50.42451
# Shear Modulus (GPa) = 21.86356 61.51935 41.69146
#
# Velocity S-wave (km/s) = 3.19863 5.36549 4.41700
# Velocity P-wave (km/s) = 5.25109 8.46437 7.04342
#
# Compressibility (1/GPa) = 0.03358809
#
# Stress axis : x y z
#
# Youngs Moduli (GPa) = 39.51834 31.35057 50.24338
#
# Poissons Ratio (x) = 0.38202 0.94818
# Poissons Ratio (y) = 0.48154 -0.46719
# Poissons Ratio (z) = 0.74578 -0.29151
#
# Static dielectric constant tensor:
#      x y z
#    x 1.829340 0.000000 0.000000 
#    y 0.000000 1.888330 0.000000 
#    z 0.000000 0.000000 1.772880 
# 
# From -- ./inp_files/53981.got.cif
#   From: 2010.05.17/outbox.cif.g08.bks.cpg/sg68_27_cif.got.tgz:53981.got - 2010.06.03 18:57:09.
