data_PCOD9510122
_publ_section_title
;
Structure prediction by ZEFSAII (Michael W. Deem and Ramdas Pophale) SiO2 
 PCOD9510122
Probable space group: C C C A
;
_chemical_formula_sum "Si O2"
_cell_formula_units_Z 88
_cell_length_a 12.359458
_cell_length_b 25.567437
_cell_length_c 13.896009
_cell_angle_alpha 90.000000
_cell_angle_beta 90.000000
_cell_angle_gamma 90.000000
_cell_volume 4391.134172
_symmetry_space_group_name_H-M "C C C A"
_symmetry_group_IT_number 68
_space_group.IT_coordinate_system_code '2'
_symmetry_cell_setting 'orthorhombic'
loop_
_space_group_symop_operation_xyz
x,y,z
-x,1/2-y,z
x,1/2-y,1/2-z
-x,y,1/2-z
-x,-y,-z
x,1/2+y,-z
-x,1/2+y,1/2+z
x,-y,1/2+z
1/2+x,1/2+y,z
1/2-x,-y,z
1/2+x,-y,1/2-z
1/2-x,1/2+y,1/2-z
1/2-x,1/2-y,-z
1/2+x,y,-z
1/2-x,y,1/2+z
1/2+x,1/2-y,1/2+z
loop_
_atom_site_type_symbol
_atom_site_label
_atom_site_fract_x
_atom_site_fract_y
_atom_site_fract_z
Si Si1 0.873365 0.692689 0.778385
Si Si2 0.578749 0.421815 0.338916
Si Si3 0.682216 0.100325 0.861528
Si Si4 0.280401 0.625915 0.067390
Si Si5 0.475386 0.558861 0.032489
Si Si6 0.250000 0.000000 0.262249
O O1 0.831387 0.750000 0.750000
O O2 0.824829 0.647356 0.712455
O O3 0.846266 0.674716 0.887816
O O4 0.000000 0.692562 0.750000
O O5 0.500000 0.413308 0.250000
O O6 0.675985 0.383021 0.365986
O O7 0.499347 0.415074 0.429770
O O8 0.645017 0.477168 0.321422
O O9 0.729924 0.049415 0.808456
O O10 0.740828 0.122175 0.957262
O O11 0.564493 0.080240 0.894545
O O12 0.360203 0.575934 0.072634
O O13 0.500000 0.500000 0.000000
#
# Coordination Sequence:
#
# PCOD9510122 Si02
#       6
#    16  16  16  16  16   8
#     4  11  24  45  71  95 125 177 239 286 335 405
#     4  11  23  36  60  94 132 173 221 265 323 408
#     4  11  23  39  63  96 132 172 222 271 338 410
#     4  11  23  42  64  92 133 174 217 282 346 392
#     4  11  22  36  56  92 134 173 215 262 323 407
#     4  12  22  38  64  98 136 186 212 264 340 410
#
# _framework density 20.040379999999999
#
# number of rings (size 3 to 8) (size 9 to 14) (size 15 to 20)
#    0.000    0.909    3.636    4.364    0.000    4.364 
#    0.000    0.000    0.000    0.545    0.000    0.000 
#    0.000    0.000    0.000    0.000    0.000    0.000 
#
# Total GULP energy -245177.301112 kJ/mol
# GULP energy per Si atom -5572.211389 kJ/mol
# Density = 1.999477 g / cm^3
# Si number density = 20.040380 Si / 1000 Ang^3
#
#
#
# Elastic Constant Matrix: (Units=GPa)
#
#
# Indices 1 2 3 4 5 6 
#
# 1 72.6996 6.0153 14.5723 0.0000 0.0000 0.0000
# 2 6.0153 113.6869 29.3241 0.0000 0.0000 0.0000
# 3 14.5723 29.3241 51.7978 0.0000 0.0000 0.0000
# 4 0.0000 0.0000 0.0000 21.4636 0.0000 0.0000
# 5 0.0000 0.0000 0.0000 0.0000 35.9145 0.0000
# 6 0.0000 0.0000 0.0000 0.0000 0.0000 17.3560
#
#
#
# Elastic Compliance Matrix: (Units=1/GPa)
#
#
# Indices 1 2 3 4 5 6 
#
# 1 0.014588 0.000336 -0.004294 0.000000 0.000000 0.000000
# 2 0.000336 0.010308 -0.005930 0.000000 0.000000 0.000000
# 3 -0.004294 -0.005930 0.023871 0.000000 0.000000 0.000000
# 4 0.000000 0.000000 0.000000 0.046591 0.000000 0.000000
# 5 0.000000 0.000000 0.000000 0.000000 0.027844 0.000000
# 6 0.000000 0.000000 0.000000 0.000000 0.000000 0.057617
#
#
# Mechanical properties :
#
#
# Convention : Reuss Voigt Hill
#
# Bulk Modulus (GPa) = 34.49435 37.55639 36.02537
# Shear Modulus (GPa) = 23.78021 27.49834 25.63927
#
# Velocity S-wave (km/s) = 3.44846 3.70827 3.58072
# Velocity P-wave (km/s) = 5.75375 6.09229 5.92544
#
# Compressibility (1/GPa) = 0.02899026
#
# Stress axis : x y z
#
# Youngs Moduli (GPa) = 68.54857 97.01299 41.89177
#
# Poissons Ratio (x) = -0.03257 0.17989
# Poissons Ratio (y) = -0.02302 0.24842
# Poissons Ratio (z) = 0.29436 0.57529
#
# Static dielectric constant tensor:
#      x y z
#    x 2.005780 0.000000 0.000000 
#    y 0.000000 1.675660 0.000000 
#    z 0.000000 0.000000 1.770860 
# 
# From -- ./inp_files/20964.got.cif
#   From: 2010.05.17/outbox.cif.g08.bks.cpg/sg68_11_cif.got.tgz:20964.got - 2010.06.03 18:57:09.
