data_PCOD9510234
_publ_section_title
;
Structure prediction by ZEFSAII (Michael W. Deem and Ramdas Pophale) SiO2 
 PCOD9510234
Probable space group: C C C A
;
_chemical_formula_sum "Si O2"
_cell_formula_units_Z 48
_cell_length_a 12.624959
_cell_length_b 11.879029
_cell_length_c 13.960227
_cell_angle_alpha 90.000000
_cell_angle_beta 90.000000
_cell_angle_gamma 90.000000
_cell_volume 2093.646711
_symmetry_space_group_name_H-M "C C C A"
_symmetry_group_IT_number 68
_space_group.IT_coordinate_system_code '2'
_symmetry_cell_setting 'orthorhombic'
loop_
_space_group_symop_operation_xyz
x,y,z
-x,1/2-y,z
x,1/2-y,1/2-z
-x,y,1/2-z
-x,-y,-z
x,1/2+y,-z
-x,1/2+y,1/2+z
x,-y,1/2+z
1/2+x,1/2+y,z
1/2-x,-y,z
1/2+x,-y,1/2-z
1/2-x,1/2+y,1/2-z
1/2-x,1/2-y,-z
1/2+x,y,-z
1/2-x,y,1/2+z
1/2+x,1/2-y,1/2+z
loop_
_atom_site_type_symbol
_atom_site_label
_atom_site_fract_x
_atom_site_fract_y
_atom_site_fract_z
Si Si1 0.658301 0.633350 0.789057
Si Si2 0.611852 0.401610 0.710133
Si Si3 0.307742 0.874882 0.002662
O O1 0.619260 0.750000 0.750000
O O2 0.616821 0.536120 0.720888
O O3 0.786901 0.632726 0.775097
O O4 0.634304 0.616782 0.900363
O O5 0.500000 0.365166 0.750000
O O6 0.627323 0.368679 0.600694
O O7 0.250000 0.000000 0.009273
O O8 0.250000 0.750000 0.000000
#
# Coordination Sequence:
#
# PCOD9510234 Si02
#       3
#    16  16  16
#     4  11  22  44  69  97 148 198 237 304 371 427
#     4  11  24  41  69 104 140 186 251 295 357 435
#     4  12  22  43  72 101 142 196 240 298 374 435
#
# _framework density 22.926504000000001
#
# number of rings (size 3 to 8) (size 9 to 14) (size 15 to 20)
#    0.000    0.667   10.000    0.000    0.000    2.667 
#    0.000    0.000    0.000    0.000    0.000    0.000 
#    0.000    0.000    0.000    0.000    0.000    0.000 
#
# Total GULP energy -133936.988051 kJ/mol
# GULP energy per Si atom -5580.707835 kJ/mol
# Density = 2.287432 g / cm^3
# Si number density = 22.926504 Si / 1000 Ang^3
#
#
#
# Elastic Constant Matrix: (Units=GPa)
#
#
# Indices 1 2 3 4 5 6 
#
# 1 107.1139 32.2302 53.9992 0.0000 0.0000 0.0000
# 2 32.2302 203.2892 43.5205 0.0000 0.0000 0.0000
# 3 53.9992 43.5205 241.0300 0.0000 0.0000 0.0000
# 4 0.0000 0.0000 0.0000 39.0003 0.0000 0.0000
# 5 0.0000 0.0000 0.0000 0.0000 -3.0313 0.0000
# 6 0.0000 0.0000 0.0000 0.0000 0.0000 -28.1919
#
#
#
# Elastic Compliance Matrix: (Units=1/GPa)
#
#
# Indices 1 2 3 4 5 6 
#
# 1 0.010819 -0.001244 -0.002199 0.000000 0.000000 0.000000
# 2 -0.001244 0.005260 -0.000671 0.000000 0.000000 0.000000
# 3 -0.002199 -0.000671 0.004763 0.000000 0.000000 0.000000
# 4 0.000000 0.000000 0.000000 0.025641 0.000000 0.000000
# 5 0.000000 0.000000 0.000000 0.000000 -0.329892 0.000000
# 6 0.000000 0.000000 0.000000 0.000000 0.000000 -0.035471
#
#
# Mechanical properties :
#
#
# Convention : Reuss Voigt Hill
#
# Bulk Modulus (GPa) = 79.28590 90.10364 84.69477
# Shear Modulus (GPa) = -16.31602 29.66764 6.67581
#
# Velocity S-wave (km/s) = -2.67060 3.60117 1.70826
# Velocity P-wave (km/s) = 5.01480 7.52845 6.39632
#
# Compressibility (1/GPa) = 0.01261258
#
# Stress axis : x y z
#
# Youngs Moduli (GPa) = 92.43036 190.11251 209.96549
#
# Poissons Ratio (x) = 0.23659 0.46174
# Poissons Ratio (y) = 0.11503 0.14088
# Poissons Ratio (z) = 0.20327 0.12756
#
# Static dielectric constant tensor:
#      x y z
#    x 1.925530 0.000000 0.000000 
#    y 0.000000 2.079440 0.000000 
#    z 0.000000 0.000000 1.769820 
# 
# From -- ./inp_files/21455.got.cif
#   From: 2010.05.17/outbox.cif.g08.bks.cpg/sg68_11_cif.got.tgz:21455.got - 2010.06.03 18:57:09.
