data_PCOD9510197
_publ_section_title
;
Structure prediction by ZEFSAII (Michael W. Deem and Ramdas Pophale) SiO2 
 PCOD9510197
Probable space group: C C C A
;
_chemical_formula_sum "Si O2"
_cell_formula_units_Z 80
_cell_length_a 13.385079
_cell_length_b 11.499161
_cell_length_c 22.887643
_cell_angle_alpha 90.000000
_cell_angle_beta 90.000000
_cell_angle_gamma 90.000000
_cell_volume 3522.801431
_symmetry_space_group_name_H-M "C C C A"
_symmetry_group_IT_number 68
_space_group.IT_coordinate_system_code '2'
_symmetry_cell_setting 'orthorhombic'
loop_
_space_group_symop_operation_xyz
x,y,z
-x,1/2-y,z
x,1/2-y,1/2-z
-x,y,1/2-z
-x,-y,-z
x,1/2+y,-z
-x,1/2+y,1/2+z
x,-y,1/2+z
1/2+x,1/2+y,z
1/2-x,-y,z
1/2+x,-y,1/2-z
1/2-x,1/2+y,1/2-z
1/2-x,1/2-y,-z
1/2+x,y,-z
1/2-x,y,1/2+z
1/2+x,1/2-y,1/2+z
loop_
_atom_site_type_symbol
_atom_site_label
_atom_site_fract_x
_atom_site_fract_y
_atom_site_fract_z
Si Si1 0.545063 0.474982 0.936634
Si Si2 0.646596 0.962104 0.356574
Si Si3 0.107042 0.991296 0.768959
Si Si4 0.601938 0.322512 0.368835
Si Si5 0.828429 0.698645 0.861205
O O1 0.450190 0.491261 0.893927
O O2 0.613108 0.583893 0.920628
O O3 0.608539 0.361436 0.914901
O O4 0.500000 0.500000 0.000000
O O5 0.650180 0.024443 0.293796
O O6 0.630383 0.824789 0.345651
O O7 0.750000 0.000000 0.386989
O O8 0.162847 0.895854 0.808784
O O9 0.000000 0.941684 0.750000
O O10 0.093752 0.104564 0.808779
O O11 0.500000 0.250000 0.376168
O O12 0.711949 0.268801 0.370124
#
# Coordination Sequence:
#
# PCOD9510197 Si02
#       5
#    16  16  16  16  16
#     4  11  25  46  68  95 132 178 235 290 348 417
#     4  12  24  42  66 103 135 175 231 285 343 420
#     4  11  22  41  68  99 140 176 228 275 346 420
#     4  11  24  46  67 100 140 183 224 283 354 424
#     4  11  24  43  72  96 138 183 224 285 354 413
#
# _framework density 22.709199999999999
#
# number of rings (size 3 to 8) (size 9 to 14) (size 15 to 20)
#    0.000    0.800    4.000    6.000    0.000    4.400 
#    0.000    3.000    0.000    0.000    0.000    0.000 
#    0.000    0.000    0.000    0.000    0.000    0.000 
#
# Total GULP energy -223063.494677 kJ/mol
# GULP energy per Si atom -5576.587367 kJ/mol
# Density = 2.265751 g / cm^3
# Si number density = 22.709200 Si / 1000 Ang^3
#
#
#
# Elastic Constant Matrix: (Units=GPa)
#
#
# Indices 1 2 3 4 5 6 
#
# 1 117.1129 -4.9939 6.4442 0.0000 0.0000 0.0000
# 2 -4.9939 76.3780 10.0636 0.0000 0.0000 0.0000
# 3 6.4442 10.0636 113.3780 0.0000 0.0000 0.0000
# 4 0.0000 0.0000 0.0000 2.3711 0.0000 0.0000
# 5 0.0000 0.0000 0.0000 0.0000 17.1971 0.0000
# 6 0.0000 0.0000 0.0000 0.0000 0.0000 41.0483
#
#
#
# Elastic Compliance Matrix: (Units=1/GPa)
#
#
# Indices 1 2 3 4 5 6 
#
# 1 0.008596 0.000634 -0.000545 0.000000 0.000000 0.000000
# 2 0.000634 0.013294 -0.001216 0.000000 0.000000 0.000000
# 3 -0.000545 -0.001216 0.008959 0.000000 0.000000 0.000000
# 4 0.000000 0.000000 0.000000 0.421746 0.000000 0.000000
# 5 0.000000 0.000000 0.000000 0.000000 0.058149 0.000000
# 6 0.000000 0.000000 0.000000 0.000000 0.000000 0.024362
#
#
# Mechanical properties :
#
#
# Convention : Reuss Voigt Hill
#
# Bulk Modulus (GPa) = 34.97112 36.65519 35.81316
# Shear Modulus (GPa) = 9.14258 31.81363 20.47811
#
# Velocity S-wave (km/s) = 2.00865 3.74694 3.00618
# Velocity P-wave (km/s) = 4.56208 5.90725 5.27769
#
# Compressibility (1/GPa) = 0.02859502
#
# Stress axis : x y z
#
# Youngs Moduli (GPa) = 116.33619 75.21942 111.62007
#
# Poissons Ratio (x) = -0.04767 0.06081
# Poissons Ratio (y) = -0.07374 0.13574
# Poissons Ratio (z) = 0.06338 0.09147
#
# Static dielectric constant tensor:
#      x y z
#    x 2.018240 0.000000 0.000000 
#    y 0.000000 1.873890 0.000000 
#    z 0.000000 0.000000 1.867840 
# 
# From -- ./inp_files/45208.got.cif
#   From: 2010.05.17/outbox.cif.g08.bks.cpg/sg68_23_cif.got.tgz:45208.got - 2010.06.03 18:57:09.
