data_PCOD9510106
_publ_section_title
;
Structure prediction by ZEFSAII (Michael W. Deem and Ramdas Pophale) SiO2 
 PCOD9510106
Probable space group: C C C A
;
_chemical_formula_sum "Si O2"
_cell_formula_units_Z 48
_cell_length_a 8.007271
_cell_length_b 19.915242
_cell_length_c 10.801284
_cell_angle_alpha 90.000000
_cell_angle_beta 90.000000
_cell_angle_gamma 90.000000
_cell_volume 1722.445544
_symmetry_space_group_name_H-M "C C C A"
_symmetry_group_IT_number 68
_space_group.IT_coordinate_system_code '2'
_symmetry_cell_setting 'orthorhombic'
loop_
_space_group_symop_operation_xyz
x,y,z
-x,1/2-y,z
x,1/2-y,1/2-z
-x,y,1/2-z
-x,-y,-z
x,1/2+y,-z
-x,1/2+y,1/2+z
x,-y,1/2+z
1/2+x,1/2+y,z
1/2-x,-y,z
1/2+x,-y,1/2-z
1/2-x,1/2+y,1/2-z
1/2-x,1/2-y,-z
1/2+x,y,-z
1/2-x,y,1/2+z
1/2+x,1/2-y,1/2+z
loop_
_atom_site_type_symbol
_atom_site_label
_atom_site_fract_x
_atom_site_fract_y
_atom_site_fract_z
Si Si1 0.500000 0.250000 0.008579
Si Si2 0.000000 0.343290 0.750000
Si Si3 0.878376 0.949250 0.575623
Si Si4 0.815563 0.638443 0.626374
O O1 0.487348 0.192299 0.115183
O O2 0.635957 0.215131 0.915847
O O3 0.810387 0.370181 0.742904
O O4 0.773964 0.903802 0.481360
O O5 0.007715 0.898159 0.634893
O O6 0.750000 0.000000 0.643839
O O7 0.000000 0.000000 0.500000
#
# Coordination Sequence:
#
# PCOD9510106 Si02
#       4
#     8   8  16  16
#     4  11  24  44  76 113 156 203 248 335 396 472
#     4  11  24  40  74 114 158 202 260 313 404 481
#     4   9  20  40  78 109 147 206 251 327 402 452
#     4  11  21  44  78 111 160 198 262 327 395 476
#
# _framework density 27.867353999999999
#
# number of rings (size 3 to 8) (size 9 to 14) (size 15 to 20)
#    0.000    1.667    3.333    1.000    0.000    0.000 
#    0.000    1.667   22.000    0.000    0.000    0.000 
#    0.000    0.000    0.000    0.000    0.000    0.000 
#
# Total GULP energy -133602.045387 kJ/mol
# GULP energy per Si atom -5566.751891 kJ/mol
# Density = 2.780393 g / cm^3
# Si number density = 27.867354 Si / 1000 Ang^3
#
#
#
# Elastic Constant Matrix: (Units=GPa)
#
#
# Indices 1 2 3 4 5 6 
#
# 1 291.7508 95.5173 72.7725 0.0000 0.0000 0.0000
# 2 95.5173 146.2116 44.7677 0.0000 0.0000 0.0000
# 3 72.7725 44.7677 115.0633 0.0000 0.0000 0.0000
# 4 0.0000 0.0000 0.0000 -21.5613 0.0000 0.0000
# 5 0.0000 0.0000 0.0000 0.0000 66.4761 0.0000
# 6 0.0000 0.0000 0.0000 0.0000 0.0000 88.3774
#
#
#
# Elastic Compliance Matrix: (Units=1/GPa)
#
#
# Indices 1 2 3 4 5 6 
#
# 1 0.004747 -0.002477 -0.002039 0.000000 0.000000 0.000000
# 2 -0.002477 0.009057 -0.001957 0.000000 0.000000 0.000000
# 3 -0.002039 -0.001957 0.010742 0.000000 0.000000 0.000000
# 4 0.000000 0.000000 0.000000 -0.046379 0.000000 0.000000
# 5 0.000000 0.000000 0.000000 0.000000 0.015043 0.000000
# 6 0.000000 0.000000 0.000000 0.000000 0.000000 0.011315
#
#
# Mechanical properties :
#
#
# Convention : Reuss Voigt Hill
#
# Bulk Modulus (GPa) = 86.20624 108.79340 97.49982
# Shear Modulus (GPa) = 234.34344 49.32299 141.83321
#
# Velocity S-wave (km/s) = 9.18014 4.21161 7.14187
# Velocity P-wave (km/s) = 11.97365 7.92305 10.15241
#
# Compressibility (1/GPa) = 0.01160009
#
# Stress axis : x y z
#
# Youngs Moduli (GPa) = 210.65899 110.41427 93.09557
#
# Poissons Ratio (x) = 0.27349 0.18978
# Poissons Ratio (y) = 0.52179 0.18220
# Poissons Ratio (z) = 0.42944 0.21610
#
# Static dielectric constant tensor:
#      x y z
#    x 2.457780 0.000000 0.000000 
#    y 0.000000 2.347230 0.000000 
#    z 0.000000 0.000000 2.125620 
# 
# From -- ./inp_files/18914.got.cif
#   From: 2010.05.17/outbox.cif.g08.bks.cpg/sg68_10_cif.got.tgz:18914.got - 2010.06.03 18:57:09.
