data_PCOD9510179
_publ_section_title
;
Structure prediction by ZEFSAII (Michael W. Deem and Ramdas Pophale) SiO2 
 PCOD9510179
Probable space group: C C C A
;
_chemical_formula_sum "Si O2"
_cell_formula_units_Z 64
_cell_length_a 14.964473
_cell_length_b 8.900849
_cell_length_c 20.768193
_cell_angle_alpha 90.000000
_cell_angle_beta 90.000000
_cell_angle_gamma 90.000000
_cell_volume 2766.250921
_symmetry_space_group_name_H-M "C C C A"
_symmetry_group_IT_number 68
_space_group.IT_coordinate_system_code '2'
_symmetry_cell_setting 'orthorhombic'
loop_
_space_group_symop_operation_xyz
x,y,z
-x,1/2-y,z
x,1/2-y,1/2-z
-x,y,1/2-z
-x,-y,-z
x,1/2+y,-z
-x,1/2+y,1/2+z
x,-y,1/2+z
1/2+x,1/2+y,z
1/2-x,-y,z
1/2+x,-y,1/2-z
1/2-x,1/2+y,1/2-z
1/2-x,1/2-y,-z
1/2+x,y,-z
1/2-x,y,1/2+z
1/2+x,1/2-y,1/2+z
loop_
_atom_site_type_symbol
_atom_site_label
_atom_site_fract_x
_atom_site_fract_y
_atom_site_fract_z
Si Si1 0.093268 0.611822 0.557964
Si Si2 0.398257 0.816868 0.682062
Si Si3 0.569024 0.358159 0.646062
Si Si4 0.332196 0.716357 0.548584
O O1 0.130902 0.737128 0.609188
O O2 0.004279 0.419288 0.411838
O O3 0.147378 0.459670 0.552162
O O4 0.091912 0.691427 0.489568
O O5 0.500000 0.750000 0.672709
O O6 0.367259 0.750000 0.750000
O O7 0.337552 0.773013 0.621538
O O8 0.398741 0.998256 0.683635
O O9 0.500000 0.250000 0.682842
O O10 0.250000 0.750000 0.500000
#
# Coordination Sequence:
#
# PCOD9510179 Si02
#       4
#    16  16  16  16
#     4   9  21  36  62  97 136 175 232 303 352 406
#     4  11  22  40  67 100 136 184 235 288 357 433
#     4   8  19  37  65 100 131 166 232 304 346 405
#     4  12  23  38  62  99 141 181 234 292 358 429
#
# _framework density 23.136006999999999
#
# number of rings (size 3 to 8) (size 9 to 14) (size 15 to 20)
#    1.500    0.250    2.500    2.250    3.500    5.000 
#    0.000    8.750    0.000   12.000    0.000    0.000 
#    0.000    0.000    0.000    0.000    0.000    0.000 
#
# Total GULP energy -178230.433028 kJ/mol
# GULP energy per Si atom -5569.701032 kJ/mol
# Density = 2.308335 g / cm^3
# Si number density = 23.136007 Si / 1000 Ang^3
#
#
#
# Elastic Constant Matrix: (Units=GPa)
#
#
# Indices 1 2 3 4 5 6 
#
# 1 56.6697 19.8064 36.7354 0.0000 0.0000 0.0000
# 2 19.8064 246.8760 84.5722 0.0000 0.0000 0.0000
# 3 36.7354 84.5722 191.5896 0.0000 0.0000 0.0000
# 4 0.0000 0.0000 0.0000 46.8623 0.0000 0.0000
# 5 0.0000 0.0000 0.0000 0.0000 3.5580 0.0000
# 6 0.0000 0.0000 0.0000 0.0000 0.0000 18.6448
#
#
#
# Elastic Compliance Matrix: (Units=1/GPa)
#
#
# Indices 1 2 3 4 5 6 
#
# 1 0.020176 -0.000346 -0.003716 0.000000 0.000000 0.000000
# 2 -0.000346 0.004778 -0.002043 0.000000 0.000000 0.000000
# 3 -0.003716 -0.002043 0.006834 0.000000 0.000000 0.000000
# 4 0.000000 0.000000 0.000000 0.021339 0.000000 0.000000
# 5 0.000000 0.000000 0.000000 0.000000 0.281054 0.000000
# 6 0.000000 0.000000 0.000000 0.000000 0.000000 0.053634
#
#
# Mechanical properties :
#
#
# Convention : Reuss Voigt Hill
#
# Bulk Modulus (GPa) = 51.07606 86.37369 68.72488
# Shear Modulus (GPa) = 12.29859 37.41446 24.85653
#
# Velocity S-wave (km/s) = 2.30810 4.02575 3.28131
# Velocity P-wave (km/s) = 5.40624 7.68264 6.64268
#
# Compressibility (1/GPa) = 0.01957864
#
# Stress axis : x y z
#
# Youngs Moduli (GPa) = 49.56454 209.28405 146.33213
#
# Poissons Ratio (x) = 0.07235 0.54375
# Poissons Ratio (y) = 0.01713 0.29895
# Poissons Ratio (z) = 0.18418 0.42755
#
# Static dielectric constant tensor:
#      x y z
#    x 2.089700 0.000000 0.000000 
#    y 0.000000 1.889290 0.000000 
#    z 0.000000 0.000000 1.852440 
# 
# From -- ./inp_files/32494.got.cif
#   From: 2010.05.17/outbox.cif.g08.bks.cpg/sg68_17_cif.got.tgz:32494.got - 2010.06.03 18:57:09.
