data_PCOD9510230
_publ_section_title
;
Structure prediction by ZEFSAII (Michael W. Deem and Ramdas Pophale) SiO2 
 PCOD9510230
Probable space group: C C C A
;
_chemical_formula_sum "Si O2"
_cell_formula_units_Z 84
_cell_length_a 15.517982
_cell_length_b 10.224760
_cell_length_c 24.008573
_cell_angle_alpha 90.000000
_cell_angle_beta 90.000000
_cell_angle_gamma 90.000000
_cell_volume 3809.383657
_symmetry_space_group_name_H-M "C C C A"
_symmetry_group_IT_number 68
_space_group.IT_coordinate_system_code '2'
_symmetry_cell_setting 'orthorhombic'
loop_
_space_group_symop_operation_xyz
x,y,z
-x,1/2-y,z
x,1/2-y,1/2-z
-x,y,1/2-z
-x,-y,-z
x,1/2+y,-z
-x,1/2+y,1/2+z
x,-y,1/2+z
1/2+x,1/2+y,z
1/2-x,-y,z
1/2+x,-y,1/2-z
1/2-x,1/2+y,1/2-z
1/2-x,1/2-y,-z
1/2+x,y,-z
1/2-x,y,1/2+z
1/2+x,1/2-y,1/2+z
loop_
_atom_site_type_symbol
_atom_site_label
_atom_site_fract_x
_atom_site_fract_y
_atom_site_fract_z
Si Si1 0.923111 0.342454 0.841053
Si Si2 0.500000 0.750000 0.250000
Si Si3 0.156148 0.449747 0.450683
Si Si4 0.208303 0.750000 0.250000
Si Si5 0.934975 0.557755 0.657588
Si Si6 0.750000 0.000000 0.808186
Si Si7 0.100144 0.241071 0.534132
O O1 0.848990 0.328360 0.795629
O O2 0.893952 0.288968 0.901474
O O3 0.000000 0.250000 0.820412
O O4 0.975212 0.478378 0.847546
O O5 0.551224 0.842373 0.292633
O O6 0.250000 0.500000 0.429978
O O7 0.094676 0.390604 0.402718
O O8 0.157941 0.339061 0.497742
O O9 0.119410 0.587799 0.471620
O O10 0.263754 0.637025 0.277748
O O11 0.847967 0.473082 0.668991
O O12 0.000000 0.250000 0.518438
#
# Coordination Sequence:
#
# PCOD9510230 Si02
#       7
#    16   4  16   8  16   8  16
#     4  11  22  43  72  93 125 184 240 266 335 424
#     4  12  30  44  64 108 136 174 236 288 346 404
#     4  12  25  45  70 102 146 181 224 291 356 407
#     4  12  24  42  69  95 132 182 220 293 335 418
#     4  12  25  45  68  98 137 176 223 289 340 412
#     4  12  24  40  64  96 132 168 226 272 352 400
#     4  11  24  44  72 105 130 186 242 281 337 419
#
# _framework density 22.050810999999999
#
# number of rings (size 3 to 8) (size 9 to 14) (size 15 to 20)
#    0.000    0.381    6.667    3.143    1.333    0.000 
#    1.714    0.000    0.000    0.000    0.000    0.000 
#    0.000    0.000    0.000    0.000    0.000    0.000 
#
# Total GULP energy -234107.810315 kJ/mol
# GULP energy per Si atom -5573.995484 kJ/mol
# Density = 2.200062 g / cm^3
# Si number density = 22.050811 Si / 1000 Ang^3
#
#
#
# Elastic Constant Matrix: (Units=GPa)
#
#
# Indices 1 2 3 4 5 6 
#
# 1 79.6691 24.5777 31.6313 0.0000 0.0000 0.0000
# 2 24.5777 71.1652 38.5902 0.0000 0.0000 0.0000
# 3 31.6313 38.5902 100.7760 0.0000 0.0000 0.0000
# 4 0.0000 0.0000 0.0000 -101.7194 0.0000 0.0000
# 5 0.0000 0.0000 0.0000 0.0000 8.5684 0.0000
# 6 0.0000 0.0000 0.0000 0.0000 0.0000 32.0837
#
#
#
# Elastic Compliance Matrix: (Units=1/GPa)
#
#
# Indices 1 2 3 4 5 6 
#
# 1 0.014929 -0.003300 -0.003422 0.000000 0.000000 0.000000
# 2 -0.003300 0.018464 -0.006035 0.000000 0.000000 0.000000
# 3 -0.003422 -0.006035 0.013308 0.000000 0.000000 0.000000
# 4 0.000000 0.000000 0.000000 -0.009831 0.000000 0.000000
# 5 0.000000 0.000000 0.000000 0.000000 0.116708 0.000000
# 6 0.000000 0.000000 0.000000 0.000000 0.000000 0.031168
#
#
# Mechanical properties :
#
#
# Convention : Reuss Voigt Hill
#
# Bulk Modulus (GPa) = 47.19877 49.02318 48.11097
# Shear Modulus (GPa) = 23.00736 -1.75938 10.62399
#
# Velocity S-wave (km/s) = 3.23364 -0.89421 2.19737
# Velocity P-wave (km/s) = 5.94920 4.60587 5.32010
#
# Compressibility (1/GPa) = 0.02118699
#
# Stress axis : x y z
#
# Youngs Moduli (GPa) = 66.98517 54.15994 75.14331
#
# Poissons Ratio (x) = 0.17874 0.25714
# Poissons Ratio (y) = 0.22106 0.45345
# Poissons Ratio (z) = 0.22923 0.32683
#
# Static dielectric constant tensor:
#      x y z
#    x 1.832450 0.000000 0.000000 
#    y 0.000000 1.861600 0.000000 
#    z 0.000000 0.000000 1.912130 
# 
# From -- ./inp_files/45355.got.cif
#   From: 2010.05.17/outbox.cif.g08.bks.cpg/sg68_23_cif.got.tgz:45355.got - 2010.06.03 18:57:09.
