data_PCOD9510487
_publ_section_title
;
Structure prediction by ZEFSAII (Michael W. Deem and Ramdas Pophale) SiO2 
 PCOD9510487
Probable space group: C C C A
;
_chemical_formula_sum "Si O2"
_cell_formula_units_Z 72
_cell_length_a 8.649958
_cell_length_b 22.766652
_cell_length_c 14.999758
_cell_angle_alpha 90.000000
_cell_angle_beta 90.000000
_cell_angle_gamma 90.000000
_cell_volume 2953.911097
_symmetry_space_group_name_H-M "C C C A"
_symmetry_group_IT_number 68
_space_group.IT_coordinate_system_code '2'
_symmetry_cell_setting 'orthorhombic'
loop_
_space_group_symop_operation_xyz
x,y,z
-x,1/2-y,z
x,1/2-y,1/2-z
-x,y,1/2-z
-x,-y,-z
x,1/2+y,-z
-x,1/2+y,1/2+z
x,-y,1/2+z
1/2+x,1/2+y,z
1/2-x,-y,z
1/2+x,-y,1/2-z
1/2-x,1/2+y,1/2-z
1/2-x,1/2-y,-z
1/2+x,y,-z
1/2-x,y,1/2+z
1/2+x,1/2-y,1/2+z
loop_
_atom_site_type_symbol
_atom_site_label
_atom_site_fract_x
_atom_site_fract_y
_atom_site_fract_z
Si Si1 0.145061 0.288177 0.927928
Si Si2 0.645746 0.572611 0.397851
Si Si3 0.954611 0.188318 0.350672
Si Si4 0.000000 0.011606 0.750000
Si Si5 0.516283 0.082032 0.419595
O O1 0.046968 0.368288 0.117663
O O2 0.000000 0.250000 0.896862
O O3 0.250000 0.250000 0.000000
O O4 0.066401 0.351544 0.942836
O O5 0.272097 0.690351 0.357490
O O6 0.601659 0.531016 0.314121
O O7 0.670482 0.417856 0.408113
O O8 0.586995 0.549611 0.493763
O O9 0.000000 0.250000 0.396360
O O10 0.000000 0.192025 0.250000
O O11 0.076252 0.053871 0.673924
#
# Coordination Sequence:
#
# PCOD9510487 Si02
#       5
#    16  16  16   8  16
#     4  12  25  48  80 115 159 208 265 334 417 501
#     4  12  26  51  78 115 163 213 272 343 412 488
#     4  11  24  44  76 112 155 205 259 330 408 484
#     4  12  30  50  76 112 162 214 282 338 408 486
#     4  12  28  47  83 116 157 215 271 336 415 495
#
# _framework density 24.374464
#
# number of rings (size 3 to 8) (size 9 to 14) (size 15 to 20)
#    0.000    0.222    1.111    8.667    3.111    5.333 
#    0.000    0.000    0.000    0.000    0.000    0.000 
#    0.000    0.000    0.000    0.000    0.000    0.000 
#
# Total GULP energy -200630.443935 kJ/mol
# GULP energy per Si atom -5573.067887 kJ/mol
# Density = 2.431899 g / cm^3
# Si number density = 24.374464 Si / 1000 Ang^3
#
#
#
# Elastic Constant Matrix: (Units=GPa)
#
#
# Indices 1 2 3 4 5 6 
#
# 1 188.7866 62.1544 71.3833 0.0000 0.0000 0.0000
# 2 62.1544 169.7594 60.6126 0.0000 0.0000 0.0000
# 3 71.3833 60.6126 194.6427 0.0000 0.0000 0.0000
# 4 0.0000 0.0000 0.0000 74.3852 0.0000 0.0000
# 5 0.0000 0.0000 0.0000 0.0000 20.3969 0.0000
# 6 0.0000 0.0000 0.0000 0.0000 0.0000 53.8359
#
#
#
# Elastic Compliance Matrix: (Units=1/GPa)
#
#
# Indices 1 2 3 4 5 6 
#
# 1 0.006577 -0.001740 -0.001870 0.000000 0.000000 0.000000
# 2 -0.001740 0.007088 -0.001569 0.000000 0.000000 0.000000
# 3 -0.001870 -0.001569 0.006312 0.000000 0.000000 0.000000
# 4 0.000000 0.000000 0.000000 0.013444 0.000000 0.000000
# 5 0.000000 0.000000 0.000000 0.000000 0.049027 0.000000
# 6 0.000000 0.000000 0.000000 0.000000 0.000000 0.018575
#
#
# Mechanical properties :
#
#
# Convention : Reuss Voigt Hill
#
# Bulk Modulus (GPa) = 103.96873 104.60991 104.28932
# Shear Modulus (GPa) = 43.63461 53.65949 48.64705
#
# Velocity S-wave (km/s) = 4.23564 4.69707 4.47231
# Velocity P-wave (km/s) = 8.16506 8.51044 8.33954
#
# Compressibility (1/GPa) = 0.00961828
#
# Stress axis : x y z
#
# Youngs Moduli (GPa) = 152.04286 141.08141 158.42676
#
# Poissons Ratio (x) = 0.24553 0.29628
# Poissons Ratio (y) = 0.26461 0.24857
# Poissons Ratio (z) = 0.28434 0.22136
#
# Static dielectric constant tensor:
#      x y z
#    x 2.012610 0.000000 0.000000 
#    y 0.000000 1.990530 0.000000 
#    z 0.000000 0.000000 1.914680 
# 
# From -- ./inp_files/29520.got.cif
#   From: 2010.05.17/outbox.cif.g08.bks.cpg/sg68_15_cif.got.tgz:29520.got - 2010.06.03 18:57:09.
