data_PCOD9510036
_publ_section_title
;
Structure prediction by ZEFSAII (Michael W. Deem and Ramdas Pophale) SiO2 
 PCOD9510036
Probable space group: C C C A
;
_chemical_formula_sum "Si O2"
_cell_formula_units_Z 108
_cell_length_a 15.154674
_cell_length_b 16.369394
_cell_length_c 20.612227
_cell_angle_alpha 90.000000
_cell_angle_beta 90.000000
_cell_angle_gamma 90.000000
_cell_volume 5113.333477
_symmetry_space_group_name_H-M "C C C A"
_symmetry_group_IT_number 68
_space_group.IT_coordinate_system_code '2'
_symmetry_cell_setting 'orthorhombic'
loop_
_space_group_symop_operation_xyz
x,y,z
-x,1/2-y,z
x,1/2-y,1/2-z
-x,y,1/2-z
-x,-y,-z
x,1/2+y,-z
-x,1/2+y,1/2+z
x,-y,1/2+z
1/2+x,1/2+y,z
1/2-x,-y,z
1/2+x,-y,1/2-z
1/2-x,1/2+y,1/2-z
1/2-x,1/2-y,-z
1/2+x,y,-z
1/2-x,y,1/2+z
1/2+x,1/2-y,1/2+z
loop_
_atom_site_type_symbol
_atom_site_label
_atom_site_fract_x
_atom_site_fract_y
_atom_site_fract_z
Si Si1 0.898819 0.433115 0.909469
Si Si2 0.450754 0.072719 0.187097
Si Si3 0.000000 0.250000 0.250000
Si Si4 0.832109 0.437161 0.488944
Si Si5 0.267847 0.302235 0.063819
Si Si6 0.750000 0.000000 0.691491
Si Si7 0.872938 0.600027 0.707608
Si Si8 0.712720 0.640775 0.626468
O O1 0.856076 0.354792 0.943397
O O2 0.825757 0.459254 0.854366
O O3 0.988442 0.411564 0.874433
O O4 0.908572 0.506854 0.960470
O O5 0.500000 0.104311 0.250000
O O6 0.356179 0.113284 0.180172
O O7 0.437475 0.975617 0.193936
O O8 0.070105 0.317011 0.281101
O O9 0.750000 0.500000 0.488445
O O10 0.811507 0.366901 0.436146
O O11 0.826453 0.396996 0.559671
O O12 0.278423 0.237961 0.120702
O O13 0.250000 0.250000 0.000000
O O14 0.693455 0.065490 0.735178
O O15 0.808682 0.608396 0.645422
#
# Coordination Sequence:
#
# PCOD9510036 Si02
#       8
#    16  16   4  16  16   8  16  16
#     4  11  21  37  71  94 129 177 233 279 343 420
#     4  12  23  42  62  95 139 178 228 285 330 421
#     4  12  28  40  68 108 138 170 256 304 356 410
#     4   9  18  38  65  95 117 171 226 270 335 420
#     4   9  20  38  61  94 126 165 218 276 334 405
#     4  12  20  42  68  94 130 188 226 264 358 428
#     4  12  24  44  66  98 136 182 226 294 347 427
#     4  11  23  40  67  93 134 176 222 278 359 414
#
# _framework density 21.121251000000001
#
# number of rings (size 3 to 8) (size 9 to 14) (size 15 to 20)
#    0.000    1.185    5.926    0.889    2.074    2.370 
#    0.000    0.741    0.000    1.778    0.000    0.000 
#    0.000    0.000    0.000    0.000    0.000    0.000 
#
# Total GULP energy -300925.774610 kJ/mol
# GULP energy per Si atom -5572.699530 kJ/mol
# Density = 2.107318 g / cm^3
# Si number density = 21.121251 Si / 1000 Ang^3
#
#
#
# Elastic Constant Matrix: (Units=GPa)
#
#
# Indices 1 2 3 4 5 6 
#
# 1 82.8733 21.2470 28.7679 0.0000 0.0000 0.0000
# 2 21.2470 98.1546 31.1155 0.0000 0.0000 0.0000
# 3 28.7679 31.1155 62.1532 0.0000 0.0000 0.0000
# 4 0.0000 0.0000 0.0000 28.5570 0.0000 0.0000
# 5 0.0000 0.0000 0.0000 0.0000 39.3215 0.0000
# 6 0.0000 0.0000 0.0000 0.0000 0.0000 15.9480
#
#
#
# Elastic Compliance Matrix: (Units=1/GPa)
#
#
# Indices 1 2 3 4 5 6 
#
# 1 0.014495 -0.001201 -0.006107 0.000000 0.000000 0.000000
# 2 -0.001201 0.012209 -0.005556 0.000000 0.000000 0.000000
# 3 -0.006107 -0.005556 0.021698 0.000000 0.000000 0.000000
# 4 0.000000 0.000000 0.000000 0.035018 0.000000 0.000000
# 5 0.000000 0.000000 0.000000 0.000000 0.025431 0.000000
# 6 0.000000 0.000000 0.000000 0.000000 0.000000 0.062704
#
#
# Mechanical properties :
#
#
# Convention : Reuss Voigt Hill
#
# Bulk Modulus (GPa) = 44.10819 45.04910 44.57864
# Shear Modulus (GPa) = 24.40901 27.56867 25.98884
#
# Velocity S-wave (km/s) = 3.40319 3.61675 3.51160
# Velocity P-wave (km/s) = 6.03083 6.23027 6.13136
#
# Compressibility (1/GPa) = 0.02267153
#
# Stress axis : x y z
#
# Youngs Moduli (GPa) = 68.99050 81.90378 46.08769
#
# Poissons Ratio (x) = 0.09841 0.28148
# Poissons Ratio (y) = 0.08289 0.25607
# Poissons Ratio (z) = 0.42136 0.45508
#
# Static dielectric constant tensor:
#      x y z
#    x 1.744210 0.000000 0.000000 
#    y 0.000000 1.805000 0.000000 
#    z 0.000000 0.000000 1.849180 
# 
# From -- ./inp_files/45588.got.cif
#   From: 2010.05.17/outbox.cif.g08.bks.cpg/sg68_23_cif.got.tgz:45588.got - 2010.06.03 18:57:09.
