data_PCOD9510421
_publ_section_title
;
Structure prediction by ZEFSAII (Michael W. Deem and Ramdas Pophale) SiO2 
 PCOD9510421
Probable space group: C C C A
;
_chemical_formula_sum "Si O2"
_cell_formula_units_Z 48
_cell_length_a 11.765067
_cell_length_b 20.730899
_cell_length_c 9.038176
_cell_angle_alpha 90.000000
_cell_angle_beta 90.000000
_cell_angle_gamma 90.000000
_cell_volume 2204.414884
_symmetry_space_group_name_H-M "C C C A"
_symmetry_group_IT_number 68
_space_group.IT_coordinate_system_code '2'
_symmetry_cell_setting 'orthorhombic'
loop_
_space_group_symop_operation_xyz
x,y,z
-x,1/2-y,z
x,1/2-y,1/2-z
-x,y,1/2-z
-x,-y,-z
x,1/2+y,-z
-x,1/2+y,1/2+z
x,-y,1/2+z
1/2+x,1/2+y,z
1/2-x,-y,z
1/2+x,-y,1/2-z
1/2-x,1/2+y,1/2-z
1/2-x,1/2-y,-z
1/2+x,y,-z
1/2-x,y,1/2+z
1/2+x,1/2-y,1/2+z
loop_
_atom_site_type_symbol
_atom_site_label
_atom_site_fract_x
_atom_site_fract_y
_atom_site_fract_z
Si Si1 0.375967 0.452322 0.237734
Si Si2 0.872180 0.728363 0.921706
Si Si3 0.172482 0.919132 0.933576
O O1 0.500000 0.425166 0.250000
O O2 0.300503 0.412963 0.124143
O O3 0.328613 0.446312 0.401744
O O4 0.378377 0.525190 0.173168
O O5 0.862984 0.750000 0.750000
O O6 0.880068 0.650789 0.927076
O O7 0.000000 0.750000 0.976367
O O8 0.750000 0.750000 0.000000
#
# Coordination Sequence:
#
# PCOD9510421 Si02
#       3
#    16  16  16
#     4  11  24  41  73 102 142 187 224 316 361 432
#     4  11  27  48  76 103 146 199 242 304 359 441
#     4  11  24  44  68 108 143 179 254 282 382 431
#
# _framework density 21.774484000000001
#
# number of rings (size 3 to 8) (size 9 to 14) (size 15 to 20)
#    0.000    1.000    0.000    7.000    9.333    0.667 
#    0.000    0.000    0.000    0.000    0.000    0.000 
#    0.000    0.000    0.000    0.000    0.000    0.000 
#
# Total GULP energy -133843.419446 kJ/mol
# GULP energy per Si atom -5576.809144 kJ/mol
# Density = 2.172492 g / cm^3
# Si number density = 21.774484 Si / 1000 Ang^3
#
#
#
# Elastic Constant Matrix: (Units=GPa)
#
#
# Indices 1 2 3 4 5 6 
#
# 1 178.7810 19.9866 59.5918 0.0000 0.0000 0.0000
# 2 19.9866 155.9664 43.1947 0.0000 0.0000 0.0000
# 3 59.5918 43.1947 161.8839 0.0000 0.0000 0.0000
# 4 0.0000 0.0000 0.0000 -68.9030 0.0000 0.0000
# 5 0.0000 0.0000 0.0000 0.0000 -8.7132 0.0000
# 6 0.0000 0.0000 0.0000 0.0000 0.0000 35.0564
#
#
#
# Elastic Compliance Matrix: (Units=1/GPa)
#
#
# Indices 1 2 3 4 5 6 
#
# 1 0.006380 -0.000180 -0.002301 0.000000 0.000000 0.000000
# 2 -0.000180 0.006928 -0.001782 0.000000 0.000000 0.000000
# 3 -0.002301 -0.001782 0.007500 0.000000 0.000000 0.000000
# 4 0.000000 0.000000 0.000000 -0.014513 0.000000 0.000000
# 5 0.000000 0.000000 0.000000 0.000000 -0.114768 0.000000
# 6 0.000000 0.000000 0.000000 0.000000 0.000000 0.028525
#
#
# Mechanical properties :
#
#
# Convention : Reuss Voigt Hill
#
# Bulk Modulus (GPa) = 81.42056 82.46417 81.94237
# Shear Modulus (GPa) = -74.26456 16.41191 -28.92632
#
# Velocity S-wave (km/s) = -5.84639 2.74838 -3.64875
# Velocity P-wave (km/s) = 2.84603 6.93005 4.46798
#
# Compressibility (1/GPa) = 0.01228191
#
# Stress axis : x y z
#
# Youngs Moduli (GPa) = 156.72880 144.33456 133.33902
#
# Poissons Ratio (x) = 0.02605 0.30676
# Poissons Ratio (y) = 0.02829 0.23764
# Poissons Ratio (z) = 0.36057 0.25723
#
# Static dielectric constant tensor:
#      x y z
#    x 1.928520 0.000000 0.000000 
#    y 0.000000 1.779590 0.000000 
#    z 0.000000 0.000000 1.832300 
# 
# From -- ./inp_files/3728.got.cif
#   From: 2010.05.17/outbox.cif.g08.bks.cpg/sg68_2_cif.got.tgz:3728.got - 2010.06.03 18:57:09.
