data_PCOD9510808
_publ_section_title
;
Structure prediction by ZEFSAII (Michael W. Deem and Ramdas Pophale) SiO2 
 PCOD9510808
Probable space group: C C C A
;
_chemical_formula_sum "Si O2"
_cell_formula_units_Z 56
_cell_length_a 19.127945
_cell_length_b 5.043885
_cell_length_c 25.316772
_cell_angle_alpha 90.000000
_cell_angle_beta 90.000000
_cell_angle_gamma 90.000000
_cell_volume 2442.540767
_symmetry_space_group_name_H-M "C C C A"
_symmetry_group_IT_number 68
_space_group.IT_coordinate_system_code '2'
_symmetry_cell_setting 'orthorhombic'
loop_
_space_group_symop_operation_xyz
x,y,z
-x,1/2-y,z
x,1/2-y,1/2-z
-x,y,1/2-z
-x,-y,-z
x,1/2+y,-z
-x,1/2+y,1/2+z
x,-y,1/2+z
1/2+x,1/2+y,z
1/2-x,-y,z
1/2+x,-y,1/2-z
1/2-x,1/2+y,1/2-z
1/2-x,1/2-y,-z
1/2+x,y,-z
1/2-x,y,1/2+z
1/2+x,1/2-y,1/2+z
loop_
_atom_site_type_symbol
_atom_site_label
_atom_site_fract_x
_atom_site_fract_y
_atom_site_fract_z
Si Si1 0.847480 0.850333 0.462866
Si Si2 0.322185 0.165005 0.689859
Si Si3 0.750000 0.000000 0.607897
Si Si4 0.546863 0.984444 0.873097
O O1 0.845562 0.638496 0.510392
O O2 0.784840 0.733666 0.426538
O O3 0.916095 0.872466 0.426358
O O4 0.331244 0.250000 0.750000
O O5 0.309553 0.395563 0.647041
O O6 0.250000 0.000000 0.687917
O O7 0.390601 0.027356 0.667915
O O8 0.500000 0.750000 0.851681
O O9 0.500000 0.250000 0.881473
#
# Coordination Sequence:
#
# PCOD9510808 Si02
#       4
#    16  16   8  16
#     4  12  26  45  76 111 153 205 257 313 378 451
#     4  12  26  49  81 115 148 201 258 317 385 459
#     4  12  24  46  74 116 158 190 258 326 386 440
#     4  12  28  51  76 112 160 203 251 316 384 456
#
# _framework density 22.926946999999998
#
# number of rings (size 3 to 8) (size 9 to 14) (size 15 to 20)
#    0.000    0.000    4.286    6.000    0.000    4.000 
#    0.000    4.286    0.000    0.000    0.000    0.000 
#    0.000    0.000    0.000    0.000    0.000    0.000 
#
# Total GULP energy -156704.546291 kJ/mol
# GULP energy per Si atom -5596.590939 kJ/mol
# Density = 2.287476 g / cm^3
# Si number density = 22.926947 Si / 1000 Ang^3
#
#
#
# Elastic Constant Matrix: (Units=GPa)
#
#
# Indices 1 2 3 4 5 6 
#
# 1 179.0130 81.1278 74.5335 0.0000 0.0000 0.0000
# 2 81.1278 111.4267 10.9399 0.0000 0.0000 0.0000
# 3 74.5335 10.9399 99.7181 0.0000 0.0000 0.0000
# 4 0.0000 0.0000 0.0000 52.1721 0.0000 0.0000
# 5 0.0000 0.0000 0.0000 0.0000 -2.6933 0.0000
# 6 0.0000 0.0000 0.0000 0.0000 0.0000 64.0459
#
#
#
# Elastic Compliance Matrix: (Units=1/GPa)
#
#
# Indices 1 2 3 4 5 6 
#
# 1 0.013329 -0.008822 -0.008995 0.000000 0.000000 0.000000
# 2 -0.008822 0.014911 0.004958 0.000000 0.000000 0.000000
# 3 -0.008995 0.004958 0.016208 0.000000 0.000000 0.000000
# 4 0.000000 0.000000 0.000000 0.019167 0.000000 0.000000
# 5 0.000000 0.000000 0.000000 0.000000 -0.371297 0.000000
# 6 0.000000 0.000000 0.000000 0.000000 0.000000 0.015614
#
#
# Mechanical properties :
#
#
# Convention : Reuss Voigt Hill
#
# Bulk Modulus (GPa) = 53.39070 80.37336 66.88203
# Shear Modulus (GPa) = -19.22282 37.60873 9.19295
#
# Velocity S-wave (km/s) = -2.89872 4.05454 2.00459
# Velocity P-wave (km/s) = 3.48345 7.55324 5.88158
#
# Compressibility (1/GPa) = 0.01872985
#
# Stress axis : x y z
#
# Youngs Moduli (GPa) = 75.02260 67.06607 61.69927
#
# Poissons Ratio (x) = 0.59164 0.55499
# Poissons Ratio (y) = 0.66183 -0.30590
# Poissons Ratio (z) = 0.67483 -0.33251
#
# Static dielectric constant tensor:
#      x y z
#    x 1.905150 0.000000 0.000000 
#    y 0.000000 1.910640 0.000000 
#    z 0.000000 0.000000 1.826260 
# 
# From -- ./inp_files/46288.got.cif
#   From: 2010.05.17/outbox.cif.g08.bks.cpg/sg68_24_cif.got.tgz:46288.got - 2010.06.03 18:57:09.
