data_PCOD9510206
_publ_section_title
;
Structure prediction by ZEFSAII (Michael W. Deem and Ramdas Pophale) SiO2 
 PCOD9510206
Probable space group: C C C A
;
_chemical_formula_sum "Si O2"
_cell_formula_units_Z 80
_cell_length_a 13.435126
_cell_length_b 11.501757
_cell_length_c 22.263779
_cell_angle_alpha 90.000000
_cell_angle_beta 90.000000
_cell_angle_gamma 90.000000
_cell_volume 3440.367323
_symmetry_space_group_name_H-M "C C C A"
_symmetry_group_IT_number 68
_space_group.IT_coordinate_system_code '2'
_symmetry_cell_setting 'orthorhombic'
loop_
_space_group_symop_operation_xyz
x,y,z
-x,1/2-y,z
x,1/2-y,1/2-z
-x,y,1/2-z
-x,-y,-z
x,1/2+y,-z
-x,1/2+y,1/2+z
x,-y,1/2+z
1/2+x,1/2+y,z
1/2-x,-y,z
1/2+x,-y,1/2-z
1/2-x,1/2+y,1/2-z
1/2-x,1/2-y,-z
1/2+x,y,-z
1/2-x,y,1/2+z
1/2+x,1/2-y,1/2+z
loop_
_atom_site_type_symbol
_atom_site_label
_atom_site_fract_x
_atom_site_fract_y
_atom_site_fract_z
Si Si1 0.538514 0.620635 0.891023
Si Si2 0.637655 0.968239 0.353590
Si Si3 0.868830 0.998292 0.715747
Si Si4 0.763081 0.626305 0.466667
Si Si5 0.896133 0.705668 0.871023
O O1 0.500000 0.750000 0.894037
O O2 0.447593 0.527319 0.895050
O O3 0.588862 0.598214 0.826494
O O4 0.626764 0.615403 0.939203
O O5 0.611300 0.009447 0.286012
O O6 0.644889 0.829243 0.351236
O O7 0.750000 0.000000 0.368933
O O8 0.910333 0.879177 0.685781
O O9 0.750000 0.000000 0.709370
O O10 0.750000 0.500000 0.497786
O O11 0.750000 0.750000 0.500000
O O12 0.678762 0.638476 0.414795
O O13 0.000000 0.750000 0.899851
#
# Coordination Sequence:
#
# PCOD9510206 Si02
#       5
#    16  16  16  16  16
#     4  12  24  45  71 101 153 193 246 313 374 455
#     4  11  25  38  67 111 145 198 239 293 373 467
#     4  11  22  42  68 100 152 193 240 288 374 458
#     4  12  27  52  79 106 142 198 260 332 395 452
#     4  12  22  44  70  99 145 184 245 306 373 454
#
# _framework density 23.253332
#
# number of rings (size 3 to 8) (size 9 to 14) (size 15 to 20)
#    0.000    0.400    6.000    2.400    0.000    5.600 
#    0.000    3.000    0.000    0.000    0.000    0.000 
#    0.000    0.000    0.000    0.000    0.000    0.000 
#
# Total GULP energy -223544.642607 kJ/mol
# GULP energy per Si atom -5588.616065 kJ/mol
# Density = 2.320041 g / cm^3
# Si number density = 23.253332 Si / 1000 Ang^3
#
#
#
# Elastic Constant Matrix: (Units=GPa)
#
#
# Indices 1 2 3 4 5 6 
#
# 1 148.1105 51.3876 42.3933 0.0000 0.0000 0.0000
# 2 51.3876 157.9201 43.0994 0.0000 0.0000 0.0000
# 3 42.3933 43.0994 80.6009 0.0000 0.0000 0.0000
# 4 0.0000 0.0000 0.0000 29.3426 0.0000 0.0000
# 5 0.0000 0.0000 0.0000 0.0000 20.8343 0.0000
# 6 0.0000 0.0000 0.0000 0.0000 0.0000 48.9181
#
#
#
# Elastic Compliance Matrix: (Units=1/GPa)
#
#
# Indices 1 2 3 4 5 6 
#
# 1 0.008354 -0.001779 -0.003443 0.000000 0.000000 0.000000
# 2 -0.001779 0.007793 -0.003232 0.000000 0.000000 0.000000
# 3 -0.003443 -0.003232 0.015946 0.000000 0.000000 0.000000
# 4 0.000000 0.000000 0.000000 0.034080 0.000000 0.000000
# 5 0.000000 0.000000 0.000000 0.000000 0.047998 0.000000
# 6 0.000000 0.000000 0.000000 0.000000 0.000000 0.020442
#
#
# Mechanical properties :
#
#
# Convention : Reuss Voigt Hill
#
# Bulk Modulus (GPa) = 65.84811 73.37691 69.61251
# Shear Modulus (GPa) = 31.93214 36.46909 34.20062
#
# Velocity S-wave (km/s) = 3.70973 3.96452 3.83924
# Velocity P-wave (km/s) = 6.83584 7.25124 7.04660
#
# Compressibility (1/GPa) = 0.01518646
#
# Stress axis : x y z
#
# Youngs Moduli (GPa) = 119.69798 128.31826 62.71313
#
# Poissons Ratio (x) = 0.22827 0.21591
# Poissons Ratio (y) = 0.21293 0.20266
# Poissons Ratio (z) = 0.41211 0.41467
#
# Static dielectric constant tensor:
#      x y z
#    x 1.949390 0.000000 0.000000 
#    y 0.000000 1.844780 0.000000 
#    z 0.000000 0.000000 1.911110 
# 
# From -- ./inp_files/45209.got.cif
#   From: 2010.05.17/outbox.cif.g08.bks.cpg/sg68_23_cif.got.tgz:45209.got - 2010.06.03 18:57:09.
