data_PCOD9510273
_publ_section_title
;
Structure prediction by ZEFSAII (Michael W. Deem and Ramdas Pophale) SiO2 
 PCOD9510273
Probable space group: C C C A
;
_chemical_formula_sum "Si O2"
_cell_formula_units_Z 72
_cell_length_a 22.322880
_cell_length_b 14.928487
_cell_length_c 9.318609
_cell_angle_alpha 90.000000
_cell_angle_beta 90.000000
_cell_angle_gamma 90.000000
_cell_volume 3105.396852
_symmetry_space_group_name_H-M "C C C A"
_symmetry_group_IT_number 68
_space_group.IT_coordinate_system_code '2'
_symmetry_cell_setting 'orthorhombic'
loop_
_space_group_symop_operation_xyz
x,y,z
-x,1/2-y,z
x,1/2-y,1/2-z
-x,y,1/2-z
-x,-y,-z
x,1/2+y,-z
-x,1/2+y,1/2+z
x,-y,1/2+z
1/2+x,1/2+y,z
1/2-x,-y,z
1/2+x,-y,1/2-z
1/2-x,1/2+y,1/2-z
1/2-x,1/2-y,-z
1/2+x,y,-z
1/2-x,y,1/2+z
1/2+x,1/2-y,1/2+z
loop_
_atom_site_type_symbol
_atom_site_label
_atom_site_fract_x
_atom_site_fract_y
_atom_site_fract_z
Si Si1 0.250000 0.500000 0.042826
Si Si2 0.446686 0.936431 0.359425
Si Si3 0.913604 0.761518 0.578625
Si Si4 0.287757 0.309948 0.608009
Si Si5 0.620860 0.437909 0.571542
O O1 0.262108 0.591421 0.129411
O O2 0.311449 0.472617 0.958119
O O3 0.500000 0.959229 0.250000
O O4 0.462830 0.840340 0.437093
O O5 0.392485 0.937503 0.241521
O O6 0.425828 0.001891 0.483418
O O7 0.919278 0.750000 0.750000
O O8 0.853781 0.817260 0.541701
O O9 0.896130 0.663705 0.521827
O O10 0.292124 0.250000 0.750000
O O11 0.250000 0.250000 0.500000
#
# Coordination Sequence:
#
# PCOD9510273 Si02
#       5
#     8  16  16  16  16
#     4  12  24  42  72 102 144 186 222 292 362 426
#     4  11  24  46  70  97 135 183 238 286 336 408
#     4   9  20  41  61  94 130 174 222 270 341 407
#     4  11  23  40  62  97 139 182 228 276 348 425
#     4  11  24  41  71 103 134 179 230 283 351 414
#
# _framework density 23.185442999999999
#
# number of rings (size 3 to 8) (size 9 to 14) (size 15 to 20)
#    0.000    1.333    4.444    0.667    0.000    7.556 
#    0.000    1.111    0.000    1.333    0.000    0.000 
#    0.000    0.000    0.000    0.000    0.000    0.000 
#
# Total GULP energy -200464.649746 kJ/mol
# GULP energy per Si atom -5568.462493 kJ/mol
# Density = 2.313267 g / cm^3
# Si number density = 23.185443 Si / 1000 Ang^3
#
#
#
# Elastic Constant Matrix: (Units=GPa)
#
#
# Indices 1 2 3 4 5 6 
#
# 1 97.1599 22.0997 11.7094 0.0000 0.0000 0.0000
# 2 22.0997 219.5128 43.3811 0.0000 0.0000 0.0000
# 3 11.7094 43.3811 48.5557 0.0000 0.0000 0.0000
# 4 0.0000 0.0000 0.0000 41.5807 0.0000 0.0000
# 5 0.0000 0.0000 0.0000 0.0000 29.5367 0.0000
# 6 0.0000 0.0000 0.0000 0.0000 0.0000 20.1499
#
#
#
# Elastic Compliance Matrix: (Units=1/GPa)
#
#
# Indices 1 2 3 4 5 6 
#
# 1 0.010685 -0.000688 -0.001962 0.000000 0.000000 0.000000
# 2 -0.000688 0.005577 -0.004816 0.000000 0.000000 0.000000
# 3 -0.001962 -0.004816 0.025371 0.000000 0.000000 0.000000
# 4 0.000000 0.000000 0.000000 0.024050 0.000000 0.000000
# 5 0.000000 0.000000 0.000000 0.000000 0.033856 0.000000
# 6 0.000000 0.000000 0.000000 0.000000 0.000000 0.049628
#
#
# Mechanical properties :
#
#
# Convention : Reuss Voigt Hill
#
# Bulk Modulus (GPa) = 37.45313 57.73432 47.59372
# Shear Modulus (GPa) = 28.90171 37.45599 33.17885
#
# Velocity S-wave (km/s) = 3.53448 4.02368 3.78699
# Velocity P-wave (km/s) = 5.73110 6.82216 6.30029
#
# Compressibility (1/GPa) = 0.02670004
#
# Stress axis : x y z
#
# Youngs Moduli (GPa) = 93.58678 179.31908 39.41475
#
# Poissons Ratio (x) = 0.12337 0.07734
# Poissons Ratio (y) = 0.06439 0.18984
# Poissons Ratio (z) = 0.18363 0.86368
#
# Static dielectric constant tensor:
#      x y z
#    x 2.067380 0.000000 0.000000 
#    y 0.000000 1.993120 0.000000 
#    z 0.000000 0.000000 1.821530 
# 
# From -- ./inp_files/8640.got.cif
#   From: 2010.05.17/outbox.cif.g08.bks.cpg/sg68_5_cif.got.tgz:8640.got - 2010.06.03 18:57:09.
