data_PCOD9510327
_publ_section_title
;
Structure prediction by ZEFSAII (Michael W. Deem and Ramdas Pophale) SiO2 
 PCOD9510327
Probable space group: C C C A
;
_chemical_formula_sum "Si O2"
_cell_formula_units_Z 72
_cell_length_a 24.057892
_cell_length_b 14.263418
_cell_length_c 8.950032
_cell_angle_alpha 90.000000
_cell_angle_beta 90.000000
_cell_angle_gamma 90.000000
_cell_volume 3071.183520
_symmetry_space_group_name_H-M "C C C A"
_symmetry_group_IT_number 68
_space_group.IT_coordinate_system_code '2'
_symmetry_cell_setting 'orthorhombic'
loop_
_space_group_symop_operation_xyz
x,y,z
-x,1/2-y,z
x,1/2-y,1/2-z
-x,y,1/2-z
-x,-y,-z
x,1/2+y,-z
-x,1/2+y,1/2+z
x,-y,1/2+z
1/2+x,1/2+y,z
1/2-x,-y,z
1/2+x,-y,1/2-z
1/2-x,1/2+y,1/2-z
1/2-x,1/2-y,-z
1/2+x,y,-z
1/2-x,y,1/2+z
1/2+x,1/2-y,1/2+z
loop_
_atom_site_type_symbol
_atom_site_label
_atom_site_fract_x
_atom_site_fract_y
_atom_site_fract_z
Si Si1 0.943665 0.397140 0.184145
Si Si2 0.293854 0.387240 0.445606
Si Si3 0.680442 0.086186 0.794905
Si Si4 0.858793 0.250000 0.750000
Si Si5 0.052828 0.598413 0.162049
O O1 0.879582 0.363633 0.190860
O O2 0.937945 0.495812 0.270339
O O3 0.000000 0.351369 0.250000
O O4 0.957500 0.411522 0.011974
O O5 0.301805 0.407208 0.621008
O O6 0.318703 0.477905 0.355100
O O7 0.229875 0.374264 0.397481
O O8 0.324488 0.296330 0.383460
O O9 0.896611 0.332613 0.813593
O O10 0.000000 0.637685 0.250000
#
# Coordination Sequence:
#
# PCOD9510327 Si02
#       5
#    16  16  16   8  16
#     4  11  23  42  79 103 132 183 244 281 331 416
#     4  11  25  43  74 100 136 185 229 294 356 408
#     4  11  23  45  73 101 135 181 247 283 334 423
#     4  12  27  42  70  98 147 182 222 288 374 400
#     4  11  24  44  72 103 140 183 233 283 345 414
#
# _framework density 23.443729999999999
#
# number of rings (size 3 to 8) (size 9 to 14) (size 15 to 20)
#    0.000    0.889    2.222    7.000    6.222    0.889 
#    0.000    0.000    0.000    0.000    0.000    0.000 
#    0.000    0.000    0.000    0.000    0.000    0.000 
#
# Total GULP energy -201320.409340 kJ/mol
# GULP energy per Si atom -5592.233593 kJ/mol
# Density = 2.339037 g / cm^3
# Si number density = 23.443730 Si / 1000 Ang^3
#
#
#
# Elastic Constant Matrix: (Units=GPa)
#
#
# Indices 1 2 3 4 5 6 
#
# 1 196.1696 18.9902 64.5013 0.0000 0.0000 0.0000
# 2 18.9902 71.3489 25.9510 0.0000 0.0000 0.0000
# 3 64.5013 25.9510 232.7551 0.0000 0.0000 0.0000
# 4 0.0000 0.0000 0.0000 -31.0676 0.0000 0.0000
# 5 0.0000 0.0000 0.0000 0.0000 32.2031 0.0000
# 6 0.0000 0.0000 0.0000 0.0000 0.0000 -102.7955
#
#
#
# Elastic Compliance Matrix: (Units=1/GPa)
#
#
# Indices 1 2 3 4 5 6 
#
# 1 0.005673 -0.000978 -0.001463 0.000000 0.000000 0.000000
# 2 -0.000978 0.014777 -0.001377 0.000000 0.000000 0.000000
# 3 -0.001463 -0.001377 0.004855 0.000000 0.000000 0.000000
# 4 0.000000 0.000000 0.000000 -0.032188 0.000000 0.000000
# 5 0.000000 0.000000 0.000000 0.000000 0.031053 0.000000
# 6 0.000000 0.000000 0.000000 0.000000 0.000000 -0.009728
#
#
# Mechanical properties :
#
#
# Convention : Reuss Voigt Hill
#
# Bulk Modulus (GPa) = 56.59260 79.90651 68.24956
# Shear Modulus (GPa) = 178.77931 5.72341 92.25136
#
# Velocity S-wave (km/s) = 8.74211 1.56417 6.27977
# Velocity P-wave (km/s) = 11.22904 6.11723 9.04190
#
# Compressibility (1/GPa) = 0.01767015
#
# Stress axis : x y z
#
# Youngs Moduli (GPa) = 176.26136 67.67474 205.95969
#
# Poissons Ratio (x) = 0.06617 0.30136
# Poissons Ratio (y) = 0.17235 0.28351
# Poissons Ratio (z) = 0.25790 0.09316
#
# Static dielectric constant tensor:
#      x y z
#    x 1.987110 0.000000 0.000000 
#    y 0.000000 1.897070 0.000000 
#    z 0.000000 0.000000 1.800110 
# 
# From -- ./inp_files/7864.got.cif
#   From: 2010.05.17/outbox.cif.g08.bks.cpg/sg68_4_cif.got.tgz:7864.got - 2010.06.03 18:57:09.
