data_PCOD9510956
_publ_section_title
;
Structure prediction by ZEFSAII (Michael W. Deem and Ramdas Pophale) SiO2 
 PCOD9510956
Probable space group: C C C A
;
_chemical_formula_sum "Si O2"
_cell_formula_units_Z 58
_cell_length_a 24.000000
_cell_length_b 9.000000
_cell_length_c 27.000000
_cell_angle_alpha 90.000000
_cell_angle_beta 90.000000
_cell_angle_gamma 90.000000
_cell_volume 5832.000000
_symmetry_space_group_name_H-M "C C C A"
_symmetry_group_IT_number 68
_space_group.IT_coordinate_system_code '2'
_symmetry_cell_setting 'orthorhombic'
loop_
_space_group_symop_operation_xyz
x,y,z
-x,1/2-y,z
x,1/2-y,1/2-z
-x,y,1/2-z
-x,-y,-z
x,1/2+y,-z
-x,1/2+y,1/2+z
x,-y,1/2+z
1/2+x,1/2+y,z
1/2-x,-y,z
1/2+x,-y,1/2-z
1/2-x,1/2+y,1/2-z
1/2-x,1/2-y,-z
1/2+x,y,-z
1/2-x,y,1/2+z
1/2+x,1/2-y,1/2+z
loop_
_atom_site_type_symbol
_atom_site_label
_atom_site_fract_x
_atom_site_fract_y
_atom_site_fract_z
Si Si1 0.380377 0.347517 0.099615
Si Si2 0.052895 0.157222 0.521082
Si Si3 0.209176 0.869625 0.206652
Si Si4 0.585937 0.607620 0.677483
Si Si5 0.254525 0.829031 0.886073
Si Si6 0.133777 0.663783 0.568987
Si Si7 0.542913 0.889040 0.405514
Si Si8 0.000000 0.250000 0.750000
O O1 0.418843 0.273949 0.058439
O O2 0.399302 0.260714 0.148317
O O3 0.314986 0.318320 0.087410
O O4 0.384340 0.524610 0.103215
O O5 0.103092 0.119969 0.482916
O O6 0.000000 0.250000 0.500266
O O7 0.031698 0.013277 0.551689
O O8 0.201481 0.750000 0.250000
O O9 0.148157 0.937135 0.194277
O O10 0.237888 0.786820 0.159122
O O11 0.250000 0.000000 0.222794
O O12 0.555557 0.488922 0.642377
O O13 0.541683 0.648427 0.718723
O O14 0.200000 0.812090 0.921455
O O15 0.250000 0.000000 0.867136
O O16 0.101897 0.813415 0.581996
O O17 0.500000 0.750000 0.398457
#
# Coordination Sequence:
#
# PCOD9510956 Si02
#       8
#    16  16  16  16  16  16  16   4
#     4   9  21  39  64  87 124 168 208 249 317 385
#     4  11  23  39  58  90 124 171 214 255 311 391
#     4  11  21  40  65  95 124 161 217 269 327 386
#     4  10  24  43  65  93 126 173 212 260 328 395
#     4   9  20  39  60  87 121 164 205 258 321 379
#     4  11  21  37  61  89 126 159 209 268 314 367
#     4  11  24  39  63  93 129 169 216 270 323 368
#     4  12  24  44  70  88 128 172 218 258 312 416
#
# _framework density 9.9451300000000007
#
# number of rings (size 3 to 8) (size 9 to 14) (size 15 to 20)
#    0.000    1.655    0.690    3.310    5.793    2.207 
#    0.000    3.103    0.000    0.000    0.000    0.000 
#    0.000    0.000    0.000    0.000    0.000    0.000 
#
# Total GULP energy -323346.177226 kJ/mol
# GULP energy per Si atom -5574.934090 kJ/mol
# Density = 0.992249 g / cm^3
# Si number density = 9.945130 Si / 1000 Ang^3
#
#
#
# Elastic Constant Matrix: (Units=GPa)
#
#
# Indices 1 2 3 4 5 6 
#
# 1 138.1040 43.5178 50.2464 0.0000 0.0000 0.0000
# 2 43.5178 102.2830 29.5060 0.0000 0.0000 0.0000
# 3 50.2464 29.5060 66.9347 0.0000 0.0000 0.0000
# 4 0.0000 0.0000 0.0000 378.5830 0.0000 0.0000
# 5 0.0000 0.0000 0.0000 0.0000 35.1579 0.0000
# 6 0.0000 0.0000 0.0000 0.0000 0.0000 38.7885
#
#
#
# Elastic Compliance Matrix: (Units=1/GPa)
#
#
# Indices 1 2 3 4 5 6 
#
# 1 0.010496 -0.002512 -0.006772 0.000000 0.000000 0.000000
# 2 -0.002512 0.011803 -0.003317 0.000000 0.000000 0.000000
# 3 -0.006772 -0.003317 0.021486 0.000000 0.000000 0.000000
# 4 0.000000 0.000000 0.000000 0.002641 0.000000 0.000000
# 5 0.000000 0.000000 0.000000 0.000000 0.028443 0.000000
# 6 0.000000 0.000000 0.000000 0.000000 0.000000 0.025781
#
#
# Mechanical properties :
#
#
# Convention : Reuss Voigt Hill
#
# Bulk Modulus (GPa) = 53.81448 61.54022 57.67735
# Shear Modulus (GPa) = 37.86553 102.77599 70.32076
#
# Velocity S-wave (km/s) = 4.36790 7.19609 5.95240
# Velocity P-wave (km/s) = 7.24931 10.00260 8.73511
#
# Compressibility (1/GPa) = 0.01858236
#
# Stress axis : x y z
#
# Youngs Moduli (GPa) = 95.27062 84.72771 46.54278
#
# Poissons Ratio (x) = 0.21286 0.31519
# Poissons Ratio (y) = 0.23935 0.15437
# Poissons Ratio (z) = 0.64517 0.28103
#
# Static dielectric constant tensor:
#      x y z
#    x 1.722710 0.000000 0.000000 
#    y 0.000000 1.701350 0.000000 
#    z 0.000000 0.000000 1.755060 
# 
# From -- ./inp_files/49645.got.cif
#   From: 2010.05.17/outbox.ucp.g08.bks.cvg/sg68_25_cif.got.tgz:49645.got - 2010.06.11 16:49:25.
