data_PCOD9510010
_publ_section_title
;
Structure prediction by ZEFSAII (Michael W. Deem and Ramdas Pophale) SiO2 
 PCOD9510010
Probable space group: C C C A
;
_chemical_formula_sum "Si O2"
_cell_formula_units_Z 72
_cell_length_a 9.917326
_cell_length_b 18.257811
_cell_length_c 19.138646
_cell_angle_alpha 90.000000
_cell_angle_beta 90.000000
_cell_angle_gamma 90.000000
_cell_volume 3465.409057
_symmetry_space_group_name_H-M "C C C A"
_symmetry_group_IT_number 68
_space_group.IT_coordinate_system_code '2'
_symmetry_cell_setting 'orthorhombic'
loop_
_space_group_symop_operation_xyz
x,y,z
-x,1/2-y,z
x,1/2-y,1/2-z
-x,y,1/2-z
-x,-y,-z
x,1/2+y,-z
-x,1/2+y,1/2+z
x,-y,1/2+z
1/2+x,1/2+y,z
1/2-x,-y,z
1/2+x,-y,1/2-z
1/2-x,1/2+y,1/2-z
1/2-x,1/2-y,-z
1/2+x,y,-z
1/2-x,y,1/2+z
1/2+x,1/2-y,1/2+z
loop_
_atom_site_type_symbol
_atom_site_label
_atom_site_fract_x
_atom_site_fract_y
_atom_site_fract_z
Si Si1 0.131198 0.630396 0.209978
Si Si2 0.928296 0.570532 0.586743
Si Si3 0.425190 0.172628 0.815628
Si Si4 0.873433 0.057590 0.564709
Si Si5 0.750000 0.000000 0.798486
O O1 0.270193 0.676010 0.207398
O O2 0.112440 0.613191 0.128340
O O3 0.162089 0.552290 0.248380
O O4 0.000000 0.660537 0.250000
O O5 0.866758 0.593110 0.512256
O O6 0.823770 0.555947 0.648704
O O7 0.043032 0.624439 0.616403
O O8 0.993553 0.491844 0.572003
O O9 0.500000 0.250000 0.825073
O O10 0.500000 0.135182 0.750000
O O11 0.750000 0.000000 0.572850
#
# Coordination Sequence:
#
# PCOD9510010 Si02
#       5
#    16  16  16  16   8
#     4  12  23  38  64  99 130 168 220 278 330 384
#     4  11  22  37  60  96 137 172 212 267 337 391
#     4  11  24  44  66  89 126 183 229 264 318 401
#     4  11  21  34  60 100 138 165 209 277 335 385
#     4  12  20  32  62 100 128 170 212 268 346 390
#
# _framework density 20.776767
#
# number of rings (size 3 to 8) (size 9 to 14) (size 15 to 20)
#    0.000    0.667    8.889    0.000    0.000    0.000 
#    0.000    3.333    0.000    0.000    0.000    0.000 
#    0.000    0.000    0.000    0.000    0.000    0.000 
#
# Total GULP energy -200771.994400 kJ/mol
# GULP energy per Si atom -5576.999844 kJ/mol
# Density = 2.072948 g / cm^3
# Si number density = 20.776767 Si / 1000 Ang^3
#
#
#
# Elastic Constant Matrix: (Units=GPa)
#
#
# Indices 1 2 3 4 5 6 
#
# 1 119.8079 29.3300 39.8471 0.0000 0.0000 0.0000
# 2 29.3300 52.8637 38.9871 0.0000 0.0000 0.0000
# 3 39.8471 38.9871 141.6672 0.0000 0.0000 0.0000
# 4 0.0000 0.0000 0.0000 13.4362 0.0000 0.0000
# 5 0.0000 0.0000 0.0000 0.0000 32.6470 0.0000
# 6 0.0000 0.0000 0.0000 0.0000 0.0000 20.1987
#
#
#
# Elastic Compliance Matrix: (Units=1/GPa)
#
#
# Indices 1 2 3 4 5 6 
#
# 1 0.009941 -0.004333 -0.001604 0.000000 0.000000 0.000000
# 2 -0.004333 0.025622 -0.005833 0.000000 0.000000 0.000000
# 3 -0.001604 -0.005833 0.009115 0.000000 0.000000 0.000000
# 4 0.000000 0.000000 0.000000 0.074426 0.000000 0.000000
# 5 0.000000 0.000000 0.000000 0.000000 0.030631 0.000000
# 6 0.000000 0.000000 0.000000 0.000000 0.000000 0.049508
#
#
# Mechanical properties :
#
#
# Convention : Reuss Voigt Hill
#
# Bulk Modulus (GPa) = 47.30388 58.96303 53.13346
# Shear Modulus (GPa) = 21.75553 27.00135 24.37844
#
# Velocity S-wave (km/s) = 3.23942 3.60890 3.42914
# Velocity P-wave (km/s) = 6.06703 6.76805 6.42710
#
# Compressibility (1/GPa) = 0.02113991
#
# Stress axis : x y z
#
# Youngs Moduli (GPa) = 100.59614 39.02903 109.70914
#
# Poissons Ratio (x) = 0.16910 0.17594
# Poissons Ratio (y) = 0.43584 0.63989
# Poissons Ratio (z) = 0.16133 0.22764
#
# Static dielectric constant tensor:
#      x y z
#    x 1.839340 0.000000 0.000000 
#    y 0.000000 1.723550 0.000000 
#    z 0.000000 0.000000 1.818340 
# 
# From -- ./inp_files/36045.got.cif
#   From: 2010.05.17/outbox.cif.g08.bks.cpg/sg68_19_cif.got.tgz:36045.got - 2010.06.03 18:57:09.
