data_PCOD9510536
_publ_section_title
;
Structure prediction by ZEFSAII (Michael W. Deem and Ramdas Pophale) SiO2 
 PCOD9510536
Probable space group: C C C A
;
_chemical_formula_sum "Si O2"
_cell_formula_units_Z 64
_cell_length_a 17.257665
_cell_length_b 7.438036
_cell_length_c 23.316706
_cell_angle_alpha 90.000000
_cell_angle_beta 90.000000
_cell_angle_gamma 90.000000
_cell_volume 2993.005446
_symmetry_space_group_name_H-M "C C C A"
_symmetry_group_IT_number 68
_space_group.IT_coordinate_system_code '2'
_symmetry_cell_setting 'orthorhombic'
loop_
_space_group_symop_operation_xyz
x,y,z
-x,1/2-y,z
x,1/2-y,1/2-z
-x,y,1/2-z
-x,-y,-z
x,1/2+y,-z
-x,1/2+y,1/2+z
x,-y,1/2+z
1/2+x,1/2+y,z
1/2-x,-y,z
1/2+x,-y,1/2-z
1/2-x,1/2+y,1/2-z
1/2-x,1/2-y,-z
1/2+x,y,-z
1/2-x,y,1/2+z
1/2+x,1/2-y,1/2+z
loop_
_atom_site_type_symbol
_atom_site_label
_atom_site_fract_x
_atom_site_fract_y
_atom_site_fract_z
Si Si1 0.891749 0.927188 0.087548
Si Si2 0.986106 0.465525 0.185144
Si Si3 0.834711 0.929488 0.376704
Si Si4 0.911244 0.294930 0.039530
O O1 0.832496 0.783806 0.113246
O O2 0.957761 0.950537 0.136329
O O3 0.865995 0.123209 0.065327
O O4 0.917299 0.834196 0.027842
O O5 0.000000 0.250000 0.183776
O O6 0.000000 0.526707 0.250000
O O7 0.898397 0.516770 0.170048
O O8 0.750000 0.000000 0.364304
O O9 0.870970 0.033075 0.431956
O O10 0.000000 0.250000 0.056839
#
# Coordination Sequence:
#
# PCOD9510536 Si02
#       4
#    16  16  16  16
#     4  12  23  42  74  97 136 187 236 279 337 412
#     4  11  24  48  75  99 131 182 242 287 334 417
#     4  12  26  42  66 105 143 172 225 285 355 413
#     4  12  22  40  67 103 134 182 234 278 332 413
#
# _framework density 21.383189999999999
#
# number of rings (size 3 to 8) (size 9 to 14) (size 15 to 20)
#    0.000    0.250    7.500    3.000    0.000    4.000 
#    0.000    5.000    0.000    0.000    0.000    0.000 
#    0.000    0.000    0.000    0.000    0.000    0.000 
#
# Total GULP energy -178637.861991 kJ/mol
# GULP energy per Si atom -5582.433187 kJ/mol
# Density = 2.133452 g / cm^3
# Si number density = 21.383190 Si / 1000 Ang^3
#
#
#
# Elastic Constant Matrix: (Units=GPa)
#
#
# Indices 1 2 3 4 5 6 
#
# 1 87.8234 26.1241 62.2037 0.0000 0.0000 0.0000
# 2 26.1241 141.2966 30.7199 0.0000 0.0000 0.0000
# 3 62.2037 30.7199 182.6082 0.0000 0.0000 0.0000
# 4 0.0000 0.0000 0.0000 13.9425 0.0000 0.0000
# 5 0.0000 0.0000 0.0000 0.0000 1.0333 0.0000
# 6 0.0000 0.0000 0.0000 0.0000 0.0000 25.4607
#
#
#
# Elastic Compliance Matrix: (Units=1/GPa)
#
#
# Indices 1 2 3 4 5 6 
#
# 1 0.015424 -0.001774 -0.004956 0.000000 0.000000 0.000000
# 2 -0.001774 0.007550 -0.000666 0.000000 0.000000 0.000000
# 3 -0.004956 -0.000666 0.007276 0.000000 0.000000 0.000000
# 4 0.000000 0.000000 0.000000 0.071723 0.000000 0.000000
# 5 0.000000 0.000000 0.000000 0.000000 0.967797 0.000000
# 6 0.000000 0.000000 0.000000 0.000000 0.000000 0.039276
#
#
# Mechanical properties :
#
#
# Convention : Reuss Voigt Hill
#
# Bulk Modulus (GPa) = 64.68619 72.20263 68.44441
# Shear Modulus (GPa) = 4.42873 27.59933 16.01403
#
# Velocity S-wave (km/s) = 1.44070 3.59653 2.73959
# Velocity P-wave (km/s) = 5.75188 7.14745 6.48730
#
# Compressibility (1/GPa) = 0.01545925
#
# Stress axis : x y z
#
# Youngs Moduli (GPa) = 64.83290 132.44846 137.43274
#
# Poissons Ratio (x) = 0.23501 0.68107
# Poissons Ratio (y) = 0.11504 0.09149
# Poissons Ratio (z) = 0.32129 0.08817
#
# Static dielectric constant tensor:
#      x y z
#    x 1.814230 0.000000 0.000000 
#    y 0.000000 1.851260 0.000000 
#    z 0.000000 0.000000 1.799690 
# 
# From -- ./inp_files/44969.got.cif
#   From: 2010.05.17/outbox.cif.g08.bks.cpg/sg68_23_cif.got.tgz:44969.got - 2010.06.03 18:57:09.
