data_PCOD9510068
_publ_section_title
;
Structure prediction by ZEFSAII (Michael W. Deem and Ramdas Pophale) SiO2 
 PCOD9510068
Probable space group: C C C A
;
_chemical_formula_sum "Si O2"
_cell_formula_units_Z 96
_cell_length_a 17.235618
_cell_length_b 18.543095
_cell_length_c 14.508722
_cell_angle_alpha 90.000000
_cell_angle_beta 90.000000
_cell_angle_gamma 90.000000
_cell_volume 4637.012244
_symmetry_space_group_name_H-M "C C C A"
_symmetry_group_IT_number 68
_space_group.IT_coordinate_system_code '2'
_symmetry_cell_setting 'orthorhombic'
loop_
_space_group_symop_operation_xyz
x,y,z
-x,1/2-y,z
x,1/2-y,1/2-z
-x,y,1/2-z
-x,-y,-z
x,1/2+y,-z
-x,1/2+y,1/2+z
x,-y,1/2+z
1/2+x,1/2+y,z
1/2-x,-y,z
1/2+x,-y,1/2-z
1/2-x,1/2+y,1/2-z
1/2-x,1/2-y,-z
1/2+x,y,-z
1/2-x,y,1/2+z
1/2+x,1/2-y,1/2+z
loop_
_atom_site_type_symbol
_atom_site_label
_atom_site_fract_x
_atom_site_fract_y
_atom_site_fract_z
Si Si1 0.131371 0.842056 0.451045
Si Si2 0.979118 0.447039 0.857467
Si Si3 0.405608 0.424934 0.526915
Si Si4 0.750903 0.923168 0.931923
Si Si5 0.755809 0.267139 0.648560
Si Si6 0.419652 0.736208 0.098691
O O1 0.082271 0.882225 0.373577
O O2 0.168421 0.902222 0.518811
O O3 0.200563 0.789678 0.417358
O O4 0.077778 0.790517 0.511771
O O5 0.000000 0.453897 0.750000
O O6 0.050821 0.432815 0.928027
O O7 0.940146 0.518630 0.900356
O O8 0.314515 0.434553 0.509171
O O9 0.416403 0.345448 0.566045
O O10 0.729214 0.850408 0.877258
O O11 0.750000 0.000000 0.879670
O O12 0.784507 0.250000 0.750000
O O13 0.663194 0.254566 0.643828
O O14 0.500000 0.750000 0.150534
#
# Coordination Sequence:
#
# PCOD9510068 Si02
#       6
#    16  16  16  16  16  16
#     4  11  21  40  67  95 128 172 234 273 336 411
#     4  11  26  41  66 103 136 171 222 282 339 408
#     4  11  22  45  66  93 138 177 219 276 340 403
#     4  11  21  42  71  93 126 187 226 272 349 408
#     4  11  25  41  63 102 137 169 235 291 332 413
#     4  11  21  42  68  89 125 187 226 270 349 409
#
# _framework density 20.702985000000002
#
# number of rings (size 3 to 8) (size 9 to 14) (size 15 to 20)
#    0.000    1.000    6.667    1.000    2.333    0.333 
#    6.000    1.667    0.000    0.000    0.000    0.000 
#    0.000    0.000    0.000    0.000    0.000    0.000 
#
# Total GULP energy -267970.081832 kJ/mol
# GULP energy per Si atom -5582.710038 kJ/mol
# Density = 2.065586 g / cm^3
# Si number density = 20.702985 Si / 1000 Ang^3
#
#
#
# Elastic Constant Matrix: (Units=GPa)
#
#
# Indices 1 2 3 4 5 6 
#
# 1 89.8254 31.2532 14.2243 0.0000 0.0000 0.0000
# 2 31.2532 172.9691 53.7409 0.0000 0.0000 0.0000
# 3 14.2243 53.7409 111.9274 0.0000 0.0000 0.0000
# 4 0.0000 0.0000 0.0000 3.4938 0.0000 0.0000
# 5 0.0000 0.0000 0.0000 0.0000 7.3063 0.0000
# 6 0.0000 0.0000 0.0000 0.0000 0.0000 33.9255
#
#
#
# Elastic Compliance Matrix: (Units=1/GPa)
#
#
# Indices 1 2 3 4 5 6 
#
# 1 0.011910 -0.001977 -0.000565 0.000000 0.000000 0.000000
# 2 -0.001977 0.007123 -0.003169 0.000000 0.000000 0.000000
# 3 -0.000565 -0.003169 0.010528 0.000000 0.000000 0.000000
# 4 0.000000 0.000000 0.000000 0.286223 0.000000 0.000000
# 5 0.000000 0.000000 0.000000 0.000000 0.136869 0.000000
# 6 0.000000 0.000000 0.000000 0.000000 0.000000 0.029476
#
#
# Mechanical properties :
#
#
# Convention : Reuss Voigt Hill
#
# Bulk Modulus (GPa) = 55.12510 63.68430 59.40470
# Shear Modulus (GPa) = 10.00811 27.31203 18.66007
#
# Velocity S-wave (km/s) = 2.20105 3.63606 3.00546
# Velocity P-wave (km/s) = 5.75708 6.96101 6.38747
#
# Compressibility (1/GPa) = 0.01814056
#
# Stress axis : x y z
#
# Youngs Moduli (GPa) = 83.96439 140.38887 94.98829
#
# Poissons Ratio (x) = 0.27748 0.05363
# Poissons Ratio (y) = 0.16596 0.30101
# Poissons Ratio (z) = 0.04740 0.44488
#
# Static dielectric constant tensor:
#      x y z
#    x 1.792710 0.000000 0.000000 
#    y 0.000000 1.779950 0.000000 
#    z 0.000000 0.000000 1.732440 
# 
# From -- ./inp_files/24427.got.cif
#   From: 2010.05.17/outbox.cif.g08.bks.cpg/sg68_13_cif.got.tgz:24427.got - 2010.06.03 18:57:09.
