data_PCOD9510031
_publ_section_title
;
Structure prediction by ZEFSAII (Michael W. Deem and Ramdas Pophale) SiO2 
 PCOD9510031
Probable space group: C C C A
;
_chemical_formula_sum "Si O2"
_cell_formula_units_Z 112
_cell_length_a 25.306419
_cell_length_b 12.555779
_cell_length_c 14.755792
_cell_angle_alpha 90.000000
_cell_angle_beta 90.000000
_cell_angle_gamma 90.000000
_cell_volume 4688.531973
_symmetry_space_group_name_H-M "C C C A"
_symmetry_group_IT_number 68
_space_group.IT_coordinate_system_code '2'
_symmetry_cell_setting 'orthorhombic'
loop_
_space_group_symop_operation_xyz
x,y,z
-x,1/2-y,z
x,1/2-y,1/2-z
-x,y,1/2-z
-x,-y,-z
x,1/2+y,-z
-x,1/2+y,1/2+z
x,-y,1/2+z
1/2+x,1/2+y,z
1/2-x,-y,z
1/2+x,-y,1/2-z
1/2-x,1/2+y,1/2-z
1/2-x,1/2-y,-z
1/2+x,y,-z
1/2-x,y,1/2+z
1/2+x,1/2-y,1/2+z
loop_
_atom_site_type_symbol
_atom_site_label
_atom_site_fract_x
_atom_site_fract_y
_atom_site_fract_z
Si Si1 0.052230 0.128652 0.606523
Si Si2 0.176820 0.251917 0.076203
Si Si3 0.442313 0.057145 0.358208
Si Si4 0.142683 0.356783 0.776256
Si Si5 0.917550 0.602444 0.566809
Si Si6 0.066662 0.324828 0.106975
Si Si7 0.773600 0.388351 0.586933
O O1 0.096777 0.192127 0.658608
O O2 0.054457 0.159354 0.501027
O O3 0.995454 0.126158 0.652970
O O4 0.074312 0.007965 0.616585
O O5 0.140758 0.149206 0.052384
O O6 0.130815 0.321815 0.124527
O O7 0.228294 0.195752 0.117908
O O8 0.195598 0.323876 0.991919
O O9 0.390197 0.084787 0.301687
O O10 0.435735 0.076305 0.465603
O O11 0.453695 0.931138 0.346030
O O12 0.173263 0.250000 0.750000
O O13 0.185217 0.420173 0.834574
O O14 0.947162 0.699934 0.618199
O O15 0.750000 0.500000 0.551981
#
# Coordination Sequence:
#
# PCOD9510031 Si02
#       7
#    16  16  16  16  16  16  16
#     4  11  21  37  62  95 126 175 209 255 329 391
#     4   9  20  37  66  95 115 157 215 260 328 384
#     4  11  23  35  62  96 130 167 215 257 327 398
#     4  12  25  44  59  86 132 169 216 267 322 398
#     4   9  19  38  65  90 128 156 207 273 317 382
#     4   9  19  37  61  93 126 155 211 273 315 386
#     4  11  22  41  66  91 121 170 212 274 335 386
#
# _framework density 23.888076000000002
#
# number of rings (size 3 to 8) (size 9 to 14) (size 15 to 20)
#    0.857    0.857    1.429    4.714    2.000    4.571 
#    2.571    0.714    0.000    1.714    0.000    0.000 
#    0.000    0.000    0.000    0.000    0.000    0.000 
#
# Total GULP energy -311985.859249 kJ/mol
# GULP energy per Si atom -5571.176058 kJ/mol
# Density = 2.383371 g / cm^3
# Si number density = 23.888076 Si / 1000 Ang^3
#
#
#
# Elastic Constant Matrix: (Units=GPa)
#
#
# Indices 1 2 3 4 5 6 
#
# 1 109.6390 24.1548 3.1800 0.0000 0.0000 0.0000
# 2 24.1548 136.1937 4.8400 0.0000 0.0000 0.0000
# 3 3.1800 4.8400 22.1679 0.0000 0.0000 0.0000
# 4 0.0000 0.0000 0.0000 15.7291 0.0000 0.0000
# 5 0.0000 0.0000 0.0000 0.0000 13.8587 0.0000
# 6 0.0000 0.0000 0.0000 0.0000 0.0000 46.9664
#
#
#
# Elastic Compliance Matrix: (Units=1/GPa)
#
#
# Indices 1 2 3 4 5 6 
#
# 1 0.009514 -0.001652 -0.001004 0.000000 0.000000 0.000000
# 2 -0.001652 0.007687 -0.001441 0.000000 0.000000 0.000000
# 3 -0.001004 -0.001441 0.045569 0.000000 0.000000 0.000000
# 4 0.000000 0.000000 0.000000 0.063576 0.000000 0.000000
# 5 0.000000 0.000000 0.000000 0.000000 0.072157 0.000000
# 6 0.000000 0.000000 0.000000 0.000000 0.000000 0.021292
#
#
# Mechanical properties :
#
#
# Convention : Reuss Voigt Hill
#
# Bulk Modulus (GPa) = 18.32334 36.92780 27.62557
# Shear Modulus (GPa) = 20.31029 31.03256 25.67143
#
# Velocity S-wave (km/s) = 2.91903 3.60819 3.28175
# Velocity P-wave (km/s) = 4.36442 5.73157 5.09407
#
# Compressibility (1/GPa) = 0.05457519
#
# Stress axis : x y z
#
# Youngs Moduli (GPa) = 105.10996 130.09591 21.94477
#
# Poissons Ratio (x) = 0.21487 0.02204
# Poissons Ratio (y) = 0.17361 0.03163
# Poissons Ratio (z) = 0.10555 0.18751
#
# Static dielectric constant tensor:
#      x y z
#    x 2.033860 0.000000 0.000000 
#    y 0.000000 1.985530 0.000000 
#    z 0.000000 0.000000 1.947080 
# 
# From -- ./inp_files/25482.got.cif
#   From: 2010.05.17/outbox.cif.g08.bks.cpg/sg68_13_cif.got.tgz:25482.got - 2010.06.03 18:57:09.
