data_PCOD9510159
_publ_section_title
;
Structure prediction by ZEFSAII (Michael W. Deem and Ramdas Pophale) SiO2 
 PCOD9510159
Probable space group: C C C A
;
_chemical_formula_sum "Si O2"
_cell_formula_units_Z 40
_cell_length_a 4.897192
_cell_length_b 13.888177
_cell_length_c 23.242332
_cell_angle_alpha 90.000000
_cell_angle_beta 90.000000
_cell_angle_gamma 90.000000
_cell_volume 1580.782337
_symmetry_space_group_name_H-M "C C C A"
_symmetry_group_IT_number 68
_space_group.IT_coordinate_system_code '2'
_symmetry_cell_setting 'orthorhombic'
loop_
_space_group_symop_operation_xyz
x,y,z
-x,1/2-y,z
x,1/2-y,1/2-z
-x,y,1/2-z
-x,-y,-z
x,1/2+y,-z
-x,1/2+y,1/2+z
x,-y,1/2+z
1/2+x,1/2+y,z
1/2-x,-y,z
1/2+x,-y,1/2-z
1/2-x,1/2+y,1/2-z
1/2-x,1/2-y,-z
1/2+x,y,-z
1/2-x,y,1/2+z
1/2+x,1/2-y,1/2+z
loop_
_atom_site_type_symbol
_atom_site_label
_atom_site_fract_x
_atom_site_fract_y
_atom_site_fract_z
Si Si1 0.498470 0.132751 0.034283
Si Si2 0.500000 0.435169 0.750000
Si Si3 0.753334 0.317440 0.355044
O O1 0.500000 0.250000 0.035015
O O2 0.629613 0.112509 0.096077
O O3 0.196931 0.102396 0.017424
O O4 0.250000 0.500000 0.772107
O O5 0.378417 0.372009 0.698775
O O6 0.500000 0.250000 0.336691
O O7 0.000000 0.250000 0.378817
#
# Coordination Sequence:
#
# PCOD9510159 Si02
#       3
#    16   8  16
#     4   9  16  29  54  90 122 146 186 252 314 358
#     4  12  27  44  61  86 128 172 210 260 319 368
#     4  11  22  39  65  92 119 158 212 259 300 368
#
# _framework density 25.303923999999999
#
# number of rings (size 3 to 8) (size 9 to 14) (size 15 to 20)
#    0.000    1.600    0.000    9.000    0.000    1.600 
#    0.000    0.000    0.000    7.200    0.000    0.000 
#    0.000    0.000    0.000    0.000    0.000    0.000 
#
# Total GULP energy -112035.387750 kJ/mol
# GULP energy per Si atom -5601.769388 kJ/mol
# Density = 2.524633 g / cm^3
# Si number density = 25.303924 Si / 1000 Ang^3
#
#
#
# Elastic Constant Matrix: (Units=GPa)
#
#
# Indices 1 2 3 4 5 6 
#
# 1 179.7068 16.9236 56.3756 0.0000 0.0000 0.0000
# 2 16.9236 73.5842 25.1836 0.0000 0.0000 0.0000
# 3 56.3756 25.1836 176.9372 0.0000 0.0000 0.0000
# 4 0.0000 0.0000 0.0000 36.6560 0.0000 0.0000
# 5 0.0000 0.0000 0.0000 0.0000 31.3628 0.0000
# 6 0.0000 0.0000 0.0000 0.0000 0.0000 28.8458
#
#
#
# Elastic Compliance Matrix: (Units=1/GPa)
#
#
# Indices 1 2 3 4 5 6 
#
# 1 0.006226 -0.000792 -0.001871 0.000000 0.000000 0.000000
# 2 -0.000792 0.014386 -0.001795 0.000000 0.000000 0.000000
# 3 -0.001871 -0.001795 0.006503 0.000000 0.000000 0.000000
# 4 0.000000 0.000000 0.000000 0.027281 0.000000 0.000000
# 5 0.000000 0.000000 0.000000 0.000000 0.031885 0.000000
# 6 0.000000 0.000000 0.000000 0.000000 0.000000 0.034667
#
#
# Mechanical properties :
#
#
# Convention : Reuss Voigt Hill
#
# Bulk Modulus (GPa) = 54.94571 69.68820 62.31695
# Shear Modulus (GPa) = 36.78327 41.48929 39.13628
#
# Velocity S-wave (km/s) = 3.81682 4.05364 3.93701
# Velocity P-wave (km/s) = 6.41760 7.03630 6.73406
#
# Compressibility (1/GPa) = 0.01819978
#
# Stress axis : x y z
#
# Youngs Moduli (GPa) = 160.61298 69.51011 153.76494
#
# Poissons Ratio (x) = 0.05502 0.28771
# Poissons Ratio (y) = 0.12714 0.27607
# Poissons Ratio (z) = 0.30052 0.12480
#
# Static dielectric constant tensor:
#      x y z
#    x 1.949700 0.000000 0.000000 
#    y 0.000000 2.073490 0.000000 
#    z 0.000000 0.000000 2.031450 
# 
# From -- ./inp_files/34668.got.cif
#   From: 2010.05.17/outbox.cif.g08.bks.cpg/sg68_18_cif.got.tgz:34668.got - 2010.06.03 18:57:09.
