data_PCOD9510752
_publ_section_title
;
Structure prediction by ZEFSAII (Michael W. Deem and Ramdas Pophale) SiO2 
 PCOD9510752
Probable space group: C C C A
;
_chemical_formula_sum "Si O2"
_cell_formula_units_Z 48
_cell_length_a 14.080191
_cell_length_b 4.831300
_cell_length_c 32.299861
_cell_angle_alpha 90.000000
_cell_angle_beta 90.000000
_cell_angle_gamma 90.000000
_cell_volume 2197.218289
_symmetry_space_group_name_H-M "C C C A"
_symmetry_group_IT_number 68
_space_group.IT_coordinate_system_code '2'
_symmetry_cell_setting 'orthorhombic'
loop_
_space_group_symop_operation_xyz
x,y,z
-x,1/2-y,z
x,1/2-y,1/2-z
-x,y,1/2-z
-x,-y,-z
x,1/2+y,-z
-x,1/2+y,1/2+z
x,-y,1/2+z
1/2+x,1/2+y,z
1/2-x,-y,z
1/2+x,-y,1/2-z
1/2-x,1/2+y,1/2-z
1/2-x,1/2-y,-z
1/2+x,y,-z
1/2-x,y,1/2+z
1/2+x,1/2-y,1/2+z
loop_
_atom_site_type_symbol
_atom_site_label
_atom_site_fract_x
_atom_site_fract_y
_atom_site_fract_z
Si Si1 0.250000 0.500000 0.778530
Si Si2 0.000000 0.750000 0.968509
Si Si3 0.166883 0.289312 0.097819
Si Si4 0.886410 0.770221 0.347897
O O1 0.286088 0.250000 0.750000
O O2 0.166794 0.374547 0.807215
O O3 0.910670 0.715001 0.938215
O O4 0.000000 0.500000 0.000000
O O5 0.250000 0.500000 0.081386
O O6 0.141164 0.460398 0.139230
O O7 0.155000 0.972330 0.115526
O O8 0.000000 0.750000 0.345752
#
# Coordination Sequence:
#
# PCOD9510752 Si02
#       4
#     8   8  16  16
#     4  12  26  44  70 106 148 176 230 316 370 408
#     4  12  26  42  66 104 147 174 229 308 362 408
#     4  12  23  43  72 100 133 187 241 285 349 439
#     4  12  23  44  73 101 133 190 241 282 352 448
#
# _framework density 21.845804000000001
#
# number of rings (size 3 to 8) (size 9 to 14) (size 15 to 20)
#    0.000    0.000    6.667    4.000    0.000    2.000 
#    0.000    1.667    0.000    0.000    0.000    0.000 
#    0.000    0.000    0.000    0.000    0.000    0.000 
#
# Total GULP energy -133671.566853 kJ/mol
# GULP energy per Si atom -5569.648619 kJ/mol
# Density = 2.179608 g / cm^3
# Si number density = 21.845804 Si / 1000 Ang^3
#
#
#
# Elastic Constant Matrix: (Units=GPa)
#
#
# Indices 1 2 3 4 5 6 
#
# 1 125.8403 -2.1959 20.3003 0.0000 0.0000 0.0000
# 2 -2.1959 157.7122 29.8560 0.0000 0.0000 0.0000
# 3 20.3003 29.8560 106.0662 0.0000 0.0000 0.0000
# 4 0.0000 0.0000 0.0000 31.5877 0.0000 0.0000
# 5 0.0000 0.0000 0.0000 0.0000 4.0626 0.0000
# 6 0.0000 0.0000 0.0000 0.0000 0.0000 29.7978
#
#
#
# Elastic Compliance Matrix: (Units=1/GPa)
#
#
# Indices 1 2 3 4 5 6 
#
# 1 0.008228 0.000436 -0.001697 0.000000 0.000000 0.000000
# 2 0.000436 0.006721 -0.001975 0.000000 0.000000 0.000000
# 3 -0.001697 -0.001975 0.010309 0.000000 0.000000 0.000000
# 4 0.000000 0.000000 0.000000 0.031658 0.000000 0.000000
# 5 0.000000 0.000000 0.000000 0.000000 0.246146 0.000000
# 6 0.000000 0.000000 0.000000 0.000000 0.000000 0.033560
#
#
# Mechanical properties :
#
#
# Convention : Reuss Voigt Hill
#
# Bulk Modulus (GPa) = 53.23654 53.94882 53.59268
# Shear Modulus (GPa) = 14.31204 35.86685 25.08944
#
# Velocity S-wave (km/s) = 2.56235 4.05633 3.39260
# Velocity P-wave (km/s) = 5.75989 6.83281 6.31916
#
# Compressibility (1/GPa) = 0.01878409
#
# Stress axis : x y z
#
# Youngs Moduli (GPa) = 121.53589 148.79519 97.00314
#
# Poissons Ratio (x) = -0.06486 0.16466
# Poissons Ratio (y) = -0.05298 0.19160
# Poissons Ratio (z) = 0.20631 0.29390
#
# Static dielectric constant tensor:
#      x y z
#    x 2.029820 0.000000 0.000000 
#    y 0.000000 2.374560 0.000000 
#    z 0.000000 0.000000 1.735260 
# 
# From -- ./inp_files/55007.got.cif
#   From: 2010.05.17/outbox.cif.g08.bks.cpg/sg68_28_cif.got.tgz:55007.got - 2010.06.03 18:57:09.
