data_PCOD9510770
_publ_section_title
;
Structure prediction by ZEFSAII (Michael W. Deem and Ramdas Pophale) SiO2 
 PCOD9510770
Probable space group: C C C A
;
_chemical_formula_sum "Si O2"
_cell_formula_units_Z 52
_cell_length_a 31.248205
_cell_length_b 6.632005
_cell_length_c 8.795928
_cell_angle_alpha 90.000000
_cell_angle_beta 90.000000
_cell_angle_gamma 90.000000
_cell_volume 1822.852742
_symmetry_space_group_name_H-M "C C C A"
_symmetry_group_IT_number 68
_space_group.IT_coordinate_system_code '2'
_symmetry_cell_setting 'orthorhombic'
loop_
_space_group_symop_operation_xyz
x,y,z
-x,1/2-y,z
x,1/2-y,1/2-z
-x,y,1/2-z
-x,-y,-z
x,1/2+y,-z
-x,1/2+y,1/2+z
x,-y,1/2+z
1/2+x,1/2+y,z
1/2-x,-y,z
1/2+x,-y,1/2-z
1/2-x,1/2+y,1/2-z
1/2-x,1/2-y,-z
1/2+x,y,-z
1/2-x,y,1/2+z
1/2+x,1/2-y,1/2+z
loop_
_atom_site_type_symbol
_atom_site_label
_atom_site_fract_x
_atom_site_fract_y
_atom_site_fract_z
Si Si1 0.074610 0.982931 0.239283
Si Si2 0.701720 0.758684 0.936475
Si Si3 0.500000 0.750000 0.250000
Si Si4 0.365295 0.492575 0.015608
O O1 0.065416 0.750000 0.250000
O O2 0.120952 0.033570 0.310810
O O3 0.088229 0.034953 0.067701
O O4 0.035229 0.097854 0.314838
O O5 0.704709 0.750000 0.750000
O O6 0.690077 0.509915 0.004478
O O7 0.750000 0.750000 0.000000
O O8 0.646096 0.761947 0.963798
#
# Coordination Sequence:
#
# PCOD9510770 Si02
#       4
#    16  16   4  16
#     4  12  27  53  76 115 155 201 260 322 386 479
#     4  12  27  44  71 114 153 201 267 322 372 465
#     4  12  30  48  88 116 144 208 254 326 404 454
#     4  12  23  51  74 102 156 206 248 315 393 450
#
# _framework density 28.526714999999999
#
# number of rings (size 3 to 8) (size 9 to 14) (size 15 to 20)
#    0.000    0.000    6.154    3.231    4.308    3.692 
#    0.000    0.000    0.000    0.000    0.000    0.000 
#    0.000    0.000    0.000    0.000    0.000    0.000 
#
# Total GULP energy -144859.930929 kJ/mol
# GULP energy per Si atom -5571.535805 kJ/mol
# Density = 2.846179 g / cm^3
# Si number density = 28.526715 Si / 1000 Ang^3
#
#
#
# Elastic Constant Matrix: (Units=GPa)
#
#
# Indices 1 2 3 4 5 6 
#
# 1 253.0014 112.7612 66.7649 0.0000 0.0000 0.0000
# 2 112.7612 269.3540 64.4802 0.0000 0.0000 0.0000
# 3 66.7649 64.4802 121.2393 0.0000 0.0000 0.0000
# 4 0.0000 0.0000 0.0000 48.1901 0.0000 0.0000
# 5 0.0000 0.0000 0.0000 0.0000 7.1165 0.0000
# 6 0.0000 0.0000 0.0000 0.0000 0.0000 101.5263
#
#
#
# Elastic Compliance Matrix: (Units=1/GPa)
#
#
# Indices 1 2 3 4 5 6 
#
# 1 0.005240 -0.001722 -0.001970 0.000000 0.000000 0.000000
# 2 -0.001722 0.004820 -0.001615 0.000000 0.000000 0.000000
# 3 -0.001970 -0.001615 0.010192 0.000000 0.000000 0.000000
# 4 0.000000 0.000000 0.000000 0.020751 0.000000 0.000000
# 5 0.000000 0.000000 0.000000 0.000000 0.140518 0.000000
# 6 0.000000 0.000000 0.000000 0.000000 0.000000 0.009850
#
#
# Mechanical properties :
#
#
# Convention : Reuss Voigt Hill
#
# Bulk Modulus (GPa) = 103.75648 125.73416 114.74532
# Shear Modulus (GPa) = 24.36674 58.00581 41.18628
#
# Velocity S-wave (km/s) = 2.92579 4.51420 3.80383
# Velocity P-wave (km/s) = 6.91841 8.44644 7.72032
#
# Compressibility (1/GPa) = 0.00963795
#
# Stress axis : x y z
#
# Youngs Moduli (GPa) = 190.84567 207.46108 98.11741
#
# Poissons Ratio (x) = 0.35726 0.19326
# Poissons Ratio (y) = 0.32865 0.15848
# Poissons Ratio (z) = 0.37590 0.33510
#
# Static dielectric constant tensor:
#      x y z
#    x 1.975710 0.000000 0.000000 
#    y 0.000000 2.591600 0.000000 
#    z 0.000000 0.000000 2.107740 
# 
# From -- ./inp_files/16809.got.cif
#   From: 2010.05.17/outbox.cif.g08.bks.cpg/sg68_9_cif.got.tgz:16809.got - 2010.06.03 18:57:09.
