data_PCOD9510957
_publ_section_title
;
Structure prediction by ZEFSAII (Michael W. Deem and Ramdas Pophale) SiO2 
 PCOD9510957
Probable space group: C C C A
;
_chemical_formula_sum "Si O2"
_cell_formula_units_Z 56
_cell_length_a 12.000000
_cell_length_b 15.000000
_cell_length_c 30.000000
_cell_angle_alpha 90.000000
_cell_angle_beta 90.000000
_cell_angle_gamma 90.000000
_cell_volume 5400.000000
_symmetry_space_group_name_H-M "C C C A"
_symmetry_group_IT_number 68
_space_group.IT_coordinate_system_code '2'
_symmetry_cell_setting 'orthorhombic'
loop_
_space_group_symop_operation_xyz
x,y,z
-x,1/2-y,z
x,1/2-y,1/2-z
-x,y,1/2-z
-x,-y,-z
x,1/2+y,-z
-x,1/2+y,1/2+z
x,-y,1/2+z
1/2+x,1/2+y,z
1/2-x,-y,z
1/2+x,-y,1/2-z
1/2-x,1/2+y,1/2-z
1/2-x,1/2-y,-z
1/2+x,y,-z
1/2-x,y,1/2+z
1/2+x,1/2-y,1/2+z
loop_
_atom_site_type_symbol
_atom_site_label
_atom_site_fract_x
_atom_site_fract_y
_atom_site_fract_z
Si Si1 0.512863 0.598926 0.198689
Si Si2 0.732911 0.397600 0.204892
Si Si3 0.648002 0.065610 0.194364
Si Si4 0.714085 0.896404 0.028465
Si Si5 0.166665 0.249092 0.858128
Si Si6 0.380412 0.768869 0.543642
Si Si7 0.595451 0.816979 0.110878
O O1 0.500000 0.627407 0.250000
O O2 0.640393 0.629497 0.194952
O O3 0.462801 0.496580 0.198290
O O4 0.448969 0.640250 0.156799
O O5 0.750000 0.500000 0.189876
O O6 0.691446 0.403352 0.256334
O O7 0.659170 0.327158 0.178331
O O8 0.633910 0.153037 0.163498
O O9 0.750000 0.000000 0.178313
O O10 0.810607 0.822912 0.038208
O O11 0.630236 0.883304 0.070672
O O12 0.750000 0.000000 0.025304
O O13 0.667122 0.854507 0.982409
O O14 0.109602 0.282426 0.903419
O O15 0.293255 0.234522 0.874847
O O16 0.500000 0.750000 0.523311
O O17 0.500000 0.750000 0.094448
#
# Coordination Sequence:
#
# PCOD9510957 Si02
#       7
#    16  16  16  16  16  16  16
#     4  12  22  38  63  97 131 179 227 275 330 393
#     4  11  23  41  59  89 136 180 227 278 325 396
#     4  11  22  38  63  92 136 176 225 281 328 402
#     4  10  24  46  74  99 133 174 222 281 348 408
#     4  11  23  40  64  94 132 176 219 277 341 392
#     4  10  24  46  68 102 137 169 223 287 340 421
#     4  11  22  38  66 100 128 167 219 281 332 405
#
# _framework density 10.370369999999999
#
# number of rings (size 3 to 8) (size 9 to 14) (size 15 to 20)
#    0.000    1.143    5.714    0.857    4.000    2.571 
#    0.000    0.000    0.000    0.000    0.000    0.000 
#    0.000    0.000    0.000    0.000    0.000    0.000 
#
# Total GULP energy -311970.410687 kJ/mol
# GULP energy per Si atom -5570.900191 kJ/mol
# Density = 1.034677 g / cm^3
# Si number density = 10.370370 Si / 1000 Ang^3
#
#
#
# Elastic Constant Matrix: (Units=GPa)
#
#
# Indices 1 2 3 4 5 6 
#
# 1 59.4509 15.5908 33.2278 0.0000 0.0000 0.0000
# 2 15.5908 131.1907 72.4262 0.0000 0.0000 0.0000
# 3 33.2278 72.4262 135.6489 0.0000 0.0000 0.0000
# 4 0.0000 0.0000 0.0000 28.3074 0.0000 0.0000
# 5 0.0000 0.0000 0.0000 0.0000 13.4909 0.0000
# 6 0.0000 0.0000 0.0000 0.0000 0.0000 29.0309
#
#
#
# Elastic Compliance Matrix: (Units=1/GPa)
#
#
# Indices 1 2 3 4 5 6 
#
# 1 0.019508 0.000453 -0.005021 0.000000 0.000000 0.000000
# 2 0.000453 0.010819 -0.005888 0.000000 0.000000 0.000000
# 3 -0.005021 -0.005888 0.011745 0.000000 0.000000 0.000000
# 4 0.000000 0.000000 0.000000 0.035326 0.000000 0.000000
# 5 0.000000 0.000000 0.000000 0.000000 0.074124 0.000000
# 6 0.000000 0.000000 0.000000 0.000000 0.000000 0.034446
#
#
# Mechanical properties :
#
#
# Convention : Reuss Voigt Hill
#
# Bulk Modulus (GPa) = 47.25340 63.19779 55.22559
# Shear Modulus (GPa) = 23.37190 27.83556 25.60373
#
# Velocity S-wave (km/s) = 3.36051 3.66740 3.51731
# Velocity P-wave (km/s) = 6.15547 6.96201 6.57113
#
# Compressibility (1/GPa) = 0.02116250
#
# Stress axis : x y z
#
# Youngs Moduli (GPa) = 51.26160 92.43053 85.14050
#
# Poissons Ratio (x) = -0.04191 0.42746
# Poissons Ratio (y) = -0.02324 0.50127
# Poissons Ratio (z) = 0.25736 0.54419
#
# Static dielectric constant tensor:
#      x y z
#    x 1.836650 0.000000 0.000000 
#    y 0.000000 1.687260 0.000000 
#    z 0.000000 0.000000 2.604810 
# 
# From -- ./inp_files/54827.got.cif
#   From: 2010.05.17/outbox.ucp.g08.bks.cvg/sg68_28_cif.got.tgz:54827.got - 2010.06.11 16:49:25.
