data_PCOD9510104
_publ_section_title
;
Structure prediction by ZEFSAII (Michael W. Deem and Ramdas Pophale) SiO2 
 PCOD9510104
Probable space group: C C C A
;
_chemical_formula_sum "Si O2"
_cell_formula_units_Z 84
_cell_length_a 10.129918
_cell_length_b 24.832652
_cell_length_c 14.168030
_cell_angle_alpha 90.000000
_cell_angle_beta 90.000000
_cell_angle_gamma 90.000000
_cell_volume 3564.006604
_symmetry_space_group_name_H-M "C C C A"
_symmetry_group_IT_number 68
_space_group.IT_coordinate_system_code '2'
_symmetry_cell_setting 'orthorhombic'
loop_
_space_group_symop_operation_xyz
x,y,z
-x,1/2-y,z
x,1/2-y,1/2-z
-x,y,1/2-z
-x,-y,-z
x,1/2+y,-z
-x,1/2+y,1/2+z
x,-y,1/2+z
1/2+x,1/2+y,z
1/2-x,-y,z
1/2+x,-y,1/2-z
1/2-x,1/2+y,1/2-z
1/2-x,1/2-y,-z
1/2+x,y,-z
1/2-x,y,1/2+z
1/2+x,1/2-y,1/2+z
loop_
_atom_site_type_symbol
_atom_site_label
_atom_site_fract_x
_atom_site_fract_y
_atom_site_fract_z
Si Si1 0.660265 0.581419 0.355430
Si Si2 0.097177 0.374581 0.952235
Si Si3 0.500000 0.750000 0.250000
Si Si4 0.427289 0.307337 0.161582
Si Si5 0.200373 0.334213 0.294172
Si Si6 0.045422 0.966966 0.356413
O O1 0.632874 0.623091 0.439210
O O2 0.652059 0.610517 0.254267
O O3 0.809609 0.559344 0.366910
O O4 0.564190 0.530617 0.368977
O O5 0.209966 0.348735 0.884679
O O6 0.964937 0.340410 0.929944
O O7 0.060253 0.435196 0.919544
O O8 0.586977 0.791055 0.312494
O O9 0.500000 0.250000 0.152622
O O10 0.500000 0.336725 0.250000
O O11 0.283441 0.307146 0.206251
O O12 0.000000 0.958843 0.250000
#
# Coordination Sequence:
#
# PCOD9510104 Si02
#       6
#    16  16   4  16  16  16
#     4  11  25  41  71 110 139 181 245 294 365 428
#     4  11  21  44  74 100 144 187 241 299 355 440
#     4  12  28  44  70 108 152 190 244 306 362 432
#     4   9  17  37  71  98 128 192 248 283 348 433
#     4  11  23  47  67 100 148 191 233 301 373 422
#     4  11  22  47  70 102 143 191 237 289 363 448
#
# _framework density 23.568978999999999
#
# number of rings (size 3 to 8) (size 9 to 14) (size 15 to 20)
#    0.000    1.333    3.810    3.429    1.333    1.524 
#    8.571    1.905    0.000    0.000    0.000    0.000 
#    0.000    0.000    0.000    0.000    0.000    0.000 
#
# Total GULP energy -234559.571788 kJ/mol
# GULP energy per Si atom -5584.751709 kJ/mol
# Density = 2.351533 g / cm^3
# Si number density = 23.568979 Si / 1000 Ang^3
#
#
#
# Elastic Constant Matrix: (Units=GPa)
#
#
# Indices 1 2 3 4 5 6 
#
# 1 73.6802 37.2418 8.2463 0.0000 0.0000 0.0000
# 2 37.2418 125.6232 12.0600 0.0000 0.0000 0.0000
# 3 8.2463 12.0600 62.5445 0.0000 0.0000 0.0000
# 4 0.0000 0.0000 0.0000 31.6618 0.0000 0.0000
# 5 0.0000 0.0000 0.0000 0.0000 28.9086 0.0000
# 6 0.0000 0.0000 0.0000 0.0000 0.0000 48.5732
#
#
#
# Elastic Compliance Matrix: (Units=1/GPa)
#
#
# Indices 1 2 3 4 5 6 
#
# 1 0.016055 -0.004642 -0.001222 0.000000 0.000000 0.000000
# 2 -0.004642 0.009453 -0.001211 0.000000 0.000000 0.000000
# 3 -0.001222 -0.001211 0.016383 0.000000 0.000000 0.000000
# 4 0.000000 0.000000 0.000000 0.031584 0.000000 0.000000
# 5 0.000000 0.000000 0.000000 0.000000 0.034592 0.000000
# 6 0.000000 0.000000 0.000000 0.000000 0.000000 0.020587
#
#
# Mechanical properties :
#
#
# Convention : Reuss Voigt Hill
#
# Bulk Modulus (GPa) = 36.04663 41.88269 38.96466
# Shear Modulus (GPa) = 32.88364 35.44870 34.16617
#
# Velocity S-wave (km/s) = 3.73930 3.88240 3.81152
# Velocity P-wave (km/s) = 5.82842 6.15681 5.99486
#
# Compressibility (1/GPa) = 0.02774184
#
# Stress axis : x y z
#
# Youngs Moduli (GPa) = 62.28422 105.78852 61.03844
#
# Poissons Ratio (x) = 0.49112 0.07457
# Poissons Ratio (y) = 0.28915 0.07390
# Poissons Ratio (z) = 0.07609 0.12807
#
# Static dielectric constant tensor:
#      x y z
#    x 2.039430 0.000000 0.000000 
#    y 0.000000 1.961000 0.000000 
#    z 0.000000 0.000000 1.853820 
# 
# From -- ./inp_files/20958.got.cif
#   From: 2010.05.17/outbox.cif.g08.bks.cpg/sg68_11_cif.got.tgz:20958.got - 2010.06.03 18:57:09.
