data_PCOD9510680
_publ_section_title
;
Structure prediction by ZEFSAII (Michael W. Deem and Ramdas Pophale) SiO2 
 PCOD9510680
Probable space group: C C C A
;
_chemical_formula_sum "Si O2"
_cell_formula_units_Z 96
_cell_length_a 19.409687
_cell_length_b 18.387450
_cell_length_c 12.441112
_cell_angle_alpha 90.000000
_cell_angle_beta 90.000000
_cell_angle_gamma 90.000000
_cell_volume 4440.166303
_symmetry_space_group_name_H-M "C C C A"
_symmetry_group_IT_number 68
_space_group.IT_coordinate_system_code '2'
_symmetry_cell_setting 'orthorhombic'
loop_
_space_group_symop_operation_xyz
x,y,z
-x,1/2-y,z
x,1/2-y,1/2-z
-x,y,1/2-z
-x,-y,-z
x,1/2+y,-z
-x,1/2+y,1/2+z
x,-y,1/2+z
1/2+x,1/2+y,z
1/2-x,-y,z
1/2+x,-y,1/2-z
1/2-x,1/2+y,1/2-z
1/2-x,1/2-y,-z
1/2+x,y,-z
1/2-x,y,1/2+z
1/2+x,1/2-y,1/2+z
loop_
_atom_site_type_symbol
_atom_site_label
_atom_site_fract_x
_atom_site_fract_y
_atom_site_fract_z
Si Si1 0.000000 0.346119 0.250000
Si Si2 0.362610 0.405849 0.858996
Si Si3 0.779522 0.876391 0.242133
Si Si4 0.316830 0.792222 0.962512
Si Si5 0.642005 0.070337 0.440648
Si Si6 0.557058 0.806015 0.024995
Si Si7 0.250000 0.500000 0.598522
O O1 0.062293 0.384823 0.314561
O O2 0.042430 0.308931 0.152456
O O3 0.301145 0.383853 0.775834
O O4 0.375276 0.235778 0.007837
O O5 0.339522 0.362280 0.966395
O O6 0.801844 0.814076 0.160240
O O7 0.823232 0.879732 0.349918
O O8 0.795053 0.949616 0.175255
O O9 0.250000 0.750000 0.000000
O O10 0.200466 0.947159 0.969916
O O11 0.573998 0.111570 0.484988
O O12 0.632984 0.990762 0.388419
O O13 0.500000 0.750000 0.978869
#
# Coordination Sequence:
#
# PCOD9510680 Si02
#       7
#     8  16  16  16  16  16   8
#     4  12  27  48  78 102 147 208 264 306 385 470
#     4  12  24  45  74 112 148 194 261 324 385 469
#     4  12  23  43  75 110 152 190 246 330 406 445
#     4  12  26  44  74 110 149 201 261 321 392 477
#     4  12  25  45  77 112 153 197 259 331 392 465
#     4  12  28  51  72 106 158 208 256 319 383 483
#     4  12  18  42  72 116 146 184 252 326 388 456
#
# _framework density 21.620812000000001
#
# number of rings (size 3 to 8) (size 9 to 14) (size 15 to 20)
#    0.000    0.000    6.667    4.250    0.000    4.667 
#    3.000    0.833    0.000    0.000    0.000    0.000 
#    0.000    0.000    0.000    0.000    0.000    0.000 
#
# Total GULP energy -267826.633060 kJ/mol
# GULP energy per Si atom -5579.721522 kJ/mol
# Density = 2.157160 g / cm^3
# Si number density = 21.620812 Si / 1000 Ang^3
#
#
#
# Elastic Constant Matrix: (Units=GPa)
#
#
# Indices 1 2 3 4 5 6 
#
# 1 136.2288 57.9348 56.2907 0.0000 0.0000 0.0000
# 2 57.9348 108.9057 60.6618 0.0000 0.0000 0.0000
# 3 56.2907 60.6618 145.7504 0.0000 0.0000 0.0000
# 4 0.0000 0.0000 0.0000 46.4898 0.0000 0.0000
# 5 0.0000 0.0000 0.0000 0.0000 34.6978 0.0000
# 6 0.0000 0.0000 0.0000 0.0000 0.0000 47.1245
#
#
#
# Elastic Compliance Matrix: (Units=1/GPa)
#
#
# Indices 1 2 3 4 5 6 
#
# 1 0.009974 -0.004114 -0.002140 0.000000 0.000000 0.000000
# 2 -0.004114 0.013650 -0.004092 0.000000 0.000000 0.000000
# 3 -0.002140 -0.004092 0.009391 0.000000 0.000000 0.000000
# 4 0.000000 0.000000 0.000000 0.021510 0.000000 0.000000
# 5 0.000000 0.000000 0.000000 0.000000 0.028820 0.000000
# 6 0.000000 0.000000 0.000000 0.000000 0.000000 0.021220
#
#
# Mechanical properties :
#
#
# Convention : Reuss Voigt Hill
#
# Bulk Modulus (GPa) = 81.15139 82.29550 81.72344
# Shear Modulus (GPa) = 38.64973 40.06225 39.35599
#
# Velocity S-wave (km/s) = 4.23261 4.30926 4.27111
# Velocity P-wave (km/s) = 7.84232 7.93129 7.88693
#
# Compressibility (1/GPa) = 0.01232265
#
# Stress axis : x y z
#
# Youngs Moduli (GPa) = 100.25583 73.25797 106.48739
#
# Poissons Ratio (x) = 0.30140 0.22788
# Poissons Ratio (y) = 0.41247 0.43579
# Poissons Ratio (z) = 0.21454 0.29980
#
# Static dielectric constant tensor:
#      x y z
#    x 1.759940 0.000000 0.000000 
#    y 0.000000 1.949250 0.000000 
#    z 0.000000 0.000000 1.833450 
# 
# From -- ./inp_files/15704.got.cif
#   From: 2010.05.17/outbox.cif.g08.bks.cpg/sg68_8_cif.got.tgz:15704.got - 2010.06.03 18:57:09.
