data_PCOD9510378
_publ_section_title
;
Structure prediction by ZEFSAII (Michael W. Deem and Ramdas Pophale) SiO2 
 PCOD9510378
Probable space group: C C C A
;
_chemical_formula_sum "Si O2"
_cell_formula_units_Z 52
_cell_length_a 12.430106
_cell_length_b 14.825706
_cell_length_c 12.009649
_cell_angle_alpha 90.000000
_cell_angle_beta 90.000000
_cell_angle_gamma 90.000000
_cell_volume 2213.199332
_symmetry_space_group_name_H-M "C C C A"
_symmetry_group_IT_number 68
_space_group.IT_coordinate_system_code '2'
_symmetry_cell_setting 'orthorhombic'
loop_
_space_group_symop_operation_xyz
x,y,z
-x,1/2-y,z
x,1/2-y,1/2-z
-x,y,1/2-z
-x,-y,-z
x,1/2+y,-z
-x,1/2+y,1/2+z
x,-y,1/2+z
1/2+x,1/2+y,z
1/2-x,-y,z
1/2+x,-y,1/2-z
1/2-x,1/2+y,1/2-z
1/2-x,1/2-y,-z
1/2+x,y,-z
1/2-x,y,1/2+z
1/2+x,1/2-y,1/2+z
loop_
_atom_site_type_symbol
_atom_site_label
_atom_site_fract_x
_atom_site_fract_y
_atom_site_fract_z
Si Si1 0.028652 0.856656 0.588694
Si Si2 0.831448 0.784180 0.093280
Si Si3 0.826275 0.913816 0.704435
Si Si4 0.500000 0.250000 0.250000
O O1 0.090437 0.854514 0.471570
O O2 0.109734 0.893167 0.682434
O O3 0.000000 0.750000 0.609493
O O4 0.917960 0.910938 0.607662
O O5 0.754584 0.833693 0.178266
O O6 0.911568 0.716268 0.158472
O O7 0.750000 0.750000 0.000000
O O8 0.750000 0.000000 0.709114
#
# Coordination Sequence:
#
# PCOD9510378 Si02
#       4
#    16  16  16   4
#     4  11  23  46  74  97 137 192 239 283 354 435
#     4  12  23  42  70 104 136 183 238 295 353 429
#     4  11  25  41  68 100 139 184 228 292 362 418
#     4  12  24  36  68 112 132 172 246 292 336 428
#
# _framework density 23.495397000000001
#
# number of rings (size 3 to 8) (size 9 to 14) (size 15 to 20)
#    0.000    0.615    4.615    3.692    0.000    4.923 
#    0.000    0.000    0.000    0.000    0.000    0.000 
#    0.000    0.000    0.000    0.000    0.000    0.000 
#
# Total GULP energy -144855.708775 kJ/mol
# GULP energy per Si atom -5571.373414 kJ/mol
# Density = 2.344192 g / cm^3
# Si number density = 23.495397 Si / 1000 Ang^3
#
#
#
# Elastic Constant Matrix: (Units=GPa)
#
#
# Indices 1 2 3 4 5 6 
#
# 1 218.0918 52.5431 73.4743 0.0000 0.0000 0.0000
# 2 52.5431 79.6394 2.6790 0.0000 0.0000 0.0000
# 3 73.4743 2.6790 61.9740 0.0000 0.0000 0.0000
# 4 0.0000 0.0000 0.0000 6.6189 0.0000 0.0000
# 5 0.0000 0.0000 0.0000 0.0000 49.8421 0.0000
# 6 0.0000 0.0000 0.0000 0.0000 0.0000 55.8991
#
#
#
# Elastic Compliance Matrix: (Units=1/GPa)
#
#
# Indices 1 2 3 4 5 6 
#
# 1 0.009966 -0.006187 -0.011548 0.000000 0.000000 0.000000
# 2 -0.006187 0.016416 0.006625 0.000000 0.000000 0.000000
# 3 -0.011548 0.006625 0.029541 0.000000 0.000000 0.000000
# 4 0.000000 0.000000 0.000000 0.151083 0.000000 0.000000
# 5 0.000000 0.000000 0.000000 0.000000 0.020063 0.000000
# 6 0.000000 0.000000 0.000000 0.000000 0.000000 0.017889
#
#
# Mechanical properties :
#
#
# Convention : Reuss Voigt Hill
#
# Bulk Modulus (GPa) = 29.67092 68.56646 49.11869
# Shear Modulus (GPa) = 17.95897 37.87262 27.91579
#
# Velocity S-wave (km/s) = 2.76771 4.01922 3.45068
# Velocity P-wave (km/s) = 4.78220 7.12637 6.06855
#
# Compressibility (1/GPa) = 0.03370303
#
# Stress axis : x y z
#
# Youngs Moduli (GPa) = 100.33701 60.91737 33.85154
#
# Poissons Ratio (x) = 0.37690 0.39093
# Poissons Ratio (y) = 0.62078 -0.22428
# Poissons Ratio (z) = 1.15873 -0.40361
#
# Static dielectric constant tensor:
#      x y z
#    x 1.983170 0.000000 0.000000 
#    y 0.000000 2.034170 0.000000 
#    z 0.000000 0.000000 1.962960 
# 
# From -- ./inp_files/20260.got.cif
#   From: 2010.05.17/outbox.cif.g08.bks.cpg/sg68_11_cif.got.tgz:20260.got - 2010.06.03 18:57:09.
