data_PCOD9510192
_publ_section_title
;
Structure prediction by ZEFSAII (Michael W. Deem and Ramdas Pophale) SiO2 
 PCOD9510192
Probable space group: C C C A
;
_chemical_formula_sum "Si O2"
_cell_formula_units_Z 64
_cell_length_a 9.625246
_cell_length_b 19.887839
_cell_length_c 13.577839
_cell_angle_alpha 90.000000
_cell_angle_beta 90.000000
_cell_angle_gamma 90.000000
_cell_volume 2599.142485
_symmetry_space_group_name_H-M "C C C A"
_symmetry_group_IT_number 68
_space_group.IT_coordinate_system_code '2'
_symmetry_cell_setting 'orthorhombic'
loop_
_space_group_symop_operation_xyz
x,y,z
-x,1/2-y,z
x,1/2-y,1/2-z
-x,y,1/2-z
-x,-y,-z
x,1/2+y,-z
-x,1/2+y,1/2+z
x,-y,1/2+z
1/2+x,1/2+y,z
1/2-x,-y,z
1/2+x,-y,1/2-z
1/2-x,1/2+y,1/2-z
1/2-x,1/2-y,-z
1/2+x,y,-z
1/2-x,y,1/2+z
1/2+x,1/2-y,1/2+z
loop_
_atom_site_type_symbol
_atom_site_label
_atom_site_fract_x
_atom_site_fract_y
_atom_site_fract_z
Si Si1 0.668879 0.085844 0.423625
Si Si2 0.868263 0.793246 0.555775
Si Si3 0.703917 0.824888 0.732398
Si Si4 0.131231 0.446865 0.595452
O O1 0.606329 0.136772 0.503111
O O2 0.713289 0.130772 0.330335
O O3 0.804361 0.063228 0.485933
O O4 0.534766 0.038161 0.399554
O O5 0.750000 0.750000 0.500000
O O6 0.660664 0.693378 0.330157
O O7 0.000000 0.750000 0.542626
O O8 0.642999 0.750000 0.750000
O O9 0.632686 0.876312 0.655197
O O10 0.250000 0.500000 0.637671
#
# Coordination Sequence:
#
# PCOD9510192 Si02
#       4
#    16  16  16  16
#     4  11  24  44  71 101 144 191 244 311 369 448
#     4  11  22  41  67 108 152 191 244 304 382 452
#     4  11  24  43  72 111 144 194 245 312 384 448
#     4  11  26  47  70 101 143 197 251 299 375 454
#
# _framework density 24.623505000000002
#
# number of rings (size 3 to 8) (size 9 to 14) (size 15 to 20)
#    0.000    1.000    2.500    4.500    0.000    2.500 
#    4.500    2.500    0.000    0.000    0.000    0.000 
#    0.000    0.000    0.000    0.000    0.000    0.000 
#
# Total GULP energy -178268.002035 kJ/mol
# GULP energy per Si atom -5570.875064 kJ/mol
# Density = 2.456746 g / cm^3
# Si number density = 24.623505 Si / 1000 Ang^3
#
#
#
# Elastic Constant Matrix: (Units=GPa)
#
#
# Indices 1 2 3 4 5 6 
#
# 1 94.7933 29.4942 30.5872 0.0000 0.0000 0.0000
# 2 29.4942 121.1459 37.9003 0.0000 0.0000 0.0000
# 3 30.5872 37.9003 121.2295 0.0000 0.0000 0.0000
# 4 0.0000 0.0000 0.0000 45.4688 0.0000 0.0000
# 5 0.0000 0.0000 0.0000 0.0000 13.6160 0.0000
# 6 0.0000 0.0000 0.0000 0.0000 0.0000 -8.0168
#
#
#
# Elastic Compliance Matrix: (Units=1/GPa)
#
#
# Indices 1 2 3 4 5 6 
#
# 1 0.011985 -0.002186 -0.002341 0.000000 0.000000 0.000000
# 2 -0.002186 0.009548 -0.002434 0.000000 0.000000 0.000000
# 3 -0.002341 -0.002434 0.009600 0.000000 0.000000 0.000000
# 4 0.000000 0.000000 0.000000 0.021993 0.000000 0.000000
# 5 0.000000 0.000000 0.000000 0.000000 0.073443 0.000000
# 6 0.000000 0.000000 0.000000 0.000000 0.000000 -0.124738
#
#
# Mechanical properties :
#
#
# Convention : Reuss Voigt Hill
#
# Bulk Modulus (GPa) = 58.09439 59.23692 58.66565
# Shear Modulus (GPa) = 232.68895 26.15940 129.42417
#
# Velocity S-wave (km/s) = 9.73159 3.26295 7.25778
# Velocity P-wave (km/s) = 12.24402 6.18911 9.70106
#
# Compressibility (1/GPa) = 0.01721337
#
# Stress axis : x y z
#
# Youngs Moduli (GPa) = 83.44111 104.73466 104.16489
#
# Poissons Ratio (x) = 0.22890 0.24380
# Poissons Ratio (y) = 0.18236 0.25349
# Poissons Ratio (z) = 0.19530 0.25488
#
# Static dielectric constant tensor:
#      x y z
#    x 2.433130 0.000000 0.000000 
#    y 0.000000 1.890030 0.000000 
#    z 0.000000 0.000000 1.979150 
# 
# From -- ./inp_files/20422.got.cif
#   From: 2010.05.17/outbox.cif.g08.bks.cpg/sg68_11_cif.got.tgz:20422.got - 2010.06.03 18:57:09.
