data_PCOD9510986
_publ_section_title
;
Structure prediction by ZEFSAII (Michael W. Deem and Ramdas Pophale) SiO2 
 PCOD9510986
Probable space group: F M M M
;
_chemical_formula_sum "Si O2"
_cell_formula_units_Z 104
_cell_length_a 21.435084
_cell_length_b 19.500575
_cell_length_c 14.658943
_cell_angle_alpha 90.000000
_cell_angle_beta 90.000000
_cell_angle_gamma 90.000000
_cell_volume 6127.386328
_symmetry_space_group_name_H-M "F M M M"
_symmetry_group_IT_number 69
_symmetry_cell_setting 'orthorhombic'
loop_
_space_group_symop_operation_xyz
x,y,z
-x,-y,z
x,-y,-z
-x,y,-z
-x,-y,-z
x,y,-z
-x,y,z
x,-y,z
x,1/2+y,1/2+z
-x,1/2-y,1/2+z
x,1/2-y,1/2-z
-x,1/2+y,1/2-z
-x,1/2-y,1/2-z
x,1/2+y,1/2-z
-x,1/2+y,1/2+z
x,1/2-y,1/2+z
1/2+x,y,1/2+z
1/2-x,-y,1/2+z
1/2+x,-y,1/2-z
1/2-x,y,1/2-z
1/2-x,-y,1/2-z
1/2+x,y,1/2-z
1/2-x,y,1/2+z
1/2+x,-y,1/2+z
1/2+x,1/2+y,z
1/2-x,1/2-y,z
1/2+x,1/2-y,-z
1/2-x,1/2+y,-z
1/2-x,1/2-y,-z
1/2+x,1/2+y,-z
1/2-x,1/2+y,z
1/2+x,1/2-y,z
loop_
_atom_site_type_symbol
_atom_site_label
_atom_site_fract_x
_atom_site_fract_y
_atom_site_fract_z
Si Si1 0.143077 0.500000 0.500000
Si Si2 0.146620 0.771389 0.151640
Si Si3 0.733178 0.500000 0.603100
Si Si4 0.732497 0.851715 0.892307
Si Si5 0.074155 0.646124 0.500000
O O1 0.191941 0.500000 0.584942
O O2 0.103707 0.569734 0.500000
O O3 0.121564 0.750000 0.250000
O O4 0.208033 0.819940 0.158948
O O5 0.176143 0.701803 0.110546
O O6 0.099476 0.811081 0.086759
O O7 0.705287 0.500000 0.500000
O O8 0.716071 0.573000 0.644186
O O9 0.751471 0.858579 0.000000
O O10 0.000000 0.641675 0.500000
#
# Coordination Sequence:
#
# PCOD9510986 Si02
#       5
#     8  32  16  32  16
#     4  10  17  36  54  78 102 138 175 228 260 306
#     4  11  20  33  52  79 108 137 173 219 263 314
#     4   8  14  25  52  78 106 137 166 204 263 322
#     4  10  15  30  53  78 110 140 165 208 267 320
#     4  12  23  38  57  74 102 146 184 221 265 304
#
# _framework density 16.972978999999999
#
# number of rings (size 3 to 8) (size 9 to 14) (size 15 to 20)
#    0.462    1.231    6.154    3.000    0.000    0.615 
#    0.000    4.615    0.000    0.000    0.000    2.154 
#    0.000    0.000    0.000    0.000    0.000    0.000 
#
# Total GULP energy -144863.929990 kJ/mol
# GULP energy per Si atom -5571.689615 kJ/mol
# Density = 1.693435 g / cm^3
# Si number density = 16.972979 Si / 1000 Ang^3
#
#
#
# Elastic Constant Matrix: (Units=GPa)
#
#
# Indices 1 2 3 4 5 6 
#
# 1 66.6917 36.1937 9.7555 0.0000 0.0000 0.0000
# 2 36.1937 172.0080 19.7926 0.0000 0.0000 0.0000
# 3 9.7555 19.7926 73.9897 0.0000 0.0000 0.0000
# 4 0.0000 0.0000 0.0000 -7.2658 0.0000 0.0000
# 5 0.0000 0.0000 0.0000 0.0000 10.6491 0.0000
# 6 0.0000 0.0000 0.0000 0.0000 0.0000 17.2149
#
#
#
# Elastic Compliance Matrix: (Units=1/GPa)
#
#
# Indices 1 2 3 4 5 6 
#
# 1 0.017053 -0.003435 -0.001329 0.000000 0.000000 0.000000
# 2 -0.003435 0.006690 -0.001337 0.000000 0.000000 0.000000
# 3 -0.001329 -0.001337 0.014048 0.000000 0.000000 0.000000
# 4 0.000000 0.000000 0.000000 -0.137632 0.000000 0.000000
# 5 0.000000 0.000000 0.000000 0.000000 0.093905 0.000000
# 6 0.000000 0.000000 0.000000 0.000000 0.000000 0.058089
#
#
# Mechanical properties :
#
#
# Convention : Reuss Voigt Hill
#
# Bulk Modulus (GPa) = 39.07976 49.35257 44.21617
# Shear Modulus (GPa) = 68.59955 20.58280 44.59118
#
# Velocity S-wave (km/s) = 6.36433 3.48613 5.13117
# Velocity P-wave (km/s) = 8.77957 6.73383 7.82385
#
# Compressibility (1/GPa) = 0.02558869
#
# Stress axis : x y z
#
# Youngs Moduli (GPa) = 58.63997 149.46874 71.18306
#
# Poissons Ratio (x) = 0.51348 0.09464
# Poissons Ratio (y) = 0.20145 0.09515
# Poissons Ratio (z) = 0.07796 0.19980
#
# Static dielectric constant tensor:
#      x y z
#    x 1.526660 0.000000 0.000000 
#    y 0.000000 1.616630 0.000000 
#    z 0.000000 0.000000 1.653290 
# 
# From -- ./inp_files/16195.got.cif
#   From: 2010.05.17/outbox.cif.g08.bks.cpg/sg69_9_cif.got.tgz:16195.got - 2010.06.03 19:29:58.
