data_PCOD9510178
_publ_section_title
;
Structure prediction by ZEFSAII (Michael W. Deem and Ramdas Pophale) SiO2 
 PCOD9510178
Probable space group: C C C A
;
_chemical_formula_sum "Si O2"
_cell_formula_units_Z 64
_cell_length_a 18.036544
_cell_length_b 20.279622
_cell_length_c 8.027855
_cell_angle_alpha 90.000000
_cell_angle_beta 90.000000
_cell_angle_gamma 90.000000
_cell_volume 2936.382999
_symmetry_space_group_name_H-M "C C C A"
_symmetry_group_IT_number 68
_space_group.IT_coordinate_system_code '2'
_symmetry_cell_setting 'orthorhombic'
loop_
_space_group_symop_operation_xyz
x,y,z
-x,1/2-y,z
x,1/2-y,1/2-z
-x,y,1/2-z
-x,-y,-z
x,1/2+y,-z
-x,1/2+y,1/2+z
x,-y,1/2+z
1/2+x,1/2+y,z
1/2-x,-y,z
1/2+x,-y,1/2-z
1/2-x,1/2+y,1/2-z
1/2-x,1/2-y,-z
1/2+x,y,-z
1/2-x,y,1/2+z
1/2+x,1/2-y,1/2+z
loop_
_atom_site_type_symbol
_atom_site_label
_atom_site_fract_x
_atom_site_fract_y
_atom_site_fract_z
Si Si1 0.864759 0.317474 0.694730
Si Si2 0.707028 0.678967 0.326810
Si Si3 0.921440 0.449396 0.809544
Si Si4 0.321651 0.545298 0.382579
O O1 0.903248 0.250000 0.750000
O O2 0.796555 0.320181 0.827466
O O3 0.828742 0.322593 0.510264
O O4 0.915492 0.380127 0.716308
O O5 0.684634 0.750000 0.250000
O O6 0.694035 0.614172 0.213017
O O7 0.856437 0.495872 0.747867
O O8 0.000000 0.477779 0.750000
O O9 0.891750 0.439994 0.995907
O O10 0.250000 0.500000 0.445315
#
# Coordination Sequence:
#
# PCOD9510178 Si02
#       4
#    16  16  16  16
#     4  11  22  40  65  99 134 172 220 274 340 404
#     4  11  22  40  69 100 131 167 224 285 334 394
#     4  12  26  43  65  97 139 180 219 279 343 403
#     4  12  24  42  69 100 133 178 235 280 335 407
#
# _framework density 21.795521000000001
#
# number of rings (size 3 to 8) (size 9 to 14) (size 15 to 20)
#    0.000    0.500    2.500    9.000    0.000    0.500 
#    0.000    0.000    0.000    5.250    0.000    0.000 
#    0.000    0.000    0.000    0.000    0.000    0.000 
#
# Total GULP energy -178240.856574 kJ/mol
# GULP energy per Si atom -5570.026768 kJ/mol
# Density = 2.174591 g / cm^3
# Si number density = 21.795521 Si / 1000 Ang^3
#
#
#
# Elastic Constant Matrix: (Units=GPa)
#
#
# Indices 1 2 3 4 5 6 
#
# 1 80.1377 30.4713 28.5049 0.0000 0.0000 0.0000
# 2 30.4713 122.4553 25.6770 0.0000 0.0000 0.0000
# 3 28.5049 25.6770 87.2919 0.0000 0.0000 0.0000
# 4 0.0000 0.0000 0.0000 27.0124 0.0000 0.0000
# 5 0.0000 0.0000 0.0000 0.0000 16.7175 0.0000
# 6 0.0000 0.0000 0.0000 0.0000 0.0000 45.2260
#
#
#
# Elastic Compliance Matrix: (Units=1/GPa)
#
#
# Indices 1 2 3 4 5 6 
#
# 1 0.015019 -0.002887 -0.004055 0.000000 0.000000 0.000000
# 2 -0.002887 0.009258 -0.001781 0.000000 0.000000 0.000000
# 3 -0.004055 -0.001781 0.013304 0.000000 0.000000 0.000000
# 4 0.000000 0.000000 0.000000 0.037020 0.000000 0.000000
# 5 0.000000 0.000000 0.000000 0.000000 0.059818 0.000000
# 6 0.000000 0.000000 0.000000 0.000000 0.000000 0.022111
#
#
# Mechanical properties :
#
#
# Convention : Reuss Voigt Hill
#
# Bulk Modulus (GPa) = 49.66408 51.02126 50.34267
# Shear Modulus (GPa) = 27.67233 31.47329 29.57281
#
# Velocity S-wave (km/s) = 3.56706 3.80416 3.68751
# Velocity P-wave (km/s) = 6.30881 6.53876 6.42481
#
# Compressibility (1/GPa) = 0.02013528
#
# Stress axis : x y z
#
# Youngs Moduli (GPa) = 66.58410 108.01516 75.16683
#
# Poissons Ratio (x) = 0.31183 0.30481
# Poissons Ratio (y) = 0.19222 0.13384
# Poissons Ratio (z) = 0.27000 0.19233
#
# Static dielectric constant tensor:
#      x y z
#    x 1.810390 0.000000 0.000000 
#    y 0.000000 1.802550 0.000000 
#    z 0.000000 0.000000 1.902290 
# 
# From -- ./inp_files/6884.got.cif
#   From: 2010.05.17/outbox.cif.g08.bks.cpg/sg68_4_cif.got.tgz:6884.got - 2010.06.03 18:57:09.
