data_PCOD9510729
_publ_section_title
;
Structure prediction by ZEFSAII (Michael W. Deem and Ramdas Pophale) SiO2 
 PCOD9510729
Probable space group: C C C A
;
_chemical_formula_sum "Si O2"
_cell_formula_units_Z 64
_cell_length_a 32.278815
_cell_length_b 5.398134
_cell_length_c 17.111867
_cell_angle_alpha 90.000000
_cell_angle_beta 90.000000
_cell_angle_gamma 90.000000
_cell_volume 2981.663575
_symmetry_space_group_name_H-M "C C C A"
_symmetry_group_IT_number 68
_space_group.IT_coordinate_system_code '2'
_symmetry_cell_setting 'orthorhombic'
loop_
_space_group_symop_operation_xyz
x,y,z
-x,1/2-y,z
x,1/2-y,1/2-z
-x,y,1/2-z
-x,-y,-z
x,1/2+y,-z
-x,1/2+y,1/2+z
x,-y,1/2+z
1/2+x,1/2+y,z
1/2-x,-y,z
1/2+x,-y,1/2-z
1/2-x,1/2+y,1/2-z
1/2-x,1/2-y,-z
1/2+x,y,-z
1/2-x,y,1/2+z
1/2+x,1/2-y,1/2+z
loop_
_atom_site_type_symbol
_atom_site_label
_atom_site_fract_x
_atom_site_fract_y
_atom_site_fract_z
Si Si1 0.354790 0.202991 0.450412
Si Si2 0.702539 0.921150 0.674225
Si Si3 0.577348 0.149357 0.333520
Si Si4 0.000000 0.250000 0.946572
Si Si5 0.365248 0.250000 0.750000
O O1 0.360137 0.458122 0.497605
O O2 0.310804 0.205189 0.406389
O O3 0.388319 0.197911 0.380985
O O4 0.697122 0.750000 0.750000
O O5 0.750000 0.000000 0.671910
O O6 0.668307 0.131492 0.690110
O O7 0.563663 0.250000 0.250000
O O8 0.538332 0.176528 0.390287
O O9 0.603796 0.909414 0.305089
O O10 0.000000 0.500000 0.000000
#
# Coordination Sequence:
#
# PCOD9510729 Si02
#       5
#    16  16  16   8   8
#     4  12  26  45  72 108 155 202 253 320 400 465
#     4  12  25  44  75 109 154 214 275 336 394 475
#     4  12  26  48  81 111 147 206 263 321 384 478
#     4  12  31  54  77 118 162 196 248 324 411 478
#     4  12  22  46  81 112 152 196 282 329 388 460
#
# _framework density 21.464528000000001
#
# number of rings (size 3 to 8) (size 9 to 14) (size 15 to 20)
#    0.000    0.000    6.250    3.375    3.500    1.000 
#    0.000    0.000    0.000    0.000    0.000    0.000 
#    0.000    0.000    0.000    0.000    0.000    0.000 
#
# Total GULP energy -178363.815276 kJ/mol
# GULP energy per Si atom -5573.869227 kJ/mol
# Density = 2.141567 g / cm^3
# Si number density = 21.464528 Si / 1000 Ang^3
#
#
#
# Elastic Constant Matrix: (Units=GPa)
#
#
# Indices 1 2 3 4 5 6 
#
# 1 152.2830 58.0452 52.3201 0.0000 0.0000 0.0000
# 2 58.0452 113.1034 63.5142 0.0000 0.0000 0.0000
# 3 52.3201 63.5142 143.0770 0.0000 0.0000 0.0000
# 4 0.0000 0.0000 0.0000 19.5549 0.0000 0.0000
# 5 0.0000 0.0000 0.0000 0.0000 -33.2647 0.0000
# 6 0.0000 0.0000 0.0000 0.0000 0.0000 55.7190
#
#
#
# Elastic Compliance Matrix: (Units=1/GPa)
#
#
# Indices 1 2 3 4 5 6 
#
# 1 0.008412 -0.003450 -0.001545 0.000000 0.000000 0.000000
# 2 -0.003450 0.013192 -0.004595 0.000000 0.000000 0.000000
# 3 -0.001545 -0.004595 0.009594 0.000000 0.000000 0.000000
# 4 0.000000 0.000000 0.000000 0.051138 0.000000 0.000000
# 5 0.000000 0.000000 0.000000 0.000000 -0.030062 0.000000
# 6 0.000000 0.000000 0.000000 0.000000 0.000000 0.017947
#
#
# Mechanical properties :
#
#
# Convention : Reuss Voigt Hill
#
# Bulk Modulus (GPa) = 83.19637 84.02470 83.61053
# Shear Modulus (GPa) = 53.52930 24.04078 38.78504
#
# Velocity S-wave (km/s) = 4.99926 3.35031 4.25542
# Velocity P-wave (km/s) = 8.49515 7.36185 7.94873
#
# Compressibility (1/GPa) = 0.01201976
#
# Stress axis : x y z
#
# Youngs Moduli (GPa) = 118.87181 75.80305 104.23399
#
# Poissons Ratio (x) = 0.26150 0.16102
# Poissons Ratio (y) = 0.41008 0.47892
# Poissons Ratio (z) = 0.18364 0.34829
#
# Static dielectric constant tensor:
#      x y z
#    x 1.830170 0.000000 0.000000 
#    y 0.000000 1.899120 0.000000 
#    z 0.000000 0.000000 1.806830 
# 
# From -- ./inp_files/34295.got.cif
#   From: 2010.05.17/outbox.cif.g08.bks.cpg/sg68_18_cif.got.tgz:34295.got - 2010.06.03 18:57:09.
