data_PCOD9510478
_publ_section_title
;
Structure prediction by ZEFSAII (Michael W. Deem and Ramdas Pophale) SiO2 
 PCOD9510478
Probable space group: C C C A
;
_chemical_formula_sum "Si O2"
_cell_formula_units_Z 112
_cell_length_a 13.857007
_cell_length_b 29.497440
_cell_length_c 11.970969
_cell_angle_alpha 90.000000
_cell_angle_beta 90.000000
_cell_angle_gamma 90.000000
_cell_volume 4893.088479
_symmetry_space_group_name_H-M "C C C A"
_symmetry_group_IT_number 68
_space_group.IT_coordinate_system_code '2'
_symmetry_cell_setting 'orthorhombic'
loop_
_space_group_symop_operation_xyz
x,y,z
-x,1/2-y,z
x,1/2-y,1/2-z
-x,y,1/2-z
-x,-y,-z
x,1/2+y,-z
-x,1/2+y,1/2+z
x,-y,1/2+z
1/2+x,1/2+y,z
1/2-x,-y,z
1/2+x,-y,1/2-z
1/2-x,1/2+y,1/2-z
1/2-x,1/2-y,-z
1/2+x,y,-z
1/2-x,y,1/2+z
1/2+x,1/2-y,1/2+z
loop_
_atom_site_type_symbol
_atom_site_label
_atom_site_fract_x
_atom_site_fract_y
_atom_site_fract_z
Si Si1 0.847156 0.475476 0.241745
Si Si2 0.559890 0.164311 0.862938
Si Si3 0.621740 0.196479 0.540219
Si Si4 0.366449 0.075813 0.515991
Si Si5 0.534183 0.441925 0.139054
Si Si6 0.341299 0.907075 0.434886
Si Si7 0.747400 0.222332 0.851095
O O1 0.750000 0.500000 0.281777
O O2 0.829400 0.447592 0.128531
O O3 0.916397 0.514592 0.195192
O O4 0.880986 0.440674 0.338125
O O5 0.500000 0.155091 0.750000
O O6 0.492002 0.198429 0.934317
O O7 0.579453 0.120781 0.939893
O O8 0.663316 0.185477 0.831529
O O9 0.645516 0.146149 0.584880
O O10 0.683545 0.237128 0.593297
O O11 0.665552 0.198986 0.416685
O O12 0.441841 0.048251 0.439888
O O13 0.272943 0.085749 0.443178
O O14 0.500000 0.414343 0.250000
O O15 0.608976 0.419216 0.053201
O O16 0.791652 0.250000 0.750000
#
# Coordination Sequence:
#
# PCOD9510478 Si02
#       7
#    16  16  16  16  16  16  16
#     4  12  28  46  75 105 144 195 255 308 377 451
#     4  12  23  44  77 114 146 197 258 309 378 462
#     4  11  24  44  72 110 145 190 250 304 374 444
#     4  12  27  47  75 110 148 198 245 322 376 452
#     4  12  29  48  72 103 145 196 249 307 373 448
#     4  12  27  50  71 106 151 193 252 311 379 457
#     4  11  24  44  75 108 148 194 247 308 373 455
#
# _framework density 22.889430000000001
#
# number of rings (size 3 to 8) (size 9 to 14) (size 15 to 20)
#    0.000    0.286    5.714    2.571    6.000    0.000 
#    0.000    0.000    0.000    0.857    0.000    0.000 
#    0.000    0.000    0.000    0.000    0.000    0.000 
#
# Total GULP energy -312801.049353 kJ/mol
# GULP energy per Si atom -5585.733024 kJ/mol
# Density = 2.283733 g / cm^3
# Si number density = 22.889430 Si / 1000 Ang^3
#
#
#
# Elastic Constant Matrix: (Units=GPa)
#
#
# Indices 1 2 3 4 5 6 
#
# 1 87.1784 17.8470 35.9007 0.0000 0.0000 0.0000
# 2 17.8470 111.7358 44.0001 0.0000 0.0000 0.0000
# 3 35.9007 44.0001 119.5725 0.0000 0.0000 0.0000
# 4 0.0000 0.0000 0.0000 31.2905 0.0000 0.0000
# 5 0.0000 0.0000 0.0000 0.0000 80.0488 0.0000
# 6 0.0000 0.0000 0.0000 0.0000 0.0000 22.4741
#
#
#
# Elastic Compliance Matrix: (Units=1/GPa)
#
#
# Indices 1 2 3 4 5 6 
#
# 1 0.013128 -0.000637 -0.003707 0.000000 0.000000 0.000000
# 2 -0.000637 0.010497 -0.003671 0.000000 0.000000 0.000000
# 3 -0.003707 -0.003671 0.010827 0.000000 0.000000 0.000000
# 4 0.000000 0.000000 0.000000 0.031959 0.000000 0.000000
# 5 0.000000 0.000000 0.000000 0.000000 0.012492 0.000000
# 6 0.000000 0.000000 0.000000 0.000000 0.000000 0.044496
#
#
# Mechanical properties :
#
#
# Convention : Reuss Voigt Hill
#
# Bulk Modulus (GPa) = 54.28605 57.10914 55.69759
# Shear Modulus (GPa) = 34.34768 41.47862 37.91315
#
# Velocity S-wave (km/s) = 3.87795 4.26153 4.07426
# Velocity P-wave (km/s) = 6.61963 7.01558 6.82048
#
# Compressibility (1/GPa) = 0.01842094
#
# Stress axis : x y z
#
# Youngs Moduli (GPa) = 76.17452 95.26336 92.36012
#
# Poissons Ratio (x) = 0.06069 0.34239
# Poissons Ratio (y) = 0.04853 0.33910
# Poissons Ratio (z) = 0.28239 0.34976
#
# Static dielectric constant tensor:
#      x y z
#    x 1.877840 0.000000 0.000000 
#    y 0.000000 1.862470 0.000000 
#    z 0.000000 0.000000 1.933380 
# 
# From -- ./inp_files/13601.got.cif
#   From: 2010.05.17/outbox.cif.g08.bks.cpg/sg68_7_cif.got.tgz:13601.got - 2010.06.03 18:57:09.
