data_PCOD9510313
_publ_section_title
;
Structure prediction by ZEFSAII (Michael W. Deem and Ramdas Pophale) SiO2 
 PCOD9510313
Probable space group: C C C A
;
_chemical_formula_sum "Si O2"
_cell_formula_units_Z 80
_cell_length_a 18.569745
_cell_length_b 22.223724
_cell_length_c 8.867482
_cell_angle_alpha 90.000000
_cell_angle_beta 90.000000
_cell_angle_gamma 90.000000
_cell_volume 3659.511283
_symmetry_space_group_name_H-M "C C C A"
_symmetry_group_IT_number 68
_space_group.IT_coordinate_system_code '2'
_symmetry_cell_setting 'orthorhombic'
loop_
_space_group_symop_operation_xyz
x,y,z
-x,1/2-y,z
x,1/2-y,1/2-z
-x,y,1/2-z
-x,-y,-z
x,1/2+y,-z
-x,1/2+y,1/2+z
x,-y,1/2+z
1/2+x,1/2+y,z
1/2-x,-y,z
1/2+x,-y,1/2-z
1/2-x,1/2+y,1/2-z
1/2-x,1/2-y,-z
1/2+x,y,-z
1/2-x,y,1/2+z
1/2+x,1/2-y,1/2+z
loop_
_atom_site_type_symbol
_atom_site_label
_atom_site_fract_x
_atom_site_fract_y
_atom_site_fract_z
Si Si1 0.024447 0.095414 0.093304
Si Si2 0.365754 0.535936 0.627510
Si Si3 0.623723 0.581833 0.540988
Si Si4 0.252731 0.141863 0.432900
Si Si5 0.650589 0.688280 0.168181
O O1 0.079492 0.148155 0.140775
O O2 0.000000 0.065143 0.250000
O O3 0.067636 0.054035 0.978281
O O4 0.950526 0.112213 0.009506
O O5 0.382474 0.547562 0.801345
O O6 0.352406 0.466921 0.585448
O O7 0.301118 0.581644 0.585817
O O8 0.688118 0.628693 0.549293
O O9 0.307215 0.190052 0.507887
O O10 0.208251 0.158869 0.283886
O O11 0.630785 0.750000 0.250000
#
# Coordination Sequence:
#
# PCOD9510313 Si02
#       5
#    16  16  16  16  16
#     4  11  23  42  65  96 132 173 220 270 329 399
#     4  11  25  39  68  96 138 181 217 263 337 405
#     4  12  23  41  63  98 141 175 220 269 333 406
#     4  11  23  42  68  98 131 173 222 281 328 402
#     4  11  24  45  71  96 127 175 229 281 339 386
#
# _framework density 21.860842999999999
#
# number of rings (size 3 to 8) (size 9 to 14) (size 15 to 20)
#    0.000    0.800    4.000    3.600    2.800    2.000 
#    0.000    0.000    0.000    0.000    5.200    0.000 
#    0.000    0.000    0.000    0.000    0.000    0.000 
#
# Total GULP energy -223482.234033 kJ/mol
# GULP energy per Si atom -5587.055851 kJ/mol
# Density = 2.181109 g / cm^3
# Si number density = 21.860843 Si / 1000 Ang^3
#
#
#
# Elastic Constant Matrix: (Units=GPa)
#
#
# Indices 1 2 3 4 5 6 
#
# 1 84.5895 10.8817 55.6287 0.0000 0.0000 0.0000
# 2 10.8817 43.1648 7.8025 0.0000 0.0000 0.0000
# 3 55.6287 7.8025 110.4748 0.0000 0.0000 0.0000
# 4 0.0000 0.0000 0.0000 28.6058 0.0000 0.0000
# 5 0.0000 0.0000 0.0000 0.0000 43.8575 0.0000
# 6 0.0000 0.0000 0.0000 0.0000 0.0000 22.9814
#
#
#
# Elastic Compliance Matrix: (Units=1/GPa)
#
#
# Indices 1 2 3 4 5 6 
#
# 1 0.018036 -0.002943 -0.008874 0.000000 0.000000 0.000000
# 2 -0.002943 0.023947 -0.000209 0.000000 0.000000 0.000000
# 3 -0.008874 -0.000209 0.013535 0.000000 0.000000 0.000000
# 4 0.000000 0.000000 0.000000 0.034958 0.000000 0.000000
# 5 0.000000 0.000000 0.000000 0.000000 0.022801 0.000000
# 6 0.000000 0.000000 0.000000 0.000000 0.000000 0.043513
#
#
# Mechanical properties :
#
#
# Convention : Reuss Voigt Hill
#
# Bulk Modulus (GPa) = 31.78103 42.98388 37.38246
# Shear Modulus (GPa) = 26.13257 30.01668 28.07463
#
# Velocity S-wave (km/s) = 3.46121 3.70953 3.58752
# Velocity P-wave (km/s) = 5.52655 6.16868 5.85643
#
# Compressibility (1/GPa) = 0.03146531
#
# Stress axis : x y z
#
# Youngs Moduli (GPa) = 55.44375 41.75931 73.88165
#
# Poissons Ratio (x) = 0.12289 0.65564
# Poissons Ratio (y) = 0.16316 0.01548
# Poissons Ratio (z) = 0.49202 0.00875
#
# Static dielectric constant tensor:
#      x y z
#    x 1.801110 0.000000 0.000000 
#    y 0.000000 1.804940 0.000000 
#    z 0.000000 0.000000 1.832380 
# 
# From -- ./inp_files/6224.got.cif
#   From: 2010.05.17/outbox.cif.g08.bks.cpg/sg68_4_cif.got.tgz:6224.got - 2010.06.03 18:57:09.
