data_PCOD9510661
_publ_section_title
;
Structure prediction by ZEFSAII (Michael W. Deem and Ramdas Pophale) SiO2 
 PCOD9510661
Probable space group: C C C A
;
_chemical_formula_sum "Si O2"
_cell_formula_units_Z 48
_cell_length_a 24.227599
_cell_length_b 9.135856
_cell_length_c 8.908347
_cell_angle_alpha 90.000000
_cell_angle_beta 90.000000
_cell_angle_gamma 90.000000
_cell_volume 1971.772239
_symmetry_space_group_name_H-M "C C C A"
_symmetry_group_IT_number 68
_space_group.IT_coordinate_system_code '2'
_symmetry_cell_setting 'orthorhombic'
loop_
_space_group_symop_operation_xyz
x,y,z
-x,1/2-y,z
x,1/2-y,1/2-z
-x,y,1/2-z
-x,-y,-z
x,1/2+y,-z
-x,1/2+y,1/2+z
x,-y,1/2+z
1/2+x,1/2+y,z
1/2-x,-y,z
1/2+x,-y,1/2-z
1/2-x,1/2+y,1/2-z
1/2-x,1/2-y,-z
1/2+x,y,-z
1/2-x,y,1/2+z
1/2+x,1/2-y,1/2+z
loop_
_atom_site_type_symbol
_atom_site_label
_atom_site_fract_x
_atom_site_fract_y
_atom_site_fract_z
Si Si1 0.608330 0.820799 0.094283
Si Si2 0.944002 0.130522 0.649714
Si Si3 0.785384 0.147954 0.893172
O O1 0.629311 0.750000 0.250000
O O2 0.577857 0.969498 0.135065
O O3 0.565467 0.708657 0.012150
O O4 0.658057 0.872634 0.986035
O O5 0.912474 0.250000 0.750000
O O6 0.000000 0.114005 0.750000
O O7 0.794210 0.250000 0.750000
O O8 0.750000 0.000000 0.861691
O O9 0.750000 0.250000 0.000000
#
# Coordination Sequence:
#
# PCOD9510661 Si02
#       3
#    16  16  16
#     4  12  27  50  79 112 155 204 258 319 383 457
#     4  11  27  49  75 109 151 202 257 314 379 449
#     4  12  27  49  78 112 151 198 253 316 387 460
#
# _framework density 24.343582000000001
#
# number of rings (size 3 to 8) (size 9 to 14) (size 15 to 20)
#    0.000    0.333    0.000    7.000    0.000   20.667 
#    0.000    8.333    0.000    0.000    0.000    0.000 
#    0.000    0.000    0.000    0.000    0.000    0.000 
#
# Total GULP energy -134003.891685 kJ/mol
# GULP energy per Si atom -5583.495487 kJ/mol
# Density = 2.428818 g / cm^3
# Si number density = 24.343582 Si / 1000 Ang^3
#
#
#
# Elastic Constant Matrix: (Units=GPa)
#
#
# Indices 1 2 3 4 5 6 
#
# 1 175.6468 79.9545 76.8499 0.0000 0.0000 0.0000
# 2 79.9545 221.3310 72.7732 0.0000 0.0000 0.0000
# 3 76.8499 72.7732 165.8362 0.0000 0.0000 0.0000
# 4 0.0000 0.0000 0.0000 49.0294 0.0000 0.0000
# 5 0.0000 0.0000 0.0000 0.0000 113.2437 0.0000
# 6 0.0000 0.0000 0.0000 0.0000 0.0000 -3.3096
#
#
#
# Elastic Compliance Matrix: (Units=1/GPa)
#
#
# Indices 1 2 3 4 5 6 
#
# 1 0.007767 -0.001896 -0.002767 0.000000 0.000000 0.000000
# 2 -0.001896 0.005743 -0.001641 0.000000 0.000000 0.000000
# 3 -0.002767 -0.001641 0.008033 0.000000 0.000000 0.000000
# 4 0.000000 0.000000 0.000000 0.020396 0.000000 0.000000
# 5 0.000000 0.000000 0.000000 0.000000 0.008831 0.000000
# 6 0.000000 0.000000 0.000000 0.000000 0.000000 -0.302152
#
#
# Mechanical properties :
#
#
# Convention : Reuss Voigt Hill
#
# Bulk Modulus (GPa) = 111.94325 113.55214 112.74769
# Shear Modulus (GPa) = -21.20474 54.00844 16.40185
#
# Velocity S-wave (km/s) = -2.95458 4.71530 2.59851
# Velocity P-wave (km/s) = 5.86900 8.74027 7.44438
#
# Compressibility (1/GPa) = 0.00893310
#
# Stress axis : x y z
#
# Youngs Moduli (GPa) = 128.74918 174.13357 124.48992
#
# Poissons Ratio (x) = 0.33014 0.34451
# Poissons Ratio (y) = 0.24410 0.20435
# Poissons Ratio (z) = 0.35629 0.28584
#
# Static dielectric constant tensor:
#      x y z
#    x 2.213510 0.000000 0.000000 
#    y 0.000000 1.881230 0.000000 
#    z 0.000000 0.000000 1.911540 
# 
# From -- ./inp_files/9276.got.cif
#   From: 2010.05.17/outbox.cif.g08.bks.cpg/sg68_5_cif.got.tgz:9276.got - 2010.06.03 18:57:09.
