data_PCOD9510265
_publ_section_title
;
Structure prediction by ZEFSAII (Michael W. Deem and Ramdas Pophale) SiO2 
 PCOD9510265
Probable space group: C C C A
;
_chemical_formula_sum "Si O2"
_cell_formula_units_Z 52
_cell_length_a 16.542977
_cell_length_b 7.207898
_cell_length_c 19.240053
_cell_angle_alpha 90.000000
_cell_angle_beta 90.000000
_cell_angle_gamma 90.000000
_cell_volume 2294.185667
_symmetry_space_group_name_H-M "C C C A"
_symmetry_group_IT_number 68
_space_group.IT_coordinate_system_code '2'
_symmetry_cell_setting 'orthorhombic'
loop_
_space_group_symop_operation_xyz
x,y,z
-x,1/2-y,z
x,1/2-y,1/2-z
-x,y,1/2-z
-x,-y,-z
x,1/2+y,-z
-x,1/2+y,1/2+z
x,-y,1/2+z
1/2+x,1/2+y,z
1/2-x,-y,z
1/2+x,-y,1/2-z
1/2-x,1/2+y,1/2-z
1/2-x,1/2-y,-z
1/2+x,y,-z
1/2-x,y,1/2+z
1/2+x,1/2-y,1/2+z
loop_
_atom_site_type_symbol
_atom_site_label
_atom_site_fract_x
_atom_site_fract_y
_atom_site_fract_z
Si Si1 0.667323 0.750814 0.543000
Si Si2 0.583657 0.014793 0.858042
Si Si3 0.090484 0.612424 0.589593
Si Si4 0.500000 0.750000 0.750000
O O1 0.750000 0.750000 0.500000
O O2 0.652166 0.586143 0.597009
O O3 0.600462 0.721419 0.482908
O O4 0.651572 0.942009 0.582853
O O5 0.558176 0.886224 0.793955
O O6 0.605684 0.232393 0.851165
O O7 0.497798 0.028322 0.898827
#
# Coordination Sequence:
#
# PCOD9510265 Si02
#       4
#    16  16  16   4
#     4  12  23  39  67 107 148 175 223 299 382 441
#     4  11  25  40  69  96 140 185 239 298 350 428
#     4  11  23  39  67 105 139 180 227 302 376 424
#     4  12  24  50  64  96 142 188 258 296 340 432
#
# _framework density 22.665994999999999
#
# number of rings (size 3 to 8) (size 9 to 14) (size 15 to 20)
#    0.000    0.615    6.154    1.846    4.308    2.462 
#    0.000    0.000    0.000    7.385    0.000    0.000 
#    0.000    0.000    0.000    0.000    0.000    0.000 
#
# Total GULP energy -145239.581623 kJ/mol
# GULP energy per Si atom -5586.137755 kJ/mol
# Density = 2.261441 g / cm^3
# Si number density = 22.665995 Si / 1000 Ang^3
#
#
#
# Elastic Constant Matrix: (Units=GPa)
#
#
# Indices 1 2 3 4 5 6 
#
# 1 119.8737 65.1935 39.5933 0.0000 0.0000 0.0000
# 2 65.1935 186.9963 41.3602 0.0000 0.0000 0.0000
# 3 39.5933 41.3602 68.0599 0.0000 0.0000 0.0000
# 4 0.0000 0.0000 0.0000 36.4061 0.0000 0.0000
# 5 0.0000 0.0000 0.0000 0.0000 25.0462 0.0000
# 6 0.0000 0.0000 0.0000 0.0000 0.0000 27.8375
#
#
#
# Elastic Compliance Matrix: (Units=1/GPa)
#
#
# Indices 1 2 3 4 5 6 
#
# 1 0.011576 -0.002942 -0.004946 0.000000 0.000000 0.000000
# 2 -0.002942 0.006926 -0.002497 0.000000 0.000000 0.000000
# 3 -0.004946 -0.002497 0.019088 0.000000 0.000000 0.000000
# 4 0.000000 0.000000 0.000000 0.027468 0.000000 0.000000
# 5 0.000000 0.000000 0.000000 0.000000 0.039926 0.000000
# 6 0.000000 0.000000 0.000000 0.000000 0.000000 0.035923
#
#
# Mechanical properties :
#
#
# Convention : Reuss Voigt Hill
#
# Bulk Modulus (GPa) = 59.45837 74.13599 66.79718
# Shear Modulus (GPa) = 29.88937 33.11017 31.49977
#
# Velocity S-wave (km/s) = 3.63531 3.82617 3.73196
# Velocity P-wave (km/s) = 6.62646 7.23177 6.93572
#
# Compressibility (1/GPa) = 0.01681849
#
# Stress axis : x y z
#
# Youngs Moduli (GPa) = 86.38793 144.39076 52.38836
#
# Poissons Ratio (x) = 0.42474 0.25914
# Poissons Ratio (y) = 0.25412 0.13084
# Poissons Ratio (z) = 0.42731 0.36061
#
# Static dielectric constant tensor:
#      x y z
#    x 1.850620 0.000000 0.000000 
#    y 0.000000 1.954340 0.000000 
#    z 0.000000 0.000000 1.845530 
# 
# From -- ./inp_files/31423.got.cif
#   From: 2010.05.17/outbox.cif.g08.bks.cpg/sg68_16_cif.got.tgz:31423.got - 2010.06.03 18:57:09.
