data_PCOD9510070
_publ_section_title
;
Structure prediction by ZEFSAII (Michael W. Deem and Ramdas Pophale) SiO2 
 PCOD9510070
Probable space group: C C C A
;
_chemical_formula_sum "Si O2"
_cell_formula_units_Z 80
_cell_length_a 13.041587
_cell_length_b 21.894877
_cell_length_c 14.341027
_cell_angle_alpha 90.000000
_cell_angle_beta 90.000000
_cell_angle_gamma 90.000000
_cell_volume 4094.993400
_symmetry_space_group_name_H-M "C C C A"
_symmetry_group_IT_number 68
_space_group.IT_coordinate_system_code '2'
_symmetry_cell_setting 'orthorhombic'
loop_
_space_group_symop_operation_xyz
x,y,z
-x,1/2-y,z
x,1/2-y,1/2-z
-x,y,1/2-z
-x,-y,-z
x,1/2+y,-z
-x,1/2+y,1/2+z
x,-y,1/2+z
1/2+x,1/2+y,z
1/2-x,-y,z
1/2+x,-y,1/2-z
1/2-x,1/2+y,1/2-z
1/2-x,1/2-y,-z
1/2+x,y,-z
1/2-x,y,1/2+z
1/2+x,1/2-y,1/2+z
loop_
_atom_site_type_symbol
_atom_site_label
_atom_site_fract_x
_atom_site_fract_y
_atom_site_fract_z
Si Si1 0.378529 0.237457 0.646716
Si Si2 0.270166 0.891034 0.128484
Si Si3 0.564990 0.937116 0.498973
Si Si4 0.873210 0.643884 0.963052
Si Si5 0.278578 0.929454 0.835008
O O1 0.500000 0.250000 0.653722
O O2 0.334278 0.250000 0.750000
O O3 0.341119 0.169285 0.630647
O O4 0.352688 0.286030 0.565803
O O5 0.222867 0.908575 0.227808
O O6 0.344229 0.940655 0.078455
O O7 0.179645 0.874109 0.058950
O O8 0.487822 0.882178 0.471882
O O9 0.621720 0.923169 0.597816
O O10 0.500000 0.000000 0.500000
O O11 0.814118 0.606846 0.883098
O O12 0.250000 0.000000 0.837097
#
# Coordination Sequence:
#
# PCOD9510070 Si02
#       5
#    16  16  16  16  16
#     4  11  21  40  67  96 125 168 224 273 332 400
#     4  11  25  41  68  95 132 175 219 277 339 397
#     4  11  24  43  64  95 136 174 220 280 336 400
#     4  11  23  43  66  93 133 173 219 277 333 397
#     4  11  24  41  64  98 133 175 224 269 335 404
#
# _framework density 19.536051
#
# number of rings (size 3 to 8) (size 9 to 14) (size 15 to 20)
#    0.000    1.000    6.000    0.600    2.800    1.600 
#    0.000    0.000    0.000    0.000    0.000    0.000 
#    0.000    0.000    0.000    0.000    0.000    0.000 
#
# Total GULP energy -223003.150507 kJ/mol
# GULP energy per Si atom -5575.078763 kJ/mol
# Density = 1.949159 g / cm^3
# Si number density = 19.536051 Si / 1000 Ang^3
#
#
#
# Elastic Constant Matrix: (Units=GPa)
#
#
# Indices 1 2 3 4 5 6 
#
# 1 78.8724 2.6390 39.7578 0.0000 0.0000 0.0000
# 2 2.6390 53.8532 1.4539 0.0000 0.0000 0.0000
# 3 39.7578 1.4539 141.2941 0.0000 0.0000 0.0000
# 4 0.0000 0.0000 0.0000 35.0161 0.0000 0.0000
# 5 0.0000 0.0000 0.0000 0.0000 9.4955 0.0000
# 6 0.0000 0.0000 0.0000 0.0000 0.0000 18.7907
#
#
#
# Elastic Compliance Matrix: (Units=1/GPa)
#
#
# Indices 1 2 3 4 5 6 
#
# 1 0.014794 -0.000613 -0.004157 0.000000 0.000000 0.000000
# 2 -0.000613 0.018600 -0.000019 0.000000 0.000000 0.000000
# 3 -0.004157 -0.000019 0.008247 0.000000 0.000000 0.000000
# 4 0.000000 0.000000 0.000000 0.028558 0.000000 0.000000
# 5 0.000000 0.000000 0.000000 0.000000 0.105313 0.000000
# 6 0.000000 0.000000 0.000000 0.000000 0.000000 0.053218
#
#
# Mechanical properties :
#
#
# Convention : Reuss Voigt Hill
#
# Bulk Modulus (GPa) = 31.18711 40.19126 35.68918
# Shear Modulus (GPa) = 20.08071 28.00507 24.04289
#
# Velocity S-wave (km/s) = 3.20953 3.79028 3.51193
# Velocity P-wave (km/s) = 5.45283 6.30654 5.89516
#
# Compressibility (1/GPa) = 0.03206453
#
# Stress axis : x y z
#
# Youngs Moduli (GPa) = 67.59289 53.76482 121.25279
#
# Poissons Ratio (x) = 0.03294 0.50400
# Poissons Ratio (y) = 0.04142 0.00230
# Poissons Ratio (z) = 0.28096 0.00102
#
# Static dielectric constant tensor:
#      x y z
#    x 1.701880 0.000000 0.000000 
#    y 0.000000 1.726380 0.000000 
#    z 0.000000 0.000000 1.716140 
# 
# From -- ./inp_files/16210.got.cif
#   From: 2010.05.17/outbox.cif.g08.bks.cpg/sg68_9_cif.got.tgz:16210.got - 2010.06.03 18:57:09.
