data_PCOD9510046
_publ_section_title
;
Structure prediction by ZEFSAII (Michael W. Deem and Ramdas Pophale) SiO2 
 PCOD9510046
Probable space group: C C C A
;
_chemical_formula_sum "Si O2"
_cell_formula_units_Z 104
_cell_length_a 29.016342
_cell_length_b 7.972716
_cell_length_c 21.419974
_cell_angle_alpha 90.000000
_cell_angle_beta 90.000000
_cell_angle_gamma 90.000000
_cell_volume 4955.276525
_symmetry_space_group_name_H-M "C C C A"
_symmetry_group_IT_number 68
_space_group.IT_coordinate_system_code '2'
_symmetry_cell_setting 'orthorhombic'
loop_
_space_group_symop_operation_xyz
x,y,z
-x,1/2-y,z
x,1/2-y,1/2-z
-x,y,1/2-z
-x,-y,-z
x,1/2+y,-z
-x,1/2+y,1/2+z
x,-y,1/2+z
1/2+x,1/2+y,z
1/2-x,-y,z
1/2+x,-y,1/2-z
1/2-x,1/2+y,1/2-z
1/2-x,1/2-y,-z
1/2+x,y,-z
1/2-x,y,1/2+z
1/2+x,1/2-y,1/2+z
loop_
_atom_site_type_symbol
_atom_site_label
_atom_site_fract_x
_atom_site_fract_y
_atom_site_fract_z
Si Si1 0.000000 0.250000 0.845546
Si Si2 0.083529 0.750000 0.250000
Si Si3 0.649164 0.438193 0.777162
Si Si4 0.250000 0.500000 0.185500
Si Si5 0.511741 0.446143 0.929975
Si Si6 0.743670 0.174514 0.903388
Si Si7 0.119820 0.025673 0.419131
Si Si8 0.172839 0.246071 0.991843
O O1 0.953260 0.276890 0.805850
O O2 0.011189 0.416888 0.884993
O O3 0.116173 0.583728 0.252015
O O4 0.643990 0.250000 0.750000
O O5 0.702645 0.495615 0.775621
O O6 0.636736 0.425279 0.850649
O O7 0.252507 0.663252 0.140170
O O8 0.500000 0.250000 0.919223
O O9 0.565492 0.478098 0.919252
O O10 0.500000 0.500000 0.000000
O O11 0.697481 0.174740 0.945429
O O12 0.750000 0.000000 0.867741
O O13 0.784470 0.176606 0.954553
O O14 0.134267 0.141710 0.476912
O O15 0.147256 0.861144 0.439613
#
# Coordination Sequence:
#
# PCOD9510046 Si02
#       8
#     8   8  16   8  16  16  16  16
#     4  11  26  50  80 116 138 193 254 314 378 445
#     4  11  28  54  82 100 144 196 266 313 356 452
#     4  12  29  51  73 106 148 207 259 306 363 437
#     4  12  26  50  68 106 154 182 260 310 352 438
#     4  12  26  47  74 114 157 184 227 306 396 457
#     4  11  21  38  67 103 145 187 225 293 367 432
#     4  12  24  46  70 109 149 187 241 306 364 459
#     4  11  21  38  66 107 144 185 236 288 370 445
#
# _framework density 20.987728000000001
#
# number of rings (size 3 to 8) (size 9 to 14) (size 15 to 20)
#    0.000    0.462    6.923    0.923    5.385    1.231 
#    2.769    1.538    0.000    0.000    0.000    0.000 
#    0.000    0.000    0.000    0.000    0.000    0.000 
#
# Total GULP energy -290135.406439 kJ/mol
# GULP energy per Si atom -5579.527047 kJ/mol
# Density = 2.093996 g / cm^3
# Si number density = 20.987728 Si / 1000 Ang^3
#
#
#
# Elastic Constant Matrix: (Units=GPa)
#
#
# Indices 1 2 3 4 5 6 
#
# 1 119.1757 23.9510 23.9766 0.0000 0.0000 0.0000
# 2 23.9510 177.5004 66.4582 0.0000 0.0000 0.0000
# 3 23.9766 66.4582 111.6785 0.0000 0.0000 0.0000
# 4 0.0000 0.0000 0.0000 41.3718 0.0000 0.0000
# 5 0.0000 0.0000 0.0000 0.0000 5.9879 0.0000
# 6 0.0000 0.0000 0.0000 0.0000 0.0000 30.2766
#
#
#
# Elastic Compliance Matrix: (Units=1/GPa)
#
#
# Indices 1 2 3 4 5 6 
#
# 1 0.008822 -0.000619 -0.001526 0.000000 0.000000 0.000000
# 2 -0.000619 0.007292 -0.004207 0.000000 0.000000 0.000000
# 3 -0.001526 -0.004207 0.011785 0.000000 0.000000 0.000000
# 4 0.000000 0.000000 0.000000 0.024171 0.000000 0.000000
# 5 0.000000 0.000000 0.000000 0.000000 0.167004 0.000000
# 6 0.000000 0.000000 0.000000 0.000000 0.000000 0.033029
#
#
# Mechanical properties :
#
#
# Convention : Reuss Voigt Hill
#
# Bulk Modulus (GPa) = 65.80295 70.79181 68.29738
# Shear Modulus (GPa) = 18.52729 35.12517 26.82623
#
# Velocity S-wave (km/s) = 2.97436 4.09541 3.57905
# Velocity P-wave (km/s) = 6.57396 7.49443 7.04923
#
# Compressibility (1/GPa) = 0.01519689
#
# Stress axis : x y z
#
# Youngs Moduli (GPa) = 113.34846 137.12988 84.85284
#
# Poissons Ratio (x) = 0.08492 0.12945
# Poissons Ratio (y) = 0.07019 0.35694
# Poissons Ratio (z) = 0.17292 0.57685
#
# Static dielectric constant tensor:
#      x y z
#    x 1.610950 0.000000 0.000000 
#    y 0.000000 1.821390 0.000000 
#    z 0.000000 0.000000 0.178040 
# 
# From -- ./inp_files/41599.got.cif
#   From: 2010.05.17/outbox.cif.g08.bks.cpg/sg68_21_cif.got.tgz:41599.got - 2010.06.03 18:57:09.
