data_PCOD9510186
_publ_section_title
;
Structure prediction by ZEFSAII (Michael W. Deem and Ramdas Pophale) SiO2 
 PCOD9510186
Probable space group: C C C A
;
_chemical_formula_sum "Si O2"
_cell_formula_units_Z 64
_cell_length_a 11.149168
_cell_length_b 8.857659
_cell_length_c 28.860586
_cell_angle_alpha 90.000000
_cell_angle_beta 90.000000
_cell_angle_gamma 90.000000
_cell_volume 2850.142417
_symmetry_space_group_name_H-M "C C C A"
_symmetry_group_IT_number 68
_space_group.IT_coordinate_system_code '2'
_symmetry_cell_setting 'orthorhombic'
loop_
_space_group_symop_operation_xyz
x,y,z
-x,1/2-y,z
x,1/2-y,1/2-z
-x,y,1/2-z
-x,-y,-z
x,1/2+y,-z
-x,1/2+y,1/2+z
x,-y,1/2+z
1/2+x,1/2+y,z
1/2-x,-y,z
1/2+x,-y,1/2-z
1/2-x,1/2+y,1/2-z
1/2-x,1/2-y,-z
1/2+x,y,-z
1/2-x,y,1/2+z
1/2+x,1/2-y,1/2+z
loop_
_atom_site_type_symbol
_atom_site_label
_atom_site_fract_x
_atom_site_fract_y
_atom_site_fract_z
Si Si1 0.129011 0.577629 0.766581
Si Si2 0.362012 0.197431 0.632859
Si Si3 0.411407 0.388443 0.524031
Si Si4 0.750000 0.500000 0.393792
Si Si5 0.750000 0.500000 0.552278
O O1 0.129266 0.750000 0.750000
O O2 0.250000 0.500000 0.748586
O O3 0.139953 0.591769 0.821962
O O4 0.000000 0.512100 0.750000
O O5 0.500000 0.250000 0.631879
O O6 0.270299 0.343425 0.634906
O O7 0.327527 0.100597 0.587702
O O8 0.500000 0.250000 0.532183
O O9 0.500000 0.500000 0.500000
O O10 0.358098 0.469634 0.569562
O O11 0.311748 0.381387 0.483088
#
# Coordination Sequence:
#
# PCOD9510186 Si02
#       5
#    16  16  16   8   8
#     4  11  25  49  76 105 142 183 229 294 367 435
#     4  12  24  44  68 102 137 178 235 292 351 423
#     4  11  22  41  62  94 140 186 235 282 342 405
#     4  11  24  38  65  98 136 182 229 286 340 403
#     4  11  24  40  69 100 136 184 237 292 346 417
#
# _framework density 22.455017999999999
#
# number of rings (size 3 to 8) (size 9 to 14) (size 15 to 20)
#    0.000    0.750    3.750    5.250    1.750    4.500 
#    0.000    0.000    0.000    0.000    0.000    0.000 
#    0.000    0.000    0.000    0.000    0.000    0.000 
#
# Total GULP energy -178258.263532 kJ/mol
# GULP energy per Si atom -5570.570735 kJ/mol
# Density = 2.240391 g / cm^3
# Si number density = 22.455018 Si / 1000 Ang^3
#
#
#
# Elastic Constant Matrix: (Units=GPa)
#
#
# Indices 1 2 3 4 5 6 
#
# 1 167.6872 71.8236 45.7150 0.0000 0.0000 0.0000
# 2 71.8236 94.0082 9.4923 0.0000 0.0000 0.0000
# 3 45.7150 9.4923 115.7416 0.0000 0.0000 0.0000
# 4 0.0000 0.0000 0.0000 -76.2955 0.0000 0.0000
# 5 0.0000 0.0000 0.0000 0.0000 29.2613 0.0000
# 6 0.0000 0.0000 0.0000 0.0000 0.0000 56.0251
#
#
#
# Elastic Compliance Matrix: (Units=1/GPa)
#
#
# Indices 1 2 3 4 5 6 
#
# 1 0.010008 -0.007307 -0.003353 0.000000 0.000000 0.000000
# 2 -0.007307 0.016062 0.001569 0.000000 0.000000 0.000000
# 3 -0.003353 0.001569 0.009836 0.000000 0.000000 0.000000
# 4 0.000000 0.000000 0.000000 -0.013107 0.000000 0.000000
# 5 0.000000 0.000000 0.000000 0.000000 0.034175 0.000000
# 6 0.000000 0.000000 0.000000 0.000000 0.000000 0.017849
#
#
# Mechanical properties :
#
#
# Convention : Reuss Voigt Hill
#
# Bulk Modulus (GPa) = 56.42852 70.16655 63.29753
# Shear Modulus (GPa) = 50.54942 18.49192 34.52067
#
# Velocity S-wave (km/s) = 4.74977 2.87280 3.92513
# Velocity P-wave (km/s) = 7.43401 6.50534 6.98512
#
# Compressibility (1/GPa) = 0.01772154
#
# Stress axis : x y z
#
# Youngs Moduli (GPa) = 99.92445 62.25937 101.66954
#
# Poissons Ratio (x) = 0.45495 0.34094
# Poissons Ratio (y) = 0.73018 -0.15951
# Poissons Ratio (z) = 0.33509 -0.09768
#
# Static dielectric constant tensor:
#      x y z
#    x 1.799500 0.000000 0.000000 
#    y 0.000000 1.902160 0.000000 
#    z 0.000000 0.000000 1.797640 
# 
# From -- ./inp_files/54427.got.cif
#   From: 2010.05.17/outbox.cif.g08.bks.cpg/sg68_28_cif.got.tgz:54427.got - 2010.06.03 18:57:09.
