data_PCOD9510307
_publ_section_title
;
Structure prediction by ZEFSAII (Michael W. Deem and Ramdas Pophale) SiO2 
 PCOD9510307
Probable space group: C C C A
;
_chemical_formula_sum "Si O2"
_cell_formula_units_Z 116
_cell_length_a 24.861317
_cell_length_b 22.581221
_cell_length_c 9.046054
_cell_angle_alpha 90.000000
_cell_angle_beta 90.000000
_cell_angle_gamma 90.000000
_cell_volume 5078.444706
_symmetry_space_group_name_H-M "C C C A"
_symmetry_group_IT_number 68
_space_group.IT_coordinate_system_code '2'
_symmetry_cell_setting 'orthorhombic'
loop_
_space_group_symop_operation_xyz
x,y,z
-x,1/2-y,z
x,1/2-y,1/2-z
-x,y,1/2-z
-x,-y,-z
x,1/2+y,-z
-x,1/2+y,1/2+z
x,-y,1/2+z
1/2+x,1/2+y,z
1/2-x,-y,z
1/2+x,-y,1/2-z
1/2-x,1/2+y,1/2-z
1/2-x,1/2-y,-z
1/2+x,y,-z
1/2-x,y,1/2+z
1/2+x,1/2-y,1/2+z
loop_
_atom_site_type_symbol
_atom_site_label
_atom_site_fract_x
_atom_site_fract_y
_atom_site_fract_z
Si Si1 0.494680 0.064903 0.570652
Si Si2 0.753650 0.290098 0.644629
Si Si3 0.191536 0.972458 0.007651
Si Si4 0.328936 0.612818 0.766263
Si Si5 0.500000 0.250000 0.250000
Si Si6 0.125357 0.588518 0.979983
Si Si7 0.074712 0.161626 0.558876
Si Si8 0.659962 0.855281 0.177790
O O1 0.500000 0.061123 0.750000
O O2 0.438455 0.089593 0.504918
O O3 0.538966 0.111082 0.515859
O O4 0.500000 0.000000 0.500000
O O5 0.790690 0.250000 0.750000
O O6 0.750000 0.250000 0.500000
O O7 0.786744 0.349576 0.639231
O O8 0.703551 0.310902 0.748025
O O9 0.181889 0.914343 0.906868
O O10 0.250000 0.000000 0.982892
O O11 0.145133 0.021388 0.994805
O O12 0.186137 0.952390 0.179712
O O13 0.333632 0.622143 0.591864
O O14 0.388025 0.629593 0.820652
O O15 0.461659 0.289603 0.358093
O O16 0.133105 0.615150 0.819431
O O17 0.118096 0.178954 0.429961
#
# Coordination Sequence:
#
# PCOD9510307 Si02
#       8
#    16  16  16  16   4  16  16  16
#     4  12  27  46  77 113 154 201 253 318 398 483
#     4  12  25  46  72 102 140 199 253 313 389 457
#     4  11  23  41  69 109 154 200 243 303 387 470
#     4  11  25  44  71 103 148 190 252 312 376 468
#     4  12  28  52  90 104 156 212 282 346 396 490
#     4  12  24  41  72 106 150 195 241 307 388 466
#     4  11  26  53  74 112 149 203 267 329 402 463
#     4  11  24  47  71 109 155 191 255 323 381 479
#
# _framework density 22.841638
#
# number of rings (size 3 to 8) (size 9 to 14) (size 15 to 20)
#    0.000    0.552    1.379    7.448    5.793    1.103 
#    7.448    0.345    0.000    0.000    0.000    0.000 
#    0.000    0.000    0.000    0.000    0.000    0.000 
#
# Total GULP energy -323458.379174 kJ/mol
# GULP energy per Si atom -5576.868606 kJ/mol
# Density = 2.278965 g / cm^3
# Si number density = 22.841638 Si / 1000 Ang^3
#
#
#
# Elastic Constant Matrix: (Units=GPa)
#
#
# Indices 1 2 3 4 5 6 
#
# 1 123.6193 38.1760 41.5169 0.0000 0.0000 0.0000
# 2 38.1760 85.8793 42.7572 0.0000 0.0000 0.0000
# 3 41.5169 42.7572 146.1845 0.0000 0.0000 0.0000
# 4 0.0000 0.0000 0.0000 61.3674 0.0000 0.0000
# 5 0.0000 0.0000 0.0000 0.0000 43.3549 0.0000
# 6 0.0000 0.0000 0.0000 0.0000 0.0000 42.7160
#
#
#
# Elastic Compliance Matrix: (Units=1/GPa)
#
#
# Indices 1 2 3 4 5 6 
#
# 1 0.009747 -0.003458 -0.001757 0.000000 0.000000 0.000000
# 2 -0.003458 0.014856 -0.003363 0.000000 0.000000 0.000000
# 3 -0.001757 -0.003363 0.008323 0.000000 0.000000 0.000000
# 4 0.000000 0.000000 0.000000 0.016295 0.000000 0.000000
# 5 0.000000 0.000000 0.000000 0.000000 0.023065 0.000000
# 6 0.000000 0.000000 0.000000 0.000000 0.000000 0.023410
#
#
# Mechanical properties :
#
#
# Convention : Reuss Voigt Hill
#
# Bulk Modulus (GPa) = 63.41028 66.73148 65.07088
# Shear Modulus (GPa) = 42.33316 45.03652 43.68484
#
# Velocity S-wave (km/s) = 4.30971 4.44518 4.37797
# Velocity P-wave (km/s) = 7.25161 7.45818 7.35562
#
# Compressibility (1/GPa) = 0.01577031
#
# Stress axis : x y z
#
# Youngs Moduli (GPa) = 102.59193 67.31309 120.14560
#
# Poissons Ratio (x) = 0.23279 0.21107
# Poissons Ratio (y) = 0.35480 0.40405
# Poissons Ratio (z) = 0.18023 0.22637
#
# Static dielectric constant tensor:
#      x y z
#    x 1.867260 0.000000 0.000000 
#    y 0.000000 1.980640 0.000000 
#    z 0.000000 0.000000 1.859390 
# 
# From -- ./inp_files/9168.got.cif
#   From: 2010.05.17/outbox.cif.g08.bks.cpg/sg68_5_cif.got.tgz:9168.got - 2010.06.03 18:57:09.
