data_PCOD9510343
_publ_section_title
;
Structure prediction by ZEFSAII (Michael W. Deem and Ramdas Pophale) SiO2 
 PCOD9510343
Probable space group: C C C A
;
_chemical_formula_sum "Si O2"
_cell_formula_units_Z 120
_cell_length_a 11.256568
_cell_length_b 23.415884
_cell_length_c 21.712097
_cell_angle_alpha 90.000000
_cell_angle_beta 90.000000
_cell_angle_gamma 90.000000
_cell_volume 5722.928602
_symmetry_space_group_name_H-M "C C C A"
_symmetry_group_IT_number 68
_space_group.IT_coordinate_system_code '2'
_symmetry_cell_setting 'orthorhombic'
loop_
_space_group_symop_operation_xyz
x,y,z
-x,1/2-y,z
x,1/2-y,1/2-z
-x,y,1/2-z
-x,-y,-z
x,1/2+y,-z
-x,1/2+y,1/2+z
x,-y,1/2+z
1/2+x,1/2+y,z
1/2-x,-y,z
1/2+x,-y,1/2-z
1/2-x,1/2+y,1/2-z
1/2-x,1/2-y,-z
1/2+x,y,-z
1/2-x,y,1/2+z
1/2+x,1/2-y,1/2+z
loop_
_atom_site_type_symbol
_atom_site_label
_atom_site_fract_x
_atom_site_fract_y
_atom_site_fract_z
Si Si1 0.949441 0.054239 0.912112
Si Si2 0.041389 0.385696 0.038496
Si Si3 0.630810 0.038781 0.630266
Si Si4 0.704189 0.104512 0.889315
Si Si5 0.427986 0.871179 0.808806
Si Si6 0.791750 0.434065 0.248516
Si Si7 0.332011 0.207499 0.039146
Si Si8 0.500000 0.250000 0.356124
O O1 0.807662 0.057477 0.902778
O O2 0.012399 0.101512 0.868910
O O3 0.972680 0.071019 0.981946
O O4 0.018990 0.998037 0.892572
O O5 0.144820 0.408707 0.083391
O O6 0.923844 0.391274 0.079121
O O7 0.077390 0.325610 0.007287
O O8 0.606484 0.056655 0.700526
O O9 0.750000 0.000000 0.628607
O O10 0.690471 0.099143 0.815365
O O11 0.763255 0.158645 0.923247
O O12 0.500000 0.892791 0.750000
O O13 0.299941 0.896444 0.790861
O O14 0.453792 0.803914 0.816767
O O15 0.750000 0.500000 0.234929
O O16 0.395624 0.238575 0.095295
O O17 0.250000 0.250000 0.000000
#
# Coordination Sequence:
#
# PCOD9510343 Si02
#       8
#    16  16  16  16  16  16  16   8
#     4  11  23  44  67  99 145 184 230 300 356 449
#     4  11  26  44  69 103 141 183 238 299 359 454
#     4  11  25  42  67 101 138 193 230 290 360 428
#     4  11  25  44  68 106 140 186 243 289 365 454
#     4  12  22  41  68 104 138 175 247 295 360 426
#     4  11  24  42  70  99 148 191 230 297 358 451
#     4  11  25  44  73 101 140 187 235 307 377 438
#     4  12  23  42  72 100 128 183 236 312 358 413
#
# _framework density 20.968285000000002
#
# number of rings (size 3 to 8) (size 9 to 14) (size 15 to 20)
#    0.000    0.800    6.667    1.400    7.467    0.533 
#    2.400    0.000    0.000    0.000    3.467    0.000 
#    0.000    0.000    0.000    0.000    0.000    0.000 
#
# Total GULP energy -334474.973369 kJ/mol
# GULP energy per Si atom -5574.582889 kJ/mol
# Density = 2.092056 g / cm^3
# Si number density = 20.968285 Si / 1000 Ang^3
#
#
#
# Elastic Constant Matrix: (Units=GPa)
#
#
# Indices 1 2 3 4 5 6 
#
# 1 77.5192 22.0719 46.8582 0.0000 0.0000 0.0000
# 2 22.0719 72.6541 35.4410 0.0000 0.0000 0.0000
# 3 46.8582 35.4410 174.5296 0.0000 0.0000 0.0000
# 4 0.0000 0.0000 0.0000 16.7832 0.0000 0.0000
# 5 0.0000 0.0000 0.0000 0.0000 15.9060 0.0000
# 6 0.0000 0.0000 0.0000 0.0000 0.0000 82.0202
#
#
#
# Elastic Compliance Matrix: (Units=1/GPa)
#
#
# Indices 1 2 3 4 5 6 
#
# 1 0.015992 -0.003068 -0.003671 0.000000 0.000000 0.000000
# 2 -0.003068 0.015866 -0.002398 0.000000 0.000000 0.000000
# 3 -0.003671 -0.002398 0.007202 0.000000 0.000000 0.000000
# 4 0.000000 0.000000 0.000000 0.059583 0.000000 0.000000
# 5 0.000000 0.000000 0.000000 0.000000 0.062870 0.000000
# 6 0.000000 0.000000 0.000000 0.000000 0.000000 0.012192
#
#
# Mechanical properties :
#
#
# Convention : Reuss Voigt Hill
#
# Bulk Modulus (GPa) = 48.10714 59.27166 53.68940
# Shear Modulus (GPa) = 25.13733 37.63065 31.38399
#
# Velocity S-wave (km/s) = 3.46616 4.24092 3.87296
# Velocity P-wave (km/s) = 6.24593 7.23251 6.75725
#
# Compressibility (1/GPa) = 0.02078693
#
# Stress axis : x y z
#
# Youngs Moduli (GPa) = 62.52983 63.02923 138.84680
#
# Poissons Ratio (x) = 0.19336 0.50967
# Poissons Ratio (y) = 0.19183 0.33297
# Poissons Ratio (z) = 0.22953 0.15115
#
# Static dielectric constant tensor:
#      x y z
#    x 4.022370 0.000000 0.000000 
#    y 0.000000 1.831730 0.000000 
#    z 0.000000 0.000000 1.736720 
# 
# From -- ./inp_files/37896.got.cif
#   From: 2010.05.17/outbox.cif.g08.bks.cpg/sg68_19_cif.got.tgz:37896.got - 2010.06.03 18:57:09.
