data_PCOD9510067
_publ_section_title
;
Structure prediction by ZEFSAII (Michael W. Deem and Ramdas Pophale) SiO2 
 PCOD9510067
Probable space group: C C C A
;
_chemical_formula_sum "Si O2"
_cell_formula_units_Z 48
_cell_length_a 8.139073
_cell_length_b 18.141909
_cell_length_c 14.296024
_cell_angle_alpha 90.000000
_cell_angle_beta 90.000000
_cell_angle_gamma 90.000000
_cell_volume 2110.926911
_symmetry_space_group_name_H-M "C C C A"
_symmetry_group_IT_number 68
_space_group.IT_coordinate_system_code '2'
_symmetry_cell_setting 'orthorhombic'
loop_
_space_group_symop_operation_xyz
x,y,z
-x,1/2-y,z
x,1/2-y,1/2-z
-x,y,1/2-z
-x,-y,-z
x,1/2+y,-z
-x,1/2+y,1/2+z
x,-y,1/2+z
1/2+x,1/2+y,z
1/2-x,-y,z
1/2+x,-y,1/2-z
1/2-x,1/2+y,1/2-z
1/2-x,1/2-y,-z
1/2+x,y,-z
1/2-x,y,1/2+z
1/2+x,1/2-y,1/2+z
loop_
_atom_site_type_symbol
_atom_site_label
_atom_site_fract_x
_atom_site_fract_y
_atom_site_fract_z
Si Si1 0.020776 0.664614 0.976541
Si Si2 0.714933 0.414211 0.376542
Si Si3 0.689019 0.171178 0.787066
O O1 0.166836 0.664423 0.897962
O O2 0.000000 0.750000 0.002964
O O3 0.862866 0.632465 0.923641
O O4 0.060854 0.613915 0.064617
O O5 0.750000 0.500000 0.387222
O O6 0.713546 0.391546 0.267848
O O7 0.753360 0.250000 0.750000
O O8 0.500000 0.167969 0.750000
#
# Coordination Sequence:
#
# PCOD9510067 Si02
#       3
#    16  16  16
#     4  11  21  40  67  87 121 167 205 243 302 372
#     4  11  23  38  62  95 125 155 202 256 309 353
#     4   9  17  36  62  82 112 166 206 229 292 371
#
# _framework density 22.738824999999999
#
# number of rings (size 3 to 8) (size 9 to 14) (size 15 to 20)
#    0.000    1.667    6.667    2.000    0.000    1.333 
#    0.000    5.000    0.000    0.000    0.000    0.000 
#    0.000    0.000    0.000    0.000    0.000    0.000 
#
# Total GULP energy -134130.648907 kJ/mol
# GULP energy per Si atom -5588.777038 kJ/mol
# Density = 2.268707 g / cm^3
# Si number density = 22.738825 Si / 1000 Ang^3
#
#
#
# Elastic Constant Matrix: (Units=GPa)
#
#
# Indices 1 2 3 4 5 6 
#
# 1 31.3740 -6.8566 -2.9785 0.0000 0.0000 0.0000
# 2 -6.8566 107.6707 8.0058 0.0000 0.0000 0.0000
# 3 -2.9785 8.0058 92.9040 0.0000 0.0000 0.0000
# 4 0.0000 0.0000 0.0000 39.1485 0.0000 0.0000
# 5 0.0000 0.0000 0.0000 0.0000 20.5807 0.0000
# 6 0.0000 0.0000 0.0000 0.0000 0.0000 8.2165
#
#
#
# Elastic Compliance Matrix: (Units=1/GPa)
#
#
# Indices 1 2 3 4 5 6 
#
# 1 0.032393 0.001998 0.000866 0.000000 0.000000 0.000000
# 2 0.001998 0.009471 -0.000752 0.000000 0.000000 0.000000
# 3 0.000866 -0.000752 0.010856 0.000000 0.000000 0.000000
# 4 0.000000 0.000000 0.000000 0.025544 0.000000 0.000000
# 5 0.000000 0.000000 0.000000 0.000000 0.048589 0.000000
# 6 0.000000 0.000000 0.000000 0.000000 0.000000 0.121706
#
#
# Mechanical properties :
#
#
# Convention : Reuss Voigt Hill
#
# Bulk Modulus (GPa) = 17.56085 25.36558 21.46321
# Shear Modulus (GPa) = 18.98863 29.17432 24.08147
#
# Velocity S-wave (km/s) = 2.89290 3.58581 3.25783
# Velocity P-wave (km/s) = 4.34720 5.32198 4.85909
#
# Compressibility (1/GPa) = 0.05694486
#
# Stress axis : x y z
#
# Youngs Moduli (GPa) = 30.87133 105.58819 92.11170
#
# Poissons Ratio (x) = -0.21100 -0.07980
# Poissons Ratio (y) = -0.06169 0.06927
# Poissons Ratio (z) = -0.02674 0.07941
#
# Static dielectric constant tensor:
#      x y z
#    x 1.902810 0.000000 0.000000 
#    y 0.000000 1.775940 0.000000 
#    z 0.000000 0.000000 1.916650 
# 
# From -- ./inp_files/11240.got.cif
#   From: 2010.05.17/outbox.cif.g08.bks.cpg/sg68_6_cif.got.tgz:11240.got - 2010.06.03 18:57:09.
