data_PCOD9510620
_publ_section_title
;
Structure prediction by ZEFSAII (Michael W. Deem and Ramdas Pophale) SiO2 
 PCOD9510620
Probable space group: C C C A
;
_chemical_formula_sum "Si O2"
_cell_formula_units_Z 48
_cell_length_a 9.043717
_cell_length_b 20.583424
_cell_length_c 10.884630
_cell_angle_alpha 90.000000
_cell_angle_beta 90.000000
_cell_angle_gamma 90.000000
_cell_volume 2026.181075
_symmetry_space_group_name_H-M "C C C A"
_symmetry_group_IT_number 68
_space_group.IT_coordinate_system_code '2'
_symmetry_cell_setting 'orthorhombic'
loop_
_space_group_symop_operation_xyz
x,y,z
-x,1/2-y,z
x,1/2-y,1/2-z
-x,y,1/2-z
-x,-y,-z
x,1/2+y,-z
-x,1/2+y,1/2+z
x,-y,1/2+z
1/2+x,1/2+y,z
1/2-x,-y,z
1/2+x,-y,1/2-z
1/2-x,1/2+y,1/2-z
1/2-x,1/2-y,-z
1/2+x,y,-z
1/2-x,y,1/2+z
1/2+x,1/2-y,1/2+z
loop_
_atom_site_type_symbol
_atom_site_label
_atom_site_fract_x
_atom_site_fract_y
_atom_site_fract_z
Si Si1 0.029708 0.359222 0.108961
Si Si2 0.280206 0.075044 0.064071
Si Si3 0.500000 0.147089 0.250000
Si Si4 0.000000 0.750000 0.062877
O O1 0.870939 0.385078 0.064474
O O2 0.000000 0.344870 0.250000
O O3 0.142766 0.415306 0.068793
O O4 0.084423 0.297007 0.031182
O O5 0.388370 0.104679 0.168934
O O6 0.250000 0.000000 0.088085
O O7 0.575750 0.197915 0.154291
#
# Coordination Sequence:
#
# PCOD9510620 Si02
#       4
#    16  16   8   8
#     4  11  26  44  73 109 146 198 244 307 374 442
#     4  11  26  47  73 107 149 193 252 301 375 441
#     4   9  22  44  78 102 142 197 236 316 360 435
#     4   9  21  48  66 108 143 187 248 302 368 437
#
# _framework density 23.689888
#
# number of rings (size 3 to 8) (size 9 to 14) (size 15 to 20)
#    0.000    1.667    0.000    1.500   11.667    6.667 
#   12.000    0.000    0.000    0.000    0.000    0.000 
#    0.000    0.000    0.000    0.000    0.000    0.000 
#
# Total GULP energy -133919.868278 kJ/mol
# GULP energy per Si atom -5579.994512 kJ/mol
# Density = 2.363597 g / cm^3
# Si number density = 23.689888 Si / 1000 Ang^3
#
#
#
# Elastic Constant Matrix: (Units=GPa)
#
#
# Indices 1 2 3 4 5 6 
#
# 1 54.8026 30.2210 5.4767 0.0000 0.0000 0.0000
# 2 30.2210 167.4412 75.2696 0.0000 0.0000 0.0000
# 3 5.4767 75.2696 148.2388 0.0000 0.0000 0.0000
# 4 0.0000 0.0000 0.0000 23.4114 0.0000 0.0000
# 5 0.0000 0.0000 0.0000 0.0000 43.5889 0.0000
# 6 0.0000 0.0000 0.0000 0.0000 0.0000 5.0561
#
#
#
# Elastic Compliance Matrix: (Units=1/GPa)
#
#
# Indices 1 2 3 4 5 6 
#
# 1 0.020503 -0.004354 0.001453 0.000000 0.000000 0.000000
# 2 -0.004354 0.008663 -0.004238 0.000000 0.000000 0.000000
# 3 0.001453 -0.004238 0.008844 0.000000 0.000000 0.000000
# 4 0.000000 0.000000 0.000000 0.042714 0.000000 0.000000
# 5 0.000000 0.000000 0.000000 0.000000 0.022942 0.000000
# 6 0.000000 0.000000 0.000000 0.000000 0.000000 0.197782
#
#
# Mechanical properties :
#
#
# Convention : Reuss Voigt Hill
#
# Bulk Modulus (GPa) = 42.13526 65.82413 53.97969
# Shear Modulus (GPa) = 15.44945 31.71229 23.58087
#
# Velocity S-wave (km/s) = 2.55650 3.66272 3.15842
# Velocity P-wave (km/s) = 5.15161 6.76265 6.01134
#
# Compressibility (1/GPa) = 0.02373309
#
# Stress axis : x y z
#
# Youngs Moduli (GPa) = 48.77342 115.43192 113.07065
#
# Poissons Ratio (x) = 0.50256 -0.16431
# Poissons Ratio (y) = 0.21235 0.47918
# Poissons Ratio (z) = -0.07088 0.48919
#
# Static dielectric constant tensor:
#      x y z
#    x 1.880100 0.000000 0.000000 
#    y 0.000000 1.908930 0.000000 
#    z 0.000000 0.000000 1.979350 
# 
# From -- ./inp_files/11293.got.cif
#   From: 2010.05.17/outbox.cif.g08.bks.cpg/sg68_6_cif.got.tgz:11293.got - 2010.06.03 18:57:09.
