data_PCOD9510051
_publ_section_title
;
Structure prediction by ZEFSAII (Michael W. Deem and Ramdas Pophale) SiO2 
 PCOD9510051
Probable space group: C C C A
;
_chemical_formula_sum "Si O2"
_cell_formula_units_Z 68
_cell_length_a 11.598819
_cell_length_b 18.629442
_cell_length_c 13.179647
_cell_angle_alpha 90.000000
_cell_angle_beta 90.000000
_cell_angle_gamma 90.000000
_cell_volume 2847.851874
_symmetry_space_group_name_H-M "C C C A"
_symmetry_group_IT_number 68
_space_group.IT_coordinate_system_code '2'
_symmetry_cell_setting 'orthorhombic'
loop_
_space_group_symop_operation_xyz
x,y,z
-x,1/2-y,z
x,1/2-y,1/2-z
-x,y,1/2-z
-x,-y,-z
x,1/2+y,-z
-x,1/2+y,1/2+z
x,-y,1/2+z
1/2+x,1/2+y,z
1/2-x,-y,z
1/2+x,-y,1/2-z
1/2-x,1/2+y,1/2-z
1/2-x,1/2-y,-z
1/2+x,y,-z
1/2-x,y,1/2+z
1/2+x,1/2-y,1/2+z
loop_
_atom_site_type_symbol
_atom_site_label
_atom_site_fract_x
_atom_site_fract_y
_atom_site_fract_z
Si Si1 0.545037 0.866279 0.150069
Si Si2 0.383689 0.990984 0.653005
Si Si3 0.511433 0.852142 0.929341
Si Si4 0.795157 0.573497 0.360726
Si Si5 0.500000 0.250000 0.250000
O O1 0.500000 0.827798 0.250000
O O2 0.677016 0.888578 0.170641
O O3 0.460370 0.937195 0.143429
O O4 0.539269 0.827309 0.042157
O O5 0.432784 0.930160 0.580978
O O6 0.372349 0.956551 0.766796
O O7 0.250000 0.000000 0.629014
O O8 0.375624 0.869558 0.917088
O O9 0.554889 0.803920 0.834308
O O10 0.750000 0.500000 0.412291
#
# Coordination Sequence:
#
# PCOD9510051 Si02
#       5
#    16  16  16  16   4
#     4  12  24  39  67 112 146 177 231 302 381 418
#     4  11  21  38  70 110 151 175 224 302 371 433
#     4  12  26  45  74  99 146 199 242 291 352 447
#     4  11  21  39  69 109 146 180 227 304 369 428
#     4  12  28  56  70  96 138 212 260 288 340 442
#
# _framework density 23.877645000000001
#
# number of rings (size 3 to 8) (size 9 to 14) (size 15 to 20)
#    0.000    0.471    9.412    0.706    3.294    0.000 
#    0.000    1.765    0.000    0.000    0.000    0.000 
#    0.000    0.000    0.000    0.000    0.000    0.000 
#
# Total GULP energy -189761.218016 kJ/mol
# GULP energy per Si atom -5581.212295 kJ/mol
# Density = 2.382330 g / cm^3
# Si number density = 23.877645 Si / 1000 Ang^3
#
#
#
# Elastic Constant Matrix: (Units=GPa)
#
#
# Indices 1 2 3 4 5 6 
#
# 1 138.3804 12.0827 3.4255 0.0000 0.0000 0.0000
# 2 12.0827 89.0983 16.6111 0.0000 0.0000 0.0000
# 3 3.4255 16.6111 192.0829 0.0000 0.0000 0.0000
# 4 0.0000 0.0000 0.0000 3.5571 0.0000 0.0000
# 5 0.0000 0.0000 0.0000 0.0000 24.3189 0.0000
# 6 0.0000 0.0000 0.0000 0.0000 0.0000 -0.1347
#
#
#
# Elastic Compliance Matrix: (Units=1/GPa)
#
#
# Indices 1 2 3 4 5 6 
#
# 1 0.007313 -0.000983 -0.000045 0.000000 0.000000 0.000000
# 2 -0.000983 0.011540 -0.000980 0.000000 0.000000 0.000000
# 3 -0.000045 -0.000980 0.005292 0.000000 0.000000 0.000000
# 4 0.000000 0.000000 0.000000 0.281124 0.000000 0.000000
# 5 0.000000 0.000000 0.000000 0.000000 0.041120 0.000000
# 6 0.000000 0.000000 0.000000 0.000000 0.000000 -7.423755
#
#
# Mechanical properties :
#
#
# Convention : Reuss Voigt Hill
#
# Bulk Modulus (GPa) = 49.68551 53.75556 51.72054
# Shear Modulus (GPa) = -0.70755 31.37775 15.33510
#
# Velocity S-wave (km/s) = -0.54495 3.62899 2.53699
# Velocity P-wave (km/s) = 4.52301 6.33413 5.50358
#
# Compressibility (1/GPa) = 0.02012659
#
# Stress axis : x y z
#
# Youngs Moduli (GPa) = 136.73461 86.65746 188.97592
#
# Poissons Ratio (x) = 0.08521 0.00858
# Poissons Ratio (y) = 0.13445 0.18527
# Poissons Ratio (z) = 0.00621 0.08496
#
# Static dielectric constant tensor:
#      x y z
#    x 1.938530 0.000000 0.000000 
#    y 0.000000 1.942390 0.000000 
#    z 0.000000 0.000000 2.031960 
# 
# From -- ./inp_files/20655.got.cif
#   From: 2010.05.17/outbox.cif.g08.bks.cpg/sg68_11_cif.got.tgz:20655.got - 2010.06.03 18:57:09.
