data_PCOD9510369
_publ_section_title
;
Structure prediction by ZEFSAII (Michael W. Deem and Ramdas Pophale) SiO2 
 PCOD9510369
Probable space group: C C C A
;
_chemical_formula_sum "Si O2"
_cell_formula_units_Z 48
_cell_length_a 7.713866
_cell_length_b 17.722039
_cell_length_c 14.062584
_cell_angle_alpha 90.000000
_cell_angle_beta 90.000000
_cell_angle_gamma 90.000000
_cell_volume 1922.431650
_symmetry_space_group_name_H-M "C C C A"
_symmetry_group_IT_number 68
_space_group.IT_coordinate_system_code '2'
_symmetry_cell_setting 'orthorhombic'
loop_
_space_group_symop_operation_xyz
x,y,z
-x,1/2-y,z
x,1/2-y,1/2-z
-x,y,1/2-z
-x,-y,-z
x,1/2+y,-z
-x,1/2+y,1/2+z
x,-y,1/2+z
1/2+x,1/2+y,z
1/2-x,-y,z
1/2+x,-y,1/2-z
1/2-x,1/2+y,1/2-z
1/2-x,1/2-y,-z
1/2+x,y,-z
1/2-x,y,1/2+z
1/2+x,1/2-y,1/2+z
loop_
_atom_site_type_symbol
_atom_site_label
_atom_site_fract_x
_atom_site_fract_y
_atom_site_fract_z
Si Si1 0.904419 0.827433 0.952733
Si Si2 0.456834 0.636944 0.859510
Si Si3 0.053207 0.030234 0.353686
O O1 0.722996 0.831315 0.898802
O O2 0.000000 0.750000 0.928419
O O3 0.010468 0.902587 0.924305
O O4 0.897209 0.833863 0.067468
O O5 0.500000 0.654391 0.750000
O O6 0.443960 0.546113 0.867356
O O7 0.000000 0.060020 0.250000
O O8 0.250000 0.000000 0.356498
#
# Coordination Sequence:
#
# PCOD9510369 Si02
#       3
#    16  16  16
#     4  12  26  47  75 112 150 193 245 312 381 441
#     4  11  25  48  78 110 149 199 253 306 365 447
#     4  11  23  45  75 108 145 198 254 306 368 446
#
# _framework density 24.968378000000001
#
# number of rings (size 3 to 8) (size 9 to 14) (size 15 to 20)
#    0.000    0.667    0.000    9.000    0.000    1.333 
#    0.000    8.333    0.000    4.000    0.000    0.000 
#    0.000    0.000    0.000    0.000    0.000    0.000 
#
# Total GULP energy -134618.673988 kJ/mol
# GULP energy per Si atom -5609.111416 kJ/mol
# Density = 2.491155 g / cm^3
# Si number density = 24.968378 Si / 1000 Ang^3
#
#
#
# Elastic Constant Matrix: (Units=GPa)
#
#
# Indices 1 2 3 4 5 6 
#
# 1 144.8822 50.7144 97.9077 0.0000 0.0000 0.0000
# 2 50.7144 141.0036 79.4246 0.0000 0.0000 0.0000
# 3 97.9077 79.4246 224.0296 0.0000 0.0000 0.0000
# 4 0.0000 0.0000 0.0000 1157.2690 0.0000 0.0000
# 5 0.0000 0.0000 0.0000 0.0000 39.4230 0.0000
# 6 0.0000 0.0000 0.0000 0.0000 0.0000 19.8678
#
#
#
# Elastic Compliance Matrix: (Units=1/GPa)
#
#
# Indices 1 2 3 4 5 6 
#
# 1 0.010018 -0.001421 -0.003874 0.000000 0.000000 0.000000
# 2 -0.001421 0.009063 -0.002592 0.000000 0.000000 0.000000
# 3 -0.003874 -0.002592 0.007076 0.000000 0.000000 0.000000
# 4 0.000000 0.000000 0.000000 0.000864 0.000000 0.000000
# 5 0.000000 0.000000 0.000000 0.000000 0.025366 0.000000
# 6 0.000000 0.000000 0.000000 0.000000 0.000000 0.050333
#
#
# Mechanical properties :
#
#
# Convention : Reuss Voigt Hill
#
# Bulk Modulus (GPa) = 96.31899 107.33431 101.82665
# Shear Modulus (GPa) = 40.99881 262.10320 151.55100
#
# Velocity S-wave (km/s) = 4.05659 10.25680 7.79929
# Velocity P-wave (km/s) = 7.78469 13.54070 11.04428
#
# Compressibility (1/GPa) = 0.01038217
#
# Stress axis : x y z
#
# Youngs Moduli (GPa) = 99.82399 110.33689 141.32420
#
# Poissons Ratio (x) = 0.15675 0.54754
# Poissons Ratio (y) = 0.14182 0.36635
# Poissons Ratio (z) = 0.38675 0.28602
#
# Static dielectric constant tensor:
#      x y z
#    x 2.031040 0.000000 0.000000 
#    y 0.000000 1.941810 0.000000 
#    z 0.000000 0.000000 1.990200 
# 
# From -- ./inp_files/18736.got.cif
#   From: 2010.05.17/outbox.cif.g08.bks.cpg/sg68_10_cif.got.tgz:18736.got - 2010.06.03 18:57:09.
