data_PCOD9510555
_publ_section_title
;
Structure prediction by ZEFSAII (Michael W. Deem and Ramdas Pophale) SiO2 
 PCOD9510555
Probable space group: C C C A
;
_chemical_formula_sum "Si O2"
_cell_formula_units_Z 72
_cell_length_a 18.944153
_cell_length_b 17.109473
_cell_length_c 9.658091
_cell_angle_alpha 90.000000
_cell_angle_beta 90.000000
_cell_angle_gamma 90.000000
_cell_volume 3130.423668
_symmetry_space_group_name_H-M "C C C A"
_symmetry_group_IT_number 68
_space_group.IT_coordinate_system_code '2'
_symmetry_cell_setting 'orthorhombic'
loop_
_space_group_symop_operation_xyz
x,y,z
-x,1/2-y,z
x,1/2-y,1/2-z
-x,y,1/2-z
-x,-y,-z
x,1/2+y,-z
-x,1/2+y,1/2+z
x,-y,1/2+z
1/2+x,1/2+y,z
1/2-x,-y,z
1/2+x,-y,1/2-z
1/2-x,1/2+y,1/2-z
1/2-x,1/2-y,-z
1/2+x,y,-z
1/2-x,y,1/2+z
1/2+x,1/2-y,1/2+z
loop_
_atom_site_type_symbol
_atom_site_label
_atom_site_fract_x
_atom_site_fract_y
_atom_site_fract_z
Si Si1 0.500000 0.967897 0.250000
Si Si2 0.897244 0.832634 0.679041
Si Si3 0.324964 0.041612 0.349176
Si Si4 0.263745 0.302937 0.130208
Si Si5 0.409205 0.935051 0.566566
O O1 0.564469 0.905474 0.253302
O O2 0.519085 0.027573 0.373265
O O3 0.918009 0.750000 0.750000
O O4 0.812163 0.833534 0.685920
O O5 0.916381 0.853132 0.517579
O O6 0.309481 0.124655 0.417609
O O7 0.129052 0.010019 0.453187
O O8 0.250000 0.000000 0.325327
O O9 0.360190 0.063333 0.202521
O O10 0.296730 0.250000 0.250000
O O11 0.250000 0.250000 0.000000
#
# Coordination Sequence:
#
# PCOD9510555 Si02
#       5
#     8  16  16  16  16
#     4  12  25  48  72 110 143 202 264 300 361 454
#     4  11  25  45  72 106 147 195 242 307 377 438
#     4  12  25  43  74 110 149 190 247 306 382 451
#     4  11  25  43  68 104 144 184 238 300 377 439
#     4  12  25  45  75 108 147 198 256 309 367 449
#
# _framework density 23.000081000000002
#
# number of rings (size 3 to 8) (size 9 to 14) (size 15 to 20)
#    0.000    0.444    4.444    3.000    9.333    0.000 
#    0.000    0.000    0.000    0.000    0.000    0.000 
#    0.000    0.000    0.000    0.000    0.000    0.000 
#
# Total GULP energy -200903.405749 kJ/mol
# GULP energy per Si atom -5580.650160 kJ/mol
# Density = 2.294773 g / cm^3
# Si number density = 23.000081 Si / 1000 Ang^3
#
#
#
# Elastic Constant Matrix: (Units=GPa)
#
#
# Indices 1 2 3 4 5 6 
#
# 1 72.6682 24.3753 13.8853 0.0000 0.0000 0.0000
# 2 24.3753 144.7458 57.0904 0.0000 0.0000 0.0000
# 3 13.8853 57.0904 139.3313 0.0000 0.0000 0.0000
# 4 0.0000 0.0000 0.0000 52.1738 0.0000 0.0000
# 5 0.0000 0.0000 0.0000 0.0000 34.5943 0.0000
# 6 0.0000 0.0000 0.0000 0.0000 0.0000 30.3191
#
#
#
# Elastic Compliance Matrix: (Units=1/GPa)
#
#
# Indices 1 2 3 4 5 6 
#
# 1 0.014618 -0.002251 -0.000535 0.000000 0.000000 0.000000
# 2 -0.002251 0.008587 -0.003294 0.000000 0.000000 0.000000
# 3 -0.000535 -0.003294 0.008580 0.000000 0.000000 0.000000
# 4 0.000000 0.000000 0.000000 0.019167 0.000000 0.000000
# 5 0.000000 0.000000 0.000000 0.000000 0.028906 0.000000
# 6 0.000000 0.000000 0.000000 0.000000 0.000000 0.032983
#
#
# Mechanical properties :
#
#
# Convention : Reuss Voigt Hill
#
# Bulk Modulus (GPa) = 50.95198 60.82748 55.88973
# Shear Modulus (GPa) = 38.01052 40.84373 39.42713
#
# Velocity S-wave (km/s) = 4.06966 4.21861 4.14480
# Velocity P-wave (km/s) = 6.65461 7.08752 6.87447
#
# Compressibility (1/GPa) = 0.01962632
#
# Stress axis : x y z
#
# Youngs Moduli (GPa) = 68.40719 116.45516 116.54773
#
# Poissons Ratio (x) = 0.26213 0.06230
# Poissons Ratio (y) = 0.15398 0.38393
# Poissons Ratio (z) = 0.03656 0.38362
#
# Static dielectric constant tensor:
#      x y z
#    x 1.993810 0.000000 0.000000 
#    y 0.000000 1.892040 0.000000 
#    z 0.000000 0.000000 1.862790 
# 
# From -- ./inp_files/7030.got.cif
#   From: 2010.05.17/outbox.cif.g08.bks.cpg/sg68_4_cif.got.tgz:7030.got - 2010.06.03 18:57:09.
