data_PCOD9510529
_publ_section_title
;
Structure prediction by ZEFSAII (Michael W. Deem and Ramdas Pophale) SiO2 
 PCOD9510529
Probable space group: C C C A
;
_chemical_formula_sum "Si O2"
_cell_formula_units_Z 60
_cell_length_a 18.057990
_cell_length_b 11.457137
_cell_length_c 13.963035
_cell_angle_alpha 90.000000
_cell_angle_beta 90.000000
_cell_angle_gamma 90.000000
_cell_volume 2888.852320
_symmetry_space_group_name_H-M "C C C A"
_symmetry_group_IT_number 68
_space_group.IT_coordinate_system_code '2'
_symmetry_cell_setting 'orthorhombic'
loop_
_space_group_symop_operation_xyz
x,y,z
-x,1/2-y,z
x,1/2-y,1/2-z
-x,y,1/2-z
-x,-y,-z
x,1/2+y,-z
-x,1/2+y,1/2+z
x,-y,1/2+z
1/2+x,1/2+y,z
1/2-x,-y,z
1/2+x,-y,1/2-z
1/2-x,1/2+y,1/2-z
1/2-x,1/2-y,-z
1/2+x,y,-z
1/2-x,y,1/2+z
1/2+x,1/2-y,1/2+z
loop_
_atom_site_type_symbol
_atom_site_label
_atom_site_fract_x
_atom_site_fract_y
_atom_site_fract_z
Si Si1 0.317377 0.831915 0.527114
Si Si2 0.620594 0.070941 0.668578
Si Si3 0.750000 0.500000 0.687019
Si Si4 0.000000 0.750000 0.750000
Si Si5 0.919249 0.694969 0.344490
O O1 0.250000 0.750000 0.500000
O O2 0.344124 0.902487 0.434720
O O3 0.379456 0.742734 0.562541
O O4 0.293351 0.914120 0.614930
O O5 0.688268 0.063209 0.745752
O O6 0.557120 0.165498 0.692988
O O7 0.583586 0.943211 0.665182
O O8 0.881295 0.750000 0.250000
O O9 0.000000 0.750000 0.347064
#
# Coordination Sequence:
#
# PCOD9510529 Si02
#       5
#    16  16   8   4  16
#     4  12  26  44  75 109 144 197 250 300 372 454
#     4  12  27  47  76 110 151 195 251 311 384 446
#     4  12  24  48  74 106 154 196 246 316 366 452
#     4  12  28  48  74 116 158 190 256 330 380 452
#     4  11  24  47  73 103 146 197 240 298 375 444
#
# _framework density 20.769492
#
# number of rings (size 3 to 8) (size 9 to 14) (size 15 to 20)
#    0.000    0.267    2.667    7.200    1.867    1.067 
#    0.000    0.000    0.000    0.000    0.000    0.000 
#    0.000    0.000    0.000    0.000    0.000    0.000 
#
# Total GULP energy -167738.161378 kJ/mol
# GULP energy per Si atom -5591.272046 kJ/mol
# Density = 2.072222 g / cm^3
# Si number density = 20.769492 Si / 1000 Ang^3
#
#
#
# Elastic Constant Matrix: (Units=GPa)
#
#
# Indices 1 2 3 4 5 6 
#
# 1 129.9997 61.0187 73.7818 0.0000 0.0000 0.0000
# 2 61.0187 167.8110 70.1621 0.0000 0.0000 0.0000
# 3 73.7818 70.1621 146.4588 0.0000 0.0000 0.0000
# 4 0.0000 0.0000 0.0000 40.3714 0.0000 0.0000
# 5 0.0000 0.0000 0.0000 0.0000 27.0211 0.0000
# 6 0.0000 0.0000 0.0000 0.0000 0.0000 46.5511
#
#
#
# Elastic Compliance Matrix: (Units=1/GPa)
#
#
# Indices 1 2 3 4 5 6 
#
# 1 0.011374 -0.002176 -0.004688 0.000000 0.000000 0.000000
# 2 -0.002176 0.007868 -0.002673 0.000000 0.000000 0.000000
# 3 -0.004688 -0.002673 0.010470 0.000000 0.000000 0.000000
# 4 0.000000 0.000000 0.000000 0.024770 0.000000 0.000000
# 5 0.000000 0.000000 0.000000 0.000000 0.037008 0.000000
# 6 0.000000 0.000000 0.000000 0.000000 0.000000 0.021482
#
#
# Mechanical properties :
#
#
# Convention : Reuss Voigt Hill
#
# Bulk Modulus (GPa) = 93.99505 94.91051 94.45278
# Shear Modulus (GPa) = 36.87565 38.74253 37.80909
#
# Velocity S-wave (km/s) = 4.21821 4.32366 4.27126
# Velocity P-wave (km/s) = 8.31137 8.40962 8.36064
#
# Compressibility (1/GPa) = 0.01063886
#
# Stress axis : x y z
#
# Youngs Moduli (GPa) = 87.91911 127.09924 95.51262
#
# Poissons Ratio (x) = 0.27656 0.44772
# Poissons Ratio (y) = 0.19131 0.25530
# Poissons Ratio (z) = 0.41213 0.33973
#
# Static dielectric constant tensor:
#      x y z
#    x 1.707830 0.000000 0.000000 
#    y 0.000000 1.732700 0.000000 
#    z 0.000000 0.000000 1.725880 
# 
# From -- ./inp_files/11583.got.cif
#   From: 2010.05.17/outbox.cif.g08.bks.cpg/sg68_6_cif.got.tgz:11583.got - 2010.06.03 18:57:09.
