data_PCOD9510717
_publ_section_title
;
Structure prediction by ZEFSAII (Michael W. Deem and Ramdas Pophale) SiO2 
 PCOD9510717
Probable space group: C C C A
;
_chemical_formula_sum "Si O2"
_cell_formula_units_Z 60
_cell_length_a 8.474230
_cell_length_b 19.638455
_cell_length_c 14.473768
_cell_angle_alpha 90.000000
_cell_angle_beta 90.000000
_cell_angle_gamma 90.000000
_cell_volume 2408.735825
_symmetry_space_group_name_H-M "C C C A"
_symmetry_group_IT_number 68
_space_group.IT_coordinate_system_code '2'
_symmetry_cell_setting 'orthorhombic'
loop_
_space_group_symop_operation_xyz
x,y,z
-x,1/2-y,z
x,1/2-y,1/2-z
-x,y,1/2-z
-x,-y,-z
x,1/2+y,-z
-x,1/2+y,1/2+z
x,-y,1/2+z
1/2+x,1/2+y,z
1/2-x,-y,z
1/2+x,-y,1/2-z
1/2-x,1/2+y,1/2-z
1/2-x,1/2-y,-z
1/2+x,y,-z
1/2-x,y,1/2+z
1/2+x,1/2-y,1/2+z
loop_
_atom_site_type_symbol
_atom_site_label
_atom_site_fract_x
_atom_site_fract_y
_atom_site_fract_z
Si Si1 0.056469 0.885576 0.036078
Si Si2 0.766661 0.844845 0.820752
Si Si3 0.227057 0.923917 0.864732
Si Si4 0.000000 0.250000 0.065972
Si Si5 0.500000 0.250000 0.250000
O O1 0.887750 0.897894 0.084380
O O2 0.198533 0.900046 0.107511
O O3 0.076883 0.807622 0.998814
O O4 0.090370 0.926286 0.941902
O O5 0.811253 0.875625 0.721816
O O6 0.889269 0.794857 0.868540
O O7 0.612763 0.798944 0.805508
O O8 0.250000 0.000000 0.829094
#
# Coordination Sequence:
#
# PCOD9510717 Si02
#       5
#    16  16  16   8   4
#     4  12  25  51  76 111 152 198 251 326 382 451
#     4  12  26  48  76 112 153 199 249 329 382 463
#     4  12  28  50  76 109 153 209 259 305 381 462
#     4  12  27  49  78 116 152 190 260 318 402 456
#     4  12  22  42  74 104 148 188 242 310 406 438
#
# _framework density 24.909330000000001
#
# number of rings (size 3 to 8) (size 9 to 14) (size 15 to 20)
#    0.000    0.000    5.333    4.000    0.000    5.867 
#    9.600    0.000    0.000    0.000    0.000    0.000 
#    0.000    0.000    0.000    0.000    0.000    0.000 
#
# Total GULP energy -168035.937912 kJ/mol
# GULP energy per Si atom -5601.197930 kJ/mol
# Density = 2.485264 g / cm^3
# Si number density = 24.909330 Si / 1000 Ang^3
#
#
#
# Elastic Constant Matrix: (Units=GPa)
#
#
# Indices 1 2 3 4 5 6 
#
# 1 119.3852 17.8585 70.8733 0.0000 0.0000 0.0000
# 2 17.8585 78.2346 30.7132 0.0000 0.0000 0.0000
# 3 70.8733 30.7132 187.2889 0.0000 0.0000 0.0000
# 4 0.0000 0.0000 0.0000 -34.1711 0.0000 0.0000
# 5 0.0000 0.0000 0.0000 0.0000 9.1631 0.0000
# 6 0.0000 0.0000 0.0000 0.0000 0.0000 18.8617
#
#
#
# Elastic Compliance Matrix: (Units=1/GPa)
#
#
# Indices 1 2 3 4 5 6 
#
# 1 0.010866 -0.000926 -0.003960 0.000000 0.000000 0.000000
# 2 -0.000926 0.013740 -0.001903 0.000000 0.000000 0.000000
# 3 -0.003960 -0.001903 0.007150 0.000000 0.000000 0.000000
# 4 0.000000 0.000000 0.000000 -0.029265 0.000000 0.000000
# 5 0.000000 0.000000 0.000000 0.000000 0.109133 0.000000
# 6 0.000000 0.000000 0.000000 0.000000 0.000000 0.053018
#
#
# Mechanical properties :
#
#
# Convention : Reuss Voigt Hill
#
# Bulk Modulus (GPa) = 55.00930 69.31097 62.16013
# Shear Modulus (GPa) = 27.13278 16.46832 21.80055
#
# Velocity S-wave (km/s) = 3.30398 2.57404 2.96158
# Velocity P-wave (km/s) = 6.05696 6.05970 6.05833
#
# Compressibility (1/GPa) = 0.01817875
#
# Stress axis : x y z
#
# Youngs Moduli (GPa) = 92.03424 72.77789 139.86205
#
# Poissons Ratio (x) = 0.06737 0.55384
# Poissons Ratio (y) = 0.08519 0.26615
# Poissons Ratio (z) = 0.36445 0.13849
#
# Static dielectric constant tensor:
#      x y z
#    x 2.098720 0.000000 0.000000 
#    y 0.000000 2.178590 0.000000 
#    z 0.000000 0.000000 2.029970 
# 
# From -- ./inp_files/19162.got.cif
#   From: 2010.05.17/outbox.cif.g08.bks.cpg/sg68_10_cif.got.tgz:19162.got - 2010.06.03 18:57:09.
