data_PCOD9510757
_publ_section_title
;
Structure prediction by ZEFSAII (Michael W. Deem and Ramdas Pophale) SiO2 
 PCOD9510757
Probable space group: C C C A
;
_chemical_formula_sum "Si O2"
_cell_formula_units_Z 64
_cell_length_a 11.034548
_cell_length_b 17.922040
_cell_length_c 14.735824
_cell_angle_alpha 90.000000
_cell_angle_beta 90.000000
_cell_angle_gamma 90.000000
_cell_volume 2914.180288
_symmetry_space_group_name_H-M "C C C A"
_symmetry_group_IT_number 68
_space_group.IT_coordinate_system_code '2'
_symmetry_cell_setting 'orthorhombic'
loop_
_space_group_symop_operation_xyz
x,y,z
-x,1/2-y,z
x,1/2-y,1/2-z
-x,y,1/2-z
-x,-y,-z
x,1/2+y,-z
-x,1/2+y,1/2+z
x,-y,1/2+z
1/2+x,1/2+y,z
1/2-x,-y,z
1/2+x,-y,1/2-z
1/2-x,1/2+y,1/2-z
1/2-x,1/2-y,-z
1/2+x,y,-z
1/2-x,y,1/2+z
1/2+x,1/2-y,1/2+z
loop_
_atom_site_type_symbol
_atom_site_label
_atom_site_fract_x
_atom_site_fract_y
_atom_site_fract_z
Si Si1 0.058279 0.542621 0.089250
Si Si2 0.376872 0.894896 0.307969
Si Si3 0.243775 0.835869 0.972679
Si Si4 0.309611 0.418870 0.341855
O O1 0.122224 0.477204 0.146776
O O2 0.142629 0.612792 0.062170
O O3 0.952329 0.570679 0.155010
O O4 0.000000 0.500000 0.000000
O O5 0.500000 0.885234 0.250000
O O6 0.358549 0.842799 0.394936
O O7 0.262064 0.883715 0.241970
O O8 0.250000 0.750000 0.000000
O O9 0.213148 0.875616 0.066069
O O10 0.250000 0.500000 0.351125
#
# Coordination Sequence:
#
# PCOD9510757 Si02
#       4
#    16  16  16  16
#     4  12  23  46  77 110 146 198 264 328 379 457
#     4  12  25  45  82 113 143 198 270 327 377 464
#     4  12  28  47  70 112 161 200 246 322 405 473
#     4  12  23  44  74 110 144 194 264 323 382 457
#
# _framework density 21.961579
#
# number of rings (size 3 to 8) (size 9 to 14) (size 15 to 20)
#    0.000    0.000    7.500    2.250    0.000    2.000 
#    0.000    3.750    0.000    3.000    0.000    0.000 
#    0.000    0.000    0.000    0.000    0.000    0.000 
#
# Total GULP energy -178811.795241 kJ/mol
# GULP energy per Si atom -5587.868601 kJ/mol
# Density = 2.191159 g / cm^3
# Si number density = 21.961579 Si / 1000 Ang^3
#
#
#
# Elastic Constant Matrix: (Units=GPa)
#
#
# Indices 1 2 3 4 5 6 
#
# 1 112.6698 35.7946 58.7116 0.0000 0.0000 0.0000
# 2 35.7946 103.3623 48.5560 0.0000 0.0000 0.0000
# 3 58.7116 48.5560 182.9222 0.0000 0.0000 0.0000
# 4 0.0000 0.0000 0.0000 -10.0793 0.0000 0.0000
# 5 0.0000 0.0000 0.0000 0.0000 95.7506 0.0000
# 6 0.0000 0.0000 0.0000 0.0000 0.0000 6.9075
#
#
#
# Elastic Compliance Matrix: (Units=1/GPa)
#
#
# Indices 1 2 3 4 5 6 
#
# 1 0.011197 -0.002501 -0.002930 0.000000 0.000000 0.000000
# 2 -0.002501 0.011612 -0.002279 0.000000 0.000000 0.000000
# 3 -0.002930 -0.002279 0.007012 0.000000 0.000000 0.000000
# 4 0.000000 0.000000 0.000000 -0.099213 0.000000 0.000000
# 5 0.000000 0.000000 0.000000 0.000000 0.010444 0.000000
# 6 0.000000 0.000000 0.000000 0.000000 0.000000 0.144769
#
#
# Mechanical properties :
#
#
# Convention : Reuss Voigt Hill
#
# Bulk Modulus (GPa) = 69.44555 76.11986 72.78271
# Shear Modulus (GPa) = 47.15113 35.57523 41.36318
#
# Velocity S-wave (km/s) = 4.63858 4.02915 4.34456
# Velocity P-wave (km/s) = 7.77037 7.50873 7.64067
#
# Compressibility (1/GPa) = 0.01439977
#
# Stress axis : x y z
#
# Youngs Moduli (GPa) = 89.31092 86.12014 142.60704
#
# Poissons Ratio (x) = 0.21540 0.41782
# Poissons Ratio (y) = 0.22338 0.32507
# Poissons Ratio (z) = 0.26167 0.19631
#
# Static dielectric constant tensor:
#      x y z
#    x 1.856610 0.000000 0.000000 
#    y 0.000000 1.676980 0.000000 
#    z 0.000000 0.000000 1.621220 
# 
# From -- ./inp_files/20471.got.cif
#   From: 2010.05.17/outbox.cif.g08.bks.cpg/sg68_11_cif.got.tgz:20471.got - 2010.06.03 18:57:09.
