data_PCOD9510183
_publ_section_title
;
Structure prediction by ZEFSAII (Michael W. Deem and Ramdas Pophale) SiO2 
 PCOD9510183
Probable space group: C C C A
;
_chemical_formula_sum "Si O2"
_cell_formula_units_Z 72
_cell_length_a 8.224427
_cell_length_b 32.506419
_cell_length_c 11.428392
_cell_angle_alpha 90.000000
_cell_angle_beta 90.000000
_cell_angle_gamma 90.000000
_cell_volume 3055.342546
_symmetry_space_group_name_H-M "C C C A"
_symmetry_group_IT_number 68
_space_group.IT_coordinate_system_code '2'
_symmetry_cell_setting 'orthorhombic'
loop_
_space_group_symop_operation_xyz
x,y,z
-x,1/2-y,z
x,1/2-y,1/2-z
-x,y,1/2-z
-x,-y,-z
x,1/2+y,-z
-x,1/2+y,1/2+z
x,-y,1/2+z
1/2+x,1/2+y,z
1/2-x,-y,z
1/2+x,-y,1/2-z
1/2-x,1/2+y,1/2-z
1/2-x,1/2-y,-z
1/2+x,y,-z
1/2-x,y,1/2+z
1/2+x,1/2-y,1/2+z
loop_
_atom_site_type_symbol
_atom_site_label
_atom_site_fract_x
_atom_site_fract_y
_atom_site_fract_z
Si Si1 0.250000 0.000000 0.427060
Si Si2 0.758381 0.307707 0.926852
Si Si3 0.500000 0.021140 0.750000
Si Si4 0.486062 0.633191 0.929608
Si Si5 0.785984 0.576369 0.592117
Si Si6 0.500000 0.750000 0.417748
O O1 0.089524 0.995492 0.348742
O O2 0.231328 0.041344 0.500892
O O3 0.630165 0.279949 0.855901
O O4 0.878227 0.339694 0.864215
O O5 0.641051 0.335210 0.009066
O O6 0.880501 0.278384 0.001437
O O7 0.367632 0.051035 0.694594
O O8 0.369246 0.601620 0.865515
O O9 0.585052 0.606805 0.028120
#
# Coordination Sequence:
#
# PCOD9510183 Si02
#       6
#     8  16   8  16  16   8
#     4  12  26  42  62  86 116 154 210 262 308 368
#     4   8  14  25  46  78 115 161 181 244 297 338
#     4  12  26  40  64  86 110 159 214 251 320 374
#     4   9  18  32  53  75 121 162 188 247 311 339
#     4  11  22  41  57  84 118 159 202 259 302 365
#     4   8  12  22  44  80 118 144 200 236 276 360
#
# _framework density 23.565277999999999
#
# number of rings (size 3 to 8) (size 9 to 14) (size 15 to 20)
#    0.000    2.222    2.222    1.333    3.111    0.000 
#    0.000    0.000    0.000    0.000    0.000    0.000 
#    0.000  226.667    0.000    0.000    0.000    0.000 
#
# Total GULP energy -200936.635475 kJ/mol
# GULP energy per Si atom -5581.573208 kJ/mol
# Density = 2.351164 g / cm^3
# Si number density = 23.565278 Si / 1000 Ang^3
#
#
#
# Elastic Constant Matrix: (Units=GPa)
#
#
# Indices 1 2 3 4 5 6 
#
# 1 166.7257 75.3520 29.8005 0.0000 0.0000 0.0000
# 2 75.3520 117.1865 26.6001 0.0000 0.0000 0.0000
# 3 29.8005 26.6001 41.3836 0.0000 0.0000 0.0000
# 4 0.0000 0.0000 0.0000 17.5809 0.0000 0.0000
# 5 0.0000 0.0000 0.0000 0.0000 34.2558 0.0000
# 6 0.0000 0.0000 0.0000 0.0000 0.0000 163.2380
#
#
#
# Elastic Compliance Matrix: (Units=1/GPa)
#
#
# Indices 1 2 3 4 5 6 
#
# 1 0.008794 -0.004938 -0.003159 0.000000 0.000000 0.000000
# 2 -0.004938 0.012763 -0.004648 0.000000 0.000000 0.000000
# 3 -0.003159 -0.004648 0.029427 0.000000 0.000000 0.000000
# 4 0.000000 0.000000 0.000000 0.056880 0.000000 0.000000
# 5 0.000000 0.000000 0.000000 0.000000 0.029192 0.000000
# 6 0.000000 0.000000 0.000000 0.000000 0.000000 0.006126
#
#
# Mechanical properties :
#
#
# Convention : Reuss Voigt Hill
#
# Bulk Modulus (GPa) = 39.22415 65.42235 52.32325
# Shear Modulus (GPa) = 28.22144 55.91782 42.06963
#
# Velocity S-wave (km/s) = 3.46437 4.87652 4.22979
# Velocity P-wave (km/s) = 5.71695 7.71555 6.79018
#
# Compressibility (1/GPa) = 0.02549450
#
# Stress axis : x y z
#
# Youngs Moduli (GPa) = 113.71301 78.34851 33.98271
#
# Poissons Ratio (x) = 0.38686 0.10735
# Poissons Ratio (y) = 0.56147 0.15796
# Poissons Ratio (z) = 0.35921 0.36419
#
# Static dielectric constant tensor:
#      x y z
#    x 1.891870 0.000000 0.000000 
#    y 0.000000 1.908060 0.000000 
#    z 0.000000 0.000000 1.829380 
# 
# From -- ./inp_files/19606.got.cif
#   From: 2010.05.17/outbox.cif.g08.bks.cpg/sg68_10_cif.got.tgz:19606.got - 2010.06.03 18:57:09.
