data_PCOD9510932
_publ_section_title
;
Structure prediction by ZEFSAII (Michael W. Deem and Ramdas Pophale) SiO2 
 PCOD9510932
Probable space group: C C C A
;
_chemical_formula_sum "Si O2"
_cell_formula_units_Z 32
_cell_length_a 30.000000
_cell_length_b 12.000000
_cell_length_c 9.000000
_cell_angle_alpha 90.000000
_cell_angle_beta 90.000000
_cell_angle_gamma 90.000000
_cell_volume 3240.000000
_symmetry_space_group_name_H-M "C C C A"
_symmetry_group_IT_number 68
_space_group.IT_coordinate_system_code '2'
_symmetry_cell_setting 'orthorhombic'
loop_
_space_group_symop_operation_xyz
x,y,z
-x,1/2-y,z
x,1/2-y,1/2-z
-x,y,1/2-z
-x,-y,-z
x,1/2+y,-z
-x,1/2+y,1/2+z
x,-y,1/2+z
1/2+x,1/2+y,z
1/2-x,-y,z
1/2+x,-y,1/2-z
1/2-x,1/2+y,1/2-z
1/2-x,1/2-y,-z
1/2+x,y,-z
1/2-x,y,1/2+z
1/2+x,1/2-y,1/2+z
loop_
_atom_site_type_symbol
_atom_site_label
_atom_site_fract_x
_atom_site_fract_y
_atom_site_fract_z
Si Si1 0.250000 0.500000 0.021995
Si Si2 0.500000 0.519289 0.250000
Si Si3 0.040293 0.183860 0.904612
Si Si4 0.592951 0.364197 0.662308
Si Si5 0.191840 0.383145 0.273525
O O1 0.222269 0.581997 0.913858
O O2 0.214649 0.438646 0.129550
O O3 0.481060 0.434929 0.127218
O O4 0.454629 0.580141 0.298465
O O5 0.047245 0.250000 0.750000
O O6 0.000000 0.250000 0.986717
O O7 0.085940 0.168621 0.990785
O O8 0.593723 0.250000 0.750000
O O9 0.640259 0.421131 0.697827
O O10 0.191692 0.250000 0.250000
#
# Coordination Sequence:
#
# PCOD9510932 Si02
#       5
#     8   8  16  16  16
#     4  10  22  46  68  88 128 156 208 262 318 372
#     4  10  20  34  60  84 126 160 198 242 292 352
#     4   9  20  38  54  82 123 163 200 238 294 348
#     4  11  22  36  58  90 120 158 201 245 299 361
#     4  10  23  42  67  96 122 161 207 257 316 370
#
# _framework density 9.8765429999999999
#
# number of rings (size 3 to 8) (size 9 to 14) (size 15 to 20)
#    0.000    2.250    0.000    3.375    3.500    2.000 
#    9.000    1.250    0.000    0.000    0.000    0.000 
#    0.000    0.000    0.000    0.000    0.000    0.000 
#
# Total GULP energy -178192.713019 kJ/mol
# GULP energy per Si atom -5568.522282 kJ/mol
# Density = 0.985406 g / cm^3
# Si number density = 9.876543 Si / 1000 Ang^3
#
#
#
# Elastic Constant Matrix: (Units=GPa)
#
#
# Indices 1 2 3 4 5 6 
#
# 1 177.5085 51.1212 77.1299 0.0000 0.0000 0.0000
# 2 51.1212 68.3415 46.9939 0.0000 0.0000 0.0000
# 3 77.1299 46.9939 109.3858 0.0000 0.0000 0.0000
# 4 0.0000 0.0000 0.0000 -3.1796 0.0000 0.0000
# 5 0.0000 0.0000 0.0000 0.0000 76.8350 0.0000
# 6 0.0000 0.0000 0.0000 0.0000 0.0000 40.8688
#
#
#
# Elastic Compliance Matrix: (Units=1/GPa)
#
#
# Indices 1 2 3 4 5 6 
#
# 1 0.008591 -0.003209 -0.004679 0.000000 0.000000 0.000000
# 2 -0.003209 0.021966 -0.007174 0.000000 0.000000 0.000000
# 3 -0.004679 -0.007174 0.015523 0.000000 0.000000 0.000000
# 4 0.000000 0.000000 0.000000 -0.314503 0.000000 0.000000
# 5 0.000000 0.000000 0.000000 0.000000 0.013015 0.000000
# 6 0.000000 0.000000 0.000000 0.000000 0.000000 0.024469
#
#
# Mechanical properties :
#
#
# Convention : Reuss Voigt Hill
#
# Bulk Modulus (GPa) = 62.67253 78.41398 70.54326
# Shear Modulus (GPa) = -25.57589 34.90422 4.66416
#
# Velocity S-wave (km/s) = -3.60221 4.20816 1.53830
# Velocity P-wave (km/s) = 3.80731 7.96208 6.24061
#
# Compressibility (1/GPa) = 0.01595595
#
# Stress axis : x y z
#
# Youngs Moduli (GPa) = 116.40535 45.52500 64.41868
#
# Poissons Ratio (x) = 0.14607 0.30141
# Poissons Ratio (y) = 0.37350 0.46217
# Poissons Ratio (z) = 0.54466 0.32662
#
# Static dielectric constant tensor:
#      x y z
#    x 1.710630 0.000000 0.000000 
#    y 0.000000 1.731920 0.000000 
#    z 0.000000 0.000000 1.835930 
# 
# From -- ./inp_files/4096.got.cif
#   From: 2010.05.17/outbox.ucp.g08.bks.cvg/sg68_3_cif.got.tgz:4096.got - 2010.06.11 16:49:25.
