data_PCOD9510387
_publ_section_title
;
Structure prediction by ZEFSAII (Michael W. Deem and Ramdas Pophale) SiO2 
 PCOD9510387
Probable space group: C C C A
;
_chemical_formula_sum "Si O2"
_cell_formula_units_Z 56
_cell_length_a 7.754181
_cell_length_b 11.786044
_cell_length_c 26.394961
_cell_angle_alpha 90.000000
_cell_angle_beta 90.000000
_cell_angle_gamma 90.000000
_cell_volume 2412.265007
_symmetry_space_group_name_H-M "C C C A"
_symmetry_group_IT_number 68
_space_group.IT_coordinate_system_code '2'
_symmetry_cell_setting 'orthorhombic'
loop_
_space_group_symop_operation_xyz
x,y,z
-x,1/2-y,z
x,1/2-y,1/2-z
-x,y,1/2-z
-x,-y,-z
x,1/2+y,-z
-x,1/2+y,1/2+z
x,-y,1/2+z
1/2+x,1/2+y,z
1/2-x,-y,z
1/2+x,-y,1/2-z
1/2-x,1/2+y,1/2-z
1/2-x,1/2-y,-z
1/2+x,y,-z
1/2-x,y,1/2+z
1/2+x,1/2-y,1/2+z
loop_
_atom_site_type_symbol
_atom_site_label
_atom_site_fract_x
_atom_site_fract_y
_atom_site_fract_z
Si Si1 0.750000 0.500000 0.114984
Si Si2 0.206659 0.271686 0.441845
Si Si3 0.652871 0.833030 0.654698
Si Si4 0.017516 0.075729 0.309553
O O1 0.722990 0.395830 0.075312
O O2 0.652214 0.581648 0.156537
O O3 0.250000 0.250000 0.500000
O O4 0.304245 0.186027 0.404006
O O5 0.000000 0.250000 0.434767
O O6 0.500000 0.750000 0.671282
O O7 0.836992 0.829184 0.682613
O O8 0.584672 0.958054 0.665991
O O9 0.000000 0.059982 0.250000
#
# Coordination Sequence:
#
# PCOD9510387 Si02
#       4
#     8  16  16  16
#     4  12  24  46  74 106 148 190 248 316 374 468
#     4  12  27  47  73 108 144 197 252 316 395 460
#     4  11  23  47  74 105 148 189 252 310 376 460
#     4  11  25  46  73 109 151 195 249 309 380 458
#
# _framework density 23.214696
#
# number of rings (size 3 to 8) (size 9 to 14) (size 15 to 20)
#    0.000    0.571    5.714    2.571    0.000    4.000 
#    5.143    1.429    0.000    0.000    0.000    0.000 
#    0.000    0.000    0.000    0.000    0.000    0.000 
#
# Total GULP energy -156006.552717 kJ/mol
# GULP energy per Si atom -5571.662597 kJ/mol
# Density = 2.316186 g / cm^3
# Si number density = 23.214696 Si / 1000 Ang^3
#
#
#
# Elastic Constant Matrix: (Units=GPa)
#
#
# Indices 1 2 3 4 5 6 
#
# 1 97.3954 61.2547 27.3405 0.0000 0.0000 0.0000
# 2 61.2547 120.7985 88.1558 0.0000 0.0000 0.0000
# 3 27.3405 88.1558 221.8561 0.0000 0.0000 0.0000
# 4 0.0000 0.0000 0.0000 52.8743 0.0000 0.0000
# 5 0.0000 0.0000 0.0000 0.0000 48.3527 0.0000
# 6 0.0000 0.0000 0.0000 0.0000 0.0000 37.4282
#
#
#
# Elastic Compliance Matrix: (Units=1/GPa)
#
#
# Indices 1 2 3 4 5 6 
#
# 1 0.015523 -0.009120 0.001711 0.000000 0.000000 0.000000
# 2 -0.009120 0.017017 -0.005638 0.000000 0.000000 0.000000
# 3 0.001711 -0.005638 0.006537 0.000000 0.000000 0.000000
# 4 0.000000 0.000000 0.000000 0.018913 0.000000 0.000000
# 5 0.000000 0.000000 0.000000 0.000000 0.020681 0.000000
# 6 0.000000 0.000000 0.000000 0.000000 0.000000 0.026718
#
#
# Mechanical properties :
#
#
# Convention : Reuss Voigt Hill
#
# Bulk Modulus (GPa) = 77.02410 88.17246 82.59828
# Shear Modulus (GPa) = 36.81587 45.28431 41.05009
#
# Velocity S-wave (km/s) = 3.98664 4.42144 4.20965
# Velocity P-wave (km/s) = 7.37849 8.00807 7.69972
#
# Compressibility (1/GPa) = 0.01298295
#
# Stress axis : x y z
#
# Youngs Moduli (GPa) = 64.42070 58.76367 152.97800
#
# Poissons Ratio (x) = 0.53592 -0.26173
# Poissons Ratio (y) = 0.58752 0.86249
# Poissons Ratio (z) = -0.11022 0.33131
#
# Static dielectric constant tensor:
#      x y z
#    x 2.192890 0.000000 0.000000 
#    y 0.000000 1.908660 0.000000 
#    z 0.000000 0.000000 1.773920 
# 
# From -- ./inp_files/48738.got.cif
#   From: 2010.05.17/outbox.cif.g08.bks.cpg/sg68_25_cif.got.tgz:48738.got - 2010.06.03 18:57:09.
