data_PCOD9510572
_publ_section_title
;
Structure prediction by ZEFSAII (Michael W. Deem and Ramdas Pophale) SiO2 
 PCOD9510572
Probable space group: C C C A
;
_chemical_formula_sum "Si O2"
_cell_formula_units_Z 60
_cell_length_a 11.057032
_cell_length_b 11.035230
_cell_length_c 21.858627
_cell_angle_alpha 90.000000
_cell_angle_beta 90.000000
_cell_angle_gamma 90.000000
_cell_volume 2667.121713
_symmetry_space_group_name_H-M "C C C A"
_symmetry_group_IT_number 68
_space_group.IT_coordinate_system_code '2'
_symmetry_cell_setting 'orthorhombic'
loop_
_space_group_symop_operation_xyz
x,y,z
-x,1/2-y,z
x,1/2-y,1/2-z
-x,y,1/2-z
-x,-y,-z
x,1/2+y,-z
-x,1/2+y,1/2+z
x,-y,1/2+z
1/2+x,1/2+y,z
1/2-x,-y,z
1/2+x,-y,1/2-z
1/2-x,1/2+y,1/2-z
1/2-x,1/2-y,-z
1/2+x,y,-z
1/2-x,y,1/2+z
1/2+x,1/2-y,1/2+z
loop_
_atom_site_type_symbol
_atom_site_label
_atom_site_fract_x
_atom_site_fract_y
_atom_site_fract_z
Si Si1 0.856708 0.772221 0.048728
Si Si2 0.639981 0.917129 0.843385
Si Si3 0.000000 0.250000 0.750000
Si Si4 0.250000 0.500000 0.116625
Si Si5 0.034655 0.885084 0.821735
O O1 0.833110 0.672185 0.101313
O O2 0.829483 0.906640 0.075922
O O3 0.000000 0.750000 0.030990
O O4 0.750000 0.750000 0.000000
O O5 0.583819 0.833942 0.791171
O O6 0.750000 0.000000 0.822094
O O7 0.540965 0.017489 0.859663
O O8 0.329086 0.584590 0.161257
O O9 0.000000 0.750000 0.839340
O O10 0.000000 0.899281 0.750000
#
# Coordination Sequence:
#
# PCOD9510572 Si02
#       5
#    16  16   4   8  16
#     4  12  29  54  85 114 158 218 278 344 406 479
#     4  12  26  47  80 118 160 207 265 326 408 483
#     4  12  24  52  78 118 168 204 260 320 410 476
#     4  12  26  54  80 110 164 210 272 330 410 476
#     4  11  25  45  77 121 160 204 258 321 405 487
#
# _framework density 22.496162000000002
#
# number of rings (size 3 to 8) (size 9 to 14) (size 15 to 20)
#    0.000    0.267    5.333    1.600    3.733    6.400 
#    0.000    0.000    0.000    0.000    0.000    0.000 
#    0.000    0.000    0.000    0.000    0.000    0.000 
#
# Total GULP energy -167753.724661 kJ/mol
# GULP energy per Si atom -5591.790822 kJ/mol
# Density = 2.244496 g / cm^3
# Si number density = 22.496162 Si / 1000 Ang^3
#
#
#
# Elastic Constant Matrix: (Units=GPa)
#
#
# Indices 1 2 3 4 5 6 
#
# 1 181.9555 81.4770 80.6429 0.0000 0.0000 0.0000
# 2 81.4770 201.1569 75.1894 0.0000 0.0000 0.0000
# 3 80.6429 75.1894 120.1892 0.0000 0.0000 0.0000
# 4 0.0000 0.0000 0.0000 17.7210 0.0000 0.0000
# 5 0.0000 0.0000 0.0000 0.0000 45.8634 0.0000
# 6 0.0000 0.0000 0.0000 0.0000 0.0000 58.6723
#
#
#
# Elastic Compliance Matrix: (Units=1/GPa)
#
#
# Indices 1 2 3 4 5 6 
#
# 1 0.008224 -0.001656 -0.004482 0.000000 0.000000 0.000000
# 2 -0.001656 0.006822 -0.003157 0.000000 0.000000 0.000000
# 3 -0.004482 -0.003157 0.013302 0.000000 0.000000 0.000000
# 4 0.000000 0.000000 0.000000 0.056430 0.000000 0.000000
# 5 0.000000 0.000000 0.000000 0.000000 0.021804 0.000000
# 6 0.000000 0.000000 0.000000 0.000000 0.000000 0.017044
#
#
# Mechanical properties :
#
#
# Convention : Reuss Voigt Hill
#
# Bulk Modulus (GPa) = 102.47049 108.65781 105.56415
# Shear Modulus (GPa) = 34.37186 42.18416 38.27801
#
# Velocity S-wave (km/s) = 3.91308 4.33502 4.12944
# Velocity P-wave (km/s) = 8.12806 8.57100 8.35246
#
# Compressibility (1/GPa) = 0.00975891
#
# Stress axis : x y z
#
# Youngs Moduli (GPa) = 121.60034 146.58894 75.17436
#
# Poissons Ratio (x) = 0.24269 0.33694
# Poissons Ratio (y) = 0.20132 0.23731
# Poissons Ratio (z) = 0.54502 0.46275
#
# Static dielectric constant tensor:
#      x y z
#    x 1.862360 0.000000 0.000000 
#    y 0.000000 1.790230 0.000000 
#    z 0.000000 0.000000 1.826690 
# 
# From -- ./inp_files/37066.got.cif
#   From: 2010.05.17/outbox.cif.g08.bks.cpg/sg68_19_cif.got.tgz:37066.got - 2010.06.03 18:57:09.
