data_PCOD9510029
_publ_section_title
;
Structure prediction by ZEFSAII (Michael W. Deem and Ramdas Pophale) SiO2 
 PCOD9510029
Probable space group: C C C A
;
_chemical_formula_sum "Si O2"
_cell_formula_units_Z 112
_cell_length_a 22.928053
_cell_length_b 14.207155
_cell_length_c 16.709168
_cell_angle_alpha 90.000000
_cell_angle_beta 90.000000
_cell_angle_gamma 90.000000
_cell_volume 5442.884533
_symmetry_space_group_name_H-M "C C C A"
_symmetry_group_IT_number 68
_space_group.IT_coordinate_system_code '2'
_symmetry_cell_setting 'orthorhombic'
loop_
_space_group_symop_operation_xyz
x,y,z
-x,1/2-y,z
x,1/2-y,1/2-z
-x,y,1/2-z
-x,-y,-z
x,1/2+y,-z
-x,1/2+y,1/2+z
x,-y,1/2+z
1/2+x,1/2+y,z
1/2-x,-y,z
1/2+x,-y,1/2-z
1/2-x,1/2+y,1/2-z
1/2-x,1/2-y,-z
1/2+x,y,-z
1/2-x,y,1/2+z
1/2+x,1/2-y,1/2+z
loop_
_atom_site_type_symbol
_atom_site_label
_atom_site_fract_x
_atom_site_fract_y
_atom_site_fract_z
Si Si1 0.012287 0.354954 0.155720
Si Si2 0.580772 0.004673 0.405243
Si Si3 0.122002 0.419900 0.566504
Si Si4 0.006951 0.639286 0.159878
Si Si5 0.308686 0.277717 0.955763
Si Si6 0.193081 0.565788 0.817500
Si Si7 0.148480 0.099399 0.356307
O O1 0.078409 0.389059 0.147423
O O2 0.000000 0.250000 0.123559
O O3 0.000000 0.352679 0.250000
O O4 0.966185 0.424642 0.116600
O O5 0.599101 0.986365 0.495301
O O6 0.636953 0.993502 0.348556
O O7 0.545969 0.099855 0.392411
O O8 0.068675 0.387850 0.621952
O O9 0.151181 0.331632 0.521258
O O10 0.162565 0.492483 0.615541
O O11 0.000000 0.750000 0.164051
O O12 0.000000 0.599112 0.250000
O O13 0.299231 0.352883 0.884128
O O14 0.332307 0.182123 0.915901
O O15 0.250000 0.250000 0.000000
O O16 0.250000 0.500000 0.813039
O O17 0.176197 0.609717 0.731765
#
# Coordination Sequence:
#
# PCOD9510029 Si02
#       7
#    16  16  16  16  16  16  16
#     4  11  21  36  70 104 141 175 222 296 364 425
#     4  11  22  44  66 103 140 177 234 287 357 426
#     4  11  26  42  71 104 137 191 231 295 367 420
#     4  11  24  41  65  99 143 187 231 283 349 430
#     4  11  29  47  72 103 145 185 245 304 358 427
#     4  11  26  46  76 100 140 189 240 296 362 433
#     4  12  25  46  73 105 141 187 244 299 364 445
#
# _framework density 20.577324999999998
#
# number of rings (size 3 to 8) (size 9 to 14) (size 15 to 20)
#    0.000    0.857    2.857    3.857   10.000    0.571 
#    0.000    0.000    0.000    0.000    0.000    0.000 
#    0.000    0.000    0.000    0.000    0.000    0.000 
#
# Total GULP energy -313172.123626 kJ/mol
# GULP energy per Si atom -5592.359350 kJ/mol
# Density = 2.053049 g / cm^3
# Si number density = 20.577325 Si / 1000 Ang^3
#
#
#
# Elastic Constant Matrix: (Units=GPa)
#
#
# Indices 1 2 3 4 5 6 
#
# 1 132.3055 51.3489 57.0444 0.0000 0.0000 0.0000
# 2 51.3489 107.1690 36.2832 0.0000 0.0000 0.0000
# 3 57.0444 36.2832 114.2843 0.0000 0.0000 0.0000
# 4 0.0000 0.0000 0.0000 -24.2833 0.0000 0.0000
# 5 0.0000 0.0000 0.0000 0.0000 -8.7791 0.0000
# 6 0.0000 0.0000 0.0000 0.0000 0.0000 21.2629
#
#
#
# Elastic Compliance Matrix: (Units=1/GPa)
#
#
# Indices 1 2 3 4 5 6 
#
# 1 0.010836 -0.003766 -0.004213 0.000000 0.000000 0.000000
# 2 -0.003766 0.011763 -0.001855 0.000000 0.000000 0.000000
# 3 -0.004213 -0.001855 0.011442 0.000000 0.000000 0.000000
# 4 0.000000 0.000000 0.000000 -0.041181 0.000000 0.000000
# 5 0.000000 0.000000 0.000000 0.000000 -0.113907 0.000000
# 6 0.000000 0.000000 0.000000 0.000000 0.000000 0.047030
#
#
# Mechanical properties :
#
#
# Convention : Reuss Voigt Hill
#
# Bulk Modulus (GPa) = 69.57150 71.45687 70.51419
# Shear Modulus (GPa) = -100.89570 11.57893 -44.65839
#
# Velocity S-wave (km/s) = -7.00992 2.37471 -4.66367
# Velocity P-wave (km/s) = 5.62453 6.50541 2.31139
#
# Compressibility (1/GPa) = 0.01437370
#
# Stress axis : x y z
#
# Youngs Moduli (GPa) = 92.28171 85.00967 87.39616
#
# Poissons Ratio (x) = 0.32012 0.36824
# Poissons Ratio (y) = 0.34750 0.16212
# Poissons Ratio (z) = 0.38882 0.15770
#
# Static dielectric constant tensor:
#      x y z
#    x 1.844540 0.000000 0.000000 
#    y 0.000000 1.761580 0.000000 
#    z 0.000000 0.000000 1.194040 
# 
# From -- ./inp_files/25487.got.cif
#   From: 2010.05.17/outbox.cif.g08.bks.cpg/sg68_13_cif.got.tgz:25487.got - 2010.06.03 18:57:09.
