data_PCOD9510552
_publ_section_title
;
Structure prediction by ZEFSAII (Michael W. Deem and Ramdas Pophale) SiO2 
 PCOD9510552
Probable space group: C C C A
;
_chemical_formula_sum "Si O2"
_cell_formula_units_Z 56
_cell_length_a 20.141727
_cell_length_b 11.320434
_cell_length_c 9.562053
_cell_angle_alpha 90.000000
_cell_angle_beta 90.000000
_cell_angle_gamma 90.000000
_cell_volume 2180.273262
_symmetry_space_group_name_H-M "C C C A"
_symmetry_group_IT_number 68
_space_group.IT_coordinate_system_code '2'
_symmetry_cell_setting 'orthorhombic'
loop_
_space_group_symop_operation_xyz
x,y,z
-x,1/2-y,z
x,1/2-y,1/2-z
-x,y,1/2-z
-x,-y,-z
x,1/2+y,-z
-x,1/2+y,1/2+z
x,-y,1/2+z
1/2+x,1/2+y,z
1/2-x,-y,z
1/2+x,-y,1/2-z
1/2-x,1/2+y,1/2-z
1/2-x,1/2-y,-z
1/2+x,y,-z
1/2-x,y,1/2+z
1/2+x,1/2-y,1/2+z
loop_
_atom_site_type_symbol
_atom_site_label
_atom_site_fract_x
_atom_site_fract_y
_atom_site_fract_z
Si Si1 0.000000 0.459930 0.750000
Si Si2 0.937627 0.321480 0.396722
Si Si3 0.862896 0.375606 0.778920
Si Si4 0.673841 0.981202 0.984316
O O1 0.027490 0.552775 0.637257
O O2 0.062755 0.380195 0.780881
O O3 0.925065 0.250000 0.250000
O O4 0.867214 0.365012 0.462399
O O5 0.000000 0.250000 0.465447
O O6 0.831132 0.250000 0.750000
O O7 0.829684 0.475902 0.683079
O O8 0.861583 0.408691 0.940846
O O9 0.750000 0.000000 0.025649
#
# Coordination Sequence:
#
# PCOD9510552 Si02
#       4
#     8  16  16  16
#     4   8  18  38  62  96 134 168 228 294 344 410
#     4   8  17  36  67  99 130 179 234 291 353 413
#     4  11  25  42  67  98 133 181 233 290 354 420
#     4  11  25  44  65  97 141 182 231 290 353 430
#
# _framework density 25.684854000000001
#
# number of rings (size 3 to 8) (size 9 to 14) (size 15 to 20)
#    0.000    2.571    0.000    1.286    0.000   16.000 
#    0.000    0.000    0.000    0.000    0.000    0.000 
#    0.000    0.000    0.000    0.000    0.000    0.000 
#
# Total GULP energy -156088.506452 kJ/mol
# GULP energy per Si atom -5574.589516 kJ/mol
# Density = 2.562639 g / cm^3
# Si number density = 25.684854 Si / 1000 Ang^3
#
#
#
# Elastic Constant Matrix: (Units=GPa)
#
#
# Indices 1 2 3 4 5 6 
#
# 1 159.6445 5.8223 13.5222 0.0000 0.0000 0.0000
# 2 5.8223 102.8390 34.6332 0.0000 0.0000 0.0000
# 3 13.5222 34.6332 93.4791 0.0000 0.0000 0.0000
# 4 0.0000 0.0000 0.0000 36.7804 0.0000 0.0000
# 5 0.0000 0.0000 0.0000 0.0000 31.5588 0.0000
# 6 0.0000 0.0000 0.0000 0.0000 0.0000 16.8859
#
#
#
# Elastic Compliance Matrix: (Units=1/GPa)
#
#
# Indices 1 2 3 4 5 6 
#
# 1 0.006342 -0.000057 -0.000896 0.000000 0.000000 0.000000
# 2 -0.000057 0.011111 -0.004108 0.000000 0.000000 0.000000
# 3 -0.000896 -0.004108 0.012349 0.000000 0.000000 0.000000
# 4 0.000000 0.000000 0.000000 0.027188 0.000000 0.000000
# 5 0.000000 0.000000 0.000000 0.000000 0.031687 0.000000
# 6 0.000000 0.000000 0.000000 0.000000 0.000000 0.059221
#
#
# Mechanical properties :
#
#
# Convention : Reuss Voigt Hill
#
# Bulk Modulus (GPa) = 50.81630 51.54644 51.18137
# Shear Modulus (GPa) = 30.38025 37.17736 33.77881
#
# Velocity S-wave (km/s) = 3.44293 3.80866 3.63040
# Velocity P-wave (km/s) = 5.96930 6.28120 6.12723
#
# Compressibility (1/GPa) = 0.01967873
#
# Stress axis : x y z
#
# Youngs Moduli (GPa) = 157.68111 90.00347 80.97660
#
# Poissons Ratio (x) = 0.00515 0.07257
# Poissons Ratio (y) = 0.00903 0.33266
# Poissons Ratio (z) = 0.14131 0.36975
#
# Static dielectric constant tensor:
#      x y z
#    x 2.051250 0.000000 0.000000 
#    y 0.000000 2.003530 0.000000 
#    z 0.000000 0.000000 2.203340 
# 
# From -- ./inp_files/15053.got.cif
#   From: 2010.05.17/outbox.cif.g08.bks.cpg/sg68_8_cif.got.tgz:15053.got - 2010.06.03 18:57:09.
