data_PCOD9510267
_publ_section_title
;
Structure prediction by ZEFSAII (Michael W. Deem and Ramdas Pophale) SiO2 
 PCOD9510267
Probable space group: C C C A
;
_chemical_formula_sum "Si O2"
_cell_formula_units_Z 64
_cell_length_a 7.514850
_cell_length_b 19.434767
_cell_length_c 21.179823
_cell_angle_alpha 90.000000
_cell_angle_beta 90.000000
_cell_angle_gamma 90.000000
_cell_volume 3093.299568
_symmetry_space_group_name_H-M "C C C A"
_symmetry_group_IT_number 68
_space_group.IT_coordinate_system_code '2'
_symmetry_cell_setting 'orthorhombic'
loop_
_space_group_symop_operation_xyz
x,y,z
-x,1/2-y,z
x,1/2-y,1/2-z
-x,y,1/2-z
-x,-y,-z
x,1/2+y,-z
-x,1/2+y,1/2+z
x,-y,1/2+z
1/2+x,1/2+y,z
1/2-x,-y,z
1/2+x,-y,1/2-z
1/2-x,1/2+y,1/2-z
1/2-x,1/2-y,-z
1/2+x,y,-z
1/2-x,y,1/2+z
1/2+x,1/2-y,1/2+z
loop_
_atom_site_type_symbol
_atom_site_label
_atom_site_fract_x
_atom_site_fract_y
_atom_site_fract_z
Si Si1 0.493639 0.674267 0.596420
Si Si2 0.946260 0.531051 0.567165
Si Si3 0.571365 0.455263 0.180507
Si Si4 0.090757 0.177388 0.452700
O O1 0.500000 0.750000 0.625849
O O2 0.573705 0.616819 0.642233
O O3 0.286420 0.664078 0.576097
O O4 0.597968 0.677450 0.529326
O O5 0.750000 0.500000 0.572850
O O6 0.038656 0.501897 0.630146
O O7 0.000000 0.500000 0.500000
O O8 0.971382 0.612070 0.565321
O O9 0.500000 0.442494 0.250000
O O10 0.750000 0.500000 0.192126
O O11 0.000000 0.250000 0.434192
#
# Coordination Sequence:
#
# PCOD9510267 Si02
#       4
#    16  16  16  16
#     4  11  24  42  71 104 145 180 230 288 351 418
#     4  11  23  39  69 101 133 172 230 284 341 405
#     4  11  28  45  69  96 141 181 237 283 351 412
#     4  11  23  39  71 106 144 178 227 283 360 404
#
# _framework density 20.689881
#
# number of rings (size 3 to 8) (size 9 to 14) (size 15 to 20)
#    0.000    1.000    2.500    4.500   14.000    0.500 
#    0.000    0.000    0.000    0.750    0.000    0.000 
#    0.000    0.000    0.000    0.000    0.000    0.000 
#
# Total GULP energy -178473.111930 kJ/mol
# GULP energy per Si atom -5577.284748 kJ/mol
# Density = 2.064279 g / cm^3
# Si number density = 20.689881 Si / 1000 Ang^3
#
#
#
# Elastic Constant Matrix: (Units=GPa)
#
#
# Indices 1 2 3 4 5 6 
#
# 1 114.5006 42.7043 14.6545 0.0000 0.0000 0.0000
# 2 42.7043 217.5461 50.7277 0.0000 0.0000 0.0000
# 3 14.6545 50.7277 122.9566 0.0000 0.0000 0.0000
# 4 0.0000 0.0000 0.0000 21.2538 0.0000 0.0000
# 5 0.0000 0.0000 0.0000 0.0000 16.7071 0.0000
# 6 0.0000 0.0000 0.0000 0.0000 0.0000 26.4817
#
#
#
# Elastic Compliance Matrix: (Units=1/GPa)
#
#
# Indices 1 2 3 4 5 6 
#
# 1 0.009441 -0.001760 -0.000399 0.000000 0.000000 0.000000
# 2 -0.001760 0.005414 -0.002024 0.000000 0.000000 0.000000
# 3 -0.000399 -0.002024 0.009016 0.000000 0.000000 0.000000
# 4 0.000000 0.000000 0.000000 0.047051 0.000000 0.000000
# 5 0.000000 0.000000 0.000000 0.000000 0.059855 0.000000
# 6 0.000000 0.000000 0.000000 0.000000 0.000000 0.037762
#
#
# Mechanical properties :
#
#
# Convention : Reuss Voigt Hill
#
# Bulk Modulus (GPa) = 64.49748 74.57514 69.53631
# Shear Modulus (GPa) = 27.46158 36.01631 31.73894
#
# Velocity S-wave (km/s) = 3.64716 4.17678 3.92092
# Velocity P-wave (km/s) = 6.99834 7.70605 7.36071
#
# Compressibility (1/GPa) = 0.01550448
#
# Stress axis : x y z
#
# Youngs Moduli (GPa) = 105.91929 184.69929 110.92002
#
# Poissons Ratio (x) = 0.32512 0.04426
# Poissons Ratio (y) = 0.18645 0.22449
# Poissons Ratio (z) = 0.04226 0.37382
#
# Static dielectric constant tensor:
#      x y z
#    x 1.987770 0.000000 0.000000 
#    y 0.000000 1.789860 0.000000 
#    z 0.000000 0.000000 1.840530 
# 
# From -- ./inp_files/35734.got.cif
#   From: 2010.05.17/outbox.cif.g08.bks.cpg/sg68_18_cif.got.tgz:35734.got - 2010.06.03 18:57:09.
