data_PCOD9510394
_publ_section_title
;
Structure prediction by ZEFSAII (Michael W. Deem and Ramdas Pophale) SiO2 
 PCOD9510394
Probable space group: C C C A
;
_chemical_formula_sum "Si O2"
_cell_formula_units_Z 56
_cell_length_a 19.409107
_cell_length_b 9.199577
_cell_length_c 11.541540
_cell_angle_alpha 90.000000
_cell_angle_beta 90.000000
_cell_angle_gamma 90.000000
_cell_volume 2060.806304
_symmetry_space_group_name_H-M "C C C A"
_symmetry_group_IT_number 68
_space_group.IT_coordinate_system_code '2'
_symmetry_cell_setting 'orthorhombic'
loop_
_space_group_symop_operation_xyz
x,y,z
-x,1/2-y,z
x,1/2-y,1/2-z
-x,y,1/2-z
-x,-y,-z
x,1/2+y,-z
-x,1/2+y,1/2+z
x,-y,1/2+z
1/2+x,1/2+y,z
1/2-x,-y,z
1/2+x,-y,1/2-z
1/2-x,1/2+y,1/2-z
1/2-x,1/2-y,-z
1/2+x,y,-z
1/2-x,y,1/2+z
1/2+x,1/2-y,1/2+z
loop_
_atom_site_type_symbol
_atom_site_label
_atom_site_fract_x
_atom_site_fract_y
_atom_site_fract_z
Si Si1 0.500000 0.961787 0.250000
Si Si2 0.553160 0.365670 0.453709
Si Si3 0.321673 0.025566 0.596666
Si Si4 0.648542 0.250000 0.250000
Si Si5 0.372445 0.250000 0.750000
O O1 0.572023 0.878290 0.239524
O O2 0.497784 0.047889 0.369253
O O3 0.500000 0.250000 0.516332
O O4 0.610202 0.465550 0.517715
O O5 0.601556 0.287119 0.360165
O O6 0.324949 0.189941 0.648660
O O7 0.250000 0.000000 0.530352
O O8 0.319333 0.902292 0.699469
#
# Coordination Sequence:
#
# PCOD9510394 Si02
#       5
#     8  16  16   8   8
#     4  11  23  48  76 121 160 203 282 361 420 479
#     4  12  25  48  83 123 163 215 282 359 423 495
#     4  12  30  50  80 119 170 231 279 342 432 519
#     4  12  26  50  79 115 168 216 276 362 408 498
#     4  11  25  48  81 117 159 217 284 348 407 511
#
# _framework density 27.173828
#
# number of rings (size 3 to 8) (size 9 to 14) (size 15 to 20)
#    0.000    0.286    5.714    0.857    8.000    4.571 
#    0.000    0.000    0.000    0.000    0.000    0.000 
#    0.000    0.000    0.000    0.000    0.000    0.000 
#
# Total GULP energy -156048.334916 kJ/mol
# GULP energy per Si atom -5573.154818 kJ/mol
# Density = 2.711198 g / cm^3
# Si number density = 27.173828 Si / 1000 Ang^3
#
#
#
# Elastic Constant Matrix: (Units=GPa)
#
#
# Indices 1 2 3 4 5 6 
#
# 1 162.8844 53.1190 61.7285 0.0000 0.0000 0.0000
# 2 53.1190 100.5834 33.0428 0.0000 0.0000 0.0000
# 3 61.7285 33.0428 98.2473 0.0000 0.0000 0.0000
# 4 0.0000 0.0000 0.0000 56.5383 0.0000 0.0000
# 5 0.0000 0.0000 0.0000 0.0000 28.0739 0.0000
# 6 0.0000 0.0000 0.0000 0.0000 0.0000 36.2192
#
#
#
# Elastic Compliance Matrix: (Units=1/GPa)
#
#
# Indices 1 2 3 4 5 6 
#
# 1 0.008897 -0.003218 -0.004508 0.000000 0.000000 0.000000
# 2 -0.003218 0.012341 -0.002129 0.000000 0.000000 0.000000
# 3 -0.004508 -0.002129 0.013727 0.000000 0.000000 0.000000
# 4 0.000000 0.000000 0.000000 0.017687 0.000000 0.000000
# 5 0.000000 0.000000 0.000000 0.000000 0.035620 0.000000
# 6 0.000000 0.000000 0.000000 0.000000 0.000000 0.027610
#
#
# Mechanical properties :
#
#
# Convention : Reuss Voigt Hill
#
# Bulk Modulus (GPa) = 65.54925 73.05508 69.30216
# Shear Modulus (GPa) = 35.54293 38.42126 36.98210
#
# Velocity S-wave (km/s) = 3.62053 3.76427 3.69310
# Velocity P-wave (km/s) = 6.45385 6.77021 6.61392
#
# Compressibility (1/GPa) = 0.01525571
#
# Stress axis : x y z
#
# Youngs Moduli (GPa) = 112.39764 81.03319 72.85157
#
# Poissons Ratio (x) = 0.26074 0.32840
# Poissons Ratio (y) = 0.36167 0.15508
# Poissons Ratio (z) = 0.50666 0.17250
#
# Static dielectric constant tensor:
#      x y z
#    x 2.138810 0.000000 0.000000 
#    y 0.000000 2.329640 0.000000 
#    z 0.000000 0.000000 1.908670 
# 
# From -- ./inp_files/15109.got.cif
#   From: 2010.05.17/outbox.cif.g08.bks.cpg/sg68_8_cif.got.tgz:15109.got - 2010.06.03 18:57:09.
