data_PCOD9510214
_publ_section_title
;
Structure prediction by ZEFSAII (Michael W. Deem and Ramdas Pophale) SiO2 
 PCOD9510214
Probable space group: C C C A
;
_chemical_formula_sum "Si O2"
_cell_formula_units_Z 112
_cell_length_a 13.068077
_cell_length_b 29.621201
_cell_length_c 11.931320
_cell_angle_alpha 90.000000
_cell_angle_beta 90.000000
_cell_angle_gamma 90.000000
_cell_volume 4618.520138
_symmetry_space_group_name_H-M "C C C A"
_symmetry_group_IT_number 68
_space_group.IT_coordinate_system_code '2'
_symmetry_cell_setting 'orthorhombic'
loop_
_space_group_symop_operation_xyz
x,y,z
-x,1/2-y,z
x,1/2-y,1/2-z
-x,y,1/2-z
-x,-y,-z
x,1/2+y,-z
-x,1/2+y,1/2+z
x,-y,1/2+z
1/2+x,1/2+y,z
1/2-x,-y,z
1/2+x,-y,1/2-z
1/2-x,1/2+y,1/2-z
1/2-x,1/2-y,-z
1/2+x,y,-z
1/2-x,y,1/2+z
1/2+x,1/2-y,1/2+z
loop_
_atom_site_type_symbol
_atom_site_label
_atom_site_fract_x
_atom_site_fract_y
_atom_site_fract_z
Si Si1 0.116581 0.063452 0.794516
Si Si2 0.135291 0.245531 0.540047
Si Si3 0.303545 0.887743 0.232586
Si Si4 0.889657 0.704268 0.805415
Si Si5 0.987337 0.824469 0.376896
Si Si6 0.919838 0.536058 0.851492
Si Si7 0.052571 0.402630 0.482856
O O1 0.193483 0.088974 0.710187
O O2 0.000000 0.062999 0.750000
O O3 0.135015 0.011761 0.834766
O O4 0.123663 0.090724 0.909936
O O5 0.250000 0.250000 0.500000
O O6 0.088423 0.220488 0.430843
O O7 0.111978 0.207558 0.631403
O O8 0.080030 0.290971 0.582532
O O9 0.315402 0.837699 0.282628
O O10 0.347067 0.922112 0.325637
O O11 0.378757 0.890364 0.124542
O O12 0.847519 0.750000 0.750000
O O13 0.000000 0.693317 0.750000
O O14 0.000000 0.841613 0.250000
O O15 0.980319 0.863013 0.470918
O O16 0.000000 0.536487 0.750000
O O17 0.987053 0.551963 0.957954
#
# Coordination Sequence:
#
# PCOD9510214 Si02
#       7
#    16  16  16  16  16  16  16
#     4  11  25  44  66 107 151 194 243 311 386 454
#     4  11  24  42  69 101 137 196 248 307 387 448
#     4  11  23  43  74 106 142 188 257 311 372 459
#     4  11  22  42  71 105 141 185 253 317 368 445
#     4  11  24  47  69 103 150 192 251 317 381 455
#     4   9  20  42  73 104 140 185 244 308 374 452
#     4  11  23  45  72 103 141 197 240 309 384 455
#
# _framework density 24.250191999999998
#
# number of rings (size 3 to 8) (size 9 to 14) (size 15 to 20)
#    0.000    1.286    0.000    7.714    2.000    2.286 
#    7.714    4.286    0.000    0.429    0.000    0.000 
#    0.000    0.000    0.000    0.000    0.000    0.000 
#
# Total GULP energy -312578.102255 kJ/mol
# GULP energy per Si atom -5581.751826 kJ/mol
# Density = 2.419500 g / cm^3
# Si number density = 24.250192 Si / 1000 Ang^3
#
#
#
# Elastic Constant Matrix: (Units=GPa)
#
#
# Indices 1 2 3 4 5 6 
#
# 1 123.5731 48.0573 17.6733 0.0000 0.0000 0.0000
# 2 48.0573 190.5430 25.9649 0.0000 0.0000 0.0000
# 3 17.6733 25.9649 91.4655 0.0000 0.0000 0.0000
# 4 0.0000 0.0000 0.0000 22.4856 0.0000 0.0000
# 5 0.0000 0.0000 0.0000 0.0000 27.0898 0.0000
# 6 0.0000 0.0000 0.0000 0.0000 0.0000 25.2360
#
#
#
# Elastic Compliance Matrix: (Units=1/GPa)
#
#
# Indices 1 2 3 4 5 6 
#
# 1 0.009087 -0.002135 -0.001150 0.000000 0.000000 0.000000
# 2 -0.002135 0.005961 -0.001280 0.000000 0.000000 0.000000
# 3 -0.001150 -0.001280 0.011518 0.000000 0.000000 0.000000
# 4 0.000000 0.000000 0.000000 0.044473 0.000000 0.000000
# 5 0.000000 0.000000 0.000000 0.000000 0.036914 0.000000
# 6 0.000000 0.000000 0.000000 0.000000 0.000000 0.039626
#
#
# Mechanical properties :
#
#
# Convention : Reuss Voigt Hill
#
# Bulk Modulus (GPa) = 57.34737 65.44141 61.39439
# Shear Modulus (GPa) = 30.76517 35.88803 33.32660
#
# Velocity S-wave (km/s) = 3.56568 3.85113 3.71115
# Velocity P-wave (km/s) = 6.37587 6.84247 6.61329
#
# Compressibility (1/GPa) = 0.01743759
#
# Stress axis : x y z
#
# Youngs Moduli (GPa) = 110.04493 167.75526 86.81695
#
# Poissons Ratio (x) = 0.35820 0.09981
# Poissons Ratio (y) = 0.23497 0.11109
# Poissons Ratio (z) = 0.12652 0.21466
#
# Static dielectric constant tensor:
#      x y z
#    x 2.077020 0.000000 0.000000 
#    y 0.000000 2.026320 0.000000 
#    z 0.000000 0.000000 1.960900 
# 
# From -- ./inp_files/13583.got.cif
#   From: 2010.05.17/outbox.cif.g08.bks.cpg/sg68_7_cif.got.tgz:13583.got - 2010.06.03 18:57:09.
