data_PCOD9510942
_publ_section_title
;
Structure prediction by ZEFSAII (Michael W. Deem and Ramdas Pophale) SiO2 
 PCOD9510942
Probable space group: C C C A
;
_chemical_formula_sum "Si O2"
_cell_formula_units_Z 60
_cell_length_a 12.000000
_cell_length_b 21.000000
_cell_length_c 24.000000
_cell_angle_alpha 90.000000
_cell_angle_beta 90.000000
_cell_angle_gamma 90.000000
_cell_volume 6048.000000
_symmetry_space_group_name_H-M "C C C A"
_symmetry_group_IT_number 68
_space_group.IT_coordinate_system_code '2'
_symmetry_cell_setting 'orthorhombic'
loop_
_space_group_symop_operation_xyz
x,y,z
-x,1/2-y,z
x,1/2-y,1/2-z
-x,y,1/2-z
-x,-y,-z
x,1/2+y,-z
-x,1/2+y,1/2+z
x,-y,1/2+z
1/2+x,1/2+y,z
1/2-x,-y,z
1/2+x,-y,1/2-z
1/2-x,1/2+y,1/2-z
1/2-x,1/2-y,-z
1/2+x,y,-z
1/2-x,y,1/2+z
1/2+x,1/2-y,1/2+z
loop_
_atom_site_type_symbol
_atom_site_label
_atom_site_fract_x
_atom_site_fract_y
_atom_site_fract_z
Si Si1 0.202290 0.647507 0.978924
Si Si2 0.000000 0.380492 0.750000
Si Si3 0.627515 0.326505 0.745748
Si Si4 0.316025 0.597805 0.363711
Si Si5 0.686756 0.331465 0.331786
Si Si6 0.658570 0.444515 0.419983
Si Si7 0.074182 0.962176 0.141167
Si Si8 0.631342 0.753683 0.932158
O O1 0.142728 0.631289 0.920546
O O2 0.318328 0.680290 0.956495
O O3 0.188938 0.585586 0.019074
O O4 0.153971 0.702621 0.018760
O O5 0.908983 0.337356 0.783633
O O6 0.957477 0.426662 0.699558
O O7 0.630017 0.250000 0.750000
O O8 0.500000 0.347878 0.750000
O O9 0.678434 0.355341 0.689137
O O10 0.700314 0.344935 0.798803
O O11 0.189478 0.573402 0.375874
O O12 0.389289 0.535351 0.350285
O O13 0.675047 0.388084 0.375785
O O14 0.683653 0.269331 0.372529
O O15 0.750000 0.500000 0.410123
O O16 0.528429 0.461428 0.403989
O O17 0.500000 0.750000 0.921831
#
# Coordination Sequence:
#
# PCOD9510942 Si02
#       8
#    16   8  16  16  16  16  16  16
#     4  10  24  43  63  97 131 172 221 279 334 399
#     4  10  20  40  65  98 133 166 218 280 328 392
#     4  11  25  43  63  95 136 180 222 270 331 406
#     4  11  24  43  67  96 135 175 221 278 334 400
#     4  10  22  41  68  97 131 172 223 272 333 396
#     4  10  24  42  66  98 132 173 223 276 332 406
#     4  10  24  41  66 101 129 177 223 271 336 402
#     4  10  23  44  69  96 130 175 227 282 335 400
#
# _framework density 9.9206350000000008
#
# number of rings (size 3 to 8) (size 9 to 14) (size 15 to 20)
#    0.000    1.733    1.333    0.800   10.267    3.733 
#    7.200    0.000    0.000    0.000    0.000    0.000 
#    0.000    0.000    0.000    0.000    0.000    0.000 
#
# Total GULP energy -334295.306435 kJ/mol
# GULP energy per Si atom -5571.588441 kJ/mol
# Density = 0.989806 g / cm^3
# Si number density = 9.920635 Si / 1000 Ang^3
#
#
#
# Elastic Constant Matrix: (Units=GPa)
#
#
# Indices 1 2 3 4 5 6 
#
# 1 108.8857 31.3862 38.5227 0.0000 0.0000 0.0000
# 2 31.3862 68.2394 31.6870 0.0000 0.0000 0.0000
# 3 38.5227 31.6870 135.1334 0.0000 0.0000 0.0000
# 4 0.0000 0.0000 0.0000 18.2577 0.0000 0.0000
# 5 0.0000 0.0000 0.0000 0.0000 20.4655 0.0000
# 6 0.0000 0.0000 0.0000 0.0000 0.0000 22.4133
#
#
#
# Elastic Compliance Matrix: (Units=1/GPa)
#
#
# Indices 1 2 3 4 5 6 
#
# 1 0.011150 -0.004099 -0.002217 0.000000 0.000000 0.000000
# 2 -0.004099 0.017952 -0.003041 0.000000 0.000000 0.000000
# 3 -0.002217 -0.003041 0.008745 0.000000 0.000000 0.000000
# 4 0.000000 0.000000 0.000000 0.054772 0.000000 0.000000
# 5 0.000000 0.000000 0.000000 0.000000 0.048863 0.000000
# 6 0.000000 0.000000 0.000000 0.000000 0.000000 0.044616
#
#
# Mechanical properties :
#
#
# Convention : Reuss Voigt Hill
#
# Bulk Modulus (GPa) = 52.26692 57.27226 54.76959
# Shear Modulus (GPa) = 23.67549 26.27148 24.97349
#
# Velocity S-wave (km/s) = 3.45809 3.64274 3.55161
# Velocity P-wave (km/s) = 6.50724 6.82793 6.66951
#
# Compressibility (1/GPa) = 0.01913256
#
# Stress axis : x y z
#
# Youngs Moduli (GPa) = 89.68711 55.70563 114.34729
#
# Poissons Ratio (x) = 0.22832 0.25356
# Poissons Ratio (y) = 0.36760 0.34773
# Poissons Ratio (z) = 0.19888 0.16940
#
# Static dielectric constant tensor:
#      x y z
#    x 1.732070 0.000000 0.000000 
#    y 0.000000 1.729680 0.000000 
#    z 0.000000 0.000000 1.677260 
# 
# From -- ./inp_files/44657.got.cif
#   From: 2010.05.17/outbox.ucp.g08.bks.cvg/sg68_23_cif.got.tgz:44657.got - 2010.06.11 16:49:25.
