data_PCOD9510476
_publ_section_title
;
Structure prediction by ZEFSAII (Michael W. Deem and Ramdas Pophale) SiO2 
 PCOD9510476
Probable space group: C C C A
;
_chemical_formula_sum "Si O2"
_cell_formula_units_Z 64
_cell_length_a 10.617563
_cell_length_b 17.853672
_cell_length_c 15.104438
_cell_angle_alpha 90.000000
_cell_angle_beta 90.000000
_cell_angle_gamma 90.000000
_cell_volume 2863.234836
_symmetry_space_group_name_H-M "C C C A"
_symmetry_group_IT_number 68
_space_group.IT_coordinate_system_code '2'
_symmetry_cell_setting 'orthorhombic'
loop_
_space_group_symop_operation_xyz
x,y,z
-x,1/2-y,z
x,1/2-y,1/2-z
-x,y,1/2-z
-x,-y,-z
x,1/2+y,-z
-x,1/2+y,1/2+z
x,-y,1/2+z
1/2+x,1/2+y,z
1/2-x,-y,z
1/2+x,-y,1/2-z
1/2-x,1/2+y,1/2-z
1/2-x,1/2-y,-z
1/2+x,y,-z
1/2-x,y,1/2+z
1/2+x,1/2-y,1/2+z
loop_
_atom_site_type_symbol
_atom_site_label
_atom_site_fract_x
_atom_site_fract_y
_atom_site_fract_z
Si Si1 0.869543 0.852456 0.695455
Si Si2 0.621500 0.049585 0.517938
Si Si3 0.254411 0.910242 0.640829
Si Si4 0.864543 0.724682 0.561221
O O1 0.757755 0.876045 0.761685
O O2 0.853497 0.770911 0.652807
O O3 0.851269 0.862916 0.914607
O O4 0.000000 0.859498 0.750000
O O5 0.631706 0.099709 0.428301
O O6 0.500000 0.000000 0.500000
O O7 0.750000 0.000000 0.519706
O O8 0.623136 0.093990 0.609618
O O9 0.250000 0.000000 0.654645
O O10 0.750000 0.750000 0.500000
O O11 0.000000 0.750000 0.525046
#
# Coordination Sequence:
#
# PCOD9510476 Si02
#       4
#    16  16  16  16
#     4  12  23  44  77 110 148 202 268 314 395 476
#     4  11  25  44  72 111 159 203 258 328 392 465
#     4  11  24  44  71 110 150 194 259 312 385 459
#     4  12  26  47  77 113 153 205 259 324 394 472
#
# _framework density 22.352340999999999
#
# number of rings (size 3 to 8) (size 9 to 14) (size 15 to 20)
#    0.000    0.500    5.000    4.500    0.000    0.000 
#    0.000    0.000    0.000    1.500    0.000    0.000 
#    0.000    0.000    0.000    0.000    0.000    0.000 
#
# Total GULP energy -178463.657570 kJ/mol
# GULP energy per Si atom -5576.989299 kJ/mol
# Density = 2.230147 g / cm^3
# Si number density = 22.352341 Si / 1000 Ang^3
#
#
#
# Elastic Constant Matrix: (Units=GPa)
#
#
# Indices 1 2 3 4 5 6 
#
# 1 131.0512 48.5697 58.9856 0.0000 0.0000 0.0000
# 2 48.5697 145.3160 39.1282 0.0000 0.0000 0.0000
# 3 58.9856 39.1282 175.1735 0.0000 0.0000 0.0000
# 4 0.0000 0.0000 0.0000 47.4214 0.0000 0.0000
# 5 0.0000 0.0000 0.0000 0.0000 52.1939 0.0000
# 6 0.0000 0.0000 0.0000 0.0000 0.0000 44.0499
#
#
#
# Elastic Compliance Matrix: (Units=1/GPa)
#
#
# Indices 1 2 3 4 5 6 
#
# 1 0.009802 -0.002540 -0.002733 0.000000 0.000000 0.000000
# 2 -0.002540 0.007980 -0.000927 0.000000 0.000000 0.000000
# 3 -0.002733 -0.000927 0.006836 0.000000 0.000000 0.000000
# 4 0.000000 0.000000 0.000000 0.021088 0.000000 0.000000
# 5 0.000000 0.000000 0.000000 0.000000 0.019159 0.000000
# 6 0.000000 0.000000 0.000000 0.000000 0.000000 0.022702
#
#
# Mechanical properties :
#
#
# Convention : Reuss Voigt Hill
#
# Bulk Modulus (GPa) = 81.85180 82.76751 82.30966
# Shear Modulus (GPa) = 48.05801 49.05685 48.55743
#
# Velocity S-wave (km/s) = 4.64186 4.68985 4.66592
# Velocity P-wave (km/s) = 8.08873 8.15078 8.11982
#
# Compressibility (1/GPa) = 0.01221720
#
# Stress axis : x y z
#
# Youngs Moduli (GPa) = 102.01662 125.30921 146.28251
#
# Poissons Ratio (x) = 0.31832 0.39983
# Poissons Ratio (y) = 0.25915 0.13562
# Poissons Ratio (z) = 0.27884 0.11618
#
# Static dielectric constant tensor:
#      x y z
#    x 1.874660 0.000000 0.000000 
#    y 0.000000 1.924610 0.000000 
#    z 0.000000 0.000000 1.879480 
# 
# From -- ./inp_files/11675.got.cif
#   From: 2010.05.17/outbox.cif.g08.bks.cpg/sg68_6_cif.got.tgz:11675.got - 2010.06.03 18:57:09.
