data_PCOD9510817
_publ_section_title
;
Structure prediction by ZEFSAII (Michael W. Deem and Ramdas Pophale) SiO2 
 PCOD9510817
Probable space group: C C C A
;
_chemical_formula_sum "Si O2"
_cell_formula_units_Z 40
_cell_length_a 13.720300
_cell_length_b 8.708425
_cell_length_c 12.133459
_cell_angle_alpha 90.000000
_cell_angle_beta 90.000000
_cell_angle_gamma 90.000000
_cell_volume 1449.732418
_symmetry_space_group_name_H-M "C C C A"
_symmetry_group_IT_number 68
_space_group.IT_coordinate_system_code '2'
_symmetry_cell_setting 'orthorhombic'
loop_
_space_group_symop_operation_xyz
x,y,z
-x,1/2-y,z
x,1/2-y,1/2-z
-x,y,1/2-z
-x,-y,-z
x,1/2+y,-z
-x,1/2+y,1/2+z
x,-y,1/2+z
1/2+x,1/2+y,z
1/2-x,-y,z
1/2+x,-y,1/2-z
1/2-x,1/2+y,1/2-z
1/2-x,1/2-y,-z
1/2+x,y,-z
1/2-x,y,1/2+z
1/2+x,1/2-y,1/2+z
loop_
_atom_site_type_symbol
_atom_site_label
_atom_site_fract_x
_atom_site_fract_y
_atom_site_fract_z
Si Si1 0.143153 0.279998 0.052223
Si Si2 0.750000 0.000000 0.712017
Si Si3 0.580506 0.955400 0.846395
O O1 0.171461 0.409132 0.140626
O O2 0.098033 0.130954 0.111723
O O3 0.250000 0.250000 0.000000
O O4 0.076776 0.355334 0.957257
O O5 0.817942 0.096723 0.791860
O O6 0.500000 0.940187 0.750000
#
# Coordination Sequence:
#
# PCOD9510817 Si02
#       3
#    16   8  16
#     4  12  24  54  86 121 175 230 292 361 438 527
#     4  12  24  48  90 120 174 228 282 362 438 514
#     4  12  29  53  88 131 172 232 296 365 438 528
#
# _framework density 27.591298999999999
#
# number of rings (size 3 to 8) (size 9 to 14) (size 15 to 20)
#    0.000    0.000    8.000    1.200    0.000    4.800 
#    7.200    4.000    0.000    0.000    0.000    0.000 
#    0.000    0.000    0.000    0.000    0.000    0.000 
#
# Total GULP energy -112147.321617 kJ/mol
# GULP energy per Si atom -5607.366081 kJ/mol
# Density = 2.752850 g / cm^3
# Si number density = 27.591299 Si / 1000 Ang^3
#
#
#
# Elastic Constant Matrix: (Units=GPa)
#
#
# Indices 1 2 3 4 5 6 
#
# 1 163.5464 50.5236 95.8477 0.0000 0.0000 0.0000
# 2 50.5236 180.8896 110.8861 0.0000 0.0000 0.0000
# 3 95.8477 110.8861 232.8494 0.0000 0.0000 0.0000
# 4 0.0000 0.0000 0.0000 -97.8944 0.0000 0.0000
# 5 0.0000 0.0000 0.0000 0.0000 72.5484 0.0000
# 6 0.0000 0.0000 0.0000 0.0000 0.0000 43.8371
#
#
#
# Elastic Compliance Matrix: (Units=1/GPa)
#
#
# Indices 1 2 3 4 5 6 
#
# 1 0.008071 -0.000307 -0.003176 0.000000 0.000000 0.000000
# 2 -0.000307 0.007819 -0.003597 0.000000 0.000000 0.000000
# 3 -0.003176 -0.003597 0.007315 0.000000 0.000000 0.000000
# 4 0.000000 0.000000 0.000000 -0.010215 0.000000 0.000000
# 5 0.000000 0.000000 0.000000 0.000000 0.013784 0.000000
# 6 0.000000 0.000000 0.000000 0.000000 0.000000 0.022812
#
#
# Mechanical properties :
#
#
# Convention : Reuss Voigt Hill
#
# Bulk Modulus (GPa) = 110.56848 121.31112 115.93980
# Shear Modulus (GPa) = 74.89524 25.03344 49.96434
#
# Velocity S-wave (km/s) = 5.21569 3.01540 4.26005
# Velocity P-wave (km/s) = 8.74254 7.49574 8.14304
#
# Compressibility (1/GPa) = 0.00904417
#
# Stress axis : x y z
#
# Youngs Moduli (GPa) = 123.90677 127.89225 136.70992
#
# Poissons Ratio (x) = 0.03932 0.43415
# Poissons Ratio (y) = 0.03810 0.49174
# Poissons Ratio (z) = 0.39349 0.46003
#
# Static dielectric constant tensor:
#      x y z
#    x 2.237060 0.000000 0.000000 
#    y 0.000000 2.286990 0.000000 
#    z 0.000000 0.000000 2.198870 
# 
# From -- ./inp_files/21385.got.cif
#   From: 2010.05.17/outbox.cif.g08.bks.cpg/sg68_11_cif.got.tgz:21385.got - 2010.06.03 18:57:09.
