data_PCOD9510366
_publ_section_title
;
Structure prediction by ZEFSAII (Michael W. Deem and Ramdas Pophale) SiO2 
 PCOD9510366
Probable space group: C C C A
;
_chemical_formula_sum "Si O2"
_cell_formula_units_Z 64
_cell_length_a 19.732377
_cell_length_b 5.290335
_cell_length_c 25.154878
_cell_angle_alpha 90.000000
_cell_angle_beta 90.000000
_cell_angle_gamma 90.000000
_cell_volume 2625.939968
_symmetry_space_group_name_H-M "C C C A"
_symmetry_group_IT_number 68
_space_group.IT_coordinate_system_code '2'
_symmetry_cell_setting 'orthorhombic'
loop_
_space_group_symop_operation_xyz
x,y,z
-x,1/2-y,z
x,1/2-y,1/2-z
-x,y,1/2-z
-x,-y,-z
x,1/2+y,-z
-x,1/2+y,1/2+z
x,-y,1/2+z
1/2+x,1/2+y,z
1/2-x,-y,z
1/2+x,-y,1/2-z
1/2-x,1/2+y,1/2-z
1/2-x,1/2-y,-z
1/2+x,y,-z
1/2-x,y,1/2+z
1/2+x,1/2-y,1/2+z
loop_
_atom_site_type_symbol
_atom_site_label
_atom_site_fract_x
_atom_site_fract_y
_atom_site_fract_z
Si Si1 0.178960 0.884272 0.591202
Si Si2 0.420160 0.395031 0.532628
Si Si3 0.823771 0.594356 0.798510
Si Si4 0.925691 0.700928 0.366049
O O1 0.157545 0.670076 0.548833
O O2 0.188459 0.761970 0.649091
O O3 0.250000 0.000000 0.575269
O O4 0.117575 0.088066 0.600640
O O5 0.437422 0.630395 0.495198
O O6 0.443827 0.479933 0.591042
O O7 0.854336 0.750000 0.750000
O O8 0.750000 0.500000 0.781011
O O9 0.874432 0.382698 0.820116
O O10 0.000000 0.750000 0.343374
#
# Coordination Sequence:
#
# PCOD9510366 Si02
#       4
#    16  16  16  16
#     4  11  23  45  72 105 145 195 253 312 376 447
#     4  11  24  45  72 109 151 204 257 309 375 447
#     4  11  24  43  78 107 140 193 253 305 375 457
#     4  11  26  48  73 108 154 194 245 316 377 443
#
# _framework density 24.372223000000002
#
# number of rings (size 3 to 8) (size 9 to 14) (size 15 to 20)
#    0.000    1.000    5.000    0.750    0.000    6.000 
#    0.000    3.750    0.000    0.000    0.000    0.000 
#    0.000    0.000    0.000    0.000    0.000    0.000 
#
# Total GULP energy -178686.190924 kJ/mol
# GULP energy per Si atom -5583.943466 kJ/mol
# Density = 2.431675 g / cm^3
# Si number density = 24.372223 Si / 1000 Ang^3
#
#
#
# Elastic Constant Matrix: (Units=GPa)
#
#
# Indices 1 2 3 4 5 6 
#
# 1 114.0456 21.6058 3.7879 0.0000 0.0000 0.0000
# 2 21.6058 109.3898 28.3865 0.0000 0.0000 0.0000
# 3 3.7879 28.3865 58.4273 0.0000 0.0000 0.0000
# 4 0.0000 0.0000 0.0000 -170.6130 0.0000 0.0000
# 5 0.0000 0.0000 0.0000 0.0000 5.8749 0.0000
# 6 0.0000 0.0000 0.0000 0.0000 0.0000 40.4729
#
#
#
# Elastic Compliance Matrix: (Units=1/GPa)
#
#
# Indices 1 2 3 4 5 6 
#
# 1 0.009115 -0.001885 0.000325 0.000000 0.000000 0.000000
# 2 -0.001885 0.010850 -0.005149 0.000000 0.000000 0.000000
# 3 0.000325 -0.005149 0.019596 0.000000 0.000000 0.000000
# 4 0.000000 0.000000 0.000000 -0.005861 0.000000 0.000000
# 5 0.000000 0.000000 0.000000 0.000000 0.170215 0.000000
# 6 0.000000 0.000000 0.000000 0.000000 0.000000 0.024708
#
#
# Mechanical properties :
#
#
# Convention : Reuss Voigt Hill
#
# Bulk Modulus (GPa) = 38.25190 43.26923 40.76056
# Shear Modulus (GPa) = 19.93980 -9.64752 5.14614
#
# Velocity S-wave (km/s) = 2.86341 -1.99173 1.45467
# Velocity P-wave (km/s) = 5.16344 3.53592 4.42515
#
# Compressibility (1/GPa) = 0.02614249
#
# Stress axis : x y z
#
# Youngs Moduli (GPa) = 109.71345 92.16544 51.03093
#
# Poissons Ratio (x) = 0.17369 -0.01657
# Poissons Ratio (y) = 0.20676 0.26277
# Poissons Ratio (z) = -0.03562 0.47458
#
# Static dielectric constant tensor:
#      x y z
#    x 2.051170 0.000000 0.000000 
#    y 0.000000 2.099480 0.000000 
#    z 0.000000 0.000000 1.849750 
# 
# From -- ./inp_files/46321.got.cif
#   From: 2010.05.17/outbox.cif.g08.bks.cpg/sg68_24_cif.got.tgz:46321.got - 2010.06.03 18:57:09.
