data_PCOD9510613
_publ_section_title
;
Structure prediction by ZEFSAII (Michael W. Deem and Ramdas Pophale) SiO2 
 PCOD9510613
Probable space group: C C C A
;
_chemical_formula_sum "Si O2"
_cell_formula_units_Z 96
_cell_length_a 25.503884
_cell_length_b 19.180311
_cell_length_c 8.965042
_cell_angle_alpha 90.000000
_cell_angle_beta 90.000000
_cell_angle_gamma 90.000000
_cell_volume 4385.451352
_symmetry_space_group_name_H-M "C C C A"
_symmetry_group_IT_number 68
_space_group.IT_coordinate_system_code '2'
_symmetry_cell_setting 'orthorhombic'
loop_
_space_group_symop_operation_xyz
x,y,z
-x,1/2-y,z
x,1/2-y,1/2-z
-x,y,1/2-z
-x,-y,-z
x,1/2+y,-z
-x,1/2+y,1/2+z
x,-y,1/2+z
1/2+x,1/2+y,z
1/2-x,-y,z
1/2+x,-y,1/2-z
1/2-x,1/2+y,1/2-z
1/2-x,1/2-y,-z
1/2+x,y,-z
1/2-x,y,1/2+z
1/2+x,1/2-y,1/2+z
loop_
_atom_site_type_symbol
_atom_site_label
_atom_site_fract_x
_atom_site_fract_y
_atom_site_fract_z
Si Si1 0.396243 0.807275 0.631383
Si Si2 0.176480 0.060773 0.662031
Si Si3 0.059335 0.675698 0.691989
Si Si4 0.199159 0.708740 0.050698
Si Si5 0.646757 0.591909 0.158729
Si Si6 0.741990 0.589420 0.372551
O O1 0.420112 0.750000 0.750000
O O2 0.369172 0.880754 0.682738
O O3 0.432227 0.823265 0.487051
O O4 0.345378 0.763871 0.581043
O O5 0.210317 0.041890 0.811158
O O6 0.223414 0.079715 0.543729
O O7 0.149642 0.988500 0.608953
O O8 0.081375 0.750000 0.750000
O O9 0.091589 0.615798 0.775306
O O10 0.000000 0.672117 0.750000
O O11 0.227536 0.661319 0.173494
O O12 0.250000 0.750000 0.000000
O O13 0.169801 0.648652 0.955606
O O14 0.686962 0.597030 0.294088
#
# Coordination Sequence:
#
# PCOD9510613 Si02
#       6
#    16  16  16  16  16  16
#     4  12  24  44  72 108 142 180 242 306 360 423
#     4  12  27  39  63 105 152 195 235 284 348 428
#     4  11  25  51  78  99 127 185 248 306 367 434
#     4  12  23  37  60  99 143 193 235 276 342 426
#     4  12  26  41  69  98 146 193 243 293 352 427
#     4  12  24  38  60  98 152 193 233 267 342 425
#
# _framework density 21.890563
#
# number of rings (size 3 to 8) (size 9 to 14) (size 15 to 20)
#    0.000    0.167    8.333    0.500    4.667    0.000 
#    0.000    2.500    0.000    0.000    0.000    0.000 
#    0.000    0.000    0.000    0.000    0.000    0.000 
#
# Total GULP energy -267355.346994 kJ/mol
# GULP energy per Si atom -5569.903062 kJ/mol
# Density = 2.184074 g / cm^3
# Si number density = 21.890563 Si / 1000 Ang^3
#
#
#
# Elastic Constant Matrix: (Units=GPa)
#
#
# Indices 1 2 3 4 5 6 
#
# 1 93.7030 39.3642 40.9209 0.0000 0.0000 0.0000
# 2 39.3642 123.4530 19.5221 0.0000 0.0000 0.0000
# 3 40.9209 19.5221 103.1837 0.0000 0.0000 0.0000
# 4 0.0000 0.0000 0.0000 27.9063 0.0000 0.0000
# 5 0.0000 0.0000 0.0000 0.0000 29.1523 0.0000
# 6 0.0000 0.0000 0.0000 0.0000 0.0000 26.6481
#
#
#
# Elastic Compliance Matrix: (Units=1/GPa)
#
#
# Indices 1 2 3 4 5 6 
#
# 1 0.014467 -0.003820 -0.005014 0.000000 0.000000 0.000000
# 2 -0.003820 0.009359 -0.000256 0.000000 0.000000 0.000000
# 3 -0.005014 -0.000256 0.011728 0.000000 0.000000 0.000000
# 4 0.000000 0.000000 0.000000 0.035834 0.000000 0.000000
# 5 0.000000 0.000000 0.000000 0.000000 0.034303 0.000000
# 6 0.000000 0.000000 0.000000 0.000000 0.000000 0.037526
#
#
# Mechanical properties :
#
#
# Convention : Reuss Voigt Hill
#
# Bulk Modulus (GPa) = 57.55864 57.77266 57.66565
# Shear Modulus (GPa) = 29.90644 31.44351 30.67498
#
# Velocity S-wave (km/s) = 3.70020 3.79409 3.74744
# Velocity P-wave (km/s) = 6.67878 6.75592 6.71746
#
# Compressibility (1/GPa) = 0.01737359
#
# Stress axis : x y z
#
# Youngs Moduli (GPa) = 69.12479 106.85265 85.26240
#
# Poissons Ratio (x) = 0.40816 0.42755
# Poissons Ratio (y) = 0.26405 0.02181
# Poissons Ratio (z) = 0.34663 0.02733
#
# Static dielectric constant tensor:
#      x y z
#    x 1.758840 0.000000 0.000000 
#    y 0.000000 2.260360 0.000000 
#    z 0.000000 0.000000 2.002270 
# 
# From -- ./inp_files/8953.got.cif
#   From: 2010.05.17/outbox.cif.g08.bks.cpg/sg68_5_cif.got.tgz:8953.got - 2010.06.03 18:57:09.
