data_PCOD9510747
_publ_section_title
;
Structure prediction by ZEFSAII (Michael W. Deem and Ramdas Pophale) SiO2 
 PCOD9510747
Probable space group: C C C A
;
_chemical_formula_sum "Si O2"
_cell_formula_units_Z 64
_cell_length_a 15.716746
_cell_length_b 15.605550
_cell_length_c 10.434149
_cell_angle_alpha 90.000000
_cell_angle_beta 90.000000
_cell_angle_gamma 90.000000
_cell_volume 2559.167714
_symmetry_space_group_name_H-M "C C C A"
_symmetry_group_IT_number 68
_space_group.IT_coordinate_system_code '2'
_symmetry_cell_setting 'orthorhombic'
loop_
_space_group_symop_operation_xyz
x,y,z
-x,1/2-y,z
x,1/2-y,1/2-z
-x,y,1/2-z
-x,-y,-z
x,1/2+y,-z
-x,1/2+y,1/2+z
x,-y,1/2+z
1/2+x,1/2+y,z
1/2-x,-y,z
1/2+x,-y,1/2-z
1/2-x,1/2+y,1/2-z
1/2-x,1/2-y,-z
1/2+x,y,-z
1/2-x,y,1/2+z
1/2+x,1/2-y,1/2+z
loop_
_atom_site_type_symbol
_atom_site_label
_atom_site_fract_x
_atom_site_fract_y
_atom_site_fract_z
Si Si1 0.913102 0.547233 0.686992
Si Si2 0.709667 0.650482 0.362793
Si Si3 0.250000 0.500000 0.947120
Si Si4 0.413466 0.788536 0.027041
Si Si5 0.648541 0.250000 0.250000
O O1 0.868838 0.602825 0.797761
O O2 0.835844 0.490221 0.635793
O O3 0.924647 0.612880 0.567879
O O4 0.000000 0.511859 0.750000
O O5 0.749576 0.585234 0.465277
O O6 0.668378 0.738603 0.415589
O O7 0.784170 0.672143 0.263159
O O8 0.500000 0.750000 0.081557
O O9 0.405346 0.763792 0.877795
#
# Coordination Sequence:
#
# PCOD9510747 Si02
#       5
#    16  16   8  16   8
#     4  12  25  48  78 109 157 209 259 324 389 472
#     4  12  24  44  78 106 152 205 261 317 395 460
#     4  12  28  48  72 122 158 206 254 318 408 474
#     4  12  24  45  75 112 145 201 266 324 387 458
#     4  12  23  42  73 112 150 200 258 330 376 464
#
# _framework density 25.008130999999999
#
# number of rings (size 3 to 8) (size 9 to 14) (size 15 to 20)
#    0.000    0.000    7.500    3.375    0.000    1.000 
#    0.000    0.000    0.000    0.000    0.000    0.000 
#    0.000    0.000    0.000    0.000    0.000    0.000 
#
# Total GULP energy -178777.401744 kJ/mol
# GULP energy per Si atom -5586.793804 kJ/mol
# Density = 2.495121 g / cm^3
# Si number density = 25.008131 Si / 1000 Ang^3
#
#
#
# Elastic Constant Matrix: (Units=GPa)
#
#
# Indices 1 2 3 4 5 6 
#
# 1 159.6958 31.5479 42.9281 0.0000 0.0000 0.0000
# 2 31.5479 83.3325 32.2915 0.0000 0.0000 0.0000
# 3 42.9281 32.2915 118.4965 0.0000 0.0000 0.0000
# 4 0.0000 0.0000 0.0000 209.4164 0.0000 0.0000
# 5 0.0000 0.0000 0.0000 0.0000 33.8240 0.0000
# 6 0.0000 0.0000 0.0000 0.0000 0.0000 36.0066
#
#
#
# Elastic Compliance Matrix: (Units=1/GPa)
#
#
# Indices 1 2 3 4 5 6 
#
# 1 0.007202 -0.001918 -0.002086 0.000000 0.000000 0.000000
# 2 -0.001918 0.013928 -0.003101 0.000000 0.000000 0.000000
# 3 -0.002086 -0.003101 0.010040 0.000000 0.000000 0.000000
# 4 0.000000 0.000000 0.000000 0.004775 0.000000 0.000000
# 5 0.000000 0.000000 0.000000 0.000000 0.029565 0.000000
# 6 0.000000 0.000000 0.000000 0.000000 0.000000 0.027773
#
#
# Mechanical properties :
#
#
# Convention : Reuss Voigt Hill
#
# Bulk Modulus (GPa) = 58.96421 63.89553 61.42987
# Shear Modulus (GPa) = 44.19120 72.83321 58.51221
#
# Velocity S-wave (km/s) = 4.20822 5.40250 4.84232
# Velocity P-wave (km/s) = 6.87323 8.03252 7.47538
#
# Compressibility (1/GPa) = 0.01695944
#
# Stress axis : x y z
#
# Youngs Moduli (GPa) = 138.85772 71.79939 99.60330
#
# Poissons Ratio (x) = 0.13771 0.20780
# Poissons Ratio (y) = 0.26632 0.30883
# Poissons Ratio (z) = 0.28970 0.22262
#
# Static dielectric constant tensor:
#      x y z
#    x 2.211970 0.000000 0.000000 
#    y 0.000000 2.188670 0.000000 
#    z 0.000000 0.000000 2.092860 
# 
# From -- ./inp_files/12900.got.cif
#   From: 2010.05.17/outbox.cif.g08.bks.cpg/sg68_7_cif.got.tgz:12900.got - 2010.06.03 18:57:09.
