data_PCOD9510280
_publ_section_title
;
Structure prediction by ZEFSAII (Michael W. Deem and Ramdas Pophale) SiO2 
 PCOD9510280
Probable space group: C C C A
;
_chemical_formula_sum "Si O2"
_cell_formula_units_Z 112
_cell_length_a 12.748233
_cell_length_b 30.160654
_cell_length_c 13.760334
_cell_angle_alpha 90.000000
_cell_angle_beta 90.000000
_cell_angle_gamma 90.000000
_cell_volume 5290.780235
_symmetry_space_group_name_H-M "C C C A"
_symmetry_group_IT_number 68
_space_group.IT_coordinate_system_code '2'
_symmetry_cell_setting 'orthorhombic'
loop_
_space_group_symop_operation_xyz
x,y,z
-x,1/2-y,z
x,1/2-y,1/2-z
-x,y,1/2-z
-x,-y,-z
x,1/2+y,-z
-x,1/2+y,1/2+z
x,-y,1/2+z
1/2+x,1/2+y,z
1/2-x,-y,z
1/2+x,-y,1/2-z
1/2-x,1/2+y,1/2-z
1/2-x,1/2-y,-z
1/2+x,y,-z
1/2-x,y,1/2+z
1/2+x,1/2-y,1/2+z
loop_
_atom_site_type_symbol
_atom_site_label
_atom_site_fract_x
_atom_site_fract_y
_atom_site_fract_z
Si Si1 0.711645 0.302917 0.112596
Si Si2 0.938719 0.954035 0.012375
Si Si3 0.710326 0.548878 0.156456
Si Si4 0.399423 0.779119 0.986805
Si Si5 0.610598 0.159272 0.197234
Si Si6 0.244635 0.573492 0.137508
Si Si7 0.627551 0.893960 0.956049
O O1 0.667945 0.256716 0.073858
O O2 0.679960 0.311930 0.224832
O O3 0.651770 0.342367 0.055260
O O4 0.832600 0.300930 0.075043
O O5 0.890373 0.941101 0.908312
O O6 0.840620 0.957988 0.085440
O O7 0.012919 0.914779 0.050506
O O8 0.000000 0.000000 0.000000
O O9 0.750000 0.500000 0.129801
O O10 0.698221 0.552371 0.270891
O O11 0.800922 0.582677 0.125184
O O12 0.500000 0.750000 0.018928
O O13 0.418145 0.815439 0.902632
O O14 0.500000 0.148849 0.250000
O O15 0.679549 0.116676 0.171186
O O16 0.326814 0.588962 0.057603
#
# Coordination Sequence:
#
# PCOD9510280 Si02
#       7
#    16  16  16  16  16  16  16
#     4  11  23  40  67  98 138 172 222 279 343 396
#     4  11  25  44  67  95 135 180 229 286 347 415
#     4  11  24  41  65  96 130 175 227 278 343 405
#     4  11  24  41  67 102 132 178 221 278 340 418
#     4  12  22  41  70 104 129 177 232 276 335 418
#     4  11  26  41  68  96 134 172 225 282 340 410
#     4  11  23  45  63  95 136 177 219 282 338 408
#
# _framework density 21.168901000000002
#
# number of rings (size 3 to 8) (size 9 to 14) (size 15 to 20)
#    0.000    0.857    5.714    1.286    2.000    0.571 
#    0.000    0.000    0.000    6.857    0.000    0.000 
#    0.000    0.000    0.000    0.000    0.000    0.000 
#
# Total GULP energy -312912.770690 kJ/mol
# GULP energy per Si atom -5587.728048 kJ/mol
# Density = 2.112072 g / cm^3
# Si number density = 21.168901 Si / 1000 Ang^3
#
#
#
# Elastic Constant Matrix: (Units=GPa)
#
#
# Indices 1 2 3 4 5 6 
#
# 1 81.1345 -2.2218 37.3837 0.0000 0.0000 0.0000
# 2 -2.2218 61.1844 4.4228 0.0000 0.0000 0.0000
# 3 37.3837 4.4228 102.0671 0.0000 0.0000 0.0000
# 4 0.0000 0.0000 0.0000 111.8396 0.0000 0.0000
# 5 0.0000 0.0000 0.0000 0.0000 -23.9322 0.0000
# 6 0.0000 0.0000 0.0000 0.0000 0.0000 29.9535
#
#
#
# Elastic Compliance Matrix: (Units=1/GPa)
#
#
# Indices 1 2 3 4 5 6 
#
# 1 0.014881 0.000937 -0.005491 0.000000 0.000000 0.000000
# 2 0.000937 0.016454 -0.001056 0.000000 0.000000 0.000000
# 3 -0.005491 -0.001056 0.011854 0.000000 0.000000 0.000000
# 4 0.000000 0.000000 0.000000 0.008941 0.000000 0.000000
# 5 0.000000 0.000000 0.000000 0.000000 -0.041785 0.000000
# 6 0.000000 0.000000 0.000000 0.000000 0.000000 0.033385
#
#
# Mechanical properties :
#
#
# Convention : Reuss Voigt Hill
#
# Bulk Modulus (GPa) = 31.27954 35.95059 33.61507
# Shear Modulus (GPa) = 76.21007 37.22561 56.71784
#
# Velocity S-wave (km/s) = 6.00659 4.19800 5.18181
# Velocity P-wave (km/s) = 7.93182 6.36531 7.19135
#
# Compressibility (1/GPa) = 0.03196978
#
# Stress axis : x y z
#
# Youngs Moduli (GPa) = 67.20016 60.77391 84.35679
#
# Poissons Ratio (x) = -0.05696 0.46320
# Poissons Ratio (y) = -0.06299 0.08911
# Poissons Ratio (z) = 0.36900 0.06420
#
# Static dielectric constant tensor:
#      x y z
#    x 1.796850 0.000000 0.000000 
#    y 0.000000 1.814230 0.000000 
#    z 0.000000 0.000000 1.778350 
# 
# From -- ./inp_files/21238.got.cif
#   From: 2010.05.17/outbox.cif.g08.bks.cpg/sg68_11_cif.got.tgz:21238.got - 2010.06.03 18:57:09.
