data_PCOD9510237
_publ_section_title
;
Structure prediction by ZEFSAII (Michael W. Deem and Ramdas Pophale) SiO2 
 PCOD9510237
Probable space group: C C C A
;
_chemical_formula_sum "Si O2"
_cell_formula_units_Z 88
_cell_length_a 26.131495
_cell_length_b 12.857253
_cell_length_c 12.336828
_cell_angle_alpha 90.000000
_cell_angle_beta 90.000000
_cell_angle_gamma 90.000000
_cell_volume 4144.918126
_symmetry_space_group_name_H-M "C C C A"
_symmetry_group_IT_number 68
_space_group.IT_coordinate_system_code '2'
_symmetry_cell_setting 'orthorhombic'
loop_
_space_group_symop_operation_xyz
x,y,z
-x,1/2-y,z
x,1/2-y,1/2-z
-x,y,1/2-z
-x,-y,-z
x,1/2+y,-z
-x,1/2+y,1/2+z
x,-y,1/2+z
1/2+x,1/2+y,z
1/2-x,-y,z
1/2+x,-y,1/2-z
1/2-x,1/2+y,1/2-z
1/2-x,1/2-y,-z
1/2+x,y,-z
1/2-x,y,1/2+z
1/2+x,1/2-y,1/2+z
loop_
_atom_site_type_symbol
_atom_site_label
_atom_site_fract_x
_atom_site_fract_y
_atom_site_fract_z
Si Si1 0.356422 0.876051 0.086163
Si Si2 0.787295 0.691053 0.414585
Si Si3 0.712895 0.250000 0.750000
Si Si4 0.000000 0.418981 0.250000
Si Si5 0.870965 0.250000 0.750000
Si Si6 0.419883 0.434070 0.357566
Si Si7 0.554004 0.205168 0.560859
O O1 0.322198 0.814250 0.170672
O O2 0.405115 0.799192 0.067442
O O3 0.374017 0.985054 0.131391
O O4 0.320093 0.891608 0.981454
O O5 0.750000 0.750000 0.500000
O O6 0.748913 0.669985 0.316187
O O7 0.833338 0.752854 0.354212
O O8 0.968113 0.494565 0.172180
O O9 0.961417 0.349873 0.324464
O O10 0.906659 0.350383 0.735377
O O11 0.427341 0.376897 0.472064
O O12 0.500000 0.250000 0.520538
#
# Coordination Sequence:
#
# PCOD9510237 Si02
#       7
#    16  16   8   8   8  16  16
#     4  11  22  44  70  99 139 183 228 289 349 414
#     4   9  20  43  72  97 137 177 226 290 352 412
#     4   9  20  42  73 101 138 180 230 292 345 412
#     4  12  27  43  68 100 138 187 238 279 348 424
#     4  11  24  45  64 101 139 176 229 292 351 412
#     4  12  28  41  71 100 139 186 235 279 358 415
#     4  12  26  45  68 102 142 183 232 296 339 426
#
# _framework density 21.230816999999998
#
# number of rings (size 3 to 8) (size 9 to 14) (size 15 to 20)
#    0.000    1.091    3.636    1.909    5.091    0.000 
#    0.000   10.000    0.000    0.000    0.000    0.000 
#    0.000    0.000    0.000    0.000    0.000    0.000 
#
# Total GULP energy -245401.040871 kJ/mol
# GULP energy per Si atom -5577.296383 kJ/mol
# Density = 2.118249 g / cm^3
# Si number density = 21.230817 Si / 1000 Ang^3
#
#
#
# Elastic Constant Matrix: (Units=GPa)
#
#
# Indices 1 2 3 4 5 6 
#
# 1 101.3807 38.2088 31.7024 0.0000 0.0000 0.0000
# 2 38.2088 99.1060 25.0401 0.0000 0.0000 0.0000
# 3 31.7024 25.0401 68.2157 0.0000 0.0000 0.0000
# 4 0.0000 0.0000 0.0000 34.1119 0.0000 0.0000
# 5 0.0000 0.0000 0.0000 0.0000 77.4598 0.0000
# 6 0.0000 0.0000 0.0000 0.0000 0.0000 -21.9052
#
#
#
# Elastic Compliance Matrix: (Units=1/GPa)
#
#
# Indices 1 2 3 4 5 6 
#
# 1 0.012691 -0.003751 -0.004521 0.000000 0.000000 0.000000
# 2 -0.003751 0.012230 -0.002746 0.000000 0.000000 0.000000
# 3 -0.004521 -0.002746 0.017769 0.000000 0.000000 0.000000
# 4 0.000000 0.000000 0.000000 0.029315 0.000000 0.000000
# 5 0.000000 0.000000 0.000000 0.000000 0.012910 0.000000
# 6 0.000000 0.000000 0.000000 0.000000 0.000000 -0.045651
#
#
# Mechanical properties :
#
#
# Convention : Reuss Voigt Hill
#
# Bulk Modulus (GPa) = 48.41776 50.95611 49.68693
# Shear Modulus (GPa) = 73.33019 29.51671 51.42345
#
# Velocity S-wave (km/s) = 5.88341 3.73269 4.92684
# Velocity P-wave (km/s) = 8.30708 6.52919 7.47121
#
# Compressibility (1/GPa) = 0.02065358
#
# Stress axis : x y z
#
# Youngs Moduli (GPa) = 78.79492 81.76586 56.27870
#
# Poissons Ratio (x) = 0.30666 0.25446
# Poissons Ratio (y) = 0.29552 0.15456
# Poissons Ratio (z) = 0.35626 0.22455
#
# Static dielectric constant tensor:
#      x y z
#    x 1.757540 0.000000 0.000000 
#    y 0.000000 1.773040 0.000000 
#    z 0.000000 0.000000 1.856290 
# 
# From -- ./inp_files/17680.got.cif
#   From: 2010.05.17/outbox.cif.g08.bks.cpg/sg68_9_cif.got.tgz:17680.got - 2010.06.03 18:57:09.
