data_PCOD9510114
_publ_section_title
;
Structure prediction by ZEFSAII (Michael W. Deem and Ramdas Pophale) SiO2 
 PCOD9510114
Probable space group: C C C A
;
_chemical_formula_sum "Si O2"
_cell_formula_units_Z 56
_cell_length_a 14.055482
_cell_length_b 6.764801
_cell_length_c 20.658107
_cell_angle_alpha 90.000000
_cell_angle_beta 90.000000
_cell_angle_gamma 90.000000
_cell_volume 1964.225258
_symmetry_space_group_name_H-M "C C C A"
_symmetry_group_IT_number 68
_space_group.IT_coordinate_system_code '2'
_symmetry_cell_setting 'orthorhombic'
loop_
_space_group_symop_operation_xyz
x,y,z
-x,1/2-y,z
x,1/2-y,1/2-z
-x,y,1/2-z
-x,-y,-z
x,1/2+y,-z
-x,1/2+y,1/2+z
x,-y,1/2+z
1/2+x,1/2+y,z
1/2-x,-y,z
1/2+x,-y,1/2-z
1/2-x,1/2+y,1/2-z
1/2-x,1/2-y,-z
1/2+x,y,-z
1/2-x,y,1/2+z
1/2+x,1/2-y,1/2+z
loop_
_atom_site_type_symbol
_atom_site_label
_atom_site_fract_x
_atom_site_fract_y
_atom_site_fract_z
Si Si1 0.750000 0.500000 0.833653
Si Si2 0.834280 0.765723 0.554193
Si Si3 0.102611 0.480263 0.270048
Si Si4 0.027128 0.476954 0.912882
O O1 0.772997 0.680390 0.881794
O O2 0.828529 0.426406 0.783045
O O3 0.750000 0.750000 0.500000
O O4 0.892345 0.562773 0.539469
O O5 0.929355 0.898483 0.577823
O O6 0.113825 0.250000 0.250000
O O7 0.088976 0.497122 0.346778
O O8 0.000000 0.546045 0.250000
O O9 0.000000 0.750000 0.079124
#
# Coordination Sequence:
#
# PCOD9510114 Si02
#       4
#     8  16  16  16
#     4  12  24  48  92 134 182 248 314 386 494 584
#     4  11  26  56  92 128 189 259 325 391 478 604
#     4  11  21  47  88 129 190 230 302 401 479 576
#     4  11  25  54  93 136 187 249 320 411 499 566
#
# _framework density 28.509971
#
# number of rings (size 3 to 8) (size 9 to 14) (size 15 to 20)
#    0.000    0.857    5.714    1.714    0.000    4.000 
#    5.143    5.714   25.143    0.000    0.000    0.000 
#    0.000    0.000    0.000    0.000    0.000    0.000 
#
# Total GULP energy -156068.064909 kJ/mol
# GULP energy per Si atom -5573.859461 kJ/mol
# Density = 2.844508 g / cm^3
# Si number density = 28.509971 Si / 1000 Ang^3
#
#
#
# Elastic Constant Matrix: (Units=GPa)
#
#
# Indices 1 2 3 4 5 6 
#
# 1 262.8545 75.3873 125.4916 0.0000 0.0000 0.0000
# 2 75.3873 180.3438 49.4482 0.0000 0.0000 0.0000
# 3 125.4916 49.4482 260.0529 0.0000 0.0000 0.0000
# 4 0.0000 0.0000 0.0000 -34.1817 0.0000 0.0000
# 5 0.0000 0.0000 0.0000 0.0000 -134.6139 0.0000
# 6 0.0000 0.0000 0.0000 0.0000 0.0000 55.0370
#
#
#
# Elastic Compliance Matrix: (Units=1/GPa)
#
#
# Indices 1 2 3 4 5 6 
#
# 1 0.005354 -0.001614 -0.002277 0.000000 0.000000 0.000000
# 2 -0.001614 0.006336 -0.000426 0.000000 0.000000 0.000000
# 3 -0.002277 -0.000426 0.005025 0.000000 0.000000 0.000000
# 4 0.000000 0.000000 0.000000 -0.029255 0.000000 0.000000
# 5 0.000000 0.000000 0.000000 0.000000 -0.007429 0.000000
# 6 0.000000 0.000000 0.000000 0.000000 0.000000 0.018170
#
#
# Mechanical properties :
#
#
# Convention : Reuss Voigt Hill
#
# Bulk Modulus (GPa) = 123.72938 133.76728 128.74833
# Shear Modulus (GPa) = 524.70831 7.44321 266.07576
#
# Velocity S-wave (km/s) = 13.58099 1.61753 9.67108
# Velocity P-wave (km/s) = 17.01227 7.10703 13.03701
#
# Compressibility (1/GPa) = 0.00808215
#
# Stress axis : x y z
#
# Youngs Moduli (GPa) = 186.76615 157.81773 198.99996
#
# Poissons Ratio (x) = 0.25470 0.45310
# Poissons Ratio (y) = 0.30142 0.08478
# Poissons Ratio (z) = 0.42525 0.06724
#
# Static dielectric constant tensor:
#      x y z
#    x 2.187820 0.000000 0.000000 
#    y 0.000000 2.663710 0.000000 
#    z 0.000000 0.000000 2.668100 
# 
# From -- ./inp_files/38145.got.cif
#   From: 2010.05.17/outbox.cif.g08.bks.cpg/sg68_20_cif.got.tgz:38145.got - 2010.06.03 18:57:09.
