data_PCOD9510595
_publ_section_title
;
Structure prediction by ZEFSAII (Michael W. Deem and Ramdas Pophale) SiO2 
 PCOD9510595
Probable space group: C C C A
;
_chemical_formula_sum "Si O2"
_cell_formula_units_Z 64
_cell_length_a 13.291207
_cell_length_b 23.399882
_cell_length_c 8.288904
_cell_angle_alpha 90.000000
_cell_angle_beta 90.000000
_cell_angle_gamma 90.000000
_cell_volume 2577.954209
_symmetry_space_group_name_H-M "C C C A"
_symmetry_group_IT_number 68
_space_group.IT_coordinate_system_code '2'
_symmetry_cell_setting 'orthorhombic'
loop_
_space_group_symop_operation_xyz
x,y,z
-x,1/2-y,z
x,1/2-y,1/2-z
-x,y,1/2-z
-x,-y,-z
x,1/2+y,-z
-x,1/2+y,1/2+z
x,-y,1/2+z
1/2+x,1/2+y,z
1/2-x,-y,z
1/2+x,-y,1/2-z
1/2-x,1/2+y,1/2-z
1/2-x,1/2-y,-z
1/2+x,y,-z
1/2-x,y,1/2+z
1/2+x,1/2-y,1/2+z
loop_
_atom_site_type_symbol
_atom_site_label
_atom_site_fract_x
_atom_site_fract_y
_atom_site_fract_z
Si Si1 0.380791 0.078613 0.779594
Si Si2 0.610413 0.149595 0.185519
Si Si3 0.807970 0.811112 0.831987
Si Si4 0.112849 0.474599 0.540594
O O1 0.500000 0.076439 0.750000
O O2 0.354845 0.143619 0.793302
O O3 0.339186 0.053145 0.614827
O O4 0.340417 0.034246 0.906601
O O5 0.500000 0.165309 0.250000
O O6 0.690666 0.171710 0.316891
O O7 0.609423 0.079856 0.161793
O O8 0.643325 0.177197 0.009834
O O9 0.822788 0.750000 0.750000
O O10 0.000000 0.500000 0.500000
#
# Coordination Sequence:
#
# PCOD9510595 Si02
#       4
#    16  16  16  16
#     4   9  19  37  65 100 140 185 232 298 367 431
#     4  11  25  47  75 108 148 194 245 314 381 441
#     4  11  26  47  71 106 147 194 256 305 364 463
#     4   9  18  37  65 102 142 181 237 298 366 446
#
# _framework density 24.825885
#
# number of rings (size 3 to 8) (size 9 to 14) (size 15 to 20)
#    0.000    2.000    0.000    3.000    0.000   10.000 
#    0.000   15.000    0.000    1.500    0.000    0.000 
#    0.000    0.000    0.000    0.000    0.000    0.000 
#
# Total GULP energy -178546.285345 kJ/mol
# GULP energy per Si atom -5579.571417 kJ/mol
# Density = 2.476938 g / cm^3
# Si number density = 24.825885 Si / 1000 Ang^3
#
#
#
# Elastic Constant Matrix: (Units=GPa)
#
#
# Indices 1 2 3 4 5 6 
#
# 1 140.2024 64.3388 60.4948 0.0000 0.0000 0.0000
# 2 64.3388 238.6052 73.7553 0.0000 0.0000 0.0000
# 3 60.4948 73.7553 109.9887 0.0000 0.0000 0.0000
# 4 0.0000 0.0000 0.0000 18.9962 0.0000 0.0000
# 5 0.0000 0.0000 0.0000 0.0000 37.1725 0.0000
# 6 0.0000 0.0000 0.0000 0.0000 0.0000 20.8943
#
#
#
# Elastic Compliance Matrix: (Units=1/GPa)
#
#
# Indices 1 2 3 4 5 6 
#
# 1 0.009621 -0.001209 -0.004481 0.000000 0.000000 0.000000
# 2 -0.001209 0.005439 -0.002982 0.000000 0.000000 0.000000
# 3 -0.004481 -0.002982 0.013556 0.000000 0.000000 0.000000
# 4 0.000000 0.000000 0.000000 0.052642 0.000000 0.000000
# 5 0.000000 0.000000 0.000000 0.000000 0.026902 0.000000
# 6 0.000000 0.000000 0.000000 0.000000 0.000000 0.047860
#
#
# Mechanical properties :
#
#
# Convention : Reuss Voigt Hill
#
# Bulk Modulus (GPa) = 88.71763 98.44156 93.57960
# Shear Modulus (GPa) = 28.22938 34.75975 31.49457
#
# Velocity S-wave (km/s) = 3.37574 3.74591 3.56563
# Velocity P-wave (km/s) = 7.14197 7.64513 7.39783
#
# Compressibility (1/GPa) = 0.01127172
#
# Stress axis : x y z
#
# Youngs Moduli (GPa) = 103.94190 183.86177 73.76829
#
# Poissons Ratio (x) = 0.22232 0.33053
# Poissons Ratio (y) = 0.12568 0.21998
# Poissons Ratio (z) = 0.46573 0.54829
#
# Static dielectric constant tensor:
#      x y z
#    x 3.075990 0.000000 0.000000 
#    y 0.000000 2.059020 0.000000 
#    z 0.000000 0.000000 2.058530 
# 
# From -- ./inp_files/4987.got.cif
#   From: 2010.05.17/outbox.cif.g08.bks.cpg/sg68_3_cif.got.tgz:4987.got - 2010.06.03 18:57:09.
