data_PCOD9510462
_publ_section_title
;
Structure prediction by ZEFSAII (Michael W. Deem and Ramdas Pophale) SiO2 
 PCOD9510462
Probable space group: C C C A
;
_chemical_formula_sum "Si O2"
_cell_formula_units_Z 108
_cell_length_a 13.656184
_cell_length_b 31.664831
_cell_length_c 11.750331
_cell_angle_alpha 90.000000
_cell_angle_beta 90.000000
_cell_angle_gamma 90.000000
_cell_volume 5081.087043
_symmetry_space_group_name_H-M "C C C A"
_symmetry_group_IT_number 68
_space_group.IT_coordinate_system_code '2'
_symmetry_cell_setting 'orthorhombic'
loop_
_space_group_symop_operation_xyz
x,y,z
-x,1/2-y,z
x,1/2-y,1/2-z
-x,y,1/2-z
-x,-y,-z
x,1/2+y,-z
-x,1/2+y,1/2+z
x,-y,1/2+z
1/2+x,1/2+y,z
1/2-x,-y,z
1/2+x,-y,1/2-z
1/2-x,1/2+y,1/2-z
1/2-x,1/2-y,-z
1/2+x,y,-z
1/2-x,y,1/2+z
1/2+x,1/2-y,1/2+z
loop_
_atom_site_type_symbol
_atom_site_label
_atom_site_fract_x
_atom_site_fract_y
_atom_site_fract_z
Si Si1 0.733851 0.571290 0.060077
Si Si2 0.410573 0.624473 0.592342
Si Si3 0.609132 0.793829 0.200555
Si Si4 0.770071 0.356289 0.710949
Si Si5 0.500000 0.446037 0.250000
Si Si6 0.500000 0.250000 0.250000
Si Si7 0.398556 0.511494 0.937656
Si Si8 0.915195 0.688763 0.058857
O O1 0.752782 0.594830 0.179666
O O2 0.666015 0.530317 0.064370
O O3 0.836355 0.551588 0.013962
O O4 0.671741 0.605824 0.990373
O O5 0.353005 0.647435 0.693363
O O6 0.463026 0.584433 0.650408
O O7 0.493703 0.655970 0.546637
O O8 0.650451 0.750000 0.250000
O O9 0.500000 0.798610 0.250000
O O10 0.675519 0.832106 0.244489
O O11 0.602780 0.791242 0.064221
O O12 0.818780 0.336023 0.599118
O O13 0.579992 0.475352 0.192108
O O14 0.439506 0.221091 0.161068
O O15 0.500000 0.500000 0.000000
#
# Coordination Sequence:
#
# PCOD9510462 Si02
#       8
#    16  16  16  16   8   4  16  16
#     4  11  25  42  70 101 139 187 239 291 358 430
#     4  12  22  45  73 101 139 178 237 294 351 433
#     4  11  27  49  68 103 150 187 233 301 367 422
#     4  12  24  45  70 107 137 186 239 292 362 427
#     4  12  21  44  70  89 144 178 225 298 346 413
#     4  12  22  44  78 108 134 188 244 282 380 438
#     4  11  24  44  66 101 136 185 236 290 358 415
#     4  12  25  45  76 106 142 185 240 296 360 441
#
# _framework density 21.255293999999999
#
# number of rings (size 3 to 8) (size 9 to 14) (size 15 to 20)
#    0.000    0.444    5.926    2.667    1.037    1.778 
#    6.667    0.000    0.000    0.000    0.000    0.000 
#    0.000    0.000    0.000    0.000    0.000    0.000 
#
# Total GULP energy -301674.284286 kJ/mol
# GULP energy per Si atom -5586.560820 kJ/mol
# Density = 2.120692 g / cm^3
# Si number density = 21.255294 Si / 1000 Ang^3
#
#
#
# Elastic Constant Matrix: (Units=GPa)
#
#
# Indices 1 2 3 4 5 6 
#
# 1 92.7860 46.8501 33.9227 0.0000 0.0000 0.0000
# 2 46.8501 105.3210 45.6247 0.0000 0.0000 0.0000
# 3 33.9227 45.6247 102.5358 0.0000 0.0000 0.0000
# 4 0.0000 0.0000 0.0000 30.4513 0.0000 0.0000
# 5 0.0000 0.0000 0.0000 0.0000 25.7035 0.0000
# 6 0.0000 0.0000 0.0000 0.0000 0.0000 24.4196
#
#
#
# Elastic Compliance Matrix: (Units=1/GPa)
#
#
# Indices 1 2 3 4 5 6 
#
# 1 0.014347 -0.005359 -0.002362 0.000000 0.000000 0.000000
# 2 -0.005359 0.013764 -0.004351 0.000000 0.000000 0.000000
# 3 -0.002362 -0.004351 0.012470 0.000000 0.000000 0.000000
# 4 0.000000 0.000000 0.000000 0.032839 0.000000 0.000000
# 5 0.000000 0.000000 0.000000 0.000000 0.038905 0.000000
# 6 0.000000 0.000000 0.000000 0.000000 0.000000 0.040951
#
#
# Mechanical properties :
#
#
# Convention : Reuss Voigt Hill
#
# Bulk Modulus (GPa) = 60.84054 61.49308 61.16681
# Shear Modulus (GPa) = 27.33748 27.73122 27.53435
#
# Velocity S-wave (km/s) = 3.59018 3.61594 3.60309
# Velocity P-wave (km/s) = 6.77287 6.81373 6.79333
#
# Compressibility (1/GPa) = 0.01643641
#
# Stress axis : x y z
#
# Youngs Moduli (GPa) = 69.70199 72.65585 80.19011
#
# Poissons Ratio (x) = 0.38934 0.18941
# Poissons Ratio (y) = 0.37351 0.34894
# Poissons Ratio (z) = 0.16464 0.31616
#
# Static dielectric constant tensor:
#      x y z
#    x 1.812150 0.000000 0.000000 
#    y 0.000000 1.793300 0.000000 
#    z 0.000000 0.000000 1.792470 
# 
# From -- ./inp_files/13624.got.cif
#   From: 2010.05.17/outbox.cif.g08.bks.cpg/sg68_7_cif.got.tgz:13624.got - 2010.06.03 18:57:09.
