data_PCOD9510386
_publ_section_title
;
Structure prediction by ZEFSAII (Michael W. Deem and Ramdas Pophale) SiO2 
 PCOD9510386
Probable space group: C C C A
;
_chemical_formula_sum "Si O2"
_cell_formula_units_Z 88
_cell_length_a 26.526861
_cell_length_b 14.731150
_cell_length_c 9.987418
_cell_angle_alpha 90.000000
_cell_angle_beta 90.000000
_cell_angle_gamma 90.000000
_cell_volume 3902.795001
_symmetry_space_group_name_H-M "C C C A"
_symmetry_group_IT_number 68
_space_group.IT_coordinate_system_code '2'
_symmetry_cell_setting 'orthorhombic'
loop_
_space_group_symop_operation_xyz
x,y,z
-x,1/2-y,z
x,1/2-y,1/2-z
-x,y,1/2-z
-x,-y,-z
x,1/2+y,-z
-x,1/2+y,1/2+z
x,-y,1/2+z
1/2+x,1/2+y,z
1/2-x,-y,z
1/2+x,-y,1/2-z
1/2-x,1/2+y,1/2-z
1/2-x,1/2-y,-z
1/2+x,y,-z
1/2-x,y,1/2+z
1/2+x,1/2-y,1/2+z
loop_
_atom_site_type_symbol
_atom_site_label
_atom_site_fract_x
_atom_site_fract_y
_atom_site_fract_z
Si Si1 0.500000 0.602034 0.250000
Si Si2 0.500000 0.750000 0.017456
Si Si3 0.145401 0.559792 0.545838
Si Si4 0.250000 0.000000 0.440417
Si Si5 0.105813 0.938468 0.675312
Si Si6 0.387727 0.734176 0.500443
Si Si7 0.718810 0.802825 0.616566
O O1 0.494076 0.665158 0.119037
O O2 0.449225 0.546898 0.263972
O O3 0.445614 0.762646 0.946518
O O4 0.199802 0.533646 0.485343
O O5 0.143837 0.539585 0.704265
O O6 0.109513 0.497955 0.457184
O O7 0.129409 0.663942 0.533618
O O8 0.265084 0.093004 0.368588
O O9 0.110868 0.833836 0.627118
O O10 0.341350 0.698501 0.589493
O O11 0.730665 0.750000 0.750000
O O12 0.750000 0.750000 0.500000
#
# Coordination Sequence:
#
# PCOD9510386 Si02
#       7
#     8   8  16   8  16  16  16
#     4   9  18  40  70 100 141 178 254 287 358 436
#     4   9  18  40  75 102 134 193 239 296 360 445
#     4  12  26  42  73 102 147 187 243 299 370 435
#     4  12  28  48  72 108 146 194 246 302 366 446
#     4  11  25  44  70 108 141 193 240 307 359 441
#     4  11  23  47  73 104 145 187 248 298 364 442
#     4  12  29  49  77 110 151 198 247 305 371 437
#
# _framework density 22.547944000000001
#
# number of rings (size 3 to 8) (size 9 to 14) (size 15 to 20)
#    0.000    0.909    5.455    0.545    5.091    2.182 
#    0.000    0.455    0.000    0.000    0.000    0.000 
#    0.000    0.000    0.000    0.000    0.000    0.000 
#
# Total GULP energy -245684.401025 kJ/mol
# GULP energy per Si atom -5583.736387 kJ/mol
# Density = 2.249662 g / cm^3
# Si number density = 22.547944 Si / 1000 Ang^3
#
#
#
# Elastic Constant Matrix: (Units=GPa)
#
#
# Indices 1 2 3 4 5 6 
#
# 1 147.4016 47.0340 39.1303 0.0000 0.0000 0.0000
# 2 47.0340 144.6514 50.6019 0.0000 0.0000 0.0000
# 3 39.1303 50.6019 81.5460 0.0000 0.0000 0.0000
# 4 0.0000 0.0000 0.0000 3.3531 0.0000 0.0000
# 5 0.0000 0.0000 0.0000 0.0000 -4.9805 0.0000
# 6 0.0000 0.0000 0.0000 0.0000 0.0000 26.7473
#
#
#
# Elastic Compliance Matrix: (Units=1/GPa)
#
#
# Indices 1 2 3 4 5 6 
#
# 1 0.008061 -0.001619 -0.002863 0.000000 0.000000 0.000000
# 2 -0.001619 0.009155 -0.004904 0.000000 0.000000 0.000000
# 3 -0.002863 -0.004904 0.016680 0.000000 0.000000 0.000000
# 4 0.000000 0.000000 0.000000 0.298230 0.000000 0.000000
# 5 0.000000 0.000000 0.000000 0.000000 -0.200783 0.000000
# 6 0.000000 0.000000 0.000000 0.000000 0.000000 0.037387
#
#
# Mechanical properties :
#
#
# Convention : Reuss Voigt Hill
#
# Bulk Modulus (GPa) = 66.12466 71.90351 69.01408
# Shear Modulus (GPa) = 25.96801 20.81283 23.39042
#
# Velocity S-wave (km/s) = 3.39732 3.04147 3.22431
# Velocity P-wave (km/s) = 6.69171 6.65525 6.67351
#
# Compressibility (1/GPa) = 0.01512295
#
# Stress axis : x y z
#
# Youngs Moduli (GPa) = 124.05371 109.22663 59.95190
#
# Poissons Ratio (x) = 0.17689 0.17165
# Poissons Ratio (y) = 0.20090 0.29401
# Poissons Ratio (z) = 0.35519 0.53565
#
# Static dielectric constant tensor:
#      x y z
#    x 1.935510 0.000000 0.000000 
#    y 0.000000 1.808410 0.000000 
#    z 0.000000 0.000000 1.820290 
# 
# From -- ./inp_files/17107.got.cif
#   From: 2010.05.17/outbox.cif.g08.bks.cpg/sg68_9_cif.got.tgz:17107.got - 2010.06.03 18:57:09.
