data_PCOD9510636
_publ_section_title
;
Structure prediction by ZEFSAII (Michael W. Deem and Ramdas Pophale) SiO2 
 PCOD9510636
Probable space group: C C C A
;
_chemical_formula_sum "Si O2"
_cell_formula_units_Z 56
_cell_length_a 10.167455
_cell_length_b 25.605906
_cell_length_c 10.026680
_cell_angle_alpha 90.000000
_cell_angle_beta 90.000000
_cell_angle_gamma 90.000000
_cell_volume 2610.415025
_symmetry_space_group_name_H-M "C C C A"
_symmetry_group_IT_number 68
_space_group.IT_coordinate_system_code '2'
_symmetry_cell_setting 'orthorhombic'
loop_
_space_group_symop_operation_xyz
x,y,z
-x,1/2-y,z
x,1/2-y,1/2-z
-x,y,1/2-z
-x,-y,-z
x,1/2+y,-z
-x,1/2+y,1/2+z
x,-y,1/2+z
1/2+x,1/2+y,z
1/2-x,-y,z
1/2+x,-y,1/2-z
1/2-x,1/2+y,1/2-z
1/2-x,1/2-y,-z
1/2+x,y,-z
1/2-x,y,1/2+z
1/2+x,1/2-y,1/2+z
loop_
_atom_site_type_symbol
_atom_site_label
_atom_site_fract_x
_atom_site_fract_y
_atom_site_fract_z
Si Si1 0.129639 0.463946 0.027105
Si Si2 0.500000 0.078951 0.750000
Si Si3 0.299458 0.367388 0.931685
Si Si4 0.855170 0.189079 0.708596
O O1 0.250000 0.500000 0.992639
O O2 0.117129 0.453570 0.185119
O O3 0.183539 0.409018 0.965774
O O4 0.000000 0.500000 0.000000
O O5 0.564065 0.107402 0.878179
O O6 0.251669 0.336569 0.803073
O O7 0.325613 0.329378 0.057746
O O8 0.852930 0.250000 0.750000
O O9 0.000000 0.169606 0.750000
#
# Coordination Sequence:
#
# PCOD9510636 Si02
#       4
#    16   8  16  16
#     4  12  27  45  70 106 146 202 251 309 374 455
#     4  12  26  44  69 106 144 202 247 308 386 442
#     4  12  25  49  74 107 151 193 253 317 383 454
#     4  11  26  47  76 107 145 194 250 313 387 452
#
# _framework density 21.452528000000001
#
# number of rings (size 3 to 8) (size 9 to 14) (size 15 to 20)
#    0.000    0.286    5.714    2.571    4.000    0.000 
#    0.000    0.000    0.000    0.000    0.000    0.000 
#    0.000    0.000    0.000    0.000    0.000    0.000 
#
# Total GULP energy -155903.252939 kJ/mol
# GULP energy per Si atom -5567.973319 kJ/mol
# Density = 2.140370 g / cm^3
# Si number density = 21.452528 Si / 1000 Ang^3
#
#
#
# Elastic Constant Matrix: (Units=GPa)
#
#
# Indices 1 2 3 4 5 6 
#
# 1 111.4217 20.3522 14.5895 0.0000 0.0000 0.0000
# 2 20.3522 71.8771 32.1740 0.0000 0.0000 0.0000
# 3 14.5895 32.1740 139.9009 0.0000 0.0000 0.0000
# 4 0.0000 0.0000 0.0000 29.4465 0.0000 0.0000
# 5 0.0000 0.0000 0.0000 0.0000 52.3466 0.0000
# 6 0.0000 0.0000 0.0000 0.0000 0.0000 14.0155
#
#
#
# Elastic Compliance Matrix: (Units=1/GPa)
#
#
# Indices 1 2 3 4 5 6 
#
# 1 0.009486 -0.002501 -0.000414 0.000000 0.000000 0.000000
# 2 -0.002501 0.016168 -0.003458 0.000000 0.000000 0.000000
# 3 -0.000414 -0.003458 0.007986 0.000000 0.000000 0.000000
# 4 0.000000 0.000000 0.000000 0.033960 0.000000 0.000000
# 5 0.000000 0.000000 0.000000 0.000000 0.019103 0.000000
# 6 0.000000 0.000000 0.000000 0.000000 0.000000 0.071349
#
#
# Mechanical properties :
#
#
# Convention : Reuss Voigt Hill
#
# Bulk Modulus (GPa) = 47.85623 50.82567 49.34095
# Shear Modulus (GPa) = 28.12729 36.23399 32.18064
#
# Velocity S-wave (km/s) = 3.62490 4.11424 3.87730
# Velocity P-wave (km/s) = 6.31476 6.80536 6.56465
#
# Compressibility (1/GPa) = 0.02089592
#
# Stress axis : x y z
#
# Youngs Moduli (GPa) = 105.41967 61.84907 125.21485
#
# Poissons Ratio (x) = 0.15466 0.05186
# Poissons Ratio (y) = 0.26361 0.43294
# Poissons Ratio (z) = 0.04366 0.21385
#
# Static dielectric constant tensor:
#      x y z
#    x 1.971890 0.000000 0.000000 
#    y 0.000000 2.088630 0.000000 
#    z 0.000000 0.000000 1.747720 
# 
# From -- ./inp_files/3890.got.cif
#   From: 2010.05.17/outbox.cif.g08.bks.cpg/sg68_2_cif.got.tgz:3890.got - 2010.06.03 18:57:09.
