data_PCOD9510175
_publ_section_title
;
Structure prediction by ZEFSAII (Michael W. Deem and Ramdas Pophale) SiO2 
 PCOD9510175
Probable space group: C C C A
;
_chemical_formula_sum "Si O2"
_cell_formula_units_Z 96
_cell_length_a 22.063399
_cell_length_b 24.711555
_cell_length_c 7.947627
_cell_angle_alpha 90.000000
_cell_angle_beta 90.000000
_cell_angle_gamma 90.000000
_cell_volume 4333.212329
_symmetry_space_group_name_H-M "C C C A"
_symmetry_group_IT_number 68
_space_group.IT_coordinate_system_code '2'
_symmetry_cell_setting 'orthorhombic'
loop_
_space_group_symop_operation_xyz
x,y,z
-x,1/2-y,z
x,1/2-y,1/2-z
-x,y,1/2-z
-x,-y,-z
x,1/2+y,-z
-x,1/2+y,1/2+z
x,-y,1/2+z
1/2+x,1/2+y,z
1/2-x,-y,z
1/2+x,-y,1/2-z
1/2-x,1/2+y,1/2-z
1/2-x,1/2-y,-z
1/2+x,y,-z
1/2-x,y,1/2+z
1/2+x,1/2-y,1/2+z
loop_
_atom_site_type_symbol
_atom_site_label
_atom_site_fract_x
_atom_site_fract_y
_atom_site_fract_z
Si Si1 0.935339 0.971914 0.160268
Si Si2 0.933841 0.687456 0.293610
Si Si3 0.113486 0.927074 0.692982
Si Si4 0.658655 0.604217 0.682084
Si Si5 0.570335 0.810155 0.306743
Si Si6 0.233893 0.062404 0.988819
O O1 0.889881 0.942452 0.287393
O O2 0.000000 0.969235 0.250000
O O3 0.912044 0.033432 0.163981
O O4 0.925652 0.943188 0.978263
O O5 0.935143 0.750000 0.250000
O O6 0.880243 0.658307 0.194001
O O7 0.925382 0.685047 0.492461
O O8 0.000000 0.663425 0.250000
O O9 0.103690 0.865113 0.748890
O O10 0.182821 0.938462 0.637032
O O11 0.704225 0.592441 0.533607
O O12 0.701270 0.596287 0.844742
O O13 0.591708 0.750000 0.250000
O O14 0.500000 0.813642 0.250000
O O15 0.250000 0.000000 0.947865
#
# Coordination Sequence:
#
# PCOD9510175 Si02
#       6
#    16  16  16  16  16  16
#     4  11  22  40  63  98 137 169 218 281 349 404
#     4  11  23  47  70  97 132 175 227 280 340 403
#     4  11  24  41  65  97 138 172 225 277 335 413
#     4  11  24  41  65  94 129 172 225 273 330 400
#     4  11  23  44  66  98 137 177 223 277 337 400
#     4  11  22  42  64  91 132 177 220 266 332 406
#
# _framework density 22.154464000000001
#
# number of rings (size 3 to 8) (size 9 to 14) (size 15 to 20)
#    0.000    1.000    5.000    4.000    2.333    0.000 
#    9.000    1.667    0.000    0.000    0.000    0.000 
#    0.000    0.000    0.000    0.000    0.000    0.000 
#
# Total GULP energy -268435.160518 kJ/mol
# GULP energy per Si atom -5592.399177 kJ/mol
# Density = 2.210404 g / cm^3
# Si number density = 22.154464 Si / 1000 Ang^3
#
#
#
# Elastic Constant Matrix: (Units=GPa)
#
#
# Indices 1 2 3 4 5 6 
#
# 1 135.5626 41.2665 16.4218 0.0000 0.0000 0.0000
# 2 41.2665 159.1443 13.3307 0.0000 0.0000 0.0000
# 3 16.4218 13.3307 62.4756 0.0000 0.0000 0.0000
# 4 0.0000 0.0000 0.0000 -351.6023 0.0000 0.0000
# 5 0.0000 0.0000 0.0000 0.0000 34.3996 0.0000
# 6 0.0000 0.0000 0.0000 0.0000 0.0000 46.0399
#
#
#
# Elastic Compliance Matrix: (Units=1/GPa)
#
#
# Indices 1 2 3 4 5 6 
#
# 1 0.008188 -0.001978 -0.001730 0.000000 0.000000 0.000000
# 2 -0.001978 0.006876 -0.000947 0.000000 0.000000 0.000000
# 3 -0.001730 -0.000947 0.016663 0.000000 0.000000 0.000000
# 4 0.000000 0.000000 0.000000 -0.002844 0.000000 0.000000
# 5 0.000000 0.000000 0.000000 0.000000 0.029070 0.000000
# 6 0.000000 0.000000 0.000000 0.000000 0.000000 0.021720
#
#
# Mechanical properties :
#
#
# Convention : Reuss Voigt Hill
#
# Bulk Modulus (GPa) = 44.61075 55.46895 50.03985
# Shear Modulus (GPa) = 51.83639 -35.15499 8.34070
#
# Velocity S-wave (km/s) = 4.84237 -3.98780 1.94241
# Velocity P-wave (km/s) = 7.17249 1.97187 5.25989
#
# Compressibility (1/GPa) = 0.02241612
#
# Stress axis : x y z
#
# Youngs Moduli (GPa) = 122.12252 145.43470 60.01270
#
# Poissons Ratio (x) = 0.28772 0.10384
# Poissons Ratio (y) = 0.24160 0.05684
# Poissons Ratio (z) = 0.21130 0.13775
#
# Static dielectric constant tensor:
#      x y z
#    x 1.892070 0.000000 0.000000 
#    y 0.000000 1.838120 0.000000 
#    z 0.000000 0.000000 1.971580 
# 
# From -- ./inp_files/7297.got.cif
#   From: 2010.05.17/outbox.cif.g08.bks.cpg/sg68_4_cif.got.tgz:7297.got - 2010.06.03 18:57:09.
