data_PCOD9510684
_publ_section_title
;
Structure prediction by ZEFSAII (Michael W. Deem and Ramdas Pophale) SiO2 
 PCOD9510684
Probable space group: C C C A
;
_chemical_formula_sum "Si O2"
_cell_formula_units_Z 88
_cell_length_a 14.632221
_cell_length_b 28.562260
_cell_length_c 9.136439
_cell_angle_alpha 90.000000
_cell_angle_beta 90.000000
_cell_angle_gamma 90.000000
_cell_volume 3818.385561
_symmetry_space_group_name_H-M "C C C A"
_symmetry_group_IT_number 68
_space_group.IT_coordinate_system_code '2'
_symmetry_cell_setting 'orthorhombic'
loop_
_space_group_symop_operation_xyz
x,y,z
-x,1/2-y,z
x,1/2-y,1/2-z
-x,y,1/2-z
-x,-y,-z
x,1/2+y,-z
-x,1/2+y,1/2+z
x,-y,1/2+z
1/2+x,1/2+y,z
1/2-x,-y,z
1/2+x,-y,1/2-z
1/2-x,1/2+y,1/2-z
1/2-x,1/2-y,-z
1/2+x,y,-z
1/2-x,y,1/2+z
1/2+x,1/2-y,1/2+z
loop_
_atom_site_type_symbol
_atom_site_label
_atom_site_fract_x
_atom_site_fract_y
_atom_site_fract_z
Si Si1 0.841185 0.852646 0.766365
Si Si2 0.807303 0.046008 0.287069
Si Si3 0.500000 0.750000 0.492890
Si Si4 0.989544 0.648784 0.990765
Si Si5 0.402810 0.991886 0.925207
Si Si6 0.500000 0.078697 0.250000
Si Si7 0.841478 0.250000 0.250000
O O1 0.780158 0.899475 0.781144
O O2 0.916537 0.856440 0.897103
O O3 0.793913 0.801044 0.762494
O O4 0.905281 0.852649 0.622247
O O5 0.841124 0.031417 0.448820
O O6 0.750000 0.000000 0.241890
O O7 0.880533 0.040495 0.155776
O O8 0.504334 0.699796 0.566544
O O9 0.411027 0.749791 0.387326
O O10 0.979527 0.609609 0.110660
O O11 0.417281 0.954762 0.795286
O O12 0.500000 0.000000 0.000000
#
# Coordination Sequence:
#
# PCOD9510684 Si02
#       7
#    16  16   8  16  16   8   8
#     4   9  17  32  56  81 117 157 202 252 291 361
#     4  12  25  40  59  89 124 160 198 260 315 359
#     4   7  12  25  42  78 122 148 188 252 298 342
#     4   9  17  28  52  83 117 158 200 245 301 350
#     4  12  24  41  60  84 116 160 211 247 298 375
#     4  12  20  31  54  82 110 157 202 238 292 362
#     4   7  12  26  50  82 108 150 205 244 288 348
#
# _framework density 23.046389999999999
#
# number of rings (size 3 to 8) (size 9 to 14) (size 15 to 20)
#    0.000    2.000    3.636    3.818    2.545    0.364 
#    0.000    0.000    0.000    0.000    0.000    7.636 
#    0.000    0.000    0.000    0.000    0.000    0.000 
#
# Total GULP energy -245222.003457 kJ/mol
# GULP energy per Si atom -5573.227351 kJ/mol
# Density = 2.299394 g / cm^3
# Si number density = 23.046390 Si / 1000 Ang^3
#
#
#
# Elastic Constant Matrix: (Units=GPa)
#
#
# Indices 1 2 3 4 5 6 
#
# 1 10.4149 19.6579 -2.8503 0.0000 0.0000 0.0000
# 2 19.6579 220.7045 38.4675 0.0000 0.0000 0.0000
# 3 -2.8503 38.4675 83.9015 0.0000 0.0000 0.0000
# 4 0.0000 0.0000 0.0000 26.3294 0.0000 0.0000
# 5 0.0000 0.0000 0.0000 0.0000 -2.7178 0.0000
# 6 0.0000 0.0000 0.0000 0.0000 0.0000 25.8749
#
#
#
# Elastic Compliance Matrix: (Units=1/GPa)
#
#
# Indices 1 2 3 4 5 6 
#
# 1 0.122644 -0.012662 0.009972 0.000000 0.000000 0.000000
# 2 -0.012662 0.006232 -0.003287 0.000000 0.000000 0.000000
# 3 0.009972 -0.003287 0.013765 0.000000 0.000000 0.000000
# 4 0.000000 0.000000 0.000000 0.037980 0.000000 0.000000
# 5 0.000000 0.000000 0.000000 0.000000 -0.367945 0.000000
# 6 0.000000 0.000000 0.000000 0.000000 0.000000 0.038647
#
#
# Mechanical properties :
#
#
# Convention : Reuss Voigt Hill
#
# Bulk Modulus (GPa) = 7.65197 47.28569 27.46883
# Shear Modulus (GPa) = -53.67064 27.21369 -13.22848
#
# Velocity S-wave (km/s) = -4.83101 3.44004 -2.39842
# Velocity P-wave (km/s) = 5.27169 6.02832 2.06759
#
# Compressibility (1/GPa) = 0.13068537
#
# Stress axis : x y z
#
# Youngs Moduli (GPa) = 8.15370 160.47070 72.64979
#
# Poissons Ratio (x) = 2.03184 -0.72444
# Poissons Ratio (y) = 0.10324 0.23882
# Poissons Ratio (z) = -0.08131 0.52751
#
# Static dielectric constant tensor:
#      x y z
#    x 0.154780 0.000000 0.000000 
#    y 0.000000 1.944110 0.000000 
#    z 0.000000 0.000000 1.951410 
# 
# From -- ./inp_files/6439.got.cif
#   From: 2010.05.17/outbox.cif.g08.bks.cpg/sg68_4_cif.got.tgz:6439.got - 2010.06.03 18:57:09.
