data_PCOD9510318
_publ_section_title
;
Structure prediction by ZEFSAII (Michael W. Deem and Ramdas Pophale) SiO2 
 PCOD9510318
Probable space group: C C C A
;
_chemical_formula_sum "Si O2"
_cell_formula_units_Z 72
_cell_length_a 7.559698
_cell_length_b 27.369607
_cell_length_c 16.245083
_cell_angle_alpha 90.000000
_cell_angle_beta 90.000000
_cell_angle_gamma 90.000000
_cell_volume 3361.204547
_symmetry_space_group_name_H-M "C C C A"
_symmetry_group_IT_number 68
_space_group.IT_coordinate_system_code '2'
_symmetry_cell_setting 'orthorhombic'
loop_
_space_group_symop_operation_xyz
x,y,z
-x,1/2-y,z
x,1/2-y,1/2-z
-x,y,1/2-z
-x,-y,-z
x,1/2+y,-z
-x,1/2+y,1/2+z
x,-y,1/2+z
1/2+x,1/2+y,z
1/2-x,-y,z
1/2+x,-y,1/2-z
1/2-x,1/2+y,1/2-z
1/2-x,1/2-y,-z
1/2+x,y,-z
1/2-x,y,1/2+z
1/2+x,1/2-y,1/2+z
loop_
_atom_site_type_symbol
_atom_site_label
_atom_site_fract_x
_atom_site_fract_y
_atom_site_fract_z
Si Si1 0.832796 0.829802 0.096622
Si Si2 0.430187 0.360275 0.914877
Si Si3 0.172907 0.053224 0.191272
Si Si4 0.294032 0.764841 0.157618
Si Si5 0.500000 0.381947 0.250000
O O1 0.633438 0.849995 0.108085
O O2 0.813277 0.771092 0.098267
O O3 0.946154 0.848816 0.172673
O O4 0.906600 0.849021 0.010737
O O5 0.380189 0.414574 0.887868
O O6 0.306159 0.321367 0.866271
O O7 0.331128 0.083675 0.233249
O O8 0.000000 0.050121 0.250000
O O9 0.250000 0.000000 0.172139
O O10 0.500000 0.750000 0.151534
O O11 0.238267 0.750000 0.250000
#
# Coordination Sequence:
#
# PCOD9510318 Si02
#       5
#    16  16  16  16   8
#     4  11  23  42  67 106 146 187 234 291 358 432
#     4  11  23  42  68 102 147 189 237 299 354 420
#     4  12  25  47  74 103 138 184 243 302 360 427
#     4   9  19  36  65 100 143 193 236 281 347 422
#     4  12  24  44  75 102 136 188 237 290 368 424
#
# _framework density 21.420891999999998
#
# number of rings (size 3 to 8) (size 9 to 14) (size 15 to 20)
#    0.000    1.111    3.333    3.333    3.111    0.000 
#    0.000   15.000    0.000    0.000    0.000    0.000 
#    0.000    0.000    0.000    0.000    0.000    0.000 
#
# Total GULP energy -201443.405280 kJ/mol
# GULP energy per Si atom -5595.650147 kJ/mol
# Density = 2.137214 g / cm^3
# Si number density = 21.420892 Si / 1000 Ang^3
#
#
#
# Elastic Constant Matrix: (Units=GPa)
#
#
# Indices 1 2 3 4 5 6 
#
# 1 154.7504 61.9004 53.4085 0.0000 0.0000 0.0000
# 2 61.9004 146.8237 68.5380 0.0000 0.0000 0.0000
# 3 53.4085 68.5380 146.1892 0.0000 0.0000 0.0000
# 4 0.0000 0.0000 0.0000 24.2084 0.0000 0.0000
# 5 0.0000 0.0000 0.0000 0.0000 25.4795 0.0000
# 6 0.0000 0.0000 0.0000 0.0000 0.0000 1.4258
#
#
#
# Elastic Compliance Matrix: (Units=1/GPa)
#
#
# Indices 1 2 3 4 5 6 
#
# 1 0.008104 -0.002605 -0.001740 0.000000 0.000000 0.000000
# 2 -0.002605 0.009556 -0.003529 0.000000 0.000000 0.000000
# 3 -0.001740 -0.003529 0.009130 0.000000 0.000000 0.000000
# 4 0.000000 0.000000 0.000000 0.041308 0.000000 0.000000
# 5 0.000000 0.000000 0.000000 0.000000 0.039247 0.000000
# 6 0.000000 0.000000 0.000000 0.000000 0.000000 0.701364
#
#
# Mechanical properties :
#
#
# Convention : Reuss Voigt Hill
#
# Bulk Modulus (GPa) = 90.53961 90.60633 90.57297
# Shear Modulus (GPa) = 6.03764 27.81716 16.92740
#
# Velocity S-wave (km/s) = 1.68068 3.60752 2.81415
# Velocity P-wave (km/s) = 6.79154 7.72931 7.27555
#
# Compressibility (1/GPa) = 0.01104489
#
# Stress axis : x y z
#
# Youngs Moduli (GPa) = 123.39146 104.64414 109.52476
#
# Poissons Ratio (x) = 0.27256 0.19054
# Poissons Ratio (y) = 0.32139 0.38648
# Poissons Ratio (z) = 0.21466 0.36925
#
# Static dielectric constant tensor:
#      x y z
#    x 1.800150 0.000000 0.000000 
#    y 0.000000 1.754000 0.000000 
#    z 0.000000 0.000000 1.761260 
# 
# From -- ./inp_files/19472.got.cif
#   From: 2010.05.17/outbox.cif.g08.bks.cpg/sg68_10_cif.got.tgz:19472.got - 2010.06.03 18:57:09.
