data_PCOD9510716
_publ_section_title
;
Structure prediction by ZEFSAII (Michael W. Deem and Ramdas Pophale) SiO2 
 PCOD9510716
Probable space group: C C C A
;
_chemical_formula_sum "Si O2"
_cell_formula_units_Z 72
_cell_length_a 21.723159
_cell_length_b 4.880520
_cell_length_c 29.629499
_cell_angle_alpha 90.000000
_cell_angle_beta 90.000000
_cell_angle_gamma 90.000000
_cell_volume 3141.328727
_symmetry_space_group_name_H-M "C C C A"
_symmetry_group_IT_number 68
_space_group.IT_coordinate_system_code '2'
_symmetry_cell_setting 'orthorhombic'
loop_
_space_group_symop_operation_xyz
x,y,z
-x,1/2-y,z
x,1/2-y,1/2-z
-x,y,1/2-z
-x,-y,-z
x,1/2+y,-z
-x,1/2+y,1/2+z
x,-y,1/2+z
1/2+x,1/2+y,z
1/2-x,-y,z
1/2+x,-y,1/2-z
1/2-x,1/2+y,1/2-z
1/2-x,1/2-y,-z
1/2+x,y,-z
1/2-x,y,1/2+z
1/2+x,1/2-y,1/2+z
loop_
_atom_site_type_symbol
_atom_site_label
_atom_site_fract_x
_atom_site_fract_y
_atom_site_fract_z
Si Si1 0.373101 0.056969 0.834911
Si Si2 0.632418 0.333661 0.471131
Si Si3 0.821626 0.545703 0.117452
Si Si4 0.500000 0.750000 0.571383
Si Si5 0.794021 0.750000 0.750000
Si Si6 0.500000 0.750000 0.137644
O O1 0.351431 0.247693 0.876727
O O2 0.335925 0.152622 0.791364
O O3 0.445051 0.124716 0.832725
O O4 0.354943 0.747187 0.846651
O O5 0.645512 0.641916 0.485705
O O6 0.668737 0.199741 0.429734
O O7 0.560109 0.316989 0.457827
O O8 0.750000 0.500000 0.126563
O O9 0.517608 0.497296 0.603870
O O10 0.750000 0.500000 0.736402
#
# Coordination Sequence:
#
# PCOD9510716 Si02
#       6
#    16  16  16   8   8   8
#     4  12  24  45  70 101 134 174 226 273 342 405
#     4  12  24  40  64  97 129 176 230 284 340 397
#     4  12  25  44  68  94 135 184 226 275 339 409
#     4  12  22  43  64  97 131 176 227 279 342 405
#     4  12  26  45  72 105 138 172 220 274 320 404
#     4  12  22  42  72  96 133 174 221 280 336 412
#
# _framework density 22.920237
#
# number of rings (size 3 to 8) (size 9 to 14) (size 15 to 20)
#    0.000    0.000    4.444    7.333    0.000    1.333 
#    0.000    0.000    0.000    5.333    0.000    0.000 
#    0.000    0.000    0.000    0.000    0.000    0.000 
#
# Total GULP energy -201672.996922 kJ/mol
# GULP energy per Si atom -5602.027692 kJ/mol
# Density = 2.286807 g / cm^3
# Si number density = 22.920237 Si / 1000 Ang^3
#
#
#
# Elastic Constant Matrix: (Units=GPa)
#
#
# Indices 1 2 3 4 5 6 
#
# 1 103.9531 4.8745 6.0626 0.0000 0.0000 0.0000
# 2 4.8745 102.6171 2.2497 0.0000 0.0000 0.0000
# 3 6.0626 2.2497 94.8233 0.0000 0.0000 0.0000
# 4 0.0000 0.0000 0.0000 28.7439 0.0000 0.0000
# 5 0.0000 0.0000 0.0000 0.0000 22.8554 0.0000
# 6 0.0000 0.0000 0.0000 0.0000 0.0000 32.7251
#
#
#
# Elastic Compliance Matrix: (Units=1/GPa)
#
#
# Indices 1 2 3 4 5 6 
#
# 1 0.009676 -0.000446 -0.000608 0.000000 0.000000 0.000000
# 2 -0.000446 0.009771 -0.000203 0.000000 0.000000 0.000000
# 3 -0.000608 -0.000203 0.010590 0.000000 0.000000 0.000000
# 4 0.000000 0.000000 0.000000 0.034790 0.000000 0.000000
# 5 0.000000 0.000000 0.000000 0.000000 0.043753 0.000000
# 6 0.000000 0.000000 0.000000 0.000000 0.000000 0.030558
#
#
# Mechanical properties :
#
#
# Convention : Reuss Voigt Hill
#
# Bulk Modulus (GPa) = 36.33579 36.41858 36.37719
# Shear Modulus (GPa) = 33.15072 36.07865 34.61469
#
# Velocity S-wave (km/s) = 3.80722 3.97179 3.89038
# Velocity P-wave (km/s) = 5.93415 6.07925 6.00714
#
# Compressibility (1/GPa) = 0.02752107
#
# Stress axis : x y z
#
# Youngs Moduli (GPa) = 103.34723 102.34768 94.43194
#
# Poissons Ratio (x) = 0.04568 0.05742
# Poissons Ratio (y) = 0.04612 0.01920
# Poissons Ratio (z) = 0.06284 0.02080
#
# Static dielectric constant tensor:
#      x y z
#    x 1.879500 0.000000 0.000000 
#    y 0.000000 1.815870 0.000000 
#    z 0.000000 0.000000 1.856380 
# 
# From -- ./inp_files/52056.got.cif
#   From: 2010.05.17/outbox.cif.g08.bks.cpg/sg68_27_cif.got.tgz:52056.got - 2010.06.03 18:57:09.
