data_PCOD9510094
_publ_section_title
;
Structure prediction by ZEFSAII (Michael W. Deem and Ramdas Pophale) SiO2 
 PCOD9510094
Probable space group: C C C A
;
_chemical_formula_sum "Si O2"
_cell_formula_units_Z 112
_cell_length_a 15.063982
_cell_length_b 14.947059
_cell_length_c 26.706414
_cell_angle_alpha 90.000000
_cell_angle_beta 90.000000
_cell_angle_gamma 90.000000
_cell_volume 6013.275671
_symmetry_space_group_name_H-M "C C C A"
_symmetry_group_IT_number 68
_space_group.IT_coordinate_system_code '2'
_symmetry_cell_setting 'orthorhombic'
loop_
_space_group_symop_operation_xyz
x,y,z
-x,1/2-y,z
x,1/2-y,1/2-z
-x,y,1/2-z
-x,-y,-z
x,1/2+y,-z
-x,1/2+y,1/2+z
x,-y,1/2+z
1/2+x,1/2+y,z
1/2-x,-y,z
1/2+x,-y,1/2-z
1/2-x,1/2+y,1/2-z
1/2-x,1/2-y,-z
1/2+x,y,-z
1/2-x,y,1/2+z
1/2+x,1/2-y,1/2+z
loop_
_atom_site_type_symbol
_atom_site_label
_atom_site_fract_x
_atom_site_fract_y
_atom_site_fract_z
Si Si1 0.326478 0.927125 0.093749
Si Si2 0.000419 0.500229 0.147803
Si Si3 0.597013 0.458916 0.488231
Si Si4 0.256413 0.756576 0.359140
Si Si5 0.068787 0.325095 0.604572
Si Si6 0.845773 0.250000 0.250000
Si Si7 0.327523 0.932262 0.409046
Si Si8 0.500000 0.897683 0.250000
O O1 0.407551 0.969035 0.125018
O O2 0.288027 0.837969 0.118809
O O3 0.250000 0.000000 0.091718
O O4 0.363517 0.914993 0.037729
O O5 0.019025 0.605297 0.141379
O O6 0.079539 0.454562 0.116707
O O7 0.007474 0.461184 0.202615
O O8 0.500000 0.500000 0.500000
O O9 0.595398 0.385626 0.443605
O O10 0.655902 0.541589 0.466895
O O11 0.152865 0.779146 0.368542
O O12 0.288112 0.760436 0.300977
O O13 0.303060 0.833596 0.392418
O O14 0.000000 0.250000 0.587978
O O15 0.913177 0.165692 0.254403
O O16 0.250000 0.000000 0.390736
#
# Coordination Sequence:
#
# PCOD9510094 Si02
#       8
#    16  16  16  16  16   8  16   8
#     4  12  26  44  67 101 143 176 228 288 340 414
#     4  11  22  45  69  96 136 181 220 285 346 402
#     4  11  23  43  70  96 135 184 227 280 340 409
#     4  12  25  44  71 102 132 179 228 289 349 407
#     4  11  25  47  66  96 142 182 226 278 343 421
#     4  11  24  42  69 104 136 160 231 296 338 411
#     4  11  21  43  68  95 133 176 226 273 339 415
#     4  11  22  42  71 100 128 174 223 290 348 395
#
# _framework density 18.625456
#
# number of rings (size 3 to 8) (size 9 to 14) (size 15 to 20)
#    0.000    0.714    8.571    1.286    0.000    2.286 
#    5.143    1.429    0.000    0.000    0.000    0.000 
#    0.000    0.000    0.000    0.000    0.000    0.000 
#
# Total GULP energy -312567.955382 kJ/mol
# GULP energy per Si atom -5581.570632 kJ/mol
# Density = 1.858306 g / cm^3
# Si number density = 18.625456 Si / 1000 Ang^3
#
#
#
# Elastic Constant Matrix: (Units=GPa)
#
#
# Indices 1 2 3 4 5 6 
#
# 1 112.5717 58.6390 32.3419 0.0000 0.0000 0.0000
# 2 58.6390 110.7092 41.2138 0.0000 0.0000 0.0000
# 3 32.3419 41.2138 101.0449 0.0000 0.0000 0.0000
# 4 0.0000 0.0000 0.0000 214.4376 0.0000 0.0000
# 5 0.0000 0.0000 0.0000 0.0000 14.7850 0.0000
# 6 0.0000 0.0000 0.0000 0.0000 0.0000 37.2957
#
#
#
# Elastic Compliance Matrix: (Units=1/GPa)
#
#
# Indices 1 2 3 4 5 6 
#
# 1 0.012465 -0.006033 -0.001529 0.000000 0.000000 0.000000
# 2 -0.006033 0.013570 -0.003604 0.000000 0.000000 0.000000
# 3 -0.001529 -0.003604 0.011856 0.000000 0.000000 0.000000
# 4 0.000000 0.000000 0.000000 0.004663 0.000000 0.000000
# 5 0.000000 0.000000 0.000000 0.000000 0.067636 0.000000
# 6 0.000000 0.000000 0.000000 0.000000 0.000000 0.026813
#
#
# Mechanical properties :
#
#
# Convention : Reuss Voigt Hill
#
# Bulk Modulus (GPa) = 64.27138 65.41281 64.84209
# Shear Modulus (GPa) = 30.39121 66.11242 48.25181
#
# Velocity S-wave (km/s) = 4.04382 5.96429 5.09535
# Velocity P-wave (km/s) = 7.50902 9.08993 8.33703
#
# Compressibility (1/GPa) = 0.01555903
#
# Stress axis : x y z
#
# Youngs Moduli (GPa) = 80.22315 73.69288 84.34650
#
# Poissons Ratio (x) = 0.44461 0.12897
# Poissons Ratio (y) = 0.48400 0.30396
# Poissons Ratio (z) = 0.12266 0.26557
#
# Static dielectric constant tensor:
#      x y z
#    x 1.670750 0.000000 0.000000 
#    y 0.000000 1.661030 0.000000 
#    z 0.000000 0.000000 1.657320 
# 
# From -- ./inp_files/51013.got.cif
#   From: 2010.05.17/outbox.cif.g08.bks.cpg/sg68_26_cif.got.tgz:51013.got - 2010.06.03 18:57:09.
