data_PCOD9510643
_publ_section_title
;
Structure prediction by ZEFSAII (Michael W. Deem and Ramdas Pophale) SiO2 
 PCOD9510643
Probable space group: C C C A
;
_chemical_formula_sum "Si O2"
_cell_formula_units_Z 48
_cell_length_a 8.759343
_cell_length_b 19.292611
_cell_length_c 10.408218
_cell_angle_alpha 90.000000
_cell_angle_beta 90.000000
_cell_angle_gamma 90.000000
_cell_volume 1758.890975
_symmetry_space_group_name_H-M "C C C A"
_symmetry_group_IT_number 68
_space_group.IT_coordinate_system_code '2'
_symmetry_cell_setting 'orthorhombic'
loop_
_space_group_symop_operation_xyz
x,y,z
-x,1/2-y,z
x,1/2-y,1/2-z
-x,y,1/2-z
-x,-y,-z
x,1/2+y,-z
-x,1/2+y,1/2+z
x,-y,1/2+z
1/2+x,1/2+y,z
1/2-x,-y,z
1/2+x,-y,1/2-z
1/2-x,1/2+y,1/2-z
1/2-x,1/2-y,-z
1/2+x,y,-z
1/2-x,y,1/2+z
1/2+x,1/2-y,1/2+z
loop_
_atom_site_type_symbol
_atom_site_label
_atom_site_fract_x
_atom_site_fract_y
_atom_site_fract_z
Si Si1 0.337690 0.169740 0.287838
Si Si2 0.924173 0.173213 0.417523
Si Si3 0.584005 0.034557 0.617646
O O1 0.345564 0.250000 0.250000
O O2 0.500000 0.135864 0.250000
O O3 0.200676 0.149487 0.189783
O O4 0.346343 0.170801 0.442840
O O5 0.057135 0.116026 0.411361
O O6 0.000000 0.250000 0.397194
O O7 0.500000 0.020320 0.750000
O O8 0.500000 0.000000 0.500000
O O9 0.750000 0.000000 0.624490
#
# Coordination Sequence:
#
# PCOD9510643 Si02
#       3
#    16  16  16
#     4  11  26  49  85 139 189 243 303 398 487 562
#     4  12  30  56  93 141 192 242 327 406 481 575
#     4  12  33  62  94 134 191 260 319 392 488 585
#
# _framework density 27.289923999999999
#
# number of rings (size 3 to 8) (size 9 to 14) (size 15 to 20)
#    0.000    0.333    3.333    2.000   14.000    1.333 
#   12.000    0.000    0.000    0.000    0.000    0.000 
#    0.000    0.000    0.000    0.000    0.000    0.000 
#
# Total GULP energy -134452.227061 kJ/mol
# GULP energy per Si atom -5602.176128 kJ/mol
# Density = 2.722781 g / cm^3
# Si number density = 27.289924 Si / 1000 Ang^3
#
#
#
# Elastic Constant Matrix: (Units=GPa)
#
#
# Indices 1 2 3 4 5 6 
#
# 1 265.5754 99.0960 141.3309 0.0000 0.0000 0.0000
# 2 99.0960 204.8364 66.5591 0.0000 0.0000 0.0000
# 3 141.3309 66.5591 337.1464 0.0000 0.0000 0.0000
# 4 0.0000 0.0000 0.0000 28.0345 0.0000 0.0000
# 5 0.0000 0.0000 0.0000 0.0000 76.5978 0.0000
# 6 0.0000 0.0000 0.0000 0.0000 0.0000 30.4885
#
#
#
# Elastic Compliance Matrix: (Units=1/GPa)
#
#
# Indices 1 2 3 4 5 6 
#
# 1 0.005559 -0.002065 -0.001923 0.000000 0.000000 0.000000
# 2 -0.002065 0.005983 -0.000316 0.000000 0.000000 0.000000
# 3 -0.001923 -0.000316 0.003834 0.000000 0.000000 0.000000
# 4 0.000000 0.000000 0.000000 0.035670 0.000000 0.000000
# 5 0.000000 0.000000 0.000000 0.000000 0.013055 0.000000
# 6 0.000000 0.000000 0.000000 0.000000 0.000000 0.032799
#
#
# Mechanical properties :
#
#
# Convention : Reuss Voigt Hill
#
# Bulk Modulus (GPa) = 147.69683 157.94781 152.82232
# Shear Modulus (GPa) = 46.39740 60.39562 53.39651
#
# Velocity S-wave (km/s) = 4.12778 4.70947 4.42819
# Velocity P-wave (km/s) = 8.77251 9.35818 9.07007
#
# Compressibility (1/GPa) = 0.00677063
#
# Stress axis : x y z
#
# Youngs Moduli (GPa) = 179.88869 167.13046 260.79617
#
# Poissons Ratio (x) = 0.34505 0.50144
# Poissons Ratio (y) = 0.37139 0.08235
# Poissons Ratio (z) = 0.34588 0.05277
#
# Static dielectric constant tensor:
#      x y z
#    x 2.354870 0.000000 0.000000 
#    y 0.000000 2.229820 0.000000 
#    z 0.000000 0.000000 2.077640 
# 
# From -- ./inp_files/10410.got.cif
#   From: 2010.05.17/outbox.cif.g08.bks.cpg/sg68_6_cif.got.tgz:10410.got - 2010.06.03 18:57:09.
