data_PCOD9510644
_publ_section_title
;
Structure prediction by ZEFSAII (Michael W. Deem and Ramdas Pophale) SiO2 
 PCOD9510644
Probable space group: C C C A
;
_chemical_formula_sum "Si O2"
_cell_formula_units_Z 56
_cell_length_a 9.928881
_cell_length_b 18.486643
_cell_length_c 13.695104
_cell_angle_alpha 90.000000
_cell_angle_beta 90.000000
_cell_angle_gamma 90.000000
_cell_volume 2513.759326
_symmetry_space_group_name_H-M "C C C A"
_symmetry_group_IT_number 68
_space_group.IT_coordinate_system_code '2'
_symmetry_cell_setting 'orthorhombic'
loop_
_space_group_symop_operation_xyz
x,y,z
-x,1/2-y,z
x,1/2-y,1/2-z
-x,y,1/2-z
-x,-y,-z
x,1/2+y,-z
-x,1/2+y,1/2+z
x,-y,1/2+z
1/2+x,1/2+y,z
1/2-x,-y,z
1/2+x,-y,1/2-z
1/2-x,1/2+y,1/2-z
1/2-x,1/2-y,-z
1/2+x,y,-z
1/2-x,y,1/2+z
1/2+x,1/2-y,1/2+z
loop_
_atom_site_type_symbol
_atom_site_label
_atom_site_fract_x
_atom_site_fract_y
_atom_site_fract_z
Si Si1 0.250000 0.500000 0.671669
Si Si2 0.921392 0.174199 0.338364
Si Si3 0.563293 0.423092 0.980483
Si Si4 0.367747 0.626070 0.802706
O O1 0.322816 0.442440 0.599437
O O2 0.336986 0.551563 0.743066
O O3 0.766791 0.174868 0.306474
O O4 0.000000 0.250000 0.350498
O O5 0.000000 0.135334 0.250000
O O6 0.950527 0.128438 0.434030
O O7 0.500000 0.500000 0.000000
O O8 0.608210 0.391865 0.083851
O O9 0.500000 0.657517 0.750000
#
# Coordination Sequence:
#
# PCOD9510644 Si02
#       4
#     8  16  16  16
#     4  12  22  42  68 112 156 192 246 312 382 454
#     4  11  26  50  75 103 151 210 248 309 383 449
#     4  12  24  43  75 113 153 197 249 312 380 446
#     4  12  26  43  72 112 151 199 252 313 373 458
#
# _framework density 22.27739
#
# number of rings (size 3 to 8) (size 9 to 14) (size 15 to 20)
#    0.000    0.286    5.714    4.286    0.000    1.143 
#    0.000    5.714    0.000    0.000    0.000    0.000 
#    0.000    0.000    0.000    0.000    0.000    0.000 
#
# Total GULP energy -156409.568815 kJ/mol
# GULP energy per Si atom -5586.056029 kJ/mol
# Density = 2.222669 g / cm^3
# Si number density = 22.277390 Si / 1000 Ang^3
#
#
#
# Elastic Constant Matrix: (Units=GPa)
#
#
# Indices 1 2 3 4 5 6 
#
# 1 186.5811 59.1476 71.1892 0.0000 0.0000 0.0000
# 2 59.1476 86.6543 41.2728 0.0000 0.0000 0.0000
# 3 71.1892 41.2728 155.4963 0.0000 0.0000 0.0000
# 4 0.0000 0.0000 0.0000 28.2735 0.0000 0.0000
# 5 0.0000 0.0000 0.0000 0.0000 49.5125 0.0000
# 6 0.0000 0.0000 0.0000 0.0000 0.0000 31.7365
#
#
#
# Elastic Compliance Matrix: (Units=1/GPa)
#
#
# Indices 1 2 3 4 5 6 
#
# 1 0.007542 -0.004011 -0.002389 0.000000 0.000000 0.000000
# 2 -0.004011 0.015343 -0.002236 0.000000 0.000000 0.000000
# 3 -0.002389 -0.002236 0.008118 0.000000 0.000000 0.000000
# 4 0.000000 0.000000 0.000000 0.035369 0.000000 0.000000
# 5 0.000000 0.000000 0.000000 0.000000 0.020197 0.000000
# 6 0.000000 0.000000 0.000000 0.000000 0.000000 0.031509
#
#
# Mechanical properties :
#
#
# Convention : Reuss Voigt Hill
#
# Bulk Modulus (GPa) = 72.82001 85.77233 79.29617
# Shear Modulus (GPa) = 35.73312 39.04598 37.38955
#
# Velocity S-wave (km/s) = 4.00935 4.19109 4.10123
# Velocity P-wave (km/s) = 7.36152 7.87438 7.62227
#
# Compressibility (1/GPa) = 0.01373249
#
# Stress axis : x y z
#
# Youngs Moduli (GPa) = 132.58578 65.17772 123.18165
#
# Poissons Ratio (x) = 0.26140 0.29422
# Poissons Ratio (y) = 0.53174 0.27547
# Poissons Ratio (z) = 0.31668 0.14575
#
# Static dielectric constant tensor:
#      x y z
#    x 1.964400 0.000000 0.000000 
#    y 0.000000 1.801730 0.000000 
#    z 0.000000 0.000000 2.010190 
# 
# From -- ./inp_files/19041.got.cif
#   From: 2010.05.17/outbox.cif.g08.bks.cpg/sg68_10_cif.got.tgz:19041.got - 2010.06.03 18:57:09.
