data_PCOD9510734
_publ_section_title
;
Structure prediction by ZEFSAII (Michael W. Deem and Ramdas Pophale) SiO2 
 PCOD9510734
Probable space group: C C C A
;
_chemical_formula_sum "Si O2"
_cell_formula_units_Z 88
_cell_length_a 24.305223
_cell_length_b 5.328543
_cell_length_c 30.938673
_cell_angle_alpha 90.000000
_cell_angle_beta 90.000000
_cell_angle_gamma 90.000000
_cell_volume 4006.911655
_symmetry_space_group_name_H-M "C C C A"
_symmetry_group_IT_number 68
_space_group.IT_coordinate_system_code '2'
_symmetry_cell_setting 'orthorhombic'
loop_
_space_group_symop_operation_xyz
x,y,z
-x,1/2-y,z
x,1/2-y,1/2-z
-x,y,1/2-z
-x,-y,-z
x,1/2+y,-z
-x,1/2+y,1/2+z
x,-y,1/2+z
1/2+x,1/2+y,z
1/2-x,-y,z
1/2+x,-y,1/2-z
1/2-x,1/2+y,1/2-z
1/2-x,1/2-y,-z
1/2+x,y,-z
1/2-x,y,1/2+z
1/2+x,1/2-y,1/2+z
loop_
_atom_site_type_symbol
_atom_site_label
_atom_site_fract_x
_atom_site_fract_y
_atom_site_fract_z
Si Si1 0.187808 0.010984 0.115069
Si Si2 0.851971 0.006860 0.656199
Si Si3 0.708856 0.821359 0.538594
Si Si4 0.250000 0.500000 0.721524
Si Si5 0.464241 0.501138 0.622923
Si Si6 0.414302 0.474170 0.026075
O O1 0.155521 0.785583 0.137473
O O2 0.191301 0.921988 0.065647
O O3 0.250000 0.000000 0.132470
O O4 0.162558 0.279252 0.123662
O O5 0.806109 0.981276 0.693307
O O6 0.917416 0.980494 0.659916
O O7 0.750000 0.750000 0.500000
O O8 0.652528 0.961285 0.527618
O O9 0.750000 0.000000 0.566587
O O10 0.253806 0.750000 0.750000
O O11 0.500000 0.250000 0.622720
O O12 0.436646 0.524842 0.574958
O O13 0.500000 0.750000 0.629376
O O14 0.431124 0.723450 0.999993
#
# Coordination Sequence:
#
# PCOD9510734 Si02
#       6
#    16  16  16   8  16  16
#     4  12  23  38  67 101 147 187 234 291 365 433
#     4  12  25  48  76 111 146 188 232 294 356 446
#     4  12  24  37  60  97 146 188 247 309 380 448
#     4  12  26  50  82 124 162 184 206 270 382 482
#     4  12  28  49  74  98 138 200 266 313 353 410
#     4  12  27  43  64  93 134 192 256 326 379 416
#
# _framework density 21.962050000000001
#
# number of rings (size 3 to 8) (size 9 to 14) (size 15 to 20)
#    0.000    0.000    5.455    4.909    2.545    2.182 
#    0.000    0.000    0.000    3.273    0.000    0.000 
#    0.000    0.000    0.000    0.000    0.000    0.000 
#
# Total GULP energy -246232.107572 kJ/mol
# GULP energy per Si atom -5596.184263 kJ/mol
# Density = 2.191206 g / cm^3
# Si number density = 21.962050 Si / 1000 Ang^3
#
#
#
# Elastic Constant Matrix: (Units=GPa)
#
#
# Indices 1 2 3 4 5 6 
#
# 1 157.2587 57.4466 47.6889 0.0000 0.0000 0.0000
# 2 57.4466 162.6978 46.6330 0.0000 0.0000 0.0000
# 3 47.6889 46.6330 87.9362 0.0000 0.0000 0.0000
# 4 0.0000 0.0000 0.0000 42.4253 0.0000 0.0000
# 5 0.0000 0.0000 0.0000 0.0000 -133.7012 0.0000
# 6 0.0000 0.0000 0.0000 0.0000 0.0000 37.7768
#
#
#
# Elastic Compliance Matrix: (Units=1/GPa)
#
#
# Indices 1 2 3 4 5 6 
#
# 1 0.008071 -0.001881 -0.003379 0.000000 0.000000 0.000000
# 2 -0.001881 0.007687 -0.003056 0.000000 0.000000 0.000000
# 3 -0.003379 -0.003056 0.014825 0.000000 0.000000 0.000000
# 4 0.000000 0.000000 0.000000 0.023571 0.000000 0.000000
# 5 0.000000 0.000000 0.000000 0.000000 -0.007479 0.000000
# 6 0.000000 0.000000 0.000000 0.000000 0.000000 0.026471
#
#
# Mechanical properties :
#
#
# Convention : Reuss Voigt Hill
#
# Bulk Modulus (GPa) = 71.68704 79.04773 75.36739
# Shear Modulus (GPa) = 52.95018 6.37510 29.66264
#
# Velocity S-wave (km/s) = 4.91551 1.70560 3.67908
# Velocity P-wave (km/s) = 8.05782 6.32058 7.24149
#
# Compressibility (1/GPa) = 0.01394952
#
# Stress axis : x y z
#
# Youngs Moduli (GPa) = 123.90140 130.09821 67.45271
#
# Poissons Ratio (x) = 0.24473 0.22795
# Poissons Ratio (y) = 0.23308 0.20614
# Poissons Ratio (z) = 0.41871 0.39758
#
# Static dielectric constant tensor:
#      x y z
#    x 1.856610 0.000000 0.000000 
#    y 0.000000 1.865730 0.000000 
#    z 0.000000 0.000000 1.846490 
# 
# From -- ./inp_files/55955.got.cif
#   From: 2010.05.17/outbox.cif.g08.bks.cpg/sg68_28_cif.got.tgz:55955.got - 2010.06.03 18:57:09.
