data_PCOD9510841
_publ_section_title
;
Structure prediction by ZEFSAII (Michael W. Deem and Ramdas Pophale) SiO2 
 PCOD9510841
Probable space group: C C C A
;
_chemical_formula_sum "Si O2"
_cell_formula_units_Z 68
_cell_length_a 16.030533
_cell_length_b 9.875307
_cell_length_c 16.032750
_cell_angle_alpha 90.000000
_cell_angle_beta 90.000000
_cell_angle_gamma 90.000000
_cell_volume 2538.087492
_symmetry_space_group_name_H-M "C C C A"
_symmetry_group_IT_number 68
_space_group.IT_coordinate_system_code '2'
_symmetry_cell_setting 'orthorhombic'
loop_
_space_group_symop_operation_xyz
x,y,z
-x,1/2-y,z
x,1/2-y,1/2-z
-x,y,1/2-z
-x,-y,-z
x,1/2+y,-z
-x,1/2+y,1/2+z
x,-y,1/2+z
1/2+x,1/2+y,z
1/2-x,-y,z
1/2+x,-y,1/2-z
1/2-x,1/2+y,1/2-z
1/2-x,1/2-y,-z
1/2+x,y,-z
1/2-x,y,1/2+z
1/2+x,1/2-y,1/2+z
loop_
_atom_site_type_symbol
_atom_site_label
_atom_site_fract_x
_atom_site_fract_y
_atom_site_fract_z
Si Si1 0.467542 0.883927 0.559200
Si Si2 0.795361 0.750000 0.250000
Si Si3 0.402228 0.504878 0.677270
Si Si4 0.750000 0.000000 0.053265
Si Si5 0.771591 0.828238 0.429855
Si Si6 0.500000 0.250000 0.750000
O O1 0.500000 0.750000 0.515766
O O2 0.371288 0.857151 0.572124
O O3 0.500000 0.000000 0.500000
O O4 0.517474 0.912908 0.643800
O O5 0.850402 0.614987 0.268574
O O6 0.745502 0.791035 0.334182
O O7 0.335732 0.474352 0.604350
O O8 0.438012 0.360420 0.706960
O O9 0.770472 0.836082 0.031599
O O10 0.750000 0.000000 0.441367
#
# Coordination Sequence:
#
# PCOD9510841 Si02
#       6
#    16   8  16   8  16   4
#     4  12  25  47  84 118 170 229 290 353 449 532
#     4  12  26  54  90 123 173 236 302 362 456 538
#     4  12  28  54  87 128 180 239 295 384 446 544
#     4  12  26  54  82 128 184 226 304 364 468 524
#     4  12  26  51  83 123 170 230 289 371 434 541
#     4  12  32  52  84 134 184 230 320 368 454 530
#
# _framework density 26.791826
#
# number of rings (size 3 to 8) (size 9 to 14) (size 15 to 20)
#    0.000    0.000    7.059    1.412    1.647    2.824 
#    4.235    0.000    0.000    0.000    0.000    1.647 
#    0.000    0.000    0.000    0.000    0.000    0.000 
#
# Total GULP energy -189874.592944 kJ/mol
# GULP energy per Si atom -5584.546851 kJ/mol
# Density = 2.673085 g / cm^3
# Si number density = 26.791826 Si / 1000 Ang^3
#
#
#
# Elastic Constant Matrix: (Units=GPa)
#
#
# Indices 1 2 3 4 5 6 
#
# 1 171.8398 70.1326 36.5619 0.0000 0.0000 0.0000
# 2 70.1326 309.5492 91.0618 0.0000 0.0000 0.0000
# 3 36.5619 91.0618 176.0504 0.0000 0.0000 0.0000
# 4 0.0000 0.0000 0.0000 89.6150 0.0000 0.0000
# 5 0.0000 0.0000 0.0000 0.0000 76.1032 0.0000
# 6 0.0000 0.0000 0.0000 0.0000 0.0000 51.3595
#
#
#
# Elastic Compliance Matrix: (Units=1/GPa)
#
#
# Indices 1 2 3 4 5 6 
#
# 1 0.006483 -0.001265 -0.000692 0.000000 0.000000 0.000000
# 2 -0.001265 0.004057 -0.001836 0.000000 0.000000 0.000000
# 3 -0.000692 -0.001836 0.006773 0.000000 0.000000 0.000000
# 4 0.000000 0.000000 0.000000 0.011159 0.000000 0.000000
# 5 0.000000 0.000000 0.000000 0.000000 0.013140 0.000000
# 6 0.000000 0.000000 0.000000 0.000000 0.000000 0.019471
#
#
# Mechanical properties :
#
#
# Convention : Reuss Voigt Hill
#
# Bulk Modulus (GPa) = 102.79968 116.99464 109.89716
# Shear Modulus (GPa) = 69.52968 74.06107 71.79538
#
# Velocity S-wave (km/s) = 5.09982 5.26338 5.18225
# Velocity P-wave (km/s) = 8.55165 8.98334 8.77015
#
# Compressibility (1/GPa) = 0.00972766
#
# Stress axis : x y z
#
# Youngs Moduli (GPa) = 154.25003 246.47418 147.63492
#
# Poissons Ratio (x) = 0.31185 0.10215
# Poissons Ratio (y) = 0.19517 0.27103
# Poissons Ratio (z) = 0.10673 0.45248
#
# Static dielectric constant tensor:
#      x y z
#    x 1.982110 0.000000 0.000000 
#    y 0.000000 2.152410 0.000000 
#    z 0.000000 0.000000 2.271230 
# 
# From -- ./inp_files/39231.got.cif
#   From: 2010.05.17/outbox.cif.g08.bks.cpg/sg68_20_cif.got.tgz:39231.got - 2010.06.03 18:57:09.
