data_PCOD9510847
_publ_section_title
;
Structure prediction by ZEFSAII (Michael W. Deem and Ramdas Pophale) SiO2 
 PCOD9510847
Probable space group: C C C A
;
_chemical_formula_sum "Si O2"
_cell_formula_units_Z 64
_cell_length_a 14.508967
_cell_length_b 11.355082
_cell_length_c 15.652326
_cell_angle_alpha 90.000000
_cell_angle_beta 90.000000
_cell_angle_gamma 90.000000
_cell_volume 2578.728692
_symmetry_space_group_name_H-M "C C C A"
_symmetry_group_IT_number 68
_space_group.IT_coordinate_system_code '2'
_symmetry_cell_setting 'orthorhombic'
loop_
_space_group_symop_operation_xyz
x,y,z
-x,1/2-y,z
x,1/2-y,1/2-z
-x,y,1/2-z
-x,-y,-z
x,1/2+y,-z
-x,1/2+y,1/2+z
x,-y,1/2+z
1/2+x,1/2+y,z
1/2-x,-y,z
1/2+x,-y,1/2-z
1/2-x,1/2+y,1/2-z
1/2-x,1/2-y,-z
1/2+x,y,-z
1/2-x,y,1/2+z
1/2+x,1/2-y,1/2+z
loop_
_atom_site_type_symbol
_atom_site_label
_atom_site_fract_x
_atom_site_fract_y
_atom_site_fract_z
Si Si1 0.376023 0.878491 0.292463
Si Si2 0.027227 0.954758 0.407778
Si Si3 0.782909 0.806307 0.090757
Si Si4 0.670944 0.930461 0.851001
O O1 0.390637 0.750000 0.250000
O O2 0.300498 0.877181 0.368256
O O3 0.461496 0.935435 0.342986
O O4 0.344584 0.977375 0.224788
O O5 0.119939 0.876038 0.411628
O O6 0.931383 0.895977 0.381047
O O7 0.000000 0.000000 0.500000
O O8 0.789044 0.698529 0.158138
O O9 0.750000 0.750000 0.000000
O O10 0.750000 0.000000 0.906697
#
# Coordination Sequence:
#
# PCOD9510847 Si02
#       4
#    16  16  16  16
#     4  12  28  51  83 115 163 218 275 340 417 489
#     4  12  28  49  79 121 161 210 277 337 418 500
#     4  12  27  52  85 116 165 217 271 347 423 497
#     4  12  25  49  76 116 160 211 274 339 408 488
#
# _framework density 24.818432000000001
#
# number of rings (size 3 to 8) (size 9 to 14) (size 15 to 20)
#    0.000    0.000    2.500    6.750    0.000    2.000 
#    0.000    2.500    0.000    0.000    0.000    0.000 
#    0.000    0.000    0.000    0.000    0.000    0.000 
#
# Total GULP energy -178671.920600 kJ/mol
# GULP energy per Si atom -5583.497519 kJ/mol
# Density = 2.476194 g / cm^3
# Si number density = 24.818432 Si / 1000 Ang^3
#
#
#
# Elastic Constant Matrix: (Units=GPa)
#
#
# Indices 1 2 3 4 5 6 
#
# 1 161.2991 29.9813 18.7161 0.0000 0.0000 0.0000
# 2 29.9813 136.5980 60.7288 0.0000 0.0000 0.0000
# 3 18.7161 60.7288 116.4854 0.0000 0.0000 0.0000
# 4 0.0000 0.0000 0.0000 2.9923 0.0000 0.0000
# 5 0.0000 0.0000 0.0000 0.0000 39.1965 0.0000
# 6 0.0000 0.0000 0.0000 0.0000 0.0000 52.5863
#
#
#
# Elastic Compliance Matrix: (Units=1/GPa)
#
#
# Indices 1 2 3 4 5 6 
#
# 1 0.006477 -0.001248 -0.000390 0.000000 0.000000 0.000000
# 2 -0.001248 0.009770 -0.004893 0.000000 0.000000 0.000000
# 3 -0.000390 -0.004893 0.011198 0.000000 0.000000 0.000000
# 4 0.000000 0.000000 0.000000 0.334195 0.000000 0.000000
# 5 0.000000 0.000000 0.000000 0.000000 0.025512 0.000000
# 6 0.000000 0.000000 0.000000 0.000000 0.000000 0.019016
#
#
# Mechanical properties :
#
#
# Convention : Reuss Voigt Hill
#
# Bulk Modulus (GPa) = 69.52635 70.35943 69.94289
# Shear Modulus (GPa) = 11.79173 39.28544 25.53859
#
# Velocity S-wave (km/s) = 2.18209 3.98290 3.21131
# Velocity P-wave (km/s) = 5.86715 7.04007 6.48020
#
# Compressibility (1/GPa) = 0.01438304
#
# Stress axis : x y z
#
# Youngs Moduli (GPa) = 154.39432 102.35363 89.29896
#
# Poissons Ratio (x) = 0.12776 0.03482
# Poissons Ratio (y) = 0.19272 0.43694
# Poissons Ratio (z) = 0.06020 0.50081
#
# Static dielectric constant tensor:
#      x y z
#    x 1.958470 0.000000 0.000000 
#    y 0.000000 1.876960 0.000000 
#    z 0.000000 0.000000 1.995740 
# 
# From -- ./inp_files/30457.got.cif
#   From: 2010.05.17/outbox.cif.g08.bks.cpg/sg68_16_cif.got.tgz:30457.got - 2010.06.03 18:57:09.
