data_PCOD9510939
_publ_section_title
;
Structure prediction by ZEFSAII (Michael W. Deem and Ramdas Pophale) SiO2 
 PCOD9510939
Probable space group: C C C A
;
_chemical_formula_sum "Si O2"
_cell_formula_units_Z 54
_cell_length_a 15.000000
_cell_length_b 12.000000
_cell_length_c 30.000000
_cell_angle_alpha 90.000000
_cell_angle_beta 90.000000
_cell_angle_gamma 90.000000
_cell_volume 5400.000000
_symmetry_space_group_name_H-M "C C C A"
_symmetry_group_IT_number 68
_space_group.IT_coordinate_system_code '2'
_symmetry_cell_setting 'orthorhombic'
loop_
_space_group_symop_operation_xyz
x,y,z
-x,1/2-y,z
x,1/2-y,1/2-z
-x,y,1/2-z
-x,-y,-z
x,1/2+y,-z
-x,1/2+y,1/2+z
x,-y,1/2+z
1/2+x,1/2+y,z
1/2-x,-y,z
1/2+x,-y,1/2-z
1/2-x,1/2+y,1/2-z
1/2-x,1/2-y,-z
1/2+x,y,-z
1/2-x,y,1/2+z
1/2+x,1/2-y,1/2+z
loop_
_atom_site_type_symbol
_atom_site_label
_atom_site_fract_x
_atom_site_fract_y
_atom_site_fract_z
Si Si1 0.303478 0.250000 0.250000
Si Si2 0.000000 0.750000 0.750000
Si Si3 0.002215 0.880340 0.104682
Si Si4 0.150667 0.125664 0.196989
Si Si5 0.895678 0.727221 0.601355
Si Si6 0.061358 0.891442 0.204926
Si Si7 0.146615 0.466858 0.058357
Si Si8 0.643410 0.009515 0.953396
O O1 0.230185 0.160901 0.230904
O O2 0.378911 0.220759 0.211864
O O3 0.937824 0.823329 0.781113
O O4 0.008407 0.891461 0.158360
O O5 0.000000 0.750000 0.093851
O O6 0.089397 0.930482 0.080333
O O7 0.918851 0.949708 0.085062
O O8 0.153180 0.179607 0.146634
O O9 0.130353 0.994394 0.198173
O O10 0.862602 0.843939 0.580198
O O11 0.885881 0.632883 0.562987
O O12 0.000000 0.750000 0.612217
O O13 0.000000 0.906750 0.250000
O O14 0.250000 0.500000 0.062417
O O15 0.123286 0.478245 0.005258
O O16 0.750000 0.000000 0.947839
#
# Coordination Sequence:
#
# PCOD9510939 Si02
#       8
#     8   4  16  16  16  16  16  16
#     4  11  27  41  69 104 140 182 235 293 347 435
#     4  10  20  40  62  94 126 172 226 284 340 400
#     4  12  27  45  72 106 150 193 241 306 381 440
#     4  11  23  42  71 100 135 182 239 290 350 414
#     4  12  24  45  75 103 143 187 251 301 360 449
#     4  12  25  48  68 101 142 187 234 289 365 424
#     4  11  28  47  71 109 143 193 247 310 371 438
#     4  11  27  45  73 107 144 194 239 306 376 447
#
# _framework density 10.0
#
# number of rings (size 3 to 8) (size 9 to 14) (size 15 to 20)
#    0.000    0.593    4.444    2.000    6.222    2.370 
#    0.000    1.481    0.000    0.000    0.000    0.000 
#    0.000    0.000    0.000    0.000    0.000    0.000 
#
# Total GULP energy -300990.415499 kJ/mol
# GULP energy per Si atom -5573.896583 kJ/mol
# Density = 0.997724 g / cm^3
# Si number density = 10.000000 Si / 1000 Ang^3
#
#
#
# Elastic Constant Matrix: (Units=GPa)
#
#
# Indices 1 2 3 4 5 6 
#
# 1 96.9665 34.7409 52.2369 0.0000 0.0000 0.0000
# 2 34.7409 162.0048 60.0220 0.0000 0.0000 0.0000
# 3 52.2369 60.0220 151.8243 0.0000 0.0000 0.0000
# 4 0.0000 0.0000 0.0000 31.3529 0.0000 0.0000
# 5 0.0000 0.0000 0.0000 0.0000 35.4402 0.0000
# 6 0.0000 0.0000 0.0000 0.0000 0.0000 40.5269
#
#
#
# Elastic Compliance Matrix: (Units=1/GPa)
#
#
# Indices 1 2 3 4 5 6 
#
# 1 0.012894 -0.001314 -0.003917 0.000000 0.000000 0.000000
# 2 -0.001314 0.007366 -0.002460 0.000000 0.000000 0.000000
# 3 -0.003917 -0.002460 0.008907 0.000000 0.000000 0.000000
# 4 0.000000 0.000000 0.000000 0.031895 0.000000 0.000000
# 5 0.000000 0.000000 0.000000 0.000000 0.028217 0.000000
# 6 0.000000 0.000000 0.000000 0.000000 0.000000 0.024675
#
#
# Mechanical properties :
#
#
# Convention : Reuss Voigt Hill
#
# Bulk Modulus (GPa) = 72.54273 78.31055 75.42664
# Shear Modulus (GPa) = 37.33331 39.05037 38.19184
#
# Velocity S-wave (km/s) = 4.32518 4.42353 4.37463
# Velocity P-wave (km/s) = 7.82899 8.08272 7.95686
#
# Compressibility (1/GPa) = 0.01378498
#
# Stress axis : x y z
#
# Youngs Moduli (GPa) = 77.55813 135.76273 112.27511
#
# Poissons Ratio (x) = 0.17836 0.43976
# Poissons Ratio (y) = 0.10189 0.27619
# Poissons Ratio (z) = 0.30378 0.33397
#
# Static dielectric constant tensor:
#      x y z
#    x 1.723610 0.000000 0.000000 
#    y 0.000000 1.739300 0.000000 
#    z 0.000000 0.000000 1.688360 
# 
# From -- ./inp_files/55317.got.cif
#   From: 2010.05.17/outbox.ucp.g08.bks.cvg/sg68_28_cif.got.tgz:55317.got - 2010.06.11 16:49:25.
