data_PCOD9510360
_publ_section_title
;
Structure prediction by ZEFSAII (Michael W. Deem and Ramdas Pophale) SiO2 
 PCOD9510360
Probable space group: C C C A
;
_chemical_formula_sum "Si O2"
_cell_formula_units_Z 88
_cell_length_a 10.840816
_cell_length_b 16.076893
_cell_length_c 24.219268
_cell_angle_alpha 90.000000
_cell_angle_beta 90.000000
_cell_angle_gamma 90.000000
_cell_volume 4221.094815
_symmetry_space_group_name_H-M "C C C A"
_symmetry_group_IT_number 68
_space_group.IT_coordinate_system_code '2'
_symmetry_cell_setting 'orthorhombic'
loop_
_space_group_symop_operation_xyz
x,y,z
-x,1/2-y,z
x,1/2-y,1/2-z
-x,y,1/2-z
-x,-y,-z
x,1/2+y,-z
-x,1/2+y,1/2+z
x,-y,1/2+z
1/2+x,1/2+y,z
1/2-x,-y,z
1/2+x,-y,1/2-z
1/2-x,1/2+y,1/2-z
1/2-x,1/2-y,-z
1/2+x,y,-z
1/2-x,y,1/2+z
1/2+x,1/2-y,1/2+z
loop_
_atom_site_type_symbol
_atom_site_label
_atom_site_fract_x
_atom_site_fract_y
_atom_site_fract_z
Si Si1 0.593297 0.036797 0.836990
Si Si2 0.344305 0.123202 0.119162
Si Si3 0.670053 0.714406 0.809268
Si Si4 0.000000 0.421728 0.750000
Si Si5 0.125331 0.303688 0.998845
Si Si6 0.910909 0.330890 0.376214
O O1 0.713531 0.088585 0.856415
O O2 0.480660 0.098119 0.843030
O O3 0.571172 0.957831 0.876163
O O4 0.594043 0.985659 0.779810
O O5 0.375946 0.205525 0.154771
O O6 0.348677 0.142828 0.055124
O O7 0.714220 0.750000 0.750000
O O8 0.578322 0.640356 0.789681
O O9 0.781679 0.683424 0.846560
O O10 0.000000 0.250000 0.990190
O O11 0.250000 0.250000 0.000000
O O12 0.108723 0.346986 0.058491
O O13 0.000000 0.250000 0.373597
#
# Coordination Sequence:
#
# PCOD9510360 Si02
#       6
#    16  16  16   8  16  16
#     4  11  26  44  66 105 150 182 239 305 357 428
#     4  11  24  45  73 106 142 188 238 300 368 426
#     4  12  25  45  72 101 138 191 245 288 361 443
#     4  12  29  44  69 104 150 192 243 304 364 437
#     4  11  23  44  78 110 145 193 250 302 367 452
#     4  11  24  46  72 106 143 193 247 293 367 444
#
# _framework density 20.847673
#
# number of rings (size 3 to 8) (size 9 to 14) (size 15 to 20)
#    0.000    0.727    5.455    1.364    5.091    1.818 
#    0.000    3.636    0.000    0.000    0.000    0.000 
#    0.000    0.000    0.000    0.000    0.000    0.000 
#
# Total GULP energy -245212.808445 kJ/mol
# GULP energy per Si atom -5573.018374 kJ/mol
# Density = 2.080022 g / cm^3
# Si number density = 20.847673 Si / 1000 Ang^3
#
#
#
# Elastic Constant Matrix: (Units=GPa)
#
#
# Indices 1 2 3 4 5 6 
#
# 1 113.7825 53.3677 46.6439 0.0000 0.0000 0.0000
# 2 53.3677 132.2210 59.3327 0.0000 0.0000 0.0000
# 3 46.6439 59.3327 130.2948 0.0000 0.0000 0.0000
# 4 0.0000 0.0000 0.0000 94.8191 0.0000 0.0000
# 5 0.0000 0.0000 0.0000 0.0000 32.2465 0.0000
# 6 0.0000 0.0000 0.0000 0.0000 0.0000 22.8542
#
#
#
# Elastic Compliance Matrix: (Units=1/GPa)
#
#
# Indices 1 2 3 4 5 6 
#
# 1 0.011458 -0.003499 -0.002508 0.000000 0.000000 0.000000
# 2 -0.003499 0.010574 -0.003562 0.000000 0.000000 0.000000
# 3 -0.002508 -0.003562 0.010195 0.000000 0.000000 0.000000
# 4 0.000000 0.000000 0.000000 0.010546 0.000000 0.000000
# 5 0.000000 0.000000 0.000000 0.000000 0.031011 0.000000
# 6 0.000000 0.000000 0.000000 0.000000 0.000000 0.043756
#
#
# Mechanical properties :
#
#
# Convention : Reuss Voigt Hill
#
# Bulk Modulus (GPa) = 76.41051 77.22076 76.81564
# Shear Modulus (GPa) = 35.45010 44.44756 39.94883
#
# Velocity S-wave (km/s) = 4.12811 4.62238 4.38222
# Velocity P-wave (km/s) = 7.71058 8.09997 7.90767
#
# Compressibility (1/GPa) = 0.01308720
#
# Stress axis : x y z
#
# Youngs Moduli (GPa) = 87.27331 94.57084 98.08574
#
# Poissons Ratio (x) = 0.33092 0.24605
# Poissons Ratio (y) = 0.30539 0.34943
# Poissons Ratio (z) = 0.21892 0.33691
#
# Static dielectric constant tensor:
#      x y z
#    x 1.764630 0.000000 0.000000 
#    y 0.000000 1.842030 0.000000 
#    z 0.000000 0.000000 2.027720 
# 
# From -- ./inp_files/44228.got.cif
#   From: 2010.05.17/outbox.cif.g08.bks.cpg/sg68_23_cif.got.tgz:44228.got - 2010.06.03 18:57:09.
