data_PCOD9510414
_publ_section_title
;
Structure prediction by ZEFSAII (Michael W. Deem and Ramdas Pophale) SiO2 
 PCOD9510414
Probable space group: C C C A
;
_chemical_formula_sum "Si O2"
_cell_formula_units_Z 96
_cell_length_a 16.810933
_cell_length_b 13.878350
_cell_length_c 15.950074
_cell_angle_alpha 90.000000
_cell_angle_beta 90.000000
_cell_angle_gamma 90.000000
_cell_volume 3721.280056
_symmetry_space_group_name_H-M "C C C A"
_symmetry_group_IT_number 68
_space_group.IT_coordinate_system_code '2'
_symmetry_cell_setting 'orthorhombic'
loop_
_space_group_symop_operation_xyz
x,y,z
-x,1/2-y,z
x,1/2-y,1/2-z
-x,y,1/2-z
-x,-y,-z
x,1/2+y,-z
-x,1/2+y,1/2+z
x,-y,1/2+z
1/2+x,1/2+y,z
1/2-x,-y,z
1/2+x,-y,1/2-z
1/2-x,1/2+y,1/2-z
1/2-x,1/2-y,-z
1/2+x,y,-z
1/2-x,y,1/2+z
1/2+x,1/2-y,1/2+z
loop_
_atom_site_type_symbol
_atom_site_label
_atom_site_fract_x
_atom_site_fract_y
_atom_site_fract_z
Si Si1 0.241534 0.715198 0.115003
Si Si2 0.407615 0.371987 0.066574
Si Si3 0.645120 0.424719 0.966499
Si Si4 0.725712 0.608945 0.713793
Si Si5 0.569188 0.057823 0.351403
Si Si6 0.015701 0.855540 0.616981
O O1 0.147528 0.713213 0.097527
O O2 0.289928 0.658233 0.044922
O O3 0.254613 0.651688 0.198699
O O4 0.262555 0.822877 0.142100
O O5 0.348128 0.464932 0.065212
O O6 0.484705 0.394753 0.123547
O O7 0.437148 0.350039 0.972186
O O8 0.570494 0.390080 0.912519
O O9 0.618487 0.437878 0.061901
O O10 0.750000 0.500000 0.701794
O O11 0.628917 0.607799 0.713159
O O12 0.553790 0.944447 0.332077
O O13 0.000000 0.750000 0.653623
#
# Coordination Sequence:
#
# PCOD9510414 Si02
#       6
#    16  16  16  16  16  16
#     4  11  24  41  66  87 122 181 207 253 328 385
#     4   9  19  37  62  92 126 162 212 255 307 383
#     4   9  19  38  62  92 126 167 211 253 321 375
#     4  11  26  42  58  92 130 163 217 265 310 379
#     4   9  21  39  60  96 132 160 208 277 308 365
#     4   9  19  34  62  95 128 165 205 262 318 376
#
# _framework density 25.797574999999998
#
# number of rings (size 3 to 8) (size 9 to 14) (size 15 to 20)
#    0.000    2.333    0.000    3.500    7.000    4.000 
#    0.000    1.667    0.000    0.000    0.000    0.000 
#    0.000    0.000    0.000    0.000    0.000    0.000 
#
# Total GULP energy -268609.957990 kJ/mol
# GULP energy per Si atom -5596.040791 kJ/mol
# Density = 2.573886 g / cm^3
# Si number density = 25.797575 Si / 1000 Ang^3
#
#
#
# Elastic Constant Matrix: (Units=GPa)
#
#
# Indices 1 2 3 4 5 6 
#
# 1 71.3136 36.1117 14.3236 0.0000 0.0000 0.0000
# 2 36.1117 175.6236 35.1482 0.0000 0.0000 0.0000
# 3 14.3236 35.1482 64.3268 0.0000 0.0000 0.0000
# 4 0.0000 0.0000 0.0000 17.7742 0.0000 0.0000
# 5 0.0000 0.0000 0.0000 0.0000 28.5764 0.0000
# 6 0.0000 0.0000 0.0000 0.0000 0.0000 34.3290
#
#
#
# Elastic Compliance Matrix: (Units=1/GPa)
#
#
# Indices 1 2 3 4 5 6 
#
# 1 0.015871 -0.002870 -0.001966 0.000000 0.000000 0.000000
# 2 -0.002870 0.006912 -0.003138 0.000000 0.000000 0.000000
# 3 -0.001966 -0.003138 0.017698 0.000000 0.000000 0.000000
# 4 0.000000 0.000000 0.000000 0.056261 0.000000 0.000000
# 5 0.000000 0.000000 0.000000 0.000000 0.034994 0.000000
# 6 0.000000 0.000000 0.000000 0.000000 0.000000 0.029130
#
#
# Mechanical properties :
#
#
# Convention : Reuss Voigt Hill
#
# Bulk Modulus (GPa) = 40.76025 53.60343 47.18184
# Shear Modulus (GPa) = 27.02844 31.18129 29.10487
#
# Velocity S-wave (km/s) = 3.24035 3.48039 3.36252
# Velocity P-wave (km/s) = 5.46207 6.08066 5.77965
#
# Compressibility (1/GPa) = 0.02453371
#
# Stress axis : x y z
#
# Youngs Moduli (GPa) = 63.00934 144.67447 56.50426
#
# Poissons Ratio (x) = 0.41520 0.11107
# Poissons Ratio (y) = 0.18083 0.17729
# Poissons Ratio (z) = 0.12386 0.45395
#
# Static dielectric constant tensor:
#      x y z
#    x 2.009510 0.000000 0.000000 
#    y 0.000000 2.100350 0.000000 
#    z 0.000000 0.000000 2.025160 
# 
# From -- ./inp_files/38578.got.cif
#   From: 2010.05.17/outbox.cif.g08.bks.cpg/sg68_20_cif.got.tgz:38578.got - 2010.06.03 18:57:09.
