data_PCOD9510619
_publ_section_title
;
Structure prediction by ZEFSAII (Michael W. Deem and Ramdas Pophale) SiO2 
 PCOD9510619
Probable space group: C C C A
;
_chemical_formula_sum "Si O2"
_cell_formula_units_Z 56
_cell_length_a 19.815501
_cell_length_b 21.564087
_cell_length_c 5.037887
_cell_angle_alpha 90.000000
_cell_angle_beta 90.000000
_cell_angle_gamma 90.000000
_cell_volume 2152.705173
_symmetry_space_group_name_H-M "C C C A"
_symmetry_group_IT_number 68
_space_group.IT_coordinate_system_code '2'
_symmetry_cell_setting 'orthorhombic'
loop_
_space_group_symop_operation_xyz
x,y,z
-x,1/2-y,z
x,1/2-y,1/2-z
-x,y,1/2-z
-x,-y,-z
x,1/2+y,-z
-x,1/2+y,1/2+z
x,-y,1/2+z
1/2+x,1/2+y,z
1/2-x,-y,z
1/2+x,-y,1/2-z
1/2-x,1/2+y,1/2-z
1/2-x,1/2-y,-z
1/2+x,y,-z
1/2-x,y,1/2+z
1/2+x,1/2-y,1/2+z
loop_
_atom_site_type_symbol
_atom_site_label
_atom_site_fract_x
_atom_site_fract_y
_atom_site_fract_z
Si Si1 0.000000 0.432802 0.250000
Si Si2 0.296130 0.166782 0.611515
Si Si3 0.500000 0.847480 0.750000
Si Si4 0.650603 0.033074 0.746463
Si Si5 0.888664 0.250000 0.750000
O O1 0.015586 0.390222 0.502200
O O2 0.930542 0.469045 0.291363
O O3 0.233560 0.173020 0.407099
O O4 0.328775 0.098462 0.625740
O O5 0.347348 0.216470 0.484556
O O6 0.438458 0.804348 0.654354
O O7 0.675263 0.020020 0.448709
#
# Coordination Sequence:
#
# PCOD9510619 Si02
#       5
#     8  16   8  16   8
#     4  12  24  48  73 112 149 190 246 312 388 446
#     4  12  28  48  75 106 149 200 249 305 368 449
#     4  11  26  43  81 106 153 189 240 321 382 457
#     4  12  26  47  76 107 147 193 250 310 373 446
#     4  11  26  50  74 114 146 195 250 312 386 447
#
# _framework density 26.013780000000001
#
# number of rings (size 3 to 8) (size 9 to 14) (size 15 to 20)
#    0.000    0.286    2.857    5.143    4.000    8.000 
#    0.000    0.000    0.000    0.000    0.000    0.000 
#    0.000    0.000    0.000    0.000    0.000    0.000 
#
# Total GULP energy -156912.406874 kJ/mol
# GULP energy per Si atom -5604.014531 kJ/mol
# Density = 2.595457 g / cm^3
# Si number density = 26.013780 Si / 1000 Ang^3
#
#
#
# Elastic Constant Matrix: (Units=GPa)
#
#
# Indices 1 2 3 4 5 6 
#
# 1 101.1542 39.3394 -22.0013 0.0000 0.0000 0.0000
# 2 39.3394 113.4200 45.7542 0.0000 0.0000 0.0000
# 3 -22.0013 45.7542 79.8988 0.0000 0.0000 0.0000
# 4 0.0000 0.0000 0.0000 39.4688 0.0000 0.0000
# 5 0.0000 0.0000 0.0000 0.0000 20.5649 0.0000
# 6 0.0000 0.0000 0.0000 0.0000 0.0000 74.2287
#
#
#
# Elastic Compliance Matrix: (Units=1/GPa)
#
#
# Indices 1 2 3 4 5 6 
#
# 1 0.015584 -0.009280 0.009606 0.000000 0.000000 0.000000
# 2 -0.009280 0.016992 -0.012286 0.000000 0.000000 0.000000
# 3 0.009606 -0.012286 0.022197 0.000000 0.000000 0.000000
# 4 0.000000 0.000000 0.000000 0.025336 0.000000 0.000000
# 5 0.000000 0.000000 0.000000 0.000000 0.048627 0.000000
# 6 0.000000 0.000000 0.000000 0.000000 0.000000 0.013472
#
#
# Mechanical properties :
#
#
# Convention : Reuss Voigt Hill
#
# Bulk Modulus (GPa) = 32.41307 46.73973 39.57640
# Shear Modulus (GPa) = 28.34262 42.27786 35.31024
#
# Velocity S-wave (km/s) = 3.30437 4.03576 3.68824
# Velocity P-wave (km/s) = 5.20053 6.30260 5.77790
#
# Compressibility (1/GPa) = 0.03085175
#
# Stress axis : x y z
#
# Youngs Moduli (GPa) = 64.16668 58.85160 45.05209
#
# Poissons Ratio (x) = 0.54617 -0.43276
# Poissons Ratio (y) = 0.59550 0.55351
# Poissons Ratio (z) = -0.61638 0.72305
#
# Static dielectric constant tensor:
#      x y z
#    x 2.073630 0.000000 0.000000 
#    y 0.000000 2.031800 0.000000 
#    z 0.000000 0.000000 1.962880 
# 
# From -- ./inp_files/1371.got.cif
#   From: 2010.05.17/outbox.cif.g08.bks.cpg/sg68_1_cif.got.tgz:1371.got - 2010.06.03 18:57:09.
