data_PCOD9510514
_publ_section_title
;
Structure prediction by ZEFSAII (Michael W. Deem and Ramdas Pophale) SiO2 
 PCOD9510514
Probable space group: C C C A
;
_chemical_formula_sum "Si O2"
_cell_formula_units_Z 64
_cell_length_a 10.846629
_cell_length_b 15.744550
_cell_length_c 14.117143
_cell_angle_alpha 90.000000
_cell_angle_beta 90.000000
_cell_angle_gamma 90.000000
_cell_volume 2410.859227
_symmetry_space_group_name_H-M "C C C A"
_symmetry_group_IT_number 68
_space_group.IT_coordinate_system_code '2'
_symmetry_cell_setting 'orthorhombic'
loop_
_space_group_symop_operation_xyz
x,y,z
-x,1/2-y,z
x,1/2-y,1/2-z
-x,y,1/2-z
-x,-y,-z
x,1/2+y,-z
-x,1/2+y,1/2+z
x,-y,1/2+z
1/2+x,1/2+y,z
1/2-x,-y,z
1/2+x,-y,1/2-z
1/2-x,1/2+y,1/2-z
1/2-x,1/2-y,-z
1/2+x,y,-z
1/2-x,y,1/2+z
1/2+x,1/2-y,1/2+z
loop_
_atom_site_type_symbol
_atom_site_label
_atom_site_fract_x
_atom_site_fract_y
_atom_site_fract_z
Si Si1 0.868942 0.870281 0.707415
Si Si2 0.977010 0.469193 0.860796
Si Si3 0.707274 0.874600 0.896557
Si Si4 0.827013 0.692356 0.415406
O O1 0.780399 0.890004 0.797957
O O2 0.800262 0.801506 0.644371
O O3 0.000000 0.845246 0.750000
O O4 0.897206 0.945371 0.630088
O O5 0.899833 0.384631 0.870963
O O6 0.000000 0.476729 0.750000
O O7 0.109522 0.452123 0.909885
O O8 0.624672 0.787635 0.900915
O O9 0.799289 0.846288 0.980632
#
# Coordination Sequence:
#
# PCOD9510514 Si02
#       4
#    16  16  16  16
#     4  11  26  46  69 104 146 188 240 302 371 437
#     4  11  24  46  72 102 142 191 243 298 366 438
#     4  11  26  46  74 103 150 190 246 306 367 439
#     4  11  25  46  72 110 139 195 250 303 368 439
#
# _framework density 26.546551000000001
#
# number of rings (size 3 to 8) (size 9 to 14) (size 15 to 20)
#    0.000    1.000    2.500    2.250    7.000    4.000 
#   13.500    0.000    0.000    0.000    0.000    0.000 
#    0.000    0.000    0.000    0.000    0.000    0.000 
#
# Total GULP energy -178617.439827 kJ/mol
# GULP energy per Si atom -5581.794995 kJ/mol
# Density = 2.648613 g / cm^3
# Si number density = 26.546551 Si / 1000 Ang^3
#
#
#
# Elastic Constant Matrix: (Units=GPa)
#
#
# Indices 1 2 3 4 5 6 
#
# 1 55.9219 5.9917 7.5405 0.0000 0.0000 0.0000
# 2 5.9917 126.9554 1.6972 0.0000 0.0000 0.0000
# 3 7.5405 1.6972 114.4005 0.0000 0.0000 0.0000
# 4 0.0000 0.0000 0.0000 42.0780 0.0000 0.0000
# 5 0.0000 0.0000 0.0000 0.0000 -13.8412 0.0000
# 6 0.0000 0.0000 0.0000 0.0000 0.0000 39.4465
#
#
#
# Elastic Compliance Matrix: (Units=1/GPa)
#
#
# Indices 1 2 3 4 5 6 
#
# 1 0.018132 -0.000840 -0.001183 0.000000 0.000000 0.000000
# 2 -0.000840 0.007917 -0.000062 0.000000 0.000000 0.000000
# 3 -0.001183 -0.000062 0.008820 0.000000 0.000000 0.000000
# 4 0.000000 0.000000 0.000000 0.023765 0.000000 0.000000
# 5 0.000000 0.000000 0.000000 0.000000 -0.072248 0.000000
# 6 0.000000 0.000000 0.000000 0.000000 0.000000 0.025351
#
#
# Mechanical properties :
#
#
# Convention : Reuss Voigt Hill
#
# Bulk Modulus (GPa) = 32.57373 36.41516 34.49445
# Shear Modulus (GPa) = 191.28187 32.33990 111.81088
#
# Velocity S-wave (km/s) = 8.49775 3.49411 6.49694
# Velocity P-wave (km/s) = 10.42014 5.47956 8.32481
#
# Compressibility (1/GPa) = 0.03069958
#
# Stress axis : x y z
#
# Youngs Moduli (GPa) = 55.15254 126.30646 113.37743
#
# Poissons Ratio (x) = 0.10609 0.13409
# Poissons Ratio (y) = 0.04632 0.00704
# Poissons Ratio (z) = 0.06523 0.00784
#
# Static dielectric constant tensor:
#      x y z
#    x 2.185810 0.000000 0.000000 
#    y 0.000000 2.424460 0.000000 
#    z 0.000000 0.000000 2.039450 
# 
# From -- ./inp_files/20436.got.cif
#   From: 2010.05.17/outbox.cif.g08.bks.cpg/sg68_11_cif.got.tgz:20436.got - 2010.06.03 18:57:09.
