data_PCOD9510298
_publ_section_title
;
Structure prediction by ZEFSAII (Michael W. Deem and Ramdas Pophale) SiO2 
 PCOD9510298
Probable space group: C C C A
;
_chemical_formula_sum "Si O2"
_cell_formula_units_Z 64
_cell_length_a 12.950652
_cell_length_b 12.779794
_cell_length_c 17.634767
_cell_angle_alpha 90.000000
_cell_angle_beta 90.000000
_cell_angle_gamma 90.000000
_cell_volume 2918.671469
_symmetry_space_group_name_H-M "C C C A"
_symmetry_group_IT_number 68
_space_group.IT_coordinate_system_code '2'
_symmetry_cell_setting 'orthorhombic'
loop_
_space_group_symop_operation_xyz
x,y,z
-x,1/2-y,z
x,1/2-y,1/2-z
-x,y,1/2-z
-x,-y,-z
x,1/2+y,-z
-x,1/2+y,1/2+z
x,-y,1/2+z
1/2+x,1/2+y,z
1/2-x,-y,z
1/2+x,-y,1/2-z
1/2-x,1/2+y,1/2-z
1/2-x,1/2-y,-z
1/2+x,y,-z
1/2-x,y,1/2+z
1/2+x,1/2-y,1/2+z
loop_
_atom_site_type_symbol
_atom_site_label
_atom_site_fract_x
_atom_site_fract_y
_atom_site_fract_z
Si Si1 0.643331 0.547743 0.689484
Si Si2 0.392686 0.808695 0.442335
Si Si3 0.917081 0.522896 0.361160
Si Si4 0.328461 0.751579 0.608458
O O1 0.750000 0.500000 0.659801
O O2 0.540481 0.515888 0.645643
O O3 0.627783 0.511813 0.776061
O O4 0.647565 0.672850 0.678632
O O5 0.500000 0.750000 0.423556
O O6 0.374539 0.802188 0.532203
O O7 0.294526 0.754598 0.402614
O O8 0.386785 0.928149 0.414964
O O9 0.877442 0.636504 0.386361
#
# Coordination Sequence:
#
# PCOD9510298 Si02
#       4
#    16  16  16  16
#     4  11  23  41  66  95 127 166 211 262 320 383
#     4  11  24  42  65  95 130 167 210 264 322 380
#     4  11  24  43  65  93 129 168 212 263 319 380
#     4  11  24  41  67  95 126 168 213 263 317 383
#
# _framework density 21.927786000000001
#
# number of rings (size 3 to 8) (size 9 to 14) (size 15 to 20)
#    0.000    1.000    0.000    6.750    0.000   10.000 
#    0.000    7.500    0.000    0.000    0.000    0.000 
#    0.000    0.000    0.000    0.000    0.000    0.000 
#
# Total GULP energy -179027.876425 kJ/mol
# GULP energy per Si atom -5594.621138 kJ/mol
# Density = 2.187788 g / cm^3
# Si number density = 21.927786 Si / 1000 Ang^3
#
#
#
# Elastic Constant Matrix: (Units=GPa)
#
#
# Indices 1 2 3 4 5 6 
#
# 1 148.8277 24.2535 17.9559 0.0000 0.0000 0.0000
# 2 24.2535 125.2062 26.3585 0.0000 0.0000 0.0000
# 3 17.9559 26.3585 22.3964 0.0000 0.0000 0.0000
# 4 0.0000 0.0000 0.0000 39.8704 0.0000 0.0000
# 5 0.0000 0.0000 0.0000 0.0000 8.3704 0.0000
# 6 0.0000 0.0000 0.0000 0.0000 0.0000 28.0206
#
#
#
# Elastic Compliance Matrix: (Units=1/GPa)
#
#
# Indices 1 2 3 4 5 6 
#
# 1 0.007444 -0.000247 -0.005678 0.000000 0.000000 0.000000
# 2 -0.000247 0.010626 -0.012308 0.000000 0.000000 0.000000
# 3 -0.005678 -0.012308 0.063687 0.000000 0.000000 0.000000
# 4 0.000000 0.000000 0.000000 0.025081 0.000000 0.000000
# 5 0.000000 0.000000 0.000000 0.000000 0.119469 0.000000
# 6 0.000000 0.000000 0.000000 0.000000 0.000000 0.035688
#
#
# Mechanical properties :
#
#
# Convention : Reuss Voigt Hill
#
# Bulk Modulus (GPa) = 22.07872 48.17401 35.12636
# Shear Modulus (GPa) = 15.94605 30.44310 23.19458
#
# Velocity S-wave (km/s) = 2.69960 3.73008 3.25587
# Velocity P-wave (km/s) = 4.45060 6.36933 5.49437
#
# Compressibility (1/GPa) = 0.04529248
#
# Stress axis : x y z
#
# Youngs Moduli (GPa) = 134.32849 94.11230 15.70177
#
# Poissons Ratio (x) = 0.02322 0.08916
# Poissons Ratio (y) = 0.03314 0.19325
# Poissons Ratio (z) = 0.76273 1.15829
#
# Static dielectric constant tensor:
#      x y z
#    x 1.812630 0.000000 0.000000 
#    y 0.000000 1.784840 0.000000 
#    z 0.000000 0.000000 1.778030 
# 
# From -- ./inp_files/29126.got.cif
#   From: 2010.05.17/outbox.cif.g08.bks.cpg/sg68_15_cif.got.tgz:29126.got - 2010.06.03 18:57:09.
