data_PCOD9510220
_publ_section_title
;
Structure prediction by ZEFSAII (Michael W. Deem and Ramdas Pophale) SiO2 
 PCOD9510220
Probable space group: C C C A
;
_chemical_formula_sum "Si O2"
_cell_formula_units_Z 36
_cell_length_a 4.480138
_cell_length_b 29.312257
_cell_length_c 10.803802
_cell_angle_alpha 90.000000
_cell_angle_beta 90.000000
_cell_angle_gamma 90.000000
_cell_volume 1418.787220
_symmetry_space_group_name_H-M "C C C A"
_symmetry_group_IT_number 68
_space_group.IT_coordinate_system_code '2'
_symmetry_cell_setting 'orthorhombic'
loop_
_space_group_symop_operation_xyz
x,y,z
-x,1/2-y,z
x,1/2-y,1/2-z
-x,y,1/2-z
-x,-y,-z
x,1/2+y,-z
-x,1/2+y,1/2+z
x,-y,1/2+z
1/2+x,1/2+y,z
1/2-x,-y,z
1/2+x,-y,1/2-z
1/2-x,1/2+y,1/2-z
1/2-x,1/2-y,-z
1/2+x,y,-z
1/2-x,y,1/2+z
1/2+x,1/2-y,1/2+z
loop_
_atom_site_type_symbol
_atom_site_label
_atom_site_fract_x
_atom_site_fract_y
_atom_site_fract_z
Si Si1 0.500000 0.096990 0.750000
Si Si2 0.150159 0.821588 0.914337
Si Si3 0.000000 0.967308 0.250000
Si Si4 0.000000 0.250000 0.750000
O O1 0.331487 0.130193 0.845440
O O2 0.241288 0.066226 0.686081
O O3 0.285564 0.782177 0.831373
O O4 0.306085 0.818395 0.047909
O O5 0.750000 0.000000 0.183688
#
# Coordination Sequence:
#
# PCOD9510220 Si02
#       4
#     8  16   8   4
#     4  11  22  43  67  97 136 175 223 277 338 401
#     4  12  26  43  68  98 136 182 229 279 332 395
#     4   9  19  38  72 100 126 174 218 270 347 407
#     4  12  26  46  66 100 140 182 234 282 330 388
#
# _framework density 25.373781999999999
#
# number of rings (size 3 to 8) (size 9 to 14) (size 15 to 20)
#    0.000    0.889    0.000    8.000    0.000    6.222 
#    0.000    0.000    0.000   93.333    0.000    0.000 
#    0.000    0.000    0.000    0.000    0.000    0.000 
#
# Total GULP energy -100374.028868 kJ/mol
# GULP energy per Si atom -5576.334937 kJ/mol
# Density = 2.531603 g / cm^3
# Si number density = 25.373782 Si / 1000 Ang^3
#
#
#
# Elastic Constant Matrix: (Units=GPa)
#
#
# Indices 1 2 3 4 5 6 
#
# 1 162.4656 90.7240 25.8782 0.0000 0.0000 0.0000
# 2 90.7240 166.2941 39.5778 0.0000 0.0000 0.0000
# 3 25.8782 39.5778 64.1389 0.0000 0.0000 0.0000
# 4 0.0000 0.0000 0.0000 -6.2117 0.0000 0.0000
# 5 0.0000 0.0000 0.0000 0.0000 37.6200 0.0000
# 6 0.0000 0.0000 0.0000 0.0000 0.0000 103.9607
#
#
#
# Elastic Compliance Matrix: (Units=1/GPa)
#
#
# Indices 1 2 3 4 5 6 
#
# 1 0.008878 -0.004678 -0.000695 0.000000 0.000000 0.000000
# 2 -0.004678 0.009514 -0.003983 0.000000 0.000000 0.000000
# 3 -0.000695 -0.003983 0.018330 0.000000 0.000000 0.000000
# 4 0.000000 0.000000 0.000000 -0.160987 0.000000 0.000000
# 5 0.000000 0.000000 0.000000 0.000000 0.026582 0.000000
# 6 0.000000 0.000000 0.000000 0.000000 0.000000 0.009619
#
#
# Mechanical properties :
#
#
# Convention : Reuss Voigt Hill
#
# Bulk Modulus (GPa) = 55.53005 78.36207 66.94606
# Shear Modulus (GPa) = -78.92773 42.85504 -18.03635
#
# Velocity S-wave (km/s) = -5.58333 4.11414 -2.66902
# Velocity P-wave (km/s) = 4.43085 7.31562 4.11618
#
# Compressibility (1/GPa) = 0.01800827
#
# Stress axis : x y z
#
# Youngs Moduli (GPa) = 112.63425 105.11234 54.55677
#
# Poissons Ratio (x) = 0.49173 0.03794
# Poissons Ratio (y) = 0.52692 0.21730
# Poissons Ratio (z) = 0.07833 0.41866
#
# Static dielectric constant tensor:
#      x y z
#    x 1.963970 0.000000 0.000000 
#    y 0.000000 2.078850 0.000000 
#    z 0.000000 0.000000 1.923410 
# 
# From -- ./inp_files/9987.got.cif
#   From: 2010.05.17/outbox.cif.g08.bks.cpg/sg68_5_cif.got.tgz:9987.got - 2010.06.03 18:57:09.
