data_PCOD9510146
_publ_section_title
;
Structure prediction by ZEFSAII (Michael W. Deem and Ramdas Pophale) SiO2 
 PCOD9510146
Probable space group: C C C A
;
_chemical_formula_sum "Si O2"
_cell_formula_units_Z 56
_cell_length_a 18.272437
_cell_length_b 5.204864
_cell_length_c 28.334985
_cell_angle_alpha 90.000000
_cell_angle_beta 90.000000
_cell_angle_gamma 90.000000
_cell_volume 2694.814319
_symmetry_space_group_name_H-M "C C C A"
_symmetry_group_IT_number 68
_space_group.IT_coordinate_system_code '2'
_symmetry_cell_setting 'orthorhombic'
loop_
_space_group_symop_operation_xyz
x,y,z
-x,1/2-y,z
x,1/2-y,1/2-z
-x,y,1/2-z
-x,-y,-z
x,1/2+y,-z
-x,1/2+y,1/2+z
x,-y,1/2+z
1/2+x,1/2+y,z
1/2-x,-y,z
1/2+x,-y,1/2-z
1/2-x,1/2+y,1/2-z
1/2-x,1/2-y,-z
1/2+x,y,-z
1/2-x,y,1/2+z
1/2+x,1/2-y,1/2+z
loop_
_atom_site_type_symbol
_atom_site_label
_atom_site_fract_x
_atom_site_fract_y
_atom_site_fract_z
Si Si1 0.952396 0.992238 0.159225
Si Si2 0.250000 0.500000 0.307490
Si Si3 0.750000 0.500000 0.033461
Si Si4 0.876005 0.250000 0.750000
Si Si5 0.188196 0.689088 0.608289
O O1 0.887263 0.057836 0.122840
O O2 0.000000 0.250000 0.165089
O O3 0.921237 0.899440 0.210055
O O4 0.000000 0.750000 0.142081
O O5 0.179628 0.562998 0.276867
O O6 0.223950 0.279771 0.342651
O O7 0.814732 0.426871 0.071382
O O8 0.750000 0.250000 0.000000
O O9 0.250000 0.500000 0.588451
#
# Coordination Sequence:
#
# PCOD9510146 Si02
#       5
#    16   8   8   8  16
#     4  12  28  44  63  97 142 190 232 282 336 397
#     4  11  22  38  65  96 132 182 243 292 336 381
#     4  11  24  42  79 114 128 156 221 296 346 417
#     4  12  23  40  64  96 139 190 248 292 325 378
#     4  11  23  45  70  98 135 180 223 280 349 412
#
# _framework density 20.780652
#
# number of rings (size 3 to 8) (size 9 to 14) (size 15 to 20)
#    0.000    0.571    4.286    3.857    4.000    6.857 
#    0.000    0.000    0.000    5.143    0.000    0.000 
#    0.000    0.000    0.000    0.000    0.000    0.000 
#
# Total GULP energy -156304.634704 kJ/mol
# GULP energy per Si atom -5582.308382 kJ/mol
# Density = 2.073335 g / cm^3
# Si number density = 20.780652 Si / 1000 Ang^3
#
#
#
# Elastic Constant Matrix: (Units=GPa)
#
#
# Indices 1 2 3 4 5 6 
#
# 1 140.7455 81.5542 57.3219 0.0000 0.0000 0.0000
# 2 81.5542 157.1280 60.7715 0.0000 0.0000 0.0000
# 3 57.3219 60.7715 122.0035 0.0000 0.0000 0.0000
# 4 0.0000 0.0000 0.0000 62.9962 0.0000 0.0000
# 5 0.0000 0.0000 0.0000 0.0000 -3.1391 0.0000
# 6 0.0000 0.0000 0.0000 0.0000 0.0000 55.1647
#
#
#
# Elastic Compliance Matrix: (Units=1/GPa)
#
#
# Indices 1 2 3 4 5 6 
#
# 1 0.010909 -0.004558 -0.002855 0.000000 0.000000 0.000000
# 2 -0.004558 0.009787 -0.002734 0.000000 0.000000 0.000000
# 3 -0.002855 -0.002734 0.010900 0.000000 0.000000 0.000000
# 4 0.000000 0.000000 0.000000 0.015874 0.000000 0.000000
# 5 0.000000 0.000000 0.000000 0.000000 -0.318560 0.000000
# 6 0.000000 0.000000 0.000000 0.000000 0.000000 0.018128
#
#
# Mechanical properties :
#
#
# Convention : Reuss Voigt Hill
#
# Bulk Modulus (GPa) = 88.47626 91.01911 89.74769
# Shear Modulus (GPa) = -21.84336 37.68632 7.92148
#
# Velocity S-wave (km/s) = -3.24565 4.26318 1.95454
# Velocity P-wave (km/s) = 5.35005 8.25396 6.95525
#
# Compressibility (1/GPa) = 0.01130247
#
# Stress axis : x y z
#
# Youngs Moduli (GPa) = 91.66929 102.17493 91.74643
#
# Poissons Ratio (x) = 0.46569 0.26194
# Poissons Ratio (y) = 0.41780 0.25081
# Poissons Ratio (z) = 0.26172 0.27932
#
# Static dielectric constant tensor:
#      x y z
#    x 1.822170 0.000000 0.000000 
#    y 0.000000 1.817030 0.000000 
#    z 0.000000 0.000000 1.813730 
# 
# From -- ./inp_files/48014.got.cif
#   From: 2010.05.17/outbox.cif.g08.bks.cpg/sg68_25_cif.got.tgz:48014.got - 2010.06.03 18:57:09.
