data_PCOD9510053
_publ_section_title
;
Structure prediction by ZEFSAII (Michael W. Deem and Ramdas Pophale) SiO2 
 PCOD9510053
Probable space group: C C C A
;
_chemical_formula_sum "Si O2"
_cell_formula_units_Z 64
_cell_length_a 10.328159
_cell_length_b 15.414046
_cell_length_c 19.065215
_cell_angle_alpha 90.000000
_cell_angle_beta 90.000000
_cell_angle_gamma 90.000000
_cell_volume 3035.157785
_symmetry_space_group_name_H-M "C C C A"
_symmetry_group_IT_number 68
_space_group.IT_coordinate_system_code '2'
_symmetry_cell_setting 'orthorhombic'
loop_
_space_group_symop_operation_xyz
x,y,z
-x,1/2-y,z
x,1/2-y,1/2-z
-x,y,1/2-z
-x,-y,-z
x,1/2+y,-z
-x,1/2+y,1/2+z
x,-y,1/2+z
1/2+x,1/2+y,z
1/2-x,-y,z
1/2+x,-y,1/2-z
1/2-x,1/2+y,1/2-z
1/2-x,1/2-y,-z
1/2+x,y,-z
1/2-x,y,1/2+z
1/2+x,1/2-y,1/2+z
loop_
_atom_site_type_symbol
_atom_site_label
_atom_site_fract_x
_atom_site_fract_y
_atom_site_fract_z
Si Si1 0.439140 0.342232 0.462727
Si Si2 0.892375 0.898808 0.804600
Si Si3 0.326390 0.091297 0.537978
Si Si4 0.105829 0.608785 0.303067
O O1 0.500000 0.250000 0.480078
O O2 0.550058 0.409233 0.487535
O O3 0.294265 0.353757 0.492717
O O4 0.417482 0.353664 0.379875
O O5 0.883570 0.875275 0.887334
O O6 0.750621 0.874178 0.776983
O O7 0.000000 0.866348 0.750000
O O8 0.905511 0.003803 0.807216
O O9 0.250000 0.000000 0.550081
O O10 0.000000 0.642149 0.250000
#
# Coordination Sequence:
#
# PCOD9510053 Si02
#       4
#    16  16  16  16
#     4  11  23  38  58  86 123 158 192 243 298 348
#     4   9  17  33  56  84 112 141 188 247 285 331
#     4  11  21  39  60  88 118 153 200 243 285 351
#     4   9  18  34  53  83 114 147 190 239 290 344
#
# _framework density 21.086217999999999
#
# number of rings (size 3 to 8) (size 9 to 14) (size 15 to 20)
#    0.000    2.000    5.000    1.500    0.000    2.500 
#    4.500    0.000    0.000    3.750    0.000    0.000 
#    0.000    0.000    0.000    0.000    0.000    0.000 
#
# Total GULP energy -178324.136624 kJ/mol
# GULP energy per Si atom -5572.629269 kJ/mol
# Density = 2.103822 g / cm^3
# Si number density = 21.086218 Si / 1000 Ang^3
#
#
#
# Elastic Constant Matrix: (Units=GPa)
#
#
# Indices 1 2 3 4 5 6 
#
# 1 158.6585 23.2329 60.7820 0.0000 0.0000 0.0000
# 2 23.2329 52.1133 -2.2993 0.0000 0.0000 0.0000
# 3 60.7820 -2.2993 49.7832 0.0000 0.0000 0.0000
# 4 0.0000 0.0000 0.0000 3.5708 0.0000 0.0000
# 5 0.0000 0.0000 0.0000 0.0000 48.2915 0.0000
# 6 0.0000 0.0000 0.0000 0.0000 0.0000 16.3931
#
#
#
# Elastic Compliance Matrix: (Units=1/GPa)
#
#
# Indices 1 2 3 4 5 6 
#
# 1 0.014004 -0.007012 -0.017422 0.000000 0.000000 0.000000
# 2 -0.007012 0.022739 0.009611 0.000000 0.000000 0.000000
# 3 -0.017422 0.009611 0.041802 0.000000 0.000000 0.000000
# 4 0.000000 0.000000 0.000000 0.280048 0.000000 0.000000
# 5 0.000000 0.000000 0.000000 0.000000 0.020708 0.000000
# 6 0.000000 0.000000 0.000000 0.000000 0.000000 0.061001
#
#
# Mechanical properties :
#
#
# Convention : Reuss Voigt Hill
#
# Bulk Modulus (GPa) = 20.44990 47.10958 33.77974
# Shear Modulus (GPa) = 10.28288 25.57370 17.92829
#
# Velocity S-wave (km/s) = 2.21070 3.48633 2.91905
# Velocity P-wave (km/s) = 4.02933 6.21256 5.23600
#
# Compressibility (1/GPa) = 0.04890000
#
# Stress axis : x y z
#
# Youngs Moduli (GPa) = 71.40911 43.97736 23.92250
#
# Poissons Ratio (x) = 0.30836 0.41677
# Poissons Ratio (y) = 0.50071 -0.22992
# Poissons Ratio (z) = 1.24406 -0.42267
#
# Static dielectric constant tensor:
#      x y z
#    x 1.782610 0.000000 0.000000 
#    y 0.000000 1.861940 0.000000 
#    z 0.000000 0.000000 1.729350 
# 
# From -- ./inp_files/35740.got.cif
#   From: 2010.05.17/outbox.cif.g08.bks.cpg/sg68_18_cif.got.tgz:35740.got - 2010.06.03 18:57:09.
