data_PCOD9510651
_publ_section_title
;
Structure prediction by ZEFSAII (Michael W. Deem and Ramdas Pophale) SiO2 
 PCOD9510651
Probable space group: C C C A
;
_chemical_formula_sum "Si O2"
_cell_formula_units_Z 112
_cell_length_a 14.442507
_cell_length_b 14.439824
_cell_length_c 25.064718
_cell_angle_alpha 90.000000
_cell_angle_beta 90.000000
_cell_angle_gamma 90.000000
_cell_volume 5227.178241
_symmetry_space_group_name_H-M "C C C A"
_symmetry_group_IT_number 68
_space_group.IT_coordinate_system_code '2'
_symmetry_cell_setting 'orthorhombic'
loop_
_space_group_symop_operation_xyz
x,y,z
-x,1/2-y,z
x,1/2-y,1/2-z
-x,y,1/2-z
-x,-y,-z
x,1/2+y,-z
-x,1/2+y,1/2+z
x,-y,1/2+z
1/2+x,1/2+y,z
1/2-x,-y,z
1/2+x,-y,1/2-z
1/2-x,1/2+y,1/2-z
1/2-x,1/2-y,-z
1/2+x,y,-z
1/2-x,y,1/2+z
1/2+x,1/2-y,1/2+z
loop_
_atom_site_type_symbol
_atom_site_label
_atom_site_fract_x
_atom_site_fract_y
_atom_site_fract_z
Si Si1 0.974064 0.509165 0.619050
Si Si2 0.351894 0.857062 0.382644
Si Si3 0.103233 0.993216 0.229524
Si Si4 0.723065 0.894411 0.001501
Si Si5 0.023671 0.651422 0.458938
Si Si6 0.245078 0.855699 0.769243
Si Si7 0.893113 0.669302 0.559167
O O1 0.920410 0.465601 0.668867
O O2 0.008698 0.433069 0.577119
O O3 0.898701 0.577272 0.593543
O O4 0.062490 0.574698 0.630819
O O5 0.297003 0.888513 0.435485
O O6 0.287151 0.854731 0.330852
O O7 0.390826 0.756836 0.401525
O O8 0.159673 0.912303 0.259692
O O9 0.000000 0.012612 0.250000
O O10 0.167436 0.084341 0.236863
O O11 0.750000 0.000000 0.989970
O O12 0.630802 0.865340 0.970464
O O13 0.804841 0.831132 0.979139
O O14 0.000000 0.750000 0.433217
O O15 0.976422 0.655890 0.517067
O O16 0.250804 0.750000 0.750000
#
# Coordination Sequence:
#
# PCOD9510651 Si02
#       7
#    16  16  16  16  16  16  16
#     4  12  24  46  77 103 146 203 243 301 386 440
#     4  12  25  45  77 106 144 197 248 303 375 446
#     4  11  26  51  75 109 149 186 251 326 371 444
#     4  12  25  43  71 105 154 196 237 300 374 443
#     4  12  25  46  68 108 152 192 245 299 358 464
#     4  11  27  51  78 108 145 190 259 316 377 445
#     4  12  24  45  71 114 154 193 244 307 365 461
#
# _framework density 21.426473999999999
#
# number of rings (size 3 to 8) (size 9 to 14) (size 15 to 20)
#    0.000    0.286    5.714    3.000    2.000    5.143 
#    2.571    0.000    0.000    0.000    0.000    0.000 
#    0.000    0.000    0.000    0.000    0.000    0.000 
#
# Total GULP energy -313064.465497 kJ/mol
# GULP energy per Si atom -5590.436884 kJ/mol
# Density = 2.137771 g / cm^3
# Si number density = 21.426474 Si / 1000 Ang^3
#
#
#
# Elastic Constant Matrix: (Units=GPa)
#
#
# Indices 1 2 3 4 5 6 
#
# 1 83.8192 18.8274 3.0421 0.0000 0.0000 0.0000
# 2 18.8274 134.0838 27.6196 0.0000 0.0000 0.0000
# 3 3.0421 27.6196 77.1078 0.0000 0.0000 0.0000
# 4 0.0000 0.0000 0.0000 22.0775 0.0000 0.0000
# 5 0.0000 0.0000 0.0000 0.0000 134.1387 0.0000
# 6 0.0000 0.0000 0.0000 0.0000 0.0000 30.8283
#
#
#
# Elastic Compliance Matrix: (Units=1/GPa)
#
#
# Indices 1 2 3 4 5 6 
#
# 1 0.012320 -0.001760 0.000144 0.000000 0.000000 0.000000
# 2 -0.001760 0.008303 -0.002905 0.000000 0.000000 0.000000
# 3 0.000144 -0.002905 0.014004 0.000000 0.000000 0.000000
# 4 0.000000 0.000000 0.000000 0.045295 0.000000 0.000000
# 5 0.000000 0.000000 0.000000 0.000000 0.007455 0.000000
# 6 0.000000 0.000000 0.000000 0.000000 0.000000 0.032438
#
#
# Mechanical properties :
#
#
# Convention : Reuss Voigt Hill
#
# Bulk Modulus (GPa) = 39.08232 43.77655 41.42944
# Shear Modulus (GPa) = 36.39409 53.77700 45.08555
#
# Velocity S-wave (km/s) = 4.12583 5.01526 4.59213
# Velocity P-wave (km/s) = 6.40128 7.34933 6.89162
#
# Compressibility (1/GPa) = 0.02558702
#
# Stress axis : x y z
#
# Youngs Moduli (GPa) = 81.16580 120.43162 71.40994
#
# Poissons Ratio (x) = 0.21192 -0.01030
# Poissons Ratio (y) = 0.14283 0.20743
# Poissons Ratio (z) = -0.01171 0.34983
#
# Static dielectric constant tensor:
#      x y z
#    x 1.814630 0.000000 0.000000 
#    y 0.000000 1.805850 0.000000 
#    z 0.000000 0.000000 1.792330 
# 
# From -- ./inp_files/45557.got.cif
#   From: 2010.05.17/outbox.cif.g08.bks.cpg/sg68_23_cif.got.tgz:45557.got - 2010.06.03 18:57:09.
