data_PCOD9510395
_publ_section_title
;
Structure prediction by ZEFSAII (Michael W. Deem and Ramdas Pophale) SiO2 
 PCOD9510395
Probable space group: C C C A
;
_chemical_formula_sum "Si O2"
_cell_formula_units_Z 56
_cell_length_a 10.636467
_cell_length_b 10.911688
_cell_length_c 19.430550
_cell_angle_alpha 90.000000
_cell_angle_beta 90.000000
_cell_angle_gamma 90.000000
_cell_volume 2255.144789
_symmetry_space_group_name_H-M "C C C A"
_symmetry_group_IT_number 68
_space_group.IT_coordinate_system_code '2'
_symmetry_cell_setting 'orthorhombic'
loop_
_space_group_symop_operation_xyz
x,y,z
-x,1/2-y,z
x,1/2-y,1/2-z
-x,y,1/2-z
-x,-y,-z
x,1/2+y,-z
-x,1/2+y,1/2+z
x,-y,1/2+z
1/2+x,1/2+y,z
1/2-x,-y,z
1/2+x,-y,1/2-z
1/2-x,1/2+y,1/2-z
1/2-x,1/2-y,-z
1/2+x,y,-z
1/2-x,y,1/2+z
1/2+x,1/2-y,1/2+z
loop_
_atom_site_type_symbol
_atom_site_label
_atom_site_fract_x
_atom_site_fract_y
_atom_site_fract_z
Si Si1 0.920125 0.629153 0.836922
Si Si2 0.785155 0.750000 0.250000
Si Si3 0.615695 0.573405 0.640526
Si Si4 0.329444 0.374634 0.507813
O O1 0.800136 0.646472 0.788122
O O2 0.000000 0.750000 0.822732
O O3 0.006718 0.511098 0.829293
O O4 0.891450 0.634431 0.917978
O O5 0.861660 0.687879 0.189254
O O6 0.750000 0.500000 0.638708
O O7 0.588095 0.611255 0.561469
O O8 0.250000 0.500000 0.510380
O O9 0.250000 0.250000 0.500000
#
# Coordination Sequence:
#
# PCOD9510395 Si02
#       4
#    16   8  16  16
#     4  12  24  47  80 106 150 206 253 317 398 452
#     4  12  25  48  76 109 166 197 258 315 396 476
#     4  11  24  44  76 109 150 202 260 312 390 469
#     4  11  23  48  78 112 147 198 261 328 380 458
#
# _framework density 24.832108000000002
#
# number of rings (size 3 to 8) (size 9 to 14) (size 15 to 20)
#    0.000    0.571    5.714    3.000    0.000    1.143 
#    0.000    0.000   31.429    0.000    0.000    0.000 
#    0.000    0.000    0.000    0.000    0.000    0.000 
#
# Total GULP energy -157022.914881 kJ/mol
# GULP energy per Si atom -5607.961246 kJ/mol
# Density = 2.477559 g / cm^3
# Si number density = 24.832108 Si / 1000 Ang^3
#
#
#
# Elastic Constant Matrix: (Units=GPa)
#
#
# Indices 1 2 3 4 5 6 
#
# 1 76.2839 52.0635 51.9716 0.0000 0.0000 0.0000
# 2 52.0635 132.9896 42.1711 0.0000 0.0000 0.0000
# 3 51.9716 42.1711 241.1118 0.0000 0.0000 0.0000
# 4 0.0000 0.0000 0.0000 375.8083 0.0000 0.0000
# 5 0.0000 0.0000 0.0000 0.0000 32.6101 0.0000
# 6 0.0000 0.0000 0.0000 0.0000 0.0000 50.2201
#
#
#
# Elastic Compliance Matrix: (Units=1/GPa)
#
#
# Indices 1 2 3 4 5 6 
#
# 1 0.019849 -0.006791 -0.003091 0.000000 0.000000 0.000000
# 2 -0.006791 0.010284 -0.000335 0.000000 0.000000 0.000000
# 3 -0.003091 -0.000335 0.004872 0.000000 0.000000 0.000000
# 4 0.000000 0.000000 0.000000 0.002661 0.000000 0.000000
# 5 0.000000 0.000000 0.000000 0.000000 0.030665 0.000000
# 6 0.000000 0.000000 0.000000 0.000000 0.000000 0.019912
#
#
# Mechanical properties :
#
#
# Convention : Reuss Voigt Hill
#
# Bulk Modulus (GPa) = 68.62125 82.53306 75.57716
# Shear Modulus (GPa) = 44.03952 112.00631 78.02291
#
# Velocity S-wave (km/s) = 4.21585 6.72334 5.61145
# Velocity P-wave (km/s) = 7.16882 9.67366 8.51386
#
# Compressibility (1/GPa) = 0.01457275
#
# Stress axis : x y z
#
# Youngs Moduli (GPa) = 50.37988 97.23820 205.24328
#
# Poissons Ratio (x) = 0.66030 0.63437
# Poissons Ratio (y) = 0.34211 0.06876
# Poissons Ratio (z) = 0.15571 0.03257
#
# Static dielectric constant tensor:
#      x y z
#    x 2.071500 0.000000 0.000000 
#    y 0.000000 1.891090 0.000000 
#    z 0.000000 0.000000 1.949660 
# 
# From -- ./inp_files/31472.got.cif
#   From: 2010.05.17/outbox.cif.g08.bks.cpg/sg68_16_cif.got.tgz:31472.got - 2010.06.03 18:57:09.
