data_PCOD9510893
_publ_section_title
;
Structure prediction by ZEFSAII (Michael W. Deem and Ramdas Pophale) SiO2 
 PCOD9510893
Probable space group: C C C A
;
_chemical_formula_sum "Si O2"
_cell_formula_units_Z 64
_cell_length_a 27.298476
_cell_length_b 9.741244
_cell_length_c 9.915585
_cell_angle_alpha 90.000000
_cell_angle_beta 90.000000
_cell_angle_gamma 90.000000
_cell_volume 2636.763424
_symmetry_space_group_name_H-M "C C C A"
_symmetry_group_IT_number 68
_space_group.IT_coordinate_system_code '2'
_symmetry_cell_setting 'orthorhombic'
loop_
_space_group_symop_operation_xyz
x,y,z
-x,1/2-y,z
x,1/2-y,1/2-z
-x,y,1/2-z
-x,-y,-z
x,1/2+y,-z
-x,1/2+y,1/2+z
x,-y,1/2+z
1/2+x,1/2+y,z
1/2-x,-y,z
1/2+x,-y,1/2-z
1/2-x,1/2+y,1/2-z
1/2-x,1/2-y,-z
1/2+x,y,-z
1/2-x,y,1/2+z
1/2+x,1/2-y,1/2+z
loop_
_atom_site_type_symbol
_atom_site_label
_atom_site_fract_x
_atom_site_fract_y
_atom_site_fract_z
Si Si1 0.593583 0.250000 0.250000
Si Si2 0.188489 0.750000 0.750000
Si Si3 0.784978 0.384470 0.472143
Si Si4 0.633412 0.896372 0.487295
Si Si5 0.534205 0.004371 0.870505
O O1 0.625545 0.331602 0.363270
O O2 0.558018 0.360278 0.177635
O O3 0.215363 0.619918 0.690931
O O4 0.160978 0.793001 0.613420
O O5 0.750000 0.500000 0.527664
O O6 0.750000 0.250000 0.500000
O O7 0.837911 0.457719 0.509602
O O8 0.580874 0.909983 0.417222
O O9 0.500000 0.057681 0.750000
O O10 0.500000 0.000000 0.000000
#
# Coordination Sequence:
#
# PCOD9510893 Si02
#       5
#     8   8  16  16  16
#     4  12  27  53  80 121 180 223 284 369 435 524
#     4  12  28  49  81 121 154 219 279 343 418 514
#     4  12  28  53  81 121 169 216 278 354 438 515
#     4  12  28  52  85 122 168 225 288 356 432 527
#     4  12  27  49  79 122 168 229 288 352 440 510
#
# _framework density 24.272182000000001
#
# number of rings (size 3 to 8) (size 9 to 14) (size 15 to 20)
#    0.000    0.000    5.000    3.375    7.000    1.000 
#    0.000    0.000    0.000    0.000    0.000    0.000 
#    0.000    0.000    0.000    0.000    0.000    0.000 
#
# Total GULP energy -178174.806264 kJ/mol
# GULP energy per Si atom -5567.962696 kJ/mol
# Density = 2.421694 g / cm^3
# Si number density = 24.272182 Si / 1000 Ang^3
#
#
#
# Elastic Constant Matrix: (Units=GPa)
#
#
# Indices 1 2 3 4 5 6 
#
# 1 159.0688 44.5481 79.7040 0.0000 0.0000 0.0000
# 2 44.5481 136.5238 55.4780 0.0000 0.0000 0.0000
# 3 79.7040 55.4780 195.7067 0.0000 0.0000 0.0000
# 4 0.0000 0.0000 0.0000 48.1565 0.0000 0.0000
# 5 0.0000 0.0000 0.0000 0.0000 31.5847 0.0000
# 6 0.0000 0.0000 0.0000 0.0000 0.0000 -5.2777
#
#
#
# Elastic Compliance Matrix: (Units=1/GPa)
#
#
# Indices 1 2 3 4 5 6 
#
# 1 0.008155 -0.001482 -0.002901 0.000000 0.000000 0.000000
# 2 -0.001482 0.008548 -0.001819 0.000000 0.000000 0.000000
# 3 -0.002901 -0.001819 0.006807 0.000000 0.000000 0.000000
# 4 0.000000 0.000000 0.000000 0.020766 0.000000 0.000000
# 5 0.000000 0.000000 0.000000 0.000000 0.031661 0.000000
# 6 0.000000 0.000000 0.000000 0.000000 0.000000 -0.189478
#
#
# Mechanical properties :
#
#
# Convention : Reuss Voigt Hill
#
# Bulk Modulus (GPa) = 90.05402 94.52885 92.29143
# Shear Modulus (GPa) = -51.31662 35.66399 -7.82632
#
# Velocity S-wave (km/s) = -4.60305 3.83735 -1.79761
# Velocity P-wave (km/s) = 2.98857 7.65921 5.81357
#
# Compressibility (1/GPa) = 0.01110445
#
# Stress axis : x y z
#
# Youngs Moduli (GPa) = 122.61835 116.99031 146.90736
#
# Poissons Ratio (x) = 0.17340 0.42621
# Poissons Ratio (y) = 0.18174 0.26729
# Poissons Ratio (z) = 0.35574 0.21286
#
# Static dielectric constant tensor:
#      x y z
#    x 1.788910 0.000000 0.000000 
#    y 0.000000 1.343610 0.000000 
#    z 0.000000 0.000000 1.906140 
# 
# From -- ./inp_files/17479.got.cif
#   From: 2010.05.17/outbox.cif.g08.bks.cpg/sg68_9_cif.got.tgz:17479.got - 2010.06.03 18:57:09.
