data_PCOD9510888
_publ_section_title
;
Structure prediction by ZEFSAII (Michael W. Deem and Ramdas Pophale) SiO2 
 PCOD9510888
Probable space group: C C C A
;
_chemical_formula_sum "Si O2"
_cell_formula_units_Z 64
_cell_length_a 18.015769
_cell_length_b 13.410678
_cell_length_c 12.147995
_cell_angle_alpha 90.000000
_cell_angle_beta 90.000000
_cell_angle_gamma 90.000000
_cell_volume 2935.000260
_symmetry_space_group_name_H-M "C C C A"
_symmetry_group_IT_number 68
_space_group.IT_coordinate_system_code '2'
_symmetry_cell_setting 'orthorhombic'
loop_
_space_group_symop_operation_xyz
x,y,z
-x,1/2-y,z
x,1/2-y,1/2-z
-x,y,1/2-z
-x,-y,-z
x,1/2+y,-z
-x,1/2+y,1/2+z
x,-y,1/2+z
1/2+x,1/2+y,z
1/2-x,-y,z
1/2+x,-y,1/2-z
1/2-x,1/2+y,1/2-z
1/2-x,1/2-y,-z
1/2+x,y,-z
1/2-x,y,1/2+z
1/2+x,1/2-y,1/2+z
loop_
_atom_site_type_symbol
_atom_site_label
_atom_site_fract_x
_atom_site_fract_y
_atom_site_fract_z
Si Si1 0.077427 0.900562 0.812766
Si Si2 0.000000 0.750000 0.959322
Si Si3 0.816798 0.750000 0.250000
Si Si4 0.608860 0.391924 0.420769
Si Si5 0.708110 0.605495 0.134073
O O1 0.062421 0.801183 0.883218
O O2 0.143342 0.891357 0.725638
O O3 0.000000 0.919793 0.750000
O O4 0.093832 0.993961 0.890924
O O5 0.036956 0.663629 0.031017
O O6 0.864957 0.667980 0.313414
O O7 0.765393 0.692920 0.162330
O O8 0.671555 0.386263 0.514490
O O9 0.750000 0.500000 0.143308
#
# Coordination Sequence:
#
# PCOD9510888 Si02
#       5
#    16   8   8  16  16
#     4  12  27  50  73 112 147 199 249 312 368 449
#     4  12  27  47  80 106 152 203 250 305 376 448
#     4  12  28  49  71 112 150 198 248 318 372 446
#     4  12  29  45  79 108 151 195 253 310 373 446
#     4  12  27  48  76 107 151 198 249 308 379 446
#
# _framework density 21.805790999999999
#
# number of rings (size 3 to 8) (size 9 to 14) (size 15 to 20)
#    0.000    0.000    5.000    3.375   10.500    0.000 
#    0.000    0.000    0.000    0.000    0.000    0.000 
#    0.000    0.000    0.000    0.000    0.000    0.000 
#
# Total GULP energy -179415.092045 kJ/mol
# GULP energy per Si atom -5606.721626 kJ/mol
# Density = 2.175616 g / cm^3
# Si number density = 21.805791 Si / 1000 Ang^3
#
#
#
# Elastic Constant Matrix: (Units=GPa)
#
#
# Indices 1 2 3 4 5 6 
#
# 1 60.6051 9.9975 17.1873 0.0000 0.0000 0.0000
# 2 9.9975 118.5597 30.0119 0.0000 0.0000 0.0000
# 3 17.1873 30.0119 86.4137 0.0000 0.0000 0.0000
# 4 0.0000 0.0000 0.0000 41.8336 0.0000 0.0000
# 5 0.0000 0.0000 0.0000 0.0000 -0.7442 0.0000
# 6 0.0000 0.0000 0.0000 0.0000 0.0000 43.1790
#
#
#
# Elastic Compliance Matrix: (Units=1/GPa)
#
#
# Indices 1 2 3 4 5 6 
#
# 1 0.017533 -0.000653 -0.003260 0.000000 0.000000 0.000000
# 2 -0.000653 0.009272 -0.003090 0.000000 0.000000 0.000000
# 3 -0.003260 -0.003090 0.013294 0.000000 0.000000 0.000000
# 4 0.000000 0.000000 0.000000 0.023904 0.000000 0.000000
# 5 0.000000 0.000000 0.000000 0.000000 -1.343651 0.000000
# 6 0.000000 0.000000 0.000000 0.000000 0.000000 0.023159
#
#
# Mechanical properties :
#
#
# Convention : Reuss Voigt Hill
#
# Bulk Modulus (GPa) = 38.32733 42.21911 40.27322
# Shear Modulus (GPa) = -4.05257 30.74579 13.34661
#
# Velocity S-wave (km/s) = -1.36474 3.75905 2.47668
# Velocity P-wave (km/s) = 3.88992 6.18418 5.16602
#
# Compressibility (1/GPa) = 0.02609104
#
# Stress axis : x y z
#
# Youngs Moduli (GPa) = 57.03660 107.85267 75.22206
#
# Poissons Ratio (x) = 0.07044 0.24525
# Poissons Ratio (y) = 0.03725 0.23246
# Poissons Ratio (z) = 0.18596 0.33329
#
# Static dielectric constant tensor:
#      x y z
#    x 1.773100 0.000000 0.000000 
#    y 0.000000 1.774420 0.000000 
#    z 0.000000 0.000000 1.779090 
# 
# From -- ./inp_files/12883.got.cif
#   From: 2010.05.17/outbox.cif.g08.bks.cpg/sg68_7_cif.got.tgz:12883.got - 2010.06.03 18:57:09.
