data_PCOD9510852
_publ_section_title
;
Structure prediction by ZEFSAII (Michael W. Deem and Ramdas Pophale) SiO2 
 PCOD9510852
Probable space group: C C C A
;
_chemical_formula_sum "Si O2"
_cell_formula_units_Z 56
_cell_length_a 9.537556
_cell_length_b 18.355917
_cell_length_c 12.944395
_cell_angle_alpha 90.000000
_cell_angle_beta 90.000000
_cell_angle_gamma 90.000000
_cell_volume 2266.182822
_symmetry_space_group_name_H-M "C C C A"
_symmetry_group_IT_number 68
_space_group.IT_coordinate_system_code '2'
_symmetry_cell_setting 'orthorhombic'
loop_
_space_group_symop_operation_xyz
x,y,z
-x,1/2-y,z
x,1/2-y,1/2-z
-x,y,1/2-z
-x,-y,-z
x,1/2+y,-z
-x,1/2+y,1/2+z
x,-y,1/2+z
1/2+x,1/2+y,z
1/2-x,-y,z
1/2+x,-y,1/2-z
1/2-x,1/2+y,1/2-z
1/2-x,1/2-y,-z
1/2+x,y,-z
1/2-x,y,1/2+z
1/2+x,1/2-y,1/2+z
loop_
_atom_site_type_symbol
_atom_site_label
_atom_site_fract_x
_atom_site_fract_y
_atom_site_fract_z
Si Si1 0.634587 0.632660 0.808062
Si Si2 0.250000 0.000000 0.184767
Si Si3 0.852056 0.792183 0.583996
Si Si4 0.952265 0.920556 0.970037
O O1 0.500000 0.663833 0.750000
O O2 0.661550 0.554432 0.755733
O O3 0.763618 0.687839 0.814233
O O4 0.606499 0.617703 0.928280
O O5 0.160553 0.058815 0.117885
O O6 0.750000 0.750000 0.500000
O O7 0.000000 0.750000 0.597387
O O8 0.913105 0.872042 0.555509
O O9 0.000000 0.000000 0.000000
#
# Coordination Sequence:
#
# PCOD9510852 Si02
#       4
#    16   8  16  16
#     4  12  27  48  83 126 166 228 290 363 438 530
#     4  12  26  48  82 126 168 226 308 370 436 516
#     4  12  28  54  86 123 178 233 283 362 462 541
#     4  12  25  50  83 118 171 221 290 369 431 516
#
# _framework density 24.711155000000002
#
# number of rings (size 3 to 8) (size 9 to 14) (size 15 to 20)
#    0.000    0.000    5.714    4.286    0.000    0.000 
#    0.000   14.286    0.000    0.000    0.000    0.000 
#    0.000    0.000    0.000    0.000    0.000    0.000 
#
# Total GULP energy -156458.660915 kJ/mol
# GULP energy per Si atom -5587.809318 kJ/mol
# Density = 2.465491 g / cm^3
# Si number density = 24.711155 Si / 1000 Ang^3
#
#
#
# Elastic Constant Matrix: (Units=GPa)
#
#
# Indices 1 2 3 4 5 6 
#
# 1 209.7725 83.2285 74.7753 0.0000 0.0000 0.0000
# 2 83.2285 172.5683 47.5124 0.0000 0.0000 0.0000
# 3 74.7753 47.5124 102.3441 0.0000 0.0000 0.0000
# 4 0.0000 0.0000 0.0000 -6.5723 0.0000 0.0000
# 5 0.0000 0.0000 0.0000 0.0000 57.2793 0.0000
# 6 0.0000 0.0000 0.0000 0.0000 0.0000 58.5902
#
#
#
# Elastic Compliance Matrix: (Units=1/GPa)
#
#
# Indices 1 2 3 4 5 6 
#
# 1 0.007168 -0.002311 -0.004165 0.000000 0.000000 0.000000
# 2 -0.002311 0.007389 -0.001742 0.000000 0.000000 0.000000
# 3 -0.004165 -0.001742 0.013623 0.000000 0.000000 0.000000
# 4 0.000000 0.000000 0.000000 -0.152154 0.000000 0.000000
# 5 0.000000 0.000000 0.000000 0.000000 0.017458 0.000000
# 6 0.000000 0.000000 0.000000 0.000000 0.000000 0.017068
#
#
# Mechanical properties :
#
#
# Convention : Reuss Voigt Hill
#
# Bulk Modulus (GPa) = 85.14227 99.52414 92.33320
# Shear Modulus (GPa) = -72.36071 40.47068 -15.94501
#
# Velocity S-wave (km/s) = -5.41721 4.05130 -2.54294
# Velocity P-wave (km/s) = 2.14440 7.88964 5.36880
#
# Compressibility (1/GPa) = 0.01174505
#
# Stress axis : x y z
#
# Youngs Moduli (GPa) = 139.50178 135.33973 73.40785
#
# Poissons Ratio (x) = 0.31272 0.30572
# Poissons Ratio (y) = 0.32233 0.12788
# Poissons Ratio (z) = 0.58099 0.23576
#
# Static dielectric constant tensor:
#      x y z
#    x 2.287520 0.000000 0.000000 
#    y 0.000000 2.030150 0.000000 
#    z 0.000000 0.000000 -76.336290 
# 
# From -- ./inp_files/18983.got.cif
#   From: 2010.05.17/outbox.cif.g08.bks.cpg/sg68_10_cif.got.tgz:18983.got - 2010.06.03 18:57:09.
