data_PCOD9510219
_publ_section_title
;
Structure prediction by ZEFSAII (Michael W. Deem and Ramdas Pophale) SiO2 
 PCOD9510219
Probable space group: C C C A
;
_chemical_formula_sum "Si O2"
_cell_formula_units_Z 56
_cell_length_a 18.567628
_cell_length_b 17.134562
_cell_length_c 7.846889
_cell_angle_alpha 90.000000
_cell_angle_beta 90.000000
_cell_angle_gamma 90.000000
_cell_volume 2496.473400
_symmetry_space_group_name_H-M "C C C A"
_symmetry_group_IT_number 68
_space_group.IT_coordinate_system_code '2'
_symmetry_cell_setting 'orthorhombic'
loop_
_space_group_symop_operation_xyz
x,y,z
-x,1/2-y,z
x,1/2-y,1/2-z
-x,y,1/2-z
-x,-y,-z
x,1/2+y,-z
-x,1/2+y,1/2+z
x,-y,1/2+z
1/2+x,1/2+y,z
1/2-x,-y,z
1/2+x,-y,1/2-z
1/2-x,1/2+y,1/2-z
1/2-x,1/2-y,-z
1/2+x,y,-z
1/2-x,y,1/2+z
1/2+x,1/2-y,1/2+z
loop_
_atom_site_type_symbol
_atom_site_label
_atom_site_fract_x
_atom_site_fract_y
_atom_site_fract_z
Si Si1 0.352998 0.058973 0.704511
Si Si2 0.576004 0.795129 0.408978
Si Si3 0.655041 0.750000 0.750000
Si Si4 0.197730 0.094068 0.583735
O O1 0.417919 0.113256 0.639310
O O2 0.282256 0.073731 0.588235
O O3 0.353076 0.965078 0.693249
O O4 0.332412 0.086258 0.893762
O O5 0.500000 0.750000 0.419490
O O6 0.614234 0.750000 0.250000
O O7 0.610162 0.784084 0.592691
O O8 0.696604 0.679138 0.664482
#
# Coordination Sequence:
#
# PCOD9510219 Si02
#       4
#    16  16   8  16
#     4  11  22  43  63 103 139 178 224 283 348 411
#     4  11  24  43  67  91 136 177 231 277 329 407
#     4  12  23  42  68 102 127 178 230 286 344 406
#     4  11  23  38  70 100 140 173 224 287 350 406
#
# _framework density 22.431642
#
# number of rings (size 3 to 8) (size 9 to 14) (size 15 to 20)
#    0.000    0.857    2.857    7.286    2.000    2.286 
#    0.000    1.429    6.286    0.000    0.000    0.000 
#    0.000    0.000    0.000    0.000    0.000    0.000 
#
# Total GULP energy -156235.651960 kJ/mol
# GULP energy per Si atom -5579.844713 kJ/mol
# Density = 2.238059 g / cm^3
# Si number density = 22.431642 Si / 1000 Ang^3
#
#
#
# Elastic Constant Matrix: (Units=GPa)
#
#
# Indices 1 2 3 4 5 6 
#
# 1 46.1271 32.6014 9.3628 0.0000 0.0000 0.0000
# 2 32.6014 141.6042 8.6559 0.0000 0.0000 0.0000
# 3 9.3628 8.6559 123.3366 0.0000 0.0000 0.0000
# 4 0.0000 0.0000 0.0000 36.8026 0.0000 0.0000
# 5 0.0000 0.0000 0.0000 0.0000 1.4709 0.0000
# 6 0.0000 0.0000 0.0000 0.0000 0.0000 33.7201
#
#
#
# Elastic Compliance Matrix: (Units=1/GPa)
#
#
# Indices 1 2 3 4 5 6 
#
# 1 0.026192 -0.005934 -0.001572 0.000000 0.000000 0.000000
# 2 -0.005934 0.008437 -0.000142 0.000000 0.000000 0.000000
# 3 -0.001572 -0.000142 0.008237 0.000000 0.000000 0.000000
# 4 0.000000 0.000000 0.000000 0.027172 0.000000 0.000000
# 5 0.000000 0.000000 0.000000 0.000000 0.679873 0.000000
# 6 0.000000 0.000000 0.000000 0.000000 0.000000 0.029656
#
#
# Mechanical properties :
#
#
# Convention : Reuss Voigt Hill
#
# Bulk Modulus (GPa) = 36.26997 45.81204 41.04100
# Shear Modulus (GPa) = 6.21850 31.76191 18.99020
#
# Velocity S-wave (km/s) = 1.66680 3.76698 2.91276
# Velocity P-wave (km/s) = 4.46189 6.27595 5.44500
#
# Compressibility (1/GPa) = 0.02757102
#
# Stress axis : x y z
#
# Youngs Moduli (GPa) = 38.17905 118.52821 121.40107
#
# Poissons Ratio (x) = 0.70337 0.19083
# Poissons Ratio (y) = 0.22656 0.01719
# Poissons Ratio (z) = 0.06001 0.01679
#
# Static dielectric constant tensor:
#      x y z
#    x 1.865410 0.000000 0.000000 
#    y 0.000000 1.984460 0.000000 
#    z 0.000000 0.000000 1.832270 
# 
# From -- ./inp_files/4876.got.cif
#   From: 2010.05.17/outbox.cif.g08.bks.cpg/sg68_3_cif.got.tgz:4876.got - 2010.06.03 18:57:09.
