data_PCOD9510794
_publ_section_title
;
Structure prediction by ZEFSAII (Michael W. Deem and Ramdas Pophale) SiO2 
 PCOD9510794
Probable space group: C C C A
;
_chemical_formula_sum "Si O2"
_cell_formula_units_Z 56
_cell_length_a 25.106154
_cell_length_b 9.753169
_cell_length_c 9.570963
_cell_angle_alpha 90.000000
_cell_angle_beta 90.000000
_cell_angle_gamma 90.000000
_cell_volume 2343.589672
_symmetry_space_group_name_H-M "C C C A"
_symmetry_group_IT_number 68
_space_group.IT_coordinate_system_code '2'
_symmetry_cell_setting 'orthorhombic'
loop_
_space_group_symop_operation_xyz
x,y,z
-x,1/2-y,z
x,1/2-y,1/2-z
-x,y,1/2-z
-x,-y,-z
x,1/2+y,-z
-x,1/2+y,1/2+z
x,-y,1/2+z
1/2+x,1/2+y,z
1/2-x,-y,z
1/2+x,-y,1/2-z
1/2-x,1/2+y,1/2-z
1/2-x,1/2-y,-z
1/2+x,y,-z
1/2-x,y,1/2+z
1/2+x,1/2-y,1/2+z
loop_
_atom_site_type_symbol
_atom_site_label
_atom_site_fract_x
_atom_site_fract_y
_atom_site_fract_z
Si Si1 0.200036 0.590030 0.756454
Si Si2 0.356824 0.070607 0.023766
Si Si3 0.037832 0.486024 0.132605
Si Si4 0.100207 0.250000 0.750000
O O1 0.211367 0.750000 0.750000
O O2 0.250000 0.500000 0.803218
O O3 0.185865 0.553107 0.597401
O O4 0.152374 0.552268 0.864651
O O5 0.361212 0.200801 0.125698
O O6 0.410667 0.083657 0.933591
O O7 0.062205 0.626288 0.198907
O O8 0.000000 0.420774 0.250000
O O9 0.000000 0.500000 0.000000
#
# Coordination Sequence:
#
# PCOD9510794 Si02
#       4
#    16  16  16   8
#     4  12  29  50  80 114 148 200 261 323 392 465
#     4  12  26  49  77 111 154 200 253 320 386 458
#     4  12  24  43  72 109 147 202 248 303 373 448
#     4  12  25  46  76 104 158 196 248 316 385 444
#
# _framework density 23.894969
#
# number of rings (size 3 to 8) (size 9 to 14) (size 15 to 20)
#    0.000    0.000    5.714    3.000    2.000    2.286 
#    0.000    1.429    0.000    0.000    0.000    0.000 
#    0.000    0.000    0.000    0.000    0.000    0.000 
#
# Total GULP energy -156478.089598 kJ/mol
# GULP energy per Si atom -5588.503200 kJ/mol
# Density = 2.384058 g / cm^3
# Si number density = 23.894969 Si / 1000 Ang^3
#
#
#
# Elastic Constant Matrix: (Units=GPa)
#
#
# Indices 1 2 3 4 5 6 
#
# 1 76.5838 5.2866 35.3115 0.0000 0.0000 0.0000
# 2 5.2866 81.7411 29.2913 0.0000 0.0000 0.0000
# 3 35.3115 29.2913 193.3009 0.0000 0.0000 0.0000
# 4 0.0000 0.0000 0.0000 54.3172 0.0000 0.0000
# 5 0.0000 0.0000 0.0000 0.0000 47.0123 0.0000
# 6 0.0000 0.0000 0.0000 0.0000 0.0000 25.3194
#
#
#
# Elastic Compliance Matrix: (Units=1/GPa)
#
#
# Indices 1 2 3 4 5 6 
#
# 1 0.014259 0.000012 -0.002606 0.000000 0.000000 0.000000
# 2 0.000012 0.012936 -0.001962 0.000000 0.000000 0.000000
# 3 -0.002606 -0.001962 0.005947 0.000000 0.000000 0.000000
# 4 0.000000 0.000000 0.000000 0.018410 0.000000 0.000000
# 5 0.000000 0.000000 0.000000 0.000000 0.021271 0.000000
# 6 0.000000 0.000000 0.000000 0.000000 0.000000 0.039495
#
#
# Mechanical properties :
#
#
# Convention : Reuss Voigt Hill
#
# Bulk Modulus (GPa) = 41.61907 54.60050 48.10979
# Shear Modulus (GPa) = 38.62746 44.11223 41.36985
#
# Velocity S-wave (km/s) = 4.02500 4.30127 4.16543
# Velocity P-wave (km/s) = 6.24949 6.89694 6.58118
#
# Compressibility (1/GPa) = 0.02402745
#
# Stress axis : x y z
#
# Youngs Moduli (GPa) = 70.13323 77.30247 168.15781
#
# Poissons Ratio (x) = -0.00092 0.43830
# Poissons Ratio (y) = -0.00083 0.33000
# Poissons Ratio (z) = 0.18280 0.15170
#
# Static dielectric constant tensor:
#      x y z
#    x 2.018980 0.000000 0.000000 
#    y 0.000000 1.945520 0.000000 
#    z 0.000000 0.000000 2.178260 
# 
# From -- ./inp_files/3884.got.cif
#   From: 2010.05.17/outbox.cif.g08.bks.cpg/sg68_2_cif.got.tgz:3884.got - 2010.06.03 18:57:09.
