data_PCOD9510977
_publ_section_title
;
Structure prediction by ZEFSAII (Michael W. Deem and Ramdas Pophale) SiO2 
 PCOD9510977
Probable space group: C C C A
;
_chemical_formula_sum "Si O2"
_cell_formula_units_Z 44
_cell_length_a 12.000000
_cell_length_b 30.000000
_cell_length_c 12.000000
_cell_angle_alpha 90.000000
_cell_angle_beta 90.000000
_cell_angle_gamma 90.000000
_cell_volume 4320.000000
_symmetry_space_group_name_H-M "C C C A"
_symmetry_group_IT_number 68
_space_group.IT_coordinate_system_code '2'
_symmetry_cell_setting 'orthorhombic'
loop_
_space_group_symop_operation_xyz
x,y,z
-x,1/2-y,z
x,1/2-y,1/2-z
-x,y,1/2-z
-x,-y,-z
x,1/2+y,-z
-x,1/2+y,1/2+z
x,-y,1/2+z
1/2+x,1/2+y,z
1/2-x,-y,z
1/2+x,-y,1/2-z
1/2-x,1/2+y,1/2-z
1/2-x,1/2-y,-z
1/2+x,y,-z
1/2-x,y,1/2+z
1/2+x,1/2-y,1/2+z
loop_
_atom_site_type_symbol
_atom_site_label
_atom_site_fract_x
_atom_site_fract_y
_atom_site_fract_z
Si Si1 0.750000 0.000000 0.212696
Si Si2 0.706912 0.339286 0.157399
Si Si3 0.314672 0.250000 0.750000
Si Si4 0.062963 0.708029 0.535176
Si Si5 0.068834 0.881104 0.570825
Si Si6 0.500000 0.046862 0.750000
Si Si7 0.106183 0.086273 0.820176
O O1 0.622750 0.979499 0.253599
O O2 0.801630 0.953174 0.166831
O O3 0.748234 0.294391 0.217187
O O4 0.806321 0.370908 0.112907
O O5 0.645334 0.371153 0.246478
O O6 0.640457 0.318760 0.051879
O O7 0.380500 0.266914 0.640147
O O8 0.000000 0.750000 0.476957
O O9 0.987471 0.667655 0.580824
O O10 0.071915 0.896930 0.442640
O O11 0.008276 0.919145 0.644214
O O12 0.000000 0.068741 0.750000
#
# Coordination Sequence:
#
# PCOD9510977 Si02
#       7
#     8  16   8  16  16   8  16
#     4  12  28  52  82 118 154 206 270 334 416 496
#     4  12  26  45  72 106 154 202 264 319 405 465
#     4  12  25  42  71 102 152 204 259 321 376 488
#     4  12  26  43  69 109 149 203 262 316 391 471
#     4  12  27  48  76 109 152 208 255 335 399 477
#     4  12  28  52  83 116 156 199 272 330 412 490
#     4  12  27  51  74 111 157 199 261 333 409 483
#
# _framework density 10.185185000000001
#
# number of rings (size 3 to 8) (size 9 to 14) (size 15 to 20)
#    0.000    0.000    6.364    3.000    5.091    1.455 
#    0.000    0.000    0.000    0.000    0.000    0.000 
#    0.000    0.000    0.000    0.000    0.000    0.000 
#
# Total GULP energy -245080.162034 kJ/mol
# GULP energy per Si atom -5570.003683 kJ/mol
# Density = 1.016200 g / cm^3
# Si number density = 10.185185 Si / 1000 Ang^3
#
#
#
# Elastic Constant Matrix: (Units=GPa)
#
#
# Indices 1 2 3 4 5 6 
#
# 1 84.3447 35.4976 32.3489 0.0000 0.0000 0.0000
# 2 35.4976 146.8989 41.2156 0.0000 0.0000 0.0000
# 3 32.3489 41.2156 120.2640 0.0000 0.0000 0.0000
# 4 0.0000 0.0000 0.0000 16.2458 0.0000 0.0000
# 5 0.0000 0.0000 0.0000 0.0000 25.4130 0.0000
# 6 0.0000 0.0000 0.0000 0.0000 0.0000 41.0113
#
#
#
# Elastic Compliance Matrix: (Units=1/GPa)
#
#
# Indices 1 2 3 4 5 6 
#
# 1 0.014054 -0.002584 -0.002895 0.000000 0.000000 0.000000
# 2 -0.002584 0.008007 -0.002049 0.000000 0.000000 0.000000
# 3 -0.002895 -0.002049 0.009796 0.000000 0.000000 0.000000
# 4 0.000000 0.000000 0.000000 0.061554 0.000000 0.000000
# 5 0.000000 0.000000 0.000000 0.000000 0.039350 0.000000
# 6 0.000000 0.000000 0.000000 0.000000 0.000000 0.024384
#
#
# Mechanical properties :
#
#
# Convention : Reuss Voigt Hill
#
# Bulk Modulus (GPa) = 59.51937 63.29245 61.40591
# Shear Modulus (GPa) = 28.12155 32.69705 30.40930
#
# Velocity S-wave (km/s) = 3.71956 4.01075 3.86789
# Velocity P-wave (km/s) = 6.90860 7.25165 7.08221
#
# Compressibility (1/GPa) = 0.01680125
#
# Stress axis : x y z
#
# Youngs Moduli (GPa) = 71.15520 124.89595 102.08398
#
# Poissons Ratio (x) = 0.32272 0.29550
# Poissons Ratio (y) = 0.18386 0.20916
# Poissons Ratio (z) = 0.20597 0.25590
#
# Static dielectric constant tensor:
#      x y z
#    x 1.857170 0.000000 0.000000 
#    y 0.000000 1.715300 0.000000 
#    z 0.000000 0.000000 1.734500 
# 
# From -- ./inp_files/12105.got.cif
#   From: 2010.05.17/outbox.ucp.g08.bks.cvg/sg68_7_cif.got.tgz:12105.got - 2010.06.11 16:49:25.
