data_PCOD9510129
_publ_section_title
;
Structure prediction by ZEFSAII (Michael W. Deem and Ramdas Pophale) SiO2 
 PCOD9510129
Probable space group: C C C A
;
_chemical_formula_sum "Si O2"
_cell_formula_units_Z 100
_cell_length_a 33.937091
_cell_length_b 8.200431
_cell_length_c 13.361784
_cell_angle_alpha 90.000000
_cell_angle_beta 90.000000
_cell_angle_gamma 90.000000
_cell_volume 3718.568093
_symmetry_space_group_name_H-M "C C C A"
_symmetry_group_IT_number 68
_space_group.IT_coordinate_system_code '2'
_symmetry_cell_setting 'orthorhombic'
loop_
_space_group_symop_operation_xyz
x,y,z
-x,1/2-y,z
x,1/2-y,1/2-z
-x,y,1/2-z
-x,-y,-z
x,1/2+y,-z
-x,1/2+y,1/2+z
x,-y,1/2+z
1/2+x,1/2+y,z
1/2-x,-y,z
1/2+x,-y,1/2-z
1/2-x,1/2+y,1/2-z
1/2-x,1/2-y,-z
1/2+x,y,-z
1/2-x,y,1/2+z
1/2+x,1/2-y,1/2+z
loop_
_atom_site_type_symbol
_atom_site_label
_atom_site_fract_x
_atom_site_fract_y
_atom_site_fract_z
Si Si1 0.288594 0.931680 0.148329
Si Si2 0.553479 0.793162 0.363769
Si Si3 0.372086 0.505857 0.811165
Si Si4 0.955311 0.066587 0.561909
Si Si5 0.207194 0.066590 0.438361
Si Si6 0.000000 0.750000 0.250000
Si Si7 0.871068 0.653113 0.397887
O O1 0.292047 0.750664 0.102653
O O2 0.250000 0.000000 0.203418
O O3 0.328431 0.941807 0.210042
O O4 0.289762 0.062299 0.058431
O O5 0.539454 0.750000 0.250000
O O6 0.553033 0.620058 0.416479
O O7 0.595774 0.875780 0.341910
O O8 0.529170 0.905467 0.445491
O O9 0.385034 0.586209 0.708938
O O10 0.366115 0.653161 0.888915
O O11 0.911097 0.134934 0.542021
O O12 0.974268 0.148511 0.664432
O O13 0.250000 0.000000 0.407864
O O14 0.168695 0.949432 0.421390
#
# Coordination Sequence:
#
# PCOD9510129 Si02
#       7
#    16  16  16  16  16   4  16
#     4  11  22  37  59  92 146 201 268 345 419 506
#     4  12  27  51  87 128 168 221 286 353 434 533
#     4  11  23  42  71 110 151 204 277 340 421 504
#     4  12  28  53  86 122 174 221 286 352 439 506
#     4  11  22  38  61  96 142 201 272 339 423 508
#     4  12  32  60  92 128 180 234 288 370 428 538
#     4  11  23  44  76 105 154 213 266 348 416 514
#
# _framework density 26.892071000000001
#
# number of rings (size 3 to 8) (size 9 to 14) (size 15 to 20)
#    0.000    0.640    1.600    7.680    2.240    1.280 
#    0.000    0.000    0.000    0.000    0.000    0.000 
#    0.000    0.000    0.000    0.000    0.000    0.000 
#
# Total GULP energy -278995.450893 kJ/mol
# GULP energy per Si atom -5579.909018 kJ/mol
# Density = 2.683086 g / cm^3
# Si number density = 26.892071 Si / 1000 Ang^3
#
#
#
# Elastic Constant Matrix: (Units=GPa)
#
#
# Indices 1 2 3 4 5 6 
#
# 1 201.0594 70.5105 33.5552 0.0000 0.0000 0.0000
# 2 70.5105 156.4530 43.3482 0.0000 0.0000 0.0000
# 3 33.5552 43.3482 184.4845 0.0000 0.0000 0.0000
# 4 0.0000 0.0000 0.0000 -5.4633 0.0000 0.0000
# 5 0.0000 0.0000 0.0000 0.0000 -36.2890 0.0000
# 6 0.0000 0.0000 0.0000 0.0000 0.0000 -57.1496
#
#
#
# Elastic Compliance Matrix: (Units=1/GPa)
#
#
# Indices 1 2 3 4 5 6 
#
# 1 0.005947 -0.002546 -0.000483 0.000000 0.000000 0.000000
# 2 -0.002546 0.007927 -0.001399 0.000000 0.000000 0.000000
# 3 -0.000483 -0.001399 0.005837 0.000000 0.000000 0.000000
# 4 0.000000 0.000000 0.000000 -0.183040 0.000000 0.000000
# 5 0.000000 0.000000 0.000000 0.000000 -0.027557 0.000000
# 6 0.000000 0.000000 0.000000 0.000000 0.000000 -0.017498
#
#
# Mechanical properties :
#
#
# Convention : Reuss Voigt Hill
#
# Bulk Modulus (GPa) = 92.13956 92.98049 92.56003
# Shear Modulus (GPa) = -25.52238 6.52516 -9.49861
#
# Velocity S-wave (km/s) = -3.08404 1.55939 -1.88143
# Velocity P-wave (km/s) = 4.65354 6.15571 5.45656
#
# Compressibility (1/GPa) = 0.01085310
#
# Stress axis : x y z
#
# Youngs Moduli (GPa) = 168.14211 126.15007 171.31310
#
# Poissons Ratio (x) = 0.32123 0.08281
# Poissons Ratio (y) = 0.42816 0.23975
# Poissons Ratio (z) = 0.08128 0.17654
#
# Static dielectric constant tensor:
#      x y z
#    x 2.201050 0.000000 0.000000 
#    y 0.000000 2.075500 0.000000 
#    z 0.000000 0.000000 2.227290 
# 
# From -- ./inp_files/41336.got.cif
#   From: 2010.05.17/outbox.cif.g08.bks.cpg/sg68_21_cif.got.tgz:41336.got - 2010.06.03 18:57:09.
