data_PCOD9510499
_publ_section_title
;
Structure prediction by ZEFSAII (Michael W. Deem and Ramdas Pophale) SiO2 
 PCOD9510499
Probable space group: C C C A
;
_chemical_formula_sum "Si O2"
_cell_formula_units_Z 48
_cell_length_a 25.947213
_cell_length_b 8.416825
_cell_length_c 9.808552
_cell_angle_alpha 90.000000
_cell_angle_beta 90.000000
_cell_angle_gamma 90.000000
_cell_volume 2142.120579
_symmetry_space_group_name_H-M "C C C A"
_symmetry_group_IT_number 68
_space_group.IT_coordinate_system_code '2'
_symmetry_cell_setting 'orthorhombic'
loop_
_space_group_symop_operation_xyz
x,y,z
-x,1/2-y,z
x,1/2-y,1/2-z
-x,y,1/2-z
-x,-y,-z
x,1/2+y,-z
-x,1/2+y,1/2+z
x,-y,1/2+z
1/2+x,1/2+y,z
1/2-x,-y,z
1/2+x,-y,1/2-z
1/2-x,1/2+y,1/2-z
1/2-x,1/2-y,-z
1/2+x,y,-z
1/2-x,y,1/2+z
1/2+x,1/2-y,1/2+z
loop_
_atom_site_type_symbol
_atom_site_label
_atom_site_fract_x
_atom_site_fract_y
_atom_site_fract_z
Si Si1 0.557835 0.530377 0.806511
Si Si2 0.099601 0.851440 0.049762
Si Si3 0.216479 0.656518 0.391454
O O1 0.500000 0.544851 0.750000
O O2 0.577765 0.687904 0.886362
O O3 0.589951 0.518223 0.668108
O O4 0.568447 0.392309 0.913895
O O5 0.160867 0.858615 0.035913
O O6 0.207626 0.750000 0.250000
O O7 0.250000 0.500000 0.360086
O O8 0.250000 0.750000 0.500000
#
# Coordination Sequence:
#
# PCOD9510499 Si02
#       3
#    16  16  16
#     4  11  24  45  72 100 140 183 234 294 352 427
#     4  11  24  46  68 104 142 181 238 295 355 426
#     4  12  26  45  73 106 148 190 241 298 364 433
#
# _framework density 22.407699999999998
#
# number of rings (size 3 to 8) (size 9 to 14) (size 15 to 20)
#    0.000    0.667    3.333    6.000    4.667    1.333 
#    0.000    3.333    0.000    0.000    0.000    0.000 
#    0.000    0.000    0.000    0.000    0.000    0.000 
#
# Total GULP energy -134189.446492 kJ/mol
# GULP energy per Si atom -5591.226937 kJ/mol
# Density = 2.235670 g / cm^3
# Si number density = 22.407700 Si / 1000 Ang^3
#
#
#
# Elastic Constant Matrix: (Units=GPa)
#
#
# Indices 1 2 3 4 5 6 
#
# 1 192.4202 37.8223 42.0386 0.0000 0.0000 0.0000
# 2 37.8223 57.2531 10.9214 0.0000 0.0000 0.0000
# 3 42.0386 10.9214 101.6504 0.0000 0.0000 0.0000
# 4 0.0000 0.0000 0.0000 26.1181 0.0000 0.0000
# 5 0.0000 0.0000 0.0000 0.0000 -0.8378 0.0000
# 6 0.0000 0.0000 0.0000 0.0000 0.0000 16.2873
#
#
#
# Elastic Compliance Matrix: (Units=1/GPa)
#
#
# Indices 1 2 3 4 5 6 
#
# 1 0.006441 -0.003825 -0.002253 0.000000 0.000000 0.000000
# 2 -0.003825 0.020104 -0.000578 0.000000 0.000000 0.000000
# 3 -0.002253 -0.000578 0.010831 0.000000 0.000000 0.000000
# 4 0.000000 0.000000 0.000000 0.038288 0.000000 0.000000
# 5 0.000000 0.000000 0.000000 0.000000 -1.193618 0.000000
# 6 0.000000 0.000000 0.000000 0.000000 0.000000 0.061398
#
#
# Mechanical properties :
#
#
# Convention : Reuss Voigt Hill
#
# Bulk Modulus (GPa) = 41.55588 59.20979 50.38283
# Shear Modulus (GPa) = -4.82987 25.68294 10.42653
#
# Velocity S-wave (km/s) = -1.46974 3.38918 2.15945
# Velocity P-wave (km/s) = 3.96301 6.46503 5.36200
#
# Compressibility (1/GPa) = 0.02406399
#
# Stress axis : x y z
#
# Youngs Moduli (GPa) = 155.25454 49.74226 92.32424
#
# Poissons Ratio (x) = 0.19028 0.20798
# Poissons Ratio (y) = 0.59390 0.05336
# Poissons Ratio (z) = 0.34975 0.02875
#
# Static dielectric constant tensor:
#      x y z
#    x 2.068150 0.000000 0.000000 
#    y 0.000000 1.915800 0.000000 
#    z 0.000000 0.000000 1.796490 
# 
# From -- ./inp_files/3311.got.cif
#   From: 2010.05.17/outbox.cif.g08.bks.cpg/sg68_2_cif.got.tgz:3311.got - 2010.06.03 18:57:09.
