data_PCOD9510892
_publ_section_title
;
Structure prediction by ZEFSAII (Michael W. Deem and Ramdas Pophale) SiO2 
 PCOD9510892
Probable space group: C C C A
;
_chemical_formula_sum "Si O2"
_cell_formula_units_Z 68
_cell_length_a 5.268771
_cell_length_b 27.291661
_cell_length_c 19.803354
_cell_angle_alpha 90.000000
_cell_angle_beta 90.000000
_cell_angle_gamma 90.000000
_cell_volume 2847.593821
_symmetry_space_group_name_H-M "C C C A"
_symmetry_group_IT_number 68
_space_group.IT_coordinate_system_code '2'
_symmetry_cell_setting 'orthorhombic'
loop_
_space_group_symop_operation_xyz
x,y,z
-x,1/2-y,z
x,1/2-y,1/2-z
-x,y,1/2-z
-x,-y,-z
x,1/2+y,-z
-x,1/2+y,1/2+z
x,-y,1/2+z
1/2+x,1/2+y,z
1/2-x,-y,z
1/2+x,-y,1/2-z
1/2-x,1/2+y,1/2-z
1/2-x,1/2-y,-z
1/2+x,y,-z
1/2-x,y,1/2+z
1/2+x,1/2-y,1/2+z
loop_
_atom_site_type_symbol
_atom_site_label
_atom_site_fract_x
_atom_site_fract_y
_atom_site_fract_z
Si Si1 0.695130 0.676570 0.351983
Si Si2 0.000000 0.897127 0.750000
Si Si3 0.000000 0.537732 0.250000
Si Si4 0.500000 0.250000 0.250000
Si Si5 0.500000 0.250000 0.955092
Si Si6 0.750000 0.500000 0.872750
Si Si7 0.868208 0.599658 0.454172
O O1 0.519707 0.638771 0.312861
O O2 0.834541 0.714194 0.299846
O O3 0.521968 0.704875 0.404887
O O4 0.874263 0.642263 0.397736
O O5 0.741899 0.927320 0.751921
O O6 0.975324 0.505036 0.317476
O O7 0.250000 0.250000 0.000000
O O8 0.801068 0.452260 0.917794
O O9 0.632997 0.603533 0.506240
#
# Coordination Sequence:
#
# PCOD9510892 Si02
#       7
#    16   8   8   4   8   8  16
#     4  12  27  51  80 118 161 205 275 334 420 489
#     4  12  27  49  81 115 160 202 268 339 425 474
#     4  12  28  48  80 122 152 216 254 355 399 484
#     4  12  28  54  90 126 162 220 272 378 428 496
#     4  12  27  49  78 109 157 212 266 326 398 502
#     4  12  28  52  82 118 166 200 282 318 414 478
#     4  12  30  50  79 113 162 219 262 326 392 492
#
# _framework density 23.879809999999999
#
# number of rings (size 3 to 8) (size 9 to 14) (size 15 to 20)
#    0.000    0.000    2.353    5.647    3.294    5.647 
#    0.000    0.000    0.000    0.000    0.000    0.000 
#    0.000    0.000    0.000    0.000    0.000    0.000 
#
# Total GULP energy -190256.375052 kJ/mol
# GULP energy per Si atom -5595.775737 kJ/mol
# Density = 2.382546 g / cm^3
# Si number density = 23.879810 Si / 1000 Ang^3
#
#
#
# Elastic Constant Matrix: (Units=GPa)
#
#
# Indices 1 2 3 4 5 6 
#
# 1 169.2520 58.0660 65.0536 0.0000 0.0000 0.0000
# 2 58.0660 129.6136 56.6442 0.0000 0.0000 0.0000
# 3 65.0536 56.6442 146.3836 0.0000 0.0000 0.0000
# 4 0.0000 0.0000 0.0000 95.1229 0.0000 0.0000
# 5 0.0000 0.0000 0.0000 0.0000 14.2142 0.0000
# 6 0.0000 0.0000 0.0000 0.0000 0.0000 -34.7280
#
#
#
# Elastic Compliance Matrix: (Units=1/GPa)
#
#
# Indices 1 2 3 4 5 6 
#
# 1 0.007675 -0.002344 -0.002504 0.000000 0.000000 0.000000
# 2 -0.002344 0.010001 -0.002828 0.000000 0.000000 0.000000
# 3 -0.002504 -0.002828 0.009038 0.000000 0.000000 0.000000
# 4 0.000000 0.000000 0.000000 0.010513 0.000000 0.000000
# 5 0.000000 0.000000 0.000000 0.000000 0.070352 0.000000
# 6 0.000000 0.000000 0.000000 0.000000 0.000000 -0.028795
#
#
# Mechanical properties :
#
#
# Convention : Reuss Voigt Hill
#
# Bulk Modulus (GPa) = 88.00940 89.41964 88.71452
# Shear Modulus (GPa) = 51.05992 32.62087 41.84039
#
# Velocity S-wave (km/s) = 4.62909 3.70001 4.19038
# Velocity P-wave (km/s) = 8.09361 7.46863 7.78739
#
# Compressibility (1/GPa) = 0.01136242
#
# Stress axis : x y z
#
# Youngs Moduli (GPa) = 130.29546 99.98535 110.63810
#
# Poissons Ratio (x) = 0.23438 0.27700
# Poissons Ratio (y) = 0.30543 0.31293
# Poissons Ratio (z) = 0.32622 0.28280
#
# Static dielectric constant tensor:
#      x y z
#    x -39.275840 0.000000 0.000000 
#    y 0.000000 1.874740 0.000000 
#    z 0.000000 0.000000 1.978100 
# 
# From -- ./inp_files/35126.got.cif
#   From: 2010.05.17/outbox.cif.g08.bks.cpg/sg68_18_cif.got.tgz:35126.got - 2010.06.03 18:57:09.
