data_PCOD9510376
_publ_section_title
;
Structure prediction by ZEFSAII (Michael W. Deem and Ramdas Pophale) SiO2 
 PCOD9510376
Probable space group: C C C A
;
_chemical_formula_sum "Si O2"
_cell_formula_units_Z 96
_cell_length_a 25.290054
_cell_length_b 10.902694
_cell_length_c 15.604842
_cell_angle_alpha 90.000000
_cell_angle_beta 90.000000
_cell_angle_gamma 90.000000
_cell_volume 4302.718715
_symmetry_space_group_name_H-M "C C C A"
_symmetry_group_IT_number 68
_space_group.IT_coordinate_system_code '2'
_symmetry_cell_setting 'orthorhombic'
loop_
_space_group_symop_operation_xyz
x,y,z
-x,1/2-y,z
x,1/2-y,1/2-z
-x,y,1/2-z
-x,-y,-z
x,1/2+y,-z
-x,1/2+y,1/2+z
x,-y,1/2+z
1/2+x,1/2+y,z
1/2-x,-y,z
1/2+x,-y,1/2-z
1/2-x,1/2+y,1/2-z
1/2-x,1/2-y,-z
1/2+x,y,-z
1/2-x,y,1/2+z
1/2+x,1/2-y,1/2+z
loop_
_atom_site_type_symbol
_atom_site_label
_atom_site_fract_x
_atom_site_fract_y
_atom_site_fract_z
Si Si1 0.100809 0.237610 0.429857
Si Si2 0.133624 0.750000 0.750000
Si Si3 0.191227 0.177111 0.546644
Si Si4 0.686235 0.992518 0.314752
Si Si5 0.937376 0.482105 0.988636
Si Si6 0.653132 0.593876 0.857788
Si Si7 0.250000 0.000000 0.953955
O O1 0.099395 0.202826 0.330035
O O2 0.159612 0.232942 0.467390
O O3 0.076969 0.372435 0.444798
O O4 0.077865 0.126398 0.486774
O O5 0.168557 0.855407 0.706719
O O6 0.180438 0.276266 0.619966
O O7 0.245899 0.122753 0.510459
O O8 0.171597 0.049914 0.593049
O O9 0.750000 0.000000 0.305155
O O10 0.655205 0.069953 0.242485
O O11 0.902775 0.429329 0.906016
O O12 0.000000 0.500000 0.000000
O O13 0.696983 0.501999 0.898404
#
# Coordination Sequence:
#
# PCOD9510376 Si02
#       7
#    16   8  16  16  16  16   8
#     4  11  24  47  74 104 141 186 241 302 360 431
#     4  12  26  44  69 100 148 184 244 297 350 428
#     4  11  24  38  66  98 137 187 232 282 350 424
#     4  12  25  39  62 100 145 195 237 282 349 419
#     4  11  23  46  74 104 136 183 238 299 369 434
#     4  11  24  41  62  96 141 182 232 297 350 425
#     4  12  20  38  62  96 136 184 242 274 348 420
#
# _framework density 22.311475000000002
#
# number of rings (size 3 to 8) (size 9 to 14) (size 15 to 20)
#    0.000    0.667    5.000    2.500    4.667    0.000 
#    0.000    1.667    0.000    0.000    4.333    0.000 
#    0.000    0.000    0.000    0.000    0.000    0.000 
#
# Total GULP energy -267298.404058 kJ/mol
# GULP energy per Si atom -5568.716751 kJ/mol
# Density = 2.226069 g / cm^3
# Si number density = 22.311475 Si / 1000 Ang^3
#
#
#
# Elastic Constant Matrix: (Units=GPa)
#
#
# Indices 1 2 3 4 5 6 
#
# 1 120.7250 24.6826 26.5906 0.0000 0.0000 0.0000
# 2 24.6826 117.1889 6.4203 0.0000 0.0000 0.0000
# 3 26.5906 6.4203 108.9848 0.0000 0.0000 0.0000
# 4 0.0000 0.0000 0.0000 37.6777 0.0000 0.0000
# 5 0.0000 0.0000 0.0000 0.0000 2.5867 0.0000
# 6 0.0000 0.0000 0.0000 0.0000 0.0000 35.0602
#
#
#
# Elastic Compliance Matrix: (Units=1/GPa)
#
#
# Indices 1 2 3 4 5 6 
#
# 1 0.009119 -0.001805 -0.002119 0.000000 0.000000 0.000000
# 2 -0.001805 0.008918 -0.000085 0.000000 0.000000 0.000000
# 3 -0.002119 -0.000085 0.009698 0.000000 0.000000 0.000000
# 4 0.000000 0.000000 0.000000 0.026541 0.000000 0.000000
# 5 0.000000 0.000000 0.000000 0.000000 0.386594 0.000000
# 6 0.000000 0.000000 0.000000 0.000000 0.000000 0.028522
#
#
# Mechanical properties :
#
#
# Convention : Reuss Voigt Hill
#
# Bulk Modulus (GPa) = 50.71522 51.36508 51.04015
# Shear Modulus (GPa) = 10.33100 34.34526 22.33813
#
# Velocity S-wave (km/s) = 2.15416 3.92772 3.16760
# Velocity P-wave (km/s) = 5.38211 6.60614 6.02529
#
# Compressibility (1/GPa) = 0.01971794
#
# Stress axis : x y z
#
# Youngs Moduli (GPa) = 109.66275 112.13306 103.11935
#
# Poissons Ratio (x) = 0.20235 0.21846
# Poissons Ratio (y) = 0.19789 0.00877
# Poissons Ratio (z) = 0.23233 0.00954
#
# Static dielectric constant tensor:
#      x y z
#    x 1.896180 0.000000 0.000000 
#    y 0.000000 1.997320 0.000000 
#    z 0.000000 0.000000 1.883860 
# 
# From -- ./inp_files/33578.got.cif
#   From: 2010.05.17/outbox.cif.g08.bks.cpg/sg68_17_cif.got.tgz:33578.got - 2010.06.03 18:57:09.
