data_PCOD9510565
_publ_section_title
;
Structure prediction by ZEFSAII (Michael W. Deem and Ramdas Pophale) SiO2 
 PCOD9510565
Probable space group: C C C A
;
_chemical_formula_sum "Si O2"
_cell_formula_units_Z 88
_cell_length_a 25.173277
_cell_length_b 11.702729
_cell_length_c 13.287544
_cell_angle_alpha 90.000000
_cell_angle_beta 90.000000
_cell_angle_gamma 90.000000
_cell_volume 3914.457827
_symmetry_space_group_name_H-M "C C C A"
_symmetry_group_IT_number 68
_space_group.IT_coordinate_system_code '2'
_symmetry_cell_setting 'orthorhombic'
loop_
_space_group_symop_operation_xyz
x,y,z
-x,1/2-y,z
x,1/2-y,1/2-z
-x,y,1/2-z
-x,-y,-z
x,1/2+y,-z
-x,1/2+y,1/2+z
x,-y,1/2+z
1/2+x,1/2+y,z
1/2-x,-y,z
1/2+x,-y,1/2-z
1/2-x,1/2+y,1/2-z
1/2-x,1/2-y,-z
1/2+x,y,-z
1/2-x,y,1/2+z
1/2+x,1/2-y,1/2+z
loop_
_atom_site_type_symbol
_atom_site_label
_atom_site_fract_x
_atom_site_fract_y
_atom_site_fract_z
Si Si1 0.250000 0.500000 0.719144
Si Si2 0.412915 0.250000 0.750000
Si Si3 0.500000 0.925647 0.750000
Si Si4 0.336639 0.573615 0.359624
Si Si5 0.844244 0.606778 0.407739
Si Si6 0.060681 0.574576 0.594591
Si Si7 0.404492 0.346573 0.376161
O O1 0.284149 0.421360 0.793364
O O2 0.208464 0.426465 0.653674
O O3 0.378495 0.154944 0.693973
O O4 0.442893 0.314126 0.662886
O O5 0.448573 0.859598 0.710150
O O6 0.516585 0.997071 0.649808
O O7 0.329578 0.610670 0.474412
O O8 0.360588 0.445524 0.359481
O O9 0.885794 0.501892 0.393689
O O10 0.874335 0.725188 0.381869
O O11 0.065322 0.620663 0.480829
#
# Coordination Sequence:
#
# PCOD9510565 Si02
#       7
#     8   8   8  16  16  16  16
#     4  12  24  46  72 110 134 192 250 294 364 436
#     4  12  20  49  68  94 146 194 234 293 356 446
#     4  12  24  46  74 114 142 195 247 292 372 438
#     4  11  25  45  70 103 144 194 242 297 371 437
#     4  11  25  47  71 104 150 188 240 311 363 430
#     4  11  25  45  71 106 148 193 243 298 367 439
#     4  11  25  47  72 107 152 189 242 310 365 433
#
# _framework density 22.480763
#
# number of rings (size 3 to 8) (size 9 to 14) (size 15 to 20)
#    0.000    0.727    5.455    1.091    0.000    6.182 
#    0.000    5.455    0.000    0.000    0.000    0.000 
#    0.000    0.000    0.000    0.000    0.000    0.000 
#
# Total GULP energy -245987.320805 kJ/mol
# GULP energy per Si atom -5590.620927 kJ/mol
# Density = 2.242960 g / cm^3
# Si number density = 22.480763 Si / 1000 Ang^3
#
#
#
# Elastic Constant Matrix: (Units=GPa)
#
#
# Indices 1 2 3 4 5 6 
#
# 1 88.5742 42.6846 47.2060 0.0000 0.0000 0.0000
# 2 42.6846 130.3524 45.8266 0.0000 0.0000 0.0000
# 3 47.2060 45.8266 137.1470 0.0000 0.0000 0.0000
# 4 0.0000 0.0000 0.0000 28.2705 0.0000 0.0000
# 5 0.0000 0.0000 0.0000 0.0000 33.0816 0.0000
# 6 0.0000 0.0000 0.0000 0.0000 0.0000 -15.7047
#
#
#
# Elastic Compliance Matrix: (Units=1/GPa)
#
#
# Indices 1 2 3 4 5 6 
#
# 1 0.015144 -0.003543 -0.004029 0.000000 0.000000 0.000000
# 2 -0.003543 0.009521 -0.001962 0.000000 0.000000 0.000000
# 3 -0.004029 -0.001962 0.009334 0.000000 0.000000 0.000000
# 4 0.000000 0.000000 0.000000 0.035373 0.000000 0.000000
# 5 0.000000 0.000000 0.000000 0.000000 0.030228 0.000000
# 6 0.000000 0.000000 0.000000 0.000000 0.000000 -0.063675
#
#
# Mechanical properties :
#
#
# Convention : Reuss Voigt Hill
#
# Bulk Modulus (GPa) = 66.96958 69.72312 68.34635
# Shear Modulus (GPa) = 83.37474 23.81993 53.59733
#
# Velocity S-wave (km/s) = 6.09653 3.25863 4.88806
# Velocity P-wave (km/s) = 8.91130 6.72608 7.89466
#
# Compressibility (1/GPa) = 0.01493215
#
# Stress axis : x y z
#
# Youngs Moduli (GPa) = 66.03071 105.02675 107.13719
#
# Poissons Ratio (x) = 0.37208 0.43165
# Poissons Ratio (y) = 0.23393 0.21021
# Poissons Ratio (z) = 0.26603 0.20607
#
# Static dielectric constant tensor:
#      x y z
#    x 3.871830 0.000000 0.000000 
#    y 0.000000 1.815870 0.000000 
#    z 0.000000 0.000000 1.863110 
# 
# From -- ./inp_files/25319.got.cif
#   From: 2010.05.17/outbox.cif.g08.bks.cpg/sg68_13_cif.got.tgz:25319.got - 2010.06.03 18:57:09.
