data_PCOD9510233
_publ_section_title
;
Structure prediction by ZEFSAII (Michael W. Deem and Ramdas Pophale) SiO2 
 PCOD9510233
Probable space group: C C C A
;
_chemical_formula_sum "Si O2"
_cell_formula_units_Z 96
_cell_length_a 17.188992
_cell_length_b 26.279484
_cell_length_c 10.385533
_cell_angle_alpha 90.000000
_cell_angle_beta 90.000000
_cell_angle_gamma 90.000000
_cell_volume 4691.330537
_symmetry_space_group_name_H-M "C C C A"
_symmetry_group_IT_number 68
_space_group.IT_coordinate_system_code '2'
_symmetry_cell_setting 'orthorhombic'
loop_
_space_group_symop_operation_xyz
x,y,z
-x,1/2-y,z
x,1/2-y,1/2-z
-x,y,1/2-z
-x,-y,-z
x,1/2+y,-z
-x,1/2+y,1/2+z
x,-y,1/2+z
1/2+x,1/2+y,z
1/2-x,-y,z
1/2+x,-y,1/2-z
1/2-x,1/2+y,1/2-z
1/2-x,1/2-y,-z
1/2+x,y,-z
1/2-x,y,1/2+z
1/2+x,1/2-y,1/2+z
loop_
_atom_site_type_symbol
_atom_site_label
_atom_site_fract_x
_atom_site_fract_y
_atom_site_fract_z
Si Si1 0.946421 0.795027 0.015972
Si Si2 0.665234 0.523935 0.729524
Si Si3 0.418842 0.526269 0.037028
Si Si4 0.591406 0.147019 0.535676
Si Si5 0.091154 0.630804 0.244131
Si Si6 0.809354 0.235237 0.111157
O O1 0.907645 0.829878 0.126112
O O2 0.000000 0.750000 0.075316
O O3 0.884962 0.769023 0.922697
O O4 0.007519 0.828761 0.936554
O O5 0.750000 0.500000 0.748241
O O6 0.638935 0.515570 0.582441
O O7 0.609076 0.496095 0.828971
O O8 0.650474 0.583625 0.762540
O O9 0.417679 0.587097 0.051265
O O10 0.500000 0.500000 0.000000
O O11 0.605107 0.156369 0.382442
O O12 0.660023 0.177077 0.606496
O O13 0.000000 0.611776 0.250000
O O14 0.777764 0.250000 0.250000
O O15 0.750000 0.250000 0.000000
#
# Coordination Sequence:
#
# PCOD9510233 Si02
#       6
#    16  16  16  16  16  16
#     4   9  19  37  66  92 119 162 216 272 319 379
#     4  11  23  40  63  95 137 170 216 273 337 396
#     4  11  22  44  67  97 129 176 227 277 328 405
#     4   9  21  40  64  95 124 166 221 268 328 390
#     4   9  18  37  65  96 124 168 221 266 320 406
#     4  11  26  44  62  91 135 173 213 270 333 402
#
# _framework density 20.463279
#
# number of rings (size 3 to 8) (size 9 to 14) (size 15 to 20)
#    0.000    2.000    0.000    4.000    2.333   11.333 
#   12.000    0.000    0.000    0.000    0.000    0.000 
#    0.000    0.000    0.000    0.000    0.000    0.000 
#
# Total GULP energy -267954.965958 kJ/mol
# GULP energy per Si atom -5582.395124 kJ/mol
# Density = 2.041670 g / cm^3
# Si number density = 20.463279 Si / 1000 Ang^3
#
#
#
# Elastic Constant Matrix: (Units=GPa)
#
#
# Indices 1 2 3 4 5 6 
#
# 1 67.9624 33.7438 10.0427 0.0000 0.0000 0.0000
# 2 33.7438 101.0361 31.3109 0.0000 0.0000 0.0000
# 3 10.0427 31.3109 64.4907 0.0000 0.0000 0.0000
# 4 0.0000 0.0000 0.0000 28.7953 0.0000 0.0000
# 5 0.0000 0.0000 0.0000 0.0000 18.3625 0.0000
# 6 0.0000 0.0000 0.0000 0.0000 0.0000 29.3203
#
#
#
# Elastic Compliance Matrix: (Units=1/GPa)
#
#
# Indices 1 2 3 4 5 6 
#
# 1 0.017640 -0.005933 0.000133 0.000000 0.000000 0.000000
# 2 -0.005933 0.013646 -0.005701 0.000000 0.000000 0.000000
# 3 0.000133 -0.005701 0.018253 0.000000 0.000000 0.000000
# 4 0.000000 0.000000 0.000000 0.034728 0.000000 0.000000
# 5 0.000000 0.000000 0.000000 0.000000 0.054459 0.000000
# 6 0.000000 0.000000 0.000000 0.000000 0.000000 0.034106
#
#
# Mechanical properties :
#
#
# Convention : Reuss Voigt Hill
#
# Bulk Modulus (GPa) = 37.68194 42.63156 40.15675
# Shear Modulus (GPa) = 24.42853 25.85507 25.14180
#
# Velocity S-wave (km/s) = 3.45885 3.55841 3.50898
# Velocity P-wave (km/s) = 5.86566 6.14504 6.00697
#
# Compressibility (1/GPa) = 0.02653791
#
# Stress axis : x y z
#
# Youngs Moduli (GPa) = 56.68956 73.28348 54.78450
#
# Poissons Ratio (x) = 0.43477 -0.00731
# Poissons Ratio (y) = 0.33632 0.31234
# Poissons Ratio (z) = -0.00756 0.41781
#
# Static dielectric constant tensor:
#      x y z
#    x 1.754310 0.000000 0.000000 
#    y 0.000000 1.771380 0.000000 
#    z 0.000000 0.000000 1.716970 
# 
# From -- ./inp_files/14643.got.cif
#   From: 2010.05.17/outbox.cif.g08.bks.cpg/sg68_8_cif.got.tgz:14643.got - 2010.06.03 18:57:09.
