data_PCOD9510948
_publ_section_title
;
Structure prediction by ZEFSAII (Michael W. Deem and Ramdas Pophale) SiO2 
 PCOD9510948
Probable space group: C C C A
;
_chemical_formula_sum "Si O2"
_cell_formula_units_Z 52
_cell_length_a 21.000000
_cell_length_b 15.000000
_cell_length_c 18.000000
_cell_angle_alpha 90.000000
_cell_angle_beta 90.000000
_cell_angle_gamma 90.000000
_cell_volume 5670.000000
_symmetry_space_group_name_H-M "C C C A"
_symmetry_group_IT_number 68
_space_group.IT_coordinate_system_code '2'
_symmetry_cell_setting 'orthorhombic'
loop_
_space_group_symop_operation_xyz
x,y,z
-x,1/2-y,z
x,1/2-y,1/2-z
-x,y,1/2-z
-x,-y,-z
x,1/2+y,-z
-x,1/2+y,1/2+z
x,-y,1/2+z
1/2+x,1/2+y,z
1/2-x,-y,z
1/2+x,-y,1/2-z
1/2-x,1/2+y,1/2-z
1/2-x,1/2-y,-z
1/2+x,y,-z
1/2-x,y,1/2+z
1/2+x,1/2-y,1/2+z
loop_
_atom_site_type_symbol
_atom_site_label
_atom_site_fract_x
_atom_site_fract_y
_atom_site_fract_z
Si Si1 0.475751 0.849791 0.434071
Si Si2 0.596239 0.646803 0.277855
Si Si3 0.754225 0.335132 0.138314
Si Si4 0.606123 0.423690 0.618364
Si Si5 0.758027 0.866538 0.697004
Si Si6 0.750000 0.500000 0.421642
Si Si7 0.648686 0.090985 0.469097
O O1 0.500000 0.750000 0.448562
O O2 0.448296 0.857097 0.349796
O O3 0.544118 0.901248 0.432698
O O4 0.415327 0.872980 0.488532
O O5 0.598001 0.750000 0.250000
O O6 0.583170 0.590633 0.203273
O O7 0.666251 0.616933 0.303092
O O8 0.826563 0.365603 0.113647
O O9 0.738242 0.383729 0.217367
O O10 0.753893 0.234076 0.167193
O O11 0.700741 0.347554 0.074823
O O12 0.626282 0.521553 0.593604
O O13 0.724445 0.925895 0.635403
O O14 0.693618 0.539390 0.471837
#
# Coordination Sequence:
#
# PCOD9510948 Si02
#       7
#    16  16  16  16  16   8  16
#     4  12  24  40  63  92 127 165 210 265 316 377
#     4  11  19  38  64  95 117 159 215 259 309 359
#     4  10  21  42  64  86 124 170 211 249 314 378
#     4  11  22  38  61  90 129 160 202 262 314 370
#     4  10  21  38  62  93 122 162 210 263 303 365
#     4  12  24  36  60  96 130 156 208 264 310 374
#     4  12  26  40  59  95 130 170 202 252 328 380
#
# _framework density 9.1710759999999993
#
# number of rings (size 3 to 8) (size 9 to 14) (size 15 to 20)
#    0.000    0.923    7.692    0.923    4.308    1.846 
#    0.000    0.000    0.000    1.846    0.000    0.000 
#    0.000    0.000    0.000    0.000    0.000    0.000 
#
# Total GULP energy -289603.299291 kJ/mol
# GULP energy per Si atom -5569.294217 kJ/mol
# Density = 0.915020 g / cm^3
# Si number density = 9.171076 Si / 1000 Ang^3
#
#
#
# Elastic Constant Matrix: (Units=GPa)
#
#
# Indices 1 2 3 4 5 6 
#
# 1 125.7691 31.6602 54.7019 0.0000 0.0000 0.0000
# 2 31.6602 52.4365 37.6887 0.0000 0.0000 0.0000
# 3 54.7019 37.6887 106.9654 0.0000 0.0000 0.0000
# 4 0.0000 0.0000 0.0000 34.4764 0.0000 0.0000
# 5 0.0000 0.0000 0.0000 0.0000 -160.1754 0.0000
# 6 0.0000 0.0000 0.0000 0.0000 0.0000 26.2565
#
#
#
# Elastic Compliance Matrix: (Units=1/GPa)
#
#
# Indices 1 2 3 4 5 6 
#
# 1 0.010652 -0.003370 -0.004260 0.000000 0.000000 0.000000
# 2 -0.003370 0.026604 -0.007651 0.000000 0.000000 0.000000
# 3 -0.004260 -0.007651 0.014223 0.000000 0.000000 0.000000
# 4 0.000000 0.000000 0.000000 0.029005 0.000000 0.000000
# 5 0.000000 0.000000 0.000000 0.000000 -0.006243 0.000000
# 6 0.000000 0.000000 0.000000 0.000000 0.000000 0.038086
#
#
# Mechanical properties :
#
#
# Convention : Reuss Voigt Hill
#
# Bulk Modulus (GPa) = 47.80446 59.25250 53.52848
# Shear Modulus (GPa) = 33.36419 -9.14716 12.10851
#
# Velocity S-wave (km/s) = 4.26959 -2.23557 2.57212
# Velocity P-wave (km/s) = 7.10106 5.07054 6.16991
#
# Compressibility (1/GPa) = 0.02091855
#
# Stress axis : x y z
#
# Youngs Moduli (GPa) = 93.87662 37.58828 70.30778
#
# Poissons Ratio (x) = 0.12666 0.29953
# Poissons Ratio (y) = 0.31632 0.53790
# Poissons Ratio (z) = 0.39994 0.28757
#
# Static dielectric constant tensor:
#      x y z
#    x 1.650290 0.000000 0.000000 
#    y 0.000000 1.710420 0.000000 
#    z 0.000000 0.000000 1.651650 
# 
# From -- ./inp_files/32990.got.cif
#   From: 2010.05.17/outbox.ucp.g08.bks.cvg/sg68_17_cif.got.tgz:32990.got - 2010.06.11 16:49:25.
