data_PCOD9510221
_publ_section_title
;
Structure prediction by ZEFSAII (Michael W. Deem and Ramdas Pophale) SiO2 
 PCOD9510221
Probable space group: C C C A
;
_chemical_formula_sum "Si O2"
_cell_formula_units_Z 80
_cell_length_a 16.063725
_cell_length_b 22.712893
_cell_length_c 10.163056
_cell_angle_alpha 90.000000
_cell_angle_beta 90.000000
_cell_angle_gamma 90.000000
_cell_volume 3708.028251
_symmetry_space_group_name_H-M "C C C A"
_symmetry_group_IT_number 68
_space_group.IT_coordinate_system_code '2'
_symmetry_cell_setting 'orthorhombic'
loop_
_space_group_symop_operation_xyz
x,y,z
-x,1/2-y,z
x,1/2-y,1/2-z
-x,y,1/2-z
-x,-y,-z
x,1/2+y,-z
-x,1/2+y,1/2+z
x,-y,1/2+z
1/2+x,1/2+y,z
1/2-x,-y,z
1/2+x,-y,1/2-z
1/2-x,1/2+y,1/2-z
1/2-x,1/2-y,-z
1/2+x,y,-z
1/2-x,y,1/2+z
1/2+x,1/2-y,1/2+z
loop_
_atom_site_type_symbol
_atom_site_label
_atom_site_fract_x
_atom_site_fract_y
_atom_site_fract_z
Si Si1 0.919447 0.354077 0.915366
Si Si2 0.760563 0.642197 0.548081
Si Si3 0.053658 0.482581 0.622586
Si Si4 0.202523 0.437872 0.196385
Si Si5 0.903662 0.694022 0.148234
O O1 0.909151 0.423088 0.940394
O O2 0.900321 0.354956 0.760565
O O3 0.010241 0.322357 0.929272
O O4 0.844827 0.325472 0.998030
O O5 0.783279 0.604660 0.678839
O O6 0.730904 0.597882 0.432818
O O7 0.682679 0.686077 0.572851
O O8 0.110877 0.536870 0.666930
O O9 0.000000 0.466412 0.750000
O O10 0.000000 0.500000 0.500000
O O11 0.250000 0.500000 0.216751
O O12 0.908448 0.750000 0.250000
#
# Coordination Sequence:
#
# PCOD9510221 Si02
#       5
#    16  16  16  16  16
#     4  11  22  43  67  99 140 184 241 286 356 443
#     4  12  24  44  69 106 147 189 244 303 356 443
#     4  12  24  39  63  95 137 186 233 279 352 435
#     4  12  25  39  65 103 149 190 232 291 357 434
#     4  11  24  46  74 102 135 187 244 310 372 427
#
# _framework density 21.574808000000001
#
# number of rings (size 3 to 8) (size 9 to 14) (size 15 to 20)
#    0.000    0.400    6.000    4.200    2.800    0.800 
#    0.000    0.000    0.000    0.000    0.000    0.000 
#    0.000    0.000    0.000    0.000    0.000    0.000 
#
# Total GULP energy -222693.132185 kJ/mol
# GULP energy per Si atom -5567.328305 kJ/mol
# Density = 2.152570 g / cm^3
# Si number density = 21.574808 Si / 1000 Ang^3
#
#
#
# Elastic Constant Matrix: (Units=GPa)
#
#
# Indices 1 2 3 4 5 6 
#
# 1 203.4452 56.1346 64.3908 0.0000 0.0000 0.0000
# 2 56.1346 90.9329 28.2117 0.0000 0.0000 0.0000
# 3 64.3908 28.2117 107.2184 0.0000 0.0000 0.0000
# 4 0.0000 0.0000 0.0000 -4.6405 0.0000 0.0000
# 5 0.0000 0.0000 0.0000 0.0000 25.5838 0.0000
# 6 0.0000 0.0000 0.0000 0.0000 0.0000 16.0106
#
#
#
# Elastic Compliance Matrix: (Units=1/GPa)
#
#
# Indices 1 2 3 4 5 6 
#
# 1 0.006831 -0.003206 -0.003259 0.000000 0.000000 0.000000
# 2 -0.003206 0.013479 -0.001621 0.000000 0.000000 0.000000
# 3 -0.003259 -0.001621 0.011711 0.000000 0.000000 0.000000
# 4 0.000000 0.000000 0.000000 -0.215496 0.000000 0.000000
# 5 0.000000 0.000000 0.000000 0.000000 0.039087 0.000000
# 6 0.000000 0.000000 0.000000 0.000000 0.000000 0.062459
#
#
# Mechanical properties :
#
#
# Convention : Reuss Voigt Hill
#
# Bulk Modulus (GPa) = 63.09751 77.67449 70.38600
# Shear Modulus (GPa) = -82.68200 24.24807 -29.21696
#
# Velocity S-wave (km/s) = -6.19731 3.35611 -3.68396
# Velocity P-wave (km/s) = 4.67968 7.14832 3.82094
#
# Compressibility (1/GPa) = 0.01584849
#
# Stress axis : x y z
#
# Youngs Moduli (GPa) = 146.38176 74.18790 85.39252
#
# Poissons Ratio (x) = 0.23785 0.27830
# Poissons Ratio (y) = 0.46931 0.13845
# Poissons Ratio (z) = 0.47707 0.12028
#
# Static dielectric constant tensor:
#      x y z
#    x 1.897510 0.000000 0.000000 
#    y 0.000000 1.886390 0.000000 
#    z 0.000000 0.000000 1.773220 
# 
# From -- ./inp_files/13176.got.cif
#   From: 2010.05.17/outbox.cif.g08.bks.cpg/sg68_7_cif.got.tgz:13176.got - 2010.06.03 18:57:09.
