data_PCOD9510244
_publ_section_title
;
Structure prediction by ZEFSAII (Michael W. Deem and Ramdas Pophale) SiO2 
 PCOD9510244
Probable space group: C C C A
;
_chemical_formula_sum "Si O2"
_cell_formula_units_Z 60
_cell_length_a 7.607157
_cell_length_b 26.451123
_cell_length_c 11.561033
_cell_angle_alpha 90.000000
_cell_angle_beta 90.000000
_cell_angle_gamma 90.000000
_cell_volume 2326.286152
_symmetry_space_group_name_H-M "C C C A"
_symmetry_group_IT_number 68
_space_group.IT_coordinate_system_code '2'
_symmetry_cell_setting 'orthorhombic'
loop_
_space_group_symop_operation_xyz
x,y,z
-x,1/2-y,z
x,1/2-y,1/2-z
-x,y,1/2-z
-x,-y,-z
x,1/2+y,-z
-x,1/2+y,1/2+z
x,-y,1/2+z
1/2+x,1/2+y,z
1/2-x,-y,z
1/2+x,-y,1/2-z
1/2-x,1/2+y,1/2-z
1/2-x,1/2-y,-z
1/2+x,y,-z
1/2-x,y,1/2+z
1/2+x,1/2-y,1/2+z
loop_
_atom_site_type_symbol
_atom_site_label
_atom_site_fract_x
_atom_site_fract_y
_atom_site_fract_z
Si Si1 0.500000 0.151384 0.250000
Si Si2 0.887033 0.537213 0.920724
Si Si3 0.233975 0.199897 0.927817
Si Si4 0.000000 0.750000 0.750000
Si Si5 0.200935 0.606829 0.894100
O O1 0.563499 0.187359 0.147835
O O2 0.334490 0.117153 0.211405
O O3 0.750000 0.500000 0.851586
O O4 0.014050 0.580468 0.867397
O O5 0.780328 0.567655 0.015687
O O6 0.000000 0.500000 0.000000
O O7 0.384906 0.211530 0.830366
O O8 0.250000 0.250000 0.000000
O O9 0.212557 0.157133 0.027097
#
# Coordination Sequence:
#
# PCOD9510244 Si02
#       5
#     8  16  16   4  16
#     4  12  26  45  76 109 162 215 268 328 401 492
#     4   9  20  42  78 103 149 203 252 331 414 472
#     4  12  27  47  70 108 156 209 265 330 398 484
#     4  12  28  42  68 104 148 216 276 320 396 500
#     4  11  22  44  73 112 154 204 262 329 404 477
#
# _framework density 25.792185
#
# number of rings (size 3 to 8) (size 9 to 14) (size 15 to 20)
#    0.000    1.067    2.667    3.200    3.733    3.733 
#    0.000    0.000   17.600    0.000    0.000    0.000 
#    0.000    0.000    0.000    0.000    0.000    0.000 
#
# Total GULP energy -167411.459729 kJ/mol
# GULP energy per Si atom -5580.381991 kJ/mol
# Density = 2.573348 g / cm^3
# Si number density = 25.792185 Si / 1000 Ang^3
#
#
#
# Elastic Constant Matrix: (Units=GPa)
#
#
# Indices 1 2 3 4 5 6 
#
# 1 164.2691 75.0399 63.3363 0.0000 0.0000 0.0000
# 2 75.0399 199.6045 43.8244 0.0000 0.0000 0.0000
# 3 63.3363 43.8244 114.8336 0.0000 0.0000 0.0000
# 4 0.0000 0.0000 0.0000 -10.1256 0.0000 0.0000
# 5 0.0000 0.0000 0.0000 0.0000 60.4452 0.0000
# 6 0.0000 0.0000 0.0000 0.0000 0.0000 57.2084
#
#
#
# Elastic Compliance Matrix: (Units=1/GPa)
#
#
# Indices 1 2 3 4 5 6 
#
# 1 0.008682 -0.002415 -0.003867 0.000000 0.000000 0.000000
# 2 -0.002415 0.006140 -0.001011 0.000000 0.000000 0.000000
# 3 -0.003867 -0.001011 0.011227 0.000000 0.000000 0.000000
# 4 0.000000 0.000000 0.000000 -0.098759 0.000000 0.000000
# 5 0.000000 0.000000 0.000000 0.000000 0.016544 0.000000
# 6 0.000000 0.000000 0.000000 0.000000 0.000000 0.017480
#
#
# Mechanical properties :
#
#
# Convention : Reuss Voigt Hill
#
# Bulk Modulus (GPa) = 87.24020 93.67871 90.45945
# Shear Modulus (GPa) = -246.53916 41.27272 -102.63322
#
# Velocity S-wave (km/s) = -9.78746 4.00459 -6.31496
# Velocity P-wave (km/s) = 9.68649 7.60143 4.24536
#
# Compressibility (1/GPa) = 0.01146261
#
# Stress axis : x y z
#
# Youngs Moduli (GPa) = 115.18685 162.87268 89.07204
#
# Poissons Ratio (x) = 0.39331 0.34442
# Poissons Ratio (y) = 0.27815 0.09008
# Poissons Ratio (z) = 0.44540 0.16471
#
# Static dielectric constant tensor:
#      x y z
#    x 2.148780 0.000000 0.000000 
#    y 0.000000 2.044330 0.000000 
#    z 0.000000 0.000000 2.142970 
# 
# From -- ./inp_files/10626.got.cif
#   From: 2010.05.17/outbox.cif.g08.bks.cpg/sg68_6_cif.got.tgz:10626.got - 2010.06.03 18:57:09.
