data_PCOD9510297
_publ_section_title
;
Structure prediction by ZEFSAII (Michael W. Deem and Ramdas Pophale) SiO2 
 PCOD9510297
Probable space group: C C C A
;
_chemical_formula_sum "Si O2"
_cell_formula_units_Z 68
_cell_length_a 13.915574
_cell_length_b 19.678603
_cell_length_c 10.376640
_cell_angle_alpha 90.000000
_cell_angle_beta 90.000000
_cell_angle_gamma 90.000000
_cell_volume 2841.529305
_symmetry_space_group_name_H-M "C C C A"
_symmetry_group_IT_number 68
_space_group.IT_coordinate_system_code '2'
_symmetry_cell_setting 'orthorhombic'
loop_
_space_group_symop_operation_xyz
x,y,z
-x,1/2-y,z
x,1/2-y,1/2-z
-x,y,1/2-z
-x,-y,-z
x,1/2+y,-z
-x,1/2+y,1/2+z
x,-y,1/2+z
1/2+x,1/2+y,z
1/2-x,-y,z
1/2+x,-y,1/2-z
1/2-x,1/2+y,1/2-z
1/2-x,1/2-y,-z
1/2+x,y,-z
1/2-x,y,1/2+z
1/2+x,1/2-y,1/2+z
loop_
_atom_site_type_symbol
_atom_site_label
_atom_site_fract_x
_atom_site_fract_y
_atom_site_fract_z
Si Si1 0.846861 0.351732 0.842497
Si Si2 0.345039 0.041921 0.111809
Si Si3 0.432672 0.408618 0.907214
Si Si4 0.500000 0.750000 0.750000
Si Si5 0.858536 0.628604 0.867516
O O1 0.853059 0.395494 0.710549
O O2 0.927008 0.294429 0.833542
O O3 0.737947 0.326171 0.870230
O O4 0.877095 0.398533 0.961260
O O5 0.250000 0.000000 0.148423
O O6 0.435293 0.990059 0.117653
O O7 0.332927 0.067510 0.965420
O O8 0.530359 0.364432 0.911751
O O9 0.374079 0.383627 0.783454
#
# Coordination Sequence:
#
# PCOD9510297 Si02
#       5
#    16  16  16   4  16
#     4  12  25  50  71 108 151 204 262 301 381 455
#     4  12  22  41  74 114 157 191 237 319 396 456
#     4  11  24  40  72 116 154 189 245 317 403 457
#     4  12  32  52  80 100 148 224 268 308 352 482
#     4  11  23  41  66 108 152 192 239 311 391 449
#
# _framework density 23.930775000000001
#
# number of rings (size 3 to 8) (size 9 to 14) (size 15 to 20)
#    0.000    0.471    4.706    3.529    0.000    3.765 
#    0.000   10.588    0.000    7.059    0.000    0.000 
#    0.000    0.000    0.000    0.000    0.000    0.000 
#
# Total GULP energy -189610.011398 kJ/mol
# GULP energy per Si atom -5576.765041 kJ/mol
# Density = 2.387631 g / cm^3
# Si number density = 23.930775 Si / 1000 Ang^3
#
#
#
# Elastic Constant Matrix: (Units=GPa)
#
#
# Indices 1 2 3 4 5 6 
#
# 1 186.8218 33.0170 51.2709 0.0000 0.0000 0.0000
# 2 33.0170 35.6028 26.0404 0.0000 0.0000 0.0000
# 3 51.2709 26.0404 88.6890 0.0000 0.0000 0.0000
# 4 0.0000 0.0000 0.0000 -69.1735 0.0000 0.0000
# 5 0.0000 0.0000 0.0000 0.0000 14.7306 0.0000
# 6 0.0000 0.0000 0.0000 0.0000 0.0000 46.0705
#
#
#
# Elastic Compliance Matrix: (Units=1/GPa)
#
#
# Indices 1 2 3 4 5 6 
#
# 1 0.006866 -0.004412 -0.002674 0.000000 0.000000 0.000000
# 2 -0.004412 0.038604 -0.008784 0.000000 0.000000 0.000000
# 3 -0.002674 -0.008784 0.015400 0.000000 0.000000 0.000000
# 4 0.000000 0.000000 0.000000 -0.014456 0.000000 0.000000
# 5 0.000000 0.000000 0.000000 0.000000 0.067886 0.000000
# 6 0.000000 0.000000 0.000000 0.000000 0.000000 0.021706
#
#
# Mechanical properties :
#
#
# Convention : Reuss Voigt Hill
#
# Bulk Modulus (GPa) = 34.32823 59.08558 46.70691
# Shear Modulus (GPa) = 28.17600 11.71121 19.94361
#
# Velocity S-wave (km/s) = 3.43504 2.21459 2.88998
# Velocity P-wave (km/s) = 5.48713 5.59312 5.54038
#
# Compressibility (1/GPa) = 0.02913054
#
# Stress axis : x y z
#
# Youngs Moduli (GPa) = 145.64040 25.90409 64.93352
#
# Poissons Ratio (x) = 0.11428 0.17363
# Poissons Ratio (y) = 0.64253 0.57039
# Poissons Ratio (z) = 0.38944 0.22755
#
# Static dielectric constant tensor:
#      x y z
#    x 1.997730 0.000000 0.000000 
#    y 0.000000 1.964590 0.000000 
#    z 0.000000 0.000000 1.862610 
# 
# From -- ./inp_files/13040.got.cif
#   From: 2010.05.17/outbox.cif.g08.bks.cpg/sg68_7_cif.got.tgz:13040.got - 2010.06.03 18:57:09.
