data_PCOD9510384
_publ_section_title
;
Structure prediction by ZEFSAII (Michael W. Deem and Ramdas Pophale) SiO2 
 PCOD9510384
Probable space group: C C C A
;
_chemical_formula_sum "Si O2"
_cell_formula_units_Z 80
_cell_length_a 7.220914
_cell_length_b 27.259978
_cell_length_c 17.809725
_cell_angle_alpha 90.000000
_cell_angle_beta 90.000000
_cell_angle_gamma 90.000000
_cell_volume 3505.701119
_symmetry_space_group_name_H-M "C C C A"
_symmetry_group_IT_number 68
_space_group.IT_coordinate_system_code '2'
_symmetry_cell_setting 'orthorhombic'
loop_
_space_group_symop_operation_xyz
x,y,z
-x,1/2-y,z
x,1/2-y,1/2-z
-x,y,1/2-z
-x,-y,-z
x,1/2+y,-z
-x,1/2+y,1/2+z
x,-y,1/2+z
1/2+x,1/2+y,z
1/2-x,-y,z
1/2+x,-y,1/2-z
1/2-x,1/2+y,1/2-z
1/2-x,1/2-y,-z
1/2+x,y,-z
1/2-x,y,1/2+z
1/2+x,1/2-y,1/2+z
loop_
_atom_site_type_symbol
_atom_site_label
_atom_site_fract_x
_atom_site_fract_y
_atom_site_fract_z
Si Si1 0.474124 0.353620 0.558729
Si Si2 0.753383 0.250000 0.750000
Si Si3 0.811564 0.360434 0.808710
Si Si4 0.000000 0.250000 0.106183
Si Si5 0.250000 0.000000 0.641095
Si Si6 0.140769 0.898054 0.098035
Si Si7 0.000000 0.564256 0.750000
O O1 0.295256 0.355166 0.611599
O O2 0.504817 0.296070 0.552053
O O3 0.651156 0.376781 0.600181
O O4 0.441606 0.378861 0.479891
O O5 0.818091 0.306141 0.771104
O O6 0.658385 0.240178 0.830972
O O7 0.987158 0.380877 0.667527
O O8 0.672286 0.400146 0.771379
O O9 0.346413 0.956555 0.595835
O O10 0.091844 0.972434 0.689444
#
# Coordination Sequence:
#
# PCOD9510384 Si02
#       7
#    16   8  16   8   8  16   8
#     4  11  23  47  70 106 148 186 240 303 364 447
#     4   9  20  42  73 106 139 189 228 287 371 450
#     4  11  23  47  77 105 149 186 238 306 371 442
#     4   9  20  42  72 100 146 187 222 288 378 433
#     4  12  28  46  72 106 138 200 258 302 380 426
#     4  12  26  47  73 107 143 195 251 306 364 437
#     4  12  24  49  74 102 150 189 246 318 364 446
#
# _framework density 22.819970999999999
#
# number of rings (size 3 to 8) (size 9 to 14) (size 15 to 20)
#    0.000    1.000    4.000    3.600    0.000    1.600 
#    0.000    5.000    0.000    0.000    0.000    0.000 
#    0.000    0.000    0.000    0.000    0.000    0.000 
#
# Total GULP energy -223049.207460 kJ/mol
# GULP energy per Si atom -5576.230187 kJ/mol
# Density = 2.276803 g / cm^3
# Si number density = 22.819971 Si / 1000 Ang^3
#
#
#
# Elastic Constant Matrix: (Units=GPa)
#
#
# Indices 1 2 3 4 5 6 
#
# 1 132.0593 64.1655 45.3755 0.0000 0.0000 0.0000
# 2 64.1655 245.1451 103.4052 0.0000 0.0000 0.0000
# 3 45.3755 103.4052 112.3043 0.0000 0.0000 0.0000
# 4 0.0000 0.0000 0.0000 51.5842 0.0000 0.0000
# 5 0.0000 0.0000 0.0000 0.0000 16.0040 0.0000
# 6 0.0000 0.0000 0.0000 0.0000 0.0000 -4.4004
#
#
#
# Elastic Compliance Matrix: (Units=1/GPa)
#
#
# Indices 1 2 3 4 5 6 
#
# 1 0.009059 -0.001353 -0.002415 0.000000 0.000000 0.000000
# 2 -0.001353 0.006872 -0.005781 0.000000 0.000000 0.000000
# 3 -0.002415 -0.005781 0.015203 0.000000 0.000000 0.000000
# 4 0.000000 0.000000 0.000000 0.019386 0.000000 0.000000
# 5 0.000000 0.000000 0.000000 0.000000 0.062484 0.000000
# 6 0.000000 0.000000 0.000000 0.000000 0.000000 -0.227254
#
#
# Mechanical properties :
#
#
# Convention : Reuss Voigt Hill
#
# Bulk Modulus (GPa) = 83.07471 101.71122 92.39297
# Shear Modulus (GPa) = -54.85956 31.07507 -11.89225
#
# Velocity S-wave (km/s) = -4.90840 3.69419 -2.28531
# Velocity P-wave (km/s) = 2.08813 7.92868 5.79760
#
# Compressibility (1/GPa) = 0.01203736
#
# Stress axis : x y z
#
# Youngs Moduli (GPa) = 110.38350 145.52751 65.77825
#
# Poissons Ratio (x) = 0.19684 0.15885
# Poissons Ratio (y) = 0.14930 0.38023
# Poissons Ratio (z) = 0.26657 0.84123
#
# Static dielectric constant tensor:
#      x y z
#    x 1.943770 0.000000 0.000000 
#    y 0.000000 1.812880 0.000000 
#    z 0.000000 0.000000 1.895960 
# 
# From -- ./inp_files/28393.got.cif
#   From: 2010.05.17/outbox.cif.g08.bks.cpg/sg68_15_cif.got.tgz:28393.got - 2010.06.03 18:57:09.
