data_PCOD9510720
_publ_section_title
;
Structure prediction by ZEFSAII (Michael W. Deem and Ramdas Pophale) SiO2 
 PCOD9510720
Probable space group: C C C A
;
_chemical_formula_sum "Si O2"
_cell_formula_units_Z 48
_cell_length_a 12.330885
_cell_length_b 19.131965
_cell_length_c 9.099551
_cell_angle_alpha 90.000000
_cell_angle_beta 90.000000
_cell_angle_gamma 90.000000
_cell_volume 2146.712023
_symmetry_space_group_name_H-M "C C C A"
_symmetry_group_IT_number 68
_space_group.IT_coordinate_system_code '2'
_symmetry_cell_setting 'orthorhombic'
loop_
_space_group_symop_operation_xyz
x,y,z
-x,1/2-y,z
x,1/2-y,1/2-z
-x,y,1/2-z
-x,-y,-z
x,1/2+y,-z
-x,1/2+y,1/2+z
x,-y,1/2+z
1/2+x,1/2+y,z
1/2-x,-y,z
1/2+x,-y,1/2-z
1/2-x,1/2+y,1/2-z
1/2-x,1/2-y,-z
1/2+x,y,-z
1/2-x,y,1/2+z
1/2+x,1/2-y,1/2+z
loop_
_atom_site_type_symbol
_atom_site_label
_atom_site_fract_x
_atom_site_fract_y
_atom_site_fract_z
Si Si1 0.817459 0.430526 0.179912
Si Si2 0.674983 0.204430 0.390277
Si Si3 0.029142 0.877021 0.903061
O O1 0.750000 0.500000 0.160273
O O2 0.743559 0.362709 0.161240
O O3 0.874173 0.426085 0.341323
O O4 0.920193 0.420790 0.069841
O O5 0.646991 0.250000 0.250000
O O6 0.750000 0.250000 0.500000
O O7 0.571413 0.173670 0.474240
O O8 0.000000 0.836848 0.750000
#
# Coordination Sequence:
#
# PCOD9510720 Si02
#       3
#    16  16  16
#     4   9  21  43  72 100 150 200 247 318 384 446
#     4  12  22  43  74 110 148 202 249 312 388 460
#     4   8  21  44  70 102 148 194 245 316 378 447
#
# _framework density 22.359777000000001
#
# number of rings (size 3 to 8) (size 9 to 14) (size 15 to 20)
#    2.000    0.000    3.333    0.000    0.000    4.000 
#    6.000    3.333   14.667    0.000    0.000    0.000 
#    0.000    0.000    0.000    0.000    0.000    0.000 
#
# Total GULP energy -133933.333172 kJ/mol
# GULP energy per Si atom -5580.555549 kJ/mol
# Density = 2.230889 g / cm^3
# Si number density = 22.359777 Si / 1000 Ang^3
#
#
#
# Elastic Constant Matrix: (Units=GPa)
#
#
# Indices 1 2 3 4 5 6 
#
# 1 147.3275 115.1831 80.7446 0.0000 0.0000 0.0000
# 2 115.1831 182.9174 68.0365 0.0000 0.0000 0.0000
# 3 80.7446 68.0365 114.1358 0.0000 0.0000 0.0000
# 4 0.0000 0.0000 0.0000 27.1649 0.0000 0.0000
# 5 0.0000 0.0000 0.0000 0.0000 9.3896 0.0000
# 6 0.0000 0.0000 0.0000 0.0000 0.0000 26.5719
#
#
#
# Elastic Compliance Matrix: (Units=1/GPa)
#
#
# Indices 1 2 3 4 5 6 
#
# 1 0.017058 -0.008034 -0.007278 0.000000 0.000000 0.000000
# 2 -0.008034 0.010808 -0.000759 0.000000 0.000000 0.000000
# 3 -0.007278 -0.000759 0.014363 0.000000 0.000000 0.000000
# 4 0.000000 0.000000 0.000000 0.036812 0.000000 0.000000
# 5 0.000000 0.000000 0.000000 0.000000 0.106501 0.000000
# 6 0.000000 0.000000 0.000000 0.000000 0.000000 0.037634
#
#
# Mechanical properties :
#
#
# Convention : Reuss Voigt Hill
#
# Bulk Modulus (GPa) = 99.14727 108.03435 103.59081
# Shear Modulus (GPa) = 19.32884 24.65305 21.99095
#
# Velocity S-wave (km/s) = 2.94334 3.32409 3.13949
# Velocity P-wave (km/s) = 7.48258 7.94695 7.71826
#
# Compressibility (1/GPa) = 0.01008601
#
# Stress axis : x y z
#
# Youngs Moduli (GPa) = 58.62452 92.52047 69.62329
#
# Poissons Ratio (x) = 0.74332 0.50673
# Poissons Ratio (y) = 0.47099 0.05286
# Poissons Ratio (z) = 0.42668 0.07025
#
# Static dielectric constant tensor:
#      x y z
#    x 1.894040 0.000000 0.000000 
#    y 0.000000 1.785810 0.000000 
#    z 0.000000 0.000000 1.857110 
# 
# From -- ./inp_files/4594.got.cif
#   From: 2010.05.17/outbox.cif.g08.bks.cpg/sg68_3_cif.got.tgz:4594.got - 2010.06.03 18:57:09.
