data_PCOD9510787
_publ_section_title
;
Structure prediction by ZEFSAII (Michael W. Deem and Ramdas Pophale) SiO2 
 PCOD9510787
Probable space group: C C C A
;
_chemical_formula_sum "Si O2"
_cell_formula_units_Z 84
_cell_length_a 22.874448
_cell_length_b 5.482803
_cell_length_c 29.501765
_cell_angle_alpha 90.000000
_cell_angle_beta 90.000000
_cell_angle_gamma 90.000000
_cell_volume 3699.996077
_symmetry_space_group_name_H-M "C C C A"
_symmetry_group_IT_number 68
_space_group.IT_coordinate_system_code '2'
_symmetry_cell_setting 'orthorhombic'
loop_
_space_group_symop_operation_xyz
x,y,z
-x,1/2-y,z
x,1/2-y,1/2-z
-x,y,1/2-z
-x,-y,-z
x,1/2+y,-z
-x,1/2+y,1/2+z
x,-y,1/2+z
1/2+x,1/2+y,z
1/2-x,-y,z
1/2+x,-y,1/2-z
1/2-x,1/2+y,1/2-z
1/2-x,1/2-y,-z
1/2+x,y,-z
1/2-x,y,1/2+z
1/2+x,1/2-y,1/2+z
loop_
_atom_site_type_symbol
_atom_site_label
_atom_site_fract_x
_atom_site_fract_y
_atom_site_fract_z
Si Si1 0.250000 0.500000 0.827469
Si Si2 0.812372 0.144337 0.617759
Si Si3 0.500000 0.250000 0.086702
Si Si4 0.403498 0.472870 0.692630
Si Si5 0.500000 0.250000 0.854283
Si Si6 0.812533 0.250000 0.250000
Si Si7 0.881523 0.226728 0.528539
Si Si8 0.000000 0.750000 0.250000
O O1 0.199464 0.404013 0.859012
O O2 0.226870 0.699751 0.792941
O O3 0.864961 0.039296 0.648531
O O4 0.832592 0.184499 0.566818
O O5 0.750000 0.000000 0.619977
O O6 0.499492 0.500649 0.116186
O O7 0.556904 0.234560 0.055060
O O8 0.441027 0.239113 0.676007
O O9 0.356664 0.454595 0.732999
O O10 0.455906 0.621886 0.714847
O O11 0.877379 0.488504 0.503641
#
# Coordination Sequence:
#
# PCOD9510787 Si02
#       8
#     8  16   8  16   8   8  16   4
#     4  12  26  46  74 106 156 210 268 316 388 458
#     4  12  28  50  78 110 154 212 259 325 396 481
#     4  12  25  49  80 115 157 198 259 317 408 474
#     4  12  25  46  73 115 157 206 268 319 398 457
#     4  12  26  44  80 115 153 210 252 322 388 480
#     4  12  24  42  72 106 155 203 264 324 368 456
#     4  12  29  51  83 118 155 198 261 333 402 483
#     4  12  26  48  72 116 162 214 262 340 380 460
#
# _framework density 22.702726999999999
#
# number of rings (size 3 to 8) (size 9 to 14) (size 15 to 20)
#    0.000    0.000    3.810    5.714    5.333    0.762 
#    0.000    0.000    0.000    0.000    0.000    0.000 
#    0.000    0.000    0.000    0.000    0.000    0.000 
#
# Total GULP energy -234578.982877 kJ/mol
# GULP energy per Si atom -5585.213878 kJ/mol
# Density = 2.265105 g / cm^3
# Si number density = 22.702727 Si / 1000 Ang^3
#
#
#
# Elastic Constant Matrix: (Units=GPa)
#
#
# Indices 1 2 3 4 5 6 
#
# 1 130.8452 32.5024 52.4203 0.0000 0.0000 0.0000
# 2 32.5024 96.5680 47.5566 0.0000 0.0000 0.0000
# 3 52.4203 47.5566 132.4370 0.0000 0.0000 0.0000
# 4 0.0000 0.0000 0.0000 49.0697 0.0000 0.0000
# 5 0.0000 0.0000 0.0000 0.0000 86.2747 0.0000
# 6 0.0000 0.0000 0.0000 0.0000 0.0000 35.3175
#
#
#
# Elastic Compliance Matrix: (Units=1/GPa)
#
#
# Indices 1 2 3 4 5 6 
#
# 1 0.009281 -0.001597 -0.003100 0.000000 0.000000 0.000000
# 2 -0.001597 0.012855 -0.003984 0.000000 0.000000 0.000000
# 3 -0.003100 -0.003984 0.010208 0.000000 0.000000 0.000000
# 4 0.000000 0.000000 0.000000 0.020379 0.000000 0.000000
# 5 0.000000 0.000000 0.000000 0.000000 0.011591 0.000000
# 6 0.000000 0.000000 0.000000 0.000000 0.000000 0.028315
#
#
# Mechanical properties :
#
#
# Convention : Reuss Voigt Hill
#
# Bulk Modulus (GPa) = 66.74546 69.42319 68.08433
# Shear Modulus (GPa) = 43.48364 49.29044 46.38704
#
# Velocity S-wave (km/s) = 4.38122 4.66459 4.52512
# Velocity P-wave (km/s) = 7.42004 7.72378 7.57343
#
# Compressibility (1/GPa) = 0.01498229
#
# Stress axis : x y z
#
# Youngs Moduli (GPa) = 107.74274 77.79141 97.95850
#
# Poissons Ratio (x) = 0.12424 0.30369
# Poissons Ratio (y) = 0.17208 0.39025
# Poissons Ratio (z) = 0.33402 0.30991
#
# Static dielectric constant tensor:
#      x y z
#    x 1.877360 0.000000 0.000000 
#    y 0.000000 1.943530 0.000000 
#    z 0.000000 0.000000 1.844770 
# 
# From -- ./inp_files/56021.got.cif
#   From: 2010.05.17/outbox.cif.g08.bks.cpg/sg68_29_cif.got.tgz:56021.got - 2010.06.03 18:57:09.
