data_PCOD9510064
_publ_section_title
;
Structure prediction by ZEFSAII (Michael W. Deem and Ramdas Pophale) SiO2 
 PCOD9510064
Probable space group: C C C A
;
_chemical_formula_sum "Si O2"
_cell_formula_units_Z 116
_cell_length_a 17.224678
_cell_length_b 11.507281
_cell_length_c 28.761583
_cell_angle_alpha 90.000000
_cell_angle_beta 90.000000
_cell_angle_gamma 90.000000
_cell_volume 5700.810641
_symmetry_space_group_name_H-M "C C C A"
_symmetry_group_IT_number 68
_space_group.IT_coordinate_system_code '2'
_symmetry_cell_setting 'orthorhombic'
loop_
_space_group_symop_operation_xyz
x,y,z
-x,1/2-y,z
x,1/2-y,1/2-z
-x,y,1/2-z
-x,-y,-z
x,1/2+y,-z
-x,1/2+y,1/2+z
x,-y,1/2+z
1/2+x,1/2+y,z
1/2-x,-y,z
1/2+x,-y,1/2-z
1/2-x,1/2+y,1/2-z
1/2-x,1/2-y,-z
1/2+x,y,-z
1/2-x,y,1/2+z
1/2+x,1/2-y,1/2+z
loop_
_atom_site_type_symbol
_atom_site_label
_atom_site_fract_x
_atom_site_fract_y
_atom_site_fract_z
Si Si1 0.337540 0.753408 0.982285
Si Si2 0.078430 0.592030 0.327368
Si Si3 0.000000 0.250000 0.750000
Si Si4 0.168335 0.164298 0.322722
Si Si5 0.321688 0.918844 0.221046
Si Si6 0.929650 0.995716 0.125001
Si Si7 0.653640 0.993249 0.025105
Si Si8 0.323048 0.786066 0.872228
O O1 0.335818 0.765639 0.926755
O O2 0.368539 0.881433 0.998234
O O3 0.250000 0.750000 0.000000
O O4 0.367798 0.626498 0.998270
O O5 0.103929 0.478533 0.300443
O O6 0.148596 0.666891 0.348967
O O7 0.047065 0.671425 0.285778
O O8 0.016213 0.552088 0.366320
O O9 0.179756 0.087403 0.276687
O O10 0.175511 0.292237 0.301277
O O11 0.237570 0.167633 0.360339
O O12 0.092027 0.113302 0.347462
O O13 0.250000 0.000000 0.206971
O O14 0.878602 0.889167 0.145283
O O15 0.894751 0.010638 0.073253
O O16 0.750000 0.000000 0.031600
#
# Coordination Sequence:
#
# PCOD9510064 Si02
#       8
#    16  16   4  16  16  16  16  16
#     4   9  18  35  60  95 127 164 212 267 327 393
#     4  12  25  41  62  97 125 172 218 273 322 389
#     4  12  24  40  68  90 124 168 222 260 326 380
#     4  11  23  39  63  89 126 173 210 268 333 383
#     4  11  24  40  59  90 128 163 218 274 321 389
#     4  11  21  40  64  91 130 171 216 260 327 397
#     4   9  18  36  62  95 129 166 216 266 330 398
#     4  11  21  40  65  97 129 166 221 271 318 385
#
# _framework density 20.347984
#
# number of rings (size 3 to 8) (size 9 to 14) (size 15 to 20)
#    0.000    1.379    2.759    4.552    1.931    0.552 
#    9.931    2.069    0.000    0.000    0.000    0.000 
#    0.000    0.000    0.000    0.000    0.000    0.000 
#
# Total GULP energy -322869.728546 kJ/mol
# GULP energy per Si atom -5566.719458 kJ/mol
# Density = 2.030167 g / cm^3
# Si number density = 20.347984 Si / 1000 Ang^3
#
#
#
# Elastic Constant Matrix: (Units=GPa)
#
#
# Indices 1 2 3 4 5 6 
#
# 1 27.4636 2.8122 8.3505 0.0000 0.0000 0.0000
# 2 2.8122 104.1271 44.4892 0.0000 0.0000 0.0000
# 3 8.3505 44.4892 65.1399 0.0000 0.0000 0.0000
# 4 0.0000 0.0000 0.0000 39.1907 0.0000 0.0000
# 5 0.0000 0.0000 0.0000 0.0000 10.6540 0.0000
# 6 0.0000 0.0000 0.0000 0.0000 0.0000 24.3524
#
#
#
# Elastic Compliance Matrix: (Units=1/GPa)
#
#
# Indices 1 2 3 4 5 6 
#
# 1 0.038052 0.001492 -0.005897 0.000000 0.000000 0.000000
# 2 0.001492 0.013619 -0.009493 0.000000 0.000000 0.000000
# 3 -0.005897 -0.009493 0.022591 0.000000 0.000000 0.000000
# 4 0.000000 0.000000 0.000000 0.025516 0.000000 0.000000
# 5 0.000000 0.000000 0.000000 0.000000 0.093861 0.000000
# 6 0.000000 0.000000 0.000000 0.000000 0.000000 0.041064
#
#
# Mechanical properties :
#
#
# Convention : Reuss Voigt Hill
#
# Bulk Modulus (GPa) = 21.52098 34.22605 27.87351
# Shear Modulus (GPa) = 17.98635 24.24467 21.11551
#
# Velocity S-wave (km/s) = 2.97633 3.45556 3.22486
# Velocity P-wave (km/s) = 4.73401 5.72521 5.25304
#
# Compressibility (1/GPa) = 0.04646629
#
# Stress axis : x y z
#
# Youngs Moduli (GPa) = 26.27981 73.42526 44.26543
#
# Poissons Ratio (x) = -0.10954 0.26103
# Poissons Ratio (y) = -0.03920 0.42021
# Poissons Ratio (z) = 0.15497 0.69702
#
# Static dielectric constant tensor:
#      x y z
#    x 1.717940 0.000000 0.000000 
#    y 0.000000 1.711640 0.000000 
#    z 0.000000 0.000000 1.713500 
# 
# From -- ./inp_files/51493.got.cif
#   From: 2010.05.17/outbox.cif.g08.bks.cpg/sg68_26_cif.got.tgz:51493.got - 2010.06.03 18:57:09.
