data_PCOD9510266
_publ_section_title
;
Structure prediction by ZEFSAII (Michael W. Deem and Ramdas Pophale) SiO2 
 PCOD9510266
Probable space group: C C C A
;
_chemical_formula_sum "Si O2"
_cell_formula_units_Z 52
_cell_length_a 29.555774
_cell_length_b 5.319292
_cell_length_c 16.494619
_cell_angle_alpha 90.000000
_cell_angle_beta 90.000000
_cell_angle_gamma 90.000000
_cell_volume 2593.214593
_symmetry_space_group_name_H-M "C C C A"
_symmetry_group_IT_number 68
_space_group.IT_coordinate_system_code '2'
_symmetry_cell_setting 'orthorhombic'
loop_
_space_group_symop_operation_xyz
x,y,z
-x,1/2-y,z
x,1/2-y,1/2-z
-x,y,1/2-z
-x,-y,-z
x,1/2+y,-z
-x,1/2+y,1/2+z
x,-y,1/2+z
1/2+x,1/2+y,z
1/2-x,-y,z
1/2+x,-y,1/2-z
1/2-x,1/2+y,1/2-z
1/2-x,1/2-y,-z
1/2+x,y,-z
1/2-x,y,1/2+z
1/2+x,1/2-y,1/2+z
loop_
_atom_site_type_symbol
_atom_site_label
_atom_site_fract_x
_atom_site_fract_y
_atom_site_fract_z
Si Si1 0.000000 0.750000 0.750000
Si Si2 0.327082 0.002268 0.693504
Si Si3 0.427784 0.092710 0.168472
Si Si4 0.250000 0.500000 0.943333
Si Si5 0.500000 0.250000 0.051372
O O1 0.033753 0.605587 0.808955
O O2 0.320754 0.250000 0.750000
O O3 0.321978 0.750000 0.750000
O O4 0.377776 0.011087 0.655390
O O5 0.292358 0.997676 0.618886
O O6 0.422900 0.250000 0.250000
O O7 0.453092 0.255846 0.101695
O O8 0.250000 0.250000 0.000000
O O9 0.500000 0.500000 0.000000
#
# Coordination Sequence:
#
# PCOD9510266 Si02
#       5
#     4  16  16   8   8
#     4  12  16  40  68  92 128 162 234 262 334 360
#     4  11  24  43  71 101 126 173 232 282 324 394
#     4  11  23  39  67  92 127 177 227 274 318 389
#     4  12  26  46  70  98 140 176 208 276 354 414
#     4  12  26  38  57  91 136 172 210 268 330 390
#
# _framework density 20.052332
#
# number of rings (size 3 to 8) (size 9 to 14) (size 15 to 20)
#    0.000    0.615    4.615    3.692    0.000    2.462 
#    0.000    0.000    0.000    0.000    0.000    0.000 
#    0.000    0.000    0.000    0.000    0.000    0.000 
#
# Total GULP energy -145131.720157 kJ/mol
# GULP energy per Si atom -5581.989237 kJ/mol
# Density = 2.000669 g / cm^3
# Si number density = 20.052332 Si / 1000 Ang^3
#
#
#
# Elastic Constant Matrix: (Units=GPa)
#
#
# Indices 1 2 3 4 5 6 
#
# 1 215.4849 66.1656 93.7792 0.0000 0.0000 0.0000
# 2 66.1656 151.0965 72.8689 0.0000 0.0000 0.0000
# 3 93.7792 72.8689 130.2217 0.0000 0.0000 0.0000
# 4 0.0000 0.0000 0.0000 52.7806 0.0000 0.0000
# 5 0.0000 0.0000 0.0000 0.0000 -701.3213 0.0000
# 6 0.0000 0.0000 0.0000 0.0000 0.0000 41.1854
#
#
#
# Elastic Compliance Matrix: (Units=1/GPa)
#
#
# Indices 1 2 3 4 5 6 
#
# 1 0.006838 -0.000848 -0.004449 0.000000 0.000000 0.000000
# 2 -0.000848 0.009170 -0.004520 0.000000 0.000000 0.000000
# 3 -0.004449 -0.004520 0.013413 0.000000 0.000000 0.000000
# 4 0.000000 0.000000 0.000000 0.018946 0.000000 0.000000
# 5 0.000000 0.000000 0.000000 0.000000 -0.001426 0.000000
# 6 0.000000 0.000000 0.000000 0.000000 0.000000 0.024280
#
#
# Mechanical properties :
#
#
# Convention : Reuss Voigt Hill
#
# Bulk Modulus (GPa) = 102.20512 106.93674 104.57093
# Shear Modulus (GPa) = 53.12468 -103.87177 -25.37355
#
# Velocity S-wave (km/s) = 5.15272 -7.20505 -3.56106
# Velocity P-wave (km/s) = 9.29949 3.97146 5.94593
#
# Compressibility (1/GPa) = 0.00978425
#
# Stress axis : x y z
#
# Youngs Moduli (GPa) = 146.25117 109.05425 74.55591
#
# Poissons Ratio (x) = 0.09252 0.33172
# Poissons Ratio (y) = 0.12408 0.33701
# Poissons Ratio (z) = 0.65072 0.49294
#
# Static dielectric constant tensor:
#      x y z
#    x 1.942240 0.000000 0.000000 
#    y 0.000000 1.837520 0.000000 
#    z 0.000000 0.000000 2.598850 
# 
# From -- ./inp_files/18370.got.cif
#   From: 2010.05.17/outbox.cif.g08.bks.cpg/sg68_10_cif.got.tgz:18370.got - 2010.06.03 18:57:09.
