data_PCOD9510196
_publ_section_title
;
Structure prediction by ZEFSAII (Michael W. Deem and Ramdas Pophale) SiO2 
 PCOD9510196
Probable space group: C C C A
;
_chemical_formula_sum "Si O2"
_cell_formula_units_Z 96
_cell_length_a 24.343287
_cell_length_b 18.171363
_cell_length_c 12.029263
_cell_angle_alpha 90.000000
_cell_angle_beta 90.000000
_cell_angle_gamma 90.000000
_cell_volume 5321.152965
_symmetry_space_group_name_H-M "C C C A"
_symmetry_group_IT_number 68
_space_group.IT_coordinate_system_code '2'
_symmetry_cell_setting 'orthorhombic'
loop_
_space_group_symop_operation_xyz
x,y,z
-x,1/2-y,z
x,1/2-y,1/2-z
-x,y,1/2-z
-x,-y,-z
x,1/2+y,-z
-x,1/2+y,1/2+z
x,-y,1/2+z
1/2+x,1/2+y,z
1/2-x,-y,z
1/2+x,-y,1/2-z
1/2-x,1/2+y,1/2-z
1/2-x,1/2-y,-z
1/2+x,y,-z
1/2-x,y,1/2+z
1/2+x,1/2-y,1/2+z
loop_
_atom_site_type_symbol
_atom_site_label
_atom_site_fract_x
_atom_site_fract_y
_atom_site_fract_z
Si Si1 0.000000 0.627320 0.250000
Si Si2 0.301975 0.327453 0.813743
Si Si3 0.315970 0.355144 0.417529
Si Si4 0.619282 0.209992 0.005474
Si Si5 0.192780 0.455700 0.130854
Si Si6 0.880647 0.910872 0.200410
Si Si7 0.000000 0.250000 0.938004
O O1 0.055183 0.582390 0.229204
O O2 0.989698 0.681170 0.144835
O O3 0.298615 0.250000 0.750000
O O4 0.246642 0.337400 0.885095
O O5 0.305365 0.393247 0.725461
O O6 0.353776 0.324428 0.896077
O O7 0.345922 0.282132 0.461983
O O8 0.316041 0.416070 0.513464
O O9 0.347348 0.383767 0.308343
O O10 0.623832 0.152283 0.106634
O O11 0.555455 0.232774 0.995334
O O12 0.250000 0.500000 0.130543
O O13 0.145643 0.514383 0.156786
#
# Coordination Sequence:
#
# PCOD9510196 Si02
#       7
#     8  16  16  16  16  16   8
#     4   9  18  38  64  94 127 162 218 264 313 374
#     4  12  25  42  64  93 129 169 209 261 318 389
#     4  12  24  41  65  92 128 163 214 264 317 386
#     4  11  22  41  68  95 125 162 219 262 315 374
#     4  12  27  42  59  93 135 172 207 258 330 384
#     4  11  23  40  68  95 126 167 212 267 318 373
#     4   9  18  36  65  98 124 162 213 271 310 370
#
# _framework density 18.041202999999999
#
# number of rings (size 3 to 8) (size 9 to 14) (size 15 to 20)
#    0.000    0.833    5.000    3.000    4.667    0.000 
#    0.000    2.917    0.000    0.000    0.000    0.000 
#    0.000    0.000    0.000    0.000    0.000    0.000 
#
# Total GULP energy -268414.918974 kJ/mol
# GULP energy per Si atom -5591.977479 kJ/mol
# Density = 1.800014 g / cm^3
# Si number density = 18.041203 Si / 1000 Ang^3
#
#
#
# Elastic Constant Matrix: (Units=GPa)
#
#
# Indices 1 2 3 4 5 6 
#
# 1 135.8221 66.4194 34.5408 0.0000 0.0000 0.0000
# 2 66.4194 122.8666 50.1128 0.0000 0.0000 0.0000
# 3 34.5408 50.1128 77.4718 0.0000 0.0000 0.0000
# 4 0.0000 0.0000 0.0000 12.6853 0.0000 0.0000
# 5 0.0000 0.0000 0.0000 0.0000 30.0159 0.0000
# 6 0.0000 0.0000 0.0000 0.0000 0.0000 42.3164
#
#
#
# Elastic Compliance Matrix: (Units=1/GPa)
#
#
# Indices 1 2 3 4 5 6 
#
# 1 0.010107 -0.004925 -0.001320 0.000000 0.000000 0.000000
# 2 -0.004925 0.013456 -0.006508 0.000000 0.000000 0.000000
# 3 -0.001320 -0.006508 0.017706 0.000000 0.000000 0.000000
# 4 0.000000 0.000000 0.000000 0.078832 0.000000 0.000000
# 5 0.000000 0.000000 0.000000 0.000000 0.033316 0.000000
# 6 0.000000 0.000000 0.000000 0.000000 0.000000 0.023632
#
#
# Mechanical properties :
#
#
# Convention : Reuss Voigt Hill
#
# Bulk Modulus (GPa) = 63.44366 70.92294 67.18330
# Shear Modulus (GPa) = 24.06064 29.34268 26.70166
#
# Velocity S-wave (km/s) = 3.65588 4.03727 3.85130
# Velocity P-wave (km/s) = 7.28443 7.81855 7.55621
#
# Compressibility (1/GPa) = 0.01576202
#
# Stress axis : x y z
#
# Youngs Moduli (GPa) = 98.94364 74.31823 56.47700
#
# Poissons Ratio (x) = 0.36602 0.07457
# Poissons Ratio (y) = 0.48730 0.36755
# Poissons Ratio (z) = 0.13064 0.48366
#
# Static dielectric constant tensor:
#      x y z
#    x 1.618860 0.000000 0.000000 
#    y 0.000000 1.592740 0.000000 
#    z 0.000000 0.000000 1.607230 
# 
# From -- ./inp_files/16450.got.cif
#   From: 2010.05.17/outbox.cif.g08.bks.cpg/sg68_9_cif.got.tgz:16450.got - 2010.06.03 18:57:09.
