data_PCOD9510535
_publ_section_title
;
Structure prediction by ZEFSAII (Michael W. Deem and Ramdas Pophale) SiO2 
 PCOD9510535
Probable space group: C C C A
;
_chemical_formula_sum "Si O2"
_cell_formula_units_Z 64
_cell_length_a 20.444834
_cell_length_b 14.119820
_cell_length_c 9.281394
_cell_angle_alpha 90.000000
_cell_angle_beta 90.000000
_cell_angle_gamma 90.000000
_cell_volume 2679.328466
_symmetry_space_group_name_H-M "C C C A"
_symmetry_group_IT_number 68
_space_group.IT_coordinate_system_code '2'
_symmetry_cell_setting 'orthorhombic'
loop_
_space_group_symop_operation_xyz
x,y,z
-x,1/2-y,z
x,1/2-y,1/2-z
-x,y,1/2-z
-x,-y,-z
x,1/2+y,-z
-x,1/2+y,1/2+z
x,-y,1/2+z
1/2+x,1/2+y,z
1/2-x,-y,z
1/2+x,-y,1/2-z
1/2-x,1/2+y,1/2-z
1/2-x,1/2-y,-z
1/2+x,y,-z
1/2-x,y,1/2+z
1/2+x,1/2-y,1/2+z
loop_
_atom_site_type_symbol
_atom_site_label
_atom_site_fract_x
_atom_site_fract_y
_atom_site_fract_z
Si Si1 0.657037 0.322498 0.517177
Si Si2 0.000000 0.086294 0.750000
Si Si3 0.420126 0.750000 0.750000
Si Si4 0.128921 0.486507 0.284567
Si Si5 0.195246 0.111737 0.471327
O O1 0.623229 0.306929 0.363186
O O2 0.617011 0.393871 0.616558
O O3 0.728789 0.369001 0.502293
O O4 0.667109 0.215170 0.569774
O O5 0.038370 0.169433 0.661377
O O6 0.060412 0.019058 0.786339
O O7 0.178756 0.455864 0.161090
O O8 0.161548 0.564859 0.388952
#
# Coordination Sequence:
#
# PCOD9510535 Si02
#       5
#    16   8   8  16  16
#     4  11  26  46  77 110 152 188 257 312 385 436
#     4  11  26  48  71 104 154 200 251 294 361 464
#     4  11  24  48  74 108 146 205 240 314 372 437
#     4  12  26  48  75 112 149 205 248 303 380 449
#     4  11  27  47  77 112 152 192 247 325 380 447
#
# _framework density 23.886582000000001
#
# number of rings (size 3 to 8) (size 9 to 14) (size 15 to 20)
#    0.000    0.750    2.500    3.000    7.000    8.000 
#    0.000    1.250    0.000    0.000    0.000    0.000 
#    0.000    0.000    0.000    0.000    0.000    0.000 
#
# Total GULP energy -178626.385136 kJ/mol
# GULP energy per Si atom -5582.074536 kJ/mol
# Density = 2.383221 g / cm^3
# Si number density = 23.886582 Si / 1000 Ang^3
#
#
#
# Elastic Constant Matrix: (Units=GPa)
#
#
# Indices 1 2 3 4 5 6 
#
# 1 122.1372 70.1222 37.1249 0.0000 0.0000 0.0000
# 2 70.1222 146.0446 38.0698 0.0000 0.0000 0.0000
# 3 37.1249 38.0698 93.3189 0.0000 0.0000 0.0000
# 4 0.0000 0.0000 0.0000 47.2340 0.0000 0.0000
# 5 0.0000 0.0000 0.0000 0.0000 7.4169 0.0000
# 6 0.0000 0.0000 0.0000 0.0000 0.0000 36.3841
#
#
#
# Elastic Compliance Matrix: (Units=1/GPa)
#
#
# Indices 1 2 3 4 5 6 
#
# 1 0.011875 -0.005002 -0.002684 0.000000 0.000000 0.000000
# 2 -0.005002 0.009769 -0.001995 0.000000 0.000000 0.000000
# 3 -0.002684 -0.001995 0.012598 0.000000 0.000000 0.000000
# 4 0.000000 0.000000 0.000000 0.021171 0.000000 0.000000
# 5 0.000000 0.000000 0.000000 0.000000 0.134827 0.000000
# 6 0.000000 0.000000 0.000000 0.000000 0.000000 0.027485
#
#
# Mechanical properties :
#
#
# Convention : Reuss Voigt Hill
#
# Bulk Modulus (GPa) = 67.20641 72.45940 69.83290
# Shear Modulus (GPa) = 20.65717 32.61926 26.63822
#
# Velocity S-wave (km/s) = 2.94394 3.69940 3.34308
# Velocity P-wave (km/s) = 6.30495 6.97481 6.64833
#
# Compressibility (1/GPa) = 0.01487953
#
# Stress axis : x y z
#
# Youngs Moduli (GPa) = 84.20969 102.36330 79.38053
#
# Poissons Ratio (x) = 0.51204 0.21302
# Poissons Ratio (y) = 0.42123 0.15839
# Poissons Ratio (z) = 0.22598 0.20425
#
# Static dielectric constant tensor:
#      x y z
#    x 2.037020 0.000000 0.000000 
#    y 0.000000 1.999300 0.000000 
#    z 0.000000 0.000000 1.916850 
# 
# From -- ./inp_files/7769.got.cif
#   From: 2010.05.17/outbox.cif.g08.bks.cpg/sg68_4_cif.got.tgz:7769.got - 2010.06.03 18:57:09.
