data_PCOD9510662
_publ_section_title
;
Structure prediction by ZEFSAII (Michael W. Deem and Ramdas Pophale) SiO2 
 PCOD9510662
Probable space group: C C C A
;
_chemical_formula_sum "Si O2"
_cell_formula_units_Z 48
_cell_length_a 19.598660
_cell_length_b 9.507094
_cell_length_c 9.324957
_cell_angle_alpha 90.000000
_cell_angle_beta 90.000000
_cell_angle_gamma 90.000000
_cell_volume 1737.484762
_symmetry_space_group_name_H-M "C C C A"
_symmetry_group_IT_number 68
_space_group.IT_coordinate_system_code '2'
_symmetry_cell_setting 'orthorhombic'
loop_
_space_group_symop_operation_xyz
x,y,z
-x,1/2-y,z
x,1/2-y,1/2-z
-x,y,1/2-z
-x,-y,-z
x,1/2+y,-z
-x,1/2+y,1/2+z
x,-y,1/2+z
1/2+x,1/2+y,z
1/2-x,-y,z
1/2+x,-y,1/2-z
1/2-x,1/2+y,1/2-z
1/2-x,1/2-y,-z
1/2+x,y,-z
1/2-x,y,1/2+z
1/2+x,1/2-y,1/2+z
loop_
_atom_site_type_symbol
_atom_site_label
_atom_site_fract_x
_atom_site_fract_y
_atom_site_fract_z
Si Si1 0.955053 0.108230 0.591941
Si Si2 0.750403 0.153926 0.638020
Si Si3 0.890230 0.605958 0.693111
O O1 0.893021 0.122840 0.478196
O O2 0.000000 0.250000 0.604520
O O3 0.926476 0.029044 0.733139
O O4 0.000000 0.000000 0.500000
O O5 0.795010 0.250000 0.750000
O O6 0.750000 0.250000 0.500000
O O7 0.685135 0.115712 0.742300
O O8 0.750000 0.000000 0.569510
O O9 0.924835 0.750000 0.750000
#
# Coordination Sequence:
#
# PCOD9510662 Si02
#       3
#    16  16  16
#     4  12  26  48  77 108 158 206 264 324 399 470
#     4  11  27  49  80 114 159 207 267 333 401 479
#     4  11  27  49  75 115 155 205 267 330 393 482
#
# _framework density 27.626142999999999
#
# number of rings (size 3 to 8) (size 9 to 14) (size 15 to 20)
#    0.000    0.667    3.333    2.000   14.000    2.667 
#    0.000    0.000    0.000    0.000    0.000    0.000 
#    0.000    0.000    0.000    0.000    0.000    0.000 
#
# Total GULP energy -133750.713029 kJ/mol
# GULP energy per Si atom -5572.946376 kJ/mol
# Density = 2.756326 g / cm^3
# Si number density = 27.626143 Si / 1000 Ang^3
#
#
#
# Elastic Constant Matrix: (Units=GPa)
#
#
# Indices 1 2 3 4 5 6 
#
# 1 76.8977 12.7715 -9.7357 0.0000 0.0000 0.0000
# 2 12.7715 278.3332 78.5586 0.0000 0.0000 0.0000
# 3 -9.7357 78.5586 232.0749 0.0000 0.0000 0.0000
# 4 0.0000 0.0000 0.0000 65.0692 0.0000 0.0000
# 5 0.0000 0.0000 0.0000 0.0000 18.4028 0.0000
# 6 0.0000 0.0000 0.0000 0.0000 0.0000 9.5850
#
#
#
# Elastic Compliance Matrix: (Units=1/GPa)
#
#
# Indices 1 2 3 4 5 6 
#
# 1 0.013251 -0.000846 0.000842 0.000000 0.000000 0.000000
# 2 -0.000846 0.004026 -0.001398 0.000000 0.000000 0.000000
# 3 0.000842 -0.001398 0.004818 0.000000 0.000000 0.000000
# 4 0.000000 0.000000 0.000000 0.015368 0.000000 0.000000
# 5 0.000000 0.000000 0.000000 0.000000 0.054339 0.000000
# 6 0.000000 0.000000 0.000000 0.000000 0.000000 0.104330
#
#
# Mechanical properties :
#
#
# Convention : Reuss Voigt Hill
#
# Bulk Modulus (GPa) = 51.83649 83.38827 67.61238
# Shear Modulus (GPa) = 24.34663 52.32550 38.33606
#
# Velocity S-wave (km/s) = 2.97187 4.35680 3.72919
# Velocity P-wave (km/s) = 5.52995 7.45379 6.56275
#
# Compressibility (1/GPa) = 0.01929143
#
# Stress axis : x y z
#
# Youngs Moduli (GPa) = 75.46380 248.36573 207.56990
#
# Poissons Ratio (x) = 0.21006 -0.17482
# Poissons Ratio (y) = 0.06382 0.29027
# Poissons Ratio (z) = -0.06356 0.34732
#
# Static dielectric constant tensor:
#      x y z
#    x 2.698890 0.000000 0.000000 
#    y 0.000000 2.663250 0.000000 
#    z 0.000000 0.000000 2.262480 
# 
# From -- ./inp_files/3308.got.cif
#   From: 2010.05.17/outbox.cif.g08.bks.cpg/sg68_2_cif.got.tgz:3308.got - 2010.06.03 18:57:09.
