data_PCOD9510323
_publ_section_title
;
Structure prediction by ZEFSAII (Michael W. Deem and Ramdas Pophale) SiO2 
 PCOD9510323
Probable space group: C C C A
;
_chemical_formula_sum "Si O2"
_cell_formula_units_Z 56
_cell_length_a 12.615704
_cell_length_b 9.543815
_cell_length_c 21.152658
_cell_angle_alpha 90.000000
_cell_angle_beta 90.000000
_cell_angle_gamma 90.000000
_cell_volume 2546.821167
_symmetry_space_group_name_H-M "C C C A"
_symmetry_group_IT_number 68
_space_group.IT_coordinate_system_code '2'
_symmetry_cell_setting 'orthorhombic'
loop_
_space_group_symop_operation_xyz
x,y,z
-x,1/2-y,z
x,1/2-y,1/2-z
-x,y,1/2-z
-x,-y,-z
x,1/2+y,-z
-x,1/2+y,1/2+z
x,-y,1/2+z
1/2+x,1/2+y,z
1/2-x,-y,z
1/2+x,-y,1/2-z
1/2-x,1/2+y,1/2-z
1/2-x,1/2-y,-z
1/2+x,y,-z
1/2-x,y,1/2+z
1/2+x,1/2-y,1/2+z
loop_
_atom_site_type_symbol
_atom_site_label
_atom_site_fract_x
_atom_site_fract_y
_atom_site_fract_z
Si Si1 0.217408 0.778736 0.678221
Si Si2 0.750000 0.000000 0.099077
Si Si3 0.432328 0.539334 0.816949
Si Si4 0.956205 0.599820 0.447016
O O1 0.190733 0.750000 0.750000
O O2 0.209913 0.631208 0.641621
O O3 0.131092 0.898062 0.662752
O O4 0.337224 0.844226 0.680389
O O5 0.832126 0.922088 0.054238
O O6 0.500000 0.536321 0.750000
O O7 0.510299 0.569493 0.874702
O O8 0.000000 0.750000 0.462896
O O9 0.000000 0.500000 0.500000
#
# Coordination Sequence:
#
# PCOD9510323 Si02
#       4
#    16   8  16  16
#     4  11  23  42  71 111 148 193 241 304 372 446
#     4  12  26  46  76 106 146 192 256 300 374 456
#     4  11  25  46  75 108 149 190 246 306 372 438
#     4  12  29  50  74 106 146 195 242 310 376 446
#
# _framework density 21.988194
#
# number of rings (size 3 to 8) (size 9 to 14) (size 15 to 20)
#    0.000    0.571    2.857    5.143    4.000    6.286 
#    0.000    1.429    0.000    0.000    0.000    0.000 
#    0.000    0.000    0.000    0.000    0.000    0.000 
#
# Total GULP energy -156302.520122 kJ/mol
# GULP energy per Si atom -5582.232862 kJ/mol
# Density = 2.193815 g / cm^3
# Si number density = 21.988194 Si / 1000 Ang^3
#
#
#
# Elastic Constant Matrix: (Units=GPa)
#
#
# Indices 1 2 3 4 5 6 
#
# 1 84.2886 57.8158 2.5846 0.0000 0.0000 0.0000
# 2 57.8158 193.7205 45.6857 0.0000 0.0000 0.0000
# 3 2.5846 45.6857 80.5243 0.0000 0.0000 0.0000
# 4 0.0000 0.0000 0.0000 185.4711 0.0000 0.0000
# 5 0.0000 0.0000 0.0000 0.0000 62.8367 0.0000
# 6 0.0000 0.0000 0.0000 0.0000 0.0000 35.1086
#
#
#
# Elastic Compliance Matrix: (Units=1/GPa)
#
#
# Indices 1 2 3 4 5 6 
#
# 1 0.015318 -0.005144 0.002427 0.000000 0.000000 0.000000
# 2 -0.005144 0.007687 -0.004196 0.000000 0.000000 0.000000
# 3 0.002427 -0.004196 0.014721 0.000000 0.000000 0.000000
# 4 0.000000 0.000000 0.000000 0.005392 0.000000 0.000000
# 5 0.000000 0.000000 0.000000 0.000000 0.015914 0.000000
# 6 0.000000 0.000000 0.000000 0.000000 0.000000 0.028483
#
#
# Mechanical properties :
#
#
# Convention : Reuss Voigt Hill
#
# Bulk Modulus (GPa) = 41.84151 63.41173 52.62662
# Shear Modulus (GPa) = 45.74223 73.51311 59.62767
#
# Velocity S-wave (km/s) = 4.56599 5.78840 5.21315
# Velocity P-wave (km/s) = 6.84602 8.57763 7.76028
#
# Compressibility (1/GPa) = 0.02389971
#
# Stress axis : x y z
#
# Youngs Moduli (GPa) = 65.28285 130.09220 67.92852
#
# Poissons Ratio (x) = 0.66919 -0.16485
# Poissons Ratio (y) = 0.33581 0.28503
# Poissons Ratio (z) = -0.15843 0.54587
#
# Static dielectric constant tensor:
#      x y z
#    x 1.455130 0.000000 0.000000 
#    y 0.000000 2.588610 0.000000 
#    z 0.000000 0.000000 1.741770 
# 
# From -- ./inp_files/35569.got.cif
#   From: 2010.05.17/outbox.cif.g08.bks.cpg/sg68_18_cif.got.tgz:35569.got - 2010.06.03 18:57:09.
