data_PCOD9510213
_publ_section_title
;
Structure prediction by ZEFSAII (Michael W. Deem and Ramdas Pophale) SiO2 
 PCOD9510213
Probable space group: C C C A
;
_chemical_formula_sum "Si O2"
_cell_formula_units_Z 60
_cell_length_a 10.937787
_cell_length_b 17.026458
_cell_length_c 16.919767
_cell_angle_alpha 90.000000
_cell_angle_beta 90.000000
_cell_angle_gamma 90.000000
_cell_volume 3150.998173
_symmetry_space_group_name_H-M "C C C A"
_symmetry_group_IT_number 68
_space_group.IT_coordinate_system_code '2'
_symmetry_cell_setting 'orthorhombic'
loop_
_space_group_symop_operation_xyz
x,y,z
-x,1/2-y,z
x,1/2-y,1/2-z
-x,y,1/2-z
-x,-y,-z
x,1/2+y,-z
-x,1/2+y,1/2+z
x,-y,1/2+z
1/2+x,1/2+y,z
1/2-x,-y,z
1/2+x,-y,1/2-z
1/2-x,1/2+y,1/2-z
1/2-x,1/2-y,-z
1/2+x,y,-z
1/2-x,y,1/2+z
1/2+x,1/2-y,1/2+z
loop_
_atom_site_type_symbol
_atom_site_label
_atom_site_fract_x
_atom_site_fract_y
_atom_site_fract_z
Si Si1 0.500000 0.250000 0.250000
Si Si2 0.319711 0.623452 0.819769
Si Si3 0.501774 0.000834 0.905952
Si Si4 0.556874 0.828984 0.339305
Si Si5 0.250000 0.500000 0.687234
O O1 0.583498 0.310052 0.201724
O O2 0.394085 0.558404 0.871380
O O3 0.202701 0.672135 0.848564
O O4 0.260071 0.574410 0.746592
O O5 0.526005 0.089473 0.879670
O O6 0.369350 0.986723 0.866526
O O7 0.500000 0.000000 0.000000
O O8 0.500000 0.750000 0.374768
O O9 0.500000 0.832959 0.250000
#
# Coordination Sequence:
#
# PCOD9510213 Si02
#       5
#     4  16  16  16   8
#     4  12  24  40  66 112 122 172 234 298 316 384
#     4  12  23  44  70  95 138 174 234 282 331 405
#     4  12  26  43  66 102 140 180 217 278 350 406
#     4  11  22  42  70  99 127 177 237 279 327 404
#     4  12  22  44  72  92 126 190 232 262 328 418
#
# _framework density 19.041585000000001
#
# number of rings (size 3 to 8) (size 9 to 14) (size 15 to 20)
#    0.000    0.267    8.000    1.600    3.733    0.000 
#    2.400    1.333    0.000    0.000    0.000    0.000 
#    0.000    0.000    0.000    0.000    0.000    0.000 
#
# Total GULP energy -167168.189235 kJ/mol
# GULP energy per Si atom -5572.272974 kJ/mol
# Density = 1.899825 g / cm^3
# Si number density = 19.041585 Si / 1000 Ang^3
#
#
#
# Elastic Constant Matrix: (Units=GPa)
#
#
# Indices 1 2 3 4 5 6 
#
# 1 162.6506 62.1365 38.9694 0.0000 0.0000 0.0000
# 2 62.1365 167.6801 42.6664 0.0000 0.0000 0.0000
# 3 38.9694 42.6664 83.5024 0.0000 0.0000 0.0000
# 4 0.0000 0.0000 0.0000 3.5285 0.0000 0.0000
# 5 0.0000 0.0000 0.0000 0.0000 4.7417 0.0000
# 6 0.0000 0.0000 0.0000 0.0000 0.0000 47.3929
#
#
#
# Elastic Compliance Matrix: (Units=1/GPa)
#
#
# Indices 1 2 3 4 5 6 
#
# 1 0.007562 -0.002189 -0.002411 0.000000 0.000000 0.000000
# 2 -0.002189 0.007489 -0.002805 0.000000 0.000000 0.000000
# 3 -0.002411 -0.002805 0.014534 0.000000 0.000000 0.000000
# 4 0.000000 0.000000 0.000000 0.283410 0.000000 0.000000
# 5 0.000000 0.000000 0.000000 0.000000 0.210894 0.000000
# 6 0.000000 0.000000 0.000000 0.000000 0.000000 0.021100
#
#
# Mechanical properties :
#
#
# Convention : Reuss Voigt Hill
#
# Bulk Modulus (GPa) = 67.67859 77.93085 72.80472
# Shear Modulus (GPa) = 8.85390 29.13668 18.99529
#
# Velocity S-wave (km/s) = 2.15867 3.91597 3.16186
# Velocity P-wave (km/s) = 6.46783 7.83977 7.18661
#
# Compressibility (1/GPa) = 0.01477572
#
# Stress axis : x y z
#
# Youngs Moduli (GPa) = 132.24225 133.53765 68.80467
#
# Poissons Ratio (x) = 0.29228 0.16586
# Poissons Ratio (y) = 0.28945 0.19299
# Poissons Ratio (z) = 0.31879 0.37456
#
# Static dielectric constant tensor:
#      x y z
#    x 1.629020 0.000000 0.000000 
#    y 0.000000 1.667950 0.000000 
#    z 0.000000 0.000000 1.645850 
# 
# From -- ./inp_files/23113.got.cif
#   From: 2010.05.17/outbox.cif.g08.bks.cpg/sg68_12_cif.got.tgz:23113.got - 2010.06.03 18:57:09.
