data_PCOD9510517
_publ_section_title
;
Structure prediction by ZEFSAII (Michael W. Deem and Ramdas Pophale) SiO2 
 PCOD9510517
Probable space group: C C C A
;
_chemical_formula_sum "Si O2"
_cell_formula_units_Z 68
_cell_length_a 9.650130
_cell_length_b 21.141251
_cell_length_c 14.096844
_cell_angle_alpha 90.000000
_cell_angle_beta 90.000000
_cell_angle_gamma 90.000000
_cell_volume 2875.979195
_symmetry_space_group_name_H-M "C C C A"
_symmetry_group_IT_number 68
_space_group.IT_coordinate_system_code '2'
_symmetry_cell_setting 'orthorhombic'
loop_
_space_group_symop_operation_xyz
x,y,z
-x,1/2-y,z
x,1/2-y,1/2-z
-x,y,1/2-z
-x,-y,-z
x,1/2+y,-z
-x,1/2+y,1/2+z
x,-y,1/2+z
1/2+x,1/2+y,z
1/2-x,-y,z
1/2+x,-y,1/2-z
1/2-x,1/2+y,1/2-z
1/2-x,1/2-y,-z
1/2+x,y,-z
1/2-x,y,1/2+z
1/2+x,1/2-y,1/2+z
loop_
_atom_site_type_symbol
_atom_site_label
_atom_site_fract_x
_atom_site_fract_y
_atom_site_fract_z
Si Si1 0.741942 0.247611 0.614963
Si Si2 0.373801 0.042891 0.532360
Si Si3 0.000000 0.250000 0.250000
Si Si4 0.222592 0.109803 0.686514
Si Si5 0.592396 0.370362 0.371013
O O1 0.750000 0.250000 0.500000
O O2 0.606684 0.219035 0.671148
O O3 0.742750 0.318363 0.656111
O O4 0.873126 0.203550 0.641826
O O5 0.332527 0.062836 0.638841
O O6 0.376359 0.108589 0.476627
O O7 0.500000 0.000000 0.500000
O O8 0.250000 0.000000 0.496901
O O9 0.199670 0.098483 0.797442
O O10 0.063286 0.106625 0.648756
#
# Coordination Sequence:
#
# PCOD9510517 Si02
#       5
#    16  16   4  16  16
#     4  12  25  43  77 112 153 201 248 330 411 484
#     4  12  26  48  74 106 147 201 263 317 383 466
#     4  12  28  44  66 122 164 188 268 318 400 520
#     4  11  24  46  74 107 146 192 257 318 395 475
#     4  11  24  46  74 105 145 195 251 321 394 469
#
# _framework density 23.644120999999998
#
# number of rings (size 3 to 8) (size 9 to 14) (size 15 to 20)
#    0.000    0.471    7.059    0.706    3.294    4.706 
#    0.000    0.000    0.000    0.000    0.000    0.000 
#    0.000    0.000    0.000    0.000    0.000    0.000 
#
# Total GULP energy -189298.299406 kJ/mol
# GULP energy per Si atom -5567.597041 kJ/mol
# Density = 2.359031 g / cm^3
# Si number density = 23.644121 Si / 1000 Ang^3
#
#
#
# Elastic Constant Matrix: (Units=GPa)
#
#
# Indices 1 2 3 4 5 6 
#
# 1 115.3192 24.7338 26.9061 0.0000 0.0000 0.0000
# 2 24.7338 74.5642 -3.9094 0.0000 0.0000 0.0000
# 3 26.9061 -3.9094 139.0319 0.0000 0.0000 0.0000
# 4 0.0000 0.0000 0.0000 21.3232 0.0000 0.0000
# 5 0.0000 0.0000 0.0000 0.0000 26.0313 0.0000
# 6 0.0000 0.0000 0.0000 0.0000 0.0000 37.7625
#
#
#
# Elastic Compliance Matrix: (Units=1/GPa)
#
#
# Indices 1 2 3 4 5 6 
#
# 1 0.009863 -0.003377 -0.002004 0.000000 0.000000 0.000000
# 2 -0.003377 0.014587 0.001064 0.000000 0.000000 0.000000
# 3 -0.002004 0.001064 0.007610 0.000000 0.000000 0.000000
# 4 0.000000 0.000000 0.000000 0.046897 0.000000 0.000000
# 5 0.000000 0.000000 0.000000 0.000000 0.038415 0.000000
# 6 0.000000 0.000000 0.000000 0.000000 0.000000 0.026481
#
#
# Mechanical properties :
#
#
# Convention : Reuss Voigt Hill
#
# Bulk Modulus (GPa) = 42.68587 47.15292 44.91940
# Shear Modulus (GPa) = 31.19201 35.76906 33.48054
#
# Velocity S-wave (km/s) = 3.63606 3.89371 3.76709
# Velocity P-wave (km/s) = 5.97667 6.34040 6.16122
#
# Compressibility (1/GPa) = 0.02342696
#
# Stress axis : x y z
#
# Youngs Moduli (GPa) = 101.38529 68.55338 131.40128
#
# Poissons Ratio (x) = 0.23149 0.26330
# Poissons Ratio (y) = 0.34236 -0.13977
# Poissons Ratio (z) = 0.20315 -0.07292
#
# Static dielectric constant tensor:
#      x y z
#    x 1.921800 0.000000 0.000000 
#    y 0.000000 1.945900 0.000000 
#    z 0.000000 0.000000 1.739450 
# 
# From -- ./inp_files/19371.got.cif
#   From: 2010.05.17/outbox.cif.g08.bks.cpg/sg68_10_cif.got.tgz:19371.got - 2010.06.03 18:57:09.
