data_PCOD9510924
_publ_section_title
;
Structure prediction by ZEFSAII (Michael W. Deem and Ramdas Pophale) SiO2 
 PCOD9510924
Probable space group: C C C A
;
_chemical_formula_sum "Si O2"
_cell_formula_units_Z 64
_cell_length_a 12.000000
_cell_length_b 24.000000
_cell_length_c 24.000000
_cell_angle_alpha 90.000000
_cell_angle_beta 90.000000
_cell_angle_gamma 90.000000
_cell_volume 6912.000000
_symmetry_space_group_name_H-M "C C C A"
_symmetry_group_IT_number 68
_space_group.IT_coordinate_system_code '2'
_symmetry_cell_setting 'orthorhombic'
loop_
_space_group_symop_operation_xyz
x,y,z
-x,1/2-y,z
x,1/2-y,1/2-z
-x,y,1/2-z
-x,-y,-z
x,1/2+y,-z
-x,1/2+y,1/2+z
x,-y,1/2+z
1/2+x,1/2+y,z
1/2-x,-y,z
1/2+x,-y,1/2-z
1/2-x,1/2+y,1/2-z
1/2-x,1/2-y,-z
1/2+x,y,-z
1/2-x,y,1/2+z
1/2+x,1/2-y,1/2+z
loop_
_atom_site_type_symbol
_atom_site_label
_atom_site_fract_x
_atom_site_fract_y
_atom_site_fract_z
Si Si1 0.206963 0.563998 0.784423
Si Si2 0.685360 0.599934 0.046126
Si Si3 0.488553 0.814064 0.459262
Si Si4 0.382543 0.902246 0.635841
Si Si5 0.949703 0.528720 0.619519
Si Si6 0.753193 0.638264 0.927537
Si Si7 0.814310 0.442407 0.339617
Si Si8 0.970657 0.309726 0.911595
O O1 0.250000 0.500000 0.783855
O O2 0.310664 0.599732 0.807352
O O3 0.112795 0.562922 0.831562
O O4 0.163385 0.577479 0.723283
O O5 0.598101 0.650439 0.055434
O O6 0.791468 0.603541 0.086368
O O7 0.614539 0.545609 0.063409
O O8 0.722909 0.602798 0.982421
O O9 0.500000 0.750000 0.442878
O O10 0.377157 0.839025 0.433457
O O11 0.476752 0.815959 0.526496
O O12 0.477428 0.857305 0.626502
O O13 0.434269 0.963760 0.631094
O O14 0.076477 0.546249 0.623826
O O15 0.742355 0.601544 0.872872
O O16 0.660548 0.685685 0.922629
O O17 0.750000 0.500000 0.335171
O O18 0.000000 0.250000 0.888337
#
# Coordination Sequence:
#
# PCOD9510924 Si02
#       8
#    16  16  16  16  16  16  16  16
#     4   8  18  34  57  81 107 142 190 232 278 338
#     4  10  20  35  56  82 113 148 185 230 291 345
#     4  10  21  36  57  82 112 153 193 241 279 335
#     4  10  19  36  57  84 113 153 190 234 288 347
#     4  10  19  35  57  82 114 145 190 231 285 344
#     4  11  22  37  53  85 116 146 191 231 289 343
#     4  11  21  35  54  83 114 148 183 232 285 341
#     4  10  22  36  57  82 113 152 194 239 283 341
#
# _framework density 9.2592590000000001
#
# number of rings (size 3 to 8) (size 9 to 14) (size 15 to 20)
#    0.000    2.000    2.500    2.250    1.750    2.500 
#    0.000    4.375    0.000    1.500    0.000    3.500 
#    0.000    0.000    0.000    0.000    0.000    0.000 
#
# Total GULP energy -356718.182860 kJ/mol
# GULP energy per Si atom -5573.721607 kJ/mol
# Density = 0.923818 g / cm^3
# Si number density = 9.259259 Si / 1000 Ang^3
#
#
#
# Elastic Constant Matrix: (Units=GPa)
#
#
# Indices 1 2 3 4 5 6 
#
# 1 57.5748 15.7169 7.7325 0.0000 0.0000 0.0000
# 2 15.7169 64.4094 23.9971 0.0000 0.0000 0.0000
# 3 7.7325 23.9971 47.9902 0.0000 0.0000 0.0000
# 4 0.0000 0.0000 0.0000 20.9348 0.0000 0.0000
# 5 0.0000 0.0000 0.0000 0.0000 15.8605 0.0000
# 6 0.0000 0.0000 0.0000 0.0000 0.0000 12.6406
#
#
#
# Elastic Compliance Matrix: (Units=1/GPa)
#
#
# Indices 1 2 3 4 5 6 
#
# 1 0.018640 -0.004215 -0.000896 0.000000 0.000000 0.000000
# 2 -0.004215 0.020033 -0.009338 0.000000 0.000000 0.000000
# 3 -0.000896 -0.009338 0.025652 0.000000 0.000000 0.000000
# 4 0.000000 0.000000 0.000000 0.047767 0.000000 0.000000
# 5 0.000000 0.000000 0.000000 0.000000 0.063050 0.000000
# 6 0.000000 0.000000 0.000000 0.000000 0.000000 0.079110
#
#
# Mechanical properties :
#
#
# Convention : Reuss Voigt Hill
#
# Bulk Modulus (GPa) = 28.22730 29.42971 28.82851
# Shear Modulus (GPa) = 16.95157 18.05572 17.50364
#
# Velocity S-wave (km/s) = 3.02881 3.12590 3.07774
# Velocity P-wave (km/s) = 5.24476 5.38097 5.31330
#
# Compressibility (1/GPa) = 0.03542669
#
# Stress axis : x y z
#
# Youngs Moduli (GPa) = 53.64945 49.91676 38.98401
#
# Poissons Ratio (x) = 0.21038 0.03492
# Poissons Ratio (y) = 0.22611 0.36405
# Poissons Ratio (z) = 0.04806 0.46614
#
# Static dielectric constant tensor:
#      x y z
#    x 1.647380 0.000000 0.000000 
#    y 0.000000 1.637520 0.000000 
#    z 0.000000 0.000000 1.645360 
# 
# From -- ./inp_files/44735.got.cif
#   From: 2010.05.17/outbox.ucp.g08.bks.cvg/sg68_23_cif.got.tgz:44735.got - 2010.06.11 16:49:25.
