data_PCOD9510784
_publ_section_title
;
Structure prediction by ZEFSAII (Michael W. Deem and Ramdas Pophale) SiO2 
 PCOD9510784
Probable space group: C C C A
;
_chemical_formula_sum "Si O2"
_cell_formula_units_Z 36
_cell_length_a 7.872972
_cell_length_b 5.778393
_cell_length_c 33.344610
_cell_angle_alpha 90.000000
_cell_angle_beta 90.000000
_cell_angle_gamma 90.000000
_cell_volume 1516.950554
_symmetry_space_group_name_H-M "C C C A"
_symmetry_group_IT_number 68
_space_group.IT_coordinate_system_code '2'
_symmetry_cell_setting 'orthorhombic'
loop_
_space_group_symop_operation_xyz
x,y,z
-x,1/2-y,z
x,1/2-y,1/2-z
-x,y,1/2-z
-x,-y,-z
x,1/2+y,-z
-x,1/2+y,1/2+z
x,-y,1/2+z
1/2+x,1/2+y,z
1/2-x,-y,z
1/2+x,-y,1/2-z
1/2-x,1/2+y,1/2-z
1/2-x,1/2-y,-z
1/2+x,y,-z
1/2-x,y,1/2+z
1/2+x,1/2-y,1/2+z
loop_
_atom_site_type_symbol
_atom_site_label
_atom_site_fract_x
_atom_site_fract_y
_atom_site_fract_z
Si Si1 0.000000 0.250000 0.022802
Si Si2 0.500000 0.250000 0.750000
Si Si3 0.500000 0.250000 0.130828
Si Si4 0.250000 0.000000 0.925808
Si Si5 0.250000 0.000000 0.689675
O O1 0.174071 0.286948 0.048365
O O2 0.000000 0.500000 0.000000
O O3 0.384796 0.107398 0.719795
O O4 0.409608 0.431407 0.101622
O O5 0.649033 0.333289 0.159986
#
# Coordination Sequence:
#
# PCOD9510784 Si02
#       5
#     8   4   8   8   8
#     4  12  27  49  76 110 149 195 250 311 375 446
#     4  12  24  42  68 100 138 184 236 294 358 428
#     4  12  25  45  70 102 142 188 240 298 362 436
#     4  12  26  47  73 106 144 192 244 304 370 442
#     4  12  24  43  67 100 138 184 236 296 358 430
#
# _framework density 23.731821
#
# number of rings (size 3 to 8) (size 9 to 14) (size 15 to 20)
#    0.000    0.000    0.000   10.667    0.000    3.556 
#    0.000    0.000    0.000    0.000    0.000    0.000 
#    0.000    0.000    0.000    0.000    0.000    0.000 
#
# Total GULP energy -100698.723141 kJ/mol
# GULP energy per Si atom -5594.373508 kJ/mol
# Density = 2.367781 g / cm^3
# Si number density = 23.731821 Si / 1000 Ang^3
#
#
#
# Elastic Constant Matrix: (Units=GPa)
#
#
# Indices 1 2 3 4 5 6 
#
# 1 116.2504 54.6350 51.0916 0.0000 0.0000 0.0000
# 2 54.6350 128.5058 82.8749 0.0000 0.0000 0.0000
# 3 51.0916 82.8749 135.9526 0.0000 0.0000 0.0000
# 4 0.0000 0.0000 0.0000 34.7516 0.0000 0.0000
# 5 0.0000 0.0000 0.0000 0.0000 61.8727 0.0000
# 6 0.0000 0.0000 0.0000 0.0000 0.0000 71.7658
#
#
#
# Elastic Compliance Matrix: (Units=1/GPa)
#
#
# Indices 1 2 3 4 5 6 
#
# 1 0.011114 -0.003348 -0.002136 0.000000 0.000000 0.000000
# 2 -0.003348 0.013831 -0.007173 0.000000 0.000000 0.000000
# 3 -0.002136 -0.007173 0.012531 0.000000 0.000000 0.000000
# 4 0.000000 0.000000 0.000000 0.028776 0.000000 0.000000
# 5 0.000000 0.000000 0.000000 0.000000 0.016162 0.000000
# 6 0.000000 0.000000 0.000000 0.000000 0.000000 0.013934
#
#
# Mechanical properties :
#
#
# Convention : Reuss Voigt Hill
#
# Bulk Modulus (GPa) = 82.22076 84.21241 83.21659
# Shear Modulus (GPa) = 39.77205 46.48518 43.12862
#
# Velocity S-wave (km/s) = 4.09821 4.43060 4.26764
# Velocity P-wave (km/s) = 7.55743 7.85721 7.70878
#
# Compressibility (1/GPa) = 0.01216238
#
# Stress axis : x y z
#
# Youngs Moduli (GPa) = 89.97450 72.30071 79.80253
#
# Poissons Ratio (x) = 0.24204 0.17046
# Poissons Ratio (y) = 0.30121 0.57244
# Poissons Ratio (z) = 0.19219 0.51863
#
# Static dielectric constant tensor:
#      x y z
#    x 1.861620 0.000000 0.000000 
#    y 0.000000 1.919960 0.000000 
#    z 0.000000 0.000000 2.048410 
# 
# From -- ./inp_files/52602.got.cif
#   From: 2010.05.17/outbox.cif.g08.bks.cpg/sg68_27_cif.got.tgz:52602.got - 2010.06.03 18:57:09.
