data_PCOD9510432
_publ_section_title
;
Structure prediction by ZEFSAII (Michael W. Deem and Ramdas Pophale) SiO2 
 PCOD9510432
Probable space group: C C C A
;
_chemical_formula_sum "Si O2"
_cell_formula_units_Z 68
_cell_length_a 20.900947
_cell_length_b 9.022726
_cell_length_c 14.556615
_cell_angle_alpha 90.000000
_cell_angle_beta 90.000000
_cell_angle_gamma 90.000000
_cell_volume 2745.137666
_symmetry_space_group_name_H-M "C C C A"
_symmetry_group_IT_number 68
_space_group.IT_coordinate_system_code '2'
_symmetry_cell_setting 'orthorhombic'
loop_
_space_group_symop_operation_xyz
x,y,z
-x,1/2-y,z
x,1/2-y,1/2-z
-x,y,1/2-z
-x,-y,-z
x,1/2+y,-z
-x,1/2+y,1/2+z
x,-y,1/2+z
1/2+x,1/2+y,z
1/2-x,-y,z
1/2+x,-y,1/2-z
1/2-x,1/2+y,1/2-z
1/2-x,1/2-y,-z
1/2+x,y,-z
1/2-x,y,1/2+z
1/2+x,1/2-y,1/2+z
loop_
_atom_site_type_symbol
_atom_site_label
_atom_site_fract_x
_atom_site_fract_y
_atom_site_fract_z
Si Si1 0.188592 0.459606 0.363687
Si Si2 0.409474 0.197091 0.095560
Si Si3 0.500000 0.750000 0.750000
Si Si4 0.750000 0.000000 0.542324
Si Si5 0.901467 0.750000 0.750000
Si Si6 0.393758 0.548503 0.094264
O O1 0.250000 0.500000 0.303733
O O2 0.156251 0.617936 0.379077
O O3 0.213985 0.400277 0.462780
O O4 0.141063 0.348182 0.318512
O O5 0.456399 0.158841 0.179242
O O6 0.406749 0.373694 0.092180
O O7 0.422241 0.125504 0.996713
O O8 0.685901 0.058216 0.594656
O O9 0.928354 0.628664 0.820221
#
# Coordination Sequence:
#
# PCOD9510432 Si02
#       6
#    16  16   4   8   8  16
#     4   9  22  40  64 103 146 188 244 284 361 421
#     4  11  25  48  73 104 137 192 240 308 353 429
#     4  12  28  50  80  96 144 190 252 300 364 422
#     4   8  20  38  62  92 144 194 218 298 348 424
#     4  12  24  35  62 107 148 198 228 288 352 448
#     4  11  24  42  71 102 152 182 250 287 369 433
#
# _framework density 24.771070000000002
#
# number of rings (size 3 to 8) (size 9 to 14) (size 15 to 20)
#    0.706    0.941    0.000    4.235    4.941    4.706 
#    0.000    0.000    0.000    7.765    0.000    0.000 
#    0.000    0.000    0.000    0.000    0.000    0.000 
#
# Total GULP energy -189434.719961 kJ/mol
# GULP energy per Si atom -5571.609411 kJ/mol
# Density = 2.471469 g / cm^3
# Si number density = 24.771070 Si / 1000 Ang^3
#
#
#
# Elastic Constant Matrix: (Units=GPa)
#
#
# Indices 1 2 3 4 5 6 
#
# 1 63.1095 17.6528 41.1014 0.0000 0.0000 0.0000
# 2 17.6528 189.7048 65.7070 0.0000 0.0000 0.0000
# 3 41.1014 65.7070 154.5140 0.0000 0.0000 0.0000
# 4 0.0000 0.0000 0.0000 36.8617 0.0000 0.0000
# 5 0.0000 0.0000 0.0000 0.0000 40.6959 0.0000
# 6 0.0000 0.0000 0.0000 0.0000 0.0000 12.5096
#
#
#
# Elastic Compliance Matrix: (Units=1/GPa)
#
#
# Indices 1 2 3 4 5 6 
#
# 1 0.019166 -0.000021 -0.005089 0.000000 0.000000 0.000000
# 2 -0.000021 0.006182 -0.002623 0.000000 0.000000 0.000000
# 3 -0.005089 -0.002623 0.008941 0.000000 0.000000 0.000000
# 4 0.000000 0.000000 0.000000 0.027128 0.000000 0.000000
# 5 0.000000 0.000000 0.000000 0.000000 0.024572 0.000000
# 6 0.000000 0.000000 0.000000 0.000000 0.000000 0.079939
#
#
# Mechanical properties :
#
#
# Convention : Reuss Voigt Hill
#
# Bulk Modulus (GPa) = 53.12884 72.91675 63.02280
# Shear Modulus (GPa) = 26.64257 36.87125 31.75691
#
# Velocity S-wave (km/s) = 3.28312 3.86227 3.58441
# Velocity P-wave (km/s) = 5.98885 7.02778 6.52901
#
# Compressibility (1/GPa) = 0.01882217
#
# Stress axis : x y z
#
# Youngs Moduli (GPa) = 52.17617 161.76229 111.84059
#
# Poissons Ratio (x) = 0.00334 0.56920
# Poissons Ratio (y) = 0.00108 0.29340
# Poissons Ratio (z) = 0.26555 0.42436
#
# Static dielectric constant tensor:
#      x y z
#    x 2.158460 0.000000 0.000000 
#    y 0.000000 2.191130 0.000000 
#    z 0.000000 0.000000 2.024240 
# 
# From -- ./inp_files/25793.got.cif
#   From: 2010.05.17/outbox.cif.g08.bks.cpg/sg68_13_cif.got.tgz:25793.got - 2010.06.03 18:57:09.
