data_PCOD9510673
_publ_section_title
;
Structure prediction by ZEFSAII (Michael W. Deem and Ramdas Pophale) SiO2 
 PCOD9510673
Probable space group: C C C A
;
_chemical_formula_sum "Si O2"
_cell_formula_units_Z 80
_cell_length_a 15.547573
_cell_length_b 20.160510
_cell_length_c 11.891116
_cell_angle_alpha 90.000000
_cell_angle_beta 90.000000
_cell_angle_gamma 90.000000
_cell_volume 3727.234648
_symmetry_space_group_name_H-M "C C C A"
_symmetry_group_IT_number 68
_space_group.IT_coordinate_system_code '2'
_symmetry_cell_setting 'orthorhombic'
loop_
_space_group_symop_operation_xyz
x,y,z
-x,1/2-y,z
x,1/2-y,1/2-z
-x,y,1/2-z
-x,-y,-z
x,1/2+y,-z
-x,1/2+y,1/2+z
x,-y,1/2+z
1/2+x,1/2+y,z
1/2-x,-y,z
1/2+x,-y,1/2-z
1/2-x,1/2+y,1/2-z
1/2-x,1/2-y,-z
1/2+x,y,-z
1/2-x,y,1/2+z
1/2+x,1/2-y,1/2+z
loop_
_atom_site_type_symbol
_atom_site_label
_atom_site_fract_x
_atom_site_fract_y
_atom_site_fract_z
Si Si1 0.029514 0.326092 0.370934
Si Si2 0.287410 0.122400 0.561213
Si Si3 0.750000 0.000000 0.779240
Si Si4 0.120055 0.016307 0.911585
Si Si5 0.500000 0.915935 0.750000
Si Si6 0.397271 0.116247 0.050725
O O1 0.131855 0.336261 0.390563
O O2 0.000000 0.250000 0.369861
O O3 0.000000 0.355472 0.250000
O O4 0.974228 0.357800 0.471622
O O5 0.255073 0.066373 0.648628
O O6 0.329300 0.079316 0.461066
O O7 0.194631 0.153249 0.529460
O O8 0.829438 0.992301 0.696736
O O9 0.033164 0.040339 0.853991
O O10 0.116006 0.959216 0.004253
O O11 0.574009 0.876886 0.818142
#
# Coordination Sequence:
#
# PCOD9510673 Si02
#       6
#    16  16   8  16   8  16
#     4  11  28  49  69  94 127 178 241 287 327 399
#     4  12  23  41  67 100 138 174 217 282 341 409
#     4  12  20  36  62 106 142 174 218 270 354 424
#     4  12  22  38  61 105 141 172 220 271 348 419
#     4  12  24  36  61 104 147 180 222 270 348 424
#     4  12  24  41  68 100 139 181 219 280 344 406
#
# _framework density 21.463633999999999
#
# number of rings (size 3 to 8) (size 9 to 14) (size 15 to 20)
#    0.000    0.200    8.000    1.800    4.200    0.800 
#    0.000    0.500    0.000    0.000    0.000    0.000 
#    0.000    0.000    0.000    0.000    0.000    0.000 
#
# Total GULP energy -223027.146300 kJ/mol
# GULP energy per Si atom -5575.678657 kJ/mol
# Density = 2.141478 g / cm^3
# Si number density = 21.463634 Si / 1000 Ang^3
#
#
#
# Elastic Constant Matrix: (Units=GPa)
#
#
# Indices 1 2 3 4 5 6 
#
# 1 173.0121 22.6214 44.8611 0.0000 0.0000 0.0000
# 2 22.6214 35.0503 17.6343 0.0000 0.0000 0.0000
# 3 44.8611 17.6343 108.8004 0.0000 0.0000 0.0000
# 4 0.0000 0.0000 0.0000 -288.3263 0.0000 0.0000
# 5 0.0000 0.0000 0.0000 0.0000 38.8463 0.0000
# 6 0.0000 0.0000 0.0000 0.0000 0.0000 25.9725
#
#
#
# Elastic Compliance Matrix: (Units=1/GPa)
#
#
# Indices 1 2 3 4 5 6 
#
# 1 0.006794 -0.003239 -0.002276 0.000000 0.000000 0.000000
# 2 -0.003239 0.032608 -0.003949 0.000000 0.000000 0.000000
# 3 -0.002276 -0.003949 0.010770 0.000000 0.000000 0.000000
# 4 0.000000 0.000000 0.000000 -0.003468 0.000000 0.000000
# 5 0.000000 0.000000 0.000000 0.000000 0.025742 0.000000
# 6 0.000000 0.000000 0.000000 0.000000 0.000000 0.038502
#
#
# Mechanical properties :
#
#
# Convention : Reuss Voigt Hill
#
# Bulk Modulus (GPa) = 32.00859 54.12182 43.06521
# Shear Modulus (GPa) = 35.63995 -29.25176 3.19410
#
# Velocity S-wave (km/s) = 4.07932 -3.69569 1.22122
# Velocity P-wave (km/s) = 6.09370 2.65698 4.70067
#
# Compressibility (1/GPa) = 0.03124161
#
# Stress axis : x y z
#
# Youngs Moduli (GPa) = 147.19520 30.66714 92.85243
#
# Poissons Ratio (x) = 0.09935 0.21135
# Poissons Ratio (y) = 0.47683 0.36671
# Poissons Ratio (z) = 0.33504 0.12112
#
# Static dielectric constant tensor:
#      x y z
#    x 2.085250 0.000000 0.000000 
#    y 0.000000 2.190540 0.000000 
#    z 0.000000 0.000000 1.763600 
# 
# From -- ./inp_files/13237.got.cif
#   From: 2010.05.17/outbox.cif.g08.bks.cpg/sg68_7_cif.got.tgz:13237.got - 2010.06.03 18:57:09.
