data_PCOD9510282
_publ_section_title
;
Structure prediction by ZEFSAII (Michael W. Deem and Ramdas Pophale) SiO2 
 PCOD9510282
Probable space group: C C C A
;
_chemical_formula_sum "Si O2"
_cell_formula_units_Z 112
_cell_length_a 12.358804
_cell_length_b 31.280633
_cell_length_c 13.905304
_cell_angle_alpha 90.000000
_cell_angle_beta 90.000000
_cell_angle_gamma 90.000000
_cell_volume 5375.668330
_symmetry_space_group_name_H-M "C C C A"
_symmetry_group_IT_number 68
_space_group.IT_coordinate_system_code '2'
_symmetry_cell_setting 'orthorhombic'
loop_
_space_group_symop_operation_xyz
x,y,z
-x,1/2-y,z
x,1/2-y,1/2-z
-x,y,1/2-z
-x,-y,-z
x,1/2+y,-z
-x,1/2+y,1/2+z
x,-y,1/2+z
1/2+x,1/2+y,z
1/2-x,-y,z
1/2+x,-y,1/2-z
1/2-x,1/2+y,1/2-z
1/2-x,1/2-y,-z
1/2+x,y,-z
1/2-x,y,1/2+z
1/2+x,1/2-y,1/2+z
loop_
_atom_site_type_symbol
_atom_site_label
_atom_site_fract_x
_atom_site_fract_y
_atom_site_fract_z
Si Si1 0.230552 0.549792 0.675887
Si Si2 0.446794 0.046049 0.984751
Si Si3 0.110530 0.703700 0.042879
Si Si4 0.859252 0.605439 0.473778
Si Si5 0.312344 0.091765 0.134301
Si Si6 0.717295 0.764991 0.351827
Si Si7 0.922628 0.178977 0.839396
O O1 0.250000 0.500000 0.695242
O O2 0.121016 0.550420 0.613369
O O3 0.317654 0.571875 0.605241
O O4 0.246217 0.575799 0.773843
O O5 0.370363 0.053351 0.077452
O O6 0.532959 0.084289 0.985108
O O7 0.500000 0.000000 0.000000
O O8 0.201883 0.728857 0.103854
O O9 0.983552 0.703860 0.073477
O O10 0.129262 0.653291 0.063508
O O11 0.135149 0.718336 0.933607
O O12 0.770990 0.609617 0.556884
O O13 0.401952 0.128230 0.153778
O O14 0.668891 0.750000 0.250000
O O15 0.803328 0.802202 0.328285
O O16 0.000000 0.188706 0.750000
#
# Coordination Sequence:
#
# PCOD9510282 Si02
#       7
#    16  16  16  16  16  16  16
#     4  11  25  42  64 102 134 178 233 290 348 403
#     4  11  24  44  68  92 136 181 227 287 348 414
#     4  11  23  40  69 102 134 181 226 279 360 409
#     4  11  23  45  65  96 135 180 227 284 344 415
#     4  11  26  41  68  97 135 172 230 288 335 417
#     4  11  24  42  68 104 138 173 229 295 344 420
#     4  12  22  41  69 102 131 177 235 278 340 425
#
# _framework density 20.834617999999999
#
# number of rings (size 3 to 8) (size 9 to 14) (size 15 to 20)
#    0.000    0.857    5.714    1.286    2.000    0.571 
#    0.000    0.000    0.000    6.857    0.000    0.000 
#    0.000    0.000    0.000    0.000    0.000    0.000 
#
# Total GULP energy -312610.964254 kJ/mol
# GULP energy per Si atom -5582.338647 kJ/mol
# Density = 2.078720 g / cm^3
# Si number density = 20.834618 Si / 1000 Ang^3
#
#
#
# Elastic Constant Matrix: (Units=GPa)
#
#
# Indices 1 2 3 4 5 6 
#
# 1 37.7236 -3.2199 2.9328 0.0000 0.0000 0.0000
# 2 -3.2199 98.0349 2.5799 0.0000 0.0000 0.0000
# 3 2.9328 2.5799 86.9070 0.0000 0.0000 0.0000
# 4 0.0000 0.0000 0.0000 14.5905 0.0000 0.0000
# 5 0.0000 0.0000 0.0000 0.0000 21.4320 0.0000
# 6 0.0000 0.0000 0.0000 0.0000 0.0000 22.8402
#
#
#
# Elastic Compliance Matrix: (Units=1/GPa)
#
#
# Indices 1 2 3 4 5 6 
#
# 1 0.026657 0.000900 -0.000926 0.000000 0.000000 0.000000
# 2 0.000900 0.010239 -0.000334 0.000000 0.000000 0.000000
# 3 -0.000926 -0.000334 0.011548 0.000000 0.000000 0.000000
# 4 0.000000 0.000000 0.000000 0.068538 0.000000 0.000000
# 5 0.000000 0.000000 0.000000 0.000000 0.046659 0.000000
# 6 0.000000 0.000000 0.000000 0.000000 0.000000 0.043782
#
#
# Mechanical properties :
#
#
# Convention : Reuss Voigt Hill
#
# Bulk Modulus (GPa) = 20.95443 25.25011 23.10227
# Shear Modulus (GPa) = 22.31620 26.46404 24.39012
#
# Velocity S-wave (km/s) = 3.27633 3.56785 3.42519
# Velocity P-wave (km/s) = 4.93881 5.39614 5.17253
#
# Compressibility (1/GPa) = 0.04772261
#
# Stress axis : x y z
#
# Youngs Moduli (GPa) = 37.51296 97.66761 86.59703
#
# Poissons Ratio (x) = -0.08789 0.08022
# Poissons Ratio (y) = -0.03376 0.02895
# Poissons Ratio (z) = 0.03475 0.03265
#
# Static dielectric constant tensor:
#      x y z
#    x 1.759280 0.000000 0.000000 
#    y 0.000000 1.829080 0.000000 
#    z 0.000000 0.000000 1.761910 
# 
# From -- ./inp_files/21281.got.cif
#   From: 2010.05.17/outbox.cif.g08.bks.cpg/sg68_11_cif.got.tgz:21281.got - 2010.06.03 18:57:09.
