data_PCOD9510544
_publ_section_title
;
Structure prediction by ZEFSAII (Michael W. Deem and Ramdas Pophale) SiO2 
 PCOD9510544
Probable space group: C C C A
;
_chemical_formula_sum "Si O2"
_cell_formula_units_Z 80
_cell_length_a 25.009516
_cell_length_b 9.487465
_cell_length_c 17.145066
_cell_angle_alpha 90.000000
_cell_angle_beta 90.000000
_cell_angle_gamma 90.000000
_cell_volume 4068.128243
_symmetry_space_group_name_H-M "C C C A"
_symmetry_group_IT_number 68
_space_group.IT_coordinate_system_code '2'
_symmetry_cell_setting 'orthorhombic'
loop_
_space_group_symop_operation_xyz
x,y,z
-x,1/2-y,z
x,1/2-y,1/2-z
-x,y,1/2-z
-x,-y,-z
x,1/2+y,-z
-x,1/2+y,1/2+z
x,-y,1/2+z
1/2+x,1/2+y,z
1/2-x,-y,z
1/2+x,-y,1/2-z
1/2-x,1/2+y,1/2-z
1/2-x,1/2-y,-z
1/2+x,y,-z
1/2-x,y,1/2+z
1/2+x,1/2-y,1/2+z
loop_
_atom_site_type_symbol
_atom_site_label
_atom_site_fract_x
_atom_site_fract_y
_atom_site_fract_z
Si Si1 0.702434 0.723392 0.559158
Si Si2 0.220940 0.378347 0.307050
Si Si3 0.460757 0.373814 0.982621
Si Si4 0.109311 0.774964 0.659564
Si Si5 0.642495 0.010789 0.556067
O O1 0.750000 0.750000 0.500000
O O2 0.732183 0.650055 0.630779
O O3 0.663186 0.613349 0.514393
O O4 0.681379 0.881046 0.578212
O O5 0.214832 0.250000 0.250000
O O6 0.250000 0.500000 0.258396
O O7 0.161137 0.380276 0.343385
O O8 0.500000 0.250000 0.008746
O O9 0.437471 0.334621 0.896581
O O10 0.500000 0.500000 0.000000
O O11 0.408487 0.419678 0.029759
O O12 0.093816 0.750000 0.750000
O O13 0.128231 0.624676 0.622908
#
# Coordination Sequence:
#
# PCOD9510544 Si02
#       5
#    16  16  16  16  16
#     4  12  22  37  66  94 137 175 228 266 326 404
#     4  11  25  40  62  95 139 183 223 273 339 408
#     4  12  23  44  71  97 123 168 227 287 340 403
#     4  11  25  43  68  98 139 175 225 279 347 410
#     4  12  23  42  66 100 130 177 225 282 332 408
#
# _framework density 19.665064000000001
#
# number of rings (size 3 to 8) (size 9 to 14) (size 15 to 20)
#    0.000    0.400    6.000    3.000    5.600    0.400 
#    0.000    0.000    0.000    1.200    0.000    0.000 
#    0.000    0.000    0.000    0.000    0.000    0.000 
#
# Total GULP energy -222675.279106 kJ/mol
# GULP energy per Si atom -5566.881978 kJ/mol
# Density = 1.962031 g / cm^3
# Si number density = 19.665064 Si / 1000 Ang^3
#
#
#
# Elastic Constant Matrix: (Units=GPa)
#
#
# Indices 1 2 3 4 5 6 
#
# 1 91.3001 35.9483 9.9918 0.0000 0.0000 0.0000
# 2 35.9483 103.1985 -3.1633 0.0000 0.0000 0.0000
# 3 9.9918 -3.1633 40.3536 0.0000 0.0000 0.0000
# 4 0.0000 0.0000 0.0000 25.3926 0.0000 0.0000
# 5 0.0000 0.0000 0.0000 0.0000 -0.5060 0.0000
# 6 0.0000 0.0000 0.0000 0.0000 0.0000 52.9992
#
#
#
# Elastic Compliance Matrix: (Units=1/GPa)
#
#
# Indices 1 2 3 4 5 6 
#
# 1 0.013206 -0.004712 -0.003639 0.000000 0.000000 0.000000
# 2 -0.004712 0.011395 0.002060 0.000000 0.000000 0.000000
# 3 -0.003639 0.002060 0.025844 0.000000 0.000000 0.000000
# 4 0.000000 0.000000 0.000000 0.039382 0.000000 0.000000
# 5 0.000000 0.000000 0.000000 0.000000 -1.976250 0.000000
# 6 0.000000 0.000000 0.000000 0.000000 0.000000 0.018868
#
#
# Mechanical properties :
#
#
# Convention : Reuss Voigt Hill
#
# Bulk Modulus (GPa) = 26.41186 35.60066 31.00626
# Shear Modulus (GPa) = -2.71392 28.38218 12.83413
#
# Velocity S-wave (km/s) = -1.17604 3.80317 2.55745
# Velocity P-wave (km/s) = 3.40821 6.11787 4.95198
#
# Compressibility (1/GPa) = 0.03786178
#
# Stress axis : x y z
#
# Youngs Moduli (GPa) = 75.72062 87.76118 38.69443
#
# Poissons Ratio (x) = 0.41352 0.14082
# Poissons Ratio (y) = 0.35679 -0.07971
# Poissons Ratio (z) = 0.27557 -0.18078
#
# Static dielectric constant tensor:
#      x y z
#    x 1.134350 0.000000 0.000000 
#    y 0.000000 2.025410 0.000000 
#    z 0.000000 0.000000 1.657760 
# 
# From -- ./inp_files/33945.got.cif
#   From: 2010.05.17/outbox.cif.g08.bks.cpg/sg68_17_cif.got.tgz:33945.got - 2010.06.03 18:57:09.
