data_PCOD9510054
_publ_section_title
;
Structure prediction by ZEFSAII (Michael W. Deem and Ramdas Pophale) SiO2 
 PCOD9510054
Probable space group: C C C A
;
_chemical_formula_sum "Si O2"
_cell_formula_units_Z 68
_cell_length_a 14.842300
_cell_length_b 7.760761
_cell_length_c 24.123491
_cell_angle_alpha 90.000000
_cell_angle_beta 90.000000
_cell_angle_gamma 90.000000
_cell_volume 2778.725657
_symmetry_space_group_name_H-M "C C C A"
_symmetry_group_IT_number 68
_space_group.IT_coordinate_system_code '2'
_symmetry_cell_setting 'orthorhombic'
loop_
_space_group_symop_operation_xyz
x,y,z
-x,1/2-y,z
x,1/2-y,1/2-z
-x,y,1/2-z
-x,-y,-z
x,1/2+y,-z
-x,1/2+y,1/2+z
x,-y,1/2+z
1/2+x,1/2+y,z
1/2-x,-y,z
1/2+x,-y,1/2-z
1/2-x,1/2+y,1/2-z
1/2-x,1/2-y,-z
1/2+x,y,-z
1/2-x,y,1/2+z
1/2+x,1/2-y,1/2+z
loop_
_atom_site_type_symbol
_atom_site_label
_atom_site_fract_x
_atom_site_fract_y
_atom_site_fract_z
Si Si1 0.655024 0.073362 0.991029
Si Si2 0.460152 0.064541 0.097082
Si Si3 0.639309 0.384594 0.906715
Si Si4 0.835981 0.396826 0.179562
Si Si5 0.500000 0.250000 0.750000
O O1 0.646458 0.251425 0.957797
O O2 0.750000 0.000000 0.972160
O O3 0.573397 0.964444 0.965228
O O4 0.660312 0.062318 0.058360
O O5 0.500000 0.250000 0.106957
O O6 0.537422 0.926071 0.110592
O O7 0.372983 0.025859 0.133080
O O8 0.683107 0.285209 0.853891
O O9 0.750000 0.500000 0.204819
O O10 0.925037 0.364134 0.217009
#
# Coordination Sequence:
#
# PCOD9510054 Si02
#       5
#    16  16  16  16   4
#     4  11  22  36  59  96 144 200 248 286 354 443
#     4  11  22  41  66 104 149 198 248 303 365 448
#     4  11  21  39  64 102 149 198 241 302 364 434
#     4  11  25  50  80 110 143 192 245 309 394 461
#     4  12  24  60  86 106 152 188 246 336 404 448
#
# _framework density 24.471647000000001
#
# number of rings (size 3 to 8) (size 9 to 14) (size 15 to 20)
#    0.000    0.941    2.353    7.765    0.000    3.765 
#    4.235    1.176    0.000    0.000    0.000    0.000 
#    0.000    0.000    0.000    0.000    0.000    0.000 
#
# Total GULP energy -189363.593436 kJ/mol
# GULP energy per Si atom -5569.517454 kJ/mol
# Density = 2.441595 g / cm^3
# Si number density = 24.471647 Si / 1000 Ang^3
#
#
#
# Elastic Constant Matrix: (Units=GPa)
#
#
# Indices 1 2 3 4 5 6 
#
# 1 81.9087 30.0204 40.1638 0.0000 0.0000 0.0000
# 2 30.0204 91.9784 16.3629 0.0000 0.0000 0.0000
# 3 40.1638 16.3629 69.0391 0.0000 0.0000 0.0000
# 4 0.0000 0.0000 0.0000 36.6031 0.0000 0.0000
# 5 0.0000 0.0000 0.0000 0.0000 46.1368 0.0000
# 6 0.0000 0.0000 0.0000 0.0000 0.0000 53.7880
#
#
#
# Elastic Compliance Matrix: (Units=1/GPa)
#
#
# Indices 1 2 3 4 5 6 
#
# 1 0.018597 -0.004328 -0.009793 0.000000 0.000000 0.000000
# 2 -0.004328 0.012358 -0.000411 0.000000 0.000000 0.000000
# 3 -0.009793 -0.000411 0.020279 0.000000 0.000000 0.000000
# 4 0.000000 0.000000 0.000000 0.027320 0.000000 0.000000
# 5 0.000000 0.000000 0.000000 0.000000 0.021675 0.000000
# 6 0.000000 0.000000 0.000000 0.000000 0.000000 0.018592
#
#
# Mechanical properties :
#
#
# Convention : Reuss Voigt Hill
#
# Bulk Modulus (GPa) = 45.10638 46.22448 45.66543
# Shear Modulus (GPa) = 32.20114 37.73086 34.96600
#
# Velocity S-wave (km/s) = 3.63141 3.93086 3.78410
# Velocity P-wave (km/s) = 6.00458 6.28747 6.14765
#
# Compressibility (1/GPa) = 0.02216981
#
# Stress axis : x y z
#
# Youngs Moduli (GPa) = 53.77260 80.92092 49.31152
#
# Poissons Ratio (x) = 0.35019 0.48291
# Poissons Ratio (y) = 0.23270 0.02028
# Poissons Ratio (z) = 0.52660 0.03329
#
# Static dielectric constant tensor:
#      x y z
#    x 2.051500 0.000000 0.000000 
#    y 0.000000 2.173230 0.000000 
#    z 0.000000 0.000000 2.023520 
# 
# From -- ./inp_files/50651.got.cif
#   From: 2010.05.17/outbox.cif.g08.bks.cpg/sg68_26_cif.got.tgz:50651.got - 2010.06.03 18:57:09.
