data_PCOD9510904
_publ_section_title
;
Structure prediction by ZEFSAII (Michael W. Deem and Ramdas Pophale) SiO2 
 PCOD9510904
Probable space group: C C C A
;
_chemical_formula_sum "Si O2"
_cell_formula_units_Z 44
_cell_length_a 9.439881
_cell_length_b 18.223559
_cell_length_c 11.704939
_cell_angle_alpha 90.000000
_cell_angle_beta 90.000000
_cell_angle_gamma 90.000000
_cell_volume 2013.579919
_symmetry_space_group_name_H-M "C C C A"
_symmetry_group_IT_number 68
_space_group.IT_coordinate_system_code '2'
_symmetry_cell_setting 'orthorhombic'
loop_
_space_group_symop_operation_xyz
x,y,z
-x,1/2-y,z
x,1/2-y,1/2-z
-x,y,1/2-z
-x,-y,-z
x,1/2+y,-z
-x,1/2+y,1/2+z
x,-y,1/2+z
1/2+x,1/2+y,z
1/2-x,-y,z
1/2+x,-y,1/2-z
1/2-x,1/2+y,1/2-z
1/2-x,1/2-y,-z
1/2+x,y,-z
1/2-x,y,1/2+z
1/2+x,1/2-y,1/2+z
loop_
_atom_site_type_symbol
_atom_site_label
_atom_site_fract_x
_atom_site_fract_y
_atom_site_fract_z
Si Si1 0.500000 0.250000 0.750000
Si Si2 0.373647 0.948797 0.550256
Si Si3 0.737341 0.314180 0.905036
Si Si4 0.000000 0.850587 0.250000
O O1 0.601411 0.297637 0.828579
O O2 0.296845 0.892871 0.461725
O O3 0.427378 0.899946 0.653850
O O4 0.500000 0.000000 0.500000
O O5 0.250000 0.000000 0.595359
O O6 0.876540 0.312340 0.825224
O O7 0.750000 0.250000 0.000000
#
# Coordination Sequence:
#
# PCOD9510904 Si02
#       4
#     4  16  16   8
#     4  12  28  44  84 104 152 194 258 312 396 442
#     4  12  28  50  75 115 158 203 262 324 390 475
#     4  12  28  53  76 117 153 205 265 325 389 476
#     4  12  28  50  84 105 163 208 260 320 407 459
#
# _framework density 21.851628999999999
#
# number of rings (size 3 to 8) (size 9 to 14) (size 15 to 20)
#    0.000    0.000    3.636    4.364   10.182    5.091 
#    0.000    0.000    0.000    0.000    0.000    0.000 
#    0.000    0.000    0.000    0.000    0.000    0.000 
#
# Total GULP energy -123110.817712 kJ/mol
# GULP energy per Si atom -5595.946260 kJ/mol
# Density = 2.180189 g / cm^3
# Si number density = 21.851629 Si / 1000 Ang^3
#
#
#
# Elastic Constant Matrix: (Units=GPa)
#
#
# Indices 1 2 3 4 5 6 
#
# 1 190.1739 65.8055 84.0579 0.0000 0.0000 0.0000
# 2 65.8055 108.9169 57.4494 0.0000 0.0000 0.0000
# 3 84.0579 57.4494 139.8123 0.0000 0.0000 0.0000
# 4 0.0000 0.0000 0.0000 -75.5171 0.0000 0.0000
# 5 0.0000 0.0000 0.0000 0.0000 3.8929 0.0000
# 6 0.0000 0.0000 0.0000 0.0000 0.0000 64.9140
#
#
#
# Elastic Compliance Matrix: (Units=1/GPa)
#
#
# Indices 1 2 3 4 5 6 
#
# 1 0.007802 -0.002859 -0.003516 0.000000 0.000000 0.000000
# 2 -0.002859 0.012770 -0.003528 0.000000 0.000000 0.000000
# 3 -0.003516 -0.003528 0.010716 0.000000 0.000000 0.000000
# 4 0.000000 0.000000 0.000000 -0.013242 0.000000 0.000000
# 5 0.000000 0.000000 0.000000 0.000000 0.256878 0.000000
# 6 0.000000 0.000000 0.000000 0.000000 0.000000 0.015405
#
#
# Mechanical properties :
#
#
# Convention : Reuss Voigt Hill
#
# Bulk Modulus (GPa) = 87.09844 94.83652 90.96748
# Shear Modulus (GPa) = 15.92552 14.09732 15.01142
#
# Velocity S-wave (km/s) = 2.70256 2.54271 2.62386
# Velocity P-wave (km/s) = 7.04869 7.21907 7.13439
#
# Compressibility (1/GPa) = 0.01148126
#
# Stress axis : x y z
#
# Youngs Moduli (GPa) = 128.17795 78.31010 93.31988
#
# Poissons Ratio (x) = 0.22391 0.32808
# Poissons Ratio (y) = 0.36649 0.32924
# Poissons Ratio (z) = 0.45063 0.27629
#
# Static dielectric constant tensor:
#      x y z
#    x 1.742400 0.000000 0.000000 
#    y 0.000000 1.893310 0.000000 
#    z 0.000000 0.000000 1.755610 
# 
# From -- ./inp_files/18788.got.cif
#   From: 2010.05.17/outbox.cif.g08.bks.cpg/sg68_10_cif.got.tgz:18788.got - 2010.06.03 18:57:09.
