data_PCOD9510140
_publ_section_title
;
Structure prediction by ZEFSAII (Michael W. Deem and Ramdas Pophale) SiO2 
 PCOD9510140
Probable space group: C C C A
;
_chemical_formula_sum "Si O2"
_cell_formula_units_Z 96
_cell_length_a 19.540427
_cell_length_b 27.522510
_cell_length_c 8.729993
_cell_angle_alpha 90.000000
_cell_angle_beta 90.000000
_cell_angle_gamma 90.000000
_cell_volume 4695.004182
_symmetry_space_group_name_H-M "C C C A"
_symmetry_group_IT_number 68
_space_group.IT_coordinate_system_code '2'
_symmetry_cell_setting 'orthorhombic'
loop_
_space_group_symop_operation_xyz
x,y,z
-x,1/2-y,z
x,1/2-y,1/2-z
-x,y,1/2-z
-x,-y,-z
x,1/2+y,-z
-x,1/2+y,1/2+z
x,-y,1/2+z
1/2+x,1/2+y,z
1/2-x,-y,z
1/2+x,-y,1/2-z
1/2-x,1/2+y,1/2-z
1/2-x,1/2-y,-z
1/2+x,y,-z
1/2-x,y,1/2+z
1/2+x,1/2-y,1/2+z
loop_
_atom_site_type_symbol
_atom_site_label
_atom_site_fract_x
_atom_site_fract_y
_atom_site_fract_z
Si Si1 0.684228 0.945491 0.520566
Si Si2 0.655557 0.152290 0.852956
Si Si3 0.021693 0.301471 0.429503
Si Si4 0.664674 0.543523 0.618442
Si Si5 0.711463 0.714203 0.618080
Si Si6 0.602231 0.638023 0.486431
O O1 0.660496 0.892903 0.466499
O O2 0.677669 0.953544 0.700923
O O3 0.763467 0.947656 0.469090
O O4 0.645405 0.989097 0.432616
O O5 0.602263 0.190051 0.927071
O O6 0.728548 0.177537 0.825158
O O7 0.624315 0.134573 0.691890
O O8 0.000000 0.250000 0.497417
O O9 0.000000 0.300486 0.250000
O O10 0.975662 0.343947 0.499643
O O11 0.615615 0.586908 0.567188
O O12 0.685904 0.750000 0.750000
O O13 0.750000 0.750000 0.500000
O O14 0.651841 0.680351 0.551752
#
# Coordination Sequence:
#
# PCOD9510140 Si02
#       6
#    16  16  16  16  16  16
#     4  11  22  38  62  92 124 158 201 257 317 372
#     4  11  22  39  64  91 123 165 208 254 310 367
#     4   9  20  39  63  87 123 170 211 249 301 370
#     4  11  22  38  62  91 125 156 202 256 317 371
#     4  12  24  36  59  92 125 160 207 264 305 360
#     4  11  22  40  62  92 125 162 209 255 310 367
#
# _framework density 20.447267
#
# number of rings (size 3 to 8) (size 9 to 14) (size 15 to 20)
#    0.000    1.167    3.333    5.000    4.667    0.000 
#    0.000    1.667    0.000    0.000    0.000    0.000 
#    0.000    0.000    0.000    0.000    0.000    0.000 
#
# Total GULP energy -268285.031326 kJ/mol
# GULP energy per Si atom -5589.271486 kJ/mol
# Density = 2.040073 g / cm^3
# Si number density = 20.447267 Si / 1000 Ang^3
#
#
#
# Elastic Constant Matrix: (Units=GPa)
#
#
# Indices 1 2 3 4 5 6 
#
# 1 53.8200 5.7880 -0.8110 0.0000 0.0000 0.0000
# 2 5.7880 101.0338 21.7295 0.0000 0.0000 0.0000
# 3 -0.8110 21.7295 88.3778 0.0000 0.0000 0.0000
# 4 0.0000 0.0000 0.0000 37.2661 0.0000 0.0000
# 5 0.0000 0.0000 0.0000 0.0000 7.0450 0.0000
# 6 0.0000 0.0000 0.0000 0.0000 0.0000 25.8060
#
#
#
# Elastic Compliance Matrix: (Units=1/GPa)
#
#
# Indices 1 2 3 4 5 6 
#
# 1 0.018713 -0.001171 0.000460 0.000000 0.000000 0.000000
# 2 -0.001171 0.010524 -0.002598 0.000000 0.000000 0.000000
# 3 0.000460 -0.002598 0.011958 0.000000 0.000000 0.000000
# 4 0.000000 0.000000 0.000000 0.026834 0.000000 0.000000
# 5 0.000000 0.000000 0.000000 0.000000 0.141945 0.000000
# 6 0.000000 0.000000 0.000000 0.000000 0.000000 0.038751
#
#
# Mechanical properties :
#
#
# Convention : Reuss Voigt Hill
#
# Bulk Modulus (GPa) = 28.92177 32.96051 30.94114
# Shear Modulus (GPa) = 18.73579 28.45842 23.59711
#
# Velocity S-wave (km/s) = 3.03033 3.73473 3.40081
# Velocity P-wave (km/s) = 5.13995 5.89511 5.53044
#
# Compressibility (1/GPa) = 0.03457603
#
# Stress axis : x y z
#
# Youngs Moduli (GPa) = 53.43791 95.02500 83.62543
#
# Poissons Ratio (x) = 0.11126 -0.03844
# Poissons Ratio (y) = 0.06257 0.21727
# Poissons Ratio (z) = -0.02456 0.24689
#
# Static dielectric constant tensor:
#      x y z
#    x 1.715950 0.000000 0.000000 
#    y 0.000000 1.754600 0.000000 
#    z 0.000000 0.000000 1.732250 
# 
# From -- ./inp_files/7268.got.cif
#   From: 2010.05.17/outbox.cif.g08.bks.cpg/sg68_4_cif.got.tgz:7268.got - 2010.06.03 18:57:09.
