data_PCOD9510405
_publ_section_title
;
Structure prediction by ZEFSAII (Michael W. Deem and Ramdas Pophale) SiO2 
 PCOD9510405
Probable space group: C C C A
;
_chemical_formula_sum "Si O2"
_cell_formula_units_Z 80
_cell_length_a 15.463204
_cell_length_b 25.132029
_cell_length_c 10.002737
_cell_angle_alpha 90.000000
_cell_angle_beta 90.000000
_cell_angle_gamma 90.000000
_cell_volume 3887.280571
_symmetry_space_group_name_H-M "C C C A"
_symmetry_group_IT_number 68
_space_group.IT_coordinate_system_code '2'
_symmetry_cell_setting 'orthorhombic'
loop_
_space_group_symop_operation_xyz
x,y,z
-x,1/2-y,z
x,1/2-y,1/2-z
-x,y,1/2-z
-x,-y,-z
x,1/2+y,-z
-x,1/2+y,1/2+z
x,-y,1/2+z
1/2+x,1/2+y,z
1/2-x,-y,z
1/2+x,-y,1/2-z
1/2-x,1/2+y,1/2-z
1/2-x,1/2-y,-z
1/2+x,y,-z
1/2-x,y,1/2+z
1/2+x,1/2-y,1/2+z
loop_
_atom_site_type_symbol
_atom_site_label
_atom_site_fract_x
_atom_site_fract_y
_atom_site_fract_z
Si Si1 0.648817 0.219213 0.381479
Si Si2 0.057819 0.009715 0.629130
Si Si3 0.825447 0.604210 0.026757
Si Si4 0.639175 0.287648 0.632499
Si Si5 0.846216 0.401207 0.205993
O O1 0.619170 0.250000 0.250000
O O2 0.627827 0.158498 0.422378
O O3 0.618093 0.259106 0.495828
O O4 0.754467 0.214327 0.369074
O O5 0.125587 0.052760 0.579668
O O6 0.000000 0.031301 0.750000
O O7 0.100724 0.955002 0.681852
O O8 0.000000 0.000000 0.500000
O O9 0.734004 0.599192 0.102793
O O10 0.820148 0.604287 0.863762
O O11 0.609438 0.250000 0.750000
O O12 0.606776 0.346818 0.661741
#
# Coordination Sequence:
#
# PCOD9510405 Si02
#       5
#    16  16  16  16  16
#     4   9  18  31  56  93 128 160 195 251 313 370
#     4  12  27  46  66  86 124 173 215 262 320 373
#     4  11  24  41  65  97 129 161 210 265 310 371
#     4   9  16  31  56  89 128 157 195 247 313 370
#     4  11  24  40  66  97 127 162 212 261 312 373
#
# _framework density 20.579940000000001
#
# number of rings (size 3 to 8) (size 9 to 14) (size 15 to 20)
#    0.000    1.600    4.000    0.600   11.200    1.600 
#    0.000    0.000    0.000    7.200    0.000    0.000 
#    0.000    0.000    0.000    0.000    0.000    0.000 
#
# Total GULP energy -223065.244082 kJ/mol
# GULP energy per Si atom -5576.631102 kJ/mol
# Density = 2.053310 g / cm^3
# Si number density = 20.579940 Si / 1000 Ang^3
#
#
#
# Elastic Constant Matrix: (Units=GPa)
#
#
# Indices 1 2 3 4 5 6 
#
# 1 21.2285 21.5314 17.3129 0.0000 0.0000 0.0000
# 2 21.5314 155.7809 58.1118 0.0000 0.0000 0.0000
# 3 17.3129 58.1118 179.2573 0.0000 0.0000 0.0000
# 4 0.0000 0.0000 0.0000 37.3797 0.0000 0.0000
# 5 0.0000 0.0000 0.0000 0.0000 16.4973 0.0000
# 6 0.0000 0.0000 0.0000 0.0000 0.0000 6.8397
#
#
#
# Elastic Compliance Matrix: (Units=1/GPa)
#
#
# Indices 1 2 3 4 5 6 
#
# 1 0.056478 -0.006565 -0.003326 0.000000 0.000000 0.000000
# 2 -0.006565 0.008066 -0.001981 0.000000 0.000000 0.000000
# 3 -0.003326 -0.001981 0.006542 0.000000 0.000000 0.000000
# 4 0.000000 0.000000 0.000000 0.026753 0.000000 0.000000
# 5 0.000000 0.000000 0.000000 0.000000 0.060616 0.000000
# 6 0.000000 0.000000 0.000000 0.000000 0.000000 0.146205
#
#
# Mechanical properties :
#
#
# Convention : Reuss Voigt Hill
#
# Bulk Modulus (GPa) = 21.12327 61.13098 41.12712
# Shear Modulus (GPa) = 14.52707 29.43070 21.97889
#
# Velocity S-wave (km/s) = 2.65973 3.78573 3.27154
# Velocity P-wave (km/s) = 4.44055 6.99125 5.85645
#
# Compressibility (1/GPa) = 0.04734115
#
# Stress axis : x y z
#
# Youngs Moduli (GPa) = 17.70589 123.98412 152.86056
#
# Poissons Ratio (x) = 0.81400 0.50847
# Poissons Ratio (y) = 0.11625 0.30276
# Poissons Ratio (z) = 0.05890 0.24556
#
# Static dielectric constant tensor:
#      x y z
#    x 1.839580 0.000000 0.000000 
#    y 0.000000 1.817420 0.000000 
#    z 0.000000 0.000000 1.612240 
# 
# From -- ./inp_files/6247.got.cif
#   From: 2010.05.17/outbox.cif.g08.bks.cpg/sg68_4_cif.got.tgz:6247.got - 2010.06.03 18:57:09.
