data_PCOD9510819
_publ_section_title
;
Structure prediction by ZEFSAII (Michael W. Deem and Ramdas Pophale) SiO2 
 PCOD9510819
Probable space group: C C C A
;
_chemical_formula_sum "Si O2"
_cell_formula_units_Z 68
_cell_length_a 7.516669
_cell_length_b 17.552765
_cell_length_c 20.666991
_cell_angle_alpha 90.000000
_cell_angle_beta 90.000000
_cell_angle_gamma 90.000000
_cell_volume 2726.768166
_symmetry_space_group_name_H-M "C C C A"
_symmetry_group_IT_number 68
_space_group.IT_coordinate_system_code '2'
_symmetry_cell_setting 'orthorhombic'
loop_
_space_group_symop_operation_xyz
x,y,z
-x,1/2-y,z
x,1/2-y,1/2-z
-x,y,1/2-z
-x,-y,-z
x,1/2+y,-z
-x,1/2+y,1/2+z
x,-y,1/2+z
1/2+x,1/2+y,z
1/2-x,-y,z
1/2+x,-y,1/2-z
1/2-x,1/2+y,1/2-z
1/2-x,1/2-y,-z
1/2+x,y,-z
1/2-x,y,1/2+z
1/2+x,1/2-y,1/2+z
loop_
_atom_site_type_symbol
_atom_site_label
_atom_site_fract_x
_atom_site_fract_y
_atom_site_fract_z
Si Si1 0.146637 0.685392 0.673165
Si Si2 0.069993 0.938640 0.052374
Si Si3 0.000000 0.250000 0.750000
Si Si4 0.226739 0.169106 0.967819
Si Si5 0.453349 0.514965 0.179757
O O1 0.345672 0.704237 0.705421
O O2 0.156557 0.675603 0.595752
O O3 0.054127 0.605133 0.689135
O O4 0.000000 0.750000 0.685811
O O5 0.957420 0.860891 0.060444
O O6 0.067445 0.979849 0.121630
O O7 0.236618 0.898513 0.018779
O O8 0.000000 0.000000 0.000000
O O9 0.250000 0.250000 0.000000
O O10 0.500000 0.480212 0.250000
O O11 0.250000 0.500000 0.160119
#
# Coordination Sequence:
#
# PCOD9510819 Si02
#       5
#    16  16   4  16  16
#     4  12  27  55  77 122 168 215 283 343 407 513
#     4  12  24  50  75 113 156 205 270 341 407 491
#     4  12  30  48  88 114 168 224 280 346 420 498
#     4  12  27  47  78 113 157 213 273 337 414 489
#     4  12  27  49  77 112 162 212 275 343 425 496
#
# _framework density 24.937947999999999
#
# number of rings (size 3 to 8) (size 9 to 14) (size 15 to 20)
#    0.000    0.000    4.706    4.588    4.941    1.882 
#    0.000    0.000    0.000    0.000    0.000    0.000 
#    0.000    0.000    0.000    0.000    0.000    0.000 
#
# Total GULP energy -189395.786938 kJ/mol
# GULP energy per Si atom -5570.464322 kJ/mol
# Density = 2.488119 g / cm^3
# Si number density = 24.937948 Si / 1000 Ang^3
#
#
#
# Elastic Constant Matrix: (Units=GPa)
#
#
# Indices 1 2 3 4 5 6 
#
# 1 115.2080 56.5581 47.0658 0.0000 0.0000 0.0000
# 2 56.5581 179.3490 66.5461 0.0000 0.0000 0.0000
# 3 47.0658 66.5461 232.1960 0.0000 0.0000 0.0000
# 4 0.0000 0.0000 0.0000 42.3402 0.0000 0.0000
# 5 0.0000 0.0000 0.0000 0.0000 29.0628 0.0000
# 6 0.0000 0.0000 0.0000 0.0000 0.0000 50.2414
#
#
#
# Elastic Compliance Matrix: (Units=1/GPa)
#
#
# Indices 1 2 3 4 5 6 
#
# 1 0.010628 -0.002856 -0.001336 0.000000 0.000000 0.000000
# 2 -0.002856 0.007007 -0.001429 0.000000 0.000000 0.000000
# 3 -0.001336 -0.001429 0.004987 0.000000 0.000000 0.000000
# 4 0.000000 0.000000 0.000000 0.023618 0.000000 0.000000
# 5 0.000000 0.000000 0.000000 0.000000 0.034408 0.000000
# 6 0.000000 0.000000 0.000000 0.000000 0.000000 0.019904
#
#
# Mechanical properties :
#
#
# Convention : Reuss Voigt Hill
#
# Bulk Modulus (GPa) = 87.87514 96.34367 92.10941
# Shear Modulus (GPa) = 43.25767 48.10107 45.67937
#
# Velocity S-wave (km/s) = 4.16939 4.39661 4.28450
# Velocity P-wave (km/s) = 7.64803 8.03062 7.84166
#
# Compressibility (1/GPa) = 0.01137978
#
# Stress axis : x y z
#
# Youngs Moduli (GPa) = 94.09436 142.72261 200.51909
#
# Poissons Ratio (x) = 0.40759 0.26784
# Poissons Ratio (y) = 0.26872 0.28658
# Poissons Ratio (z) = 0.12569 0.20398
#
# Static dielectric constant tensor:
#      x y z
#    x 2.023340 0.000000 0.000000 
#    y 0.000000 1.840310 0.000000 
#    z 0.000000 0.000000 2.280900 
# 
# From -- ./inp_files/35887.got.cif
#   From: 2010.05.17/outbox.cif.g08.bks.cpg/sg68_18_cif.got.tgz:35887.got - 2010.06.03 18:57:09.
