data_PCOD9510451
_publ_section_title
;
Structure prediction by ZEFSAII (Michael W. Deem and Ramdas Pophale) SiO2 
 PCOD9510451
Probable space group: C C C A
;
_chemical_formula_sum "Si O2"
_cell_formula_units_Z 68
_cell_length_a 10.017406
_cell_length_b 17.126150
_cell_length_c 20.953903
_cell_angle_alpha 90.000000
_cell_angle_beta 90.000000
_cell_angle_gamma 90.000000
_cell_volume 3594.843170
_symmetry_space_group_name_H-M "C C C A"
_symmetry_group_IT_number 68
_space_group.IT_coordinate_system_code '2'
_symmetry_cell_setting 'orthorhombic'
loop_
_space_group_symop_operation_xyz
x,y,z
-x,1/2-y,z
x,1/2-y,1/2-z
-x,y,1/2-z
-x,-y,-z
x,1/2+y,-z
-x,1/2+y,1/2+z
x,-y,1/2+z
1/2+x,1/2+y,z
1/2-x,-y,z
1/2+x,-y,1/2-z
1/2-x,1/2+y,1/2-z
1/2-x,1/2-y,-z
1/2+x,y,-z
1/2-x,y,1/2+z
1/2+x,1/2-y,1/2+z
loop_
_atom_site_type_symbol
_atom_site_label
_atom_site_fract_x
_atom_site_fract_y
_atom_site_fract_z
Si Si1 0.675534 0.630280 0.664190
Si Si2 0.056518 0.543487 0.820331
Si Si3 0.104175 0.459812 0.049685
Si Si4 0.870101 0.197142 0.976404
Si Si5 0.500000 0.750000 0.750000
O O1 0.832807 0.611501 0.671528
O O2 0.615529 0.544309 0.676447
O O3 0.654515 0.657721 0.591915
O O4 0.597923 0.693372 0.708400
O O5 0.000000 0.553917 0.750000
O O6 0.952049 0.542167 0.878571
O O7 0.250000 0.500000 0.045983
O O8 0.114201 0.371637 0.026657
O O9 0.000000 0.500000 0.000000
O O10 0.000000 0.250000 0.971864
O O11 0.750000 0.250000 0.000000
#
# Coordination Sequence:
#
# PCOD9510451 Si02
#       5
#    16  16  16  16   4
#     4  11  24  43  69 101 140 183 234 285 352 425
#     4  11  25  44  70 101 140 183 237 289 341 421
#     4  12  25  44  73 103 138 185 239 286 344 418
#     4  12  25  43  68 102 141 179 224 289 354 408
#     4  12  24  44  74 100 140 186 230 290 368 424
#
# _framework density 18.915984000000002
#
# number of rings (size 3 to 8) (size 9 to 14) (size 15 to 20)
#    0.000    0.471    4.706    4.235    3.294    1.882 
#    0.000    2.941    0.000    0.000    0.000    0.000 
#    0.000    0.000    0.000    0.000    0.000    0.000 
#
# Total GULP energy -189893.960554 kJ/mol
# GULP energy per Si atom -5585.116487 kJ/mol
# Density = 1.887293 g / cm^3
# Si number density = 18.915984 Si / 1000 Ang^3
#
#
#
# Elastic Constant Matrix: (Units=GPa)
#
#
# Indices 1 2 3 4 5 6 
#
# 1 157.7075 58.1621 79.7699 0.0000 0.0000 0.0000
# 2 58.1621 107.8730 39.3477 0.0000 0.0000 0.0000
# 3 79.7699 39.3477 151.7114 0.0000 0.0000 0.0000
# 4 0.0000 0.0000 0.0000 106.7293 0.0000 0.0000
# 5 0.0000 0.0000 0.0000 0.0000 73.3311 0.0000
# 6 0.0000 0.0000 0.0000 0.0000 0.0000 52.0536
#
#
#
# Elastic Compliance Matrix: (Units=1/GPa)
#
#
# Indices 1 2 3 4 5 6 
#
# 1 0.009863 -0.003784 -0.004205 0.000000 0.000000 0.000000
# 2 -0.003784 0.011691 -0.001042 0.000000 0.000000 0.000000
# 3 -0.004205 -0.001042 0.009073 0.000000 0.000000 0.000000
# 4 0.000000 0.000000 0.000000 0.009370 0.000000 0.000000
# 5 0.000000 0.000000 0.000000 0.000000 0.013637 0.000000
# 6 0.000000 0.000000 0.000000 0.000000 0.000000 0.019211
#
#
# Mechanical properties :
#
#
# Convention : Reuss Voigt Hill
#
# Bulk Modulus (GPa) = 79.59173 85.76126 82.67650
# Shear Modulus (GPa) = 52.57943 62.42360 57.50152
#
# Velocity S-wave (km/s) = 5.27794 5.75083 5.51945
# Velocity P-wave (km/s) = 8.90561 9.46216 9.18810
#
# Compressibility (1/GPa) = 0.01256412
#
# Stress axis : x y z
#
# Youngs Moduli (GPa) = 101.38687 85.53778 110.22236
#
# Poissons Ratio (x) = 0.32370 0.46344
# Poissons Ratio (y) = 0.38368 0.11489
# Poissons Ratio (z) = 0.42629 0.08916
#
# Static dielectric constant tensor:
#      x y z
#    x 1.621830 0.000000 0.000000 
#    y 0.000000 1.662110 0.000000 
#    z 0.000000 0.000000 1.992710 
# 
# From -- ./inp_files/35851.got.cif
#   From: 2010.05.17/outbox.cif.g08.bks.cpg/sg68_18_cif.got.tgz:35851.got - 2010.06.03 18:57:09.
