data_PCOD9510606
_publ_section_title
;
Structure prediction by ZEFSAII (Michael W. Deem and Ramdas Pophale) SiO2 
 PCOD9510606
Probable space group: C C C A
;
_chemical_formula_sum "Si O2"
_cell_formula_units_Z 72
_cell_length_a 6.927616
_cell_length_b 15.601664
_cell_length_c 27.535751
_cell_angle_alpha 90.000000
_cell_angle_beta 90.000000
_cell_angle_gamma 90.000000
_cell_volume 2976.128323
_symmetry_space_group_name_H-M "C C C A"
_symmetry_group_IT_number 68
_space_group.IT_coordinate_system_code '2'
_symmetry_cell_setting 'orthorhombic'
loop_
_space_group_symop_operation_xyz
x,y,z
-x,1/2-y,z
x,1/2-y,1/2-z
-x,y,1/2-z
-x,-y,-z
x,1/2+y,-z
-x,1/2+y,1/2+z
x,-y,1/2+z
1/2+x,1/2+y,z
1/2-x,-y,z
1/2+x,-y,1/2-z
1/2-x,1/2+y,1/2-z
1/2-x,1/2-y,-z
1/2+x,y,-z
1/2-x,y,1/2+z
1/2+x,1/2-y,1/2+z
loop_
_atom_site_type_symbol
_atom_site_label
_atom_site_fract_x
_atom_site_fract_y
_atom_site_fract_z
Si Si1 0.000000 0.892287 0.250000
Si Si2 0.250000 0.500000 0.177216
Si Si3 0.986182 0.107785 0.106978
Si Si4 0.250000 0.000000 0.539177
Si Si5 0.879213 0.163594 0.295094
Si Si6 0.371009 0.817424 0.490083
O O1 0.166760 0.836831 0.225932
O O2 0.090148 0.954226 0.290455
O O3 0.177718 0.426633 0.141810
O O4 0.895413 0.172377 0.068191
O O5 0.083730 0.036212 0.073937
O O6 0.136978 0.133448 0.149103
O O7 0.342236 0.915360 0.512398
O O8 0.000000 0.250000 0.300535
O O9 0.000000 0.119581 0.250000
O O10 0.623196 0.793762 0.502823
#
# Coordination Sequence:
#
# PCOD9510606 Si02
#       6
#     8   8  16   8  16  16
#     4  12  24  51  76 116 163 218 274 342 424 505
#     4  12  25  43  80 112 154 216 279 335 422 506
#     4  12  25  48  75 116 157 210 280 339 421 505
#     4  12  27  49  80 114 160 214 281 347 422 502
#     4  11  25  48  77 112 163 211 271 345 415 505
#     4  12  27  50  79 112 159 209 268 346 416 497
#
# _framework density 24.192506000000002
#
# number of rings (size 3 to 8) (size 9 to 14) (size 15 to 20)
#    0.000    0.222    4.444    4.667    3.111    1.778 
#    0.000    0.000    0.000    0.000    0.000    0.000 
#    0.000    0.000    0.000    0.000    0.000    0.000 
#
# Total GULP energy -200458.777153 kJ/mol
# GULP energy per Si atom -5568.299365 kJ/mol
# Density = 2.413744 g / cm^3
# Si number density = 24.192506 Si / 1000 Ang^3
#
#
#
# Elastic Constant Matrix: (Units=GPa)
#
#
# Indices 1 2 3 4 5 6 
#
# 1 161.4590 81.5419 87.8088 0.0000 0.0000 0.0000
# 2 81.5419 176.5943 90.5963 0.0000 0.0000 0.0000
# 3 87.8088 90.5963 216.1910 0.0000 0.0000 0.0000
# 4 0.0000 0.0000 0.0000 25.7219 0.0000 0.0000
# 5 0.0000 0.0000 0.0000 0.0000 68.2057 0.0000
# 6 0.0000 0.0000 0.0000 0.0000 0.0000 51.9066
#
#
#
# Elastic Compliance Matrix: (Units=1/GPa)
#
#
# Indices 1 2 3 4 5 6 
#
# 1 0.008981 -0.002899 -0.002433 0.000000 0.000000 0.000000
# 2 -0.002899 0.008149 -0.002238 0.000000 0.000000 0.000000
# 3 -0.002433 -0.002238 0.006551 0.000000 0.000000 0.000000
# 4 0.000000 0.000000 0.000000 0.038877 0.000000 0.000000
# 5 0.000000 0.000000 0.000000 0.000000 0.014662 0.000000
# 6 0.000000 0.000000 0.000000 0.000000 0.000000 0.019265
#
#
# Mechanical properties :
#
#
# Convention : Reuss Voigt Hill
#
# Bulk Modulus (GPa) = 117.05827 119.34872 118.20349
# Shear Modulus (GPa) = 43.67917 48.78666 46.23292
#
# Velocity S-wave (km/s) = 4.25371 4.49553 4.37629
# Velocity P-wave (km/s) = 8.52154 8.73993 8.63143
#
# Compressibility (1/GPa) = 0.00854275
#
# Stress axis : x y z
#
# Youngs Moduli (GPa) = 111.35209 122.71347 152.63997
#
# Poissons Ratio (x) = 0.35570 0.37135
# Poissons Ratio (y) = 0.32277 0.34155
# Poissons Ratio (z) = 0.27090 0.27458
#
# Static dielectric constant tensor:
#      x y z
#    x 2.226910 0.000000 0.000000 
#    y 0.000000 2.010100 0.000000 
#    z 0.000000 0.000000 1.889180 
# 
# From -- ./inp_files/48340.got.cif
#   From: 2010.05.17/outbox.cif.g08.bks.cpg/sg68_25_cif.got.tgz:48340.got - 2010.06.03 18:57:09.
