data_PCOD9510077
_publ_section_title
;
Structure prediction by ZEFSAII (Michael W. Deem and Ramdas Pophale) SiO2 
 PCOD9510077
Probable space group: C C C A
;
_chemical_formula_sum "Si O2"
_cell_formula_units_Z 64
_cell_length_a 18.771327
_cell_length_b 7.733768
_cell_length_c 21.008005
_cell_angle_alpha 90.000000
_cell_angle_beta 90.000000
_cell_angle_gamma 90.000000
_cell_volume 3049.796960
_symmetry_space_group_name_H-M "C C C A"
_symmetry_group_IT_number 68
_space_group.IT_coordinate_system_code '2'
_symmetry_cell_setting 'orthorhombic'
loop_
_space_group_symop_operation_xyz
x,y,z
-x,1/2-y,z
x,1/2-y,1/2-z
-x,y,1/2-z
-x,-y,-z
x,1/2+y,-z
-x,1/2+y,1/2+z
x,-y,1/2+z
1/2+x,1/2+y,z
1/2-x,-y,z
1/2+x,-y,1/2-z
1/2-x,1/2+y,1/2-z
1/2-x,1/2-y,-z
1/2+x,y,-z
1/2-x,y,1/2+z
1/2+x,1/2-y,1/2+z
loop_
_atom_site_type_symbol
_atom_site_label
_atom_site_fract_x
_atom_site_fract_y
_atom_site_fract_z
Si Si1 0.807398 0.891055 0.477084
Si Si2 0.081533 0.800418 0.128718
Si Si3 0.667838 0.029052 0.620277
Si Si4 0.923068 0.817826 0.822040
O O1 0.750000 0.750000 0.500000
O O2 0.874339 0.846459 0.434750
O O3 0.834999 0.974693 0.542994
O O4 0.750000 0.000000 0.436247
O O5 0.121347 0.625237 0.151023
O O6 0.000000 0.750000 0.116867
O O7 0.082580 0.975264 0.170868
O O8 0.637340 0.213893 0.640257
O O9 0.750000 0.000000 0.637600
O O10 0.918403 0.750000 0.750000
O O11 0.000000 0.750000 0.846928
#
# Coordination Sequence:
#
# PCOD9510077 Si02
#       4
#    16  16  16  16
#     4  11  21  41  67 101 149 183 215 279 350 416
#     4  12  25  43  73 104 136 187 233 287 348 417
#     4  11  24  45  68 106 143 181 232 281 352 418
#     4  11  26  49  70  98 137 184 240 298 347 409
#
# _framework density 20.985002999999999
#
# number of rings (size 3 to 8) (size 9 to 14) (size 15 to 20)
#    0.000    0.750    7.500    1.500    0.000    3.000 
#    4.500    0.000    0.000    0.000    0.000    0.000 
#    0.000    0.000    0.000    0.000    0.000    0.000 
#
# Total GULP energy -178346.969092 kJ/mol
# GULP energy per Si atom -5573.342784 kJ/mol
# Density = 2.093724 g / cm^3
# Si number density = 20.985003 Si / 1000 Ang^3
#
#
#
# Elastic Constant Matrix: (Units=GPa)
#
#
# Indices 1 2 3 4 5 6 
#
# 1 170.5540 58.6169 38.9038 0.0000 0.0000 0.0000
# 2 58.6169 136.8226 35.2846 0.0000 0.0000 0.0000
# 3 38.9038 35.2846 56.7583 0.0000 0.0000 0.0000
# 4 0.0000 0.0000 0.0000 21.1946 0.0000 0.0000
# 5 0.0000 0.0000 0.0000 0.0000 49.9769 0.0000
# 6 0.0000 0.0000 0.0000 0.0000 0.0000 49.5627
#
#
#
# Elastic Compliance Matrix: (Units=1/GPa)
#
#
# Indices 1 2 3 4 5 6 
#
# 1 0.007487 -0.002244 -0.003737 0.000000 0.000000 0.000000
# 2 -0.002244 0.009377 -0.004291 0.000000 0.000000 0.000000
# 3 -0.003737 -0.004291 0.022848 0.000000 0.000000 0.000000
# 4 0.000000 0.000000 0.000000 0.047182 0.000000 0.000000
# 5 0.000000 0.000000 0.000000 0.000000 0.020009 0.000000
# 6 0.000000 0.000000 0.000000 0.000000 0.000000 0.020176
#
#
# Mechanical properties :
#
#
# Convention : Reuss Voigt Hill
#
# Bulk Modulus (GPa) = 52.17165 69.97171 61.07168
# Shear Modulus (GPa) = 32.46520 39.56882 36.01701
#
# Velocity S-wave (km/s) = 3.93754 4.34703 4.14735
# Velocity P-wave (km/s) = 6.75187 7.65582 7.21801
#
# Compressibility (1/GPa) = 0.01916750
#
# Stress axis : x y z
#
# Youngs Moduli (GPa) = 133.56898 106.64804 43.76844
#
# Poissons Ratio (x) = 0.23930 0.16355
# Poissons Ratio (y) = 0.29970 0.18782
# Poissons Ratio (z) = 0.49912 0.45764
#
# Static dielectric constant tensor:
#      x y z
#    x 1.728650 0.000000 0.000000 
#    y 0.000000 1.982740 0.000000 
#    z 0.000000 0.000000 1.759290 
# 
# From -- ./inp_files/44993.got.cif
#   From: 2010.05.17/outbox.cif.g08.bks.cpg/sg68_23_cif.got.tgz:44993.got - 2010.06.03 18:57:09.
