data_PCOD9510961
_publ_section_title
;
Structure prediction by ZEFSAII (Michael W. Deem and Ramdas Pophale) SiO2 
 PCOD9510961
Probable space group: C C C A
;
_chemical_formula_sum "Si O2"
_cell_formula_units_Z 44
_cell_length_a 15.000000
_cell_length_b 24.000000
_cell_length_c 12.000000
_cell_angle_alpha 90.000000
_cell_angle_beta 90.000000
_cell_angle_gamma 90.000000
_cell_volume 4320.000000
_symmetry_space_group_name_H-M "C C C A"
_symmetry_group_IT_number 68
_space_group.IT_coordinate_system_code '2'
_symmetry_cell_setting 'orthorhombic'
loop_
_space_group_symop_operation_xyz
x,y,z
-x,1/2-y,z
x,1/2-y,1/2-z
-x,y,1/2-z
-x,-y,-z
x,1/2+y,-z
-x,1/2+y,1/2+z
x,-y,1/2+z
1/2+x,1/2+y,z
1/2-x,-y,z
1/2+x,-y,1/2-z
1/2-x,1/2+y,1/2-z
1/2-x,1/2-y,-z
1/2+x,y,-z
1/2-x,y,1/2+z
1/2+x,1/2-y,1/2+z
loop_
_atom_site_type_symbol
_atom_site_label
_atom_site_fract_x
_atom_site_fract_y
_atom_site_fract_z
Si Si1 0.500000 0.250000 0.750000
Si Si2 0.000000 0.750000 0.250000
Si Si3 0.402278 0.848694 0.621302
Si Si4 0.799754 0.606477 0.619516
Si Si5 0.607873 0.945220 0.169950
Si Si6 0.000000 0.448729 0.750000
Si Si7 0.750000 0.000000 0.507825
Si Si8 0.977631 0.150276 0.413387
O O1 0.540246 0.296567 0.666380
O O2 0.932773 0.794510 0.308736
O O3 0.296473 0.863093 0.619973
O O4 0.452029 0.905440 0.665064
O O5 0.447407 0.834923 0.502992
O O6 0.839853 0.594467 0.742485
O O7 0.795713 0.545001 0.569640
O O8 0.877639 0.636166 0.548110
O O9 0.522812 0.907327 0.133598
O O10 0.573117 0.006447 0.207742
O O11 0.679735 0.963240 0.077512
#
# Coordination Sequence:
#
# PCOD9510961 Si02
#       8
#     4   4  16  16  16   8   8  16
#     4  12  24  50  70  86 130 178 234 300 332 394
#     4  10  26  54  70  98 146 174 238 308 336 396
#     4  11  25  46  72 102 137 186 232 285 352 406
#     4  12  24  42  69 104 138 181 229 276 343 428
#     4  12  23  42  64 106 141 183 221 281 342 414
#     4  11  21  41  70  97 147 181 216 282 342 413
#     4  12  24  36  68 102 146 174 220 268 342 432
#     4  12  25  46  70  98 136 180 236 288 345 403
#
# _framework density 10.185185000000001
#
# number of rings (size 3 to 8) (size 9 to 14) (size 15 to 20)
#    0.000    0.364    5.455    4.364    0.000    3.636 
#    0.000    1.818    0.000    0.000    0.000    0.000 
#    0.000    0.000    0.000    0.000    0.000    0.000 
#
# Total GULP energy -244982.146741 kJ/mol
# GULP energy per Si atom -5567.776062 kJ/mol
# Density = 1.016200 g / cm^3
# Si number density = 10.185185 Si / 1000 Ang^3
#
#
#
# Elastic Constant Matrix: (Units=GPa)
#
#
# Indices 1 2 3 4 5 6 
#
# 1 150.7339 24.5386 30.2971 0.0000 0.0000 0.0000
# 2 24.5386 127.6182 12.8972 0.0000 0.0000 0.0000
# 3 30.2971 12.8972 32.3695 0.0000 0.0000 0.0000
# 4 0.0000 0.0000 0.0000 -391.8564 0.0000 0.0000
# 5 0.0000 0.0000 0.0000 0.0000 28.1155 0.0000
# 6 0.0000 0.0000 0.0000 0.0000 0.0000 23.9624
#
#
#
# Elastic Compliance Matrix: (Units=1/GPa)
#
#
# Indices 1 2 3 4 5 6 
#
# 1 0.008257 -0.000840 -0.007394 0.000000 0.000000 0.000000
# 2 -0.000840 0.008250 -0.002501 0.000000 0.000000 0.000000
# 3 -0.007394 -0.002501 0.038810 0.000000 0.000000 0.000000
# 4 0.000000 0.000000 0.000000 -0.002552 0.000000 0.000000
# 5 0.000000 0.000000 0.000000 0.000000 0.035568 0.000000
# 6 0.000000 0.000000 0.000000 0.000000 0.000000 0.041732
#
#
# Mechanical properties :
#
#
# Convention : Reuss Voigt Hill
#
# Bulk Modulus (GPa) = 29.54389 49.57639 39.56014
# Shear Modulus (GPa) = 30.70940 -51.75646 -10.52353
#
# Velocity S-wave (km/s) = 3.88693 -5.04607 -2.27537
# Velocity P-wave (km/s) = 5.88890 3.09195 3.54394
#
# Compressibility (1/GPa) = 0.03384794
#
# Stress axis : x y z
#
# Youngs Moduli (GPa) = 121.10741 121.20937 25.76665
#
# Poissons Ratio (x) = 0.10187 0.19051
# Poissons Ratio (y) = 0.10179 0.06443
# Poissons Ratio (z) = 0.89542 0.30309
#
# Static dielectric constant tensor:
#      x y z
#    x 1.744430 0.000000 0.000000 
#    y 0.000000 1.694440 0.000000 
#    z 0.000000 0.000000 1.889160 
# 
# From -- ./inp_files/13382.got.cif
#   From: 2010.05.17/outbox.ucp.g08.bks.cvg/sg68_7_cif.got.tgz:13382.got - 2010.06.11 16:49:25.
