data_PCOD9510136
_publ_section_title
;
Structure prediction by ZEFSAII (Michael W. Deem and Ramdas Pophale) SiO2 
 PCOD9510136
Probable space group: C C C A
;
_chemical_formula_sum "Si O2"
_cell_formula_units_Z 68
_cell_length_a 14.686517
_cell_length_b 12.565688
_cell_length_c 16.954556
_cell_angle_alpha 90.000000
_cell_angle_beta 90.000000
_cell_angle_gamma 90.000000
_cell_volume 3128.898720
_symmetry_space_group_name_H-M "C C C A"
_symmetry_group_IT_number 68
_space_group.IT_coordinate_system_code '2'
_symmetry_cell_setting 'orthorhombic'
loop_
_space_group_symop_operation_xyz
x,y,z
-x,1/2-y,z
x,1/2-y,1/2-z
-x,y,1/2-z
-x,-y,-z
x,1/2+y,-z
-x,1/2+y,1/2+z
x,-y,1/2+z
1/2+x,1/2+y,z
1/2-x,-y,z
1/2+x,-y,1/2-z
1/2-x,1/2+y,1/2-z
1/2-x,1/2-y,-z
1/2+x,y,-z
1/2-x,y,1/2+z
1/2+x,1/2-y,1/2+z
loop_
_atom_site_type_symbol
_atom_site_label
_atom_site_fract_x
_atom_site_fract_y
_atom_site_fract_z
Si Si1 0.897711 0.720932 0.969480
Si Si2 0.000000 0.750000 0.750000
Si Si3 0.370648 0.588296 0.180423
Si Si4 0.323432 0.631885 0.739411
Si Si5 0.246663 0.881058 0.083590
O O1 0.907226 0.628254 0.903609
O O2 0.841554 0.818703 0.929714
O O3 0.000000 0.750000 0.993488
O O4 0.833246 0.682628 0.039530
O O5 0.922206 0.658374 0.756165
O O6 0.381237 0.465331 0.204413
O O7 0.265301 0.625928 0.182944
O O8 0.363137 0.750000 0.750000
O O9 0.282926 0.607974 0.825766
O O10 0.250000 0.000000 0.049016
#
# Coordination Sequence:
#
# PCOD9510136 Si02
#       5
#    16   4  16  16  16
#     4  11  25  44  69 102 138 184 243 286 347 429
#     4  12  20  40  66 104 128 162 234 290 320 416
#     4  11  22  37  71  98 131 174 230 289 336 408
#     4  11  22  42  66 101 135 181 227 288 354 418
#     4  11  24  42  68  99 140 188 230 295 357 418
#
# _framework density 21.732887000000002
#
# number of rings (size 3 to 8) (size 9 to 14) (size 15 to 20)
#    0.000    0.941    7.059    0.000    3.294    0.941 
#    0.000    2.941    0.000    0.000    0.000    0.000 
#    0.000    0.000    0.000    0.000    0.000    0.000 
#
# Total GULP energy -189305.068636 kJ/mol
# GULP energy per Si atom -5567.796136 kJ/mol
# Density = 2.168342 g / cm^3
# Si number density = 21.732887 Si / 1000 Ang^3
#
#
#
# Elastic Constant Matrix: (Units=GPa)
#
#
# Indices 1 2 3 4 5 6 
#
# 1 99.7946 42.9323 5.6726 0.0000 0.0000 0.0000
# 2 42.9323 200.4529 -9.1053 0.0000 0.0000 0.0000
# 3 5.6726 -9.1053 20.0349 0.0000 0.0000 0.0000
# 4 0.0000 0.0000 0.0000 24.7445 0.0000 0.0000
# 5 0.0000 0.0000 0.0000 0.0000 -59.3984 0.0000
# 6 0.0000 0.0000 0.0000 0.0000 0.0000 19.9207
#
#
#
# Elastic Compliance Matrix: (Units=1/GPa)
#
#
# Indices 1 2 3 4 5 6 
#
# 1 0.011411 -0.002645 -0.004433 0.000000 0.000000 0.000000
# 2 -0.002645 0.005707 0.003343 0.000000 0.000000 0.000000
# 3 -0.004433 0.003343 0.052687 0.000000 0.000000 0.000000
# 4 0.000000 0.000000 0.000000 0.040413 0.000000 0.000000
# 5 0.000000 0.000000 0.000000 0.000000 -0.016835 0.000000
# 6 0.000000 0.000000 0.000000 0.000000 0.000000 0.050199
#
#
# Mechanical properties :
#
#
# Convention : Reuss Voigt Hill
#
# Bulk Modulus (GPa) = 16.04265 44.36463 30.20364
# Shear Modulus (GPa) = 29.09848 15.77221 22.43535
#
# Velocity S-wave (km/s) = 3.66309 2.69686 3.21646
# Velocity P-wave (km/s) = 5.02879 5.49139 5.26517
#
# Compressibility (1/GPa) = 0.06233385
#
# Stress axis : x y z
#
# Youngs Moduli (GPa) = 87.63816 175.22083 18.97995
#
# Poissons Ratio (x) = 0.46350 0.08414
# Poissons Ratio (y) = 0.23182 -0.06344
# Poissons Ratio (z) = 0.38849 -0.58570
#
# Static dielectric constant tensor:
#      x y z
#    x 1.636570 0.000000 0.000000 
#    y 0.000000 1.830840 0.000000 
#    z 0.000000 0.000000 1.848320 
# 
# From -- ./inp_files/38283.got.cif
#   From: 2010.05.17/outbox.cif.g08.bks.cpg/sg68_20_cif.got.tgz:38283.got - 2010.06.03 18:57:09.
