data_PCOD9510579
_publ_section_title
;
Structure prediction by ZEFSAII (Michael W. Deem and Ramdas Pophale) SiO2 
 PCOD9510579
Probable space group: C C C A
;
_chemical_formula_sum "Si O2"
_cell_formula_units_Z 88
_cell_length_a 11.223933
_cell_length_b 24.293861
_cell_length_c 14.509409
_cell_angle_alpha 90.000000
_cell_angle_beta 90.000000
_cell_angle_gamma 90.000000
_cell_volume 3956.319266
_symmetry_space_group_name_H-M "C C C A"
_symmetry_group_IT_number 68
_space_group.IT_coordinate_system_code '2'
_symmetry_cell_setting 'orthorhombic'
loop_
_space_group_symop_operation_xyz
x,y,z
-x,1/2-y,z
x,1/2-y,1/2-z
-x,y,1/2-z
-x,-y,-z
x,1/2+y,-z
-x,1/2+y,1/2+z
x,-y,1/2+z
1/2+x,1/2+y,z
1/2-x,-y,z
1/2+x,-y,1/2-z
1/2-x,1/2+y,1/2-z
1/2-x,1/2-y,-z
1/2+x,y,-z
1/2-x,y,1/2+z
1/2+x,1/2-y,1/2+z
loop_
_atom_site_type_symbol
_atom_site_label
_atom_site_fract_x
_atom_site_fract_y
_atom_site_fract_z
Si Si1 0.410759 0.838666 0.965082
Si Si2 0.000000 0.750000 0.603398
Si Si3 0.263863 0.248929 0.352410
Si Si4 0.858168 0.866817 0.394987
Si Si5 0.147706 0.454509 0.740003
Si Si6 0.268458 0.937151 0.971565
O O1 0.314633 0.799433 0.916034
O O2 0.503874 0.852896 0.885743
O O3 0.367028 0.895267 0.011102
O O4 0.479295 0.801988 0.038069
O O5 0.877086 0.759017 0.654614
O O6 0.317401 0.250000 0.250000
O O7 0.290033 0.308871 0.395678
O O8 0.825953 0.904454 0.308814
O O9 0.843666 0.902845 0.488966
O O10 0.250000 0.500000 0.766136
O O11 0.189432 0.440219 0.635151
O O12 0.000000 0.467243 0.750000
O O13 0.250000 0.000000 0.001300
#
# Coordination Sequence:
#
# PCOD9510579 Si02
#       6
#    16   8  16  16  16  16
#     4  12  23  44  73 102 141 190 246 307 375 453
#     4  12  23  46  67 100 150 186 240 316 375 457
#     4  12  26  42  70 108 144 191 246 308 387 457
#     4  12  24  45  74 107 146 193 253 310 376 462
#     4  11  25  50  76 109 151 199 261 321 379 458
#     4  11  25  46  71 108 145 197 253 311 378 452
#
# _framework density 22.242895000000001
#
# number of rings (size 3 to 8) (size 9 to 14) (size 15 to 20)
#    0.000    0.364    5.455    3.545    0.000    1.455 
#    6.545    1.818    0.000    0.000    0.000    0.000 
#    0.000    0.000    0.000    0.000    0.000    0.000 
#
# Total GULP energy -245159.745793 kJ/mol
# GULP energy per Si atom -5571.812404 kJ/mol
# Density = 2.219227 g / cm^3
# Si number density = 22.242895 Si / 1000 Ang^3
#
#
#
# Elastic Constant Matrix: (Units=GPa)
#
#
# Indices 1 2 3 4 5 6 
#
# 1 129.8517 72.7419 25.5419 0.0000 0.0000 0.0000
# 2 72.7419 169.0989 60.9369 0.0000 0.0000 0.0000
# 3 25.5419 60.9369 92.4833 0.0000 0.0000 0.0000
# 4 0.0000 0.0000 0.0000 40.5897 0.0000 0.0000
# 5 0.0000 0.0000 0.0000 0.0000 30.7027 0.0000
# 6 0.0000 0.0000 0.0000 0.0000 0.0000 34.4416
#
#
#
# Elastic Compliance Matrix: (Units=1/GPa)
#
#
# Indices 1 2 3 4 5 6 
#
# 1 0.010147 -0.004400 0.000097 0.000000 0.000000 0.000000
# 2 -0.004400 0.009663 -0.005152 0.000000 0.000000 0.000000
# 3 0.000097 -0.005152 0.014181 0.000000 0.000000 0.000000
# 4 0.000000 0.000000 0.000000 0.024637 0.000000 0.000000
# 5 0.000000 0.000000 0.000000 0.000000 0.032570 0.000000
# 6 0.000000 0.000000 0.000000 0.000000 0.000000 0.029035
#
#
# Mechanical properties :
#
#
# Convention : Reuss Voigt Hill
#
# Bulk Modulus (GPa) = 66.31052 78.87503 72.59278
# Shear Modulus (GPa) = 34.68170 36.62769 35.65469
#
# Velocity S-wave (km/s) = 3.95299 4.06237 4.00805
# Velocity P-wave (km/s) = 7.12120 7.58562 7.35708
#
# Compressibility (1/GPa) = 0.01508056
#
# Stress axis : x y z
#
# Youngs Moduli (GPa) = 98.55367 103.48967 70.51932
#
# Poissons Ratio (x) = 0.45532 -0.00681
# Poissons Ratio (y) = 0.43360 0.36329
# Poissons Ratio (z) = -0.00952 0.53315
#
# Static dielectric constant tensor:
#      x y z
#    x 1.941640 0.000000 0.000000 
#    y 0.000000 1.824750 0.000000 
#    z 0.000000 0.000000 1.847720 
# 
# From -- ./inp_files/20950.got.cif
#   From: 2010.05.17/outbox.cif.g08.bks.cpg/sg68_11_cif.got.tgz:20950.got - 2010.06.03 18:57:09.
