data_PCOD9510182
_publ_section_title
;
Structure prediction by ZEFSAII (Michael W. Deem and Ramdas Pophale) SiO2 
 PCOD9510182
Probable space group: C C C A
;
_chemical_formula_sum "Si O2"
_cell_formula_units_Z 64
_cell_length_a 20.603937
_cell_length_b 14.138649
_cell_length_c 8.434792
_cell_angle_alpha 90.000000
_cell_angle_beta 90.000000
_cell_angle_gamma 90.000000
_cell_volume 2457.154721
_symmetry_space_group_name_H-M "C C C A"
_symmetry_group_IT_number 68
_space_group.IT_coordinate_system_code '2'
_symmetry_cell_setting 'orthorhombic'
loop_
_space_group_symop_operation_xyz
x,y,z
-x,1/2-y,z
x,1/2-y,1/2-z
-x,y,1/2-z
-x,-y,-z
x,1/2+y,-z
-x,1/2+y,1/2+z
x,-y,1/2+z
1/2+x,1/2+y,z
1/2-x,-y,z
1/2+x,-y,1/2-z
1/2-x,1/2+y,1/2-z
1/2-x,1/2-y,-z
1/2+x,y,-z
1/2-x,y,1/2+z
1/2+x,1/2-y,1/2+z
loop_
_atom_site_type_symbol
_atom_site_label
_atom_site_fract_x
_atom_site_fract_y
_atom_site_fract_z
Si Si1 0.049122 0.526117 0.636649
Si Si2 0.378610 0.384709 0.363037
Si Si3 0.847745 0.243423 0.418745
Si Si4 0.271541 0.893168 0.894158
O O1 0.109103 0.566505 0.535826
O O2 0.075096 0.438707 0.740607
O O3 0.000000 0.585287 0.750000
O O4 0.000000 0.500000 0.500000
O O5 0.387036 0.278014 0.426754
O O6 0.309701 0.388064 0.273589
O O7 0.882366 0.250000 0.250000
O O8 0.786103 0.315311 0.396881
O O9 0.820617 0.141393 0.467392
O O10 0.250000 0.000000 0.917636
#
# Coordination Sequence:
#
# PCOD9510182 Si02
#       4
#    16  16  16  16
#     4   9  21  42  70 102 129 172 240 305 366 421
#     4  11  22  40  68  99 139 186 235 293 355 427
#     4  11  25  42  63 102 151 192 238 286 342 433
#     4  11  24  43  67 102 148 194 235 284 350 433
#
# _framework density 26.046386999999999
#
# number of rings (size 3 to 8) (size 9 to 14) (size 15 to 20)
#    0.000    1.500    0.000    5.250    0.000   14.000 
#    0.000    0.000    0.000   45.750    0.000    0.000 
#    0.000    0.000    0.000    0.000    0.000    0.000 
#
# Total GULP energy -178576.449393 kJ/mol
# GULP energy per Si atom -5580.514044 kJ/mol
# Density = 2.598710 g / cm^3
# Si number density = 26.046387 Si / 1000 Ang^3
#
#
#
# Elastic Constant Matrix: (Units=GPa)
#
#
# Indices 1 2 3 4 5 6 
#
# 1 91.6782 30.5012 42.4384 0.0000 0.0000 0.0000
# 2 30.5012 130.6915 53.1220 0.0000 0.0000 0.0000
# 3 42.4384 53.1220 196.6541 0.0000 0.0000 0.0000
# 4 0.0000 0.0000 0.0000 48.4169 0.0000 0.0000
# 5 0.0000 0.0000 0.0000 0.0000 48.6565 0.0000
# 6 0.0000 0.0000 0.0000 0.0000 0.0000 14.5557
#
#
#
# Elastic Compliance Matrix: (Units=1/GPa)
#
#
# Indices 1 2 3 4 5 6 
#
# 1 0.012594 -0.002061 -0.002161 0.000000 0.000000 0.000000
# 2 -0.002061 0.008933 -0.001968 0.000000 0.000000 0.000000
# 3 -0.002161 -0.001968 0.006083 0.000000 0.000000 0.000000
# 4 0.000000 0.000000 0.000000 0.020654 0.000000 0.000000
# 5 0.000000 0.000000 0.000000 0.000000 0.020552 0.000000
# 6 0.000000 0.000000 0.000000 0.000000 0.000000 0.068702
#
#
# Mechanical properties :
#
#
# Convention : Reuss Voigt Hill
#
# Bulk Modulus (GPa) = 65.66306 74.57189 70.11747
# Shear Modulus (GPa) = 32.26349 41.85664 37.06007
#
# Velocity S-wave (km/s) = 3.52333 4.01309 3.77616
# Velocity P-wave (km/s) = 6.46657 7.08278 6.78168
#
# Compressibility (1/GPa) = 0.01522926
#
# Stress axis : x y z
#
# Youngs Moduli (GPa) = 79.40477 111.94977 164.38952
#
# Poissons Ratio (x) = 0.23070 0.35526
# Poissons Ratio (y) = 0.16363 0.32356
# Poissons Ratio (z) = 0.17160 0.22034
#
# Static dielectric constant tensor:
#      x y z
#    x 2.176320 0.000000 0.000000 
#    y 0.000000 2.140750 0.000000 
#    z 0.000000 0.000000 2.141010 
# 
# From -- ./inp_files/7732.got.cif
#   From: 2010.05.17/outbox.cif.g08.bks.cpg/sg68_4_cif.got.tgz:7732.got - 2010.06.03 18:57:09.
