data_PCOD9510546
_publ_section_title
;
Structure prediction by ZEFSAII (Michael W. Deem and Ramdas Pophale) SiO2 
 PCOD9510546
Probable space group: C C C A
;
_chemical_formula_sum "Si O2"
_cell_formula_units_Z 48
_cell_length_a 14.581588
_cell_length_b 8.566122
_cell_length_c 16.051711
_cell_angle_alpha 90.000000
_cell_angle_beta 90.000000
_cell_angle_gamma 90.000000
_cell_volume 2004.981688
_symmetry_space_group_name_H-M "C C C A"
_symmetry_group_IT_number 68
_space_group.IT_coordinate_system_code '2'
_symmetry_cell_setting 'orthorhombic'
loop_
_space_group_symop_operation_xyz
x,y,z
-x,1/2-y,z
x,1/2-y,1/2-z
-x,y,1/2-z
-x,-y,-z
x,1/2+y,-z
-x,1/2+y,1/2+z
x,-y,1/2+z
1/2+x,1/2+y,z
1/2-x,-y,z
1/2+x,-y,1/2-z
1/2-x,1/2+y,1/2-z
1/2-x,1/2-y,-z
1/2+x,y,-z
1/2-x,y,1/2+z
1/2+x,1/2-y,1/2+z
loop_
_atom_site_type_symbol
_atom_site_label
_atom_site_fract_x
_atom_site_fract_y
_atom_site_fract_z
Si Si1 0.093779 0.849629 0.543941
Si Si2 0.525264 0.920276 0.632128
Si Si3 0.676523 0.363916 0.826822
O O1 0.094830 0.894772 0.447225
O O2 0.167957 0.744484 0.590493
O O3 0.000000 0.750000 0.549423
O O4 0.067824 0.003626 0.595950
O O5 0.500000 0.750000 0.663701
O O6 0.579970 0.044395 0.687065
O O7 0.695169 0.250000 0.750000
O O8 0.750000 0.500000 0.832313
#
# Coordination Sequence:
#
# PCOD9510546 Si02
#       3
#    16  16  16
#     4   8  17  37  65  95 121 150 200 257 306 363
#     4   9  18  38  69  96 116 149 202 258 308 365
#     4  11  25  42  58  87 132 169 202 249 303 364
#
# _framework density 23.940370000000001
#
# number of rings (size 3 to 8) (size 9 to 14) (size 15 to 20)
#    0.000    2.667    0.000    2.000    0.000   10.000 
#    0.000    3.333    0.000    0.000    0.000    0.000 
#    0.000    0.000    0.000    0.000    0.000    0.000 
#
# Total GULP energy -134033.320399 kJ/mol
# GULP energy per Si atom -5584.721683 kJ/mol
# Density = 2.388588 g / cm^3
# Si number density = 23.940370 Si / 1000 Ang^3
#
#
#
# Elastic Constant Matrix: (Units=GPa)
#
#
# Indices 1 2 3 4 5 6 
#
# 1 61.3574 39.0841 42.6469 0.0000 0.0000 0.0000
# 2 39.0841 169.9047 51.6629 0.0000 0.0000 0.0000
# 3 42.6469 51.6629 117.7070 0.0000 0.0000 0.0000
# 4 0.0000 0.0000 0.0000 26.2664 0.0000 0.0000
# 5 0.0000 0.0000 0.0000 0.0000 16.3870 0.0000
# 6 0.0000 0.0000 0.0000 0.0000 0.0000 57.0778
#
#
#
# Elastic Compliance Matrix: (Units=1/GPa)
#
#
# Indices 1 2 3 4 5 6 
#
# 1 0.023208 -0.003210 -0.007000 0.000000 0.000000 0.000000
# 2 -0.003210 0.007236 -0.002013 0.000000 0.000000 0.000000
# 3 -0.007000 -0.002013 0.011915 0.000000 0.000000 0.000000
# 4 0.000000 0.000000 0.000000 0.038072 0.000000 0.000000
# 5 0.000000 0.000000 0.000000 0.000000 0.061024 0.000000
# 6 0.000000 0.000000 0.000000 0.000000 0.000000 0.017520
#
#
# Mechanical properties :
#
#
# Convention : Reuss Voigt Hill
#
# Bulk Modulus (GPa) = 55.82272 68.41742 62.12007
# Shear Modulus (GPa) = 26.40031 34.31790 30.35911
#
# Velocity S-wave (km/s) = 3.32438 3.79023 3.56492
# Velocity P-wave (km/s) = 6.17279 6.91338 6.55355
#
# Compressibility (1/GPa) = 0.01791385
#
# Stress axis : x y z
#
# Youngs Moduli (GPa) = 43.08871 138.19402 83.92649
#
# Poissons Ratio (x) = 0.44364 0.58745
# Poissons Ratio (y) = 0.13833 0.16894
# Poissons Ratio (z) = 0.30160 0.27817
#
# Static dielectric constant tensor:
#      x y z
#    x 1.911170 0.000000 0.000000 
#    y 0.000000 1.953250 0.000000 
#    z 0.000000 0.000000 2.019720 
# 
# From -- ./inp_files/18765.got.cif
#   From: 2010.05.17/outbox.cif.g08.bks.cpg/sg68_10_cif.got.tgz:18765.got - 2010.06.03 18:57:09.
