data_PCOD9510659
_publ_section_title
;
Structure prediction by ZEFSAII (Michael W. Deem and Ramdas Pophale) SiO2 
 PCOD9510659
Probable space group: C C C A
;
_chemical_formula_sum "Si O2"
_cell_formula_units_Z 48
_cell_length_a 23.761975
_cell_length_b 4.841929
_cell_length_c 15.359422
_cell_angle_alpha 90.000000
_cell_angle_beta 90.000000
_cell_angle_gamma 90.000000
_cell_volume 1767.159803
_symmetry_space_group_name_H-M "C C C A"
_symmetry_group_IT_number 68
_space_group.IT_coordinate_system_code '2'
_symmetry_cell_setting 'orthorhombic'
loop_
_space_group_symop_operation_xyz
x,y,z
-x,1/2-y,z
x,1/2-y,1/2-z
-x,y,1/2-z
-x,-y,-z
x,1/2+y,-z
-x,1/2+y,1/2+z
x,-y,1/2+z
1/2+x,1/2+y,z
1/2-x,-y,z
1/2+x,-y,1/2-z
1/2-x,1/2+y,1/2-z
1/2-x,1/2-y,-z
1/2+x,y,-z
1/2-x,y,1/2+z
1/2+x,1/2-y,1/2+z
loop_
_atom_site_type_symbol
_atom_site_label
_atom_site_fract_x
_atom_site_fract_y
_atom_site_fract_z
Si Si1 0.564443 0.855654 0.157532
Si Si2 0.500000 0.750000 0.931741
Si Si3 0.170438 0.295031 0.444055
Si Si4 0.750000 0.000000 0.193161
O O1 0.500000 0.750000 0.157568
O O2 0.587515 0.750000 0.250000
O O3 0.606063 0.745188 0.084027
O O4 0.552419 0.177143 0.132830
O O5 0.500000 0.500000 0.000000
O O6 0.182313 0.607151 0.470917
O O7 0.205978 0.164043 0.366483
O O8 0.776507 0.750000 0.250000
#
# Coordination Sequence:
#
# PCOD9510659 Si02
#       4
#    16   8  16   8
#     4  11  27  48  73 112 157 204 262 317 389 457
#     4  12  24  47  71 102 148 200 250 310 377 454
#     4  12  27  48  78 112 151 200 253 318 384 465
#     4  12  26  52  80 112 150 196 254 322 386 462
#
# _framework density 27.162230999999998
#
# number of rings (size 3 to 8) (size 9 to 14) (size 15 to 20)
#    0.000    0.333    1.667    6.000    4.667    2.667 
#    6.000    0.000    0.000    0.000    0.000    0.000 
#    0.000    0.000    0.000    0.000    0.000    0.000 
#
# Total GULP energy -134363.999119 kJ/mol
# GULP energy per Si atom -5598.499963 kJ/mol
# Density = 2.710041 g / cm^3
# Si number density = 27.162231 Si / 1000 Ang^3
#
#
#
# Elastic Constant Matrix: (Units=GPa)
#
#
# Indices 1 2 3 4 5 6 
#
# 1 94.2898 14.5974 17.5082 0.0000 0.0000 0.0000
# 2 14.5974 157.9050 50.1356 0.0000 0.0000 0.0000
# 3 17.5082 50.1356 153.1995 0.0000 0.0000 0.0000
# 4 0.0000 0.0000 0.0000 61.3225 0.0000 0.0000
# 5 0.0000 0.0000 0.0000 0.0000 43.1860 0.0000
# 6 0.0000 0.0000 0.0000 0.0000 0.0000 32.1805
#
#
#
# Elastic Compliance Matrix: (Units=1/GPa)
#
#
# Indices 1 2 3 4 5 6 
#
# 1 0.010901 -0.000683 -0.001022 0.000000 0.000000 0.000000
# 2 -0.000683 0.007110 -0.002249 0.000000 0.000000 0.000000
# 3 -0.001022 -0.002249 0.007380 0.000000 0.000000 0.000000
# 4 0.000000 0.000000 0.000000 0.016307 0.000000 0.000000
# 5 0.000000 0.000000 0.000000 0.000000 0.023156 0.000000
# 6 0.000000 0.000000 0.000000 0.000000 0.000000 0.031075
#
#
# Mechanical properties :
#
#
# Convention : Reuss Voigt Hill
#
# Bulk Modulus (GPa) = 57.19817 63.31965 60.25891
# Shear Modulus (GPa) = 45.59335 48.88132 47.23734
#
# Velocity S-wave (km/s) = 4.10146 4.24678 4.17475
# Velocity P-wave (km/s) = 6.59796 6.88543 6.74322
#
# Compressibility (1/GPa) = 0.01748308
#
# Stress axis : x y z
#
# Youngs Moduli (GPa) = 91.73312 140.64575 135.49804
#
# Poissons Ratio (x) = 0.09609 0.13851
# Poissons Ratio (y) = 0.06267 0.30470
# Poissons Ratio (z) = 0.09377 0.31628
#
# Static dielectric constant tensor:
#      x y z
#    x 2.149680 0.000000 0.000000 
#    y 0.000000 2.335380 0.000000 
#    z 0.000000 0.000000 2.213640 
# 
# From -- ./inp_files/33325.got.cif
#   From: 2010.05.17/outbox.cif.g08.bks.cpg/sg68_17_cif.got.tgz:33325.got - 2010.06.03 18:57:09.
