data_PCOD9510580
_publ_section_title
;
Structure prediction by ZEFSAII (Michael W. Deem and Ramdas Pophale) SiO2 
 PCOD9510580
Probable space group: C C C A
;
_chemical_formula_sum "Si O2"
_cell_formula_units_Z 52
_cell_length_a 20.379319
_cell_length_b 9.409488
_cell_length_c 12.492931
_cell_angle_alpha 90.000000
_cell_angle_beta 90.000000
_cell_angle_gamma 90.000000
_cell_volume 2395.631426
_symmetry_space_group_name_H-M "C C C A"
_symmetry_group_IT_number 68
_space_group.IT_coordinate_system_code '2'
_symmetry_cell_setting 'orthorhombic'
loop_
_space_group_symop_operation_xyz
x,y,z
-x,1/2-y,z
x,1/2-y,1/2-z
-x,y,1/2-z
-x,-y,-z
x,1/2+y,-z
-x,1/2+y,1/2+z
x,-y,1/2+z
1/2+x,1/2+y,z
1/2-x,-y,z
1/2+x,-y,1/2-z
1/2-x,1/2+y,1/2-z
1/2-x,1/2-y,-z
1/2+x,y,-z
1/2-x,y,1/2+z
1/2+x,1/2-y,1/2+z
loop_
_atom_site_type_symbol
_atom_site_label
_atom_site_fract_x
_atom_site_fract_y
_atom_site_fract_z
Si Si1 0.500000 0.750000 0.750000
Si Si2 0.770316 0.345932 0.660637
Si Si3 0.148184 0.298326 0.048984
Si Si4 0.562006 0.438430 0.433963
O O1 0.459836 0.648545 0.670038
O O2 0.804050 0.250000 0.750000
O O3 0.750000 0.500000 0.701401
O O4 0.815684 0.359139 0.556822
O O5 0.705068 0.262330 0.623942
O O6 0.107028 0.427610 0.096681
O O7 0.101665 0.170711 0.009697
O O8 0.500000 0.500000 0.500000
#
# Coordination Sequence:
#
# PCOD9510580 Si02
#       4
#     4  16  16  16
#     4  12  28  44  82 106 136 208 246 284 386 430
#     4  11  26  42  70 106 137 190 237 291 365 434
#     4  11  25  46  71  98 148 180 230 306 358 417
#     4  12  25  47  72 105 142 188 241 302 356 431
#
# _framework density 21.706178000000001
#
# number of rings (size 3 to 8) (size 9 to 14) (size 15 to 20)
#    0.000    0.615    6.154    0.000    6.462    2.462 
#    0.000    1.538    0.000    0.000    0.000    0.000 
#    0.000    0.000    0.000    0.000    0.000    0.000 
#
# Total GULP energy -145621.010663 kJ/mol
# GULP energy per Si atom -5600.808102 kJ/mol
# Density = 2.165677 g / cm^3
# Si number density = 21.706178 Si / 1000 Ang^3
#
#
#
# Elastic Constant Matrix: (Units=GPa)
#
#
# Indices 1 2 3 4 5 6 
#
# 1 97.9234 42.4073 20.3152 0.0000 0.0000 0.0000
# 2 42.4073 142.1963 21.9360 0.0000 0.0000 0.0000
# 3 20.3152 21.9360 80.6995 0.0000 0.0000 0.0000
# 4 0.0000 0.0000 0.0000 40.5928 0.0000 0.0000
# 5 0.0000 0.0000 0.0000 0.0000 -10.3734 0.0000
# 6 0.0000 0.0000 0.0000 0.0000 0.0000 43.2530
#
#
#
# Elastic Compliance Matrix: (Units=1/GPa)
#
#
# Indices 1 2 3 4 5 6 
#
# 1 0.012074 -0.003269 -0.002151 0.000000 0.000000 0.000000
# 2 -0.003269 0.008225 -0.001413 0.000000 0.000000 0.000000
# 3 -0.002151 -0.001413 0.013317 0.000000 0.000000 0.000000
# 4 0.000000 0.000000 0.000000 0.024635 0.000000 0.000000
# 5 0.000000 0.000000 0.000000 0.000000 -0.096401 0.000000
# 6 0.000000 0.000000 0.000000 0.000000 0.000000 0.023120
#
#
# Mechanical properties :
#
#
# Convention : Reuss Voigt Hill
#
# Bulk Modulus (GPa) = 50.12304 54.45959 52.29132
# Shear Modulus (GPa) = 945.77403 30.43853 488.10628
#
# Velocity S-wave (km/s) = 20.89647 3.74879 15.01193
# Velocity P-wave (km/s) = 24.60403 6.62433 18.01722
#
# Compressibility (1/GPa) = 0.01995090
#
# Stress axis : x y z
#
# Youngs Moduli (GPa) = 82.82262 121.57433 75.09100
#
# Poissons Ratio (x) = 0.39743 0.16151
# Poissons Ratio (y) = 0.27075 0.10610
# Poissons Ratio (z) = 0.17814 0.17178
#
# Static dielectric constant tensor:
#      x y z
#    x 1.791520 0.000000 0.000000 
#    y 0.000000 1.749620 0.000000 
#    z 0.000000 0.000000 1.818850 
# 
# From -- ./inp_files/18960.got.cif
#   From: 2010.05.17/outbox.cif.g08.bks.cpg/sg68_10_cif.got.tgz:18960.got - 2010.06.03 18:57:09.
