data_PCOD9510111
_publ_section_title
;
Structure prediction by ZEFSAII (Michael W. Deem and Ramdas Pophale) SiO2 
 PCOD9510111
Probable space group: C C C A
;
_chemical_formula_sum "Si O2"
_cell_formula_units_Z 56
_cell_length_a 9.738072
_cell_length_b 14.553499
_cell_length_c 14.906764
_cell_angle_alpha 90.000000
_cell_angle_beta 90.000000
_cell_angle_gamma 90.000000
_cell_volume 2112.631629
_symmetry_space_group_name_H-M "C C C A"
_symmetry_group_IT_number 68
_space_group.IT_coordinate_system_code '2'
_symmetry_cell_setting 'orthorhombic'
loop_
_space_group_symop_operation_xyz
x,y,z
-x,1/2-y,z
x,1/2-y,1/2-z
-x,y,1/2-z
-x,-y,-z
x,1/2+y,-z
-x,1/2+y,1/2+z
x,-y,1/2+z
1/2+x,1/2+y,z
1/2-x,-y,z
1/2+x,-y,1/2-z
1/2-x,1/2+y,1/2-z
1/2-x,1/2-y,-z
1/2+x,y,-z
1/2-x,y,1/2+z
1/2+x,1/2-y,1/2+z
loop_
_atom_site_type_symbol
_atom_site_label
_atom_site_fract_x
_atom_site_fract_y
_atom_site_fract_z
Si Si1 0.500000 0.250000 0.023742
Si Si2 0.285561 0.151017 0.712170
Si Si3 0.930122 0.610414 0.882409
Si Si4 0.985366 0.089069 0.858295
O O1 0.440907 0.327040 0.091132
O O2 0.405498 0.184067 0.961037
O O3 0.243146 0.250000 0.750000
O O4 0.315603 0.099645 0.805678
O O5 0.432130 0.151764 0.663580
O O6 0.177994 0.109218 0.642871
O O7 0.971418 0.506015 0.902797
O O8 0.000000 0.085773 0.750000
#
# Coordination Sequence:
#
# PCOD9510111 Si02
#       4
#     8  16  16  16
#     4  12  25  47  70 112 148 184 246 313 361 420
#     4  11  21  45  76  99 142 192 242 288 366 435
#     4  11  23  45  76 102 138 195 247 293 355 446
#     4  12  26  45  72 107 148 189 240 300 371 436
#
# _framework density 26.507223
#
# number of rings (size 3 to 8) (size 9 to 14) (size 15 to 20)
#    0.000    0.571    5.714    4.714    0.000    1.143 
#    5.143    0.000    0.000    0.000    0.000    0.000 
#    0.000    0.000    0.000    0.000    0.000    0.000 
#
# Total GULP energy -156420.426999 kJ/mol
# GULP energy per Si atom -5586.443821 kJ/mol
# Density = 2.644689 g / cm^3
# Si number density = 26.507223 Si / 1000 Ang^3
#
#
#
# Elastic Constant Matrix: (Units=GPa)
#
#
# Indices 1 2 3 4 5 6 
#
# 1 69.4755 25.8762 23.2268 0.0000 0.0000 0.0000
# 2 25.8762 257.8672 76.4608 0.0000 0.0000 0.0000
# 3 23.2268 76.4608 160.3575 0.0000 0.0000 0.0000
# 4 0.0000 0.0000 0.0000 16.5727 0.0000 0.0000
# 5 0.0000 0.0000 0.0000 0.0000 15.1150 0.0000
# 6 0.0000 0.0000 0.0000 0.0000 0.0000 18.3538
#
#
#
# Elastic Compliance Matrix: (Units=1/GPa)
#
#
# Indices 1 2 3 4 5 6 
#
# 1 0.015356 -0.001027 -0.001735 0.000000 0.000000 0.000000
# 2 -0.001027 0.004585 -0.002038 0.000000 0.000000 0.000000
# 3 -0.001735 -0.002038 0.007459 0.000000 0.000000 0.000000
# 4 0.000000 0.000000 0.000000 0.060340 0.000000 0.000000
# 5 0.000000 0.000000 0.000000 0.000000 0.066160 0.000000
# 6 0.000000 0.000000 0.000000 0.000000 0.000000 0.054485
#
#
# Mechanical properties :
#
#
# Convention : Reuss Voigt Hill
#
# Bulk Modulus (GPa) = 56.17290 82.09197 69.13243
# Shear Modulus (GPa) = 22.32981 34.15073 28.24027
#
# Velocity S-wave (km/s) = 2.90557 3.59326 3.26756
# Velocity P-wave (km/s) = 5.70035 6.94638 6.35399
#
# Compressibility (1/GPa) = 0.01780218
#
# Stress axis : x y z
#
# Youngs Moduli (GPa) = 65.12172 218.09583 134.06846
#
# Poissons Ratio (x) = 0.22388 0.23257
# Poissons Ratio (y) = 0.06685 0.27317
# Poissons Ratio (z) = 0.11297 0.44439
#
# Static dielectric constant tensor:
#      x y z
#    x 2.140110 0.000000 0.000000 
#    y 0.000000 2.070840 0.000000 
#    z 0.000000 0.000000 2.139820 
# 
# From -- ./inp_files/20153.got.cif
#   From: 2010.05.17/outbox.cif.g08.bks.cpg/sg68_11_cif.got.tgz:20153.got - 2010.06.03 18:57:09.
