data_PCOD9510795
_publ_section_title
;
Structure prediction by ZEFSAII (Michael W. Deem and Ramdas Pophale) SiO2 
 PCOD9510795
Probable space group: C C C A
;
_chemical_formula_sum "Si O2"
_cell_formula_units_Z 60
_cell_length_a 10.272667
_cell_length_b 10.728191
_cell_length_c 19.991904
_cell_angle_alpha 90.000000
_cell_angle_beta 90.000000
_cell_angle_gamma 90.000000
_cell_volume 2203.250436
_symmetry_space_group_name_H-M "C C C A"
_symmetry_group_IT_number 68
_space_group.IT_coordinate_system_code '2'
_symmetry_cell_setting 'orthorhombic'
loop_
_space_group_symop_operation_xyz
x,y,z
-x,1/2-y,z
x,1/2-y,1/2-z
-x,y,1/2-z
-x,-y,-z
x,1/2+y,-z
-x,1/2+y,1/2+z
x,-y,1/2+z
1/2+x,1/2+y,z
1/2-x,-y,z
1/2+x,-y,1/2-z
1/2-x,1/2+y,1/2-z
1/2-x,1/2-y,-z
1/2+x,y,-z
1/2-x,y,1/2+z
1/2+x,1/2-y,1/2+z
loop_
_atom_site_type_symbol
_atom_site_label
_atom_site_fract_x
_atom_site_fract_y
_atom_site_fract_z
Si Si1 0.500000 0.750000 0.250000
Si Si2 0.317922 0.254748 0.638495
Si Si3 0.750000 0.000000 0.726640
Si Si4 0.099062 0.536224 0.558180
Si Si5 0.430084 0.380434 0.337305
O O1 0.406740 0.687206 0.305517
O O2 0.281494 0.380125 0.680497
O O3 0.386613 0.317602 0.575685
O O4 0.198276 0.166073 0.621377
O O5 0.634990 0.944886 0.773099
O O6 0.250000 0.500000 0.545263
O O7 0.000000 0.500000 0.500000
O O8 0.029239 0.463990 0.620335
O O9 0.500000 0.250000 0.322098
#
# Coordination Sequence:
#
# PCOD9510795 Si02
#       5
#     4  16   8  16  16
#     4  12  24  44  70 120 158 192 260 320 416 492
#     4  12  25  47  75 117 156 203 260 330 412 498
#     4  12  24  46  84 120 152 202 256 326 418 504
#     4  12  29  52  78 113 158 219 286 337 398 490
#     4  12  26  51  81 115 163 207 264 340 422 479
#
# _framework density 27.232491
#
# number of rings (size 3 to 8) (size 9 to 14) (size 15 to 20)
#    0.000    0.000    6.667    1.600    1.867    7.467 
#    2.400    0.000    0.000    0.000    0.000    0.000 
#    0.000    0.000    0.000    0.000    0.000    0.000 
#
# Total GULP energy -167801.427803 kJ/mol
# GULP energy per Si atom -5593.380927 kJ/mol
# Density = 2.717051 g / cm^3
# Si number density = 27.232491 Si / 1000 Ang^3
#
#
#
# Elastic Constant Matrix: (Units=GPa)
#
#
# Indices 1 2 3 4 5 6 
#
# 1 254.8373 62.6128 67.0485 0.0000 0.0000 0.0000
# 2 62.6128 106.7933 5.7883 0.0000 0.0000 0.0000
# 3 67.0485 5.7883 91.4449 0.0000 0.0000 0.0000
# 4 0.0000 0.0000 0.0000 20.9414 0.0000 0.0000
# 5 0.0000 0.0000 0.0000 0.0000 40.4842 0.0000
# 6 0.0000 0.0000 0.0000 0.0000 0.0000 74.6616
#
#
#
# Elastic Compliance Matrix: (Units=1/GPa)
#
#
# Indices 1 2 3 4 5 6 
#
# 1 0.005758 -0.003158 -0.004022 0.000000 0.000000 0.000000
# 2 -0.003158 0.011128 0.001611 0.000000 0.000000 0.000000
# 3 -0.004022 0.001611 0.013783 0.000000 0.000000 0.000000
# 4 0.000000 0.000000 0.000000 0.047752 0.000000 0.000000
# 5 0.000000 0.000000 0.000000 0.000000 0.024701 0.000000
# 6 0.000000 0.000000 0.000000 0.000000 0.000000 0.013394
#
#
# Mechanical properties :
#
#
# Convention : Reuss Voigt Hill
#
# Bulk Modulus (GPa) = 51.20088 80.44163 65.82126
# Shear Modulus (GPa) = 37.26774 48.39250 42.83012
#
# Velocity S-wave (km/s) = 3.70334 4.22004 3.97010
# Velocity P-wave (km/s) = 6.09332 7.30397 6.72594
#
# Compressibility (1/GPa) = 0.01953092
#
# Stress axis : x y z
#
# Youngs Moduli (GPa) = 173.66481 89.86246 72.55520
#
# Poissons Ratio (x) = 0.28379 0.29182
# Poissons Ratio (y) = 0.54844 -0.11689
# Poissons Ratio (z) = 0.69850 -0.14478
#
# Static dielectric constant tensor:
#      x y z
#    x 2.337530 0.000000 0.000000 
#    y 0.000000 2.207570 0.000000 
#    z 0.000000 0.000000 2.193020 
# 
# From -- ./inp_files/42693.got.cif
#   From: 2010.05.17/outbox.cif.g08.bks.cpg/sg68_22_cif.got.tgz:42693.got - 2010.06.03 18:57:09.
