data_PCOD9510120
_publ_section_title
;
Structure prediction by ZEFSAII (Michael W. Deem and Ramdas Pophale) SiO2 
 PCOD9510120
Probable space group: C C C A
;
_chemical_formula_sum "Si O2"
_cell_formula_units_Z 80
_cell_length_a 8.869498
_cell_length_b 16.324139
_cell_length_c 27.297008
_cell_angle_alpha 90.000000
_cell_angle_beta 90.000000
_cell_angle_gamma 90.000000
_cell_volume 3952.249665
_symmetry_space_group_name_H-M "C C C A"
_symmetry_group_IT_number 68
_space_group.IT_coordinate_system_code '2'
_symmetry_cell_setting 'orthorhombic'
loop_
_space_group_symop_operation_xyz
x,y,z
-x,1/2-y,z
x,1/2-y,1/2-z
-x,y,1/2-z
-x,-y,-z
x,1/2+y,-z
-x,1/2+y,1/2+z
x,-y,1/2+z
1/2+x,1/2+y,z
1/2-x,-y,z
1/2+x,-y,1/2-z
1/2-x,1/2+y,1/2-z
1/2-x,1/2-y,-z
1/2+x,y,-z
1/2-x,y,1/2+z
1/2+x,1/2-y,1/2+z
loop_
_atom_site_type_symbol
_atom_site_label
_atom_site_fract_x
_atom_site_fract_y
_atom_site_fract_z
Si Si1 0.351760 0.208020 0.160499
Si Si2 0.943699 0.654733 0.699535
Si Si3 0.389011 0.175886 0.892931
Si Si4 0.074593 0.660908 0.442703
Si Si5 0.279148 0.906697 0.982652
O O1 0.500000 0.250000 0.182504
O O2 0.236209 0.161027 0.195394
O O3 0.251633 0.279079 0.133960
O O4 0.401748 0.151262 0.115107
O O5 0.000000 0.750000 0.700551
O O6 0.000000 0.615997 0.750000
O O7 0.018985 0.625569 0.648715
O O8 0.500000 0.250000 0.909307
O O9 0.324540 0.123566 0.937319
O O10 0.229869 0.649480 0.471651
O O11 0.000000 0.750000 0.449509
O O12 0.951063 0.602046 0.466138
O O13 0.250000 0.000000 0.995654
#
# Coordination Sequence:
#
# PCOD9510120 Si02
#       5
#    16  16  16  16  16
#     4   9  16  31  54  79 108 142 191 224 268 329
#     4   8  16  30  52  82 111 135 179 232 287 324
#     4   9  18  33  55  76 107 144 187 220 280 335
#     4  11  22  36  56  77 110 153 195 223 274 335
#     4  12  24  36  51  82 114 149 189 237 281 321
#
# _framework density 20.241637000000001
#
# number of rings (size 3 to 8) (size 9 to 14) (size 15 to 20)
#    0.000    2.600    4.000    1.800    5.600    0.000 
#    0.000    8.000    0.000    0.000    5.200    0.000 
#    0.000    0.000    0.000    0.000    0.000    0.000 
#
# Total GULP energy -223038.226062 kJ/mol
# GULP energy per Si atom -5575.955652 kJ/mol
# Density = 2.019557 g / cm^3
# Si number density = 20.241637 Si / 1000 Ang^3
#
#
#
# Elastic Constant Matrix: (Units=GPa)
#
#
# Indices 1 2 3 4 5 6 
#
# 1 126.9990 1.1939 30.6785 0.0000 0.0000 0.0000
# 2 1.1939 24.2588 -1.7765 0.0000 0.0000 0.0000
# 3 30.6785 -1.7765 82.1314 0.0000 0.0000 0.0000
# 4 0.0000 0.0000 0.0000 -14.6571 0.0000 0.0000
# 5 0.0000 0.0000 0.0000 0.0000 24.7798 0.0000
# 6 0.0000 0.0000 0.0000 0.0000 0.0000 18.1349
#
#
#
# Elastic Compliance Matrix: (Units=1/GPa)
#
#
# Indices 1 2 3 4 5 6 
#
# 1 0.008666 -0.000665 -0.003251 0.000000 0.000000 0.000000
# 2 -0.000665 0.041338 0.001142 0.000000 0.000000 0.000000
# 3 -0.003251 0.001142 0.013415 0.000000 0.000000 0.000000
# 4 0.000000 0.000000 0.000000 -0.068226 0.000000 0.000000
# 5 0.000000 0.000000 0.000000 0.000000 0.040356 0.000000
# 6 0.000000 0.000000 0.000000 0.000000 0.000000 0.055142
#
#
# Mechanical properties :
#
#
# Convention : Reuss Voigt Hill
#
# Bulk Modulus (GPa) = 17.27951 32.62014 24.94982
# Shear Modulus (GPa) = 43.27943 19.20438 31.24190
#
# Velocity S-wave (km/s) = 4.62902 3.08353 3.93294
# Velocity P-wave (km/s) = 6.09307 5.36916 5.74254
#
# Compressibility (1/GPa) = 0.05787201
#
# Stress axis : x y z
#
# Youngs Moduli (GPa) = 115.39722 24.19053 74.54467
#
# Poissons Ratio (x) = 0.01608 0.24237
# Poissons Ratio (y) = 0.07669 -0.08516
# Poissons Ratio (z) = 0.37519 -0.02763
#
# Static dielectric constant tensor:
#      x y z
#    x 1.789340 0.000000 0.000000 
#    y 0.000000 1.711160 0.000000 
#    z 0.000000 0.000000 1.796400 
# 
# From -- ./inp_files/53993.got.cif
#   From: 2010.05.17/outbox.cif.g08.bks.cpg/sg68_27_cif.got.tgz:53993.got - 2010.06.03 18:57:09.
