data_PCOD9510463
_publ_section_title
;
Structure prediction by ZEFSAII (Michael W. Deem and Ramdas Pophale) SiO2 
 PCOD9510463
Probable space group: C C C A
;
_chemical_formula_sum "Si O2"
_cell_formula_units_Z 64
_cell_length_a 12.957111
_cell_length_b 18.313291
_cell_length_c 12.652086
_cell_angle_alpha 90.000000
_cell_angle_beta 90.000000
_cell_angle_gamma 90.000000
_cell_volume 3002.179886
_symmetry_space_group_name_H-M "C C C A"
_symmetry_group_IT_number 68
_space_group.IT_coordinate_system_code '2'
_symmetry_cell_setting 'orthorhombic'
loop_
_space_group_symop_operation_xyz
x,y,z
-x,1/2-y,z
x,1/2-y,1/2-z
-x,y,1/2-z
-x,-y,-z
x,1/2+y,-z
-x,1/2+y,1/2+z
x,-y,1/2+z
1/2+x,1/2+y,z
1/2-x,-y,z
1/2+x,-y,1/2-z
1/2-x,1/2+y,1/2-z
1/2-x,1/2-y,-z
1/2+x,y,-z
1/2-x,y,1/2+z
1/2+x,1/2-y,1/2+z
loop_
_atom_site_type_symbol
_atom_site_label
_atom_site_fract_x
_atom_site_fract_y
_atom_site_fract_z
Si Si1 0.899456 0.287989 0.572291
Si Si2 0.350113 0.053041 0.555012
Si Si3 0.327583 0.715486 0.358910
Si Si4 0.500119 0.432672 0.374195
O O1 0.794941 0.270656 0.632565
O O2 0.881536 0.256987 0.455426
O O3 0.926687 0.372960 0.570679
O O4 0.000000 0.250000 0.619519
O O5 0.337097 0.129052 0.617283
O O6 0.390263 0.069303 0.435176
O O7 0.250000 0.000000 0.556824
O O8 0.445313 0.009939 0.607586
O O9 0.365680 0.750000 0.250000
O O10 0.500000 0.416612 0.250000
#
# Coordination Sequence:
#
# PCOD9510463 Si02
#       4
#    16  16  16  16
#     4  11  24  44  66 104 136 174 235 280 330 413
#     4  11  24  48  68 105 141 175 237 287 338 420
#     4  11  26  44  73 102 137 185 226 286 347 405
#     4  11  26  44  71  99 137 186 226 287 347 404
#
# _framework density 21.317844000000001
#
# number of rings (size 3 to 8) (size 9 to 14) (size 15 to 20)
#    0.000    1.000    5.000    0.000    3.500    5.500 
#    0.000    0.000    0.000    0.000    0.000    0.000 
#    0.000    0.000    0.000    0.000    0.000    0.000 
#
# Total GULP energy -178794.493593 kJ/mol
# GULP energy per Si atom -5587.327925 kJ/mol
# Density = 2.126932 g / cm^3
# Si number density = 21.317844 Si / 1000 Ang^3
#
#
#
# Elastic Constant Matrix: (Units=GPa)
#
#
# Indices 1 2 3 4 5 6 
#
# 1 95.2260 36.7802 29.2929 0.0000 0.0000 0.0000
# 2 36.7802 130.3396 91.4057 0.0000 0.0000 0.0000
# 3 29.2929 91.4057 99.0134 0.0000 0.0000 0.0000
# 4 0.0000 0.0000 0.0000 5.9694 0.0000 0.0000
# 5 0.0000 0.0000 0.0000 0.0000 -8.2146 0.0000
# 6 0.0000 0.0000 0.0000 0.0000 0.0000 39.2424
#
#
#
# Elastic Compliance Matrix: (Units=1/GPa)
#
#
# Indices 1 2 3 4 5 6 
#
# 1 0.011835 -0.002508 -0.001186 0.000000 0.000000 0.000000
# 2 -0.002508 0.022291 -0.019836 0.000000 0.000000 0.000000
# 3 -0.001186 -0.019836 0.028763 0.000000 0.000000 0.000000
# 4 0.000000 0.000000 0.000000 0.167520 0.000000 0.000000
# 5 0.000000 0.000000 0.000000 0.000000 -0.121734 0.000000
# 6 0.000000 0.000000 0.000000 0.000000 0.000000 0.025483
#
#
# Mechanical properties :
#
#
# Convention : Reuss Voigt Hill
#
# Bulk Modulus (GPa) = 63.17938 71.05963 67.11950
# Shear Modulus (GPa) = 26.81063 18.53946 22.67504
#
# Velocity S-wave (km/s) = 3.55020 2.95221 3.26493
# Velocity P-wave (km/s) = 6.81956 6.71018 6.76509
#
# Compressibility (1/GPa) = 0.01582795
#
# Stress axis : x y z
#
# Youngs Moduli (GPa) = 84.49628 44.86165 34.76738
#
# Poissons Ratio (x) = 0.11250 0.04124
# Poissons Ratio (y) = 0.21189 0.68965
# Poissons Ratio (z) = 0.10024 0.88988
#
# Static dielectric constant tensor:
#      x y z
#    x 1.787750 0.000000 0.000000 
#    y 0.000000 1.825620 0.000000 
#    z 0.000000 0.000000 1.792550 
# 
# From -- ./inp_files/11555.got.cif
#   From: 2010.05.17/outbox.cif.g08.bks.cpg/sg68_6_cif.got.tgz:11555.got - 2010.06.03 18:57:09.
