data_PCOD9510969
_publ_section_title
;
Structure prediction by ZEFSAII (Michael W. Deem and Ramdas Pophale) SiO2 
 PCOD9510969
Probable space group: C C C A
;
_chemical_formula_sum "Si O2"
_cell_formula_units_Z 48
_cell_length_a 27.000000
_cell_length_b 21.000000
_cell_length_c 9.000000
_cell_angle_alpha 90.000000
_cell_angle_beta 90.000000
_cell_angle_gamma 90.000000
_cell_volume 5103.000000
_symmetry_space_group_name_H-M "C C C A"
_symmetry_group_IT_number 68
_space_group.IT_coordinate_system_code '2'
_symmetry_cell_setting 'orthorhombic'
loop_
_space_group_symop_operation_xyz
x,y,z
-x,1/2-y,z
x,1/2-y,1/2-z
-x,y,1/2-z
-x,-y,-z
x,1/2+y,-z
-x,1/2+y,1/2+z
x,-y,1/2+z
1/2+x,1/2+y,z
1/2-x,-y,z
1/2+x,-y,1/2-z
1/2-x,1/2+y,1/2-z
1/2-x,1/2-y,-z
1/2+x,y,-z
1/2-x,y,1/2+z
1/2+x,1/2-y,1/2+z
loop_
_atom_site_type_symbol
_atom_site_label
_atom_site_fract_x
_atom_site_fract_y
_atom_site_fract_z
Si Si1 0.054887 0.416137 0.707619
Si Si2 0.840533 0.590906 0.656948
Si Si3 0.304931 0.217867 0.468932
Si Si4 0.305521 0.469704 0.525062
Si Si5 0.157550 0.847742 0.171846
Si Si6 0.550313 0.557693 0.153324
O O1 0.103025 0.372740 0.761680
O O2 0.049337 0.432117 0.528297
O O3 0.058981 0.483662 0.797185
O O4 0.000000 0.388886 0.750000
O O5 0.819850 0.660476 0.591876
O O6 0.835710 0.533241 0.532489
O O7 0.899261 0.595669 0.694947
O O8 0.816061 0.560124 0.808823
O O9 0.250000 0.250000 0.500000
O O10 0.310811 0.177114 0.315204
O O11 0.339071 0.283056 0.435906
O O12 0.250000 0.500000 0.520648
O O13 0.318111 0.409528 0.413371
O O14 0.500000 0.575475 0.250000
#
# Coordination Sequence:
#
# PCOD9510969 Si02
#       6
#    16  16  16  16  16  16
#     4  11  22  41  73 110 144 185 231 302 370 437
#     4  12  24  44  70 104 147 186 242 305 362 433
#     4  11  26  48  70  96 142 198 246 296 363 439
#     4  12  26  42  69 106 145 189 242 305 363 423
#     4  11  25  47  72 101 143 192 251 295 364 437
#     4  11  22  39  71 108 146 180 230 294 376 435
#
# _framework density 9.4062319999999993
#
# number of rings (size 3 to 8) (size 9 to 14) (size 15 to 20)
#    0.000    0.667    3.333    5.500    2.333    7.333 
#    0.000    2.500    0.000    0.000    0.000    0.000 
#    0.000    0.000    0.000    0.000    0.000    0.000 
#
# Total GULP energy -267267.378584 kJ/mol
# GULP energy per Si atom -5568.070387 kJ/mol
# Density = 0.938482 g / cm^3
# Si number density = 9.406232 Si / 1000 Ang^3
#
#
#
# Elastic Constant Matrix: (Units=GPa)
#
#
# Indices 1 2 3 4 5 6 
#
# 1 168.1128 56.4562 55.6915 0.0000 0.0000 0.0000
# 2 56.4562 155.1756 49.8802 0.0000 0.0000 0.0000
# 3 55.6915 49.8802 132.7753 0.0000 0.0000 0.0000
# 4 0.0000 0.0000 0.0000 53.7289 0.0000 0.0000
# 5 0.0000 0.0000 0.0000 0.0000 39.3407 0.0000
# 6 0.0000 0.0000 0.0000 0.0000 0.0000 49.1652
#
#
#
# Elastic Compliance Matrix: (Units=1/GPa)
#
#
# Indices 1 2 3 4 5 6 
#
# 1 0.007380 -0.001922 -0.002373 0.000000 0.000000 0.000000
# 2 -0.001922 0.007830 -0.002135 0.000000 0.000000 0.000000
# 3 -0.002373 -0.002135 0.009329 0.000000 0.000000 0.000000
# 4 0.000000 0.000000 0.000000 0.018612 0.000000 0.000000
# 5 0.000000 0.000000 0.000000 0.000000 0.025419 0.000000
# 6 0.000000 0.000000 0.000000 0.000000 0.000000 0.020340
#
#
# Mechanical properties :
#
#
# Convention : Reuss Voigt Hill
#
# Bulk Modulus (GPa) = 85.63398 86.67997 86.15698
# Shear Modulus (GPa) = 47.31970 48.04933 47.68452
#
# Velocity S-wave (km/s) = 5.02076 5.05932 5.04007
# Velocity P-wave (km/s) = 8.90108 8.96129 8.93124
#
# Compressibility (1/GPa) = 0.01167761
#
# Stress axis : x y z
#
# Youngs Moduli (GPa) = 135.49869 127.71386 107.19002
#
# Poissons Ratio (x) = 0.24548 0.25441
# Poissons Ratio (y) = 0.26045 0.22888
# Poissons Ratio (z) = 0.32160 0.27271
#
# Static dielectric constant tensor:
#      x y z
#    x 1.741470 0.000000 0.000000 
#    y 0.000000 1.670300 0.000000 
#    z 0.000000 0.000000 1.732170 
# 
# From -- ./inp_files/8920.got.cif
#   From: 2010.05.17/outbox.ucp.g08.bks.cvg/sg68_5_cif.got.tgz:8920.got - 2010.06.11 16:49:25.
