data_PCOD9510534
_publ_section_title
;
Structure prediction by ZEFSAII (Michael W. Deem and Ramdas Pophale) SiO2 
 PCOD9510534
Probable space group: C C C A
;
_chemical_formula_sum "Si O2"
_cell_formula_units_Z 56
_cell_length_a 10.800985
_cell_length_b 15.436221
_cell_length_c 15.472174
_cell_angle_alpha 90.000000
_cell_angle_beta 90.000000
_cell_angle_gamma 90.000000
_cell_volume 2579.619739
_symmetry_space_group_name_H-M "C C C A"
_symmetry_group_IT_number 68
_space_group.IT_coordinate_system_code '2'
_symmetry_cell_setting 'orthorhombic'
loop_
_space_group_symop_operation_xyz
x,y,z
-x,1/2-y,z
x,1/2-y,1/2-z
-x,y,1/2-z
-x,-y,-z
x,1/2+y,-z
-x,1/2+y,1/2+z
x,-y,1/2+z
1/2+x,1/2+y,z
1/2-x,-y,z
1/2+x,-y,1/2-z
1/2-x,1/2+y,1/2-z
1/2-x,1/2-y,-z
1/2+x,y,-z
1/2-x,y,1/2+z
1/2+x,1/2-y,1/2+z
loop_
_atom_site_type_symbol
_atom_site_label
_atom_site_fract_x
_atom_site_fract_y
_atom_site_fract_z
Si Si1 0.361998 0.777867 0.064526
Si Si2 0.128731 0.980660 0.541777
Si Si3 0.359780 0.562821 0.775440
Si Si4 0.252854 0.750000 0.250000
O O1 0.500000 0.750000 0.035473
O O2 0.368715 0.881389 0.069092
O O3 0.331958 0.745162 0.161508
O O4 0.250000 0.750000 0.000000
O O5 0.250000 0.000000 0.484480
O O6 0.140708 0.045370 0.622245
O O7 0.000000 0.000000 0.500000
O O8 0.500000 0.540010 0.750000
O O9 0.250000 0.500000 0.740604
O O10 0.327656 0.662122 0.755003
#
# Coordination Sequence:
#
# PCOD9510534 Si02
#       4
#    16  16  16   8
#     4  12  28  47  78 114 153 204 259 319 395 464
#     4  11  24  48  72 109 152 190 257 316 383 463
#     4  11  26  46  74 107 148 199 254 311 391 451
#     4  12  26  50  74 112 162 200 262 320 384 476
#
# _framework density 21.708627
#
# number of rings (size 3 to 8) (size 9 to 14) (size 15 to 20)
#    0.000    0.571    5.714    2.571    8.000    1.143 
#    0.000    0.000    0.000    0.000    0.000    0.000 
#    0.000    0.000    0.000    0.000    0.000    0.000 
#
# Total GULP energy -156397.596311 kJ/mol
# GULP energy per Si atom -5585.628440 kJ/mol
# Density = 2.165922 g / cm^3
# Si number density = 21.708627 Si / 1000 Ang^3
#
#
#
# Elastic Constant Matrix: (Units=GPa)
#
#
# Indices 1 2 3 4 5 6 
#
# 1 248.2500 69.1406 61.3488 0.0000 0.0000 0.0000
# 2 69.1406 166.0766 33.1225 0.0000 0.0000 0.0000
# 3 61.3488 33.1225 101.3421 0.0000 0.0000 0.0000
# 4 0.0000 0.0000 0.0000 14.2932 0.0000 0.0000
# 5 0.0000 0.0000 0.0000 0.0000 40.5845 0.0000
# 6 0.0000 0.0000 0.0000 0.0000 0.0000 45.1922
#
#
#
# Elastic Compliance Matrix: (Units=1/GPa)
#
#
# Indices 1 2 3 4 5 6 
#
# 1 0.005113 -0.001617 -0.002567 0.000000 0.000000 0.000000
# 2 -0.001617 0.006952 -0.001294 0.000000 0.000000 0.000000
# 3 -0.002567 -0.001294 0.011844 0.000000 0.000000 0.000000
# 4 0.000000 0.000000 0.000000 0.069963 0.000000 0.000000
# 5 0.000000 0.000000 0.000000 0.000000 0.024640 0.000000
# 6 0.000000 0.000000 0.000000 0.000000 0.000000 0.022128
#
#
# Mechanical properties :
#
#
# Convention : Reuss Voigt Hill
#
# Bulk Modulus (GPa) = 77.18836 93.65472 85.42154
# Shear Modulus (GPa) = 32.06925 43.48443 37.77684
#
# Velocity S-wave (km/s) = 3.84768 4.48045 4.17607
# Velocity P-wave (km/s) = 7.44132 8.36668 7.91753
#
# Compressibility (1/GPa) = 0.01295532
#
# Stress axis : x y z
#
# Youngs Moduli (GPa) = 195.58988 143.83620 84.42979
#
# Poissons Ratio (x) = 0.23253 0.21670
# Poissons Ratio (y) = 0.31619 0.10922
# Poissons Ratio (z) = 0.50202 0.18607
#
# Static dielectric constant tensor:
#      x y z
#    x 1.748590 0.000000 0.000000 
#    y 0.000000 2.305930 0.000000 
#    z 0.000000 0.000000 1.944930 
# 
# From -- ./inp_files/20083.got.cif
#   From: 2010.05.17/outbox.cif.g08.bks.cpg/sg68_11_cif.got.tgz:20083.got - 2010.06.03 18:57:09.
