data_PCOD9510180
_publ_section_title
;
Structure prediction by ZEFSAII (Michael W. Deem and Ramdas Pophale) SiO2 
 PCOD9510180
Probable space group: C C C A
;
_chemical_formula_sum "Si O2"
_cell_formula_units_Z 56
_cell_length_a 20.092158
_cell_length_b 7.850313
_cell_length_c 16.928283
_cell_angle_alpha 90.000000
_cell_angle_beta 90.000000
_cell_angle_gamma 90.000000
_cell_volume 2670.093492
_symmetry_space_group_name_H-M "C C C A"
_symmetry_group_IT_number 68
_space_group.IT_coordinate_system_code '2'
_symmetry_cell_setting 'orthorhombic'
loop_
_space_group_symop_operation_xyz
x,y,z
-x,1/2-y,z
x,1/2-y,1/2-z
-x,y,1/2-z
-x,-y,-z
x,1/2+y,-z
-x,1/2+y,1/2+z
x,-y,1/2+z
1/2+x,1/2+y,z
1/2-x,-y,z
1/2+x,-y,1/2-z
1/2-x,1/2+y,1/2-z
1/2-x,1/2-y,-z
1/2+x,y,-z
1/2-x,y,1/2+z
1/2+x,1/2-y,1/2+z
loop_
_atom_site_type_symbol
_atom_site_label
_atom_site_fract_x
_atom_site_fract_y
_atom_site_fract_z
Si Si1 0.575477 0.814853 0.087250
Si Si2 0.811117 0.592928 0.195675
Si Si3 0.639913 0.250000 0.750000
Si Si4 0.579791 0.718809 0.911784
O O1 0.500000 0.750000 0.083355
O O2 0.603780 0.731152 0.165853
O O3 0.584302 0.016266 0.097046
O O4 0.602056 0.763912 0.001107
O O5 0.787658 0.750000 0.250000
O O6 0.750000 0.500000 0.148695
O O7 0.829886 0.439319 0.254126
O O8 0.872691 0.670959 0.145855
O O9 0.500000 0.750000 0.900944
#
# Coordination Sequence:
#
# PCOD9510180 Si02
#       4
#    16  16   8  16
#     4  11  22  40  67 103 144 185 234 303 362 427
#     4  12  25  46  70 100 143 190 241 300 363 436
#     4  12  23  42  68  98 143 184 238 290 360 428
#     4  11  23  43  68 103 142 187 242 299 364 433
#
# _framework density 20.973050000000001
#
# number of rings (size 3 to 8) (size 9 to 14) (size 15 to 20)
#    0.000    0.571    4.286    7.286    0.000    0.571 
#    0.000    7.143    0.000    0.000    0.000    0.000 
#    0.000    0.000    0.000    0.000    0.000    0.000 
#
# Total GULP energy -155874.683792 kJ/mol
# GULP energy per Si atom -5566.952993 kJ/mol
# Density = 2.092531 g / cm^3
# Si number density = 20.973050 Si / 1000 Ang^3
#
#
#
# Elastic Constant Matrix: (Units=GPa)
#
#
# Indices 1 2 3 4 5 6 
#
# 1 77.1830 53.0890 51.7157 0.0000 0.0000 0.0000
# 2 53.0890 181.6199 58.2829 0.0000 0.0000 0.0000
# 3 51.7157 58.2829 85.6494 0.0000 0.0000 0.0000
# 4 0.0000 0.0000 0.0000 41.2851 0.0000 0.0000
# 5 0.0000 0.0000 0.0000 0.0000 17.7808 0.0000
# 6 0.0000 0.0000 0.0000 0.0000 0.0000 43.5184
#
#
#
# Elastic Compliance Matrix: (Units=1/GPa)
#
#
# Indices 1 2 3 4 5 6 
#
# 1 0.022883 -0.002885 -0.011854 0.000000 0.000000 0.000000
# 2 -0.002885 0.007408 -0.003299 0.000000 0.000000 0.000000
# 3 -0.011854 -0.003299 0.021078 0.000000 0.000000 0.000000
# 4 0.000000 0.000000 0.000000 0.024222 0.000000 0.000000
# 5 0.000000 0.000000 0.000000 0.000000 0.056240 0.000000
# 6 0.000000 0.000000 0.000000 0.000000 0.000000 0.022979
#
#
# Mechanical properties :
#
#
# Convention : Reuss Voigt Hill
#
# Bulk Modulus (GPa) = 65.38802 74.51416 69.95109
# Shear Modulus (GPa) = 25.51236 32.60784 29.06010
#
# Velocity S-wave (km/s) = 3.49153 3.94731 3.72639
# Velocity P-wave (km/s) = 6.89197 7.50871 7.20694
#
# Compressibility (1/GPa) = 0.01529332
#
# Stress axis : x y z
#
# Youngs Moduli (GPa) = 43.70029 134.98944 47.44319
#
# Poissons Ratio (x) = 0.38944 0.56238
# Poissons Ratio (y) = 0.12607 0.15652
# Poissons Ratio (z) = 0.51802 0.44533
#
# Static dielectric constant tensor:
#      x y z
#    x 1.879690 0.000000 0.000000 
#    y 0.000000 1.755960 0.000000 
#    z 0.000000 0.000000 1.804940 
# 
# From -- ./inp_files/24937.got.cif
#   From: 2010.05.17/outbox.cif.g08.bks.cpg/sg68_13_cif.got.tgz:24937.got - 2010.06.03 18:57:09.
