data_PCOD9510839
_publ_section_title
;
Structure prediction by ZEFSAII (Michael W. Deem and Ramdas Pophale) SiO2 
 PCOD9510839
Probable space group: C C C A
;
_chemical_formula_sum "Si O2"
_cell_formula_units_Z 60
_cell_length_a 9.121799
_cell_length_b 10.788809
_cell_length_c 25.562738
_cell_angle_alpha 90.000000
_cell_angle_beta 90.000000
_cell_angle_gamma 90.000000
_cell_volume 2515.714609
_symmetry_space_group_name_H-M "C C C A"
_symmetry_group_IT_number 68
_space_group.IT_coordinate_system_code '2'
_symmetry_cell_setting 'orthorhombic'
loop_
_space_group_symop_operation_xyz
x,y,z
-x,1/2-y,z
x,1/2-y,1/2-z
-x,y,1/2-z
-x,-y,-z
x,1/2+y,-z
-x,1/2+y,1/2+z
x,-y,1/2+z
1/2+x,1/2+y,z
1/2-x,-y,z
1/2+x,-y,1/2-z
1/2-x,1/2+y,1/2-z
1/2-x,1/2-y,-z
1/2+x,y,-z
1/2-x,y,1/2+z
1/2+x,1/2-y,1/2+z
loop_
_atom_site_type_symbol
_atom_site_label
_atom_site_fract_x
_atom_site_fract_y
_atom_site_fract_z
Si Si1 0.094668 0.874462 0.097619
Si Si2 0.347133 0.792510 0.437668
Si Si3 0.250000 0.000000 0.011965
Si Si4 0.089258 0.449045 0.163855
Si Si5 0.500000 0.250000 0.750000
O O1 0.257872 0.816131 0.092133
O O2 0.109265 0.968659 0.048602
O O3 0.000000 0.750000 0.091978
O O4 0.034076 0.946395 0.149031
O O5 0.500000 0.750000 0.462990
O O6 0.247186 0.876804 0.475961
O O7 0.393580 0.881018 0.390994
O O8 0.250000 0.500000 0.175663
O O9 0.063614 0.349266 0.208697
#
# Coordination Sequence:
#
# PCOD9510839 Si02
#       5
#    16  16   8  16   4
#     4  12  26  46  79 115 162 213 258 315 389 476
#     4  12  25  47  74 114 167 208 268 319 375 475
#     4  12  26  44  78 120 168 226 258 306 386 470
#     4  12  27  54  80 115 152 203 269 337 406 475
#     4  12  32  56  82 110 148 200 270 354 408 466
#
# _framework density 23.850080999999999
#
# number of rings (size 3 to 8) (size 9 to 14) (size 15 to 20)
#    0.000    0.000    5.333    3.200    0.000    9.600 
#    0.000    0.000    0.000    0.000    0.000    0.000 
#    0.000    0.000    0.000    0.000    0.000    0.000 
#
# Total GULP energy -167295.255399 kJ/mol
# GULP energy per Si atom -5576.508513 kJ/mol
# Density = 2.379580 g / cm^3
# Si number density = 23.850081 Si / 1000 Ang^3
#
#
#
# Elastic Constant Matrix: (Units=GPa)
#
#
# Indices 1 2 3 4 5 6 
#
# 1 146.2572 96.0746 55.9640 0.0000 0.0000 0.0000
# 2 96.0746 179.6479 67.0325 0.0000 0.0000 0.0000
# 3 55.9640 67.0325 113.1610 0.0000 0.0000 0.0000
# 4 0.0000 0.0000 0.0000 69.2622 0.0000 0.0000
# 5 0.0000 0.0000 0.0000 0.0000 -64.9309 0.0000
# 6 0.0000 0.0000 0.0000 0.0000 0.0000 41.1979
#
#
#
# Elastic Compliance Matrix: (Units=1/GPa)
#
#
# Indices 1 2 3 4 5 6 
#
# 1 0.011076 -0.004980 -0.002527 0.000000 0.000000 0.000000
# 2 -0.004980 0.009385 -0.003097 0.000000 0.000000 0.000000
# 3 -0.002527 -0.003097 0.011921 0.000000 0.000000 0.000000
# 4 0.000000 0.000000 0.000000 0.014438 0.000000 0.000000
# 5 0.000000 0.000000 0.000000 0.000000 -0.015401 0.000000
# 6 0.000000 0.000000 0.000000 0.000000 0.000000 0.024273
#
#
# Mechanical properties :
#
#
# Convention : Reuss Voigt Hill
#
# Bulk Modulus (GPa) = 89.49442 97.46760 93.48101
# Shear Modulus (GPa) = 62.01533 23.77217 42.89375
#
# Velocity S-wave (km/s) = 5.10476 3.16053 4.24544
# Velocity P-wave (km/s) = 8.50588 7.36710 7.95689
#
# Compressibility (1/GPa) = 0.01117388
#
# Stress axis : x y z
#
# Youngs Moduli (GPa) = 90.28677 106.55039 83.88421
#
# Poissons Ratio (x) = 0.53064 0.21202
# Poissons Ratio (y) = 0.44965 0.25975
# Poissons Ratio (z) = 0.22820 0.32993
#
# Static dielectric constant tensor:
#      x y z
#    x 2.139840 0.000000 0.000000 
#    y 0.000000 2.096970 0.000000 
#    z 0.000000 0.000000 1.926880 
# 
# From -- ./inp_files/48755.got.cif
#   From: 2010.05.17/outbox.cif.g08.bks.cpg/sg68_25_cif.got.tgz:48755.got - 2010.06.03 18:57:09.
