data_PCOD9510472
_publ_section_title
;
Structure prediction by ZEFSAII (Michael W. Deem and Ramdas Pophale) SiO2 
 PCOD9510472
Probable space group: C C C A
;
_chemical_formula_sum "Si O2"
_cell_formula_units_Z 64
_cell_length_a 7.350150
_cell_length_b 18.230756
_cell_length_c 19.894468
_cell_angle_alpha 90.000000
_cell_angle_beta 90.000000
_cell_angle_gamma 90.000000
_cell_volume 2665.834664
_symmetry_space_group_name_H-M "C C C A"
_symmetry_group_IT_number 68
_space_group.IT_coordinate_system_code '2'
_symmetry_cell_setting 'orthorhombic'
loop_
_space_group_symop_operation_xyz
x,y,z
-x,1/2-y,z
x,1/2-y,1/2-z
-x,y,1/2-z
-x,-y,-z
x,1/2+y,-z
-x,1/2+y,1/2+z
x,-y,1/2+z
1/2+x,1/2+y,z
1/2-x,-y,z
1/2+x,-y,1/2-z
1/2-x,1/2+y,1/2-z
1/2-x,1/2-y,-z
1/2+x,y,-z
1/2-x,y,1/2+z
1/2+x,1/2-y,1/2+z
loop_
_atom_site_type_symbol
_atom_site_label
_atom_site_fract_x
_atom_site_fract_y
_atom_site_fract_z
Si Si1 0.219165 0.167590 0.257012
Si Si2 0.281698 0.121432 0.905322
Si Si3 0.567070 0.169772 0.461147
Si Si4 0.674931 0.420857 0.626831
O O1 0.291031 0.250000 0.250000
O O2 0.276235 0.146932 0.331767
O O3 0.249149 0.106295 0.199943
O O4 0.000000 0.173686 0.250000
O O5 0.456806 0.072643 0.884447
O O6 0.090329 0.109564 0.943880
O O7 0.376493 0.173690 0.960911
O O8 0.500000 0.250000 0.439402
O O9 0.741216 0.141734 0.420715
O O10 0.750000 0.500000 0.610333
#
# Coordination Sequence:
#
# PCOD9510472 Si02
#       4
#    16  16  16  16
#     4   9  20  41  72  99 135 181 234 293 359 421
#     4  11  24  44  70 104 141 188 236 297 362 425
#     4  12  25  42  75 106 142 186 244 300 360 432
#     4  11  26  48  69 103 145 190 242 299 365 433
#
# _framework density 24.007491999999999
#
# number of rings (size 3 to 8) (size 9 to 14) (size 15 to 20)
#    0.000    1.250    2.500    2.250    7.000    3.000 
#   13.500    2.500    0.000    0.000    0.000    0.000 
#    0.000    0.000    0.000    0.000    0.000    0.000 
#
# Total GULP energy -178162.106412 kJ/mol
# GULP energy per Si atom -5567.565825 kJ/mol
# Density = 2.395285 g / cm^3
# Si number density = 24.007492 Si / 1000 Ang^3
#
#
#
# Elastic Constant Matrix: (Units=GPa)
#
#
# Indices 1 2 3 4 5 6 
#
# 1 106.8503 -11.7821 -6.7077 0.0000 0.0000 0.0000
# 2 -11.7821 54.6025 -7.5921 0.0000 0.0000 0.0000
# 3 -6.7077 -7.5921 121.3222 0.0000 0.0000 0.0000
# 4 0.0000 0.0000 0.0000 2.8851 0.0000 0.0000
# 5 0.0000 0.0000 0.0000 0.0000 -5.5696 0.0000
# 6 0.0000 0.0000 0.0000 0.0000 0.0000 -9.6764
#
#
#
# Elastic Compliance Matrix: (Units=1/GPa)
#
#
# Indices 1 2 3 4 5 6 
#
# 1 0.009641 0.002173 0.000669 0.000000 0.000000 0.000000
# 2 0.002173 0.018965 0.001307 0.000000 0.000000 0.000000
# 3 0.000669 0.001307 0.008361 0.000000 0.000000 0.000000
# 4 0.000000 0.000000 0.000000 0.346612 0.000000 0.000000
# 5 0.000000 0.000000 0.000000 0.000000 -0.179548 0.000000
# 6 0.000000 0.000000 0.000000 0.000000 0.000000 -0.103345
#
#
# Mechanical properties :
#
#
# Convention : Reuss Voigt Hill
#
# Bulk Modulus (GPa) = 22.09211 25.62347 23.85779
# Shear Modulus (GPa) = 46.52203 18.11830 32.32016
#
# Velocity S-wave (km/s) = 4.40684 2.75015 3.67311
# Velocity P-wave (km/s) = 5.92585 4.55859 5.28661
#
# Compressibility (1/GPa) = 0.04526502
#
# Stress axis : x y z
#
# Youngs Moduli (GPa) = 103.72879 52.72916 119.59884
#
# Poissons Ratio (x) = -0.11459 -0.08001
# Poissons Ratio (y) = -0.22543 -0.15631
# Poissons Ratio (z) = -0.06940 -0.06891
#
# Static dielectric constant tensor:
#      x y z
#    x 2.074940 0.000000 0.000000 
#    y 0.000000 1.909820 0.000000 
#    z 0.000000 0.000000 1.970880 
# 
# From -- ./inp_files/27889.got.cif
#   From: 2010.05.17/outbox.cif.g08.bks.cpg/sg68_14_cif.got.tgz:27889.got - 2010.06.03 18:57:09.
