data_PCOD9510412
_publ_section_title
;
Structure prediction by ZEFSAII (Michael W. Deem and Ramdas Pophale) SiO2 
 PCOD9510412
Probable space group: C C C A
;
_chemical_formula_sum "Si O2"
_cell_formula_units_Z 64
_cell_length_a 9.599043
_cell_length_b 32.828447
_cell_length_c 10.315709
_cell_angle_alpha 90.000000
_cell_angle_beta 90.000000
_cell_angle_gamma 90.000000
_cell_volume 3250.703492
_symmetry_space_group_name_H-M "C C C A"
_symmetry_group_IT_number 68
_space_group.IT_coordinate_system_code '2'
_symmetry_cell_setting 'orthorhombic'
loop_
_space_group_symop_operation_xyz
x,y,z
-x,1/2-y,z
x,1/2-y,1/2-z
-x,y,1/2-z
-x,-y,-z
x,1/2+y,-z
-x,1/2+y,1/2+z
x,-y,1/2+z
1/2+x,1/2+y,z
1/2-x,-y,z
1/2+x,-y,1/2-z
1/2-x,1/2+y,1/2-z
1/2-x,1/2-y,-z
1/2+x,y,-z
1/2-x,y,1/2+z
1/2+x,1/2-y,1/2+z
loop_
_atom_site_type_symbol
_atom_site_label
_atom_site_fract_x
_atom_site_fract_y
_atom_site_fract_z
Si Si1 0.242573 0.845159 0.028486
Si Si2 0.834860 0.796704 0.725126
Si Si3 0.411160 0.984212 0.878478
Si Si4 0.487785 0.890319 0.897973
O O1 0.193516 0.813350 0.918840
O O2 0.389389 0.861636 0.980720
O O3 0.258654 0.824172 0.167520
O O4 0.139501 0.883901 0.040153
O O5 0.792439 0.750000 0.750000
O O6 0.000000 0.799429 0.750000
O O7 0.500000 0.995930 0.750000
O O8 0.422674 0.935251 0.890564
O O9 0.250000 0.000000 0.875221
O O10 0.500000 0.000000 0.000000
O O11 0.500000 0.876188 0.750000
#
# Coordination Sequence:
#
# PCOD9510412 Si02
#       4
#    16  16  16  16
#     4  12  22  43  64  95 130 172 217 268 322 382
#     4  11  24  41  64  96 132 172 219 271 325 384
#     4  11  24  45  68 100 134 174 221 273 335 405
#     4  11  24  41  66  95 132 165 214 266 325 389
#
# _framework density 19.688044000000001
#
# number of rings (size 3 to 8) (size 9 to 14) (size 15 to 20)
#    0.000    0.750    5.000    3.000    0.000    2.000 
#    4.500    1.250    0.000    0.000    0.000    0.000 
#    0.000    0.000    0.000    0.000    0.000    0.000 
#
# Total GULP energy -178633.294613 kJ/mol
# GULP energy per Si atom -5582.290457 kJ/mol
# Density = 1.964323 g / cm^3
# Si number density = 19.688044 Si / 1000 Ang^3
#
#
#
# Elastic Constant Matrix: (Units=GPa)
#
#
# Indices 1 2 3 4 5 6 
#
# 1 116.0915 44.1567 41.5554 0.0000 0.0000 0.0000
# 2 44.1567 75.4654 29.2123 0.0000 0.0000 0.0000
# 3 41.5554 29.2123 108.9691 0.0000 0.0000 0.0000
# 4 0.0000 0.0000 0.0000 31.2136 0.0000 0.0000
# 5 0.0000 0.0000 0.0000 0.0000 27.1269 0.0000
# 6 0.0000 0.0000 0.0000 0.0000 0.0000 18.3888
#
#
#
# Elastic Compliance Matrix: (Units=1/GPa)
#
#
# Indices 1 2 3 4 5 6 
#
# 1 0.011887 -0.005803 -0.002977 0.000000 0.000000 0.000000
# 2 -0.005803 0.017618 -0.002510 0.000000 0.000000 0.000000
# 3 -0.002977 -0.002510 0.010985 0.000000 0.000000 0.000000
# 4 0.000000 0.000000 0.000000 0.032037 0.000000 0.000000
# 5 0.000000 0.000000 0.000000 0.000000 0.036864 0.000000
# 6 0.000000 0.000000 0.000000 0.000000 0.000000 0.054381
#
#
# Mechanical properties :
#
#
# Convention : Reuss Voigt Hill
#
# Bulk Modulus (GPa) = 55.83621 58.93052 57.38337
# Shear Modulus (GPa) = 25.99795 27.71930 26.85863
#
# Velocity S-wave (km/s) = 3.63780 3.75630 3.69753
# Velocity P-wave (km/s) = 6.78726 6.98643 6.88756
#
# Compressibility (1/GPa) = 0.01790952
#
# Stress axis : x y z
#
# Youngs Moduli (GPa) = 84.12681 56.75983 91.03077
#
# Poissons Ratio (x) = 0.32936 0.27104
# Poissons Ratio (y) = 0.48816 0.22850
# Poissons Ratio (z) = 0.25048 0.14248
#
# Static dielectric constant tensor:
#      x y z
#    x 1.687120 0.000000 0.000000 
#    y 0.000000 1.722250 0.000000 
#    z 0.000000 0.000000 1.777200 
# 
# From -- ./inp_files/10740.got.cif
#   From: 2010.05.17/outbox.cif.g08.bks.cpg/sg68_6_cif.got.tgz:10740.got - 2010.06.03 18:57:09.
