data_PCOD9510877
_publ_section_title
;
Structure prediction by ZEFSAII (Michael W. Deem and Ramdas Pophale) SiO2 
 PCOD9510877
Probable space group: C C C A
;
_chemical_formula_sum "Si O2"
_cell_formula_units_Z 60
_cell_length_a 27.007912
_cell_length_b 9.116351
_cell_length_c 10.667830
_cell_angle_alpha 90.000000
_cell_angle_beta 90.000000
_cell_angle_gamma 90.000000
_cell_volume 2626.564888
_symmetry_space_group_name_H-M "C C C A"
_symmetry_group_IT_number 68
_space_group.IT_coordinate_system_code '2'
_symmetry_cell_setting 'orthorhombic'
loop_
_space_group_symop_operation_xyz
x,y,z
-x,1/2-y,z
x,1/2-y,1/2-z
-x,y,1/2-z
-x,-y,-z
x,1/2+y,-z
-x,1/2+y,1/2+z
x,-y,1/2+z
1/2+x,1/2+y,z
1/2-x,-y,z
1/2+x,-y,1/2-z
1/2-x,1/2+y,1/2-z
1/2-x,1/2-y,-z
1/2+x,y,-z
1/2-x,y,1/2+z
1/2+x,1/2-y,1/2+z
loop_
_atom_site_type_symbol
_atom_site_label
_atom_site_fract_x
_atom_site_fract_y
_atom_site_fract_z
Si Si1 0.091860 0.750000 0.750000
Si Si2 0.208807 0.725475 0.392911
Si Si3 0.500000 0.250000 0.250000
Si Si4 0.953429 0.999341 0.090869
Si Si5 0.854073 0.940651 0.955296
O O1 0.056023 0.633166 0.684086
O O2 0.128446 0.668349 0.846292
O O3 0.226163 0.750000 0.250000
O O4 0.250000 0.750000 0.500000
O O5 0.168858 0.849042 0.429815
O O6 0.183568 0.566086 0.409459
O O7 0.463545 0.352807 0.169775
O O8 0.904897 0.006265 0.005781
O O9 0.000000 0.000000 0.000000
#
# Coordination Sequence:
#
# PCOD9510877 Si02
#       5
#     8  16   4  16  16
#     4  12  26  49  80 111 166 211 268 330 405 480
#     4  12  30  52  84 117 160 207 271 336 408 485
#     4  12  28  42  76 108 160 204 272 324 394 478
#     4  12  27  48  73 115 157 214 263 329 397 482
#     4  12  27  51  80 116 158 210 269 328 410 476
#
# _framework density 22.843523999999999
#
# number of rings (size 3 to 8) (size 9 to 14) (size 15 to 20)
#    0.000    0.000    2.667    5.600    7.467    5.867 
#    0.000    0.000    0.000    0.000    0.000    0.000 
#    0.000    0.000    0.000    0.000    0.000    0.000 
#
# Total GULP energy -168070.554511 kJ/mol
# GULP energy per Si atom -5602.351817 kJ/mol
# Density = 2.279153 g / cm^3
# Si number density = 22.843524 Si / 1000 Ang^3
#
#
#
# Elastic Constant Matrix: (Units=GPa)
#
#
# Indices 1 2 3 4 5 6 
#
# 1 115.9307 36.6137 58.8379 0.0000 0.0000 0.0000
# 2 36.6137 141.9162 73.9614 0.0000 0.0000 0.0000
# 3 58.8379 73.9614 176.1271 0.0000 0.0000 0.0000
# 4 0.0000 0.0000 0.0000 49.3167 0.0000 0.0000
# 5 0.0000 0.0000 0.0000 0.0000 -5.0268 0.0000
# 6 0.0000 0.0000 0.0000 0.0000 0.0000 38.4863
#
#
#
# Elastic Compliance Matrix: (Units=1/GPa)
#
#
# Indices 1 2 3 4 5 6 
#
# 1 0.010527 -0.001131 -0.003042 0.000000 0.000000 0.000000
# 2 -0.001131 0.009142 -0.003461 0.000000 0.000000 0.000000
# 3 -0.003042 -0.003461 0.008147 0.000000 0.000000 0.000000
# 4 0.000000 0.000000 0.000000 0.020277 0.000000 0.000000
# 5 0.000000 0.000000 0.000000 0.000000 -0.198932 0.000000
# 6 0.000000 0.000000 0.000000 0.000000 0.000000 0.025983
#
#
# Mechanical properties :
#
#
# Convention : Reuss Voigt Hill
#
# Bulk Modulus (GPa) = 79.68975 85.86666 82.77821
# Shear Modulus (GPa) = -47.43610 34.19264 -6.62173
#
# Velocity S-wave (km/s) = -4.56188 3.87307 -1.70441
# Velocity P-wave (km/s) = 2.68573 7.59418 5.69582
#
# Compressibility (1/GPa) = 0.01254866
#
# Stress axis : x y z
#
# Youngs Moduli (GPa) = 94.99633 109.38512 122.73806
#
# Poissons Ratio (x) = 0.12366 0.37335
# Poissons Ratio (y) = 0.10740 0.42484
# Poissons Ratio (z) = 0.28897 0.37862
#
# Static dielectric constant tensor:
#      x y z
#    x 1.850000 0.000000 0.000000 
#    y 0.000000 2.169750 0.000000 
#    z 0.000000 0.000000 1.930060 
# 
# From -- ./inp_files/16876.got.cif
#   From: 2010.05.17/outbox.cif.g08.bks.cpg/sg68_9_cif.got.tgz:16876.got - 2010.06.03 18:57:09.
