data_PCOD9510641
_publ_section_title
;
Structure prediction by ZEFSAII (Michael W. Deem and Ramdas Pophale) SiO2 
 PCOD9510641
Probable space group: C C C A
;
_chemical_formula_sum "Si O2"
_cell_formula_units_Z 64
_cell_length_a 28.307262
_cell_length_b 8.506733
_cell_length_c 11.364494
_cell_angle_alpha 90.000000
_cell_angle_beta 90.000000
_cell_angle_gamma 90.000000
_cell_volume 2736.596518
_symmetry_space_group_name_H-M "C C C A"
_symmetry_group_IT_number 68
_space_group.IT_coordinate_system_code '2'
_symmetry_cell_setting 'orthorhombic'
loop_
_space_group_symop_operation_xyz
x,y,z
-x,1/2-y,z
x,1/2-y,1/2-z
-x,y,1/2-z
-x,-y,-z
x,1/2+y,-z
-x,1/2+y,1/2+z
x,-y,1/2+z
1/2+x,1/2+y,z
1/2-x,-y,z
1/2+x,-y,1/2-z
1/2-x,1/2+y,1/2-z
1/2-x,1/2-y,-z
1/2+x,y,-z
1/2-x,y,1/2+z
1/2+x,1/2-y,1/2+z
loop_
_atom_site_type_symbol
_atom_site_label
_atom_site_fract_x
_atom_site_fract_y
_atom_site_fract_z
Si Si1 0.816798 0.750000 0.750000
Si Si2 0.373998 0.943363 0.435549
Si Si3 0.250000 0.000000 0.629552
Si Si4 0.670621 0.227378 0.388264
Si Si5 0.982245 0.068703 0.123838
O O1 0.848194 0.812330 0.643244
O O2 0.784981 0.605141 0.707492
O O3 0.372757 0.881318 0.569440
O O4 0.425989 0.955778 0.384063
O O5 0.342992 0.100631 0.432084
O O6 0.216767 0.130833 0.567146
O O7 0.676285 0.250000 0.250000
O O8 0.000000 0.250000 0.123413
O O9 0.000000 0.002208 0.250000
O O10 0.000000 0.000000 0.000000
#
# Coordination Sequence:
#
# PCOD9510641 Si02
#       5
#     8  16   8  16  16
#     4  12  22  44  69 104 144 198 249 318 372 470
#     4  12  27  46  77 107 152 201 255 320 396 466
#     4  12  24  46  72 108 152 198 262 318 390 458
#     4  12  27  47  73 110 151 203 261 321 387 472
#     4  11  26  49  78 115 154 199 255 324 393 475
#
# _framework density 23.386714000000001
#
# number of rings (size 3 to 8) (size 9 to 14) (size 15 to 20)
#    0.000    0.250    3.750    4.500    3.500    5.500 
#    0.000    0.000    0.000    0.000    0.000    0.000 
#    0.000    0.000    0.000    0.000    0.000    0.000 
#
# Total GULP energy -178855.392710 kJ/mol
# GULP energy per Si atom -5589.231022 kJ/mol
# Density = 2.333349 g / cm^3
# Si number density = 23.386714 Si / 1000 Ang^3
#
#
#
# Elastic Constant Matrix: (Units=GPa)
#
#
# Indices 1 2 3 4 5 6 
#
# 1 152.1923 53.8793 72.9294 0.0000 0.0000 0.0000
# 2 53.8793 145.3472 61.5251 0.0000 0.0000 0.0000
# 3 72.9294 61.5251 125.4781 0.0000 0.0000 0.0000
# 4 0.0000 0.0000 0.0000 -14.1917 0.0000 0.0000
# 5 0.0000 0.0000 0.0000 0.0000 43.7183 0.0000
# 6 0.0000 0.0000 0.0000 0.0000 0.0000 18.1142
#
#
#
# Elastic Compliance Matrix: (Units=1/GPa)
#
#
# Indices 1 2 3 4 5 6 
#
# 1 0.009350 -0.001471 -0.004713 0.000000 0.000000 0.000000
# 2 -0.001471 0.008913 -0.003516 0.000000 0.000000 0.000000
# 3 -0.004713 -0.003516 0.012433 0.000000 0.000000 0.000000
# 4 0.000000 0.000000 0.000000 -0.070464 0.000000 0.000000
# 5 0.000000 0.000000 0.000000 0.000000 0.022874 0.000000
# 6 0.000000 0.000000 0.000000 0.000000 0.000000 0.055205
#
#
# Mechanical properties :
#
#
# Convention : Reuss Voigt Hill
#
# Bulk Modulus (GPa) = 88.52038 88.85391 88.68715
# Shear Modulus (GPa) = 81.33317 25.17376 53.25346
#
# Velocity S-wave (km/s) = 5.90364 3.28443 4.77705
# Velocity P-wave (km/s) = 9.18714 7.24287 8.27232
#
# Compressibility (1/GPa) = 0.01129683
#
# Stress axis : x y z
#
# Youngs Moduli (GPa) = 106.95420 112.18972 80.43406
#
# Poissons Ratio (x) = 0.16502 0.37908
# Poissons Ratio (y) = 0.15732 0.28277
# Poissons Ratio (z) = 0.50407 0.39441
#
# Static dielectric constant tensor:
#      x y z
#    x 1.734990 0.000000 0.000000 
#    y 0.000000 1.899450 0.000000 
#    z 0.000000 0.000000 1.937770 
# 
# From -- ./inp_files/17472.got.cif
#   From: 2010.05.17/outbox.cif.g08.bks.cpg/sg68_9_cif.got.tgz:17472.got - 2010.06.03 18:57:09.
