data_PCOD9510711
_publ_section_title
;
Structure prediction by ZEFSAII (Michael W. Deem and Ramdas Pophale) SiO2 
 PCOD9510711
Probable space group: C C C A
;
_chemical_formula_sum "Si O2"
_cell_formula_units_Z 60
_cell_length_a 22.451399
_cell_length_b 12.794015
_cell_length_c 8.861249
_cell_angle_alpha 90.000000
_cell_angle_beta 90.000000
_cell_angle_gamma 90.000000
_cell_volume 2545.336492
_symmetry_space_group_name_H-M "C C C A"
_symmetry_group_IT_number 68
_space_group.IT_coordinate_system_code '2'
_symmetry_cell_setting 'orthorhombic'
loop_
_space_group_symop_operation_xyz
x,y,z
-x,1/2-y,z
x,1/2-y,1/2-z
-x,y,1/2-z
-x,-y,-z
x,1/2+y,-z
-x,1/2+y,1/2+z
x,-y,1/2+z
1/2+x,1/2+y,z
1/2-x,-y,z
1/2+x,-y,1/2-z
1/2-x,1/2+y,1/2-z
1/2-x,1/2-y,-z
1/2+x,y,-z
1/2-x,y,1/2+z
1/2+x,1/2-y,1/2+z
loop_
_atom_site_type_symbol
_atom_site_label
_atom_site_fract_x
_atom_site_fract_y
_atom_site_fract_z
Si Si1 0.500000 0.250000 0.750000
Si Si2 0.867595 0.088714 0.728660
Si Si3 0.750000 0.500000 0.655221
Si Si4 0.597431 0.375153 0.931185
Si Si5 0.185579 0.701150 0.971851
O O1 0.540109 0.321029 0.859516
O O2 0.862539 0.179718 0.605164
O O3 0.797031 0.071247 0.758975
O O4 0.893111 0.985667 0.650174
O O5 0.899811 0.106174 0.888422
O O6 0.795443 0.584048 0.580189
O O7 0.652350 0.297820 0.890268
O O8 0.250000 0.750000 0.000000
#
# Coordination Sequence:
#
# PCOD9510711 Si02
#       5
#     4  16   8  16  16
#     4  12  32  56  82 108 142 220 270 358 388 476
#     4  12  25  47  74 116 158 209 255 323 400 476
#     4  12  22  40  70 116 164 206 240 318 380 484
#     4  12  28  52  77 109 157 202 277 322 406 467
#     4  12  23  45  74 121 163 205 252 317 395 490
#
# _framework density 23.572521999999999
#
# number of rings (size 3 to 8) (size 9 to 14) (size 15 to 20)
#    0.000    0.000    5.333    4.800    0.000    3.200 
#    0.000    1.333    0.000    0.000    0.000    0.000 
#    0.000    0.000    0.000    0.000    0.000    0.000 
#
# Total GULP energy -167442.358252 kJ/mol
# GULP energy per Si atom -5581.411942 kJ/mol
# Density = 2.351887 g / cm^3
# Si number density = 23.572522 Si / 1000 Ang^3
#
#
#
# Elastic Constant Matrix: (Units=GPa)
#
#
# Indices 1 2 3 4 5 6 
#
# 1 103.2552 34.9323 14.9944 0.0000 0.0000 0.0000
# 2 34.9323 158.3822 66.4628 0.0000 0.0000 0.0000
# 3 14.9944 66.4628 86.5550 0.0000 0.0000 0.0000
# 4 0.0000 0.0000 0.0000 27.8427 0.0000 0.0000
# 5 0.0000 0.0000 0.0000 0.0000 18.3510 0.0000
# 6 0.0000 0.0000 0.0000 0.0000 0.0000 41.5810
#
#
#
# Elastic Compliance Matrix: (Units=1/GPa)
#
#
# Indices 1 2 3 4 5 6 
#
# 1 0.010466 -0.002283 -0.000060 0.000000 0.000000 0.000000
# 2 -0.002283 0.009814 -0.007140 0.000000 0.000000 0.000000
# 3 -0.000060 -0.007140 0.017046 0.000000 0.000000 0.000000
# 4 0.000000 0.000000 0.000000 0.035916 0.000000 0.000000
# 5 0.000000 0.000000 0.000000 0.000000 0.054493 0.000000
# 6 0.000000 0.000000 0.000000 0.000000 0.000000 0.024049
#
#
# Mechanical properties :
#
#
# Convention : Reuss Voigt Hill
#
# Bulk Modulus (GPa) = 54.46737 64.55237 59.50987
# Shear Modulus (GPa) = 28.26932 33.00848 30.63890
#
# Velocity S-wave (km/s) = 3.46677 3.74611 3.60915
# Velocity P-wave (km/s) = 6.25949 6.79376 6.53209
#
# Compressibility (1/GPa) = 0.01835962
#
# Stress axis : x y z
#
# Youngs Moduli (GPa) = 95.54872 101.89917 58.66367
#
# Poissons Ratio (x) = 0.23266 0.00351
# Poissons Ratio (y) = 0.21816 0.41886
# Poissons Ratio (z) = 0.00572 0.72756
#
# Static dielectric constant tensor:
#      x y z
#    x 1.826340 0.000000 0.000000 
#    y 0.000000 1.976210 0.000000 
#    z 0.000000 0.000000 2.040640 
# 
# From -- ./inp_files/7702.got.cif
#   From: 2010.05.17/outbox.cif.g08.bks.cpg/sg68_4_cif.got.tgz:7702.got - 2010.06.03 18:57:09.
