data_PCOD9510040
_publ_section_title
;
Structure prediction by ZEFSAII (Michael W. Deem and Ramdas Pophale) SiO2 
 PCOD9510040
Probable space group: C C C A
;
_chemical_formula_sum "Si O2"
_cell_formula_units_Z 72
_cell_length_a 8.361578
_cell_length_b 19.702081
_cell_length_c 19.438191
_cell_angle_alpha 90.000000
_cell_angle_beta 90.000000
_cell_angle_gamma 90.000000
_cell_volume 3202.257053
_symmetry_space_group_name_H-M "C C C A"
_symmetry_group_IT_number 68
_space_group.IT_coordinate_system_code '2'
_symmetry_cell_setting 'orthorhombic'
loop_
_space_group_symop_operation_xyz
x,y,z
-x,1/2-y,z
x,1/2-y,1/2-z
-x,y,1/2-z
-x,-y,-z
x,1/2+y,-z
-x,1/2+y,1/2+z
x,-y,1/2+z
1/2+x,1/2+y,z
1/2-x,-y,z
1/2+x,-y,1/2-z
1/2-x,1/2+y,1/2-z
1/2-x,1/2-y,-z
1/2+x,y,-z
1/2-x,y,1/2+z
1/2+x,1/2-y,1/2+z
loop_
_atom_site_type_symbol
_atom_site_label
_atom_site_fract_x
_atom_site_fract_y
_atom_site_fract_z
Si Si1 0.118962 0.446054 0.050605
Si Si2 0.095953 0.451228 0.320116
Si Si3 0.500000 0.750000 0.625841
Si Si4 0.845139 0.702579 0.634878
Si Si5 0.383232 0.645701 0.519862
O O1 0.250000 0.500000 0.028594
O O2 0.221107 0.376669 0.057502
O O3 0.027596 0.467492 0.118658
O O4 0.988400 0.420445 0.997295
O O5 0.250000 0.500000 0.323927
O O6 0.141341 0.371922 0.330705
O O7 0.000000 0.460724 0.250000
O O8 0.676217 0.736819 0.657904
O O9 0.479881 0.687267 0.574859
O O10 0.849171 0.685553 0.551735
O O11 0.000000 0.750000 0.649373
#
# Coordination Sequence:
#
# PCOD9510040 Si02
#       5
#    16  16   8  16  16
#     4  11  24  38  67 101 140 180 230 291 343 418
#     4  11  27  52  73  95 133 186 246 299 360 412
#     4  12  20  38  66  99 145 186 220 266 360 434
#     4  11  24  43  71 108 144 185 231 288 349 427
#     4  11  21  38  62 102 148 182 219 273 351 426
#
# _framework density 22.484141999999999
#
# number of rings (size 3 to 8) (size 9 to 14) (size 15 to 20)
#    0.000    0.889    3.333    4.667    3.111    4.000 
#    4.000    0.000    0.000    1.333    0.000    0.000 
#    0.000    0.000    0.000    0.000    0.000    0.000 
#
# Total GULP energy -201029.307990 kJ/mol
# GULP energy per Si atom -5584.147444 kJ/mol
# Density = 2.243297 g / cm^3
# Si number density = 22.484142 Si / 1000 Ang^3
#
#
#
# Elastic Constant Matrix: (Units=GPa)
#
#
# Indices 1 2 3 4 5 6 
#
# 1 205.5227 81.9797 33.5130 0.0000 0.0000 0.0000
# 2 81.9797 107.5960 28.9951 0.0000 0.0000 0.0000
# 3 33.5130 28.9951 47.9409 0.0000 0.0000 0.0000
# 4 0.0000 0.0000 0.0000 0.9378 0.0000 0.0000
# 5 0.0000 0.0000 0.0000 0.0000 22.0659 0.0000
# 6 0.0000 0.0000 0.0000 0.0000 0.0000 52.4527
#
#
#
# Elastic Compliance Matrix: (Units=1/GPa)
#
#
# Indices 1 2 3 4 5 6 
#
# 1 0.007153 -0.004901 -0.002036 0.000000 0.000000 0.000000
# 2 -0.004901 0.014462 -0.005321 0.000000 0.000000 0.000000
# 3 -0.002036 -0.005321 0.025500 0.000000 0.000000 0.000000
# 4 0.000000 0.000000 0.000000 1.066310 0.000000 0.000000
# 5 0.000000 0.000000 0.000000 0.000000 0.045319 0.000000
# 6 0.000000 0.000000 0.000000 0.000000 0.000000 0.019065
#
#
# Mechanical properties :
#
#
# Convention : Reuss Voigt Hill
#
# Bulk Modulus (GPa) = 44.24845 72.22613 58.23729
# Shear Modulus (GPa) = 4.13272 29.52941 16.83106
#
# Velocity S-wave (km/s) = 1.35722 3.62794 2.73898
# Velocity P-wave (km/s) = 4.70942 7.05281 5.99670
#
# Compressibility (1/GPa) = 0.02259966
#
# Stress axis : x y z
#
# Youngs Moduli (GPa) = 139.80999 69.14625 39.21546
#
# Poissons Ratio (x) = 0.33889 0.07983
# Poissons Ratio (y) = 0.68522 0.20865
# Poissons Ratio (z) = 0.28462 0.36791
#
# Static dielectric constant tensor:
#      x y z
#    x 1.886000 0.000000 0.000000 
#    y 0.000000 1.534510 0.000000 
#    z 0.000000 0.000000 0.774300 
# 
# From -- ./inp_files/36039.got.cif
#   From: 2010.05.17/outbox.cif.g08.bks.cpg/sg68_19_cif.got.tgz:36039.got - 2010.06.03 18:57:09.
