data_PCOD9510112
_publ_section_title
;
Structure prediction by ZEFSAII (Michael W. Deem and Ramdas Pophale) SiO2 
 PCOD9510112
Probable space group: C C C A
;
_chemical_formula_sum "Si O2"
_cell_formula_units_Z 88
_cell_length_a 10.751408
_cell_length_b 30.002369
_cell_length_c 11.196922
_cell_angle_alpha 90.000000
_cell_angle_beta 90.000000
_cell_angle_gamma 90.000000
_cell_volume 3611.765490
_symmetry_space_group_name_H-M "C C C A"
_symmetry_group_IT_number 68
_space_group.IT_coordinate_system_code '2'
_symmetry_cell_setting 'orthorhombic'
loop_
_space_group_symop_operation_xyz
x,y,z
-x,1/2-y,z
x,1/2-y,1/2-z
-x,y,1/2-z
-x,-y,-z
x,1/2+y,-z
-x,1/2+y,1/2+z
x,-y,1/2+z
1/2+x,1/2+y,z
1/2-x,-y,z
1/2+x,-y,1/2-z
1/2-x,1/2+y,1/2-z
1/2-x,1/2-y,-z
1/2+x,y,-z
1/2-x,y,1/2+z
1/2+x,1/2-y,1/2+z
loop_
_atom_site_type_symbol
_atom_site_label
_atom_site_fract_x
_atom_site_fract_y
_atom_site_fract_z
Si Si1 0.000000 0.500010 0.750000
Si Si2 0.829852 0.076468 0.352615
Si Si3 0.000000 0.750000 0.525104
Si Si4 0.500000 0.149188 0.750000
Si Si5 0.711111 0.283483 0.838381
Si Si6 0.349688 0.925078 0.878566
Si Si7 0.452909 0.331867 0.117791
O O1 0.097175 0.531352 0.819181
O O2 0.075314 0.469330 0.656917
O O3 0.735067 0.084100 0.240316
O O4 0.783392 0.072817 0.490458
O O5 0.931282 0.116339 0.342719
O O6 0.874219 0.746287 0.598869
O O7 0.027260 0.703507 0.459946
O O8 0.391115 0.181364 0.794025
O O9 0.784145 0.250000 0.750000
O O10 0.812919 0.313956 0.899587
O O11 0.447249 0.884674 0.895014
O O12 0.500000 0.324281 0.250000
#
# Coordination Sequence:
#
# PCOD9510112 Si02
#       7
#     8  16   8   8  16  16  16
#     4  11  26  50  75 109 141 193 250 318 391 468
#     4  11  27  47  79 110 149 191 254 317 388 469
#     4  12  24  42  70 108 146 202 256 314 368 446
#     4  11  21  46  69 108 146 203 258 309 375 456
#     4  12  23  43  71 101 146 199 254 305 371 437
#     4  12  26  48  77 109 150 197 247 317 389 462
#     4  12  27  47  69 107 152 198 253 312 377 448
#
# _framework density 24.364815
#
# number of rings (size 3 to 8) (size 9 to 14) (size 15 to 20)
#    0.000    0.364    4.545    4.091    0.000    7.273 
#    0.000    0.000    0.000    0.000    0.000    0.000 
#    0.000    0.000    0.000    0.000    0.000    0.000 
#
# Total GULP energy -245551.371482 kJ/mol
# GULP energy per Si atom -5580.712988 kJ/mol
# Density = 2.430936 g / cm^3
# Si number density = 24.364815 Si / 1000 Ang^3
#
#
#
# Elastic Constant Matrix: (Units=GPa)
#
#
# Indices 1 2 3 4 5 6 
#
# 1 51.4831 4.7772 27.4986 0.0000 0.0000 0.0000
# 2 4.7772 140.8268 50.5347 0.0000 0.0000 0.0000
# 3 27.4986 50.5347 150.7275 0.0000 0.0000 0.0000
# 4 0.0000 0.0000 0.0000 4.7389 0.0000 0.0000
# 5 0.0000 0.0000 0.0000 0.0000 21.9606 0.0000
# 6 0.0000 0.0000 0.0000 0.0000 0.0000 44.7413
#
#
#
# Elastic Compliance Matrix: (Units=1/GPa)
#
#
# Indices 1 2 3 4 5 6 
#
# 1 0.021595 0.000774 -0.004199 0.000000 0.000000 0.000000
# 2 0.000774 0.008100 -0.002857 0.000000 0.000000 0.000000
# 3 -0.004199 -0.002857 0.008358 0.000000 0.000000 0.000000
# 4 0.000000 0.000000 0.000000 0.211020 0.000000 0.000000
# 5 0.000000 0.000000 0.000000 0.000000 0.045536 0.000000
# 6 0.000000 0.000000 0.000000 0.000000 0.000000 0.022351
#
#
# Mechanical properties :
#
#
# Convention : Reuss Voigt Hill
#
# Bulk Modulus (GPa) = 39.23195 56.51759 47.87477
# Shear Modulus (GPa) = 14.79199 31.63662 23.21431
#
# Velocity S-wave (km/s) = 2.46662 3.60732 3.09006
# Velocity P-wave (km/s) = 4.92434 6.37158 5.69413
#
# Compressibility (1/GPa) = 0.02548943
#
# Stress axis : x y z
#
# Youngs Moduli (GPa) = 46.30694 123.45921 119.63905
#
# Poissons Ratio (x) = -0.09560 0.50241
# Poissons Ratio (y) = -0.03586 0.34180
# Poissons Ratio (z) = 0.19446 0.35271
#
# Static dielectric constant tensor:
#      x y z
#    x 1.996720 0.000000 0.000000 
#    y 0.000000 1.909320 0.000000 
#    z 0.000000 0.000000 2.303680 
# 
# From -- ./inp_files/12084.got.cif
#   From: 2010.05.17/outbox.cif.g08.bks.cpg/sg68_7_cif.got.tgz:12084.got - 2010.06.03 18:57:09.
