data_PCOD9510548
_publ_section_title
;
Structure prediction by ZEFSAII (Michael W. Deem and Ramdas Pophale) SiO2 
 PCOD9510548
Probable space group: C C C A
;
_chemical_formula_sum "Si O2"
_cell_formula_units_Z 64
_cell_length_a 10.170758
_cell_length_b 20.202548
_cell_length_c 14.616395
_cell_angle_alpha 90.000000
_cell_angle_beta 90.000000
_cell_angle_gamma 90.000000
_cell_volume 3003.307076
_symmetry_space_group_name_H-M "C C C A"
_symmetry_group_IT_number 68
_space_group.IT_coordinate_system_code '2'
_symmetry_cell_setting 'orthorhombic'
loop_
_space_group_symop_operation_xyz
x,y,z
-x,1/2-y,z
x,1/2-y,1/2-z
-x,y,1/2-z
-x,-y,-z
x,1/2+y,-z
-x,1/2+y,1/2+z
x,-y,1/2+z
1/2+x,1/2+y,z
1/2-x,-y,z
1/2+x,-y,1/2-z
1/2-x,1/2+y,1/2-z
1/2-x,1/2-y,-z
1/2+x,y,-z
1/2-x,y,1/2+z
1/2+x,1/2-y,1/2+z
loop_
_atom_site_type_symbol
_atom_site_label
_atom_site_fract_x
_atom_site_fract_y
_atom_site_fract_z
Si Si1 0.373859 0.546317 0.003465
Si Si2 0.508179 0.676093 0.597417
Si Si3 0.283374 0.679098 0.739154
Si Si4 0.642085 0.052059 0.719115
O O1 0.250000 0.500000 0.969831
O O2 0.349164 0.559452 0.110265
O O3 0.500000 0.500000 0.000000
O O4 0.425067 0.615224 0.957506
O O5 0.500000 0.750000 0.552568
O O6 0.364327 0.664336 0.644582
O O7 0.605545 0.682996 0.683289
O O8 0.216391 0.750000 0.750000
O O9 0.181077 0.622063 0.760206
O O10 0.500000 0.028818 0.750000
O O11 0.750000 0.000000 0.749220
#
# Coordination Sequence:
#
# PCOD9510548 Si02
#       4
#    16  16  16  16
#     4  11  25  42  62  97 131 166 220 273 322 386
#     4   9  19  40  69  93 124 173 214 258 323 393
#     4   9  20  41  66  93 126 168 216 256 318 396
#     4  11  26  42  63  94 129 171 215 263 323 386
#
# _framework density 21.309842
#
# number of rings (size 3 to 8) (size 9 to 14) (size 15 to 20)
#    0.000    2.000    0.000    4.500   10.500    0.500 
#    4.500    3.750    0.000    0.000    0.000    0.000 
#    0.000    0.000    0.000    0.000    0.000    0.000 
#
# Total GULP energy -178326.065777 kJ/mol
# GULP energy per Si atom -5572.689556 kJ/mol
# Density = 2.126134 g / cm^3
# Si number density = 21.309842 Si / 1000 Ang^3
#
#
#
# Elastic Constant Matrix: (Units=GPa)
#
#
# Indices 1 2 3 4 5 6 
#
# 1 136.1190 79.8170 6.5788 0.0000 0.0000 0.0000
# 2 79.8170 191.9617 47.8592 0.0000 0.0000 0.0000
# 3 6.5788 47.8592 51.1614 0.0000 0.0000 0.0000
# 4 0.0000 0.0000 0.0000 23.2482 0.0000 0.0000
# 5 0.0000 0.0000 0.0000 0.0000 12.8915 0.0000
# 6 0.0000 0.0000 0.0000 0.0000 0.0000 44.9304
#
#
#
# Elastic Compliance Matrix: (Units=1/GPa)
#
#
# Indices 1 2 3 4 5 6 
#
# 1 0.010162 -0.005086 0.003451 0.000000 0.000000 0.000000
# 2 -0.005086 0.009339 -0.008082 0.000000 0.000000 0.000000
# 3 0.003451 -0.008082 0.026663 0.000000 0.000000 0.000000
# 4 0.000000 0.000000 0.000000 0.043014 0.000000 0.000000
# 5 0.000000 0.000000 0.000000 0.000000 0.077570 0.000000
# 6 0.000000 0.000000 0.000000 0.000000 0.000000 0.022257
#
#
# Mechanical properties :
#
#
# Convention : Reuss Voigt Hill
#
# Bulk Modulus (GPa) = 37.41223 71.97244 54.69233
# Shear Modulus (GPa) = 23.00451 32.54650 27.77550
#
# Velocity S-wave (km/s) = 3.28918 3.91231 3.61420
# Velocity P-wave (km/s) = 5.65856 7.36585 6.56792
#
# Compressibility (1/GPa) = 0.02672923
#
# Stress axis : x y z
#
# Youngs Moduli (GPa) = 98.40806 107.07852 37.50542
#
# Poissons Ratio (x) = 0.54455 -0.12942
# Poissons Ratio (y) = 0.50046 0.30313
# Poissons Ratio (z) = -0.33957 0.86543
#
# Static dielectric constant tensor:
#      x y z
#    x 1.779070 0.000000 0.000000 
#    y 0.000000 1.888170 0.000000 
#    z 0.000000 0.000000 1.867120 
# 
# From -- ./inp_files/20473.got.cif
#   From: 2010.05.17/outbox.cif.g08.bks.cpg/sg68_11_cif.got.tgz:20473.got - 2010.06.03 18:57:09.
