data_PCOD9510038
_publ_section_title
;
Structure prediction by ZEFSAII (Michael W. Deem and Ramdas Pophale) SiO2 
 PCOD9510038
Probable space group: C C C A
;
_chemical_formula_sum "Si O2"
_cell_formula_units_Z 88
_cell_length_a 23.716472
_cell_length_b 14.064591
_cell_length_c 14.098807
_cell_angle_alpha 90.000000
_cell_angle_beta 90.000000
_cell_angle_gamma 90.000000
_cell_volume 4702.833009
_symmetry_space_group_name_H-M "C C C A"
_symmetry_group_IT_number 68
_space_group.IT_coordinate_system_code '2'
_symmetry_cell_setting 'orthorhombic'
loop_
_space_group_symop_operation_xyz
x,y,z
-x,1/2-y,z
x,1/2-y,1/2-z
-x,y,1/2-z
-x,-y,-z
x,1/2+y,-z
-x,1/2+y,1/2+z
x,-y,1/2+z
1/2+x,1/2+y,z
1/2-x,-y,z
1/2+x,-y,1/2-z
1/2-x,1/2+y,1/2-z
1/2-x,1/2-y,-z
1/2+x,y,-z
1/2-x,y,1/2+z
1/2+x,1/2-y,1/2+z
loop_
_atom_site_type_symbol
_atom_site_label
_atom_site_fract_x
_atom_site_fract_y
_atom_site_fract_z
Si Si1 0.439871 0.125428 0.350787
Si Si2 0.565101 0.853890 0.869038
Si Si3 0.171477 0.527004 0.098476
Si Si4 0.284733 0.142077 0.578743
Si Si5 0.167120 0.670001 0.510714
Si Si6 0.750000 0.000000 0.762982
O O1 0.429010 0.107295 0.238471
O O2 0.435616 0.239211 0.360140
O O3 0.502496 0.106622 0.391255
O O4 0.391093 0.068383 0.401699
O O5 0.614063 0.864216 0.946698
O O6 0.173884 0.414149 0.085940
O O7 0.205050 0.551025 0.194212
O O8 0.201588 0.573247 0.008683
O O9 0.220599 0.177090 0.560546
O O10 0.328398 0.229765 0.566958
O O11 0.282086 0.077058 0.671847
#
# Coordination Sequence:
#
# PCOD9510038 Si02
#       6
#    16  16  16  16  16   8
#     4   9  19  34  59  88 119 151 204 250 305 355
#     4   9  18  36  59  87 116 158 198 256 300 352
#     4  12  22  39  58  90 118 159 206 243 305 374
#     4  11  23  39  55  90 120 155 201 245 306 365
#     4  11  21  38  59  84 120 155 202 247 303 370
#     4  12  22  40  58  82 130 162 194 260 304 368
#
# _framework density 18.712123999999999
#
# number of rings (size 3 to 8) (size 9 to 14) (size 15 to 20)
#    0.000    1.455    5.455    2.182    0.000    1.455 
#    0.000    0.000    0.000    0.000    0.000    0.000 
#    0.000    0.000    0.000    0.000    0.000    0.000 
#
# Total GULP energy -244970.203786 kJ/mol
# GULP energy per Si atom -5567.504632 kJ/mol
# Density = 1.866953 g / cm^3
# Si number density = 18.712124 Si / 1000 Ang^3
#
#
#
# Elastic Constant Matrix: (Units=GPa)
#
#
# Indices 1 2 3 4 5 6 
#
# 1 124.2563 20.9120 43.4515 0.0000 0.0000 0.0000
# 2 20.9120 80.2439 29.6891 0.0000 0.0000 0.0000
# 3 43.4515 29.6891 91.7474 0.0000 0.0000 0.0000
# 4 0.0000 0.0000 0.0000 6.6712 0.0000 0.0000
# 5 0.0000 0.0000 0.0000 0.0000 25.8515 0.0000
# 6 0.0000 0.0000 0.0000 0.0000 0.0000 28.1670
#
#
#
# Elastic Compliance Matrix: (Units=1/GPa)
#
#
# Indices 1 2 3 4 5 6 
#
# 1 0.009707 -0.000942 -0.004293 0.000000 0.000000 0.000000
# 2 -0.000942 0.014248 -0.004165 0.000000 0.000000 0.000000
# 3 -0.004293 -0.004165 0.014280 0.000000 0.000000 0.000000
# 4 0.000000 0.000000 0.000000 0.149898 0.000000 0.000000
# 5 0.000000 0.000000 0.000000 0.000000 0.038683 0.000000
# 6 0.000000 0.000000 0.000000 0.000000 0.000000 0.035503
#
#
# Mechanical properties :
#
#
# Convention : Reuss Voigt Hill
#
# Bulk Modulus (GPa) = 51.44610 53.81698 52.63154
# Shear Modulus (GPa) = 17.38546 25.61760 21.50153
#
# Velocity S-wave (km/s) = 3.05142 3.70406 3.39347
# Velocity P-wave (km/s) = 6.32203 6.86414 6.59865
#
# Compressibility (1/GPa) = 0.01943782
#
# Stress axis : x y z
#
# Youngs Moduli (GPa) = 103.01315 70.18384 70.02679
#
# Poissons Ratio (x) = 0.06608 0.30061
# Poissons Ratio (y) = 0.09699 0.29165
# Poissons Ratio (z) = 0.44221 0.29230
#
# Static dielectric constant tensor:
#      x y z
#    x 1.733630 0.000000 0.000000 
#    y 0.000000 1.663250 0.000000 
#    z 0.000000 0.000000 1.657330 
# 
# From -- ./inp_files/16329.got.cif
#   From: 2010.05.17/outbox.cif.g08.bks.cpg/sg68_9_cif.got.tgz:16329.got - 2010.06.03 18:57:09.
