data_PCOD9510176
_publ_section_title
;
Structure prediction by ZEFSAII (Michael W. Deem and Ramdas Pophale) SiO2 
 PCOD9510176
Probable space group: C C C A
;
_chemical_formula_sum "Si O2"
_cell_formula_units_Z 112
_cell_length_a 19.143528
_cell_length_b 22.812021
_cell_length_c 12.332228
_cell_angle_alpha 90.000000
_cell_angle_beta 90.000000
_cell_angle_gamma 90.000000
_cell_volume 5385.515572
_symmetry_space_group_name_H-M "C C C A"
_symmetry_group_IT_number 68
_space_group.IT_coordinate_system_code '2'
_symmetry_cell_setting 'orthorhombic'
loop_
_space_group_symop_operation_xyz
x,y,z
-x,1/2-y,z
x,1/2-y,1/2-z
-x,y,1/2-z
-x,-y,-z
x,1/2+y,-z
-x,1/2+y,1/2+z
x,-y,1/2+z
1/2+x,1/2+y,z
1/2-x,-y,z
1/2+x,-y,1/2-z
1/2-x,1/2+y,1/2-z
1/2-x,1/2-y,-z
1/2+x,y,-z
1/2-x,y,1/2+z
1/2+x,1/2-y,1/2+z
loop_
_atom_site_type_symbol
_atom_site_label
_atom_site_fract_x
_atom_site_fract_y
_atom_site_fract_z
Si Si1 0.383290 0.902664 0.047420
Si Si2 0.182189 0.208160 0.504818
Si Si3 0.921777 0.225185 0.366327
Si Si4 0.180319 0.479324 0.269700
Si Si5 0.138894 0.317673 0.761234
Si Si6 0.746886 0.384643 0.385861
Si Si7 0.066824 0.429965 0.684130
O O1 0.411065 0.843714 0.107594
O O2 0.369290 0.947443 0.144550
O O3 0.307955 0.895952 0.984654
O O4 0.433384 0.922923 0.947125
O O5 0.250000 0.250000 0.500000
O O6 0.118405 0.246586 0.466468
O O7 0.169251 0.179814 0.619639
O O8 0.189462 0.153822 0.426148
O O9 0.892905 0.250000 0.250000
O O10 0.000000 0.250000 0.369036
O O11 0.250000 0.500000 0.332693
O O12 0.217589 0.437668 0.179653
O O13 0.134227 0.530214 0.214303
O O14 0.117734 0.250000 0.750000
O O15 0.202481 0.339363 0.686970
O O16 0.080715 0.365101 0.732555
O O17 0.000000 0.453410 0.750000
#
# Coordination Sequence:
#
# PCOD9510176 Si02
#       7
#    16  16  16  16  16  16  16
#     4  11  24  45  73 102 143 185 238 302 361 421
#     4  12  22  36  69  96 138 179 222 291 356 419
#     4  11  26  46  66 103 147 190 237 288 365 459
#     4  12  25  44  73 100 138 191 240 300 359 423
#     4  11  22  40  65 105 133 173 225 286 363 418
#     4  11  23  41  67 105 137 174 234 295 356 423
#     4  11  28  49  68 104 145 186 249 296 352 437
#
# _framework density 20.796523000000001
#
# number of rings (size 3 to 8) (size 9 to 14) (size 15 to 20)
#    0.000    0.714    5.714    2.571    6.000    0.857 
#    5.143    0.000    0.000    0.000    0.000    0.000 
#    0.000    0.000    0.000    0.000    0.000    0.000 
#
# Total GULP energy -312164.493600 kJ/mol
# GULP energy per Si atom -5574.365957 kJ/mol
# Density = 2.074919 g / cm^3
# Si number density = 20.796523 Si / 1000 Ang^3
#
#
#
# Elastic Constant Matrix: (Units=GPa)
#
#
# Indices 1 2 3 4 5 6 
#
# 1 66.9983 32.2043 22.2504 0.0000 0.0000 0.0000
# 2 32.2043 110.5472 49.5806 0.0000 0.0000 0.0000
# 3 22.2504 49.5806 98.2328 0.0000 0.0000 0.0000
# 4 0.0000 0.0000 0.0000 30.9237 0.0000 0.0000
# 5 0.0000 0.0000 0.0000 0.0000 -13.5932 0.0000
# 6 0.0000 0.0000 0.0000 0.0000 0.0000 20.4364
#
#
#
# Elastic Compliance Matrix: (Units=1/GPa)
#
#
# Indices 1 2 3 4 5 6 
#
# 1 0.017601 -0.004317 -0.001808 0.000000 0.000000 0.000000
# 2 -0.004317 0.012751 -0.005458 0.000000 0.000000 0.000000
# 3 -0.001808 -0.005458 0.013344 0.000000 0.000000 0.000000
# 4 0.000000 0.000000 0.000000 0.032338 0.000000 0.000000
# 5 0.000000 0.000000 0.000000 0.000000 -0.073566 0.000000
# 6 0.000000 0.000000 0.000000 0.000000 0.000000 0.048932
#
#
# Mechanical properties :
#
#
# Convention : Reuss Voigt Hill
#
# Bulk Modulus (GPa) = 48.70666 53.76101 51.23384
# Shear Modulus (GPa) = 61.41741 19.00290 40.21015
#
# Velocity S-wave (km/s) = 5.44028 3.02612 4.40193
# Velocity P-wave (km/s) = 7.93307 6.17389 7.10811
#
# Compressibility (1/GPa) = 0.02053107
#
# Stress axis : x y z
#
# Youngs Moduli (GPa) = 56.81469 78.42253 74.93801
#
# Poissons Ratio (x) = 0.33852 0.13549
# Poissons Ratio (y) = 0.24524 0.40903
# Poissons Ratio (z) = 0.10273 0.42805
#
# Static dielectric constant tensor:
#      x y z
#    x 1.801540 0.000000 0.000000 
#    y 0.000000 1.378090 0.000000 
#    z 0.000000 0.000000 1.342980 
# 
# From -- ./inp_files/15757.got.cif
#   From: 2010.05.17/outbox.cif.g08.bks.cpg/sg68_8_cif.got.tgz:15757.got - 2010.06.03 18:57:09.
