data_PCOD9510574
_publ_section_title
;
Structure prediction by ZEFSAII (Michael W. Deem and Ramdas Pophale) SiO2 
 PCOD9510574
Probable space group: C C C A
;
_chemical_formula_sum "Si O2"
_cell_formula_units_Z 48
_cell_length_a 17.643474
_cell_length_b 7.369286
_cell_length_c 17.895636
_cell_angle_alpha 90.000000
_cell_angle_beta 90.000000
_cell_angle_gamma 90.000000
_cell_volume 2326.787120
_symmetry_space_group_name_H-M "C C C A"
_symmetry_group_IT_number 68
_space_group.IT_coordinate_system_code '2'
_symmetry_cell_setting 'orthorhombic'
loop_
_space_group_symop_operation_xyz
x,y,z
-x,1/2-y,z
x,1/2-y,1/2-z
-x,y,1/2-z
-x,-y,-z
x,1/2+y,-z
-x,1/2+y,1/2+z
x,-y,1/2+z
1/2+x,1/2+y,z
1/2-x,-y,z
1/2+x,-y,1/2-z
1/2-x,1/2+y,1/2-z
1/2-x,1/2-y,-z
1/2+x,y,-z
1/2-x,y,1/2+z
1/2+x,1/2-y,1/2+z
loop_
_atom_site_type_symbol
_atom_site_label
_atom_site_fract_x
_atom_site_fract_y
_atom_site_fract_z
Si Si1 0.163141 0.036163 0.439776
Si Si2 0.914984 0.809615 0.835366
Si Si3 0.084573 0.675166 0.411367
O O1 0.134665 0.853349 0.400243
O O2 0.250000 0.000000 0.460134
O O3 0.146327 0.204936 0.385671
O O4 0.114103 0.075487 0.513805
O O5 0.906865 0.750000 0.750000
O O6 0.000000 0.750000 0.860661
O O7 0.910677 0.024628 0.847262
O O8 0.000000 0.750000 0.420894
#
# Coordination Sequence:
#
# PCOD9510574 Si02
#       3
#    16  16  16
#     4  12  25  42  68 106 135 174 224 281 337 394
#     4  11  25  46  67  97 135 177 231 279 329 404
#     4  12  23  42  74  98 132 179 227 275 331 399
#
# _framework density 20.629304999999999
#
# number of rings (size 3 to 8) (size 9 to 14) (size 15 to 20)
#    0.000    0.333    6.667    3.000    0.000    1.333 
#    6.000    0.000    0.000    0.000    0.000    0.000 
#    0.000    0.000    0.000    0.000    0.000    0.000 
#
# Total GULP energy -134268.071277 kJ/mol
# GULP energy per Si atom -5594.502970 kJ/mol
# Density = 2.058235 g / cm^3
# Si number density = 20.629305 Si / 1000 Ang^3
#
#
#
# Elastic Constant Matrix: (Units=GPa)
#
#
# Indices 1 2 3 4 5 6 
#
# 1 81.9298 56.8348 44.7421 0.0000 0.0000 0.0000
# 2 56.8348 156.5873 29.0681 0.0000 0.0000 0.0000
# 3 44.7421 29.0681 78.0585 0.0000 0.0000 0.0000
# 4 0.0000 0.0000 0.0000 -4.0284 0.0000 0.0000
# 5 0.0000 0.0000 0.0000 0.0000 5.5572 0.0000
# 6 0.0000 0.0000 0.0000 0.0000 0.0000 24.1798
#
#
#
# Elastic Compliance Matrix: (Units=1/GPa)
#
#
# Indices 1 2 3 4 5 6 
#
# 1 0.022118 -0.006096 -0.010408 0.000000 0.000000 0.000000
# 2 -0.006096 0.008541 0.000314 0.000000 0.000000 0.000000
# 3 -0.010408 0.000314 0.018660 0.000000 0.000000 0.000000
# 4 0.000000 0.000000 0.000000 -0.248238 0.000000 0.000000
# 5 0.000000 0.000000 0.000000 0.000000 0.179947 0.000000
# 6 0.000000 0.000000 0.000000 0.000000 0.000000 0.041357
#
#
# Mechanical properties :
#
#
# Convention : Reuss Voigt Hill
#
# Bulk Modulus (GPa) = 59.03758 64.20729 61.62244
# Shear Modulus (GPa) = 82.76681 17.53709 50.15195
#
# Velocity S-wave (km/s) = 6.34098 2.91882 4.93597
# Velocity P-wave (km/s) = 9.07145 6.52313 7.90071
#
# Compressibility (1/GPa) = 0.01693836
#
# Stress axis : x y z
#
# Youngs Moduli (GPa) = 45.21217 117.08855 53.59162
#
# Poissons Ratio (x) = 0.71376 0.55776
# Poissons Ratio (y) = 0.27561 -0.01681
# Poissons Ratio (z) = 0.47055 -0.03673
#
# Static dielectric constant tensor:
#      x y z
#    x 1.761920 0.000000 0.000000 
#    y 0.000000 1.732570 0.000000 
#    z 0.000000 0.000000 1.713880 
# 
# From -- ./inp_files/27399.got.cif
#   From: 2010.05.17/outbox.cif.g08.bks.cpg/sg68_14_cif.got.tgz:27399.got - 2010.06.03 18:57:09.
