data_PCOD9510225
_publ_section_title
;
Structure prediction by ZEFSAII (Michael W. Deem and Ramdas Pophale) SiO2 
 PCOD9510225
Probable space group: C C C A
;
_chemical_formula_sum "Si O2"
_cell_formula_units_Z 68
_cell_length_a 17.657381
_cell_length_b 9.003899
_cell_length_c 20.088077
_cell_angle_alpha 90.000000
_cell_angle_beta 90.000000
_cell_angle_gamma 90.000000
_cell_volume 3193.708449
_symmetry_space_group_name_H-M "C C C A"
_symmetry_group_IT_number 68
_space_group.IT_coordinate_system_code '2'
_symmetry_cell_setting 'orthorhombic'
loop_
_space_group_symop_operation_xyz
x,y,z
-x,1/2-y,z
x,1/2-y,1/2-z
-x,y,1/2-z
-x,-y,-z
x,1/2+y,-z
-x,1/2+y,1/2+z
x,-y,1/2+z
1/2+x,1/2+y,z
1/2-x,-y,z
1/2+x,-y,1/2-z
1/2-x,1/2+y,1/2-z
1/2-x,1/2-y,-z
1/2+x,y,-z
1/2-x,y,1/2+z
1/2+x,1/2-y,1/2+z
loop_
_atom_site_type_symbol
_atom_site_label
_atom_site_fract_x
_atom_site_fract_y
_atom_site_fract_z
Si Si1 0.750000 0.000000 0.345803
Si Si2 0.371821 0.452010 0.118617
Si Si3 0.777098 0.783218 0.574519
Si Si4 0.000000 0.750000 0.136657
Si Si5 0.500000 0.250000 0.750000
Si Si6 0.902674 0.021199 0.775489
O O1 0.712515 0.873642 0.390614
O O2 0.681529 0.050429 0.300308
O O3 0.294758 0.358145 0.111386
O O4 0.348196 0.605788 0.082746
O O5 0.442222 0.351708 0.094190
O O6 0.394231 0.476761 0.195576
O O7 0.750000 0.750000 0.500000
O O8 0.951188 0.643937 0.185353
O O9 0.444146 0.363017 0.789158
#
# Coordination Sequence:
#
# PCOD9510225 Si02
#       6
#     8  16  16   8   4  16
#     4  12  24  38  66 100 132 170 244 284 342 424
#     4  11  22  43  70  94 139 179 226 284 358 425
#     4  11  25  44  67  93 133 190 241 288 335 404
#     4  12  23  44  70 103 145 182 214 281 384 437
#     4  12  24  38  60 106 154 164 216 280 368 444
#     4  12  24  40  67 107 138 179 215 289 370 425
#
# _framework density 21.291861000000001
#
# number of rings (size 3 to 8) (size 9 to 14) (size 15 to 20)
#    0.000    0.471    4.706    5.647    0.000    1.882 
#    0.000    1.176    0.000    0.000    0.000    0.000 
#    0.000    0.000    0.000    0.000    0.000    0.000 
#
# Total GULP energy -189702.633735 kJ/mol
# GULP energy per Si atom -5579.489227 kJ/mol
# Density = 2.124340 g / cm^3
# Si number density = 21.291861 Si / 1000 Ang^3
#
#
#
# Elastic Constant Matrix: (Units=GPa)
#
#
# Indices 1 2 3 4 5 6 
#
# 1 144.1515 46.2200 27.1253 0.0000 0.0000 0.0000
# 2 46.2200 133.1077 19.0179 0.0000 0.0000 0.0000
# 3 27.1253 19.0179 55.5308 0.0000 0.0000 0.0000
# 4 0.0000 0.0000 0.0000 -3.3582 0.0000 0.0000
# 5 0.0000 0.0000 0.0000 0.0000 -22.2315 0.0000
# 6 0.0000 0.0000 0.0000 0.0000 0.0000 61.9122
#
#
#
# Elastic Compliance Matrix: (Units=1/GPa)
#
#
# Indices 1 2 3 4 5 6 
#
# 1 0.008324 -0.002428 -0.003235 0.000000 0.000000 0.000000
# 2 -0.002428 0.008608 -0.001762 0.000000 0.000000 0.000000
# 3 -0.003235 -0.001762 0.020191 0.000000 0.000000 0.000000
# 4 0.000000 0.000000 0.000000 -0.297783 0.000000 0.000000
# 5 0.000000 0.000000 0.000000 0.000000 -0.044981 0.000000
# 6 0.000000 0.000000 0.000000 0.000000 0.000000 0.016152
#
#
# Mechanical properties :
#
#
# Convention : Reuss Voigt Hill
#
# Bulk Modulus (GPa) = 44.89524 57.50180 51.19852
# Shear Modulus (GPa) = -18.71155 23.29297 2.29071
#
# Velocity S-wave (km/s) = -2.96769 3.31113 1.03836
# Velocity P-wave (km/s) = 3.06406 6.45625 5.05330
#
# Compressibility (1/GPa) = 0.02227408
#
# Stress axis : x y z
#
# Youngs Moduli (GPa) = 120.12816 116.17566 49.52607
#
# Poissons Ratio (x) = 0.28212 0.16020
# Poissons Ratio (y) = 0.29172 0.08725
# Poissons Ratio (z) = 0.38857 0.20467
#
# Static dielectric constant tensor:
#      x y z
#    x 1.837590 0.000000 0.000000 
#    y 0.000000 1.863360 0.000000 
#    z 0.000000 0.000000 1.759140 
# 
# From -- ./inp_files/32623.got.cif
#   From: 2010.05.17/outbox.cif.g08.bks.cpg/sg68_17_cif.got.tgz:32623.got - 2010.06.03 18:57:09.
