data_PCOD9510063
_publ_section_title
;
Structure prediction by ZEFSAII (Michael W. Deem and Ramdas Pophale) SiO2 
 PCOD9510063
Probable space group: C C C A
;
_chemical_formula_sum "Si O2"
_cell_formula_units_Z 72
_cell_length_a 15.095651
_cell_length_b 8.081360
_cell_length_c 25.025036
_cell_angle_alpha 90.000000
_cell_angle_beta 90.000000
_cell_angle_gamma 90.000000
_cell_volume 3052.888981
_symmetry_space_group_name_H-M "C C C A"
_symmetry_group_IT_number 68
_space_group.IT_coordinate_system_code '2'
_symmetry_cell_setting 'orthorhombic'
loop_
_space_group_symop_operation_xyz
x,y,z
-x,1/2-y,z
x,1/2-y,1/2-z
-x,y,1/2-z
-x,-y,-z
x,1/2+y,-z
-x,1/2+y,1/2+z
x,-y,1/2+z
1/2+x,1/2+y,z
1/2-x,-y,z
1/2+x,-y,1/2-z
1/2-x,1/2+y,1/2-z
1/2-x,1/2-y,-z
1/2+x,y,-z
1/2-x,y,1/2+z
1/2+x,1/2-y,1/2+z
loop_
_atom_site_type_symbol
_atom_site_label
_atom_site_fract_x
_atom_site_fract_y
_atom_site_fract_z
Si Si1 0.500000 0.750000 0.427167
Si Si2 0.466352 0.593931 0.865137
Si Si3 0.800821 0.824357 0.550378
Si Si4 0.341444 0.250000 0.750000
Si Si5 0.000000 0.998170 0.750000
Si Si6 0.267195 0.180379 0.157927
O O1 0.474937 0.585833 0.392213
O O2 0.591702 0.689162 0.456227
O O3 0.500000 0.750000 0.899931
O O4 0.515590 0.581794 0.807458
O O5 0.369266 0.662942 0.853477
O O6 0.750000 0.750000 0.500000
O O7 0.780846 0.714139 0.602345
O O8 0.750000 0.000000 0.560402
O O9 0.412011 0.393439 0.762364
O O10 0.278009 0.202581 0.798890
O O11 0.250000 0.000000 0.181664
#
# Coordination Sequence:
#
# PCOD9510063 Si02
#       6
#     8  16  16   8   8  16
#     4  12  26  53  80 108 158 201 250 336 404 456
#     4  12  26  44  74 109 149 203 259 315 382 471
#     4  12  28  52  82 114 151 202 261 325 399 478
#     4  11  24  40  73 102 150 206 241 312 382 445
#     4  11  21  40  62 105 149 194 255 297 378 457
#     4  12  24  46  71 106 151 196 255 315 379 458
#
# _framework density 23.584218
#
# number of rings (size 3 to 8) (size 9 to 14) (size 15 to 20)
#    0.000    0.222    4.444    5.000    3.111    1.778 
#    2.000    0.000    0.000    0.000    0.000    0.000 
#    0.000    0.000    0.000    0.000    0.000    0.000 
#
# Total GULP energy -200601.272332 kJ/mol
# GULP energy per Si atom -5572.257565 kJ/mol
# Density = 2.353054 g / cm^3
# Si number density = 23.584218 Si / 1000 Ang^3
#
#
#
# Elastic Constant Matrix: (Units=GPa)
#
#
# Indices 1 2 3 4 5 6 
#
# 1 208.1468 48.2640 43.9451 0.0000 0.0000 0.0000
# 2 48.2640 133.0482 8.5972 0.0000 0.0000 0.0000
# 3 43.9451 8.5972 101.7203 0.0000 0.0000 0.0000
# 4 0.0000 0.0000 0.0000 -33.2684 0.0000 0.0000
# 5 0.0000 0.0000 0.0000 0.0000 402.4996 0.0000
# 6 0.0000 0.0000 0.0000 0.0000 0.0000 15.8202
#
#
#
# Elastic Compliance Matrix: (Units=1/GPa)
#
#
# Indices 1 2 3 4 5 6 
#
# 1 0.005742 -0.001933 -0.002317 0.000000 0.000000 0.000000
# 2 -0.001933 0.008208 0.000141 0.000000 0.000000 0.000000
# 3 -0.002317 0.000141 0.010820 0.000000 0.000000 0.000000
# 4 0.000000 0.000000 0.000000 -0.030059 0.000000 0.000000
# 5 0.000000 0.000000 0.000000 0.000000 0.002484 0.000000
# 6 0.000000 0.000000 0.000000 0.000000 0.000000 0.063210
#
#
# Mechanical properties :
#
#
# Convention : Reuss Voigt Hill
#
# Bulk Modulus (GPa) = 60.41507 71.61422 66.01465
# Shear Modulus (GPa) = 67.43881 99.81755 83.62818
#
# Velocity S-wave (km/s) = 5.35322 6.51274 5.96124
# Velocity P-wave (km/s) = 7.99260 9.32661 8.68525
#
# Compressibility (1/GPa) = 0.01655216
#
# Stress axis : x y z
#
# Youngs Moduli (GPa) = 174.16273 121.82961 92.42153
#
# Poissons Ratio (x) = 0.23551 0.21416
# Poissons Ratio (y) = 0.33668 -0.01307
# Poissons Ratio (z) = 0.40356 -0.01723
#
# Static dielectric constant tensor:
#      x y z
#    x 1.785940 0.000000 0.000000 
#    y 0.000000 2.036690 0.000000 
#    z 0.000000 0.000000 1.882380 
# 
# From -- ./inp_files/50776.got.cif
#   From: 2010.05.17/outbox.cif.g08.bks.cpg/sg68_26_cif.got.tgz:50776.got - 2010.06.03 18:57:09.
