data_PCOD9510189
_publ_section_title
;
Structure prediction by ZEFSAII (Michael W. Deem and Ramdas Pophale) SiO2 
 PCOD9510189
Probable space group: C C C A
;
_chemical_formula_sum "Si O2"
_cell_formula_units_Z 88
_cell_length_a 19.125739
_cell_length_b 8.475134
_cell_length_c 24.103700
_cell_angle_alpha 90.000000
_cell_angle_beta 90.000000
_cell_angle_gamma 90.000000
_cell_volume 3907.045886
_symmetry_space_group_name_H-M "C C C A"
_symmetry_group_IT_number 68
_space_group.IT_coordinate_system_code '2'
_symmetry_cell_setting 'orthorhombic'
loop_
_space_group_symop_operation_xyz
x,y,z
-x,1/2-y,z
x,1/2-y,1/2-z
-x,y,1/2-z
-x,-y,-z
x,1/2+y,-z
-x,1/2+y,1/2+z
x,-y,1/2+z
1/2+x,1/2+y,z
1/2-x,-y,z
1/2+x,-y,1/2-z
1/2-x,1/2+y,1/2-z
1/2-x,1/2-y,-z
1/2+x,y,-z
1/2-x,y,1/2+z
1/2+x,1/2-y,1/2+z
loop_
_atom_site_type_symbol
_atom_site_label
_atom_site_fract_x
_atom_site_fract_y
_atom_site_fract_z
Si Si1 0.080658 0.443300 0.499895
Si Si2 0.000000 0.250000 0.154394
Si Si3 0.883896 0.750000 0.750000
Si Si4 0.958071 0.412291 0.879492
Si Si5 0.649073 0.407378 0.285632
Si Si6 0.678374 0.809043 0.028360
Si Si7 0.750000 0.500000 0.376594
O O1 0.090061 0.405279 0.565502
O O2 0.110054 0.301077 0.463333
O O3 0.141158 0.568301 0.487289
O O4 0.000000 0.500000 0.500000
O O5 0.933171 0.263198 0.195577
O O6 0.005465 0.414749 0.120661
O O7 0.844382 0.580716 0.756629
O O8 0.923654 0.407864 0.818964
O O9 0.000000 0.250000 0.884878
O O10 0.653997 0.250000 0.250000
O O11 0.703813 0.397341 0.335470
O O12 0.703857 0.887592 0.084883
O O13 0.750000 0.750000 0.000000
#
# Coordination Sequence:
#
# PCOD9510189 Si02
#       7
#    16   8   8  16  16  16   8
#     4  12  26  42  72 111 148 191 252 313 376 456
#     4   9  20  36  66  98 144 184 236 298 373 462
#     4   9  20  40  64 102 136 188 237 304 376 434
#     4  11  22  41  66 105 145 193 240 301 389 451
#     4  11  24  44  70 101 143 187 251 312 365 446
#     4  12  23  49  72 101 150 199 244 306 380 470
#     4  12  26  46  74 100 142 198 256 300 384 472
#
# _framework density 22.523410999999999
#
# number of rings (size 3 to 8) (size 9 to 14) (size 15 to 20)
#    0.000    0.909    3.636    2.727    3.818    1.818 
#    0.000    5.455    0.000    0.000    0.000    0.000 
#    0.000    0.000    0.000    0.000    0.000    0.000 
#
# Total GULP energy -245173.490879 kJ/mol
# GULP energy per Si atom -5572.124793 kJ/mol
# Density = 2.247215 g / cm^3
# Si number density = 22.523411 Si / 1000 Ang^3
#
#
#
# Elastic Constant Matrix: (Units=GPa)
#
#
# Indices 1 2 3 4 5 6 
#
# 1 104.1949 66.9588 46.1832 0.0000 0.0000 0.0000
# 2 66.9588 168.2436 66.1498 0.0000 0.0000 0.0000
# 3 46.1832 66.1498 99.4039 0.0000 0.0000 0.0000
# 4 0.0000 0.0000 0.0000 36.6463 0.0000 0.0000
# 5 0.0000 0.0000 0.0000 0.0000 33.6258 0.0000
# 6 0.0000 0.0000 0.0000 0.0000 0.0000 44.5998
#
#
#
# Elastic Compliance Matrix: (Units=1/GPa)
#
#
# Indices 1 2 3 4 5 6 
#
# 1 0.013855 -0.004040 -0.003748 0.000000 0.000000 0.000000
# 2 -0.004040 0.009228 -0.004264 0.000000 0.000000 0.000000
# 3 -0.003748 -0.004264 0.014639 0.000000 0.000000 0.000000
# 4 0.000000 0.000000 0.000000 0.027288 0.000000 0.000000
# 5 0.000000 0.000000 0.000000 0.000000 0.029739 0.000000
# 6 0.000000 0.000000 0.000000 0.000000 0.000000 0.022422
#
#
# Mechanical properties :
#
#
# Convention : Reuss Voigt Hill
#
# Bulk Modulus (GPa) = 73.43744 81.15845 77.29794
# Shear Modulus (GPa) = 34.28984 35.81110 35.05047
#
# Velocity S-wave (km/s) = 3.90604 3.99174 3.94912
# Velocity P-wave (km/s) = 7.28139 7.57341 7.42883
#
# Compressibility (1/GPa) = 0.01361703
#
# Stress axis : x y z
#
# Youngs Moduli (GPa) = 72.17422 108.36250 68.31076
#
# Poissons Ratio (x) = 0.43783 0.25606
# Poissons Ratio (y) = 0.29162 0.29127
# Poissons Ratio (z) = 0.27054 0.46205
#
# Static dielectric constant tensor:
#      x y z
#    x 1.917580 0.000000 0.000000 
#    y 0.000000 2.160930 0.000000 
#    z 0.000000 0.000000 1.888260 
# 
# From -- ./inp_files/46537.got.cif
#   From: 2010.05.17/outbox.cif.g08.bks.cpg/sg68_24_cif.got.tgz:46537.got - 2010.06.03 18:57:09.
