data_PCOD9510255
_publ_section_title
;
Structure prediction by ZEFSAII (Michael W. Deem and Ramdas Pophale) SiO2 
 PCOD9510255
Probable space group: C C C A
;
_chemical_formula_sum "Si O2"
_cell_formula_units_Z 88
_cell_length_a 14.288971
_cell_length_b 11.114704
_cell_length_c 26.871234
_cell_angle_alpha 90.000000
_cell_angle_beta 90.000000
_cell_angle_gamma 90.000000
_cell_volume 4267.627127
_symmetry_space_group_name_H-M "C C C A"
_symmetry_group_IT_number 68
_space_group.IT_coordinate_system_code '2'
_symmetry_cell_setting 'orthorhombic'
loop_
_space_group_symop_operation_xyz
x,y,z
-x,1/2-y,z
x,1/2-y,1/2-z
-x,y,1/2-z
-x,-y,-z
x,1/2+y,-z
-x,1/2+y,1/2+z
x,-y,1/2+z
1/2+x,1/2+y,z
1/2-x,-y,z
1/2+x,-y,1/2-z
1/2-x,1/2+y,1/2-z
1/2-x,1/2-y,-z
1/2+x,y,-z
1/2-x,y,1/2+z
1/2+x,1/2-y,1/2+z
loop_
_atom_site_type_symbol
_atom_site_label
_atom_site_fract_x
_atom_site_fract_y
_atom_site_fract_z
Si Si1 0.171114 0.257134 0.455660
Si Si2 0.245820 0.128507 0.872540
Si Si3 0.466975 0.384904 0.146089
Si Si4 0.499451 0.435647 0.947393
Si Si5 0.000000 0.485869 0.250000
Si Si6 0.192243 0.878898 0.766855
O O1 0.250000 0.250000 0.500000
O O2 0.234449 0.238791 0.407360
O O3 0.091083 0.151758 0.451330
O O4 0.102108 0.370171 0.449158
O O5 0.144100 0.130386 0.849576
O O6 0.316160 0.125778 0.826628
O O7 0.250000 0.000000 0.900748
O O8 0.500000 0.250000 0.134495
O O9 0.490376 0.476790 0.100603
O O10 0.498753 0.434374 0.199754
O O11 0.500000 0.500000 0.000000
O O12 0.090248 0.401839 0.254137
O O13 0.231973 0.750000 0.750000
O O14 0.250000 0.000000 0.754577
#
# Coordination Sequence:
#
# PCOD9510255 Si02
#       6
#    16  16  16  16   8  16
#     4  11  25  44  75  98 138 184 239 296 360 436
#     4  11  22  48  68  97 139 189 234 295 364 423
#     4  12  27  45  73 104 148 191 242 304 368 433
#     4  11  26  46  69 106 141 183 241 297 366 432
#     4  12  24  46  72 106 141 195 244 298 361 434
#     4  11  25  44  71 103 142 187 241 295 359 430
#
# _framework density 20.620356999999998
#
# number of rings (size 3 to 8) (size 9 to 14) (size 15 to 20)
#    0.000    0.727    5.455    1.636   10.182    0.000 
#    0.000    0.000    0.000    0.000    0.000    0.000 
#    0.000    0.000    0.000    0.000    0.000    0.000 
#
# Total GULP energy -245178.171498 kJ/mol
# GULP energy per Si atom -5572.231170 kJ/mol
# Density = 2.057342 g / cm^3
# Si number density = 20.620357 Si / 1000 Ang^3
#
#
#
# Elastic Constant Matrix: (Units=GPa)
#
#
# Indices 1 2 3 4 5 6 
#
# 1 90.8008 30.6848 47.7802 0.0000 0.0000 0.0000
# 2 30.6848 130.7616 67.7209 0.0000 0.0000 0.0000
# 3 47.7802 67.7209 139.6503 0.0000 0.0000 0.0000
# 4 0.0000 0.0000 0.0000 38.7968 0.0000 0.0000
# 5 0.0000 0.0000 0.0000 0.0000 29.7407 0.0000
# 6 0.0000 0.0000 0.0000 0.0000 0.0000 32.5939
#
#
#
# Elastic Compliance Matrix: (Units=1/GPa)
#
#
# Indices 1 2 3 4 5 6 
#
# 1 0.013536 -0.001039 -0.004128 0.000000 0.000000 0.000000
# 2 -0.001039 0.010292 -0.004635 0.000000 0.000000 0.000000
# 3 -0.004128 -0.004635 0.010821 0.000000 0.000000 0.000000
# 4 0.000000 0.000000 0.000000 0.025775 0.000000 0.000000
# 5 0.000000 0.000000 0.000000 0.000000 0.033624 0.000000
# 6 0.000000 0.000000 0.000000 0.000000 0.000000 0.030681
#
#
# Mechanical properties :
#
#
# Convention : Reuss Voigt Hill
#
# Bulk Modulus (GPa) = 66.46588 72.62048 69.54318
# Shear Modulus (GPa) = 33.47897 34.56140 34.02019
#
# Velocity S-wave (km/s) = 4.03375 4.09844 4.06622
# Velocity P-wave (km/s) = 7.34833 7.59543 7.47290
#
# Compressibility (1/GPa) = 0.01504531
#
# Stress axis : x y z
#
# Youngs Moduli (GPa) = 73.87652 97.16319 92.41428
#
# Poissons Ratio (x) = 0.10093 0.38144
# Poissons Ratio (y) = 0.07674 0.42839
# Poissons Ratio (z) = 0.30493 0.45040
#
# Static dielectric constant tensor:
#      x y z
#    x 1.817190 0.000000 0.000000 
#    y 0.000000 1.693830 0.000000 
#    z 0.000000 0.000000 1.775460 
# 
# From -- ./inp_files/45318.got.cif
#   From: 2010.05.17/outbox.cif.g08.bks.cpg/sg68_23_cif.got.tgz:45318.got - 2010.06.03 18:57:09.
