data_PCOD9510025
_publ_section_title
;
Structure prediction by ZEFSAII (Michael W. Deem and Ramdas Pophale) SiO2 
 PCOD9510025
Probable space group: C C C A
;
_chemical_formula_sum "Si O2"
_cell_formula_units_Z 64
_cell_length_a 16.198127
_cell_length_b 19.489406
_cell_length_c 9.556911
_cell_angle_alpha 90.000000
_cell_angle_beta 90.000000
_cell_angle_gamma 90.000000
_cell_volume 3017.039139
_symmetry_space_group_name_H-M "C C C A"
_symmetry_group_IT_number 68
_space_group.IT_coordinate_system_code '2'
_symmetry_cell_setting 'orthorhombic'
loop_
_space_group_symop_operation_xyz
x,y,z
-x,1/2-y,z
x,1/2-y,1/2-z
-x,y,1/2-z
-x,-y,-z
x,1/2+y,-z
-x,1/2+y,1/2+z
x,-y,1/2+z
1/2+x,1/2+y,z
1/2-x,-y,z
1/2+x,-y,1/2-z
1/2-x,1/2+y,1/2-z
1/2-x,1/2-y,-z
1/2+x,y,-z
1/2-x,y,1/2+z
1/2+x,1/2-y,1/2+z
loop_
_atom_site_type_symbol
_atom_site_label
_atom_site_fract_x
_atom_site_fract_y
_atom_site_fract_z
Si Si1 0.337527 0.979610 0.675757
Si Si2 0.646316 0.190516 0.054533
Si Si3 0.569997 0.553614 0.952402
Si Si4 0.804922 0.831499 0.371093
O O1 0.402946 0.968862 0.798071
O O2 0.332279 0.907990 0.592959
O O3 0.250000 0.000000 0.741009
O O4 0.359348 0.037372 0.565192
O O5 0.569950 0.137105 0.045253
O O6 0.691476 0.171531 0.202082
O O7 0.634297 0.272157 0.071301
O O8 0.714033 0.182154 0.932233
O O9 0.500000 0.500000 0.000000
#
# Coordination Sequence:
#
# PCOD9510025 Si02
#       4
#    16  16  16  16
#     4  11  21  36  59  87 114 158 207 256 302 370
#     4   9  18  34  54  83 114 148 192 251 299 357
#     4  11  23  37  55  84 125 158 196 253 320 372
#     4   9  18  32  56  84 110 145 200 249 290 349
#
# _framework density 21.212851000000001
#
# number of rings (size 3 to 8) (size 9 to 14) (size 15 to 20)
#    0.000    2.000    2.500    1.500    3.500    0.000 
#    0.000    1.250    0.000    6.000    0.000    3.500 
#    0.000    0.000    0.000    0.000    0.000    0.000 
#
# Total GULP energy -178229.622122 kJ/mol
# GULP energy per Si atom -5569.675691 kJ/mol
# Density = 2.116457 g / cm^3
# Si number density = 21.212851 Si / 1000 Ang^3
#
#
#
# Elastic Constant Matrix: (Units=GPa)
#
#
# Indices 1 2 3 4 5 6 
#
# 1 57.3664 38.0048 12.4739 0.0000 0.0000 0.0000
# 2 38.0048 160.4962 7.8665 0.0000 0.0000 0.0000
# 3 12.4739 7.8665 44.5697 0.0000 0.0000 0.0000
# 4 0.0000 0.0000 0.0000 21.5000 0.0000 0.0000
# 5 0.0000 0.0000 0.0000 0.0000 17.6486 0.0000
# 6 0.0000 0.0000 0.0000 0.0000 0.0000 38.4446
#
#
#
# Elastic Compliance Matrix: (Units=1/GPa)
#
#
# Indices 1 2 3 4 5 6 
#
# 1 0.021825 -0.004911 -0.005241 0.000000 0.000000 0.000000
# 2 -0.004911 0.007390 0.000070 0.000000 0.000000 0.000000
# 3 -0.005241 0.000070 0.023891 0.000000 0.000000 0.000000
# 4 0.000000 0.000000 0.000000 0.046512 0.000000 0.000000
# 5 0.000000 0.000000 0.000000 0.000000 0.056662 0.000000
# 6 0.000000 0.000000 0.000000 0.000000 0.000000 0.026011
#
#
# Mechanical properties :
#
#
# Convention : Reuss Voigt Hill
#
# Bulk Modulus (GPa) = 30.35671 42.12473 36.24072
# Shear Modulus (GPa) = 23.42612 29.12445 26.27529
#
# Velocity S-wave (km/s) = 3.32676 3.70937 3.52326
# Velocity P-wave (km/s) = 5.39426 6.18443 5.80281
#
# Compressibility (1/GPa) = 0.03294164
#
# Stress axis : x y z
#
# Youngs Moduli (GPa) = 45.81870 135.31452 41.85622
#
# Poissons Ratio (x) = 0.66456 0.21939
# Poissons Ratio (y) = 0.22502 -0.00294
# Poissons Ratio (z) = 0.24016 -0.00949
#
# Static dielectric constant tensor:
#      x y z
#    x 1.953200 0.000000 0.000000 
#    y 0.000000 1.874020 0.000000 
#    z 0.000000 0.000000 1.744890 
# 
# From -- ./inp_files/12812.got.cif
#   From: 2010.05.17/outbox.cif.g08.bks.cpg/sg68_7_cif.got.tgz:12812.got - 2010.06.03 18:57:09.
