data_PCOD9510079
_publ_section_title
;
Structure prediction by ZEFSAII (Michael W. Deem and Ramdas Pophale) SiO2 
 PCOD9510079
Probable space group: C C C A
;
_chemical_formula_sum "Si O2"
_cell_formula_units_Z 116
_cell_length_a 16.549007
_cell_length_b 16.354775
_cell_length_c 17.711441
_cell_angle_alpha 90.000000
_cell_angle_beta 90.000000
_cell_angle_gamma 90.000000
_cell_volume 4793.695129
_symmetry_space_group_name_H-M "C C C A"
_symmetry_group_IT_number 68
_space_group.IT_coordinate_system_code '2'
_symmetry_cell_setting 'orthorhombic'
loop_
_space_group_symop_operation_xyz
x,y,z
-x,1/2-y,z
x,1/2-y,1/2-z
-x,y,1/2-z
-x,-y,-z
x,1/2+y,-z
-x,1/2+y,1/2+z
x,-y,1/2+z
1/2+x,1/2+y,z
1/2-x,-y,z
1/2+x,-y,1/2-z
1/2-x,1/2+y,1/2-z
1/2-x,1/2-y,-z
1/2+x,y,-z
1/2-x,y,1/2+z
1/2+x,1/2-y,1/2+z
loop_
_atom_site_type_symbol
_atom_site_label
_atom_site_fract_x
_atom_site_fract_y
_atom_site_fract_z
Si Si1 0.056934 0.950562 0.678610
Si Si2 0.050834 0.832925 0.901022
Si Si3 0.020952 0.116914 0.855932
Si Si4 0.709743 0.883004 0.398377
Si Si5 0.000000 0.250000 0.750000
Si Si6 0.301320 0.709857 0.170986
Si Si7 0.174997 0.131963 0.931024
Si Si8 0.373819 0.823122 0.555392
O O1 0.152323 0.930675 0.661909
O O2 0.000000 0.924866 0.750000
O O3 0.013903 0.903845 0.609264
O O4 0.035859 0.045794 0.674570
O O5 0.108065 0.823965 0.827577
O O6 0.000000 0.750000 0.913500
O O7 0.112750 0.849269 0.969187
O O8 0.051800 0.185890 0.797571
O O9 0.099169 0.083885 0.897418
O O10 0.961450 0.165714 0.909936
O O11 0.689032 0.788142 0.383622
O O12 0.693873 0.903100 0.486332
O O13 0.807761 0.876740 0.398819
O O14 0.274225 0.750000 0.250000
O O15 0.243168 0.642891 0.133294
O O16 0.150778 0.227873 0.943273
#
# Coordination Sequence:
#
# PCOD9510079 Si02
#       8
#    16  16  16  16   4  16  16  16
#     4  12  27  45  66 103 147 181 242 301 372 448
#     4  12  22  40  70 104 143 194 240 291 362 443
#     4  12  26  43  73 101 128 185 239 304 365 430
#     4  11  22  43  68 100 145 185 230 303 356 436
#     4  12  24  48  68  92 130 176 236 284 364 424
#     4  11  22  37  66 109 144 189 244 297 359 431
#     4  11  21  42  70 104 136 183 248 303 350 435
#     4  11  21  41  70 100 133 181 243 291 352 434
#
# _framework density 24.198452
#
# number of rings (size 3 to 8) (size 9 to 14) (size 15 to 20)
#    0.000    0.552    6.207    3.310    0.966    2.759 
#    0.000    0.690    3.034    0.000    0.000    0.000 
#    0.000    0.000    0.000    0.000    0.000    0.000 
#
# Total GULP energy -323394.028146 kJ/mol
# GULP energy per Si atom -5575.759106 kJ/mol
# Density = 2.414337 g / cm^3
# Si number density = 24.198452 Si / 1000 Ang^3
#
#
#
# Elastic Constant Matrix: (Units=GPa)
#
#
# Indices 1 2 3 4 5 6 
#
# 1 127.5660 12.9788 35.9718 0.0000 0.0000 0.0000
# 2 12.9788 53.4074 7.8039 0.0000 0.0000 0.0000
# 3 35.9718 7.8039 79.4842 0.0000 0.0000 0.0000
# 4 0.0000 0.0000 0.0000 6.6852 0.0000 0.0000
# 5 0.0000 0.0000 0.0000 0.0000 4.8157 0.0000
# 6 0.0000 0.0000 0.0000 0.0000 0.0000 24.2494
#
#
#
# Elastic Compliance Matrix: (Units=1/GPa)
#
#
# Indices 1 2 3 4 5 6 
#
# 1 0.009125 -0.001638 -0.003969 0.000000 0.000000 0.000000
# 2 -0.001638 0.019290 -0.001153 0.000000 0.000000 0.000000
# 3 -0.003969 -0.001153 0.014490 0.000000 0.000000 0.000000
# 4 0.000000 0.000000 0.000000 0.149584 0.000000 0.000000
# 5 0.000000 0.000000 0.000000 0.000000 0.207654 0.000000
# 6 0.000000 0.000000 0.000000 0.000000 0.000000 0.041238
#
#
# Mechanical properties :
#
#
# Convention : Reuss Voigt Hill
#
# Bulk Modulus (GPa) = 34.02838 41.55185 37.79012
# Shear Modulus (GPa) = 10.75972 20.73027 15.74499
#
# Velocity S-wave (km/s) = 2.11095 2.93008 2.55357
# Velocity P-wave (km/s) = 4.47596 5.35310 4.93406
#
# Compressibility (1/GPa) = 0.02938723
#
# Stress axis : x y z
#
# Youngs Moduli (GPa) = 109.59104 51.83930 69.01098
#
# Poissons Ratio (x) = 0.08489 0.27389
# Poissons Ratio (y) = 0.17946 0.07956
# Poissons Ratio (z) = 0.43495 0.05976
#
# Static dielectric constant tensor:
#      x y z
#    x 1.983140 0.000000 0.000000 
#    y 0.000000 1.909720 0.000000 
#    z 0.000000 0.000000 2.131070 
# 
# From -- ./inp_files/32150.got.cif
#   From: 2010.05.17/outbox.cif.g08.bks.cpg/sg68_17_cif.got.tgz:32150.got - 2010.06.03 18:57:09.
