data_PCOD9510630
_publ_section_title
;
Structure prediction by ZEFSAII (Michael W. Deem and Ramdas Pophale) SiO2 
 PCOD9510630
Probable space group: C C C A
;
_chemical_formula_sum "Si O2"
_cell_formula_units_Z 88
_cell_length_a 13.073637
_cell_length_b 23.213309
_cell_length_c 13.423175
_cell_angle_alpha 90.000000
_cell_angle_beta 90.000000
_cell_angle_gamma 90.000000
_cell_volume 4073.697035
_symmetry_space_group_name_H-M "C C C A"
_symmetry_group_IT_number 68
_space_group.IT_coordinate_system_code '2'
_symmetry_cell_setting 'orthorhombic'
loop_
_space_group_symop_operation_xyz
x,y,z
-x,1/2-y,z
x,1/2-y,1/2-z
-x,y,1/2-z
-x,-y,-z
x,1/2+y,-z
-x,1/2+y,1/2+z
x,-y,1/2+z
1/2+x,1/2+y,z
1/2-x,-y,z
1/2+x,-y,1/2-z
1/2-x,1/2+y,1/2-z
1/2-x,1/2-y,-z
1/2+x,y,-z
1/2-x,y,1/2+z
1/2+x,1/2-y,1/2+z
loop_
_atom_site_type_symbol
_atom_site_label
_atom_site_fract_x
_atom_site_fract_y
_atom_site_fract_z
Si Si1 0.340606 0.881787 0.713736
Si Si2 0.963091 0.638191 0.402395
Si Si3 0.000000 0.386768 0.250000
Si Si4 0.057338 0.547439 0.935993
Si Si5 0.168503 0.700772 0.826282
Si Si6 0.250000 0.500000 0.316984
Si Si7 0.500000 0.750000 0.022506
O O1 0.441404 0.894087 0.648642
O O2 0.380955 0.852050 0.815036
O O3 0.265957 0.839492 0.652105
O O4 0.288097 0.942838 0.739705
O O5 0.916895 0.599862 0.490203
O O6 0.009602 0.695158 0.451318
O O7 0.011462 0.426449 0.153068
O O8 0.906275 0.344348 0.229110
O O9 0.157324 0.521950 0.884940
O O10 0.000000 0.500000 0.000000
O O11 0.201420 0.750000 0.750000
O O12 0.098214 0.732637 0.909250
#
# Coordination Sequence:
#
# PCOD9510630 Si02
#       7
#    16  16   8  16  16   8   8
#     4  11  27  45  70 104 146 188 241 293 368 435
#     4  11  26  47  69 105 146 188 234 302 365 430
#     4  12  23  46  70 102 142 183 240 296 366 428
#     4  12  26  44  73 105 142 186 240 302 362 433
#     4  12  23  45  72 102 135 187 242 297 353 426
#     4  12  24  46  70 102 138 188 246 288 364 432
#     4  12  23  47  72 100 148 186 244 296 364 438
#
# _framework density 21.601998999999999
#
# number of rings (size 3 to 8) (size 9 to 14) (size 15 to 20)
#    0.000    0.364    7.273    0.000    5.091    3.636 
#    6.545    0.000    0.000    0.000    0.000    0.000 
#    0.000    0.000    0.000    0.000    0.000    0.000 
#
# Total GULP energy -245808.833056 kJ/mol
# GULP energy per Si atom -5586.564388 kJ/mol
# Density = 2.155283 g / cm^3
# Si number density = 21.601999 Si / 1000 Ang^3
#
#
#
# Elastic Constant Matrix: (Units=GPa)
#
#
# Indices 1 2 3 4 5 6 
#
# 1 90.4603 30.1858 24.1551 0.0000 0.0000 0.0000
# 2 30.1858 125.7532 36.8228 0.0000 0.0000 0.0000
# 3 24.1551 36.8228 93.4292 0.0000 0.0000 0.0000
# 4 0.0000 0.0000 0.0000 25.5283 0.0000 0.0000
# 5 0.0000 0.0000 0.0000 0.0000 4.1174 0.0000
# 6 0.0000 0.0000 0.0000 0.0000 0.0000 32.0368
#
#
#
# Elastic Compliance Matrix: (Units=1/GPa)
#
#
# Indices 1 2 3 4 5 6 
#
# 1 0.012442 -0.002311 -0.002306 0.000000 0.000000 0.000000
# 2 -0.002311 0.009419 -0.003115 0.000000 0.000000 0.000000
# 3 -0.002306 -0.003115 0.012527 0.000000 0.000000 0.000000
# 4 0.000000 0.000000 0.000000 0.039172 0.000000 0.000000
# 5 0.000000 0.000000 0.000000 0.000000 0.242871 0.000000
# 6 0.000000 0.000000 0.000000 0.000000 0.000000 0.031214
#
#
# Mechanical properties :
#
#
# Convention : Reuss Voigt Hill
#
# Bulk Modulus (GPa) = 52.84272 54.66335 53.75303
# Shear Modulus (GPa) = 13.53487 26.90178 20.21832
#
# Velocity S-wave (km/s) = 2.50583 3.53276 3.06264
# Velocity P-wave (km/s) = 5.73474 6.48076 6.11913
#
# Compressibility (1/GPa) = 0.01892408
#
# Stress axis : x y z
#
# Youngs Moduli (GPa) = 80.37613 106.16919 79.82779
#
# Poissons Ratio (x) = 0.24539 0.18406
# Poissons Ratio (y) = 0.18578 0.24864
# Poissons Ratio (z) = 0.18532 0.33068
#
# Static dielectric constant tensor:
#      x y z
#    x 1.800210 0.000000 0.000000 
#    y 0.000000 1.810170 0.000000 
#    z 0.000000 0.000000 1.777790 
# 
# From -- ./inp_files/22303.got.cif
#   From: 2010.05.17/outbox.cif.g08.bks.cpg/sg68_12_cif.got.tgz:22303.got - 2010.06.03 18:57:09.
