data_PCOD9510391
_publ_section_title
;
Structure prediction by ZEFSAII (Michael W. Deem and Ramdas Pophale) SiO2 
 PCOD9510391
Probable space group: C C C A
;
_chemical_formula_sum "Si O2"
_cell_formula_units_Z 56
_cell_length_a 16.826448
_cell_length_b 9.613244
_cell_length_c 14.529269
_cell_angle_alpha 90.000000
_cell_angle_beta 90.000000
_cell_angle_gamma 90.000000
_cell_volume 2350.207337
_symmetry_space_group_name_H-M "C C C A"
_symmetry_group_IT_number 68
_space_group.IT_coordinate_system_code '2'
_symmetry_cell_setting 'orthorhombic'
loop_
_space_group_symop_operation_xyz
x,y,z
-x,1/2-y,z
x,1/2-y,1/2-z
-x,y,1/2-z
-x,-y,-z
x,1/2+y,-z
-x,1/2+y,1/2+z
x,-y,1/2+z
1/2+x,1/2+y,z
1/2-x,-y,z
1/2+x,-y,1/2-z
1/2-x,1/2+y,1/2-z
1/2-x,1/2-y,-z
1/2+x,y,-z
1/2-x,y,1/2+z
1/2+x,1/2-y,1/2+z
loop_
_atom_site_type_symbol
_atom_site_label
_atom_site_fract_x
_atom_site_fract_y
_atom_site_fract_z
Si Si1 0.785760 0.794493 0.353825
Si Si2 0.564849 0.625945 0.915030
Si Si3 0.500000 0.435319 0.750000
Si Si4 0.127360 0.414106 0.390659
O O1 0.768049 0.750000 0.250000
O O2 0.848472 0.686365 0.392356
O O3 0.701083 0.809787 0.403466
O O4 0.832056 0.941921 0.358689
O O5 0.500000 0.750000 0.920530
O O6 0.541055 0.530150 0.829040
O O7 0.578514 0.561495 0.015946
O O8 0.567573 0.363561 0.688283
#
# Coordination Sequence:
#
# PCOD9510391 Si02
#       4
#    16  16   8  16
#     4  11  23  48  68 101 143 189 231 295 364 419
#     4  12  23  44  74  98 140 189 234 289 360 427
#     4  12  23  46  71 102 140 182 235 292 349 430
#     4  11  26  42  71 107 135 180 247 289 351 423
#
# _framework density 23.827684999999999
#
# number of rings (size 3 to 8) (size 9 to 14) (size 15 to 20)
#    0.000    0.571    5.714    2.143    0.000    2.286 
#   10.286    0.000    0.000    0.000    0.000    0.000 
#    0.000    0.000    0.000    0.000    0.000    0.000 
#
# Total GULP energy -156709.835778 kJ/mol
# GULP energy per Si atom -5596.779849 kJ/mol
# Density = 2.377345 g / cm^3
# Si number density = 23.827685 Si / 1000 Ang^3
#
#
#
# Elastic Constant Matrix: (Units=GPa)
#
#
# Indices 1 2 3 4 5 6 
#
# 1 181.5263 22.7165 67.5627 0.0000 0.0000 0.0000
# 2 22.7165 25.7335 20.8650 0.0000 0.0000 0.0000
# 3 67.5627 20.8650 170.9154 0.0000 0.0000 0.0000
# 4 0.0000 0.0000 0.0000 52.5611 0.0000 0.0000
# 5 0.0000 0.0000 0.0000 0.0000 205.8190 0.0000
# 6 0.0000 0.0000 0.0000 0.0000 0.0000 22.4583
#
#
#
# Elastic Compliance Matrix: (Units=1/GPa)
#
#
# Indices 1 2 3 4 5 6 
#
# 1 0.006859 -0.004280 -0.002189 0.000000 0.000000 0.000000
# 2 -0.004280 0.045800 -0.003899 0.000000 0.000000 0.000000
# 3 -0.002189 -0.003899 0.007192 0.000000 0.000000 0.000000
# 4 0.000000 0.000000 0.000000 0.019025 0.000000 0.000000
# 5 0.000000 0.000000 0.000000 0.000000 0.004859 0.000000
# 6 0.000000 0.000000 0.000000 0.000000 0.000000 0.044527
#
#
# Mechanical properties :
#
#
# Convention : Reuss Voigt Hill
#
# Bulk Modulus (GPa) = 25.56600 66.71817 46.14209
# Shear Modulus (GPa) = 30.85720 73.96975 52.41348
#
# Velocity S-wave (km/s) = 3.60253 5.57772 4.69517
# Velocity P-wave (km/s) = 5.29690 8.33921 6.98568
#
# Compressibility (1/GPa) = 0.03911445
#
# Stress axis : x y z
#
# Youngs Moduli (GPa) = 145.79027 21.83419 139.04099
#
# Poissons Ratio (x) = 0.09345 0.30435
# Poissons Ratio (y) = 0.62401 0.54215
# Poissons Ratio (z) = 0.31912 0.08514
#
# Static dielectric constant tensor:
#      x y z
#    x 1.911600 0.000000 0.000000 
#    y 0.000000 2.018230 0.000000 
#    z 0.000000 0.000000 1.858380 
# 
# From -- ./inp_files/20163.got.cif
#   From: 2010.05.17/outbox.cif.g08.bks.cpg/sg68_11_cif.got.tgz:20163.got - 2010.06.03 18:57:09.
