data_PCOD9510351
_publ_section_title
;
Structure prediction by ZEFSAII (Michael W. Deem and Ramdas Pophale) SiO2 
 PCOD9510351
Probable space group: C C C A
;
_chemical_formula_sum "Si O2"
_cell_formula_units_Z 88
_cell_length_a 11.249649
_cell_length_b 22.898336
_cell_length_c 14.308766
_cell_angle_alpha 90.000000
_cell_angle_beta 90.000000
_cell_angle_gamma 90.000000
_cell_volume 3685.912977
_symmetry_space_group_name_H-M "C C C A"
_symmetry_group_IT_number 68
_space_group.IT_coordinate_system_code '2'
_symmetry_cell_setting 'orthorhombic'
loop_
_space_group_symop_operation_xyz
x,y,z
-x,1/2-y,z
x,1/2-y,1/2-z
-x,y,1/2-z
-x,-y,-z
x,1/2+y,-z
-x,1/2+y,1/2+z
x,-y,1/2+z
1/2+x,1/2+y,z
1/2-x,-y,z
1/2+x,-y,1/2-z
1/2-x,1/2+y,1/2-z
1/2-x,1/2-y,-z
1/2+x,y,-z
1/2-x,y,1/2+z
1/2+x,1/2-y,1/2+z
loop_
_atom_site_type_symbol
_atom_site_label
_atom_site_fract_x
_atom_site_fract_y
_atom_site_fract_z
Si Si1 0.854806 0.177859 0.453065
Si Si2 0.000000 0.250000 0.913646
Si Si3 0.024948 0.961353 0.139407
Si Si4 0.786993 0.601974 0.381630
Si Si5 0.345071 0.653249 0.821107
Si Si6 0.482132 0.413437 0.640206
O O1 0.779565 0.142266 0.528588
O O2 0.772904 0.182528 0.362721
O O3 0.969271 0.140074 0.420538
O O4 0.897428 0.231978 0.513796
O O5 0.049246 0.302768 0.850258
O O6 0.898953 0.939807 0.100681
O O7 0.000000 0.966180 0.250000
O O8 0.121044 0.909599 0.131960
O O9 0.052086 0.027466 0.111157
O O10 0.821203 0.638018 0.287267
O O11 0.657991 0.574295 0.369008
O O12 0.500000 0.400637 0.750000
#
# Coordination Sequence:
#
# PCOD9510351 Si02
#       6
#    16   8  16  16  16  16
#     4  12  26  45  72 104 140 185 241 302 350 428
#     4  12  26  49  71 104 144 190 251 306 349 420
#     4   9  21  42  71 105 139 186 234 288 358 439
#     4  11  23  44  71 106 138 182 236 283 357 429
#     4  11  24  47  71 103 144 186 242 296 362 420
#     4  11  23  46  73 101 148 186 225 294 370 430
#
# _framework density 23.874682
#
# number of rings (size 3 to 8) (size 9 to 14) (size 15 to 20)
#    0.000    1.091    3.636    2.182    0.000    2.909 
#    3.273    0.455    0.000    0.000    0.000    0.000 
#    0.000    0.000    0.000    0.000    0.000    0.000 
#
# Total GULP energy -245959.375282 kJ/mol
# GULP energy per Si atom -5589.985802 kJ/mol
# Density = 2.382034 g / cm^3
# Si number density = 23.874682 Si / 1000 Ang^3
#
#
#
# Elastic Constant Matrix: (Units=GPa)
#
#
# Indices 1 2 3 4 5 6 
#
# 1 46.4571 -6.1347 18.8334 0.0000 0.0000 0.0000
# 2 -6.1347 75.2548 30.9352 0.0000 0.0000 0.0000
# 3 18.8334 30.9352 115.6979 0.0000 0.0000 0.0000
# 4 0.0000 0.0000 0.0000 22.2766 0.0000 0.0000
# 5 0.0000 0.0000 0.0000 0.0000 40.0075 0.0000
# 6 0.0000 0.0000 0.0000 0.0000 0.0000 19.1456
#
#
#
# Elastic Compliance Matrix: (Units=1/GPa)
#
#
# Indices 1 2 3 4 5 6 
#
# 1 0.024080 0.004016 -0.004993 0.000000 0.000000 0.000000
# 2 0.004016 0.015599 -0.004824 0.000000 0.000000 0.000000
# 3 -0.004993 -0.004824 0.010746 0.000000 0.000000 0.000000
# 4 0.000000 0.000000 0.000000 0.044890 0.000000 0.000000
# 5 0.000000 0.000000 0.000000 0.000000 0.024995 0.000000
# 6 0.000000 0.000000 0.000000 0.000000 0.000000 0.052231
#
#
# Mechanical properties :
#
#
# Convention : Reuss Voigt Hill
#
# Bulk Modulus (GPa) = 25.75988 36.07529 30.91758
# Shear Modulus (GPa) = 25.36965 29.20433 27.28699
#
# Velocity S-wave (km/s) = 3.26332 3.50127 3.38439
# Velocity P-wave (km/s) = 5.00120 5.61144 5.31509
#
# Compressibility (1/GPa) = 0.03882006
#
# Stress axis : x y z
#
# Youngs Moduli (GPa) = 41.52854 64.10780 93.05805
#
# Poissons Ratio (x) = -0.25743 0.46468
# Poissons Ratio (y) = -0.16676 0.44895
# Poissons Ratio (z) = 0.20737 0.30928
#
# Static dielectric constant tensor:
#      x y z
#    x 1.947110 0.000000 0.000000 
#    y 0.000000 1.953110 0.000000 
#    z 0.000000 0.000000 1.878630 
# 
# From -- ./inp_files/20967.got.cif
#   From: 2010.05.17/outbox.cif.g08.bks.cpg/sg68_11_cif.got.tgz:20967.got - 2010.06.03 18:57:09.
