data_PCOD9510314
_publ_section_title
;
Structure prediction by ZEFSAII (Michael W. Deem and Ramdas Pophale) SiO2 
 PCOD9510314
Probable space group: C C C A
;
_chemical_formula_sum "Si O2"
_cell_formula_units_Z 64
_cell_length_a 14.239009
_cell_length_b 14.243019
_cell_length_c 13.289706
_cell_angle_alpha 90.000000
_cell_angle_beta 90.000000
_cell_angle_gamma 90.000000
_cell_volume 2695.238437
_symmetry_space_group_name_H-M "C C C A"
_symmetry_group_IT_number 68
_space_group.IT_coordinate_system_code '2'
_symmetry_cell_setting 'orthorhombic'
loop_
_space_group_symop_operation_xyz
x,y,z
-x,1/2-y,z
x,1/2-y,1/2-z
-x,y,1/2-z
-x,-y,-z
x,1/2+y,-z
-x,1/2+y,1/2+z
x,-y,1/2+z
1/2+x,1/2+y,z
1/2-x,-y,z
1/2+x,-y,1/2-z
1/2-x,1/2+y,1/2-z
1/2-x,1/2-y,-z
1/2+x,y,-z
1/2-x,y,1/2+z
1/2+x,1/2-y,1/2+z
loop_
_atom_site_type_symbol
_atom_site_label
_atom_site_fract_x
_atom_site_fract_y
_atom_site_fract_z
Si Si1 0.317818 0.090587 0.126802
Si Si2 0.156870 0.935521 0.355809
Si Si3 0.643630 0.808264 0.451843
Si Si4 0.944860 0.393280 0.438583
O O1 0.346257 0.098715 0.242022
O O2 0.243816 0.170788 0.096454
O O3 0.250000 0.000000 0.114924
O O4 0.406222 0.086270 0.051977
O O5 0.151003 0.849542 0.433907
O O6 0.250000 0.000000 0.372428
O O7 0.080112 0.015411 0.375776
O O8 0.552601 0.868164 0.418542
O O9 0.613538 0.702954 0.422686
#
# Coordination Sequence:
#
# PCOD9510314 Si02
#       4
#    16  16  16  16
#     4  11  23  42  66 100 134 181 227 277 340 401
#     4  11  23  42  66 100 134 181 227 277 340 401
#     4  11  23  44  72 101 137 179 226 285 344 399
#     4  11  23  44  72 101 137 179 226 285 344 399
#
# _framework density 23.74558
#
# number of rings (size 3 to 8) (size 9 to 14) (size 15 to 20)
#    0.000    1.000    5.000    1.500    0.000    2.000 
#    9.000    2.500    0.000   12.000    0.000    0.000 
#    0.000    0.000    0.000    0.000    0.000    0.000 
#
# Total GULP energy -178809.594809 kJ/mol
# GULP energy per Si atom -5587.799838 kJ/mol
# Density = 2.369153 g / cm^3
# Si number density = 23.745580 Si / 1000 Ang^3
#
#
#
# Elastic Constant Matrix: (Units=GPa)
#
#
# Indices 1 2 3 4 5 6 
#
# 1 80.0292 -4.4756 -14.6013 0.0000 0.0000 0.0000
# 2 -4.4756 91.4400 -3.9033 0.0000 0.0000 0.0000
# 3 -14.6013 -3.9033 96.3063 0.0000 0.0000 0.0000
# 4 0.0000 0.0000 0.0000 -10.1129 0.0000 0.0000
# 5 0.0000 0.0000 0.0000 0.0000 -1.7139 0.0000
# 6 0.0000 0.0000 0.0000 0.0000 0.0000 37.6502
#
#
#
# Elastic Compliance Matrix: (Units=1/GPa)
#
#
# Indices 1 2 3 4 5 6 
#
# 1 0.012898 0.000716 0.001984 0.000000 0.000000 0.000000
# 2 0.000716 0.010995 0.000554 0.000000 0.000000 0.000000
# 3 0.001984 0.000554 0.010707 0.000000 0.000000 0.000000
# 4 0.000000 0.000000 0.000000 -0.098884 0.000000 0.000000
# 5 0.000000 0.000000 0.000000 0.000000 -0.583462 0.000000
# 6 0.000000 0.000000 0.000000 0.000000 0.000000 0.026560
#
#
# Mechanical properties :
#
#
# Convention : Reuss Voigt Hill
#
# Bulk Modulus (GPa) = 24.32589 24.64614 24.48601
# Shear Modulus (GPa) = -8.14341 24.54841 8.20250
#
# Velocity S-wave (km/s) = -1.85388 3.21878 1.86060
# Velocity P-wave (km/s) = 2.38414 4.92096 3.86652
#
# Compressibility (1/GPa) = 0.04110846
#
# Stress axis : x y z
#
# Youngs Moduli (GPa) = 77.53419 90.95181 93.39803
#
# Poissons Ratio (x) = -0.06512 -0.18534
# Poissons Ratio (y) = -0.05551 -0.05176
# Poissons Ratio (z) = -0.15386 -0.05040
#
# Static dielectric constant tensor:
#      x y z
#    x 1.913360 0.000000 0.000000 
#    y 0.000000 1.961570 0.000000 
#    z 0.000000 0.000000 1.902880 
# 
# From -- ./inp_files/21767.got.cif
#   From: 2010.05.17/outbox.cif.g08.bks.cpg/sg68_11_cif.got.tgz:21767.got - 2010.06.03 18:57:09.
