data_PCOD9510494
_publ_section_title
;
Structure prediction by ZEFSAII (Michael W. Deem and Ramdas Pophale) SiO2 
 PCOD9510494
Probable space group: C C C A
;
_chemical_formula_sum "Si O2"
_cell_formula_units_Z 88
_cell_length_a 15.651092
_cell_length_b 11.306344
_cell_length_c 23.346465
_cell_angle_alpha 90.000000
_cell_angle_beta 90.000000
_cell_angle_gamma 90.000000
_cell_volume 4131.311772
_symmetry_space_group_name_H-M "C C C A"
_symmetry_group_IT_number 68
_space_group.IT_coordinate_system_code '2'
_symmetry_cell_setting 'orthorhombic'
loop_
_space_group_symop_operation_xyz
x,y,z
-x,1/2-y,z
x,1/2-y,1/2-z
-x,y,1/2-z
-x,-y,-z
x,1/2+y,-z
-x,1/2+y,1/2+z
x,-y,1/2+z
1/2+x,1/2+y,z
1/2-x,-y,z
1/2+x,-y,1/2-z
1/2-x,1/2+y,1/2-z
1/2-x,1/2-y,-z
1/2+x,y,-z
1/2-x,y,1/2+z
1/2+x,1/2-y,1/2+z
loop_
_atom_site_type_symbol
_atom_site_label
_atom_site_fract_x
_atom_site_fract_y
_atom_site_fract_z
Si Si1 0.090629 0.545454 0.019909
Si Si2 0.922526 0.164872 0.638539
Si Si3 0.174588 0.085653 0.237507
Si Si4 0.837612 0.289545 0.472193
Si Si5 0.500000 0.959677 0.750000
Si Si6 0.724658 0.763080 0.154349
O O1 0.092418 0.571079 0.087941
O O2 0.145551 0.425494 0.008419
O O3 0.105332 0.674963 0.990443
O O4 0.000000 0.500000 0.000000
O O5 0.960170 0.114619 0.697789
O O6 0.827296 0.216895 0.650312
O O7 0.000000 0.250000 0.617634
O O8 0.207663 0.132045 0.176494
O O9 0.177939 0.169734 0.293282
O O10 0.250000 0.000000 0.256406
O O11 0.080470 0.035535 0.229378
O O12 0.750000 0.250000 0.500000
O O13 0.821750 0.292004 0.404375
#
# Coordination Sequence:
#
# PCOD9510494 Si02
#       6
#    16  16  16  16   8  16
#     4  12  28  49  74 111 150 196 257 320 382 461
#     4  12  25  45  73 106 147 199 252 317 382 471
#     4  11  24  45  69 106 145 192 245 315 375 461
#     4  12  26  48  77 106 147 199 249 312 389 461
#     4  12  25  41  76 104 146 192 253 311 390 448
#     4  11  26  45  71 101 151 192 252 309 391 456
#
# _framework density 21.300740000000001
#
# number of rings (size 3 to 8) (size 9 to 14) (size 15 to 20)
#    0.000    0.364    3.636    4.636    5.091    2.909 
#    3.273    0.000    0.000    0.000    0.000    0.000 
#    0.000    0.000    0.000    0.000    0.000    0.000 
#
# Total GULP energy -245146.207928 kJ/mol
# GULP energy per Si atom -5571.504726 kJ/mol
# Density = 2.125226 g / cm^3
# Si number density = 21.300740 Si / 1000 Ang^3
#
#
#
# Elastic Constant Matrix: (Units=GPa)
#
#
# Indices 1 2 3 4 5 6 
#
# 1 134.9778 54.9372 26.6000 0.0000 0.0000 0.0000
# 2 54.9372 93.9253 8.4069 0.0000 0.0000 0.0000
# 3 26.6000 8.4069 69.5793 0.0000 0.0000 0.0000
# 4 0.0000 0.0000 0.0000 65.5975 0.0000 0.0000
# 5 0.0000 0.0000 0.0000 0.0000 40.0681 0.0000
# 6 0.0000 0.0000 0.0000 0.0000 0.0000 43.1424
#
#
#
# Elastic Compliance Matrix: (Units=1/GPa)
#
#
# Indices 1 2 3 4 5 6 
#
# 1 0.010415 -0.005798 -0.003281 0.000000 0.000000 0.000000
# 2 -0.005798 0.013991 0.000526 0.000000 0.000000 0.000000
# 3 -0.003281 0.000526 0.015563 0.000000 0.000000 0.000000
# 4 0.000000 0.000000 0.000000 0.015244 0.000000 0.000000
# 5 0.000000 0.000000 0.000000 0.000000 0.024958 0.000000
# 6 0.000000 0.000000 0.000000 0.000000 0.000000 0.023179
#
#
# Mechanical properties :
#
#
# Convention : Reuss Voigt Hill
#
# Bulk Modulus (GPa) = 43.73918 53.15231 48.44574
# Shear Modulus (GPa) = 39.03892 43.66414 41.35153
#
# Velocity S-wave (km/s) = 4.28571 4.53248 4.41082
# Velocity P-wave (km/s) = 6.71330 7.23869 6.98094
#
# Compressibility (1/GPa) = 0.02286280
#
# Stress axis : x y z
#
# Youngs Moduli (GPa) = 96.01398 71.47438 64.25539
#
# Poissons Ratio (x) = 0.41442 0.21083
# Poissons Ratio (y) = 0.55671 -0.03381
# Poissons Ratio (z) = 0.31503 -0.03761
#
# Static dielectric constant tensor:
#      x y z
#    x 1.679300 0.000000 0.000000 
#    y 0.000000 1.990560 0.000000 
#    z 0.000000 0.000000 1.771080 
# 
# From -- ./inp_files/45315.got.cif
#   From: 2010.05.17/outbox.cif.g08.bks.cpg/sg68_23_cif.got.tgz:45315.got - 2010.06.03 18:57:09.
