data_PCOD9510916
_publ_section_title
;
Structure prediction by ZEFSAII (Michael W. Deem and Ramdas Pophale) SiO2 
 PCOD9510916
Probable space group: C C C A
;
_chemical_formula_sum "Si O2"
_cell_formula_units_Z 64
_cell_length_a 7.580998
_cell_length_b 20.821542
_cell_length_c 15.690143
_cell_angle_alpha 90.000000
_cell_angle_beta 90.000000
_cell_angle_gamma 90.000000
_cell_volume 2476.658763
_symmetry_space_group_name_H-M "C C C A"
_symmetry_group_IT_number 68
_space_group.IT_coordinate_system_code '2'
_symmetry_cell_setting 'orthorhombic'
loop_
_space_group_symop_operation_xyz
x,y,z
-x,1/2-y,z
x,1/2-y,1/2-z
-x,y,1/2-z
-x,-y,-z
x,1/2+y,-z
-x,1/2+y,1/2+z
x,-y,1/2+z
1/2+x,1/2+y,z
1/2-x,-y,z
1/2+x,-y,1/2-z
1/2-x,1/2+y,1/2-z
1/2-x,1/2-y,-z
1/2+x,y,-z
1/2-x,y,1/2+z
1/2+x,1/2-y,1/2+z
loop_
_atom_site_type_symbol
_atom_site_label
_atom_site_fract_x
_atom_site_fract_y
_atom_site_fract_z
Si Si1 0.057109 0.535456 0.846541
Si Si2 0.947667 0.407247 0.846523
Si Si3 0.190774 0.285320 0.612013
Si Si4 0.295065 0.842425 0.078677
O O1 0.250000 0.500000 0.844812
O O2 0.930288 0.479000 0.882410
O O3 0.071115 0.600196 0.901536
O O4 0.000000 0.552552 0.750000
O O5 0.107746 0.374051 0.897062
O O6 0.000000 0.420506 0.750000
O O7 0.803853 0.351081 0.835864
O O8 0.316120 0.224805 0.629009
O O9 0.208026 0.315483 0.517195
O O10 0.000000 0.250000 0.621228
#
# Coordination Sequence:
#
# PCOD9510916 Si02
#       4
#    16  16  16  16
#     4   9  18  35  56  81 112 146 188 241 288 340
#     4   9  18  34  56  77 103 144 192 232 277 349
#     4   9  18  33  51  76 107 143 183 228 283 346
#     4   9  18  33  52  74 108 142 178 232 287 337
#
# _framework density 25.841266999999998
#
# number of rings (size 3 to 8) (size 9 to 14) (size 15 to 20)
#    0.000    3.000    0.000    0.000    0.000    5.500 
#    0.000   25.000    0.000    7.500    0.000    0.000 
#    0.000    0.000    0.000    0.000    0.000    0.000 
#
# Total GULP energy -178324.341427 kJ/mol
# GULP energy per Si atom -5572.635670 kJ/mol
# Density = 2.578245 g / cm^3
# Si number density = 25.841267 Si / 1000 Ang^3
#
#
#
# Elastic Constant Matrix: (Units=GPa)
#
#
# Indices 1 2 3 4 5 6 
#
# 1 85.3037 38.3293 -4.7830 0.0000 0.0000 0.0000
# 2 38.3293 324.4600 39.3956 0.0000 0.0000 0.0000
# 3 -4.7830 39.3956 18.8890 0.0000 0.0000 0.0000
# 4 0.0000 0.0000 0.0000 69.9172 0.0000 0.0000
# 5 0.0000 0.0000 0.0000 0.0000 14.6113 0.0000
# 6 0.0000 0.0000 0.0000 0.0000 0.0000 8.2204
#
#
#
# Elastic Compliance Matrix: (Units=1/GPa)
#
#
# Indices 1 2 3 4 5 6 
#
# 1 0.013430 -0.002677 0.008985 0.000000 0.000000 0.000000
# 2 -0.002677 0.004661 -0.010399 0.000000 0.000000 0.000000
# 3 0.008985 -0.010399 0.076905 0.000000 0.000000 0.000000
# 4 0.000000 0.000000 0.000000 0.014303 0.000000 0.000000
# 5 0.000000 0.000000 0.000000 0.000000 0.068440 0.000000
# 6 0.000000 0.000000 0.000000 0.000000 0.000000 0.121648
#
#
# Mechanical properties :
#
#
# Convention : Reuss Voigt Hill
#
# Bulk Modulus (GPa) = 11.51916 63.83737 37.67826
# Shear Modulus (GPa) = 14.85853 42.26385 28.56119
#
# Velocity S-wave (km/s) = 2.40050 4.04854 3.32814
# Velocity P-wave (km/s) = 3.48576 6.82726 5.42043
#
# Compressibility (1/GPa) = 0.08681188
#
# Stress axis : x y z
#
# Youngs Moduli (GPa) = 74.46224 214.54739 13.00308
#
# Poissons Ratio (x) = 0.57443 -0.11683
# Poissons Ratio (y) = 0.19936 0.13522
# Poissons Ratio (z) = -0.66902 2.23110
#
# Static dielectric constant tensor:
#      x y z
#    x 2.174780 0.000000 0.000000 
#    y 0.000000 2.200320 0.000000 
#    z 0.000000 0.000000 2.090120 
# 
# From -- ./inp_files/20591.got.cif
#   From: 2010.05.17/outbox.cif.g08.bks.cpg/sg68_11_cif.got.tgz:20591.got - 2010.06.03 18:57:09.
