data_PCOD9510921
_publ_section_title
;
Structure prediction by ZEFSAII (Michael W. Deem and Ramdas Pophale) SiO2 
 PCOD9510921
Probable space group: C C C A
;
_chemical_formula_sum "Si O2"
_cell_formula_units_Z 48
_cell_length_a 24.000000
_cell_length_b 18.000000
_cell_length_c 12.000000
_cell_angle_alpha 90.000000
_cell_angle_beta 90.000000
_cell_angle_gamma 90.000000
_cell_volume 5184.000000
_symmetry_space_group_name_H-M "C C C A"
_symmetry_group_IT_number 68
_space_group.IT_coordinate_system_code '2'
_symmetry_cell_setting 'orthorhombic'
loop_
_space_group_symop_operation_xyz
x,y,z
-x,1/2-y,z
x,1/2-y,1/2-z
-x,y,1/2-z
-x,-y,-z
x,1/2+y,-z
-x,1/2+y,1/2+z
x,-y,1/2+z
1/2+x,1/2+y,z
1/2-x,-y,z
1/2+x,-y,1/2-z
1/2-x,1/2+y,1/2-z
1/2-x,1/2-y,-z
1/2+x,y,-z
1/2-x,y,1/2+z
1/2+x,1/2-y,1/2+z
loop_
_atom_site_type_symbol
_atom_site_label
_atom_site_fract_x
_atom_site_fract_y
_atom_site_fract_z
Si Si1 0.598615 0.599377 0.113814
Si Si2 0.373892 0.750000 0.750000
Si Si3 0.906733 0.593327 0.347583
Si Si4 0.818866 0.729599 0.626263
Si Si5 0.000000 0.480646 0.250000
Si Si6 0.299283 0.668135 0.934532
Si Si7 0.313612 0.477857 0.300337
O O1 0.624419 0.681839 0.132577
O O2 0.541193 0.571482 0.173902
O O3 0.647999 0.545415 0.157931
O O4 0.592486 0.594149 0.980781
O O5 0.408040 0.677872 0.703559
O O6 0.333443 0.719538 0.847372
O O7 0.956382 0.537671 0.309490
O O8 0.848390 0.559914 0.300289
O O9 0.801453 0.750000 0.750000
O O10 0.767093 0.683674 0.573114
O O11 0.821796 0.804550 0.553449
O O12 0.310308 0.584080 0.897919
O O13 0.250000 0.500000 0.271868
#
# Coordination Sequence:
#
# PCOD9510921 Si02
#       7
#    16   8  16  16   8  16  16
#     4  11  22  42  63  92 126 172 213 266 327 382
#     4  10  18  37  62  94 124 161 208 260 314 380
#     4  10  22  39  66  89 124 168 219 271 320 380
#     4  11  22  36  61  89 128 169 204 250 320 389
#     4  10  24  43  65  88 126 166 222 280 320 372
#     4  10  20  35  57  92 132 165 198 255 312 386
#     4  10  21  36  58  97 132 165 209 255 324 398
#
# _framework density 9.2592590000000001
#
# number of rings (size 3 to 8) (size 9 to 14) (size 15 to 20)
#    0.000    1.667    4.167    0.500    0.000    3.667 
#    0.000    2.083    3.667    0.000    0.000    0.000 
#    0.000    0.000    0.000    0.000    0.000    0.000 
#
# Total GULP energy -267722.349098 kJ/mol
# GULP energy per Si atom -5577.548940 kJ/mol
# Density = 0.923818 g / cm^3
# Si number density = 9.259259 Si / 1000 Ang^3
#
#
#
# Elastic Constant Matrix: (Units=GPa)
#
#
# Indices 1 2 3 4 5 6 
#
# 1 127.7487 44.4807 35.9894 0.0000 0.0000 0.0000
# 2 44.4807 74.9496 25.9727 0.0000 0.0000 0.0000
# 3 35.9894 25.9727 101.1836 0.0000 0.0000 0.0000
# 4 0.0000 0.0000 0.0000 24.6952 0.0000 0.0000
# 5 0.0000 0.0000 0.0000 0.0000 22.5224 0.0000
# 6 0.0000 0.0000 0.0000 0.0000 0.0000 31.0674
#
#
#
# Elastic Compliance Matrix: (Units=1/GPa)
#
#
# Indices 1 2 3 4 5 6 
#
# 1 0.010335 -0.005334 -0.002307 0.000000 0.000000 0.000000
# 2 -0.005334 0.017398 -0.002569 0.000000 0.000000 0.000000
# 3 -0.002307 -0.002569 0.011363 0.000000 0.000000 0.000000
# 4 0.000000 0.000000 0.000000 0.040494 0.000000 0.000000
# 5 0.000000 0.000000 0.000000 0.000000 0.044400 0.000000
# 6 0.000000 0.000000 0.000000 0.000000 0.000000 0.032188
#
#
# Mechanical properties :
#
#
# Convention : Reuss Voigt Hill
#
# Bulk Modulus (GPa) = 53.54229 57.41862 55.48045
# Shear Modulus (GPa) = 27.34887 28.81961 28.08424
#
# Velocity S-wave (km/s) = 3.84714 3.94922 3.89851
# Velocity P-wave (km/s) = 6.97922 7.20198 7.09148
#
# Compressibility (1/GPa) = 0.01867682
#
# Stress axis : x y z
#
# Youngs Moduli (GPa) = 96.75814 57.47741 88.00618
#
# Poissons Ratio (x) = 0.30660 0.20301
# Poissons Ratio (y) = 0.51613 0.22605
# Poissons Ratio (z) = 0.22320 0.14764
#
# Static dielectric constant tensor:
#      x y z
#    x 1.621330 0.000000 0.000000 
#    y 0.000000 1.663900 0.000000 
#    z 0.000000 0.000000 1.640210 
# 
# From -- ./inp_files/14658.got.cif
#   From: 2010.05.17/outbox.ucp.g08.bks.cvg/sg68_8_cif.got.tgz:14658.got - 2010.06.11 16:49:25.
