data_PCOD9510809
_publ_section_title
;
Structure prediction by ZEFSAII (Michael W. Deem and Ramdas Pophale) SiO2 
 PCOD9510809
Probable space group: C C C A
;
_chemical_formula_sum "Si O2"
_cell_formula_units_Z 56
_cell_length_a 14.190021
_cell_length_b 18.190524
_cell_length_c 9.354119
_cell_angle_alpha 90.000000
_cell_angle_beta 90.000000
_cell_angle_gamma 90.000000
_cell_volume 2414.521842
_symmetry_space_group_name_H-M "C C C A"
_symmetry_group_IT_number 68
_space_group.IT_coordinate_system_code '2'
_symmetry_cell_setting 'orthorhombic'
loop_
_space_group_symop_operation_xyz
x,y,z
-x,1/2-y,z
x,1/2-y,1/2-z
-x,y,1/2-z
-x,-y,-z
x,1/2+y,-z
-x,1/2+y,1/2+z
x,-y,1/2+z
1/2+x,1/2+y,z
1/2-x,-y,z
1/2+x,-y,1/2-z
1/2-x,1/2+y,1/2-z
1/2-x,1/2-y,-z
1/2+x,y,-z
1/2-x,y,1/2+z
1/2+x,1/2-y,1/2+z
loop_
_atom_site_type_symbol
_atom_site_label
_atom_site_fract_x
_atom_site_fract_y
_atom_site_fract_z
Si Si1 0.500000 0.750000 0.017145
Si Si2 0.070488 0.483759 0.627817
Si Si3 0.358768 0.146779 0.816817
Si Si4 0.668875 0.158438 0.021788
O O1 0.551779 0.811115 0.115504
O O2 0.416592 0.788952 0.930366
O O3 0.120000 0.559866 0.671893
O O4 0.143121 0.422874 0.576682
O O5 0.000000 0.455836 0.750000
O O6 0.000000 0.500000 0.500000
O O7 0.336052 0.162208 0.650929
O O8 0.270602 0.172699 0.912373
#
# Coordination Sequence:
#
# PCOD9510809 Si02
#       4
#     8  16  16  16
#     4  12  25  50  71  98 145 194 239 294 359 418
#     4  12  24  46  76 103 138 185 231 287 355 416
#     4  12  26  46  72 104 141 188 235 296 353 421
#     4  12  27  45  74 105 143 184 239 292 354 422
#
# _framework density 23.192997999999999
#
# number of rings (size 3 to 8) (size 9 to 14) (size 15 to 20)
#    0.000    0.000    5.714    4.286    4.000    2.286 
#    0.000    5.000    0.000    0.000    0.000    0.000 
#    0.000    0.000    0.000    0.000    0.000    0.000 
#
# Total GULP energy -156881.351717 kJ/mol
# GULP energy per Si atom -5602.905418 kJ/mol
# Density = 2.314021 g / cm^3
# Si number density = 23.192998 Si / 1000 Ang^3
#
#
#
# Elastic Constant Matrix: (Units=GPa)
#
#
# Indices 1 2 3 4 5 6 
#
# 1 162.4451 26.8636 32.3543 0.0000 0.0000 0.0000
# 2 26.8636 110.9921 -8.6987 0.0000 0.0000 0.0000
# 3 32.3543 -8.6987 83.4466 0.0000 0.0000 0.0000
# 4 0.0000 0.0000 0.0000 24.4551 0.0000 0.0000
# 5 0.0000 0.0000 0.0000 0.0000 43.5301 0.0000
# 6 0.0000 0.0000 0.0000 0.0000 0.0000 49.1650
#
#
#
# Elastic Compliance Matrix: (Units=1/GPa)
#
#
# Indices 1 2 3 4 5 6 
#
# 1 0.007062 -0.001940 -0.002940 0.000000 0.000000 0.000000
# 2 -0.001940 0.009617 0.001755 0.000000 0.000000 0.000000
# 3 -0.002940 0.001755 0.013307 0.000000 0.000000 0.000000
# 4 0.000000 0.000000 0.000000 0.040891 0.000000 0.000000
# 5 0.000000 0.000000 0.000000 0.000000 0.022973 0.000000
# 6 0.000000 0.000000 0.000000 0.000000 0.000000 0.020340
#
#
# Mechanical properties :
#
#
# Convention : Reuss Voigt Hill
#
# Bulk Modulus (GPa) = 42.13295 50.88022 46.50659
# Shear Modulus (GPa) = 38.95533 43.85433 41.40483
#
# Velocity S-wave (km/s) = 4.10276 4.35310 4.22978
# Velocity P-wave (km/s) = 6.37567 6.87396 6.62950
#
# Compressibility (1/GPa) = 0.02373439
#
# Stress axis : x y z
#
# Youngs Moduli (GPa) = 141.59576 103.98638 75.15007
#
# Poissons Ratio (x) = 0.20171 0.22098
# Poissons Ratio (y) = 0.27466 -0.13186
# Poissons Ratio (z) = 0.41636 -0.18245
#
# Static dielectric constant tensor:
#      x y z
#    x 2.008710 0.000000 0.000000 
#    y 0.000000 1.975680 0.000000 
#    z 0.000000 0.000000 1.800840 
# 
# From -- ./inp_files/4781.got.cif
#   From: 2010.05.17/outbox.cif.g08.bks.cpg/sg68_3_cif.got.tgz:4781.got - 2010.06.03 18:57:09.
