data_PCOD9510224
_publ_section_title
;
Structure prediction by ZEFSAII (Michael W. Deem and Ramdas Pophale) SiO2 
 PCOD9510224
Probable space group: C C C A
;
_chemical_formula_sum "Si O2"
_cell_formula_units_Z 68
_cell_length_a 22.563831
_cell_length_b 16.391560
_cell_length_c 8.477160
_cell_angle_alpha 90.000000
_cell_angle_beta 90.000000
_cell_angle_gamma 90.000000
_cell_volume 3135.331792
_symmetry_space_group_name_H-M "C C C A"
_symmetry_group_IT_number 68
_space_group.IT_coordinate_system_code '2'
_symmetry_cell_setting 'orthorhombic'
loop_
_space_group_symop_operation_xyz
x,y,z
-x,1/2-y,z
x,1/2-y,1/2-z
-x,y,1/2-z
-x,-y,-z
x,1/2+y,-z
-x,1/2+y,1/2+z
x,-y,1/2+z
1/2+x,1/2+y,z
1/2-x,-y,z
1/2+x,-y,1/2-z
1/2-x,1/2+y,1/2-z
1/2-x,1/2-y,-z
1/2+x,y,-z
1/2-x,y,1/2+z
1/2+x,1/2-y,1/2+z
loop_
_atom_site_type_symbol
_atom_site_label
_atom_site_fract_x
_atom_site_fract_y
_atom_site_fract_z
Si Si1 0.435237 0.059987 0.203425
Si Si2 0.172597 0.340636 0.678687
Si Si3 0.792303 0.658421 0.687657
Si Si4 0.586528 0.891338 0.153004
Si Si5 0.500000 0.250000 0.750000
O O1 0.500000 0.091925 0.250000
O O2 0.385168 0.104082 0.305962
O O3 0.435399 0.963539 0.233977
O O4 0.418621 0.077247 0.023989
O O5 0.159785 0.250000 0.750000
O O6 0.191926 0.337961 0.496291
O O7 0.227734 0.378845 0.776879
O O8 0.784821 0.750000 0.750000
O O9 0.846592 0.624365 0.789649
O O10 0.545364 0.811117 0.162433
#
# Coordination Sequence:
#
# PCOD9510224 Si02
#       5
#    16  16  16  16   4
#     4  12  27  45  71 103 148 182 235 295 354 422
#     4  11  24  42  69 105 141 190 239 293 359 422
#     4  11  22  43  70 101 143 186 243 295 350 424
#     4  12  26  47  73 105 143 189 234 294 355 423
#     4  12  28  44  78 100 142 188 236 272 364 416
#
# _framework density 21.688293999999999
#
# number of rings (size 3 to 8) (size 9 to 14) (size 15 to 20)
#    0.000    0.471    2.353    7.765    3.294    1.412 
#    0.000    4.706    0.000    0.000    0.000    0.000 
#    0.000    0.000    0.000    0.000    0.000    0.000 
#
# Total GULP energy -190201.627478 kJ/mol
# GULP energy per Si atom -5594.165514 kJ/mol
# Density = 2.163893 g / cm^3
# Si number density = 21.688294 Si / 1000 Ang^3
#
#
#
# Elastic Constant Matrix: (Units=GPa)
#
#
# Indices 1 2 3 4 5 6 
#
# 1 181.6468 47.5563 26.3154 0.0000 0.0000 0.0000
# 2 47.5563 78.5043 32.8729 0.0000 0.0000 0.0000
# 3 26.3154 32.8729 134.9261 0.0000 0.0000 0.0000
# 4 0.0000 0.0000 0.0000 17.9813 0.0000 0.0000
# 5 0.0000 0.0000 0.0000 0.0000 29.7324 0.0000
# 6 0.0000 0.0000 0.0000 0.0000 0.0000 -79.5163
#
#
#
# Elastic Compliance Matrix: (Units=1/GPa)
#
#
# Indices 1 2 3 4 5 6 
#
# 1 0.006557 -0.003827 -0.000346 0.000000 0.000000 0.000000
# 2 -0.003827 0.016419 -0.003254 0.000000 0.000000 0.000000
# 3 -0.000346 -0.003254 0.008272 0.000000 0.000000 0.000000
# 4 0.000000 0.000000 0.000000 0.055613 0.000000 0.000000
# 5 0.000000 0.000000 0.000000 0.000000 0.033633 0.000000
# 6 0.000000 0.000000 0.000000 0.000000 0.000000 -0.012576
#
#
# Mechanical properties :
#
#
# Convention : Reuss Voigt Hill
#
# Bulk Modulus (GPa) = 61.00096 67.61849 64.30972
# Shear Modulus (GPa) = 38.98986 12.86167 25.92577
#
# Velocity S-wave (km/s) = 4.24457 2.43785 3.46118
# Velocity P-wave (km/s) = 7.22559 6.25853 6.75938
#
# Compressibility (1/GPa) = 0.01639318
#
# Stress axis : x y z
#
# Youngs Moduli (GPa) = 152.49987 60.90455 120.89282
#
# Poissons Ratio (x) = 0.23310 0.04189
# Poissons Ratio (y) = 0.58366 0.39337
# Poissons Ratio (z) = 0.05284 0.19817
#
# Static dielectric constant tensor:
#      x y z
#    x 1.864290 0.000000 0.000000 
#    y 0.000000 1.791370 0.000000 
#    z 0.000000 0.000000 1.729640 
# 
# From -- ./inp_files/6831.got.cif
#   From: 2010.05.17/outbox.cif.g08.bks.cpg/sg68_4_cif.got.tgz:6831.got - 2010.06.03 18:57:09.
