data_PCOD9510311
_publ_section_title
;
Structure prediction by ZEFSAII (Michael W. Deem and Ramdas Pophale) SiO2 
 PCOD9510311
Probable space group: C C C A
;
_chemical_formula_sum "Si O2"
_cell_formula_units_Z 80
_cell_length_a 8.564163
_cell_length_b 24.745215
_cell_length_c 17.565440
_cell_angle_alpha 90.000000
_cell_angle_beta 90.000000
_cell_angle_gamma 90.000000
_cell_volume 3722.504137
_symmetry_space_group_name_H-M "C C C A"
_symmetry_group_IT_number 68
_space_group.IT_coordinate_system_code '2'
_symmetry_cell_setting 'orthorhombic'
loop_
_space_group_symop_operation_xyz
x,y,z
-x,1/2-y,z
x,1/2-y,1/2-z
-x,y,1/2-z
-x,-y,-z
x,1/2+y,-z
-x,1/2+y,1/2+z
x,-y,1/2+z
1/2+x,1/2+y,z
1/2-x,-y,z
1/2+x,-y,1/2-z
1/2-x,1/2+y,1/2-z
1/2-x,1/2-y,-z
1/2+x,y,-z
1/2-x,y,1/2+z
1/2+x,1/2-y,1/2+z
loop_
_atom_site_type_symbol
_atom_site_label
_atom_site_fract_x
_atom_site_fract_y
_atom_site_fract_z
Si Si1 0.828669 0.051600 0.400538
Si Si2 0.291670 0.627911 0.532092
Si Si3 0.920126 0.308503 0.583322
Si Si4 0.658844 0.056341 0.664055
Si Si5 0.168316 0.622593 0.287507
O O1 0.870158 0.095367 0.463241
O O2 0.689846 0.076763 0.350882
O O3 0.976636 0.042328 0.346460
O O4 0.750000 0.000000 0.438003
O O5 0.183786 0.673081 0.489803
O O6 0.427803 0.653622 0.581732
O O7 0.207233 0.584050 0.584440
O O8 0.824734 0.322570 0.661118
O O9 0.000000 0.250000 0.579558
O O10 0.704682 0.103240 0.725083
O O11 0.750000 0.000000 0.679079
O O12 0.000000 0.621191 0.250000
#
# Coordination Sequence:
#
# PCOD9510311 Si02
#       5
#    16  16  16  16  16
#     4  11  24  40  65  98 135 179 219 266 335 408
#     4  11  23  42  68  99 132 173 228 284 337 402
#     4  11  24  45  72  96 129 178 232 292 340 390
#     4  12  24  40  66  97 144 179 216 274 340 415
#     4  11  23  42  64  95 134 174 226 268 335 407
#
# _framework density 21.490911000000001
#
# number of rings (size 3 to 8) (size 9 to 14) (size 15 to 20)
#    0.000    0.800    4.000    3.600    2.800    2.000 
#    0.000    0.000    0.000    0.000    5.200    0.000 
#    0.000    0.000    0.000    0.000    0.000    0.000 
#
# Total GULP energy -223017.415863 kJ/mol
# GULP energy per Si atom -5575.435397 kJ/mol
# Density = 2.144200 g / cm^3
# Si number density = 21.490911 Si / 1000 Ang^3
#
#
#
# Elastic Constant Matrix: (Units=GPa)
#
#
# Indices 1 2 3 4 5 6 
#
# 1 59.7986 18.4812 10.0668 0.0000 0.0000 0.0000
# 2 18.4812 69.0815 32.1896 0.0000 0.0000 0.0000
# 3 10.0668 32.1896 85.6879 0.0000 0.0000 0.0000
# 4 0.0000 0.0000 0.0000 19.9261 0.0000 0.0000
# 5 0.0000 0.0000 0.0000 0.0000 28.6513 0.0000
# 6 0.0000 0.0000 0.0000 0.0000 0.0000 26.4281
#
#
#
# Elastic Compliance Matrix: (Units=1/GPa)
#
#
# Indices 1 2 3 4 5 6 
#
# 1 0.018240 -0.004705 -0.000375 0.000000 0.000000 0.000000
# 2 -0.004705 0.018761 -0.006495 0.000000 0.000000 0.000000
# 3 -0.000375 -0.006495 0.014154 0.000000 0.000000 0.000000
# 4 0.000000 0.000000 0.000000 0.050185 0.000000 0.000000
# 5 0.000000 0.000000 0.000000 0.000000 0.034902 0.000000
# 6 0.000000 0.000000 0.000000 0.000000 0.000000 0.037839
#
#
# Mechanical properties :
#
#
# Convention : Reuss Voigt Hill
#
# Bulk Modulus (GPa) = 35.70836 37.33815 36.52326
# Shear Modulus (GPa) = 24.20525 25.25645 24.73085
#
# Velocity S-wave (km/s) = 3.35968 3.43186 3.39596
# Velocity P-wave (km/s) = 5.63042 5.75458 5.69284
#
# Compressibility (1/GPa) = 0.02800465
#
# Stress axis : x y z
#
# Youngs Moduli (GPa) = 54.82444 53.30277 70.64996
#
# Poissons Ratio (x) = 0.25078 0.02653
# Poissons Ratio (y) = 0.25794 0.45887
# Poissons Ratio (z) = 0.02059 0.34620
#
# Static dielectric constant tensor:
#      x y z
#    x 1.779170 0.000000 0.000000 
#    y 0.000000 1.794050 0.000000 
#    z 0.000000 0.000000 1.834100 
# 
# From -- ./inp_files/28336.got.cif
#   From: 2010.05.17/outbox.cif.g08.bks.cpg/sg68_15_cif.got.tgz:28336.got - 2010.06.03 18:57:09.
