data_PCOD9510762
_publ_section_title
;
Structure prediction by ZEFSAII (Michael W. Deem and Ramdas Pophale) SiO2 
 PCOD9510762
Probable space group: C C C A
;
_chemical_formula_sum "Si O2"
_cell_formula_units_Z 52
_cell_length_a 4.808507
_cell_length_b 16.776684
_cell_length_c 23.213898
_cell_angle_alpha 90.000000
_cell_angle_beta 90.000000
_cell_angle_gamma 90.000000
_cell_volume 1872.683780
_symmetry_space_group_name_H-M "C C C A"
_symmetry_group_IT_number 68
_space_group.IT_coordinate_system_code '2'
_symmetry_cell_setting 'orthorhombic'
loop_
_space_group_symop_operation_xyz
x,y,z
-x,1/2-y,z
x,1/2-y,1/2-z
-x,y,1/2-z
-x,-y,-z
x,1/2+y,-z
-x,1/2+y,1/2+z
x,-y,1/2+z
1/2+x,1/2+y,z
1/2-x,-y,z
1/2+x,-y,1/2-z
1/2-x,1/2+y,1/2-z
1/2-x,1/2-y,-z
1/2+x,y,-z
1/2-x,y,1/2+z
1/2+x,1/2-y,1/2+z
loop_
_atom_site_type_symbol
_atom_site_label
_atom_site_fract_x
_atom_site_fract_y
_atom_site_fract_z
Si Si1 0.500000 0.250000 0.750000
Si Si2 0.489435 0.361182 0.461366
Si Si3 0.250000 0.500000 0.100473
Si Si4 0.311871 0.634752 0.351034
Si Si5 0.250000 0.000000 0.213879
O O1 0.649229 0.306122 0.702557
O O2 0.293321 0.342223 0.515306
O O3 0.531655 0.452746 0.440637
O O4 0.335038 0.325643 0.405418
O O5 0.432000 0.575452 0.129069
O O6 0.109352 0.568152 0.323498
O O7 0.500000 0.964529 0.250000
#
# Coordination Sequence:
#
# PCOD9510762 Si02
#       5
#     4  16   8  16   8
#     4  12  32  56  74 116 166 218 270 338 394 472
#     4  12  25  44  83 128 163 197 261 338 402 473
#     4  12  23  45  82 126 152 209 263 330 402 476
#     4  12  27  47  82 115 163 209 267 329 404 469
#     4  12  25  45  80 112 150 205 273 330 380 470
#
# _framework density 27.767636
#
# number of rings (size 3 to 8) (size 9 to 14) (size 15 to 20)
#    0.000    0.000    7.692    1.846    0.000    0.000 
#    0.000    8.462    0.000    0.000    0.000    0.000 
#    0.000    0.000    0.000    0.000    0.000    0.000 
#
# Total GULP energy -144893.675708 kJ/mol
# GULP energy per Si atom -5572.833681 kJ/mol
# Density = 2.770444 g / cm^3
# Si number density = 27.767636 Si / 1000 Ang^3
#
#
#
# Elastic Constant Matrix: (Units=GPa)
#
#
# Indices 1 2 3 4 5 6 
#
# 1 144.5529 29.1751 30.5321 0.0000 0.0000 0.0000
# 2 29.1751 128.8731 67.6852 0.0000 0.0000 0.0000
# 3 30.5321 67.6852 188.0994 0.0000 0.0000 0.0000
# 4 0.0000 0.0000 0.0000 29.5821 0.0000 0.0000
# 5 0.0000 0.0000 0.0000 0.0000 -9.0108 0.0000
# 6 0.0000 0.0000 0.0000 0.0000 0.0000 11.0778
#
#
#
# Elastic Compliance Matrix: (Units=1/GPa)
#
#
# Indices 1 2 3 4 5 6 
#
# 1 0.007330 -0.001276 -0.000731 0.000000 0.000000 0.000000
# 2 -0.001276 0.009790 -0.003316 0.000000 0.000000 0.000000
# 3 -0.000731 -0.003316 0.006628 0.000000 0.000000 0.000000
# 4 0.000000 0.000000 0.000000 0.033804 0.000000 0.000000
# 5 0.000000 0.000000 0.000000 0.000000 -0.110978 0.000000
# 6 0.000000 0.000000 0.000000 0.000000 0.000000 0.090271
#
#
# Mechanical properties :
#
#
# Convention : Reuss Voigt Hill
#
# Bulk Modulus (GPa) = 76.31524 79.59003 77.95264
# Shear Modulus (GPa) = 96.42042 28.60535 62.51288
#
# Velocity S-wave (km/s) = 5.89910 3.21311 4.74992
# Velocity P-wave (km/s) = 8.59898 6.51847 7.62997
#
# Compressibility (1/GPa) = 0.01310354
#
# Stress axis : x y z
#
# Youngs Moduli (GPa) = 136.43168 102.14760 150.87374
#
# Poissons Ratio (x) = 0.13029 0.11025
# Poissons Ratio (y) = 0.17402 0.50025
# Poissons Ratio (z) = 0.09970 0.33869
#
# Static dielectric constant tensor:
#      x y z
#    x 2.398550 0.000000 0.000000 
#    y 0.000000 2.334690 0.000000 
#    z 0.000000 0.000000 2.347870 
# 
# From -- ./inp_files/34856.got.cif
#   From: 2010.05.17/outbox.cif.g08.bks.cpg/sg68_18_cif.got.tgz:34856.got - 2010.06.03 18:57:09.
