data_PCOD9510664
_publ_section_title
;
Structure prediction by ZEFSAII (Michael W. Deem and Ramdas Pophale) SiO2 
 PCOD9510664
Probable space group: C C C A
;
_chemical_formula_sum "Si O2"
_cell_formula_units_Z 48
_cell_length_a 24.404178
_cell_length_b 10.719449
_cell_length_c 8.297492
_cell_angle_alpha 90.000000
_cell_angle_beta 90.000000
_cell_angle_gamma 90.000000
_cell_volume 2170.618443
_symmetry_space_group_name_H-M "C C C A"
_symmetry_group_IT_number 68
_space_group.IT_coordinate_system_code '2'
_symmetry_cell_setting 'orthorhombic'
loop_
_space_group_symop_operation_xyz
x,y,z
-x,1/2-y,z
x,1/2-y,1/2-z
-x,y,1/2-z
-x,-y,-z
x,1/2+y,-z
-x,1/2+y,1/2+z
x,-y,1/2+z
1/2+x,1/2+y,z
1/2-x,-y,z
1/2+x,-y,1/2-z
1/2-x,1/2+y,1/2-z
1/2-x,1/2-y,-z
1/2+x,y,-z
1/2-x,y,1/2+z
1/2+x,1/2-y,1/2+z
loop_
_atom_site_type_symbol
_atom_site_label
_atom_site_fract_x
_atom_site_fract_y
_atom_site_fract_z
Si Si1 0.523731 0.624846 0.570949
Si Si2 0.193427 0.750000 0.750000
Si Si3 0.750000 0.000000 0.332987
Si Si4 0.348564 0.170709 0.083569
O O1 0.500000 0.750000 0.488274
O O2 0.500000 0.627599 0.750000
O O3 0.500000 0.500000 0.500000
O O4 0.589194 0.624637 0.574722
O O5 0.228892 0.623851 0.743893
O O6 0.162036 0.750207 0.579313
O O7 0.804466 0.942274 0.416196
O O8 0.343110 0.250000 0.250000
#
# Coordination Sequence:
#
# PCOD9510664 Si02
#       4
#    16   8   8  16
#     4  11  27  50  76 110 149 198 254 319 382 454
#     4  12  30  46  79 112 153 204 252 312 388 448
#     4  12  28  50  76 118 154 206 256 318 378 466
#     4  12  28  50  78 112 160 198 261 317 383 462
#
# _framework density 22.113512
#
# number of rings (size 3 to 8) (size 9 to 14) (size 15 to 20)
#    0.000    0.333    5.000    2.000   14.000    0.667 
#    0.000    0.000    0.000    0.000    0.000    0.000 
#    0.000    0.000    0.000    0.000    0.000    0.000 
#
# Total GULP energy -133983.720669 kJ/mol
# GULP energy per Si atom -5582.655028 kJ/mol
# Density = 2.206318 g / cm^3
# Si number density = 22.113512 Si / 1000 Ang^3
#
#
#
# Elastic Constant Matrix: (Units=GPa)
#
#
# Indices 1 2 3 4 5 6 
#
# 1 226.2091 86.3724 62.3418 0.0000 0.0000 0.0000
# 2 86.3724 197.4464 71.3418 0.0000 0.0000 0.0000
# 3 62.3418 71.3418 132.7139 0.0000 0.0000 0.0000
# 4 0.0000 0.0000 0.0000 9.4897 0.0000 0.0000
# 5 0.0000 0.0000 0.0000 0.0000 -13.7522 0.0000
# 6 0.0000 0.0000 0.0000 0.0000 0.0000 46.2900
#
#
#
# Elastic Compliance Matrix: (Units=1/GPa)
#
#
# Indices 1 2 3 4 5 6 
#
# 1 0.005575 -0.001852 -0.001623 0.000000 0.000000 0.000000
# 2 -0.001852 0.006901 -0.002840 0.000000 0.000000 0.000000
# 3 -0.001623 -0.002840 0.009824 0.000000 0.000000 0.000000
# 4 0.000000 0.000000 0.000000 0.105377 0.000000 0.000000
# 5 0.000000 0.000000 0.000000 0.000000 -0.072716 0.000000
# 6 0.000000 0.000000 0.000000 0.000000 0.000000 0.021603
#
#
# Mechanical properties :
#
#
# Convention : Reuss Voigt Hill
#
# Bulk Modulus (GPa) = 103.41332 110.72014 107.06673
# Shear Modulus (GPa) = 54.10173 30.82640 42.46407
#
# Velocity S-wave (km/s) = 4.95162 3.73769 4.38685
# Velocity P-wave (km/s) = 8.91951 8.29487 8.61285
#
# Compressibility (1/GPa) = 0.00966993
#
# Stress axis : x y z
#
# Youngs Moduli (GPa) = 179.36154 144.90683 101.79235
#
# Poissons Ratio (x) = 0.26843 0.16523
# Poissons Ratio (y) = 0.33225 0.28904
# Poissons Ratio (z) = 0.29114 0.41147
#
# Static dielectric constant tensor:
#      x y z
#    x 1.785720 0.000000 0.000000 
#    y 0.000000 1.768480 0.000000 
#    z 0.000000 0.000000 1.892890 
# 
# From -- ./inp_files/7615.got.cif
#   From: 2010.05.17/outbox.cif.g08.bks.cpg/sg68_4_cif.got.tgz:7615.got - 2010.06.03 18:57:09.
