data_PCOD9510167
_publ_section_title
;
Structure prediction by ZEFSAII (Michael W. Deem and Ramdas Pophale) SiO2 
 PCOD9510167
Probable space group: C C C A
;
_chemical_formula_sum "Si O2"
_cell_formula_units_Z 88
_cell_length_a 18.271155
_cell_length_b 15.468418
_cell_length_c 13.685541
_cell_angle_alpha 90.000000
_cell_angle_beta 90.000000
_cell_angle_gamma 90.000000
_cell_volume 3867.887834
_symmetry_space_group_name_H-M "C C C A"
_symmetry_group_IT_number 68
_space_group.IT_coordinate_system_code '2'
_symmetry_cell_setting 'orthorhombic'
loop_
_space_group_symop_operation_xyz
x,y,z
-x,1/2-y,z
x,1/2-y,1/2-z
-x,y,1/2-z
-x,-y,-z
x,1/2+y,-z
-x,1/2+y,1/2+z
x,-y,1/2+z
1/2+x,1/2+y,z
1/2-x,-y,z
1/2+x,-y,1/2-z
1/2-x,1/2+y,1/2-z
1/2-x,1/2-y,-z
1/2+x,y,-z
1/2-x,y,1/2+z
1/2+x,1/2-y,1/2+z
loop_
_atom_site_type_symbol
_atom_site_label
_atom_site_fract_x
_atom_site_fract_y
_atom_site_fract_z
Si Si1 0.611209 0.312814 0.657211
Si Si2 0.071068 0.999193 0.932899
Si Si3 0.706850 0.909236 0.605257
Si Si4 0.230857 0.099796 0.670465
Si Si5 0.840968 0.327198 0.485274
Si Si6 0.000000 0.558533 0.750000
O O1 0.600968 0.250000 0.750000
O O2 0.690032 0.356130 0.670708
O O3 0.617112 0.255022 0.559273
O O4 0.547877 0.383050 0.675555
O O5 0.111949 0.908852 0.949556
O O6 0.050052 0.999031 0.819176
O O7 0.130205 0.075017 0.948680
O O8 0.000000 0.000000 0.000000
O O9 0.699172 0.897989 0.720701
O O10 0.760283 0.835844 0.564246
O O11 0.750000 0.000000 0.592788
O O12 0.177126 0.150604 0.597435
O O13 0.250000 0.000000 0.641780
#
# Coordination Sequence:
#
# PCOD9510167 Si02
#       6
#    16  16  16  16  16   8
#     4  12  23  43  64  99 133 179 222 285 347 410
#     4  11  25  39  63 100 134 179 228 278 341 412
#     4   9  19  39  60  92 130 174 225 283 333 404
#     4  11  22  39  70  94 132 173 229 290 349 406
#     4  11  23  41  65  96 134 171 228 283 342 415
#     4  12  25  42  68  92 144 179 230 276 349 420
#
# _framework density 22.751434
#
# number of rings (size 3 to 8) (size 9 to 14) (size 15 to 20)
#    0.000    1.091    3.636    4.636    7.636    0.000 
#    0.000    0.000    0.000    0.000    0.000    0.000 
#    0.000    0.000    0.000    0.000    0.000    0.000 
#
# Total GULP energy -246103.351801 kJ/mol
# GULP energy per Si atom -5593.257995 kJ/mol
# Density = 2.269965 g / cm^3
# Si number density = 22.751434 Si / 1000 Ang^3
#
#
#
# Elastic Constant Matrix: (Units=GPa)
#
#
# Indices 1 2 3 4 5 6 
#
# 1 109.3588 13.4063 35.1882 0.0000 0.0000 0.0000
# 2 13.4063 65.4406 21.7723 0.0000 0.0000 0.0000
# 3 35.1882 21.7723 118.3718 0.0000 0.0000 0.0000
# 4 0.0000 0.0000 0.0000 -74.9634 0.0000 0.0000
# 5 0.0000 0.0000 0.0000 0.0000 36.8305 0.0000
# 6 0.0000 0.0000 0.0000 0.0000 0.0000 -40.6341
#
#
#
# Elastic Compliance Matrix: (Units=1/GPa)
#
#
# Indices 1 2 3 4 5 6 
#
# 1 0.010192 -0.001150 -0.002818 0.000000 0.000000 0.000000
# 2 -0.001150 0.016407 -0.002676 0.000000 0.000000 0.000000
# 3 -0.002818 -0.002676 0.009778 0.000000 0.000000 0.000000
# 4 0.000000 0.000000 0.000000 -0.013340 0.000000 0.000000
# 5 0.000000 0.000000 0.000000 0.000000 0.027151 0.000000
# 6 0.000000 0.000000 0.000000 0.000000 0.000000 -0.024610
#
#
# Mechanical properties :
#
#
# Convention : Reuss Voigt Hill
#
# Bulk Modulus (GPa) = 43.31215 48.21166 45.76191
# Shear Modulus (GPa) = 107.38071 -0.89977 53.24047
#
# Velocity S-wave (km/s) = 6.87748 -0.62955 4.84270
# Velocity P-wave (km/s) = 9.06338 4.55062 7.17123
#
# Compressibility (1/GPa) = 0.02308821
#
# Stress axis : x y z
#
# Youngs Moduli (GPa) = 98.11575 60.94976 102.27163
#
# Poissons Ratio (x) = 0.07011 0.28822
# Poissons Ratio (y) = 0.11287 0.27366
# Poissons Ratio (z) = 0.27651 0.16309
#
# Static dielectric constant tensor:
#      x y z
#    x 1.770210 0.000000 0.000000 
#    y 0.000000 1.991820 0.000000 
#    z 0.000000 0.000000 1.865020 
# 
# From -- ./inp_files/23584.got.cif
#   From: 2010.05.17/outbox.cif.g08.bks.cpg/sg68_12_cif.got.tgz:23584.got - 2010.06.03 18:57:09.
