data_PCOD9510205
_publ_section_title
;
Structure prediction by ZEFSAII (Michael W. Deem and Ramdas Pophale) SiO2 
 PCOD9510205
Probable space group: C C C A
;
_chemical_formula_sum "Si O2"
_cell_formula_units_Z 120
_cell_length_a 13.353596
_cell_length_b 25.088550
_cell_length_c 19.163799
_cell_angle_alpha 90.000000
_cell_angle_beta 90.000000
_cell_angle_gamma 90.000000
_cell_volume 6420.301185
_symmetry_space_group_name_H-M "C C C A"
_symmetry_group_IT_number 68
_space_group.IT_coordinate_system_code '2'
_symmetry_cell_setting 'orthorhombic'
loop_
_space_group_symop_operation_xyz
x,y,z
-x,1/2-y,z
x,1/2-y,1/2-z
-x,y,1/2-z
-x,-y,-z
x,1/2+y,-z
-x,1/2+y,1/2+z
x,-y,1/2+z
1/2+x,1/2+y,z
1/2-x,-y,z
1/2+x,-y,1/2-z
1/2-x,1/2+y,1/2-z
1/2-x,1/2-y,-z
1/2+x,y,-z
1/2-x,y,1/2+z
1/2+x,1/2-y,1/2+z
loop_
_atom_site_type_symbol
_atom_site_label
_atom_site_fract_x
_atom_site_fract_y
_atom_site_fract_z
Si Si1 0.250155 0.176813 0.541125
Si Si2 0.424089 0.097561 0.558734
Si Si3 0.447912 0.197537 0.325944
Si Si4 0.766360 0.783496 0.617491
Si Si5 0.000000 0.546259 0.750000
Si Si6 0.631693 0.007322 0.365381
Si Si7 0.447495 0.617791 0.922550
Si Si8 0.447991 0.851413 0.318500
O O1 0.318101 0.125070 0.547008
O O2 0.258714 0.194997 0.460563
O O3 0.284290 0.221546 0.597343
O O4 0.136766 0.160946 0.557668
O O5 0.405332 0.036667 0.579014
O O6 0.493506 0.101762 0.491636
O O7 0.475728 0.132258 0.620209
O O8 0.500000 0.250000 0.358551
O O9 0.500000 0.192516 0.250000
O O10 0.329473 0.208249 0.332118
O O11 0.476532 0.145690 0.369383
O O12 0.859362 0.815651 0.650497
O O13 0.932821 0.509773 0.701424
O O14 0.925143 0.588593 0.788786
O O15 0.750000 0.000000 0.354251
O O16 0.604902 0.066521 0.389106
O O17 0.500000 0.825481 0.250000
#
# Coordination Sequence:
#
# PCOD9510205 Si02
#       8
#    16  16  16  16   8  16  16  16
#     4  11  23  38  69  99 126 172 214 263 331 393
#     4  11  22  43  64  97 132 163 214 276 322 386
#     4  11  25  42  61  94 136 170 206 267 323 386
#     4  11  22  42  67  97 131 174 218 261 329 402
#     4   8  22  44  62  95 129 168 214 280 328 382
#     4  11  23  41  68  92 126 172 221 270 330 389
#     4  12  23  41  68  96 127 169 219 266 327 386
#     4   9  21  42  68  89 135 167 211 275 328 379
#
# _framework density 18.690712000000001
#
# number of rings (size 3 to 8) (size 9 to 14) (size 15 to 20)
#    0.400    0.933    5.333    0.400    0.933    2.667 
#    0.000    0.667    0.000    0.000    0.000    0.000 
#    0.000    0.000    0.000    0.000    0.000    0.000 
#
# Total GULP energy -334442.057736 kJ/mol
# GULP energy per Si atom -5574.034296 kJ/mol
# Density = 1.864817 g / cm^3
# Si number density = 18.690712 Si / 1000 Ang^3
#
#
#
# Elastic Constant Matrix: (Units=GPa)
#
#
# Indices 1 2 3 4 5 6 
#
# 1 55.5692 20.1171 22.1254 0.0000 0.0000 0.0000
# 2 20.1171 74.6221 29.4203 0.0000 0.0000 0.0000
# 3 22.1254 29.4203 91.5480 0.0000 0.0000 0.0000
# 4 0.0000 0.0000 0.0000 1.0951 0.0000 0.0000
# 5 0.0000 0.0000 0.0000 0.0000 24.3973 0.0000
# 6 0.0000 0.0000 0.0000 0.0000 0.0000 38.9534
#
#
#
# Elastic Compliance Matrix: (Units=1/GPa)
#
#
# Indices 1 2 3 4 5 6 
#
# 1 0.020997 -0.004191 -0.003728 0.000000 0.000000 0.000000
# 2 -0.004191 0.016182 -0.004187 0.000000 0.000000 0.000000
# 3 -0.003728 -0.004187 0.013170 0.000000 0.000000 0.000000
# 4 0.000000 0.000000 0.000000 0.913169 0.000000 0.000000
# 5 0.000000 0.000000 0.000000 0.000000 0.040988 0.000000
# 6 0.000000 0.000000 0.000000 0.000000 0.000000 0.025672
#
#
# Mechanical properties :
#
#
# Convention : Reuss Voigt Hill
#
# Bulk Modulus (GPa) = 38.26069 40.56277 39.41173
# Shear Modulus (GPa) = 4.70322 22.89427 13.79874
#
# Velocity S-wave (km/s) = 1.58802 3.50366 2.72006
# Velocity P-wave (km/s) = 4.88644 6.17387 5.56749
#
# Compressibility (1/GPa) = 0.02613649
#
# Stress axis : x y z
#
# Youngs Moduli (GPa) = 47.62594 61.79890 75.93111
#
# Poissons Ratio (x) = 0.25899 0.28306
# Poissons Ratio (y) = 0.19959 0.31795
# Poissons Ratio (z) = 0.17754 0.25877
#
# Static dielectric constant tensor:
#      x y z
#    x 1.623730 0.000000 0.000000 
#    y 0.000000 1.646740 0.000000 
#    z 0.000000 0.000000 1.661100 
# 
# From -- ./inp_files/37886.got.cif
#   From: 2010.05.17/outbox.cif.g08.bks.cpg/sg68_19_cif.got.tgz:37886.got - 2010.06.03 18:57:09.
