data_PCOD9510605
_publ_section_title
;
Structure prediction by ZEFSAII (Michael W. Deem and Ramdas Pophale) SiO2 
 PCOD9510605
Probable space group: C C C A
;
_chemical_formula_sum "Si O2"
_cell_formula_units_Z 64
_cell_length_a 25.089275
_cell_length_b 10.293144
_cell_length_c 9.346334
_cell_angle_alpha 90.000000
_cell_angle_beta 90.000000
_cell_angle_gamma 90.000000
_cell_volume 2413.667581
_symmetry_space_group_name_H-M "C C C A"
_symmetry_group_IT_number 68
_space_group.IT_coordinate_system_code '2'
_symmetry_cell_setting 'orthorhombic'
loop_
_space_group_symop_operation_xyz
x,y,z
-x,1/2-y,z
x,1/2-y,1/2-z
-x,y,1/2-z
-x,-y,-z
x,1/2+y,-z
-x,1/2+y,1/2+z
x,-y,1/2+z
1/2+x,1/2+y,z
1/2-x,-y,z
1/2+x,-y,1/2-z
1/2-x,1/2+y,1/2-z
1/2-x,1/2-y,-z
1/2+x,y,-z
1/2-x,y,1/2+z
1/2+x,1/2-y,1/2+z
loop_
_atom_site_type_symbol
_atom_site_label
_atom_site_fract_x
_atom_site_fract_y
_atom_site_fract_z
Si Si1 0.660807 0.119521 0.794378
Si Si2 0.089963 0.307031 0.913840
Si Si3 0.310795 0.021906 0.971263
Si Si4 0.451476 0.907103 0.140346
O O1 0.688767 0.250000 0.750000
O O2 0.687802 0.012809 0.698155
O O3 0.661849 0.101344 0.960442
O O4 0.599575 0.112864 0.755244
O O5 0.093914 0.250000 0.750000
O O6 0.148724 0.364589 0.970559
O O7 0.055015 0.442421 0.911376
O O8 0.059548 0.199900 0.014555
O O9 0.250000 0.000000 0.018597
O O10 0.500000 0.893059 0.250000
#
# Coordination Sequence:
#
# PCOD9510605 Si02
#       4
#    16  16  16  16
#     4  11  25  48  74 118 163 220 285 348 422 530
#     4  11  28  55  89 133 176 229 306 365 431 547
#     4  11  26  49  80 119 167 221 281 357 440 510
#     4  11  28  57  87 125 179 238 288 369 447 513
#
# _framework density 26.515664000000001
#
# number of rings (size 3 to 8) (size 9 to 14) (size 15 to 20)
#    0.000    1.000    2.500    0.750   14.000    4.000 
#    9.000    1.250    0.000    0.000    0.000    0.000 
#    0.000    0.000    0.000    0.000    0.000    0.000 
#
# Total GULP energy -178218.993921 kJ/mol
# GULP energy per Si atom -5569.343560 kJ/mol
# Density = 2.645531 g / cm^3
# Si number density = 26.515664 Si / 1000 Ang^3
#
#
#
# Elastic Constant Matrix: (Units=GPa)
#
#
# Indices 1 2 3 4 5 6 
#
# 1 176.5577 41.3234 49.9924 0.0000 0.0000 0.0000
# 2 41.3234 199.1414 76.1017 0.0000 0.0000 0.0000
# 3 49.9924 76.1017 161.4541 0.0000 0.0000 0.0000
# 4 0.0000 0.0000 0.0000 56.5814 0.0000 0.0000
# 5 0.0000 0.0000 0.0000 0.0000 35.4011 0.0000
# 6 0.0000 0.0000 0.0000 0.0000 0.0000 1.9482
#
#
#
# Elastic Compliance Matrix: (Units=1/GPa)
#
#
# Indices 1 2 3 4 5 6 
#
# 1 0.006284 -0.000683 -0.001623 0.000000 0.000000 0.000000
# 2 -0.000683 0.006199 -0.002710 0.000000 0.000000 0.000000
# 3 -0.001623 -0.002710 0.007974 0.000000 0.000000 0.000000
# 4 0.000000 0.000000 0.000000 0.017674 0.000000 0.000000
# 5 0.000000 0.000000 0.000000 0.000000 0.028248 0.000000
# 6 0.000000 0.000000 0.000000 0.000000 0.000000 0.513293
#
#
# Mechanical properties :
#
#
# Convention : Reuss Voigt Hill
#
# Bulk Modulus (GPa) = 95.95073 96.88760 96.41916
# Shear Modulus (GPa) = 8.42915 43.43518 25.93216
#
# Velocity S-wave (km/s) = 1.78489 4.05173 3.13068
# Velocity P-wave (km/s) = 6.36496 7.64904 7.03635
#
# Compressibility (1/GPa) = 0.01042202
#
# Stress axis : x y z
#
# Youngs Moduli (GPa) = 159.14639 161.31267 125.40875
#
# Poissons Ratio (x) = 0.11025 0.20360
# Poissons Ratio (y) = 0.10877 0.33990
# Poissons Ratio (z) = 0.25837 0.43721
#
# Static dielectric constant tensor:
#      x y z
#    x 2.401300 0.000000 0.000000 
#    y 0.000000 2.288080 0.000000 
#    z 0.000000 0.000000 2.583750 
# 
# From -- ./inp_files/16920.got.cif
#   From: 2010.05.17/outbox.cif.g08.bks.cpg/sg68_9_cif.got.tgz:16920.got - 2010.06.03 18:57:09.
