data_PCOD9510374
_publ_section_title
;
Structure prediction by ZEFSAII (Michael W. Deem and Ramdas Pophale) SiO2 
 PCOD9510374
Probable space group: C C C A
;
_chemical_formula_sum "Si O2"
_cell_formula_units_Z 68
_cell_length_a 19.269365
_cell_length_b 13.964686
_cell_length_c 12.023838
_cell_angle_alpha 90.000000
_cell_angle_beta 90.000000
_cell_angle_gamma 90.000000
_cell_volume 3235.502162
_symmetry_space_group_name_H-M "C C C A"
_symmetry_group_IT_number 68
_space_group.IT_coordinate_system_code '2'
_symmetry_cell_setting 'orthorhombic'
loop_
_space_group_symop_operation_xyz
x,y,z
-x,1/2-y,z
x,1/2-y,1/2-z
-x,y,1/2-z
-x,-y,-z
x,1/2+y,-z
-x,1/2+y,1/2+z
x,-y,1/2+z
1/2+x,1/2+y,z
1/2-x,-y,z
1/2+x,-y,1/2-z
1/2-x,1/2+y,1/2-z
1/2-x,1/2-y,-z
1/2+x,y,-z
1/2-x,y,1/2+z
1/2+x,1/2-y,1/2+z
loop_
_atom_site_type_symbol
_atom_site_label
_atom_site_fract_x
_atom_site_fract_y
_atom_site_fract_z
Si Si1 0.779607 0.099184 0.479313
Si Si2 0.430111 0.902710 0.091816
Si Si3 0.000000 0.750000 0.750000
Si Si4 0.338912 0.275135 0.378480
Si Si5 0.480180 0.883201 0.623872
O O1 0.848101 0.080781 0.407390
O O2 0.718346 0.145032 0.407246
O O3 0.808401 0.180010 0.563012
O O4 0.750000 0.000000 0.529001
O O5 0.453335 0.818709 0.173663
O O6 0.462381 0.004224 0.125417
O O7 0.459798 0.876767 0.969015
O O8 0.344052 0.250000 0.250000
O O9 0.413147 0.321080 0.412798
O O10 0.500000 0.856501 0.750000
#
# Coordination Sequence:
#
# PCOD9510374 Si02
#       5
#    16  16   4  16  16
#     4  11  24  46  66  99 140 180 228 288 353 427
#     4  11  24  42  70 104 140 185 233 297 355 423
#     4  12  24  44  70 112 142 188 238 294 360 424
#     4  11  25  44  69 102 132 183 232 287 351 422
#     4  11  23  46  72 101 139 184 245 293 352 419
#
# _framework density 21.016829999999999
#
# number of rings (size 3 to 8) (size 9 to 14) (size 15 to 20)
#    0.000    0.941    3.529    2.824    1.647    3.294 
#    4.235    0.000    0.000    0.000    0.000    0.000 
#    0.000    0.000    0.000    0.000    0.000    0.000 
#
# Total GULP energy -189982.754753 kJ/mol
# GULP energy per Si atom -5587.728081 kJ/mol
# Density = 2.096899 g / cm^3
# Si number density = 21.016830 Si / 1000 Ang^3
#
#
#
# Elastic Constant Matrix: (Units=GPa)
#
#
# Indices 1 2 3 4 5 6 
#
# 1 144.6010 61.5500 19.4338 0.0000 0.0000 0.0000
# 2 61.5500 169.0496 44.0106 0.0000 0.0000 0.0000
# 3 19.4338 44.0106 55.0849 0.0000 0.0000 0.0000
# 4 0.0000 0.0000 0.0000 20.4150 0.0000 0.0000
# 5 0.0000 0.0000 0.0000 0.0000 36.9402 0.0000
# 6 0.0000 0.0000 0.0000 0.0000 0.0000 62.9137
#
#
#
# Elastic Compliance Matrix: (Units=1/GPa)
#
#
# Indices 1 2 3 4 5 6 
#
# 1 0.008202 -0.002819 -0.000641 0.000000 0.000000 0.000000
# 2 -0.002819 0.008438 -0.005747 0.000000 0.000000 0.000000
# 3 -0.000641 -0.005747 0.022972 0.000000 0.000000 0.000000
# 4 0.000000 0.000000 0.000000 0.048984 0.000000 0.000000
# 5 0.000000 0.000000 0.000000 0.000000 0.027071 0.000000
# 6 0.000000 0.000000 0.000000 0.000000 0.000000 0.015895
#
#
# Mechanical properties :
#
#
# Convention : Reuss Voigt Hill
#
# Bulk Modulus (GPa) = 47.17724 68.74714 57.96219
# Shear Modulus (GPa) = 31.83879 40.30318 36.07098
#
# Velocity S-wave (km/s) = 3.89642 4.38386 4.14731
# Velocity P-wave (km/s) = 6.53750 7.64237 7.11142
#
# Compressibility (1/GPa) = 0.02119666
#
# Stress axis : x y z
#
# Youngs Moduli (GPa) = 121.92455 118.50973 43.53201
#
# Poissons Ratio (x) = 0.33412 0.02791
# Poissons Ratio (y) = 0.34375 0.25018
# Poissons Ratio (z) = 0.07816 0.68108
#
# Static dielectric constant tensor:
#      x y z
#    x 1.730110 0.000000 0.000000 
#    y 0.000000 1.779970 0.000000 
#    z 0.000000 0.000000 1.731250 
# 
# From -- ./inp_files/15249.got.cif
#   From: 2010.05.17/outbox.cif.g08.bks.cpg/sg68_8_cif.got.tgz:15249.got - 2010.06.03 18:57:09.
