data_PCOD9510632
_publ_section_title
;
Structure prediction by ZEFSAII (Michael W. Deem and Ramdas Pophale) SiO2 
 PCOD9510632
Probable space group: C C C A
;
_chemical_formula_sum "Si O2"
_cell_formula_units_Z 48
_cell_length_a 21.981442
_cell_length_b 10.467772
_cell_length_c 9.597671
_cell_angle_alpha 90.000000
_cell_angle_beta 90.000000
_cell_angle_gamma 90.000000
_cell_volume 2208.392646
_symmetry_space_group_name_H-M "C C C A"
_symmetry_group_IT_number 68
_space_group.IT_coordinate_system_code '2'
_symmetry_cell_setting 'orthorhombic'
loop_
_space_group_symop_operation_xyz
x,y,z
-x,1/2-y,z
x,1/2-y,1/2-z
-x,y,1/2-z
-x,-y,-z
x,1/2+y,-z
-x,1/2+y,1/2+z
x,-y,1/2+z
1/2+x,1/2+y,z
1/2-x,-y,z
1/2+x,-y,1/2-z
1/2-x,1/2+y,1/2-z
1/2-x,1/2-y,-z
1/2+x,y,-z
1/2-x,y,1/2+z
1/2+x,1/2-y,1/2+z
loop_
_atom_site_type_symbol
_atom_site_label
_atom_site_fract_x
_atom_site_fract_y
_atom_site_fract_z
Si Si1 0.864268 0.430520 0.932298
Si Si2 0.750000 0.000000 0.391212
Si Si3 0.070042 0.895639 0.710520
Si Si4 0.707928 0.750000 0.750000
O O1 0.888653 0.510158 0.801861
O O2 0.835376 0.300040 0.873679
O O3 0.809138 0.498853 0.012135
O O4 0.916248 0.412396 0.047455
O O5 0.747013 0.128779 0.299869
O O6 0.084792 0.750000 0.750000
O O7 0.000000 0.919059 0.750000
#
# Coordination Sequence:
#
# PCOD9510632 Si02
#       4
#    16   8  16   8
#     4  12  25  47  74 106 145 187 243 296 362 430
#     4  12  26  46  76 106 150 186 240 300 362 436
#     4  11  26  47  73 102 143 190 243 297 356 422
#     4  12  26  46  73 112 143 194 232 296 370 432
#
# _framework density 21.735265999999999
#
# number of rings (size 3 to 8) (size 9 to 14) (size 15 to 20)
#    0.000    0.333    3.333    5.000    2.333    0.000 
#    0.000    0.000    0.000    0.000    0.000    0.000 
#    0.000    0.000    0.000    0.000    0.000    0.000 
#
# Total GULP energy -134432.259048 kJ/mol
# GULP energy per Si atom -5601.344127 kJ/mol
# Density = 2.168580 g / cm^3
# Si number density = 21.735266 Si / 1000 Ang^3
#
#
#
# Elastic Constant Matrix: (Units=GPa)
#
#
# Indices 1 2 3 4 5 6 
#
# 1 49.6680 32.5867 15.7466 0.0000 0.0000 0.0000
# 2 32.5867 134.8010 42.4513 0.0000 0.0000 0.0000
# 3 15.7466 42.4513 119.5617 0.0000 0.0000 0.0000
# 4 0.0000 0.0000 0.0000 41.6406 0.0000 0.0000
# 5 0.0000 0.0000 0.0000 0.0000 38.4287 0.0000
# 6 0.0000 0.0000 0.0000 0.0000 0.0000 22.4457
#
#
#
# Elastic Compliance Matrix: (Units=1/GPa)
#
#
# Indices 1 2 3 4 5 6 
#
# 1 0.024092 -0.005432 -0.001244 0.000000 0.000000 0.000000
# 2 -0.005432 0.009577 -0.002685 0.000000 0.000000 0.000000
# 3 -0.001244 -0.002685 0.009481 0.000000 0.000000 0.000000
# 4 0.000000 0.000000 0.000000 0.024015 0.000000 0.000000
# 5 0.000000 0.000000 0.000000 0.000000 0.026022 0.000000
# 6 0.000000 0.000000 0.000000 0.000000 0.000000 0.044552
#
#
# Mechanical properties :
#
#
# Convention : Reuss Voigt Hill
#
# Bulk Modulus (GPa) = 40.93755 53.95554 47.44654
# Shear Modulus (GPa) = 30.37578 34.71941 32.54760
#
# Velocity S-wave (km/s) = 3.74242 4.00106 3.87390
# Velocity P-wave (km/s) = 6.12779 6.79871 6.47195
#
# Compressibility (1/GPa) = 0.02442745
#
# Stress axis : x y z
#
# Youngs Moduli (GPa) = 41.50729 104.41617 105.47327
#
# Poissons Ratio (x) = 0.56721 0.13124
# Poissons Ratio (y) = 0.22548 0.28319
# Poissons Ratio (z) = 0.05165 0.28035
#
# Static dielectric constant tensor:
#      x y z
#    x 1.784880 0.000000 0.000000 
#    y 0.000000 1.770470 0.000000 
#    z 0.000000 0.000000 1.790990 
# 
# From -- ./inp_files/3752.got.cif
#   From: 2010.05.17/outbox.cif.g08.bks.cpg/sg68_2_cif.got.tgz:3752.got - 2010.06.03 18:57:09.
