data_PCOD9510363
_publ_section_title
;
Structure prediction by ZEFSAII (Michael W. Deem and Ramdas Pophale) SiO2 
 PCOD9510363
Probable space group: C C C A
;
_chemical_formula_sum "Si O2"
_cell_formula_units_Z 92
_cell_length_a 20.102107
_cell_length_b 23.325857
_cell_length_c 8.588450
_cell_angle_alpha 90.000000
_cell_angle_beta 90.000000
_cell_angle_gamma 90.000000
_cell_volume 4027.114528
_symmetry_space_group_name_H-M "C C C A"
_symmetry_group_IT_number 68
_space_group.IT_coordinate_system_code '2'
_symmetry_cell_setting 'orthorhombic'
loop_
_space_group_symop_operation_xyz
x,y,z
-x,1/2-y,z
x,1/2-y,1/2-z
-x,y,1/2-z
-x,-y,-z
x,1/2+y,-z
-x,1/2+y,1/2+z
x,-y,1/2+z
1/2+x,1/2+y,z
1/2-x,-y,z
1/2+x,-y,1/2-z
1/2-x,1/2+y,1/2-z
1/2-x,1/2-y,-z
1/2+x,y,-z
1/2-x,y,1/2+z
1/2+x,1/2-y,1/2+z
loop_
_atom_site_type_symbol
_atom_site_label
_atom_site_fract_x
_atom_site_fract_y
_atom_site_fract_z
Si Si1 0.226831 0.111911 0.109457
Si Si2 0.126879 0.431994 0.840792
Si Si3 0.500000 0.750000 0.750000
Si Si4 0.500000 0.878450 0.250000
Si Si5 0.095024 0.050141 0.012949
Si Si6 0.086886 0.314735 0.001397
Si Si7 0.282059 0.699698 0.138076
O O1 0.291968 0.074522 0.157740
O O2 0.169161 0.071767 0.050566
O O3 0.198714 0.145713 0.256567
O O4 0.239556 0.164933 0.989464
O O5 0.091876 0.438454 0.672119
O O6 0.097865 0.483095 0.945877
O O7 0.110777 0.372302 0.919330
O O8 0.545409 0.784574 0.868596
O O9 0.457151 0.917024 0.126468
O O10 0.454694 0.836009 0.351684
O O11 0.150901 0.278523 0.056090
O O12 0.253601 0.750000 0.250000
#
# Coordination Sequence:
#
# PCOD9510363 Si02
#       7
#    16  16   4   8  16  16  16
#     4  11  23  45  69 105 143 185 236 298 358 438
#     4  11  26  45  72 106 147 184 245 298 363 427
#     4  12  28  48  76 100 152 204 236 298 350 422
#     4  12  26  46  76 102 148 182 244 292 352 442
#     4  12  25  43  75 104 145 193 232 299 364 429
#     4  11  27  47  71 107 142 193 246 294 355 430
#     4  11  24  44  71 104 143 185 243 300 363 416
#
# _framework density 22.845140000000001
#
# number of rings (size 3 to 8) (size 9 to 14) (size 15 to 20)
#    0.000    0.696    3.478    3.130    4.870    6.261 
#    6.261    0.000    0.000    0.000    0.000    0.000 
#    0.000    0.000    0.000    0.000    0.000    0.000 
#
# Total GULP energy -256943.331601 kJ/mol
# GULP energy per Si atom -5585.724600 kJ/mol
# Density = 2.279314 g / cm^3
# Si number density = 22.845140 Si / 1000 Ang^3
#
#
#
# Elastic Constant Matrix: (Units=GPa)
#
#
# Indices 1 2 3 4 5 6 
#
# 1 65.2588 8.2917 27.6144 0.0000 0.0000 0.0000
# 2 8.2917 58.3311 18.9164 0.0000 0.0000 0.0000
# 3 27.6144 18.9164 121.1784 0.0000 0.0000 0.0000
# 4 0.0000 0.0000 0.0000 43.6115 0.0000 0.0000
# 5 0.0000 0.0000 0.0000 0.0000 26.5668 0.0000
# 6 0.0000 0.0000 0.0000 0.0000 0.0000 16.9028
#
#
#
# Elastic Compliance Matrix: (Units=1/GPa)
#
#
# Indices 1 2 3 4 5 6 
#
# 1 0.017042 -0.001225 -0.003692 0.000000 0.000000 0.000000
# 2 -0.001225 0.018146 -0.002553 0.000000 0.000000 0.000000
# 3 -0.003692 -0.002553 0.009492 0.000000 0.000000 0.000000
# 4 0.000000 0.000000 0.000000 0.022930 0.000000 0.000000
# 5 0.000000 0.000000 0.000000 0.000000 0.037641 0.000000
# 6 0.000000 0.000000 0.000000 0.000000 0.000000 0.059162
#
#
# Mechanical properties :
#
#
# Convention : Reuss Voigt Hill
#
# Bulk Modulus (GPa) = 33.62687 39.37927 36.50307
# Shear Modulus (GPa) = 26.41777 30.07926 28.24851
#
# Velocity S-wave (km/s) = 3.40425 3.63252 3.52024
# Velocity P-wave (km/s) = 5.49576 5.90495 5.70403
#
# Compressibility (1/GPa) = 0.02973812
#
# Stress axis : x y z
#
# Youngs Moduli (GPa) = 58.67974 55.10941 105.34860
#
# Poissons Ratio (x) = 0.06751 0.38897
# Poissons Ratio (y) = 0.07189 0.26900
# Poissons Ratio (z) = 0.21666 0.14072
#
# Static dielectric constant tensor:
#      x y z
#    x 1.999310 0.000000 0.000000 
#    y 0.000000 -1.380120 0.000000 
#    z 0.000000 0.000000 1.902660 
# 
# From -- ./inp_files/7180.got.cif
#   From: 2010.05.17/outbox.cif.g08.bks.cpg/sg68_4_cif.got.tgz:7180.got - 2010.06.03 18:57:09.
