data_PCOD9510590
_publ_section_title
;
Structure prediction by ZEFSAII (Michael W. Deem and Ramdas Pophale) SiO2 
 PCOD9510590
Probable space group: C C C A
;
_chemical_formula_sum "Si O2"
_cell_formula_units_Z 64
_cell_length_a 9.189212
_cell_length_b 21.110003
_cell_length_c 13.495834
_cell_angle_alpha 90.000000
_cell_angle_beta 90.000000
_cell_angle_gamma 90.000000
_cell_volume 2617.979815
_symmetry_space_group_name_H-M "C C C A"
_symmetry_group_IT_number 68
_space_group.IT_coordinate_system_code '2'
_symmetry_cell_setting 'orthorhombic'
loop_
_space_group_symop_operation_xyz
x,y,z
-x,1/2-y,z
x,1/2-y,1/2-z
-x,y,1/2-z
-x,-y,-z
x,1/2+y,-z
-x,1/2+y,1/2+z
x,-y,1/2+z
1/2+x,1/2+y,z
1/2-x,-y,z
1/2+x,-y,1/2-z
1/2-x,1/2+y,1/2-z
1/2-x,1/2-y,-z
1/2+x,y,-z
1/2-x,y,1/2+z
1/2+x,1/2-y,1/2+z
loop_
_atom_site_type_symbol
_atom_site_label
_atom_site_fract_x
_atom_site_fract_y
_atom_site_fract_z
Si Si1 0.691989 0.792777 0.608552
Si Si2 0.379058 0.049508 0.027689
Si Si3 0.504351 0.163996 0.918958
Si Si4 0.699218 0.653256 0.681356
O O1 0.649902 0.719692 0.630129
O O2 0.607682 0.821571 0.514764
O O3 0.869710 0.788519 0.600254
O O4 0.663556 0.835883 0.704333
O O5 0.367244 0.092360 0.126964
O O6 0.250000 0.000000 0.028609
O O7 0.374854 0.848917 0.164858
O O8 0.500000 0.000000 0.000000
O O9 0.404753 0.102926 0.944543
#
# Coordination Sequence:
#
# PCOD9510590 Si02
#       4
#    16  16  16  16
#     4  11  26  44  77 114 149 196 255 320 407 447
#     4  12  25  46  75 105 150 201 258 304 373 465
#     4  12  23  46  76 105 150 200 251 322 385 462
#     4  11  25  46  74 112 156 194 256 323 385 474
#
# _framework density 24.446332000000002
#
# number of rings (size 3 to 8) (size 9 to 14) (size 15 to 20)
#    0.000    0.500    5.000    2.250    3.500    3.000 
#    0.000    8.750    0.000    0.000    0.000    0.000 
#    0.000    0.000    0.000    0.000    0.000    0.000 
#
# Total GULP energy -178828.983460 kJ/mol
# GULP energy per Si atom -5588.405733 kJ/mol
# Density = 2.439069 g / cm^3
# Si number density = 24.446332 Si / 1000 Ang^3
#
#
#
# Elastic Constant Matrix: (Units=GPa)
#
#
# Indices 1 2 3 4 5 6 
#
# 1 142.4885 64.9688 67.8018 0.0000 0.0000 0.0000
# 2 64.9688 152.8013 48.1890 0.0000 0.0000 0.0000
# 3 67.8018 48.1890 77.1891 0.0000 0.0000 0.0000
# 4 0.0000 0.0000 0.0000 44.5821 0.0000 0.0000
# 5 0.0000 0.0000 0.0000 0.0000 43.1396 0.0000
# 6 0.0000 0.0000 0.0000 0.0000 0.0000 60.9224
#
#
#
# Elastic Compliance Matrix: (Units=1/GPa)
#
#
# Indices 1 2 3 4 5 6 
#
# 1 0.012698 -0.002343 -0.009691 0.000000 0.000000 0.000000
# 2 -0.002343 0.008581 -0.003299 0.000000 0.000000 0.000000
# 3 -0.009691 -0.003299 0.023527 0.000000 0.000000 0.000000
# 4 0.000000 0.000000 0.000000 0.022431 0.000000 0.000000
# 5 0.000000 0.000000 0.000000 0.000000 0.023181 0.000000
# 6 0.000000 0.000000 0.000000 0.000000 0.000000 0.016414
#
#
# Mechanical properties :
#
#
# Convention : Reuss Voigt Hill
#
# Bulk Modulus (GPa) = 70.72059 81.59977 76.16018
# Shear Modulus (GPa) = 35.15918 42.49678 38.82798
#
# Velocity S-wave (km/s) = 3.79650 4.17390 3.98967
# Velocity P-wave (km/s) = 6.94331 7.52863 7.24189
#
# Compressibility (1/GPa) = 0.01414015
#
# Stress axis : x y z
#
# Youngs Moduli (GPa) = 78.75546 116.53631 42.50379
#
# Poissons Ratio (x) = 0.27300 0.41190
# Poissons Ratio (y) = 0.18449 0.14024
# Poissons Ratio (z) = 0.76321 0.38450
#
# Static dielectric constant tensor:
#      x y z
#    x 1.684510 0.000000 0.000000 
#    y 0.000000 6.363270 0.000000 
#    z 0.000000 0.000000 1.956110 
# 
# From -- ./inp_files/19239.got.cif
#   From: 2010.05.17/outbox.cif.g08.bks.cpg/sg68_10_cif.got.tgz:19239.got - 2010.06.03 18:57:09.
