data_PCOD9510316
_publ_section_title
;
Structure prediction by ZEFSAII (Michael W. Deem and Ramdas Pophale) SiO2 
 PCOD9510316
Probable space group: C C C A
;
_chemical_formula_sum "Si O2"
_cell_formula_units_Z 96
_cell_length_a 23.824717
_cell_length_b 19.813062
_cell_length_c 9.737112
_cell_angle_alpha 90.000000
_cell_angle_beta 90.000000
_cell_angle_gamma 90.000000
_cell_volume 4596.312143
_symmetry_space_group_name_H-M "C C C A"
_symmetry_group_IT_number 68
_space_group.IT_coordinate_system_code '2'
_symmetry_cell_setting 'orthorhombic'
loop_
_space_group_symop_operation_xyz
x,y,z
-x,1/2-y,z
x,1/2-y,1/2-z
-x,y,1/2-z
-x,-y,-z
x,1/2+y,-z
-x,1/2+y,1/2+z
x,-y,1/2+z
1/2+x,1/2+y,z
1/2-x,-y,z
1/2+x,-y,1/2-z
1/2-x,1/2+y,1/2-z
1/2-x,1/2-y,-z
1/2+x,y,-z
1/2-x,y,1/2+z
1/2+x,1/2-y,1/2+z
loop_
_atom_site_type_symbol
_atom_site_label
_atom_site_fract_x
_atom_site_fract_y
_atom_site_fract_z
Si Si1 0.297090 0.950327 0.966108
Si Si2 0.907271 0.539096 0.889597
Si Si3 0.868078 0.188903 0.159640
Si Si4 0.261164 0.131720 0.717058
Si Si5 0.143470 0.811550 0.150377
Si Si6 0.944621 0.072678 0.816241
O O1 0.269140 0.918468 0.828067
O O2 0.250000 0.000000 0.023554
O O3 0.351970 0.995759 0.936633
O O4 0.299570 0.897779 0.092403
O O5 0.892033 0.612766 0.830690
O O6 0.934733 0.493580 0.774044
O O7 0.945076 0.552316 0.023999
O O8 0.891447 0.250000 0.250000
O O9 0.802708 0.178490 0.196614
O O10 0.874717 0.207708 0.001585
O O11 0.208786 0.169212 0.649418
O O12 0.133987 0.750000 0.250000
O O13 0.107767 0.876556 0.196203
O O14 0.000000 0.105275 0.750000
#
# Coordination Sequence:
#
# PCOD9510316 Si02
#       6
#    16  16  16  16  16  16
#     4  12  22  35  63  95 132 169 208 254 309 383
#     4  11  23  42  66  96 129 168 213 269 332 379
#     4  11  25  40  60  93 133 173 213 254 309 388
#     4  12  22  38  60  93 132 172 211 250 306 377
#     4  11  25  42  61  92 131 172 217 256 320 383
#     4  11  24  44  69  96 122 161 219 278 329 384
#
# _framework density 20.886309000000001
#
# number of rings (size 3 to 8) (size 9 to 14) (size 15 to 20)
#    0.000    0.667    5.000    3.500    2.333    3.000 
#    0.000    0.000    0.000    2.500    0.000    0.000 
#    0.000    0.000    0.000    0.000    0.000    0.000 
#
# Total GULP energy -268043.736850 kJ/mol
# GULP energy per Si atom -5584.244518 kJ/mol
# Density = 2.083877 g / cm^3
# Si number density = 20.886309 Si / 1000 Ang^3
#
#
#
# Elastic Constant Matrix: (Units=GPa)
#
#
# Indices 1 2 3 4 5 6 
#
# 1 56.2710 12.5793 14.1779 0.0000 0.0000 0.0000
# 2 12.5793 106.2001 62.8447 0.0000 0.0000 0.0000
# 3 14.1779 62.8447 89.7744 0.0000 0.0000 0.0000
# 4 0.0000 0.0000 0.0000 41.1160 0.0000 0.0000
# 5 0.0000 0.0000 0.0000 0.0000 17.9427 0.0000
# 6 0.0000 0.0000 0.0000 0.0000 0.0000 0.9882
#
#
#
# Elastic Compliance Matrix: (Units=1/GPa)
#
#
# Indices 1 2 3 4 5 6 
#
# 1 0.018546 -0.000791 -0.002375 0.000000 0.000000 0.000000
# 2 -0.000791 0.016109 -0.011152 0.000000 0.000000 0.000000
# 3 -0.002375 -0.011152 0.019321 0.000000 0.000000 0.000000
# 4 0.000000 0.000000 0.000000 0.024321 0.000000 0.000000
# 5 0.000000 0.000000 0.000000 0.000000 0.055733 0.000000
# 6 0.000000 0.000000 0.000000 0.000000 0.000000 1.011985
#
#
# Mechanical properties :
#
#
# Convention : Reuss Voigt Hill
#
# Bulk Modulus (GPa) = 39.46362 47.93880 43.70121
# Shear Modulus (GPa) = 4.22619 22.85229 13.53924
#
# Velocity S-wave (km/s) = 1.42401 3.31135 2.54881
# Velocity P-wave (km/s) = 4.65180 6.13369 5.44341
#
# Compressibility (1/GPa) = 0.02533980
#
# Stress axis : x y z
#
# Youngs Moduli (GPa) = 53.91864 62.07663 51.75785
#
# Poissons Ratio (x) = 0.04913 0.12293
# Poissons Ratio (y) = 0.04267 0.57720
# Poissons Ratio (z) = 0.12806 0.69227
#
# Static dielectric constant tensor:
#      x y z
#    x 1.757200 0.000000 0.000000 
#    y 0.000000 1.840660 0.000000 
#    z 0.000000 0.000000 3.472540 
# 
# From -- ./inp_files/7262.got.cif
#   From: 2010.05.17/outbox.cif.g08.bks.cpg/sg68_4_cif.got.tgz:7262.got - 2010.06.03 18:57:09.
