data_PCOD9510417
_publ_section_title
;
Structure prediction by ZEFSAII (Michael W. Deem and Ramdas Pophale) SiO2 
 PCOD9510417
Probable space group: C C C A
;
_chemical_formula_sum "Si O2"
_cell_formula_units_Z 80
_cell_length_a 10.927639
_cell_length_b 27.683031
_cell_length_c 11.613270
_cell_angle_alpha 90.000000
_cell_angle_beta 90.000000
_cell_angle_gamma 90.000000
_cell_volume 3513.132273
_symmetry_space_group_name_H-M "C C C A"
_symmetry_group_IT_number 68
_space_group.IT_coordinate_system_code '2'
_symmetry_cell_setting 'orthorhombic'
loop_
_space_group_symop_operation_xyz
x,y,z
-x,1/2-y,z
x,1/2-y,1/2-z
-x,y,1/2-z
-x,-y,-z
x,1/2+y,-z
-x,1/2+y,1/2+z
x,-y,1/2+z
1/2+x,1/2+y,z
1/2-x,-y,z
1/2+x,-y,1/2-z
1/2-x,1/2+y,1/2-z
1/2-x,1/2-y,-z
1/2+x,y,-z
1/2-x,y,1/2+z
1/2+x,1/2-y,1/2+z
loop_
_atom_site_type_symbol
_atom_site_label
_atom_site_fract_x
_atom_site_fract_y
_atom_site_fract_z
Si Si1 0.681555 0.250000 0.750000
Si Si2 0.162435 0.927221 0.583969
Si Si3 0.500000 0.750000 0.057908
Si Si4 0.500000 0.989432 0.250000
Si Si5 0.190003 0.150401 0.699416
Si Si6 0.956114 0.654932 0.435012
Si Si7 0.750000 0.000000 0.102316
O O1 0.599721 0.271037 0.854004
O O2 0.750054 0.296580 0.700730
O O3 0.067282 0.962473 0.645224
O O4 0.231295 0.897693 0.684489
O O5 0.089783 0.884693 0.521602
O O6 0.245529 0.955009 0.489390
O O7 0.560300 0.708792 0.981912
O O8 0.626139 0.007978 0.181228
O O9 0.116055 0.148235 0.817230
O O10 0.098248 0.149172 0.592272
#
# Coordination Sequence:
#
# PCOD9510417 Si02
#       7
#     8  16   8   8  16  16   8
#     4  11  24  41  70 100 148 191 256 295 378 450
#     4  12  26  47  76 109 149 198 250 318 390 465
#     4  11  24  41  68 102 144 195 248 305 372 450
#     4  12  28  48  82 111 152 193 260 314 402 486
#     4  11  25  43  67 106 144 196 249 310 367 460
#     4  11  25  42  67 103 145 189 250 305 374 446
#     4  12  28  54  82 114 154 202 254 336 408 474
#
# _framework density 22.771699999999999
#
# number of rings (size 3 to 8) (size 9 to 14) (size 15 to 20)
#    0.000    0.600    2.000    4.800    5.600    6.400 
#    0.000    0.000    0.000    0.000    0.000    0.000 
#    0.000    0.000    0.000    0.000    0.000    0.000 
#
# Total GULP energy -223235.025017 kJ/mol
# GULP energy per Si atom -5580.875625 kJ/mol
# Density = 2.271987 g / cm^3
# Si number density = 22.771700 Si / 1000 Ang^3
#
#
#
# Elastic Constant Matrix: (Units=GPa)
#
#
# Indices 1 2 3 4 5 6 
#
# 1 89.6025 33.1841 24.9897 0.0000 0.0000 0.0000
# 2 33.1841 93.4284 35.9129 0.0000 0.0000 0.0000
# 3 24.9897 35.9129 88.6624 0.0000 0.0000 0.0000
# 4 0.0000 0.0000 0.0000 -794.2344 0.0000 0.0000
# 5 0.0000 0.0000 0.0000 0.0000 78.4147 0.0000
# 6 0.0000 0.0000 0.0000 0.0000 0.0000 41.4213
#
#
#
# Elastic Compliance Matrix: (Units=1/GPa)
#
#
# Indices 1 2 3 4 5 6 
#
# 1 0.013190 -0.003856 -0.002156 0.000000 0.000000 0.000000
# 2 -0.003856 0.013805 -0.004505 0.000000 0.000000 0.000000
# 3 -0.002156 -0.004505 0.013711 0.000000 0.000000 0.000000
# 4 0.000000 0.000000 0.000000 -0.001259 0.000000 0.000000
# 5 0.000000 0.000000 0.000000 0.000000 0.012753 0.000000
# 6 0.000000 0.000000 0.000000 0.000000 0.000000 0.024142
#
#
# Mechanical properties :
#
#
# Convention : Reuss Voigt Hill
#
# Bulk Modulus (GPa) = 50.83291 51.09629 50.96460
# Shear Modulus (GPa) = 48.10864 -123.03925 -37.46530
#
# Velocity S-wave (km/s) = 4.60134 -7.35860 -4.06058
# Velocity P-wave (km/s) = 7.11345 7.05063 0.66699
#
# Compressibility (1/GPa) = 0.01967230
#
# Stress axis : x y z
#
# Youngs Moduli (GPa) = 75.81673 72.43966 72.93441
#
# Poissons Ratio (x) = 0.27934 0.15722
# Poissons Ratio (y) = 0.29236 0.32855
# Poissons Ratio (z) = 0.16343 0.32632
#
# Static dielectric constant tensor:
#      x y z
#    x 1.823070 0.000000 0.000000 
#    y 0.000000 1.817360 0.000000 
#    z 0.000000 0.000000 1.831800 
# 
# From -- ./inp_files/11998.got.cif
#   From: 2010.05.17/outbox.cif.g08.bks.cpg/sg68_6_cif.got.tgz:11998.got - 2010.06.03 18:57:09.
