data_PCOD9510078
_publ_section_title
;
Structure prediction by ZEFSAII (Michael W. Deem and Ramdas Pophale) SiO2 
 PCOD9510078
Probable space group: C C C A
;
_chemical_formula_sum "Si O2"
_cell_formula_units_Z 112
_cell_length_a 15.685215
_cell_length_b 10.905889
_cell_length_c 28.609044
_cell_angle_alpha 90.000000
_cell_angle_beta 90.000000
_cell_angle_gamma 90.000000
_cell_volume 4893.897790
_symmetry_space_group_name_H-M "C C C A"
_symmetry_group_IT_number 68
_space_group.IT_coordinate_system_code '2'
_symmetry_cell_setting 'orthorhombic'
loop_
_space_group_symop_operation_xyz
x,y,z
-x,1/2-y,z
x,1/2-y,1/2-z
-x,y,1/2-z
-x,-y,-z
x,1/2+y,-z
-x,1/2+y,1/2+z
x,-y,1/2+z
1/2+x,1/2+y,z
1/2-x,-y,z
1/2+x,-y,1/2-z
1/2-x,1/2+y,1/2-z
1/2-x,1/2-y,-z
1/2+x,y,-z
1/2-x,y,1/2+z
1/2+x,1/2-y,1/2+z
loop_
_atom_site_type_symbol
_atom_site_label
_atom_site_fract_x
_atom_site_fract_y
_atom_site_fract_z
Si Si1 0.400586 0.243871 0.544031
Si Si2 0.592355 0.606210 0.762453
Si Si3 0.547649 0.879250 0.900654
Si Si4 0.690780 0.602657 0.675090
Si Si5 0.148328 0.986256 0.012425
Si Si6 0.123096 0.544319 0.130560
Si Si7 0.724691 0.298893 0.877587
O O1 0.500000 0.250000 0.557894
O O2 0.375811 0.378717 0.524212
O O3 0.330616 0.223373 0.585091
O O4 0.389684 0.125265 0.509689
O O5 0.589641 0.750000 0.750000
O O6 0.500000 0.552058 0.750000
O O7 0.663473 0.560542 0.726446
O O8 0.609272 0.590267 0.816744
O O9 0.500000 0.750000 0.909217
O O10 0.604242 0.875143 0.853861
O O11 0.608933 0.927939 0.940608
O O12 0.467778 0.968186 0.893386
O O13 0.750000 0.500000 0.652379
O O14 0.748108 0.722684 0.667819
O O15 0.250000 0.000000 0.012716
O O16 0.186437 0.640088 0.104446
O O17 0.168325 0.415144 0.134462
#
# Coordination Sequence:
#
# PCOD9510078 Si02
#       7
#    16  16  16  16  16  16  16
#     4  12  27  52  75 107 147 196 245 308 379 458
#     4  11  21  41  69 105 138 185 247 304 355 426
#     4  12  22  44  72 104 141 192 248 301 363 444
#     4  12  25  41  71 105 147 190 245 308 362 431
#     4  12  28  47  77 109 147 186 249 308 376 444
#     4  11  24  42  71 103 141 190 237 296 370 442
#     4  11  25  44  70 102 147 186 236 296 376 439
#
# _framework density 22.885643000000002
#
# number of rings (size 3 to 8) (size 9 to 14) (size 15 to 20)
#    0.000    0.429    4.286    4.286    4.000    1.143 
#    0.000    0.000    0.000    0.857    0.000    0.000 
#    0.000    0.000    0.000    0.000    0.000    0.000 
#
# Total GULP energy -313096.425516 kJ/mol
# GULP energy per Si atom -5591.007599 kJ/mol
# Density = 2.283355 g / cm^3
# Si number density = 22.885643 Si / 1000 Ang^3
#
#
#
# Elastic Constant Matrix: (Units=GPa)
#
#
# Indices 1 2 3 4 5 6 
#
# 1 169.1696 38.5255 43.5902 0.0000 0.0000 0.0000
# 2 38.5255 94.3464 2.3223 0.0000 0.0000 0.0000
# 3 43.5902 2.3223 86.7523 0.0000 0.0000 0.0000
# 4 0.0000 0.0000 0.0000 29.1127 0.0000 0.0000
# 5 0.0000 0.0000 0.0000 0.0000 34.3613 0.0000
# 6 0.0000 0.0000 0.0000 0.0000 0.0000 40.6959
#
#
#
# Elastic Compliance Matrix: (Units=1/GPa)
#
#
# Indices 1 2 3 4 5 6 
#
# 1 0.007549 -0.002991 -0.003713 0.000000 0.000000 0.000000
# 2 -0.002991 0.011791 0.001187 0.000000 0.000000 0.000000
# 3 -0.003713 0.001187 0.013361 0.000000 0.000000 0.000000
# 4 0.000000 0.000000 0.000000 0.034349 0.000000 0.000000
# 5 0.000000 0.000000 0.000000 0.000000 0.029102 0.000000
# 6 0.000000 0.000000 0.000000 0.000000 0.000000 0.024572
#
#
# Mechanical properties :
#
#
# Convention : Reuss Voigt Hill
#
# Bulk Modulus (GPa) = 46.15186 57.68268 51.91727
# Shear Modulus (GPa) = 35.97574 38.55602 37.26588
#
# Velocity S-wave (km/s) = 3.96912 4.10899 4.03966
# Velocity P-wave (km/s) = 6.41991 6.91167 6.67033
#
# Compressibility (1/GPa) = 0.02166760
#
# Stress axis : x y z
#
# Youngs Moduli (GPa) = 132.46417 84.80710 74.84458
#
# Poissons Ratio (x) = 0.25368 0.27791
# Poissons Ratio (y) = 0.39623 -0.08887
# Poissons Ratio (z) = 0.49186 -0.10070
#
# Static dielectric constant tensor:
#      x y z
#    x 1.861930 0.000000 0.000000 
#    y 0.000000 1.903290 0.000000 
#    z 0.000000 0.000000 1.894920 
# 
# From -- ./inp_files/55295.got.cif
#   From: 2010.05.17/outbox.cif.g08.bks.cpg/sg68_28_cif.got.tgz:55295.got - 2010.06.03 18:57:09.
