data_PCOD9510966
_publ_section_title
;
Structure prediction by ZEFSAII (Michael W. Deem and Ramdas Pophale) SiO2 
 PCOD9510966
Probable space group: C C C A
;
_chemical_formula_sum "Si O2"
_cell_formula_units_Z 32
_cell_length_a 12.000000
_cell_length_b 18.000000
_cell_length_c 15.000000
_cell_angle_alpha 90.000000
_cell_angle_beta 90.000000
_cell_angle_gamma 90.000000
_cell_volume 3240.000000
_symmetry_space_group_name_H-M "C C C A"
_symmetry_group_IT_number 68
_space_group.IT_coordinate_system_code '2'
_symmetry_cell_setting 'orthorhombic'
loop_
_space_group_symop_operation_xyz
x,y,z
-x,1/2-y,z
x,1/2-y,1/2-z
-x,y,1/2-z
-x,-y,-z
x,1/2+y,-z
-x,1/2+y,1/2+z
x,-y,1/2+z
1/2+x,1/2+y,z
1/2-x,-y,z
1/2+x,-y,1/2-z
1/2-x,1/2+y,1/2-z
1/2-x,1/2-y,-z
1/2+x,y,-z
1/2-x,y,1/2+z
1/2+x,1/2-y,1/2+z
loop_
_atom_site_type_symbol
_atom_site_label
_atom_site_fract_x
_atom_site_fract_y
_atom_site_fract_z
Si Si1 0.500000 0.250000 0.892055
Si Si2 0.824190 0.823583 0.485952
Si Si3 0.709809 0.417405 0.850519
Si Si4 0.000000 0.138742 0.250000
Si Si5 0.379028 0.164247 0.221796
O O1 0.440081 0.306279 0.822528
O O2 0.433177 0.198500 0.958559
O O3 0.750000 0.750000 0.500000
O O4 0.776510 0.888534 0.548161
O O5 0.850698 0.841155 0.383420
O O6 0.750000 0.500000 0.846417
O O7 0.587104 0.407081 0.808083
O O8 0.786863 0.371145 0.784197
O O9 0.381274 0.250000 0.250000
O O10 0.500000 0.132694 0.250000
#
# Coordination Sequence:
#
# PCOD9510966 Si02
#       5
#     8  16  16   8  16
#     4   9  18  34  61  94 118 162 219 270 311 376
#     4  11  21  38  65  94 126 169 216 265 319 389
#     4  11  25  42  64  95 134 172 217 270 333 390
#     4   9  20  38  62  88 127 172 218 270 325 392
#     4  11  23  41  67  98 129 171 219 274 324 386
#
# _framework density 9.8765429999999999
#
# number of rings (size 3 to 8) (size 9 to 14) (size 15 to 20)
#    0.000    1.500    2.500    3.000    5.250    1.000 
#    0.000    1.250    0.000    0.000    0.000    0.000 
#    0.000    0.000    0.000    0.000    0.000    0.000 
#
# Total GULP energy -178205.030741 kJ/mol
# GULP energy per Si atom -5568.907211 kJ/mol
# Density = 0.985406 g / cm^3
# Si number density = 9.876543 Si / 1000 Ang^3
#
#
#
# Elastic Constant Matrix: (Units=GPa)
#
#
# Indices 1 2 3 4 5 6 
#
# 1 64.6303 30.5716 47.6028 0.0000 0.0000 0.0000
# 2 30.5716 77.8641 36.8520 0.0000 0.0000 0.0000
# 3 47.6028 36.8520 197.6986 0.0000 0.0000 0.0000
# 4 0.0000 0.0000 0.0000 16.4919 0.0000 0.0000
# 5 0.0000 0.0000 0.0000 0.0000 28.8809 0.0000
# 6 0.0000 0.0000 0.0000 0.0000 0.0000 16.5768
#
#
#
# Elastic Compliance Matrix: (Units=1/GPa)
#
#
# Indices 1 2 3 4 5 6 
#
# 1 0.021488 -0.006568 -0.003950 0.000000 0.000000 0.000000
# 2 -0.006568 0.016093 -0.001418 0.000000 0.000000 0.000000
# 3 -0.003950 -0.001418 0.006274 0.000000 0.000000 0.000000
# 4 0.000000 0.000000 0.000000 0.060636 0.000000 0.000000
# 5 0.000000 0.000000 0.000000 0.000000 0.034625 0.000000
# 6 0.000000 0.000000 0.000000 0.000000 0.000000 0.060325
#
#
# Mechanical properties :
#
#
# Convention : Reuss Voigt Hill
#
# Bulk Modulus (GPa) = 50.04187 63.36065 56.70126
# Shear Modulus (GPa) = 21.74161 27.40103 24.57132
#
# Velocity S-wave (km/s) = 3.32123 3.72852 3.53076
# Velocity P-wave (km/s) = 6.33215 7.11912 6.73713
#
# Compressibility (1/GPa) = 0.01998327
#
# Stress axis : x y z
#
# Youngs Moduli (GPa) = 46.53664 62.13951 159.39630
#
# Poissons Ratio (x) = 0.40810 0.62959
# Poissons Ratio (y) = 0.30563 0.22609
# Poissons Ratio (z) = 0.18381 0.08814
#
# Static dielectric constant tensor:
#      x y z
#    x 1.816920 0.000000 0.000000 
#    y 0.000000 1.694860 0.000000 
#    z 0.000000 0.000000 1.840710 
# 
# From -- ./inp_files/14031.got.cif
#   From: 2010.05.17/outbox.ucp.g08.bks.cvg/sg68_8_cif.got.tgz:14031.got - 2010.06.11 16:49:25.
