data_PCOD9510816
_publ_section_title
;
Structure prediction by ZEFSAII (Michael W. Deem and Ramdas Pophale) SiO2 
 PCOD9510816
Probable space group: C C C A
;
_chemical_formula_sum "Si O2"
_cell_formula_units_Z 44
_cell_length_a 7.069905
_cell_length_b 8.171829
_cell_length_c 35.708487
_cell_angle_alpha 90.000000
_cell_angle_beta 90.000000
_cell_angle_gamma 90.000000
_cell_volume 2063.024081
_symmetry_space_group_name_H-M "C C C A"
_symmetry_group_IT_number 68
_space_group.IT_coordinate_system_code '2'
_symmetry_cell_setting 'orthorhombic'
loop_
_space_group_symop_operation_xyz
x,y,z
-x,1/2-y,z
x,1/2-y,1/2-z
-x,y,1/2-z
-x,-y,-z
x,1/2+y,-z
-x,1/2+y,1/2+z
x,-y,1/2+z
1/2+x,1/2+y,z
1/2-x,-y,z
1/2+x,-y,1/2-z
1/2-x,1/2+y,1/2-z
1/2-x,1/2-y,-z
1/2+x,y,-z
1/2-x,y,1/2+z
1/2+x,1/2-y,1/2+z
loop_
_atom_site_type_symbol
_atom_site_label
_atom_site_fract_x
_atom_site_fract_y
_atom_site_fract_z
Si Si1 0.750000 0.500000 0.607267
Si Si2 0.500000 0.750000 0.250000
Si Si3 0.750000 0.000000 0.700817
Si Si4 0.957935 0.561199 0.958115
Si Si5 0.000000 0.250000 0.847128
O O1 0.579595 0.484743 0.577782
O O2 0.826945 0.344966 0.631236
O O3 0.632166 0.630398 0.274608
O O4 0.602904 0.892983 0.676412
O O5 0.750000 0.500000 0.949689
O O6 0.000000 0.750000 0.961727
O O7 0.000000 0.500000 0.000000
#
# Coordination Sequence:
#
# PCOD9510816 Si02
#       5
#     8   4   8  16   8
#     4  12  28  45  69 100 146 204 232 312 380 432
#     4  12  24  48  84 108 146 188 240 288 352 414
#     4  12  26  49  77 116 146 192 236 294 350 444
#     4  12  26  44  69  98 135 186 259 317 371 430
#     4  12  28  47  72 110 157 190 240 290 377 450
#
# _framework density 21.327915000000001
#
# number of rings (size 3 to 8) (size 9 to 14) (size 15 to 20)
#    0.000    0.000    1.818    7.636   10.182    0.000 
#    0.000    0.000    0.000    0.000    0.000    0.000 
#    0.000    0.000    0.000    0.000    0.000    0.000 
#
# Total GULP energy -122784.118773 kJ/mol
# GULP energy per Si atom -5581.096308 kJ/mol
# Density = 2.127937 g / cm^3
# Si number density = 21.327915 Si / 1000 Ang^3
#
#
#
# Elastic Constant Matrix: (Units=GPa)
#
#
# Indices 1 2 3 4 5 6 
#
# 1 199.4871 83.3880 81.5759 0.0000 0.0000 0.0000
# 2 83.3880 155.7184 85.4863 0.0000 0.0000 0.0000
# 3 81.5759 85.4863 131.7252 0.0000 0.0000 0.0000
# 4 0.0000 0.0000 0.0000 48.3085 0.0000 0.0000
# 5 0.0000 0.0000 0.0000 0.0000 33.7431 0.0000
# 6 0.0000 0.0000 0.0000 0.0000 0.0000 58.9060
#
#
#
# Elastic Compliance Matrix: (Units=1/GPa)
#
#
# Indices 1 2 3 4 5 6 
#
# 1 0.007157 -0.002174 -0.003022 0.000000 0.000000 0.000000
# 2 -0.002174 0.010636 -0.005556 0.000000 0.000000 0.000000
# 3 -0.003022 -0.005556 0.013069 0.000000 0.000000 0.000000
# 4 0.000000 0.000000 0.000000 0.020700 0.000000 0.000000
# 5 0.000000 0.000000 0.000000 0.000000 0.029636 0.000000
# 6 0.000000 0.000000 0.000000 0.000000 0.000000 0.016976
#
#
# Mechanical properties :
#
#
# Convention : Reuss Voigt Hill
#
# Bulk Modulus (GPa) = 106.85491 109.75902 108.30696
# Shear Modulus (GPa) = 40.71733 43.95688 42.33711
#
# Velocity S-wave (km/s) = 4.37408 4.54475 4.46023
# Velocity P-wave (km/s) = 8.70171 8.89461 8.79869
#
# Compressibility (1/GPa) = 0.00935848
#
# Stress axis : x y z
#
# Youngs Moduli (GPa) = 139.71991 94.01684 76.51840
#
# Poissons Ratio (x) = 0.20439 0.23120
# Poissons Ratio (y) = 0.30374 0.42517
# Poissons Ratio (z) = 0.42217 0.52240
#
# Static dielectric constant tensor:
#      x y z
#    x 1.780620 0.000000 0.000000 
#    y 0.000000 1.767790 0.000000 
#    z 0.000000 0.000000 1.591670 
# 
# From -- ./inp_files/53630.got.cif
#   From: 2010.05.17/outbox.cif.g08.bks.cpg/sg68_27_cif.got.tgz:53630.got - 2010.06.03 18:57:09.
