data_PCOD9510060
_publ_section_title
;
Structure prediction by ZEFSAII (Michael W. Deem and Ramdas Pophale) SiO2 
 PCOD9510060
Probable space group: C C C A
;
_chemical_formula_sum "Si O2"
_cell_formula_units_Z 72
_cell_length_a 20.917483
_cell_length_b 8.548069
_cell_length_c 18.538895
_cell_angle_alpha 90.000000
_cell_angle_beta 90.000000
_cell_angle_gamma 90.000000
_cell_volume 3314.830213
_symmetry_space_group_name_H-M "C C C A"
_symmetry_group_IT_number 68
_space_group.IT_coordinate_system_code '2'
_symmetry_cell_setting 'orthorhombic'
loop_
_space_group_symop_operation_xyz
x,y,z
-x,1/2-y,z
x,1/2-y,1/2-z
-x,y,1/2-z
-x,-y,-z
x,1/2+y,-z
-x,1/2+y,1/2+z
x,-y,1/2+z
1/2+x,1/2+y,z
1/2-x,-y,z
1/2+x,-y,1/2-z
1/2-x,1/2+y,1/2-z
1/2-x,1/2-y,-z
1/2+x,y,-z
1/2-x,y,1/2+z
1/2+x,1/2-y,1/2+z
loop_
_atom_site_type_symbol
_atom_site_label
_atom_site_fract_x
_atom_site_fract_y
_atom_site_fract_z
Si Si1 0.131515 0.829264 0.319854
Si Si2 0.750000 0.500000 0.834781
Si Si3 0.186362 0.278484 0.048485
Si Si4 0.380711 0.047204 0.075108
Si Si5 0.505588 0.561638 0.834277
O O1 0.101017 0.750000 0.250000
O O2 0.144489 0.687910 0.374006
O O3 0.080936 0.953571 0.351848
O O4 0.195590 0.909900 0.292905
O O5 0.788172 0.618248 0.886067
O O6 0.159134 0.111981 0.073407
O O7 0.250000 0.250000 0.000000
O O8 0.132243 0.372426 0.002736
O O9 0.450974 0.006888 0.109519
O O10 0.500000 0.750000 0.841303
O O11 0.500000 0.508149 0.750000
#
# Coordination Sequence:
#
# PCOD9510060 Si02
#       5
#    16   8  16  16  16
#     4  11  22  42  66  97 134 176 227 282 343 407
#     4  12  26  40  64  96 142 174 228 276 336 406
#     4  12  22  41  65  97 140 175 221 281 335 408
#     4  11  21  39  72  95 128 180 225 275 344 400
#     4   9  17  39  68  93 125 172 224 276 337 402
#
# _framework density 21.720569999999999
#
# number of rings (size 3 to 8) (size 9 to 14) (size 15 to 20)
#    0.000    1.111    8.889    0.000    0.000    1.778 
#    0.000   18.889    0.000    1.333    0.000    0.000 
#    0.000    0.000    0.000    0.000    0.000    0.000 
#
# Total GULP energy -200464.819388 kJ/mol
# GULP energy per Si atom -5568.467205 kJ/mol
# Density = 2.167113 g / cm^3
# Si number density = 21.720570 Si / 1000 Ang^3
#
#
#
# Elastic Constant Matrix: (Units=GPa)
#
#
# Indices 1 2 3 4 5 6 
#
# 1 167.0516 50.7022 35.1943 0.0000 0.0000 0.0000
# 2 50.7022 77.0878 9.8573 0.0000 0.0000 0.0000
# 3 35.1943 9.8573 44.4089 0.0000 0.0000 0.0000
# 4 0.0000 0.0000 0.0000 21.2166 0.0000 0.0000
# 5 0.0000 0.0000 0.0000 0.0000 47.0735 0.0000
# 6 0.0000 0.0000 0.0000 0.0000 0.0000 39.0968
#
#
#
# Elastic Compliance Matrix: (Units=1/GPa)
#
#
# Indices 1 2 3 4 5 6 
#
# 1 0.008726 -0.004997 -0.005806 0.000000 0.000000 0.000000
# 2 -0.004997 0.016213 0.000361 0.000000 0.000000 0.000000
# 3 -0.005806 0.000361 0.027039 0.000000 0.000000 0.000000
# 4 0.000000 0.000000 0.000000 0.047133 0.000000 0.000000
# 5 0.000000 0.000000 0.000000 0.000000 0.021243 0.000000
# 6 0.000000 0.000000 0.000000 0.000000 0.000000 0.025578
#
#
# Mechanical properties :
#
#
# Convention : Reuss Voigt Hill
#
# Bulk Modulus (GPa) = 32.16019 53.33956 42.74988
# Shear Modulus (GPa) = 28.21987 34.33033 31.27510
#
# Velocity S-wave (km/s) = 3.60838 3.97992 3.79870
# Velocity P-wave (km/s) = 5.67442 6.76241 6.24216
#
# Compressibility (1/GPa) = 0.03109434
#
# Stress axis : x y z
#
# Youngs Moduli (GPa) = 114.59947 61.68073 36.98320
#
# Poissons Ratio (x) = 0.30821 0.21474
# Poissons Ratio (y) = 0.57263 -0.01336
# Poissons Ratio (z) = 0.66540 -0.02229
#
# Static dielectric constant tensor:
#      x y z
#    x 1.152450 0.000000 0.000000 
#    y 0.000000 1.805920 0.000000 
#    z 0.000000 0.000000 1.872050 
# 
# From -- ./inp_files/40106.got.cif
#   From: 2010.05.17/outbox.cif.g08.bks.cpg/sg68_21_cif.got.tgz:40106.got - 2010.06.03 18:57:09.
