data_PCOD9510639
_publ_section_title
;
Structure prediction by ZEFSAII (Michael W. Deem and Ramdas Pophale) SiO2 
 PCOD9510639
Probable space group: C C C A
;
_chemical_formula_sum "Si O2"
_cell_formula_units_Z 56
_cell_length_a 9.858520
_cell_length_b 12.447730
_cell_length_c 17.723169
_cell_angle_alpha 90.000000
_cell_angle_beta 90.000000
_cell_angle_gamma 90.000000
_cell_volume 2174.919866
_symmetry_space_group_name_H-M "C C C A"
_symmetry_group_IT_number 68
_space_group.IT_coordinate_system_code '2'
_symmetry_cell_setting 'orthorhombic'
loop_
_space_group_symop_operation_xyz
x,y,z
-x,1/2-y,z
x,1/2-y,1/2-z
-x,y,1/2-z
-x,-y,-z
x,1/2+y,-z
-x,1/2+y,1/2+z
x,-y,1/2+z
1/2+x,1/2+y,z
1/2-x,-y,z
1/2+x,-y,1/2-z
1/2-x,1/2+y,1/2-z
1/2-x,1/2-y,-z
1/2+x,y,-z
1/2-x,y,1/2+z
1/2+x,1/2-y,1/2+z
loop_
_atom_site_type_symbol
_atom_site_label
_atom_site_fract_x
_atom_site_fract_y
_atom_site_fract_z
Si Si1 0.201573 0.714296 0.142115
Si Si2 0.875820 0.576337 0.215263
Si Si3 0.000000 0.250000 0.377565
Si Si4 0.874165 0.579391 0.507803
O O1 0.137204 0.834242 0.148279
O O2 0.136905 0.648501 0.209871
O O3 0.362757 0.708639 0.160783
O O4 0.168702 0.652957 0.064167
O O5 0.750000 0.500000 0.203381
O O6 0.000000 0.506100 0.250000
O O7 0.927470 0.160187 0.428968
O O8 0.750000 0.500000 0.524376
O O9 0.000000 0.500000 0.500000
#
# Coordination Sequence:
#
# PCOD9510639 Si02
#       4
#    16  16   8  16
#     4  11  26  49  73 113 158 194 272 322 393 479
#     4  11  28  48  80 109 151 212 260 335 391 468
#     4  12  28  45  78 117 156 198 256 332 392 488
#     4  12  27  48  77 113 157 208 255 323 402 474
#
# _framework density 25.748073999999999
#
# number of rings (size 3 to 8) (size 9 to 14) (size 15 to 20)
#    0.000    0.571    2.857    3.429    8.000    2.286 
#    0.000    0.000    0.000    0.000    0.000    0.000 
#    0.000    0.000    0.000    0.000    0.000    0.000 
#
# Total GULP energy -156438.635514 kJ/mol
# GULP energy per Si atom -5587.094125 kJ/mol
# Density = 2.568947 g / cm^3
# Si number density = 25.748074 Si / 1000 Ang^3
#
#
#
# Elastic Constant Matrix: (Units=GPa)
#
#
# Indices 1 2 3 4 5 6 
#
# 1 187.9308 32.4330 12.3549 0.0000 0.0000 0.0000
# 2 32.4330 126.6226 20.2278 0.0000 0.0000 0.0000
# 3 12.3549 20.2278 62.0006 0.0000 0.0000 0.0000
# 4 0.0000 0.0000 0.0000 -14.6354 0.0000 0.0000
# 5 0.0000 0.0000 0.0000 0.0000 7.4724 0.0000
# 6 0.0000 0.0000 0.0000 0.0000 0.0000 45.4700
#
#
#
# Elastic Compliance Matrix: (Units=1/GPa)
#
#
# Indices 1 2 3 4 5 6 
#
# 1 0.005594 -0.001324 -0.000683 0.000000 0.000000 0.000000
# 2 -0.001324 0.008645 -0.002557 0.000000 0.000000 0.000000
# 3 -0.000683 -0.002557 0.017099 0.000000 0.000000 0.000000
# 4 0.000000 0.000000 0.000000 -0.068328 0.000000 0.000000
# 5 0.000000 0.000000 0.000000 0.000000 0.133825 0.000000
# 6 0.000000 0.000000 0.000000 0.000000 0.000000 0.021993
#
#
# Mechanical properties :
#
#
# Convention : Reuss Voigt Hill
#
# Bulk Modulus (GPa) = 45.02127 56.28726 50.65427
# Shear Modulus (GPa) = 36.93871 28.43064 32.68468
#
# Velocity S-wave (km/s) = 3.79175 3.32653 3.56673
# Velocity P-wave (km/s) = 6.05748 6.05497 6.05622
#
# Compressibility (1/GPa) = 0.02221172
#
# Stress axis : x y z
#
# Youngs Moduli (GPa) = 178.74779 115.67389 58.48277
#
# Poissons Ratio (x) = 0.15314 0.03994
# Poissons Ratio (y) = 0.23664 0.14952
# Poissons Ratio (z) = 0.12207 0.29574
#
# Static dielectric constant tensor:
#      x y z
#    x 0.828370 0.000000 0.000000 
#    y 0.000000 1.750600 0.000000 
#    z 0.000000 0.000000 2.097070 
# 
# From -- ./inp_files/36952.got.cif
#   From: 2010.05.17/outbox.cif.g08.bks.cpg/sg68_19_cif.got.tgz:36952.got - 2010.06.03 18:57:09.
