data_PCOD9510495
_publ_section_title
;
Structure prediction by ZEFSAII (Michael W. Deem and Ramdas Pophale) SiO2 
 PCOD9510495
Probable space group: C C C A
;
_chemical_formula_sum "Si O2"
_cell_formula_units_Z 64
_cell_length_a 11.135757
_cell_length_b 16.205124
_cell_length_c 12.735675
_cell_angle_alpha 90.000000
_cell_angle_beta 90.000000
_cell_angle_gamma 90.000000
_cell_volume 2298.233082
_symmetry_space_group_name_H-M "C C C A"
_symmetry_group_IT_number 68
_space_group.IT_coordinate_system_code '2'
_symmetry_cell_setting 'orthorhombic'
loop_
_space_group_symop_operation_xyz
x,y,z
-x,1/2-y,z
x,1/2-y,1/2-z
-x,y,1/2-z
-x,-y,-z
x,1/2+y,-z
-x,1/2+y,1/2+z
x,-y,1/2+z
1/2+x,1/2+y,z
1/2-x,-y,z
1/2+x,-y,1/2-z
1/2-x,1/2+y,1/2-z
1/2-x,1/2-y,-z
1/2+x,y,-z
1/2-x,y,1/2+z
1/2+x,1/2-y,1/2+z
loop_
_atom_site_type_symbol
_atom_site_label
_atom_site_fract_x
_atom_site_fract_y
_atom_site_fract_z
Si Si1 0.824090 0.416418 0.933983
Si Si2 0.824825 0.654161 0.217652
Si Si3 0.398992 0.319416 0.506319
Si Si4 0.938011 0.591059 0.653053
O O1 0.750000 0.500000 0.921709
O O2 0.868278 0.394821 0.818814
O O3 0.743245 0.334882 0.964630
O O4 0.905688 0.437647 0.034652
O O5 0.832561 0.750000 0.250000
O O6 0.891482 0.637140 0.107891
O O7 0.687163 0.628268 0.193232
O O8 0.500000 0.250000 0.480779
O O9 0.456529 0.347573 0.616832
O O10 0.000000 0.544464 0.750000
#
# Coordination Sequence:
#
# PCOD9510495 Si02
#       4
#    16  16  16  16
#     4  11  26  48  77 110 155 208 266 337 399 475
#     4  11  24  45  73 110 150 201 264 331 389 481
#     4  11  24  45  74 109 150 203 261 322 400 478
#     4  11  24  45  70 106 147 207 252 324 398 479
#
# _framework density 27.847480999999998
#
# number of rings (size 3 to 8) (size 9 to 14) (size 15 to 20)
#    0.000    1.000    2.500    3.000    0.000   12.500 
#    0.000    0.000    0.000    0.000    0.000    0.000 
#    0.000    0.000    0.000    0.000    0.000    0.000 
#
# Total GULP energy -178207.853446 kJ/mol
# GULP energy per Si atom -5568.995420 kJ/mol
# Density = 2.778410 g / cm^3
# Si number density = 27.847481 Si / 1000 Ang^3
#
#
#
# Elastic Constant Matrix: (Units=GPa)
#
#
# Indices 1 2 3 4 5 6 
#
# 1 132.9066 22.0437 82.5881 0.0000 0.0000 0.0000
# 2 22.0437 92.2793 60.4056 0.0000 0.0000 0.0000
# 3 82.5881 60.4056 283.1690 0.0000 0.0000 0.0000
# 4 0.0000 0.0000 0.0000 3.2826 0.0000 0.0000
# 5 0.0000 0.0000 0.0000 0.0000 1396.8754 0.0000
# 6 0.0000 0.0000 0.0000 0.0000 0.0000 35.1861
#
#
#
# Elastic Compliance Matrix: (Units=1/GPa)
#
#
# Indices 1 2 3 4 5 6 
#
# 1 0.009210 -0.000513 -0.002577 0.000000 0.000000 0.000000
# 2 -0.000513 0.012624 -0.002543 0.000000 0.000000 0.000000
# 3 -0.002577 -0.002543 0.004826 0.000000 0.000000 0.000000
# 4 0.000000 0.000000 0.000000 0.304640 0.000000 0.000000
# 5 0.000000 0.000000 0.000000 0.000000 0.000716 0.000000
# 6 0.000000 0.000000 0.000000 0.000000 0.000000 0.028420
#
#
# Mechanical properties :
#
#
# Convention : Reuss Voigt Hill
#
# Bulk Modulus (GPa) = 64.96384 93.15887 79.06135
# Shear Modulus (GPa) = 13.26844 309.95665 161.61254
#
# Velocity S-wave (km/s) = 2.18518 10.56157 7.62633
# Velocity P-wave (km/s) = 5.45397 13.50018 10.29565
#
# Compressibility (1/GPa) = 0.01539318
#
# Stress axis : x y z
#
# Youngs Moduli (GPa) = 108.57247 79.21359 207.23206
#
# Poissons Ratio (x) = 0.04067 0.53399
# Poissons Ratio (y) = 0.05575 0.52704
# Poissons Ratio (z) = 0.27976 0.20146
#
# Static dielectric constant tensor:
#      x y z
#    x 1.187690 0.000000 0.000000 
#    y 0.000000 2.306830 0.000000 
#    z 0.000000 0.000000 2.056340 
# 
# From -- ./inp_files/11546.got.cif
#   From: 2010.05.17/outbox.cif.g08.bks.cpg/sg68_6_cif.got.tgz:11546.got - 2010.06.03 18:57:09.
