data_PCOD9510997
_publ_section_title
;
Structure prediction by ZEFSAII (Michael W. Deem and Ramdas Pophale) SiO2 
 PCOD9510997
Probable space group: F M M M
;
_chemical_formula_sum "Si O2"
_cell_formula_units_Z 120
_cell_length_a 28.119728
_cell_length_b 14.125019
_cell_length_c 13.894808
_cell_angle_alpha 90.000000
_cell_angle_beta 90.000000
_cell_angle_gamma 90.000000
_cell_volume 5518.902303
_symmetry_space_group_name_H-M "F M M M"
_symmetry_group_IT_number 69
_symmetry_cell_setting 'orthorhombic'
loop_
_space_group_symop_operation_xyz
x,y,z
-x,-y,z
x,-y,-z
-x,y,-z
-x,-y,-z
x,y,-z
-x,y,z
x,-y,z
x,1/2+y,1/2+z
-x,1/2-y,1/2+z
x,1/2-y,1/2-z
-x,1/2+y,1/2-z
-x,1/2-y,1/2-z
x,1/2+y,1/2-z
-x,1/2+y,1/2+z
x,1/2-y,1/2+z
1/2+x,y,1/2+z
1/2-x,-y,1/2+z
1/2+x,-y,1/2-z
1/2-x,y,1/2-z
1/2-x,-y,1/2-z
1/2+x,y,1/2-z
1/2-x,y,1/2+z
1/2+x,-y,1/2+z
1/2+x,1/2+y,z
1/2-x,1/2-y,z
1/2+x,1/2-y,-z
1/2-x,1/2+y,-z
1/2-x,1/2-y,-z
1/2+x,1/2+y,-z
1/2-x,1/2+y,z
1/2+x,1/2-y,z
loop_
_atom_site_type_symbol
_atom_site_label
_atom_site_fract_x
_atom_site_fract_y
_atom_site_fract_z
Si Si1 0.200714 0.858184 0.210889
Si Si2 0.500000 0.361126 0.781682
Si Si3 0.101617 0.142485 0.709925
Si Si4 0.828717 0.388583 0.500000
Si Si5 0.000000 0.185866 0.000000
Si Si6 0.400444 0.788104 0.000000
O O1 0.199793 0.750000 0.250000
O O2 0.250000 0.898432 0.250000
O O3 0.149782 0.898449 0.244897
O O4 0.200535 0.867206 0.096303
O O5 0.500000 0.250000 0.750000
O O6 0.449792 0.397848 0.740030
O O7 0.500000 0.368752 0.897952
O O8 0.099623 0.250000 0.750000
O O9 0.108090 0.152163 0.595927
O O10 0.843452 0.500000 0.500000
O O11 0.870511 0.309929 0.500000
O O12 0.954359 0.252899 0.000000
#
# Coordination Sequence:
#
# PCOD9510997 Si02
#       6
#    32  16  32  16   8  16
#     4  10  21  37  59  81 111 146 193 236 278 332
#     4  10  16  24  42  76 108 144 178 236 287 322
#     4  10  17  29  49  78 109 141 191 231 279 328
#     4  12  24  38  57  84 117 150 184 232 292 342
#     4  12  16  24  49  70 110 150 183 224 278 346
#     4  12  18  31  51  79 110 148 185 230 280 339
#
# _framework density 21.743454
#
# number of rings (size 3 to 8) (size 9 to 14) (size 15 to 20)
#    0.000    1.333   10.667    0.000    0.000    3.733 
#    0.000    0.333    0.000    0.000    0.000    0.000 
#    0.000    0.000    0.000   16.133    0.000    0.000 
#
# Total GULP energy -167371.525517 kJ/mol
# GULP energy per Si atom -5579.050851 kJ/mol
# Density = 2.169396 g / cm^3
# Si number density = 21.743454 Si / 1000 Ang^3
#
#
#
# Elastic Constant Matrix: (Units=GPa)
#
#
# Indices 1 2 3 4 5 6 
#
# 1 224.3684 25.2867 72.6631 0.0000 0.0000 0.0000
# 2 25.2867 107.5427 25.4710 0.0000 0.0000 0.0000
# 3 72.6631 25.4710 239.9546 0.0000 0.0000 0.0000
# 4 0.0000 0.0000 0.0000 -21.1450 0.0000 0.0000
# 5 0.0000 0.0000 0.0000 0.0000 24.6127 0.0000
# 6 0.0000 0.0000 0.0000 0.0000 0.0000 -32.2424
#
#
#
# Elastic Compliance Matrix: (Units=1/GPa)
#
#
# Indices 1 2 3 4 5 6 
#
# 1 0.005015 -0.000841 -0.001429 0.000000 0.000000 0.000000
# 2 -0.000841 0.009679 -0.000773 0.000000 0.000000 0.000000
# 3 -0.001429 -0.000773 0.004682 0.000000 0.000000 0.000000
# 4 0.000000 0.000000 0.000000 -0.047292 0.000000 0.000000
# 5 0.000000 0.000000 0.000000 0.000000 0.040629 0.000000
# 6 0.000000 0.000000 0.000000 0.000000 0.000000 -0.031015
#
#
# Mechanical properties :
#
#
# Convention : Reuss Voigt Hill
#
# Bulk Modulus (GPa) = 75.24065 90.96748 83.10406
# Shear Modulus (GPa) = -642.16528 24.14139 -309.01195
#
# Velocity S-wave (km/s) = -17.20402 3.33571 -11.93423
# Velocity P-wave (km/s) = 18.97259 7.53415 12.31250
#
# Compressibility (1/GPa) = 0.01329069
#
# Stress axis : x y z
#
# Youngs Moduli (GPa) = 199.41875 103.31290 213.56947
#
# Poissons Ratio (x) = 0.08684 0.30525
# Poissons Ratio (y) = 0.16762 0.16507
# Poissons Ratio (z) = 0.28503 0.07985
#
# Static dielectric constant tensor:
#      x y z
#    x 1.821110 0.000000 0.000000 
#    y 0.000000 1.784290 0.000000 
#    z 0.000000 0.000000 1.246600 
# 
# From -- ./inp_files/19339.got.cif
#   From: 2010.05.17/outbox.cif.g08.bks.cpg/sg69_10_cif.got.tgz:19339.got - 2010.06.03 19:29:58.
