data_PCOD9511845
_publ_section_title
;
Structure prediction by ZEFSAII (Michael W. Deem and Ramdas Pophale) SiO2 
 PCOD9511845
Probable space group: F M M M
;
_chemical_formula_sum "Si O2"
_cell_formula_units_Z 160
_cell_length_a 15.206031
_cell_length_b 32.625565
_cell_length_c 17.043197
_cell_angle_alpha 90.000000
_cell_angle_beta 90.000000
_cell_angle_gamma 90.000000
_cell_volume 8455.221260
_symmetry_space_group_name_H-M "F M M M"
_symmetry_group_IT_number 69
_symmetry_cell_setting 'orthorhombic'
loop_
_space_group_symop_operation_xyz
x,y,z
-x,-y,z
x,-y,-z
-x,y,-z
-x,-y,-z
x,y,-z
-x,y,z
x,-y,z
x,1/2+y,1/2+z
-x,1/2-y,1/2+z
x,1/2-y,1/2-z
-x,1/2+y,1/2-z
-x,1/2-y,1/2-z
x,1/2+y,1/2-z
-x,1/2+y,1/2+z
x,1/2-y,1/2+z
1/2+x,y,1/2+z
1/2-x,-y,1/2+z
1/2+x,-y,1/2-z
1/2-x,y,1/2-z
1/2-x,-y,1/2-z
1/2+x,y,1/2-z
1/2-x,y,1/2+z
1/2+x,-y,1/2+z
1/2+x,1/2+y,z
1/2-x,1/2-y,z
1/2+x,1/2-y,-z
1/2-x,1/2+y,-z
1/2-x,1/2-y,-z
1/2+x,1/2+y,-z
1/2-x,1/2+y,z
1/2+x,1/2-y,z
loop_
_atom_site_type_symbol
_atom_site_label
_atom_site_fract_x
_atom_site_fract_y
_atom_site_fract_z
Si Si1 0.144010 0.255041 0.085209
Si Si2 0.097149 0.845268 0.637132
Si Si3 0.899837 0.953269 0.095390
Si Si4 0.342324 0.691288 0.205828
Si Si5 0.724062 0.620666 0.093631
O O1 0.250000 0.250000 0.085853
O O2 0.119038 0.302458 0.093323
O O3 0.114739 0.229596 0.161338
O O4 0.112681 0.239833 0.000000
O O5 0.103013 0.831947 0.728110
O O6 0.173730 0.877183 0.617327
O O7 0.000000 0.859313 0.616496
O O8 0.828215 0.919864 0.119597
O O9 0.000000 0.942453 0.119371
O O10 0.881530 0.000000 0.120679
O O11 0.899535 0.953448 0.000000
O O12 0.250000 0.702248 0.250000
O O13 0.318129 0.659430 0.137401
O O14 0.716659 0.624996 0.000000
#
# Coordination Sequence:
#
# PCOD9511845 Si02
#       5
#    32  32  32  32  32
#     4  11  20  33  54  75  99 136 184 239 284 314
#     4  11  24  37  51  74 109 153 190 218 262 325
#     4   8  15  30  54  85 115 137 164 212 275 332
#     4  10  20  33  52  73 102 141 181 226 271 318
#     4  10  19  33  57  83 109 140 175 221 271 319
#
# _framework density 18.923217999999999
#
# number of rings (size 3 to 8) (size 9 to 14) (size 15 to 20)
#    0.000    2.000    4.000    2.400    0.000    4.000 
#    0.000    0.000    0.000    9.600    0.000    2.800 
#    0.000    0.000    0.000    0.000    0.000    0.000 
#
# Total GULP energy -223220.253844 kJ/mol
# GULP energy per Si atom -5580.506346 kJ/mol
# Density = 1.888015 g / cm^3
# Si number density = 18.923218 Si / 1000 Ang^3
#
#
#
# Elastic Constant Matrix: (Units=GPa)
#
#
# Indices 1 2 3 4 5 6 
#
# 1 116.3895 69.8715 17.1422 0.0000 0.0000 0.0000
# 2 69.8715 100.9267 24.2288 0.0000 0.0000 0.0000
# 3 17.1422 24.2288 93.6931 0.0000 0.0000 0.0000
# 4 0.0000 0.0000 0.0000 9.0420 0.0000 0.0000
# 5 0.0000 0.0000 0.0000 0.0000 4.4634 0.0000
# 6 0.0000 0.0000 0.0000 0.0000 0.0000 24.4149
#
#
#
# Elastic Compliance Matrix: (Units=1/GPa)
#
#
# Indices 1 2 3 4 5 6 
#
# 1 0.014702 -0.010164 -0.000062 0.000000 0.000000 0.000000
# 2 -0.010164 0.017590 -0.002689 0.000000 0.000000 0.000000
# 3 -0.000062 -0.002689 0.011380 0.000000 0.000000 0.000000
# 4 0.000000 0.000000 0.000000 0.110595 0.000000 0.000000
# 5 0.000000 0.000000 0.000000 0.000000 0.224043 0.000000
# 6 0.000000 0.000000 0.000000 0.000000 0.000000 0.040959
#
#
# Mechanical properties :
#
#
# Convention : Reuss Voigt Hill
#
# Bulk Modulus (GPa) = 56.04356 59.27715 57.66035
# Shear Modulus (GPa) = 11.08535 20.90186 15.99361
#
# Velocity S-wave (km/s) = 2.42297 3.32710 2.91036
# Velocity P-wave (km/s) = 6.12440 6.79357 6.46764
#
# Compressibility (1/GPa) = 0.01784326
#
# Stress axis : x y z
#
# Youngs Moduli (GPa) = 68.01597 56.85025 87.87465
#
# Poissons Ratio (x) = 0.57781 0.00542
# Poissons Ratio (y) = 0.69129 0.23631
# Poissons Ratio (z) = 0.00420 0.15288
#
# Static dielectric constant tensor:
#      x y z
#    x 1.697860 0.000000 0.000000 
#    y 0.000000 1.645500 0.000000 
#    z 0.000000 0.000000 1.704540 
# 
# From -- ./inp_files/23442.got.cif
#   From: 2010.05.17/outbox.cif.g08.bks.cpg/sg69_12_cif.got.tgz:23442.got - 2010.06.03 19:29:58.
