data_PCOD9511894
_publ_section_title
;
Structure prediction by ZEFSAII (Michael W. Deem and Ramdas Pophale) SiO2 
 PCOD9511894
Probable space group: F M M M
;
_chemical_formula_sum "Si O2"
_cell_formula_units_Z 176
_cell_length_a 24.501666
_cell_length_b 22.436864
_cell_length_c 14.797160
_cell_angle_alpha 90.000000
_cell_angle_beta 90.000000
_cell_angle_gamma 90.000000
_cell_volume 8134.598845
_symmetry_space_group_name_H-M "F M M M"
_symmetry_group_IT_number 69
_symmetry_cell_setting 'orthorhombic'
loop_
_space_group_symop_operation_xyz
x,y,z
-x,-y,z
x,-y,-z
-x,y,-z
-x,-y,-z
x,y,-z
-x,y,z
x,-y,z
x,1/2+y,1/2+z
-x,1/2-y,1/2+z
x,1/2-y,1/2-z
-x,1/2+y,1/2-z
-x,1/2-y,1/2-z
x,1/2+y,1/2-z
-x,1/2+y,1/2+z
x,1/2-y,1/2+z
1/2+x,y,1/2+z
1/2-x,-y,1/2+z
1/2+x,-y,1/2-z
1/2-x,y,1/2-z
1/2-x,-y,1/2-z
1/2+x,y,1/2-z
1/2-x,y,1/2+z
1/2+x,-y,1/2+z
1/2+x,1/2+y,z
1/2-x,1/2-y,z
1/2+x,1/2-y,-z
1/2-x,1/2+y,-z
1/2-x,1/2-y,-z
1/2+x,1/2+y,-z
1/2-x,1/2+y,z
1/2+x,1/2-y,z
loop_
_atom_site_type_symbol
_atom_site_label
_atom_site_fract_x
_atom_site_fract_y
_atom_site_fract_z
Si Si1 0.677743 0.243414 0.896371
Si Si2 0.933786 0.500000 0.897318
Si Si3 0.936885 0.895937 0.261134
Si Si4 0.642741 0.571202 0.899571
Si Si5 0.558639 0.786150 0.895671
Si Si6 0.241931 0.853235 0.152790
O O1 0.613605 0.249869 0.885070
O O2 0.701734 0.176527 0.883018
O O3 0.706320 0.292857 0.836109
O O4 0.690880 0.260028 0.000000
O O5 0.918612 0.443346 0.837338
O O6 0.000000 0.500000 0.903293
O O7 0.912776 0.500000 0.000000
O O8 0.895813 0.900705 0.177507
O O9 0.938665 0.834836 0.317107
O O10 0.000000 0.909797 0.233966
O O11 0.646630 0.500000 0.884242
O O12 0.702581 0.601720 0.898910
O O13 0.619289 0.580951 0.000000
O O14 0.500000 0.754595 0.888227
O O15 0.560710 0.811043 0.000000
O O16 0.250000 0.881418 0.250000
#
# Coordination Sequence:
#
# PCOD9511894 Si02
#       6
#    32  16  32  32  32  32
#     4  10  19  35  61  89 119 154 196 240 292 364
#     4   9  16  28  51  81 112 149 197 246 289 345
#     4  10  19  34  55  83 118 161 208 248 296 359
#     4  11  24  41  60  84 118 158 202 256 311 358
#     4   9  18  33  57  92 131 162 190 242 311 368
#     4  11  22  38  61  86 112 150 201 252 298 356
#
# _framework density 21.635978000000001
#
# number of rings (size 3 to 8) (size 9 to 14) (size 15 to 20)
#    0.000    1.909    0.909    4.909    0.000    2.909 
#    0.000    1.818    0.000    6.545    0.000    0.000 
#    0.000    0.000    0.000    0.000    0.000    0.000 
#
# Total GULP energy -245379.172474 kJ/mol
# GULP energy per Si atom -5576.799374 kJ/mol
# Density = 2.158673 g / cm^3
# Si number density = 21.635978 Si / 1000 Ang^3
#
#
#
# Elastic Constant Matrix: (Units=GPa)
#
#
# Indices 1 2 3 4 5 6 
#
# 1 119.1225 18.0515 28.6545 0.0000 0.0000 0.0000
# 2 18.0515 26.9565 15.0731 0.0000 0.0000 0.0000
# 3 28.6545 15.0731 120.2539 0.0000 0.0000 0.0000
# 4 0.0000 0.0000 0.0000 17.1997 0.0000 0.0000
# 5 0.0000 0.0000 0.0000 0.0000 118.1058 0.0000
# 6 0.0000 0.0000 0.0000 0.0000 0.0000 20.3402
#
#
#
# Elastic Compliance Matrix: (Units=1/GPa)
#
#
# Indices 1 2 3 4 5 6 
#
# 1 0.009620 -0.005549 -0.001597 0.000000 0.000000 0.000000
# 2 -0.005549 0.043094 -0.004079 0.000000 0.000000 0.000000
# 3 -0.001597 -0.004079 0.009208 0.000000 0.000000 0.000000
# 4 0.000000 0.000000 0.000000 0.058141 0.000000 0.000000
# 5 0.000000 0.000000 0.000000 0.000000 0.008467 0.000000
# 6 0.000000 0.000000 0.000000 0.000000 0.000000 0.049164
#
#
# Mechanical properties :
#
#
# Convention : Reuss Voigt Hill
#
# Bulk Modulus (GPa) = 25.33509 43.32122 34.32816
# Shear Modulus (GPa) = 23.44123 44.76605 34.10364
#
# Velocity S-wave (km/s) = 3.29513 4.55362 3.97450
# Velocity P-wave (km/s) = 5.11980 6.90750 6.07971
#
# Compressibility (1/GPa) = 0.03947094
#
# Stress axis : x y z
#
# Youngs Moduli (GPa) = 103.95349 23.20520 108.60698
#
# Poissons Ratio (x) = 0.12877 0.17341
# Poissons Ratio (y) = 0.57685 0.44304
# Poissons Ratio (z) = 0.16598 0.09466
#
# Static dielectric constant tensor:
#      x y z
#    x 1.830360 0.000000 0.000000 
#    y 0.000000 1.788160 0.000000 
#    z 0.000000 0.000000 1.799940 
# 
# From -- ./inp_files/17894.got.cif
#   From: 2010.05.17/outbox.cif.g08.bks.cpg/sg69_9_cif.got.tgz:17894.got - 2010.06.03 19:29:58.
