data_PCOD9511081
_publ_section_title
;
Structure prediction by ZEFSAII (Michael W. Deem and Ramdas Pophale) SiO2 
 PCOD9511081
Probable space group: F M M M
;
_chemical_formula_sum "Si O2"
_cell_formula_units_Z 128
_cell_length_a 14.193875
_cell_length_b 23.631370
_cell_length_c 22.618779
_cell_angle_alpha 90.000000
_cell_angle_beta 90.000000
_cell_angle_gamma 90.000000
_cell_volume 7586.806954
_symmetry_space_group_name_H-M "F M M M"
_symmetry_group_IT_number 69
_symmetry_cell_setting 'orthorhombic'
loop_
_space_group_symop_operation_xyz
x,y,z
-x,-y,z
x,-y,-z
-x,y,-z
-x,-y,-z
x,y,-z
-x,y,z
x,-y,z
x,1/2+y,1/2+z
-x,1/2-y,1/2+z
x,1/2-y,1/2-z
-x,1/2+y,1/2-z
-x,1/2-y,1/2-z
x,1/2+y,1/2-z
-x,1/2+y,1/2+z
x,1/2-y,1/2+z
1/2+x,y,1/2+z
1/2-x,-y,1/2+z
1/2+x,-y,1/2-z
1/2-x,y,1/2-z
1/2-x,-y,1/2-z
1/2+x,y,1/2-z
1/2-x,y,1/2+z
1/2+x,-y,1/2+z
1/2+x,1/2+y,z
1/2-x,1/2-y,z
1/2+x,1/2-y,-z
1/2-x,1/2+y,-z
1/2-x,1/2-y,-z
1/2+x,1/2+y,-z
1/2-x,1/2+y,z
1/2+x,1/2-y,z
loop_
_atom_site_type_symbol
_atom_site_label
_atom_site_fract_x
_atom_site_fract_y
_atom_site_fract_z
Si Si1 0.859556 0.764250 0.500000
Si Si2 0.112907 0.065434 0.629684
Si Si3 0.111219 0.600883 0.000000
Si Si4 0.220334 0.668593 0.817799
Si Si5 0.394204 0.725816 0.130811
O O1 0.750000 0.750000 0.500000
O O2 0.874866 0.831646 0.500000
O O3 0.897416 0.739115 0.561082
O O4 0.145854 0.075659 0.561815
O O5 0.170144 0.109452 0.669155
O O6 0.000000 0.077557 0.632571
O O7 0.126593 0.000000 0.645547
O O8 0.000000 0.588724 0.000000
O O9 0.250000 0.675029 0.750000
O O10 0.315739 0.678574 0.855525
O O11 0.148108 0.718052 0.837736
O O12 0.500000 0.713118 0.151673
#
# Coordination Sequence:
#
# PCOD9511081 Si02
#       5
#    16  32  16  32  32
#     4  12  18  31  55  82 113 139 166 214 273 329
#     4  10  20  35  57  82 107 137 176 226 278 322
#     4  10  17  30  52  80 109 131 161 213 275 326
#     4  11  23  36  52  76 108 148 185 221 260 312
#     4  11  21  35  55  81 110 142 177 218 271 324
#
# _framework density 16.871393000000001
#
# number of rings (size 3 to 8) (size 9 to 14) (size 15 to 20)
#    0.000    1.250    5.000    3.750    0.000    5.000 
#    0.000    0.000    0.000    0.750    0.000    0.000 
#    0.000    6.000    0.000    0.000    0.000    0.000 
#
# Total GULP energy -178560.007554 kJ/mol
# GULP energy per Si atom -5580.000236 kJ/mol
# Density = 1.683299 g / cm^3
# Si number density = 16.871393 Si / 1000 Ang^3
#
#
#
# Elastic Constant Matrix: (Units=GPa)
#
#
# Indices 1 2 3 4 5 6 
#
# 1 105.5010 37.0785 25.2405 0.0000 0.0000 0.0000
# 2 37.0785 75.0061 39.2980 0.0000 0.0000 0.0000
# 3 25.2405 39.2980 104.1186 0.0000 0.0000 0.0000
# 4 0.0000 0.0000 0.0000 0.8391 0.0000 0.0000
# 5 0.0000 0.0000 0.0000 0.0000 -3.5325 0.0000
# 6 0.0000 0.0000 0.0000 0.0000 0.0000 25.1670
#
#
#
# Elastic Compliance Matrix: (Units=1/GPa)
#
#
# Indices 1 2 3 4 5 6 
#
# 1 0.011525 -0.005277 -0.000802 0.000000 0.000000 0.000000
# 2 -0.005277 0.019035 -0.005905 0.000000 0.000000 0.000000
# 3 -0.000802 -0.005905 0.012028 0.000000 0.000000 0.000000
# 4 0.000000 0.000000 0.000000 1.191688 0.000000 0.000000
# 5 0.000000 0.000000 0.000000 0.000000 -0.283089 0.000000
# 6 0.000000 0.000000 0.000000 0.000000 0.000000 0.039735
#
#
# Mechanical properties :
#
#
# Convention : Reuss Voigt Hill
#
# Bulk Modulus (GPa) = 53.70889 54.20664 53.95776
# Shear Modulus (GPa) = 4.89670 16.69532 10.79601
#
# Velocity S-wave (km/s) = 1.70548 3.14915 2.53237
# Velocity P-wave (km/s) = 5.98177 6.73958 6.37195
#
# Compressibility (1/GPa) = 0.01861889
#
# Stress axis : x y z
#
# Youngs Moduli (GPa) = 86.76691 52.53547 83.14143
#
# Poissons Ratio (x) = 0.27723 0.06670
# Poissons Ratio (y) = 0.45787 0.49096
# Poissons Ratio (z) = 0.06960 0.31023
#
# Static dielectric constant tensor:
#      x y z
#    x 1.527660 0.000000 0.000000 
#    y 0.000000 1.555940 0.000000 
#    z 0.000000 0.000000 1.594190 
# 
# From -- ./inp_files/16358.got.cif
#   From: 2010.05.17/outbox.cif.g08.bks.cpg/sg69_9_cif.got.tgz:16358.got - 2010.06.03 19:29:58.
