data_PCOD9511737
_publ_section_title
;
Structure prediction by ZEFSAII (Michael W. Deem and Ramdas Pophale) SiO2 
 PCOD9511737
Probable space group: F M M M
;
_chemical_formula_sum "Si O2"
_cell_formula_units_Z 160
_cell_length_a 14.723274
_cell_length_b 24.735328
_cell_length_c 17.493877
_cell_angle_alpha 90.000000
_cell_angle_beta 90.000000
_cell_angle_gamma 90.000000
_cell_volume 6371.007799
_symmetry_space_group_name_H-M "F M M M"
_symmetry_group_IT_number 69
_symmetry_cell_setting 'orthorhombic'
loop_
_space_group_symop_operation_xyz
x,y,z
-x,-y,z
x,-y,-z
-x,y,-z
-x,-y,-z
x,y,-z
-x,y,z
x,-y,z
x,1/2+y,1/2+z
-x,1/2-y,1/2+z
x,1/2-y,1/2-z
-x,1/2+y,1/2-z
-x,1/2-y,1/2-z
x,1/2+y,1/2-z
-x,1/2+y,1/2+z
x,1/2-y,1/2+z
1/2+x,y,1/2+z
1/2-x,-y,1/2+z
1/2+x,-y,1/2-z
1/2-x,y,1/2-z
1/2-x,-y,1/2-z
1/2+x,y,1/2-z
1/2-x,y,1/2+z
1/2+x,-y,1/2+z
1/2+x,1/2+y,z
1/2-x,1/2-y,z
1/2+x,1/2-y,-z
1/2-x,1/2+y,-z
1/2-x,1/2-y,-z
1/2+x,1/2+y,-z
1/2-x,1/2+y,z
1/2+x,1/2-y,z
loop_
_atom_site_type_symbol
_atom_site_label
_atom_site_fract_x
_atom_site_fract_y
_atom_site_fract_z
Si Si1 0.388523 0.184915 0.292296
Si Si2 0.629311 0.000000 0.323595
Si Si3 0.389933 0.232916 0.916557
Si Si4 0.103806 0.893701 0.083312
Si Si5 0.657108 0.000000 0.153910
Si Si6 0.109204 0.620496 0.860431
O O1 0.500000 0.186497 0.285164
O O2 0.364560 0.243542 0.331181
O O3 0.351490 0.150669 0.364613
O O4 0.360778 0.145768 0.221879
O O5 0.598545 0.052153 0.368660
O O6 0.604329 0.000000 0.234999
O O7 0.737069 0.000000 0.329224
O O8 0.500000 0.237353 0.916513
O O9 0.365581 0.169788 0.915586
O O10 0.360529 0.256530 0.000000
O O11 0.000000 0.874309 0.074884
O O12 0.143341 0.902846 0.000000
O O13 0.639338 0.059603 0.119430
O O14 0.000000 0.617626 0.858433
#
# Coordination Sequence:
#
# PCOD9511737 Si02
#       6
#    32  16  32  32  16  32
#     4   9  16  28  51  83 114 139 170 219 281 343
#     4  11  22  36  51  73 110 147 187 227 274 329
#     4   9  17  30  49  78 114 145 177 225 280 328
#     4  10  19  32  55  87 117 143 173 221 289 353
#     4  11  23  37  53  74 105 149 196 236 268 316
#     4  10  19  33  55  81 109 145 190 234 273 319
#
# _framework density 25.113765000000001
#
# number of rings (size 3 to 8) (size 9 to 14) (size 15 to 20)
#    0.000    2.200    2.000    2.100    0.000    6.400 
#    0.000    2.500    0.000    3.600    0.000    2.800 
#    0.000    0.000    0.000    0.000    0.000    0.000 
#
# Total GULP energy -222796.117734 kJ/mol
# GULP energy per Si atom -5569.902943 kJ/mol
# Density = 2.505661 g / cm^3
# Si number density = 25.113765 Si / 1000 Ang^3
#
#
#
# Elastic Constant Matrix: (Units=GPa)
#
#
# Indices 1 2 3 4 5 6 
#
# 1 68.7278 0.5721 6.0487 0.0000 0.0000 0.0000
# 2 0.5721 138.7447 -18.4398 0.0000 0.0000 0.0000
# 3 6.0487 -18.4398 77.8441 0.0000 0.0000 0.0000
# 4 0.0000 0.0000 0.0000 25.3588 0.0000 0.0000
# 5 0.0000 0.0000 0.0000 0.0000 1.3672 0.0000
# 6 0.0000 0.0000 0.0000 0.0000 0.0000 89.6550
#
#
#
# Elastic Compliance Matrix: (Units=1/GPa)
#
#
# Indices 1 2 3 4 5 6 
#
# 1 0.014657 -0.000219 -0.001191 0.000000 0.000000 0.000000
# 2 -0.000219 0.007445 0.001781 0.000000 0.000000 0.000000
# 3 -0.001191 0.001781 0.013360 0.000000 0.000000 0.000000
# 4 0.000000 0.000000 0.000000 0.039434 0.000000 0.000000
# 5 0.000000 0.000000 0.000000 0.000000 0.731399 0.000000
# 6 0.000000 0.000000 0.000000 0.000000 0.000000 0.011154
#
#
# Mechanical properties :
#
#
# Convention : Reuss Voigt Hill
#
# Bulk Modulus (GPa) = 27.62068 29.07538 28.34803
# Shear Modulus (GPa) = 6.03300 43.08526 24.55913
#
# Velocity S-wave (km/s) = 1.55161 4.14648 3.13056
# Velocity P-wave (km/s) = 3.77254 5.87597 4.93756
#
# Compressibility (1/GPa) = 0.03620476
#
# Stress axis : x y z
#
# Youngs Moduli (GPa) = 68.22790 134.31777 74.84756
#
# Poissons Ratio (x) = 0.02937 0.08912
# Poissons Ratio (y) = 0.01492 -0.13327
# Poissons Ratio (z) = 0.08124 -0.23916
#
# Static dielectric constant tensor:
#      x y z
#    x 2.005170 0.000000 0.000000 
#    y 0.000000 2.149650 0.000000 
#    z 0.000000 0.000000 2.051840 
# 
# From -- ./inp_files/23184.got.cif
#   From: 2010.05.17/outbox.cif.g08.bks.cpg/sg69_12_cif.got.tgz:23184.got - 2010.06.03 19:29:58.
