data_PCOD9511320
_publ_section_title
;
Structure prediction by ZEFSAII (Michael W. Deem and Ramdas Pophale) SiO2 
 PCOD9511320
Probable space group: F M M M
;
_chemical_formula_sum "Si O2"
_cell_formula_units_Z 176
_cell_length_a 28.671725
_cell_length_b 16.769428
_cell_length_c 19.074200
_cell_angle_alpha 90.000000
_cell_angle_beta 90.000000
_cell_angle_gamma 90.000000
_cell_volume 9171.036118
_symmetry_space_group_name_H-M "F M M M"
_symmetry_group_IT_number 69
_symmetry_cell_setting 'orthorhombic'
loop_
_space_group_symop_operation_xyz
x,y,z
-x,-y,z
x,-y,-z
-x,y,-z
-x,-y,-z
x,y,-z
-x,y,z
x,-y,z
x,1/2+y,1/2+z
-x,1/2-y,1/2+z
x,1/2-y,1/2-z
-x,1/2+y,1/2-z
-x,1/2-y,1/2-z
x,1/2+y,1/2-z
-x,1/2+y,1/2+z
x,1/2-y,1/2+z
1/2+x,y,1/2+z
1/2-x,-y,1/2+z
1/2+x,-y,1/2-z
1/2-x,y,1/2-z
1/2-x,-y,1/2-z
1/2+x,y,1/2-z
1/2-x,y,1/2+z
1/2+x,-y,1/2+z
1/2+x,1/2+y,z
1/2-x,1/2-y,z
1/2+x,1/2-y,-z
1/2-x,1/2+y,-z
1/2-x,1/2-y,-z
1/2+x,1/2+y,-z
1/2-x,1/2+y,z
1/2+x,1/2-y,z
loop_
_atom_site_type_symbol
_atom_site_label
_atom_site_fract_x
_atom_site_fract_y
_atom_site_fract_z
Si Si1 0.944266 0.160530 0.661124
Si Si2 0.056678 0.000000 0.579867
Si Si3 0.802410 0.843805 0.728755
Si Si4 0.895065 0.408633 0.709595
Si Si5 0.800565 0.209061 0.578231
Si Si6 0.605117 0.195259 0.419198
O O1 0.929610 0.080036 0.620004
O O2 0.924365 0.148927 0.739048
O O3 0.923228 0.234214 0.618838
O O4 0.000000 0.165765 0.662941
O O5 0.073480 0.000000 0.500000
O O6 0.000000 0.000000 0.578333
O O7 0.808885 0.750000 0.750000
O O8 0.750000 0.865780 0.750000
O O9 0.841670 0.894332 0.767225
O O10 0.807864 0.847490 0.644780
O O11 0.909078 0.500000 0.719919
O O12 0.900484 0.381265 0.629707
O O13 0.802929 0.173002 0.500000
O O14 0.750000 0.250000 0.586637
O O15 0.841092 0.275399 0.581844
O O16 0.591085 0.185287 0.500000
#
# Coordination Sequence:
#
# PCOD9511320 Si02
#       6
#    32  16  32  32  32  32
#     4  11  22  40  64  91 121 156 200 251 309 373
#     4   9  18  34  58  90 124 153 185 237 313 380
#     4  11  18  35  60  86 118 158 206 260 309 366
#     4  12  24  39  59  87 125 165 210 258 306 368
#     4  10  18  31  56  87 117 151 193 247 307 364
#     4  11  23  39  61  89 119 159 210 257 304 363
#
# _framework density 19.190853000000001
#
# number of rings (size 3 to 8) (size 9 to 14) (size 15 to 20)
#    0.000    1.182    6.364    1.091    0.000    3.273 
#    0.000    0.000    0.000    0.000    0.000    2.545 
#    0.000    0.000    0.000    0.000    0.000    0.000 
#
# Total GULP energy -245792.811755 kJ/mol
# GULP energy per Si atom -5586.200267 kJ/mol
# Density = 1.914717 g / cm^3
# Si number density = 19.190853 Si / 1000 Ang^3
#
#
#
# Elastic Constant Matrix: (Units=GPa)
#
#
# Indices 1 2 3 4 5 6 
#
# 1 73.8157 15.9788 21.2141 0.0000 0.0000 0.0000
# 2 15.9788 50.4569 38.5014 0.0000 0.0000 0.0000
# 3 21.2141 38.5014 171.0679 0.0000 0.0000 0.0000
# 4 0.0000 0.0000 0.0000 23.4757 0.0000 0.0000
# 5 0.0000 0.0000 0.0000 0.0000 20.8435 0.0000
# 6 0.0000 0.0000 0.0000 0.0000 0.0000 15.8954
#
#
#
# Elastic Compliance Matrix: (Units=1/GPa)
#
#
# Indices 1 2 3 4 5 6 
#
# 1 0.014667 -0.003932 -0.000934 0.000000 0.000000 0.000000
# 2 -0.003932 0.024982 -0.005135 0.000000 0.000000 0.000000
# 3 -0.000934 -0.005135 0.007117 0.000000 0.000000 0.000000
# 4 0.000000 0.000000 0.000000 0.042597 0.000000 0.000000
# 5 0.000000 0.000000 0.000000 0.000000 0.047977 0.000000
# 6 0.000000 0.000000 0.000000 0.000000 0.000000 0.062911
#
#
# Mechanical properties :
#
#
# Convention : Reuss Voigt Hill
#
# Bulk Modulus (GPa) = 37.36312 49.63658 43.49985
# Shear Modulus (GPa) = 21.81738 26.68600 24.25169
#
# Velocity S-wave (km/s) = 3.37540 3.73306 3.55873
# Velocity P-wave (km/s) = 5.89089 6.67097 6.29303
#
# Compressibility (1/GPa) = 0.02676436
#
# Stress axis : x y z
#
# Youngs Moduli (GPa) = 68.18109 40.02809 140.50553
#
# Poissons Ratio (x) = 0.15740 0.13121
# Poissons Ratio (y) = 0.26810 0.72150
# Poissons Ratio (z) = 0.06367 0.20555
#
# Static dielectric constant tensor:
#      x y z
#    x 1.661830 0.000000 0.000000 
#    y 0.000000 1.631530 0.000000 
#    z 0.000000 0.000000 1.698240 
# 
# From -- ./inp_files/27665.got.cif
#   From: 2010.05.17/outbox.cif.g08.bks.cpg/sg69_14_cif.got.tgz:27665.got - 2010.06.03 19:29:58.
