data_PCOD9511847
_publ_section_title
;
Structure prediction by ZEFSAII (Michael W. Deem and Ramdas Pophale) SiO2 
 PCOD9511847
Probable space group: F M M M
;
_chemical_formula_sum "Si O2"
_cell_formula_units_Z 160
_cell_length_a 17.792071
_cell_length_b 24.738831
_cell_length_c 18.640646
_cell_angle_alpha 90.000000
_cell_angle_beta 90.000000
_cell_angle_gamma 90.000000
_cell_volume 8204.774241
_symmetry_space_group_name_H-M "F M M M"
_symmetry_group_IT_number 69
_symmetry_cell_setting 'orthorhombic'
loop_
_space_group_symop_operation_xyz
x,y,z
-x,-y,z
x,-y,-z
-x,y,-z
-x,-y,-z
x,y,-z
-x,y,z
x,-y,z
x,1/2+y,1/2+z
-x,1/2-y,1/2+z
x,1/2-y,1/2-z
-x,1/2+y,1/2-z
-x,1/2-y,1/2-z
x,1/2+y,1/2-z
-x,1/2+y,1/2+z
x,1/2-y,1/2+z
1/2+x,y,1/2+z
1/2-x,-y,1/2+z
1/2+x,-y,1/2-z
1/2-x,y,1/2-z
1/2-x,-y,1/2-z
1/2+x,y,1/2-z
1/2-x,y,1/2+z
1/2+x,-y,1/2+z
1/2+x,1/2+y,z
1/2-x,1/2-y,z
1/2+x,1/2-y,-z
1/2-x,1/2+y,-z
1/2-x,1/2-y,-z
1/2+x,1/2+y,-z
1/2-x,1/2+y,z
1/2+x,1/2-y,z
loop_
_atom_site_type_symbol
_atom_site_label
_atom_site_fract_x
_atom_site_fract_y
_atom_site_fract_z
Si Si1 0.699338 0.695811 0.083737
Si Si2 0.697076 0.857155 0.817583
Si Si3 0.083553 0.260381 0.165480
Si Si4 0.090888 0.063093 0.921988
Si Si5 0.087867 0.934740 0.239692
O O1 0.750000 0.750000 0.095375
O O2 0.745860 0.645615 0.115662
O O3 0.624027 0.710524 0.126461
O O4 0.686109 0.692032 0.000000
O O5 0.750000 0.839758 0.750000
O O6 0.633829 0.813714 0.838553
O O7 0.649770 0.909038 0.792307
O O8 0.079578 0.250000 0.250000
O O9 0.000000 0.268224 0.136566
O O10 0.108532 0.083198 0.841773
O O11 0.000000 0.064334 0.923066
O O12 0.113650 0.000000 0.922073
O O13 0.115292 0.085894 0.000000
O O14 0.000000 0.918651 0.253880
O O15 0.089917 0.000000 0.242324
#
# Coordination Sequence:
#
# PCOD9511847 Si02
#       5
#    32  32  32  32  32
#     4   9  19  35  56  82 113 147 183 226 279 342
#     4  11  20  33  54  80 111 151 190 234 286 345
#     4  10  19  33  57  85 111 143 184 229 281 340
#     4   7  10  20  41  68  99 136 177 224 278 328
#     4   9  18  32  51  77 109 148 199 252 294 338
#
# _framework density 19.500841999999999
#
# number of rings (size 3 to 8) (size 9 to 14) (size 15 to 20)
#    0.000    2.800    2.000    2.400    0.000    0.800 
#    0.000    1.000    0.000    2.400    0.000    1.400 
#    0.000    0.000    0.000    1.800    0.000    0.000 
#
# Total GULP energy -222715.832636 kJ/mol
# GULP energy per Si atom -5567.895816 kJ/mol
# Density = 1.945646 g / cm^3
# Si number density = 19.500842 Si / 1000 Ang^3
#
#
#
# Elastic Constant Matrix: (Units=GPa)
#
#
# Indices 1 2 3 4 5 6 
#
# 1 123.4819 47.3476 42.0316 0.0000 0.0000 0.0000
# 2 47.3476 58.6837 17.4644 0.0000 0.0000 0.0000
# 3 42.0316 17.4644 103.5256 0.0000 0.0000 0.0000
# 4 0.0000 0.0000 0.0000 13.8533 0.0000 0.0000
# 5 0.0000 0.0000 0.0000 0.0000 -135.9132 0.0000
# 6 0.0000 0.0000 0.0000 0.0000 0.0000 35.5665
#
#
#
# Elastic Compliance Matrix: (Units=1/GPa)
#
#
# Indices 1 2 3 4 5 6 
#
# 1 0.012930 -0.009339 -0.003674 0.000000 0.000000 0.000000
# 2 -0.009339 0.024686 -0.000373 0.000000 0.000000 0.000000
# 3 -0.003674 -0.000373 0.011214 0.000000 0.000000 0.000000
# 4 0.000000 0.000000 0.000000 0.072185 0.000000 0.000000
# 5 0.000000 0.000000 0.000000 0.000000 -0.007358 0.000000
# 6 0.000000 0.000000 0.000000 0.000000 0.000000 0.028116
#
#
# Mechanical properties :
#
#
# Convention : Reuss Voigt Hill
#
# Bulk Modulus (GPa) = 45.33389 55.48650 50.41019
# Shear Modulus (GPa) = 28.42556 -5.37550 11.52503
#
# Velocity S-wave (km/s) = 3.82207 -1.66209 2.43369
# Velocity P-wave (km/s) = 6.54028 4.98315 5.81408
#
# Compressibility (1/GPa) = 0.02205855
#
# Stress axis : x y z
#
# Youngs Moduli (GPa) = 77.34091 40.50846 89.17375
#
# Poissons Ratio (x) = 0.37829 0.32763
# Poissons Ratio (y) = 0.72226 0.03326
# Poissons Ratio (z) = 0.28416 0.01511
#
# Static dielectric constant tensor:
#      x y z
#    x 1.710790 0.000000 0.000000 
#    y 0.000000 1.733720 0.000000 
#    z 0.000000 0.000000 1.729150 
# 
# From -- ./inp_files/23135.got.cif
#   From: 2010.05.17/outbox.cif.g08.bks.cpg/sg69_12_cif.got.tgz:23135.got - 2010.06.03 19:29:58.
