data_PCOD9511433
_publ_section_title
;
Structure prediction by ZEFSAII (Michael W. Deem and Ramdas Pophale) SiO2 
 PCOD9511433
Probable space group: F M M M
;
_chemical_formula_sum "Si O2"
_cell_formula_units_Z 192
_cell_length_a 18.113505
_cell_length_b 28.112636
_cell_length_c 20.565795
_cell_angle_alpha 90.000000
_cell_angle_beta 90.000000
_cell_angle_gamma 90.000000
_cell_volume 10472.480664
_symmetry_space_group_name_H-M "F M M M"
_symmetry_group_IT_number 69
_symmetry_cell_setting 'orthorhombic'
loop_
_space_group_symop_operation_xyz
x,y,z
-x,-y,z
x,-y,-z
-x,y,-z
-x,-y,-z
x,y,-z
-x,y,z
x,-y,z
x,1/2+y,1/2+z
-x,1/2-y,1/2+z
x,1/2-y,1/2-z
-x,1/2+y,1/2-z
-x,1/2-y,1/2-z
x,1/2+y,1/2-z
-x,1/2+y,1/2+z
x,1/2-y,1/2+z
1/2+x,y,1/2+z
1/2-x,-y,1/2+z
1/2+x,-y,1/2-z
1/2-x,y,1/2-z
1/2-x,-y,1/2-z
1/2+x,y,1/2-z
1/2-x,y,1/2+z
1/2+x,-y,1/2+z
1/2+x,1/2+y,z
1/2-x,1/2-y,z
1/2+x,1/2-y,-z
1/2-x,1/2+y,-z
1/2-x,1/2-y,-z
1/2+x,1/2+y,-z
1/2-x,1/2+y,z
1/2+x,1/2-y,z
loop_
_atom_site_type_symbol
_atom_site_label
_atom_site_fract_x
_atom_site_fract_y
_atom_site_fract_z
Si Si1 0.167919 0.726392 0.000000
Si Si2 0.160319 0.696164 0.248739
Si Si3 0.658589 0.366276 0.871060
Si Si4 0.412892 0.173300 0.500000
Si Si5 0.830281 0.444888 0.726605
Si Si6 0.588198 0.554295 0.363412
Si Si7 0.666265 0.851065 0.112914
O O1 0.250000 0.750000 0.000000
O O2 0.156677 0.691526 0.938521
O O3 0.115585 0.772220 0.000000
O O4 0.133453 0.750000 0.250000
O O5 0.250000 0.697208 0.250000
O O6 0.136636 0.670279 0.314152
O O7 0.140135 0.668366 0.183227
O O8 0.644927 0.416654 0.836694
O O9 0.746214 0.361163 0.883667
O O10 0.617755 0.353390 0.936617
O O11 0.500000 0.172858 0.500000
O O12 0.819951 0.500000 0.710706
O O13 0.750000 0.425387 0.750000
O O14 0.883846 0.441368 0.788587
O O15 0.500000 0.558012 0.366805
O O16 0.609021 0.500000 0.384336
O O17 0.625573 0.598782 0.400223
#
# Coordination Sequence:
#
# PCOD9511433 Si02
#       7
#    16  32  32  16  32  32  32
#     4  12  24  42  67  90 122 169 215 255 314 395
#     4   9  17  28  53  86 117 146 201 266 309 352
#     4  11  19  37  59  89 120 165 212 261 310 367
#     4  12  28  44  61  88 130 173 208 258 322 381
#     4  10  18  33  62  96 125 158 208 262 313 376
#     4  10  21  37  59  93 133 164 200 264 338 386
#     4  11  20  36  63  92 119 163 215 261 313 383
#
# _framework density 18.333766000000001
#
# number of rings (size 3 to 8) (size 9 to 14) (size 15 to 20)
#    0.000    1.500    5.000    1.500    2.333    1.333 
#    0.000    0.833    0.000    5.500    0.000    0.000 
#    0.000    0.000    0.000    0.000    0.000    0.000 
#
# Total GULP energy -267858.540925 kJ/mol
# GULP energy per Si atom -5580.386269 kJ/mol
# Density = 1.829204 g / cm^3
# Si number density = 18.333766 Si / 1000 Ang^3
#
#
#
# Elastic Constant Matrix: (Units=GPa)
#
#
# Indices 1 2 3 4 5 6 
#
# 1 70.5389 45.2600 33.7105 0.0000 0.0000 0.0000
# 2 45.2600 158.0225 62.7374 0.0000 0.0000 0.0000
# 3 33.7105 62.7374 112.5682 0.0000 0.0000 0.0000
# 4 0.0000 0.0000 0.0000 48.9669 0.0000 0.0000
# 5 0.0000 0.0000 0.0000 0.0000 13.1716 0.0000
# 6 0.0000 0.0000 0.0000 0.0000 0.0000 17.8444
#
#
#
# Elastic Compliance Matrix: (Units=1/GPa)
#
#
# Indices 1 2 3 4 5 6 
#
# 1 0.018265 -0.003929 -0.003280 0.000000 0.000000 0.000000
# 2 -0.003929 0.008972 -0.003823 0.000000 0.000000 0.000000
# 3 -0.003280 -0.003823 0.011997 0.000000 0.000000 0.000000
# 4 0.000000 0.000000 0.000000 0.020422 0.000000 0.000000
# 5 0.000000 0.000000 0.000000 0.000000 0.075921 0.000000
# 6 0.000000 0.000000 0.000000 0.000000 0.000000 0.056040
#
#
# Mechanical properties :
#
#
# Convention : Reuss Voigt Hill
#
# Bulk Modulus (GPa) = 58.24735 69.39393 63.82064
# Shear Modulus (GPa) = 22.78898 29.29136 26.04017
#
# Velocity S-wave (km/s) = 3.52945 4.00143 3.77283
# Velocity P-wave (km/s) = 6.96052 7.69942 7.33928
#
# Compressibility (1/GPa) = 0.01716816
#
# Stress axis : x y z
#
# Youngs Moduli (GPa) = 54.74901 111.46326 83.35659
#
# Poissons Ratio (x) = 0.43796 0.27341
# Poissons Ratio (y) = 0.21512 0.31871
# Poissons Ratio (z) = 0.17957 0.42617
#
# Static dielectric constant tensor:
#      x y z
#    x 1.632200 0.000000 0.000000 
#    y 0.000000 1.663670 0.000000 
#    z 0.000000 0.000000 1.628980 
# 
# From -- ./inp_files/23754.got.cif
#   From: 2010.05.17/outbox.cif.g08.bks.cpg/sg69_12_cif.got.tgz:23754.got - 2010.06.03 19:29:58.
