data_PCOD9511957
_publ_section_title
;
Structure prediction by ZEFSAII (Michael W. Deem and Ramdas Pophale) SiO2 
 PCOD9511957
Probable space group: F M M M
;
_chemical_formula_sum "Si O2"
_cell_formula_units_Z 132
_cell_length_a 21.135660
_cell_length_b 16.709866
_cell_length_c 20.438401
_cell_angle_alpha 90.000000
_cell_angle_beta 90.000000
_cell_angle_gamma 90.000000
_cell_volume 7218.312784
_symmetry_space_group_name_H-M "F M M M"
_symmetry_group_IT_number 69
_symmetry_cell_setting 'orthorhombic'
loop_
_space_group_symop_operation_xyz
x,y,z
-x,-y,z
x,-y,-z
-x,y,-z
-x,-y,-z
x,y,-z
-x,y,z
x,-y,z
x,1/2+y,1/2+z
-x,1/2-y,1/2+z
x,1/2-y,1/2-z
-x,1/2+y,1/2-z
-x,1/2-y,1/2-z
x,1/2+y,1/2-z
-x,1/2+y,1/2+z
x,1/2-y,1/2+z
1/2+x,y,1/2+z
1/2-x,-y,1/2+z
1/2+x,-y,1/2-z
1/2-x,y,1/2-z
1/2-x,-y,1/2-z
1/2+x,y,1/2-z
1/2-x,y,1/2+z
1/2+x,-y,1/2+z
1/2+x,1/2+y,z
1/2-x,1/2-y,z
1/2+x,1/2-y,-z
1/2-x,1/2+y,-z
1/2-x,1/2-y,-z
1/2+x,1/2+y,-z
1/2-x,1/2+y,z
1/2+x,1/2-y,z
loop_
_atom_site_type_symbol
_atom_site_label
_atom_site_fract_x
_atom_site_fract_y
_atom_site_fract_z
Si Si1 0.614611 0.095127 0.341646
Si Si2 0.000000 0.167595 0.925279
Si Si3 0.249218 0.342984 0.170602
Si Si4 0.114187 0.904874 0.687735
Si Si5 0.500000 0.148668 0.103079
Si Si6 0.500000 0.500000 0.500000
O O1 0.562093 0.138076 0.385657
O O2 0.687698 0.116358 0.357300
O O3 0.609106 0.117515 0.264548
O O4 0.605281 0.000000 0.346896
O O5 0.000000 0.263712 0.927723
O O6 0.000000 0.136547 0.000000
O O7 0.250000 0.347179 0.250000
O O8 0.250000 0.250000 0.151853
O O9 0.182445 0.384578 0.156732
O O10 0.061396 0.858831 0.648257
O O11 0.103971 0.000000 0.684006
O O12 0.500000 0.071756 0.056007
#
# Coordination Sequence:
#
# PCOD9511957 Si02
#       6
#    32  16  32  32  16   4
#     4  10  21  37  58  88 121 152 195 235 284 341
#     4  12  26  40  58  80 115 161 200 242 283 335
#     4   9  17  31  54  86 120 148 182 234 293 340
#     4  10  19  34  61  90 115 148 185 241 293 343
#     4  12  23  40  62  83 114 145 197 239 295 350
#     4  12  24  44  60  80 114 156 178 242 292 368
#
# _framework density 18.286822000000001
#
# number of rings (size 3 to 8) (size 9 to 14) (size 15 to 20)
#    0.000    1.697    1.818    3.273    0.000    9.697 
#    0.000    0.000    2.667    2.182    0.000    0.000 
#    0.000    0.000    0.000    0.000    0.000    0.000 
#
# Total GULP energy -183830.507473 kJ/mol
# GULP energy per Si atom -5570.621439 kJ/mol
# Density = 1.824520 g / cm^3
# Si number density = 18.286822 Si / 1000 Ang^3
#
#
#
# Elastic Constant Matrix: (Units=GPa)
#
#
# Indices 1 2 3 4 5 6 
#
# 1 149.2416 44.1482 64.6733 0.0000 0.0000 0.0000
# 2 44.1482 81.0739 39.3598 0.0000 0.0000 0.0000
# 3 64.6733 39.3598 75.8503 0.0000 0.0000 0.0000
# 4 0.0000 0.0000 0.0000 -27.5823 0.0000 0.0000
# 5 0.0000 0.0000 0.0000 0.0000 4.5698 0.0000
# 6 0.0000 0.0000 0.0000 0.0000 0.0000 37.4355
#
#
#
# Elastic Compliance Matrix: (Units=1/GPa)
#
#
# Indices 1 2 3 4 5 6 
#
# 1 0.010840 -0.001892 -0.008261 0.000000 0.000000 0.000000
# 2 -0.001892 0.016819 -0.007114 0.000000 0.000000 0.000000
# 3 -0.008261 -0.007114 0.023919 0.000000 0.000000 0.000000
# 4 0.000000 0.000000 0.000000 -0.036255 0.000000 0.000000
# 5 0.000000 0.000000 0.000000 0.000000 0.218826 0.000000
# 6 0.000000 0.000000 0.000000 0.000000 0.000000 0.026713
#
#
# Mechanical properties :
#
#
# Convention : Reuss Voigt Hill
#
# Bulk Modulus (GPa) = 58.67346 66.94759 62.81053
# Shear Modulus (GPa) = 16.60709 13.41690 15.01199
#
# Velocity S-wave (km/s) = 3.01681 2.71161 2.86828
# Velocity P-wave (km/s) = 6.65505 6.81858 6.73731
#
# Compressibility (1/GPa) = 0.01704348
#
# Stress axis : x y z
#
# Youngs Moduli (GPa) = 92.24976 59.45810 41.80818
#
# Poissons Ratio (x) = 0.11252 0.34537
# Poissons Ratio (y) = 0.17458 0.29741
# Poissons Ratio (z) = 0.76205 0.42297
#
# Static dielectric constant tensor:
#      x y z
#    x 1.633200 0.000000 0.000000 
#    y 0.000000 1.619630 0.000000 
#    z 0.000000 0.000000 1.608580 
# 
# From -- ./inp_files/16425.got.cif
#   From: 2010.05.17/outbox.cif.g08.bks.cpg/sg69_9_cif.got.tgz:16425.got - 2010.06.03 19:29:58.
