data_PCOD9511897
_publ_section_title
;
Structure prediction by ZEFSAII (Michael W. Deem and Ramdas Pophale) SiO2 
 PCOD9511897
Probable space group: F M M M
;
_chemical_formula_sum "Si O2"
_cell_formula_units_Z 208
_cell_length_a 24.081406
_cell_length_b 27.930665
_cell_length_c 15.837198
_cell_angle_alpha 90.000000
_cell_angle_beta 90.000000
_cell_angle_gamma 90.000000
_cell_volume 10652.252738
_symmetry_space_group_name_H-M "F M M M"
_symmetry_group_IT_number 69
_symmetry_cell_setting 'orthorhombic'
loop_
_space_group_symop_operation_xyz
x,y,z
-x,-y,z
x,-y,-z
-x,y,-z
-x,-y,-z
x,y,-z
-x,y,z
x,-y,z
x,1/2+y,1/2+z
-x,1/2-y,1/2+z
x,1/2-y,1/2-z
-x,1/2+y,1/2-z
-x,1/2-y,1/2-z
x,1/2+y,1/2-z
-x,1/2+y,1/2+z
x,1/2-y,1/2+z
1/2+x,y,1/2+z
1/2-x,-y,1/2+z
1/2+x,-y,1/2-z
1/2-x,y,1/2-z
1/2-x,-y,1/2-z
1/2+x,y,1/2-z
1/2-x,y,1/2+z
1/2+x,-y,1/2+z
1/2+x,1/2+y,z
1/2-x,1/2-y,z
1/2+x,1/2-y,-z
1/2-x,1/2+y,-z
1/2-x,1/2-y,-z
1/2+x,1/2+y,-z
1/2-x,1/2+y,z
1/2+x,1/2-y,z
loop_
_atom_site_type_symbol
_atom_site_label
_atom_site_fract_x
_atom_site_fract_y
_atom_site_fract_z
Si Si1 0.000000 0.441861 0.096656
Si Si2 0.162829 0.212954 0.675381
Si Si3 0.939131 0.729289 0.599893
Si Si4 0.297036 0.447380 0.405449
Si Si5 0.741339 0.852197 0.648447
Si Si6 0.618602 0.353633 0.814845
Si Si7 0.900230 0.555093 0.780439
O O1 0.053182 0.428530 0.152547
O O2 0.000000 0.500000 0.091261
O O3 0.000000 0.423824 0.000000
O O4 0.180886 0.250000 0.750000
O O5 0.113923 0.238836 0.625053
O O6 0.215987 0.190920 0.627460
O O7 0.133036 0.169071 0.723467
O O8 0.939338 0.723889 0.500000
O O9 0.928641 0.678210 0.643647
O O10 0.000000 0.748537 0.626330
O O11 0.322283 0.445654 0.500000
O O12 0.269527 0.500000 0.397717
O O13 0.258621 0.401652 0.394173
O O14 0.343186 0.444566 0.333244
O O15 0.750000 0.857756 0.750000
O O16 0.676108 0.845054 0.634290
O O17 0.604590 0.408506 0.797100
O O18 0.911922 0.500000 0.755899
#
# Coordination Sequence:
#
# PCOD9511897 Si02
#       7
#    16  32  32  32  32  32  32
#     4   9  18  32  50  76 116 159 199 241 284 334
#     4   9  19  36  57  82 110 140 183 232 285 337
#     4  10  23  42  61  82 112 147 186 235 292 348
#     4  10  20  33  52  81 119 157 190 229 280 335
#     4  10  19  35  54  84 115 149 187 232 275 335
#     4  10  21  36  59  88 112 150 190 236 282 337
#     4  10  19  34  55  84 118 157 197 234 281 339
#
# _framework density 19.526385999999999
#
# number of rings (size 3 to 8) (size 9 to 14) (size 15 to 20)
#    0.000    2.231    3.077    0.462    1.077   13.846 
#    0.000    0.769    0.000    0.462    0.000    1.077 
#    0.000    0.000    0.000    0.000    0.000    0.000 
#
# Total GULP energy -289854.273567 kJ/mol
# GULP energy per Si atom -5574.120646 kJ/mol
# Density = 1.948194 g / cm^3
# Si number density = 19.526386 Si / 1000 Ang^3
#
#
#
# Elastic Constant Matrix: (Units=GPa)
#
#
# Indices 1 2 3 4 5 6 
#
# 1 99.9871 40.3474 26.7433 0.0000 0.0000 0.0000
# 2 40.3474 104.4301 22.5285 0.0000 0.0000 0.0000
# 3 26.7433 22.5285 28.1843 0.0000 0.0000 0.0000
# 4 0.0000 0.0000 0.0000 16.0360 0.0000 0.0000
# 5 0.0000 0.0000 0.0000 0.0000 17.3489 0.0000
# 6 0.0000 0.0000 0.0000 0.0000 0.0000 19.7548
#
#
#
# Elastic Compliance Matrix: (Units=1/GPa)
#
#
# Indices 1 2 3 4 5 6 
#
# 1 0.014195 -0.003116 -0.010979 0.000000 0.000000 0.000000
# 2 -0.003116 0.012255 -0.006839 0.000000 0.000000 0.000000
# 3 -0.010979 -0.006839 0.051365 0.000000 0.000000 0.000000
# 4 0.000000 0.000000 0.000000 0.062360 0.000000 0.000000
# 5 0.000000 0.000000 0.000000 0.000000 0.057641 0.000000
# 6 0.000000 0.000000 0.000000 0.000000 0.000000 0.050621
#
#
# Mechanical properties :
#
#
# Convention : Reuss Voigt Hill
#
# Bulk Modulus (GPa) = 27.81838 45.76000 36.78919
# Shear Modulus (GPa) = 16.54061 20.16008 18.35035
#
# Velocity S-wave (km/s) = 2.91364 3.21667 3.06890
# Velocity P-wave (km/s) = 5.05930 6.10588 5.60706
#
# Compressibility (1/GPa) = 0.03594745
#
# Stress axis : x y z
#
# Youngs Moduli (GPa) = 70.44682 81.59889 19.46853
#
# Poissons Ratio (x) = 0.25426 0.21374
# Poissons Ratio (y) = 0.21951 0.13315
# Poissons Ratio (z) = 0.77341 0.55807
#
# Static dielectric constant tensor:
#      x y z
#    x 1.725330 0.000000 0.000000 
#    y 0.000000 1.723370 0.000000 
#    z 0.000000 0.000000 1.678000 
# 
# From -- ./inp_files/26106.got.cif
#   From: 2010.05.17/outbox.cif.g08.bks.cpg/sg69_14_cif.got.tgz:26106.got - 2010.06.03 19:29:58.
