data_PCOD9511613
_publ_section_title
;
Structure prediction by ZEFSAII (Michael W. Deem and Ramdas Pophale) SiO2 
 PCOD9511613
Probable space group: F M M M
;
_chemical_formula_sum "Si O2"
_cell_formula_units_Z 120
_cell_length_a 27.219543
_cell_length_b 14.703673
_cell_length_c 15.339110
_cell_angle_alpha 90.000000
_cell_angle_beta 90.000000
_cell_angle_gamma 90.000000
_cell_volume 6139.129958
_symmetry_space_group_name_H-M "F M M M"
_symmetry_group_IT_number 69
_symmetry_cell_setting 'orthorhombic'
loop_
_space_group_symop_operation_xyz
x,y,z
-x,-y,z
x,-y,-z
-x,y,-z
-x,-y,-z
x,y,-z
-x,y,z
x,-y,z
x,1/2+y,1/2+z
-x,1/2-y,1/2+z
x,1/2-y,1/2-z
-x,1/2+y,1/2-z
-x,1/2-y,1/2-z
x,1/2+y,1/2-z
-x,1/2+y,1/2+z
x,1/2-y,1/2+z
1/2+x,y,1/2+z
1/2-x,-y,1/2+z
1/2+x,-y,1/2-z
1/2-x,y,1/2-z
1/2-x,-y,1/2-z
1/2+x,y,1/2-z
1/2-x,y,1/2+z
1/2+x,-y,1/2+z
1/2+x,1/2+y,z
1/2-x,1/2-y,z
1/2+x,1/2-y,-z
1/2-x,1/2+y,-z
1/2-x,1/2-y,-z
1/2+x,1/2+y,-z
1/2-x,1/2+y,z
1/2+x,1/2-y,z
loop_
_atom_site_type_symbol
_atom_site_label
_atom_site_fract_x
_atom_site_fract_y
_atom_site_fract_z
Si Si1 0.297822 0.803788 0.395295
Si Si2 0.500000 0.000000 0.816889
Si Si3 0.608126 0.000000 0.804419
Si Si4 0.796467 0.500000 0.314414
Si Si5 0.393344 0.695201 0.605842
Si Si6 0.000000 0.801934 0.396638
O O1 0.298146 0.796735 0.500000
O O2 0.250000 0.750000 0.362446
O O3 0.294380 0.908157 0.369509
O O4 0.348063 0.756691 0.363786
O O5 0.552126 0.000000 0.767473
O O6 0.500000 0.090157 0.876318
O O7 0.612818 0.092095 0.860923
O O8 0.651965 0.000000 0.736281
O O9 0.750000 0.500000 0.250000
O O10 0.393524 0.693685 0.500000
O O11 0.446970 0.731536 0.636183
O O12 0.000000 0.787151 0.500000
#
# Coordination Sequence:
#
# PCOD9511613 Si02
#       6
#    32   8  16  16  32  16
#     4  10  22  40  59  77 100 133 173 215 258 307
#     4   8  15  28  44  72 111 144 172 204 254 306
#     4  10  19  31  52  81 112 142 172 212 259 307
#     4  12  25  38  55  78 106 137 169 211 259 311
#     4   9  17  31  53  80 109 140 175 215 257 302
#     4   8  13  24  47  77 105 135 174 217 255 292
#
# _framework density 19.546742999999999
#
# number of rings (size 3 to 8) (size 9 to 14) (size 15 to 20)
#    0.000    2.400    0.000    2.600    0.000    6.933 
#    0.000    6.667    0.000    4.800    0.000    5.600 
#    0.000    0.000    0.000    0.000    0.000    0.000 
#
# Total GULP energy -167350.811499 kJ/mol
# GULP energy per Si atom -5578.360383 kJ/mol
# Density = 1.950225 g / cm^3
# Si number density = 19.546743 Si / 1000 Ang^3
#
#
#
# Elastic Constant Matrix: (Units=GPa)
#
#
# Indices 1 2 3 4 5 6 
#
# 1 198.5471 87.2586 24.6703 0.0000 0.0000 0.0000
# 2 87.2586 110.4072 1.9623 0.0000 0.0000 0.0000
# 3 24.6703 1.9623 22.3421 0.0000 0.0000 0.0000
# 4 0.0000 0.0000 0.0000 9271.3608 0.0000 0.0000
# 5 0.0000 0.0000 0.0000 0.0000 10.2029 0.0000
# 6 0.0000 0.0000 0.0000 0.0000 0.0000 33.4984
#
#
#
# Elastic Compliance Matrix: (Units=1/GPa)
#
#
# Indices 1 2 3 4 5 6 
#
# 1 0.009468 -0.007308 -0.009812 0.000000 0.000000 0.000000
# 2 -0.007308 0.014713 0.006778 0.000000 0.000000 0.000000
# 3 -0.009812 0.006778 0.054998 0.000000 0.000000 0.000000
# 4 0.000000 0.000000 0.000000 0.000108 0.000000 0.000000
# 5 0.000000 0.000000 0.000000 0.000000 0.098011 0.000000
# 6 0.000000 0.000000 0.000000 0.000000 0.000000 0.029852
#
#
# Mechanical properties :
#
#
# Convention : Reuss Voigt Hill
#
# Bulk Modulus (GPa) = 17.09615 62.11985 39.60800
# Shear Modulus (GPa) = 20.21559 1877.50609 948.86084
#
# Velocity S-wave (km/s) = 3.21941 31.02590 22.05642
# Velocity P-wave (km/s) = 4.75235 36.26740 25.86416
#
# Compressibility (1/GPa) = 0.05849271
#
# Stress axis : x y z
#
# Youngs Moduli (GPa) = 105.62230 67.96766 18.18239
#
# Poissons Ratio (x) = 0.49672 0.17841
# Poissons Ratio (y) = 0.77191 -0.12323
# Poissons Ratio (z) = 1.03641 -0.46066
#
# Static dielectric constant tensor:
#      x y z
#    x 1.746340 0.000000 0.000000 
#    y 0.000000 1.640100 0.000000 
#    z 0.000000 0.000000 1.659800 
# 
# From -- ./inp_files/33203.got.cif
#   From: 2010.05.17/outbox.cif.g08.bks.cpg/sg69_17_cif.got.tgz:33203.got - 2010.06.03 19:29:58.
