data_PCOD9511137
_publ_section_title
;
Structure prediction by ZEFSAII (Michael W. Deem and Ramdas Pophale) SiO2 
 PCOD9511137
Probable space group: F M M M
;
_chemical_formula_sum "Si O2"
_cell_formula_units_Z 176
_cell_length_a 13.713008
_cell_length_b 30.413469
_cell_length_c 23.806142
_cell_angle_alpha 90.000000
_cell_angle_beta 90.000000
_cell_angle_gamma 90.000000
_cell_volume 9928.593004
_symmetry_space_group_name_H-M "F M M M"
_symmetry_group_IT_number 69
_symmetry_cell_setting 'orthorhombic'
loop_
_space_group_symop_operation_xyz
x,y,z
-x,-y,z
x,-y,-z
-x,y,-z
-x,-y,-z
x,y,-z
-x,y,z
x,-y,z
x,1/2+y,1/2+z
-x,1/2-y,1/2+z
x,1/2-y,1/2-z
-x,1/2+y,1/2-z
-x,1/2-y,1/2-z
x,1/2+y,1/2-z
-x,1/2+y,1/2+z
x,1/2-y,1/2+z
1/2+x,y,1/2+z
1/2-x,-y,1/2+z
1/2+x,-y,1/2-z
1/2-x,y,1/2-z
1/2-x,-y,1/2-z
1/2+x,y,1/2-z
1/2-x,y,1/2+z
1/2+x,-y,1/2+z
1/2+x,1/2+y,z
1/2-x,1/2-y,z
1/2+x,1/2-y,-z
1/2-x,1/2+y,-z
1/2-x,1/2-y,-z
1/2+x,1/2+y,-z
1/2-x,1/2+y,z
1/2+x,1/2-y,z
loop_
_atom_site_type_symbol
_atom_site_label
_atom_site_fract_x
_atom_site_fract_y
_atom_site_fract_z
Si Si1 0.889350 0.141498 0.680269
Si Si2 0.750000 0.420743 0.750000
Si Si3 0.252562 0.698190 0.888143
Si Si4 0.384478 0.549026 0.153280
Si Si5 0.885796 0.874725 0.936139
Si Si6 0.392144 0.206658 0.283978
O O1 0.811600 0.105681 0.702039
O O2 0.846794 0.173300 0.631044
O O3 0.896589 0.169693 0.737316
O O4 0.000000 0.126255 0.666832
O O5 0.672326 0.445907 0.788350
O O6 0.250000 0.750000 0.904825
O O7 0.314507 0.666817 0.928796
O O8 0.314472 0.697364 0.830727
O O9 0.500000 0.553168 0.164038
O O10 0.365985 0.500000 0.130078
O O11 0.359979 0.587635 0.109076
O O12 0.000000 0.862390 0.926469
O O13 0.878711 0.891387 0.000000
O O14 0.500000 0.212643 0.309319
O O15 0.366734 0.250000 0.250000
#
# Coordination Sequence:
#
# PCOD9511137 Si02
#       6
#    32  16  32  32  32  32
#     4  11  21  30  46  74 111 153 190 221 262 327
#     4  12  19  34  55  82 120 158 173 218 277 350
#     4  12  21  32  52  76 111 148 192 236 284 326
#     4  10  21  37  60  91 120 146 181 229 287 350
#     4  10  22  41  62  83 109 146 193 243 292 339
#     4  10  18  28  44  71 106 143 187 228 267 322
#
# _framework density 17.726579999999998
#
# number of rings (size 3 to 8) (size 9 to 14) (size 15 to 20)
#    0.000    1.273    5.455    1.364    0.000    4.364 
#    0.000    1.818    0.000    0.545    0.000    0.000 
#    0.000    1.455    0.000    0.000    0.000    0.000 
#
# Total GULP energy -245209.976416 kJ/mol
# GULP energy per Si atom -5572.954009 kJ/mol
# Density = 1.768623 g / cm^3
# Si number density = 17.726580 Si / 1000 Ang^3
#
#
#
# Elastic Constant Matrix: (Units=GPa)
#
#
# Indices 1 2 3 4 5 6 
#
# 1 83.3402 33.0717 20.7247 0.0000 0.0000 0.0000
# 2 33.0717 86.5483 30.5365 0.0000 0.0000 0.0000
# 3 20.7247 30.5365 58.1008 0.0000 0.0000 0.0000
# 4 0.0000 0.0000 0.0000 10.6459 0.0000 0.0000
# 5 0.0000 0.0000 0.0000 0.0000 24.2283 0.0000
# 6 0.0000 0.0000 0.0000 0.0000 0.0000 19.7211
#
#
#
# Elastic Compliance Matrix: (Units=1/GPa)
#
#
# Indices 1 2 3 4 5 6 
#
# 1 0.014499 -0.004561 -0.002774 0.000000 0.000000 0.000000
# 2 -0.004561 0.015620 -0.006582 0.000000 0.000000 0.000000
# 3 -0.002774 -0.006582 0.021661 0.000000 0.000000 0.000000
# 4 0.000000 0.000000 0.000000 0.093933 0.000000 0.000000
# 5 0.000000 0.000000 0.000000 0.000000 0.041274 0.000000
# 6 0.000000 0.000000 0.000000 0.000000 0.000000 0.050707
#
#
# Mechanical properties :
#
#
# Convention : Reuss Voigt Hill
#
# Bulk Modulus (GPa) = 41.76592 44.07282 42.91937
# Shear Modulus (GPa) = 18.28083 20.49616 19.38850
#
# Velocity S-wave (km/s) = 3.21482 3.40404 3.31078
# Velocity P-wave (km/s) = 6.11493 6.35347 6.23534
#
# Compressibility (1/GPa) = 0.02394296
#
# Stress axis : x y z
#
# Youngs Moduli (GPa) = 68.97000 64.02193 46.16675
#
# Poissons Ratio (x) = 0.29203 0.12809
# Poissons Ratio (y) = 0.31460 0.30388
# Poissons Ratio (z) = 0.19135 0.42141
#
# Static dielectric constant tensor:
#      x y z
#    x 1.675080 0.000000 0.000000 
#    y 0.000000 1.638000 0.000000 
#    z 0.000000 0.000000 1.559130 
# 
# From -- ./inp_files/36053.got.cif
#   From: 2010.05.17/outbox.cif.g08.bks.cpg/sg69_19_cif.got.tgz:36053.got - 2010.06.03 19:29:58.
