data_PCOD9511744
_publ_section_title
;
Structure prediction by ZEFSAII (Michael W. Deem and Ramdas Pophale) SiO2 
 PCOD9511744
Probable space group: F M M M
;
_chemical_formula_sum "Si O2"
_cell_formula_units_Z 160
_cell_length_a 16.178550
_cell_length_b 16.205790
_cell_length_c 29.033094
_cell_angle_alpha 90.000000
_cell_angle_beta 90.000000
_cell_angle_gamma 90.000000
_cell_volume 7612.076120
_symmetry_space_group_name_H-M "F M M M"
_symmetry_group_IT_number 69
_symmetry_cell_setting 'orthorhombic'
loop_
_space_group_symop_operation_xyz
x,y,z
-x,-y,z
x,-y,-z
-x,y,-z
-x,-y,-z
x,y,-z
-x,y,z
x,-y,z
x,1/2+y,1/2+z
-x,1/2-y,1/2+z
x,1/2-y,1/2-z
-x,1/2+y,1/2-z
-x,1/2-y,1/2-z
x,1/2+y,1/2-z
-x,1/2+y,1/2+z
x,1/2-y,1/2+z
1/2+x,y,1/2+z
1/2-x,-y,1/2+z
1/2+x,-y,1/2-z
1/2-x,y,1/2-z
1/2-x,-y,1/2-z
1/2+x,y,1/2-z
1/2-x,y,1/2+z
1/2+x,-y,1/2+z
1/2+x,1/2+y,z
1/2-x,1/2-y,z
1/2+x,1/2-y,-z
1/2-x,1/2+y,-z
1/2-x,1/2-y,-z
1/2+x,1/2+y,-z
1/2-x,1/2+y,z
1/2+x,1/2-y,z
loop_
_atom_site_type_symbol
_atom_site_label
_atom_site_fract_x
_atom_site_fract_y
_atom_site_fract_z
Si Si1 0.853317 0.097087 0.050290
Si Si2 0.847944 0.903427 0.448826
Si Si3 0.847380 0.654543 0.350041
Si Si4 0.663156 0.500000 0.218733
Si Si5 0.409533 0.500000 0.688009
Si Si6 0.650245 0.167680 0.855436
O O1 0.752555 0.102364 0.050344
O O2 0.881992 0.133719 0.099020
O O3 0.873703 0.000000 0.051130
O O4 0.880473 0.130753 0.000000
O O5 0.877682 0.882827 0.500000
O O6 0.879367 0.846620 0.407793
O O7 0.866815 0.000000 0.439196
O O8 0.849689 0.579917 0.313732
O O9 0.749360 0.666920 0.356931
O O10 0.879675 0.745000 0.335537
O O11 0.750000 0.500000 0.250000
O O12 0.593972 0.500000 0.257391
O O13 0.500000 0.500000 0.667883
O O14 0.369689 0.585031 0.671922
#
# Coordination Sequence:
#
# PCOD9511744 Si02
#       6
#    32  32  32  16  16  32
#     4   8  13  23  43  76 119 152 171 215 291 353
#     4   8  13  23  45  74 112 155 189 225 275 335
#     4  10  19  32  57  87 115 144 196 243 286 347
#     4  12  22  40  61  81 113 151 195 251 302 349
#     4  12  26  44  61  80 115 160 196 240 305 358
#     4  10  19  34  55  85 113 150 197 242 286 338
#
# _framework density 21.019233
#
# number of rings (size 3 to 8) (size 9 to 14) (size 15 to 20)
#    0.000    2.400    4.000    1.200    0.000    1.600 
#    0.000    6.000    0.000    1.200    0.000    0.000 
#    0.000    3.200    0.000    0.000    0.000    0.000 
#
# Total GULP energy -222707.988611 kJ/mol
# GULP energy per Si atom -5567.699715 kJ/mol
# Density = 2.097139 g / cm^3
# Si number density = 21.019233 Si / 1000 Ang^3
#
#
#
# Elastic Constant Matrix: (Units=GPa)
#
#
# Indices 1 2 3 4 5 6 
#
# 1 11.9995 7.8610 -1.0612 0.0000 0.0000 0.0000
# 2 7.8610 169.6050 89.5124 0.0000 0.0000 0.0000
# 3 -1.0612 89.5124 133.3078 0.0000 0.0000 0.0000
# 4 0.0000 0.0000 0.0000 5.1429 0.0000 0.0000
# 5 0.0000 0.0000 0.0000 0.0000 -19.0567 0.0000
# 6 0.0000 0.0000 0.0000 0.0000 0.0000 -7.3990
#
#
#
# Elastic Compliance Matrix: (Units=1/GPa)
#
#
# Indices 1 2 3 4 5 6 
#
# 1 0.088341 -0.006917 0.005348 0.000000 0.000000 0.000000
# 2 -0.006917 0.009674 -0.006551 0.000000 0.000000 0.000000
# 3 0.005348 -0.006551 0.011943 0.000000 0.000000 0.000000
# 4 0.000000 0.000000 0.000000 0.194441 0.000000 0.000000
# 5 0.000000 0.000000 0.000000 0.000000 -0.052475 0.000000
# 6 0.000000 0.000000 0.000000 0.000000 0.000000 -0.135153
#
#
# Mechanical properties :
#
#
# Convention : Reuss Voigt Hill
#
# Bulk Modulus (GPa) = 10.67029 56.39295 33.53162
# Shear Modulus (GPa) = 30.44118 10.31079 20.37598
#
# Velocity S-wave (km/s) = 3.80972 2.21722 3.11689
# Velocity P-wave (km/s) = 4.94363 5.78292 5.37967
#
# Compressibility (1/GPa) = 0.09371815
#
# Stress axis : x y z
#
# Youngs Moduli (GPa) = 11.31972 103.36990 83.73289
#
# Poissons Ratio (x) = 0.71500 -0.44779
# Poissons Ratio (y) = 0.07830 0.54852
# Poissons Ratio (z) = -0.06054 0.67716
#
# Static dielectric constant tensor:
#      x y z
#    x 1.778170 0.000000 0.000000 
#    y 0.000000 1.752090 0.000000 
#    z 0.000000 0.000000 1.790200 
# 
# From -- ./inp_files/46249.got.cif
#   From: 2010.05.17/outbox.cif.g08.bks.cpg/sg69_24_cif.got.tgz:46249.got - 2010.06.03 19:29:58.
