data_PCOD9511416
_publ_section_title
;
Structure prediction by ZEFSAII (Michael W. Deem and Ramdas Pophale) SiO2 
 PCOD9511416
Probable space group: F M M M
;
_chemical_formula_sum "Si O2"
_cell_formula_units_Z 100
_cell_length_a 24.815450
_cell_length_b 22.861333
_cell_length_c 8.410665
_cell_angle_alpha 90.000000
_cell_angle_beta 90.000000
_cell_angle_gamma 90.000000
_cell_volume 4771.490241
_symmetry_space_group_name_H-M "F M M M"
_symmetry_group_IT_number 69
_symmetry_cell_setting 'orthorhombic'
loop_
_space_group_symop_operation_xyz
x,y,z
-x,-y,z
x,-y,-z
-x,y,-z
-x,-y,-z
x,y,-z
-x,y,z
x,-y,z
x,1/2+y,1/2+z
-x,1/2-y,1/2+z
x,1/2-y,1/2-z
-x,1/2+y,1/2-z
-x,1/2-y,1/2-z
x,1/2+y,1/2-z
-x,1/2+y,1/2+z
x,1/2-y,1/2+z
1/2+x,y,1/2+z
1/2-x,-y,1/2+z
1/2+x,-y,1/2-z
1/2-x,y,1/2-z
1/2-x,-y,1/2-z
1/2+x,y,1/2-z
1/2-x,y,1/2+z
1/2+x,-y,1/2+z
1/2+x,1/2+y,z
1/2-x,1/2-y,z
1/2+x,1/2-y,-z
1/2-x,1/2+y,-z
1/2-x,1/2-y,-z
1/2+x,1/2+y,-z
1/2-x,1/2+y,z
1/2+x,1/2-y,z
loop_
_atom_site_type_symbol
_atom_site_label
_atom_site_fract_x
_atom_site_fract_y
_atom_site_fract_z
Si Si1 0.500000 0.500000 0.000000
Si Si2 0.500000 0.592517 0.693198
Si Si3 0.592229 0.311225 0.313863
Si Si4 0.311415 0.000000 0.812292
Si Si5 0.810520 0.377437 0.686185
O O1 0.500000 0.449865 0.150151
O O2 0.500000 0.571739 0.500000
O O3 0.551455 0.635167 0.708642
O O4 0.602450 0.305233 0.500000
O O5 0.570107 0.250000 0.250000
O O6 0.648525 0.326708 0.230454
O O7 0.250000 0.000000 0.750000
O O8 0.334436 0.061282 0.753075
O O9 0.311594 0.000000 0.000000
O O10 0.806036 0.384630 0.500000
O O11 0.750000 0.368596 0.750000
#
# Coordination Sequence:
#
# PCOD9511416 Si02
#       5
#     4  16  32  16  32
#     4  12  26  44  84 102 152 172 234 278 364 408
#     4  10  26  48  73 108 144 179 228 286 349 419
#     4  11  24  44  69  98 136 180 231 284 341 409
#     4  10  18  33  56  83 120 166 215 273 333 397
#     4  11  22  38  61  93 132 177 232 283 345 406
#
# _framework density 20.957813000000002
#
# number of rings (size 3 to 8) (size 9 to 14) (size 15 to 20)
#    0.000    1.280    0.000    7.920    4.480    1.920 
#    0.000    4.800    0.000    0.000    0.000    0.000 
#    0.000    0.000    0.000    0.000    0.000    0.000 
#
# Total GULP energy -139289.525435 kJ/mol
# GULP energy per Si atom -5571.581017 kJ/mol
# Density = 2.091011 g / cm^3
# Si number density = 20.957813 Si / 1000 Ang^3
#
#
#
# Elastic Constant Matrix: (Units=GPa)
#
#
# Indices 1 2 3 4 5 6 
#
# 1 75.8155 28.6151 36.3639 0.0000 0.0001 0.0001
# 2 28.6151 108.9519 64.6087 -0.0011 0.0003 0.0001
# 3 36.3639 64.6087 218.3530 -0.0023 0.0009 0.0004
# 4 0.0000 -0.0011 -0.0023 40.1891 0.0005 0.0001
# 5 0.0001 0.0003 0.0009 0.0005 19.5746 -0.0003
# 6 0.0001 0.0001 0.0004 0.0001 -0.0003 -22.2213
#
#
#
# Elastic Compliance Matrix: (Units=1/GPa)
#
#
# Indices 1 2 3 4 5 6 
#
# 1 0.015103 -0.003002 -0.001627 0.000000 0.000000 0.000000
# 2 -0.003002 0.011728 -0.002970 0.000000 0.000000 0.000000
# 3 -0.001627 -0.002970 0.005730 0.000000 0.000000 0.000000
# 4 0.000000 0.000000 0.000000 0.024882 -0.000001 0.000000
# 5 0.000000 0.000000 0.000000 -0.000001 0.051087 -0.000001
# 6 0.000000 0.000000 0.000000 0.000000 -0.000001 -0.045002
#
#
# Mechanical properties :
#
#
# Convention : Reuss Voigt Hill
#
# Bulk Modulus (GPa) = 57.59518 73.58842 65.59180
# Shear Modulus (GPa) = 59.16160 25.74399 42.45280
#
# Velocity S-wave (km/s) = 5.31885 3.50862 4.50558
# Velocity P-wave (km/s) = 8.07845 7.18350 7.64409
#
# Compressibility (1/GPa) = 0.01736256
#
# Stress axis : x y z
#
# Youngs Moduli (GPa) = 66.21066 85.26455 174.53232
#
# Poissons Ratio (x) = 0.25596 0.28397
# Poissons Ratio (y) = 0.19876 0.51842
# Poissons Ratio (z) = 0.10773 0.25326
#
# Static dielectric constant tensor:
#      x y z
#    x 1.741750 0.000000 0.000000 
#    y 0.000000 1.796060 0.000000 
#    z 0.000000 0.000000 1.733760 
# 
# From -- ./inp_files/4336.got.cif
#   From: 2010.05.17/outbox.cif.g08.bks.cpg/sg69_3_cif.got.tgz:4336.got - 2010.06.03 19:29:58.
