data_PCOD9511451
_publ_section_title
;
Structure prediction by ZEFSAII (Michael W. Deem and Ramdas Pophale) SiO2 
 PCOD9511451
Probable space group: F M M M
;
_chemical_formula_sum "Si O2"
_cell_formula_units_Z 192
_cell_length_a 17.813472
_cell_length_b 28.362037
_cell_length_c 20.852321
_cell_angle_alpha 90.000000
_cell_angle_beta 90.000000
_cell_angle_gamma 90.000000
_cell_volume 10535.142069
_symmetry_space_group_name_H-M "F M M M"
_symmetry_group_IT_number 69
_symmetry_cell_setting 'orthorhombic'
loop_
_space_group_symop_operation_xyz
x,y,z
-x,-y,z
x,-y,-z
-x,y,-z
-x,-y,-z
x,y,-z
-x,y,z
x,-y,z
x,1/2+y,1/2+z
-x,1/2-y,1/2+z
x,1/2-y,1/2-z
-x,1/2+y,1/2-z
-x,1/2-y,1/2-z
x,1/2+y,1/2-z
-x,1/2+y,1/2+z
x,1/2-y,1/2+z
1/2+x,y,1/2+z
1/2-x,-y,1/2+z
1/2+x,-y,1/2-z
1/2-x,y,1/2-z
1/2-x,-y,1/2-z
1/2+x,y,1/2-z
1/2-x,y,1/2+z
1/2+x,-y,1/2+z
1/2+x,1/2+y,z
1/2-x,1/2-y,z
1/2+x,1/2-y,-z
1/2-x,1/2+y,-z
1/2-x,1/2-y,-z
1/2+x,1/2+y,-z
1/2-x,1/2+y,z
1/2+x,1/2-y,z
loop_
_atom_site_type_symbol
_atom_site_label
_atom_site_fract_x
_atom_site_fract_y
_atom_site_fract_z
Si Si1 0.090526 0.709318 0.000000
Si Si2 0.158745 0.696393 0.249961
Si Si3 0.664175 0.360928 0.874713
Si Si4 0.410504 0.180079 0.500000
Si Si5 0.827367 0.445023 0.715536
Si Si6 0.589046 0.553485 0.346750
Si Si7 0.657505 0.851053 0.116188
O O1 0.122671 0.681877 0.061687
O O2 0.113545 0.764574 0.000000
O O3 0.000000 0.707058 0.000000
O O4 0.132333 0.750000 0.250000
O O5 0.250000 0.696643 0.250000
O O6 0.136623 0.670728 0.315068
O O7 0.135051 0.669426 0.185886
O O8 0.620000 0.346658 0.937646
O O9 0.657724 0.413604 0.846394
O O10 0.752282 0.350976 0.887236
O O11 0.500000 0.179829 0.500000
O O12 0.817913 0.500000 0.699563
O O13 0.750000 0.428064 0.750000
O O14 0.888712 0.440813 0.771756
O O15 0.500000 0.557078 0.354481
O O16 0.612974 0.500000 0.364472
O O17 0.628821 0.595132 0.385674
#
# Coordination Sequence:
#
# PCOD9511451 Si02
#       7
#    16  32  32  16  32  32  32
#     4  11  25  43  58  79 118 166 202 242 308 370
#     4   9  17  30  53  85 114 137 183 250 302 346
#     4  11  20  37  60  89 115 155 202 248 304 349
#     4  11  27  45  58  79 120 165 206 251 300 359
#     4  10  18  34  61  92 124 153 191 243 294 352
#     4  10  20  34  56  89 125 157 189 234 296 357
#     4  11  20  36  61  88 116 151 199 250 297 362
#
# _framework density 18.224719
#
# number of rings (size 3 to 8) (size 9 to 14) (size 15 to 20)
#    0.000    1.667    3.333    2.500    0.000    3.333 
#    0.000    0.833    0.000    7.500    0.000    0.000 
#    0.000    0.000    0.000    0.000    0.000    0.000 
#
# Total GULP energy -267974.897903 kJ/mol
# GULP energy per Si atom -5582.810373 kJ/mol
# Density = 1.818324 g / cm^3
# Si number density = 18.224719 Si / 1000 Ang^3
#
#
#
# Elastic Constant Matrix: (Units=GPa)
#
#
# Indices 1 2 3 4 5 6 
#
# 1 45.5863 36.1491 32.5859 0.0000 0.0000 0.0000
# 2 36.1491 147.6893 71.3214 0.0000 0.0000 0.0000
# 3 32.5859 71.3214 131.6471 0.0000 0.0000 0.0000
# 4 0.0000 0.0000 0.0000 26.1432 0.0000 0.0000
# 5 0.0000 0.0000 0.0000 0.0000 19.5178 0.0000
# 6 0.0000 0.0000 0.0000 0.0000 0.0000 14.7494
#
#
#
# Elastic Compliance Matrix: (Units=1/GPa)
#
#
# Indices 1 2 3 4 5 6 
#
# 1 0.029084 -0.004933 -0.004527 0.000000 0.000000 0.000000
# 2 -0.004933 0.010007 -0.004200 0.000000 0.000000 0.000000
# 3 -0.004527 -0.004200 0.010992 0.000000 0.000000 0.000000
# 4 0.000000 0.000000 0.000000 0.038251 0.000000 0.000000
# 5 0.000000 0.000000 0.000000 0.000000 0.051235 0.000000
# 6 0.000000 0.000000 0.000000 0.000000 0.000000 0.067800
#
#
# Mechanical properties :
#
#
# Convention : Reuss Voigt Hill
#
# Bulk Modulus (GPa) = 43.93037 67.22614 55.57826
# Shear Modulus (GPa) = 20.63770 24.40648 22.52209
#
# Velocity S-wave (km/s) = 3.36877 3.66347 3.51921
# Velocity P-wave (km/s) = 6.26806 7.40690 6.86115
#
# Compressibility (1/GPa) = 0.02276330
#
# Stress axis : x y z
#
# Youngs Moduli (GPa) = 34.38361 99.93303 90.97478
#
# Poissons Ratio (x) = 0.49294 0.41180
# Poissons Ratio (y) = 0.16960 0.38212
# Poissons Ratio (z) = 0.15564 0.41975
#
# Static dielectric constant tensor:
#      x y z
#    x 1.625470 0.000000 0.000000 
#    y 0.000000 1.652380 0.000000 
#    z 0.000000 0.000000 1.598560 
# 
# From -- ./inp_files/23753.got.cif
#   From: 2010.05.17/outbox.cif.g08.bks.cpg/sg69_12_cif.got.tgz:23753.got - 2010.06.03 19:29:58.
