data_PCOD9511512
_publ_section_title
;
Structure prediction by ZEFSAII (Michael W. Deem and Ramdas Pophale) SiO2 
 PCOD9511512
Probable space group: F M M M
;
_chemical_formula_sum "Si O2"
_cell_formula_units_Z 208
_cell_length_a 32.577213
_cell_length_b 18.353167
_cell_length_c 18.141430
_cell_angle_alpha 90.000000
_cell_angle_beta 90.000000
_cell_angle_gamma 90.000000
_cell_volume 10846.670845
_symmetry_space_group_name_H-M "F M M M"
_symmetry_group_IT_number 69
_symmetry_cell_setting 'orthorhombic'
loop_
_space_group_symop_operation_xyz
x,y,z
-x,-y,z
x,-y,-z
-x,y,-z
-x,-y,-z
x,y,-z
-x,y,z
x,-y,z
x,1/2+y,1/2+z
-x,1/2-y,1/2+z
x,1/2-y,1/2-z
-x,1/2+y,1/2-z
-x,1/2-y,1/2-z
x,1/2+y,1/2-z
-x,1/2+y,1/2+z
x,1/2-y,1/2+z
1/2+x,y,1/2+z
1/2-x,-y,1/2+z
1/2+x,-y,1/2-z
1/2-x,y,1/2-z
1/2-x,-y,1/2-z
1/2+x,y,1/2-z
1/2-x,y,1/2+z
1/2+x,-y,1/2+z
1/2+x,1/2+y,z
1/2-x,1/2-y,z
1/2+x,1/2-y,-z
1/2-x,1/2+y,-z
1/2-x,1/2-y,-z
1/2+x,1/2+y,-z
1/2-x,1/2+y,z
1/2+x,1/2-y,z
loop_
_atom_site_type_symbol
_atom_site_label
_atom_site_fract_x
_atom_site_fract_y
_atom_site_fract_z
Si Si1 0.500000 0.412754 0.586095
Si Si2 0.545139 0.215296 0.667293
Si Si3 0.754216 0.589070 0.164896
Si Si4 0.666628 0.583948 0.417059
Si Si5 0.087248 0.852067 0.361010
Si Si6 0.598070 0.587312 0.198735
Si Si7 0.671256 0.588453 0.084344
O O1 0.500000 0.500000 0.589037
O O2 0.500000 0.390297 0.500000
O O3 0.457888 0.385659 0.623741
O O4 0.500000 0.224006 0.634103
O O5 0.543070 0.250000 0.750000
O O6 0.579554 0.266106 0.631924
O O7 0.558672 0.131894 0.669818
O O8 0.755015 0.500000 0.161026
O O9 0.750000 0.609201 0.250000
O O10 0.797779 0.615258 0.134072
O O11 0.715180 0.612921 0.116718
O O12 0.683028 0.583873 0.500000
O O13 0.659024 0.500000 0.394790
O O14 0.622983 0.622248 0.414061
O O15 0.102784 0.879488 0.280778
O O16 0.593232 0.500000 0.202692
O O17 0.635684 0.604891 0.143813
O O18 0.672531 0.500000 0.081518
O O19 0.664159 0.613712 0.000000
#
# Coordination Sequence:
#
# PCOD9511512 Si02
#       7
#    16  32  32  32  32  32  32
#     4  11  22  34  51  78 110 144 181 222 265 317
#     4   9  19  36  54  77 107 140 177 225 278 326
#     4   9  16  27  47  76 110 144 182 224 268 323
#     4  10  19  30  47  76 113 148 183 226 271 315
#     4  11  20  35  53  76 111 148 183 219 267 329
#     4  10  20  33  57  85 105 135 185 231 270 319
#     4   9  17  31  50  75 109 144 178 224 280 326
#
# _framework density 19.176390999999999
#
# number of rings (size 3 to 8) (size 9 to 14) (size 15 to 20)
#    0.000    2.231    0.769    3.231    1.077    5.846 
#    0.000    1.538    0.000    0.923    0.000    8.615 
#    0.000    0.000    0.000    0.000    0.000    0.000 
#
# Total GULP energy -289769.846626 kJ/mol
# GULP energy per Si atom -5572.497051 kJ/mol
# Density = 1.913274 g / cm^3
# Si number density = 19.176391 Si / 1000 Ang^3
#
#
#
# Elastic Constant Matrix: (Units=GPa)
#
#
# Indices 1 2 3 4 5 6 
#
# 1 112.8052 17.8889 46.6433 0.0000 0.0000 0.0000
# 2 17.8889 49.6912 4.3305 0.0000 0.0000 0.0000
# 3 46.6433 4.3305 94.9020 0.0000 0.0000 0.0000
# 4 0.0000 0.0000 0.0000 2.5199 0.0000 0.0000
# 5 0.0000 0.0000 0.0000 0.0000 24.7870 0.0000
# 6 0.0000 0.0000 0.0000 0.0000 0.0000 7.4403
#
#
#
# Elastic Compliance Matrix: (Units=1/GPa)
#
#
# Indices 1 2 3 4 5 6 
#
# 1 0.011784 -0.003752 -0.005620 0.000000 0.000000 0.000000
# 2 -0.003752 0.021400 0.000868 0.000000 0.000000 0.000000
# 3 -0.005620 0.000868 0.013260 0.000000 0.000000 0.000000
# 4 0.000000 0.000000 0.000000 0.396836 0.000000 0.000000
# 5 0.000000 0.000000 0.000000 0.000000 0.040344 0.000000
# 6 0.000000 0.000000 0.000000 0.000000 0.000000 0.134403
#
#
# Mechanical properties :
#
#
# Convention : Reuss Voigt Hill
#
# Bulk Modulus (GPa) = 33.97514 43.90264 38.93889
# Shear Modulus (GPa) = 7.75377 19.51848 13.63613
#
# Velocity S-wave (km/s) = 2.01300 3.19382 2.66952
# Velocity P-wave (km/s) = 4.81233 6.04520 5.46365
#
# Compressibility (1/GPa) = 0.02943329
#
# Stress axis : x y z
#
# Youngs Moduli (GPa) = 84.86172 46.72999 75.41496
#
# Poissons Ratio (x) = 0.17535 0.42386
# Poissons Ratio (y) = 0.31844 -0.06544
# Poissons Ratio (z) = 0.47696 -0.04055
#
# Static dielectric constant tensor:
#      x y z
#    x 1.662580 0.000000 0.000000 
#    y 0.000000 1.685750 0.000000 
#    z 0.000000 0.000000 1.706580 
# 
# From -- ./inp_files/27911.got.cif
#   From: 2010.05.17/outbox.cif.g08.bks.cpg/sg69_14_cif.got.tgz:27911.got - 2010.06.03 19:29:58.
