data_PCOD9511636
_publ_section_title
;
Structure prediction by ZEFSAII (Michael W. Deem and Ramdas Pophale) SiO2 
 PCOD9511636
Probable space group: F M M M
;
_chemical_formula_sum "Si O2"
_cell_formula_units_Z 192
_cell_length_a 27.587495
_cell_length_b 15.141616
_cell_length_c 24.604360
_cell_angle_alpha 90.000000
_cell_angle_beta 90.000000
_cell_angle_gamma 90.000000
_cell_volume 10277.714946
_symmetry_space_group_name_H-M "F M M M"
_symmetry_group_IT_number 69
_symmetry_cell_setting 'orthorhombic'
loop_
_space_group_symop_operation_xyz
x,y,z
-x,-y,z
x,-y,-z
-x,y,-z
-x,-y,-z
x,y,-z
-x,y,z
x,-y,z
x,1/2+y,1/2+z
-x,1/2-y,1/2+z
x,1/2-y,1/2-z
-x,1/2+y,1/2-z
-x,1/2-y,1/2-z
x,1/2+y,1/2-z
-x,1/2+y,1/2+z
x,1/2-y,1/2+z
1/2+x,y,1/2+z
1/2-x,-y,1/2+z
1/2+x,-y,1/2-z
1/2-x,y,1/2-z
1/2-x,-y,1/2-z
1/2+x,y,1/2-z
1/2-x,y,1/2+z
1/2+x,-y,1/2+z
1/2+x,1/2+y,z
1/2-x,1/2-y,z
1/2+x,1/2-y,-z
1/2-x,1/2+y,-z
1/2-x,1/2-y,-z
1/2+x,1/2+y,-z
1/2-x,1/2+y,z
1/2+x,1/2-y,z
loop_
_atom_site_type_symbol
_atom_site_label
_atom_site_fract_x
_atom_site_fract_y
_atom_site_fract_z
Si Si1 0.696052 0.500000 0.170319
Si Si2 0.442819 0.770161 0.564394
Si Si3 0.195759 0.788588 0.311248
Si Si4 0.058764 0.904212 0.631900
Si Si5 0.444633 0.143885 0.254138
Si Si6 0.874707 0.650581 0.645960
Si Si7 0.301703 0.500000 0.302581
O O1 0.668712 0.417687 0.145437
O O2 0.695131 0.500000 0.236499
O O3 0.752629 0.500000 0.161957
O O4 0.436162 0.767246 0.500000
O O5 0.500000 0.786342 0.575782
O O6 0.429853 0.676579 0.592524
O O7 0.409366 0.841191 0.594360
O O8 0.190222 0.750000 0.250000
O O9 0.250000 0.750000 0.327007
O O10 0.152829 0.742530 0.344161
O O11 0.186480 0.894355 0.312378
O O12 0.071437 0.890354 0.695234
O O13 0.000000 0.906956 0.631963
O O14 0.077659 0.000000 0.614156
O O15 0.500000 0.113678 0.264713
O O16 0.446130 0.250000 0.250000
O O17 0.408389 0.123745 0.302797
#
# Coordination Sequence:
#
# PCOD9511636 Si02
#       7
#    16  32  32  32  32  32  16
#     4  11  22  34  56  83 118 150 196 237 285 362
#     4  10  22  41  61  80 113 161 208 257 304 347
#     4  11  20  35  57  84 125 156 188 238 294 365
#     4   9  18  32  51  78 111 148 194 244 299 361
#     4  10  19  32  49  76 119 156 188 234 294 363
#     4  12  22  36  57  89 114 158 203 243 298 361
#     4  11  20  38  54  86 126 161 188 228 301 374
#
# _framework density 18.681194000000001
#
# number of rings (size 3 to 8) (size 9 to 14) (size 15 to 20)
#    0.000    1.500    5.000    2.000    1.167    0.333 
#    1.500    3.333    0.000    1.500    0.000    0.000 
#    0.000    0.000    0.000    0.000    0.000    0.000 
#
# Total GULP energy -267366.862044 kJ/mol
# GULP energy per Si atom -5570.142959 kJ/mol
# Density = 1.863868 g / cm^3
# Si number density = 18.681194 Si / 1000 Ang^3
#
#
#
# Elastic Constant Matrix: (Units=GPa)
#
#
# Indices 1 2 3 4 5 6 
#
# 1 88.1654 33.9117 40.7690 0.0000 0.0000 0.0000
# 2 33.9117 114.8851 21.8637 0.0000 0.0000 0.0000
# 3 40.7690 21.8637 72.8270 0.0000 0.0000 0.0000
# 4 0.0000 0.0000 0.0000 0.6639 0.0000 0.0000
# 5 0.0000 0.0000 0.0000 0.0000 22.9262 0.0000
# 6 0.0000 0.0000 0.0000 0.0000 0.0000 4.3711
#
#
#
# Elastic Compliance Matrix: (Units=1/GPa)
#
#
# Indices 1 2 3 4 5 6 
#
# 1 0.016392 -0.003280 -0.008192 0.000000 0.000000 0.000000
# 2 -0.003280 0.009888 -0.001133 0.000000 0.000000 0.000000
# 3 -0.008192 -0.001133 0.018657 0.000000 0.000000 0.000000
# 4 0.000000 0.000000 0.000000 1.506148 0.000000 0.000000
# 5 0.000000 0.000000 0.000000 0.000000 0.043618 0.000000
# 6 0.000000 0.000000 0.000000 0.000000 0.000000 0.228777
#
#
# Mechanical properties :
#
#
# Convention : Reuss Voigt Hill
#
# Bulk Modulus (GPa) = 50.68668 52.10737 51.39702
# Shear Modulus (GPa) = 2.69504 17.54779 10.12141
#
# Velocity S-wave (km/s) = 1.20241 3.06817 2.33018
# Velocity P-wave (km/s) = 5.39621 6.36436 5.90018
#
# Compressibility (1/GPa) = 0.01972905
#
# Stress axis : x y z
#
# Youngs Moduli (GPa) = 61.00667 101.13328 53.59955
#
# Poissons Ratio (x) = 0.33167 0.43906
# Poissons Ratio (y) = 0.20007 0.06071
# Poissons Ratio (z) = 0.49974 0.11454
#
# Static dielectric constant tensor:
#      x y z
#    x 1.707230 0.000000 0.000000 
#    y 0.000000 1.730360 0.000000 
#    z 0.000000 0.000000 1.599730 
# 
# From -- ./inp_files/38361.got.cif
#   From: 2010.05.17/outbox.cif.g08.bks.cpg/sg69_20_cif.got.tgz:38361.got - 2010.06.03 19:29:58.
