data_PCOD9511726
_publ_section_title
;
Structure prediction by ZEFSAII (Michael W. Deem and Ramdas Pophale) SiO2 
 PCOD9511726
Probable space group: F M M M
;
_chemical_formula_sum "Si O2"
_cell_formula_units_Z 208
_cell_length_a 30.241375
_cell_length_b 14.781783
_cell_length_c 21.667820
_cell_angle_alpha 90.000000
_cell_angle_beta 90.000000
_cell_angle_gamma 90.000000
_cell_volume 9685.980160
_symmetry_space_group_name_H-M "F M M M"
_symmetry_group_IT_number 69
_symmetry_cell_setting 'orthorhombic'
loop_
_space_group_symop_operation_xyz
x,y,z
-x,-y,z
x,-y,-z
-x,y,-z
-x,-y,-z
x,y,-z
-x,y,z
x,-y,z
x,1/2+y,1/2+z
-x,1/2-y,1/2+z
x,1/2-y,1/2-z
-x,1/2+y,1/2-z
-x,1/2-y,1/2-z
x,1/2+y,1/2-z
-x,1/2+y,1/2+z
x,1/2-y,1/2+z
1/2+x,y,1/2+z
1/2-x,-y,1/2+z
1/2+x,-y,1/2-z
1/2-x,y,1/2-z
1/2-x,-y,1/2-z
1/2+x,y,1/2-z
1/2-x,y,1/2+z
1/2+x,-y,1/2+z
1/2+x,1/2+y,z
1/2-x,1/2-y,z
1/2+x,1/2-y,-z
1/2-x,1/2+y,-z
1/2-x,1/2-y,-z
1/2+x,1/2+y,-z
1/2-x,1/2+y,z
1/2+x,1/2-y,z
loop_
_atom_site_type_symbol
_atom_site_label
_atom_site_fract_x
_atom_site_fract_y
_atom_site_fract_z
Si Si1 0.946304 0.500000 0.569846
Si Si2 0.639630 0.394164 0.386522
Si Si3 0.374165 0.110280 0.747074
Si Si4 0.048514 0.170494 0.430523
Si Si5 0.266070 0.889162 0.067991
Si Si6 0.949333 0.160944 0.840408
Si Si7 0.219113 0.610122 0.307205
O O1 0.929367 0.500000 0.500000
O O2 0.933496 0.413197 0.609613
O O3 0.000000 0.500000 0.566440
O O4 0.648754 0.500000 0.378482
O O5 0.634205 0.358692 0.317006
O O6 0.593328 0.384698 0.421711
O O7 0.683193 0.358506 0.420523
O O8 0.417529 0.152735 0.717425
O O9 0.331184 0.134714 0.707123
O O10 0.378995 0.000000 0.746660
O O11 0.049272 0.210389 0.500000
O O12 0.050389 0.246026 0.377752
O O13 0.000000 0.124254 0.424805
O O14 0.237416 0.859473 0.126755
O O15 0.265238 0.000000 0.067875
O O16 0.250874 0.860510 0.000000
O O17 0.000000 0.140043 0.822554
O O18 0.220930 0.500000 0.307207
O O19 0.250000 0.639422 0.250000
#
# Coordination Sequence:
#
# PCOD9511726 Si02
#       7
#    16  32  32  32  32  32  32
#     4   9  16  30  54  78 101 138 183 223 272 333
#     4  10  20  34  55  82 110 147 189 230 277 331
#     4  10  19  32  54  84 115 147 185 226 277 336
#     4  10  22  39  56  77 109 148 189 232 281 335
#     4   9  16  28  49  78 109 143 186 231 274 328
#     4  10  20  35  55  80 110 145 183 228 277 332
#     4   9  15  28  50  77 111 146 179 225 280 329
#
# _framework density 21.474336000000001
#
# number of rings (size 3 to 8) (size 9 to 14) (size 15 to 20)
#    0.000    2.385    2.308    0.923    0.000    4.308 
#    0.000    5.385    0.000    0.923    0.000    2.154 
#    0.000    0.000    0.000    0.000    0.000    0.000 
#
# Total GULP energy -290303.902038 kJ/mol
# GULP energy per Si atom -5582.767347 kJ/mol
# Density = 2.142546 g / cm^3
# Si number density = 21.474336 Si / 1000 Ang^3
#
#
#
# Elastic Constant Matrix: (Units=GPa)
#
#
# Indices 1 2 3 4 5 6 
#
# 1 107.8538 1.9161 60.6915 0.0000 0.0000 0.0000
# 2 1.9161 30.1951 7.9367 0.0000 0.0000 0.0000
# 3 60.6915 7.9367 146.0756 0.0000 0.0000 0.0000
# 4 0.0000 0.0000 0.0000 8.2720 0.0000 0.0000
# 5 0.0000 0.0000 0.0000 0.0000 34.8799 0.0000
# 6 0.0000 0.0000 0.0000 0.0000 0.0000 0.3428
#
#
#
# Elastic Compliance Matrix: (Units=1/GPa)
#
#
# Indices 1 2 3 4 5 6 
#
# 1 0.012110 0.000562 -0.005062 0.000000 0.000000 0.000000
# 2 0.000562 0.033624 -0.002060 0.000000 0.000000 0.000000
# 3 -0.005062 -0.002060 0.009061 0.000000 0.000000 0.000000
# 4 0.000000 0.000000 0.000000 0.120890 0.000000 0.000000
# 5 0.000000 0.000000 0.000000 0.000000 0.028670 0.000000
# 6 0.000000 0.000000 0.000000 0.000000 0.000000 2.916728
#
#
# Mechanical properties :
#
#
# Convention : Reuss Voigt Hill
#
# Bulk Modulus (GPa) = 23.99566 47.24589 35.62078
# Shear Modulus (GPa) = 1.58826 22.93762 12.26294
#
# Velocity S-wave (km/s) = 0.86094 3.27179 2.39226
# Velocity P-wave (km/s) = 3.49094 6.02675 4.92485
#
# Compressibility (1/GPa) = 0.04167420
#
# Stress axis : x y z
#
# Youngs Moduli (GPa) = 82.57352 29.74081 110.36367
#
# Poissons Ratio (x) = -0.01672 0.55868
# Poissons Ratio (y) = -0.04641 0.22739
# Poissons Ratio (z) = 0.41800 0.06128
#
# Static dielectric constant tensor:
#      x y z
#    x 1.762890 0.000000 0.000000 
#    y 0.000000 1.795880 0.000000 
#    z 0.000000 0.000000 1.765430 
# 
# From -- ./inp_files/39089.got.cif
#   From: 2010.05.17/outbox.cif.g08.bks.cpg/sg69_20_cif.got.tgz:39089.got - 2010.06.03 19:29:58.
