data_PCOD9511360
_publ_section_title
;
Structure prediction by ZEFSAII (Michael W. Deem and Ramdas Pophale) SiO2 
 PCOD9511360
Probable space group: F M M M
;
_chemical_formula_sum "Si O2"
_cell_formula_units_Z 96
_cell_length_a 14.195237
_cell_length_b 22.405299
_cell_length_c 14.116380
_cell_angle_alpha 90.000000
_cell_angle_beta 90.000000
_cell_angle_gamma 90.000000
_cell_volume 4489.693899
_symmetry_space_group_name_H-M "F M M M"
_symmetry_group_IT_number 69
_symmetry_cell_setting 'orthorhombic'
loop_
_space_group_symop_operation_xyz
x,y,z
-x,-y,z
x,-y,-z
-x,y,-z
-x,-y,-z
x,y,-z
-x,y,z
x,-y,z
x,1/2+y,1/2+z
-x,1/2-y,1/2+z
x,1/2-y,1/2-z
-x,1/2+y,1/2-z
-x,1/2-y,1/2-z
x,1/2+y,1/2-z
-x,1/2+y,1/2+z
x,1/2-y,1/2+z
1/2+x,y,1/2+z
1/2-x,-y,1/2+z
1/2+x,-y,1/2-z
1/2-x,y,1/2-z
1/2-x,-y,1/2-z
1/2+x,y,1/2-z
1/2-x,y,1/2+z
1/2+x,-y,1/2+z
1/2+x,1/2+y,z
1/2-x,1/2-y,z
1/2+x,1/2-y,-z
1/2-x,1/2+y,-z
1/2-x,1/2-y,-z
1/2+x,1/2+y,-z
1/2-x,1/2+y,z
1/2+x,1/2-y,z
loop_
_atom_site_type_symbol
_atom_site_label
_atom_site_fract_x
_atom_site_fract_y
_atom_site_fract_z
Si Si1 0.142976 0.689034 0.290799
Si Si2 0.645013 0.067347 0.206552
Si Si3 0.714708 0.429688 0.500000
Si Si4 0.611340 0.342660 0.000000
O O1 0.101792 0.750000 0.250000
O O2 0.250000 0.687302 0.250000
O O3 0.102359 0.624721 0.258989
O O4 0.135865 0.691972 0.403757
O O5 0.750000 0.062290 0.250000
O O6 0.657541 0.083364 0.095821
O O7 0.604712 0.000000 0.215466
O O8 0.732490 0.500000 0.500000
O O9 0.815254 0.397428 0.500000
O O10 0.500000 0.357696 0.000000
#
# Coordination Sequence:
#
# PCOD9511360 Si02
#       4
#    32  32  16  16
#     4  10  21  36  58  83 110 150 194 235 273 335
#     4   9  16  29  53  80 112 146 186 233 282 327
#     4  10  18  32  53  82 114 147 186 232 281 334
#     4  12  24  37  54  85 120 146 182 236 292 336
#
# _framework density 21.382304999999999
#
# number of rings (size 3 to 8) (size 9 to 14) (size 15 to 20)
#    0.000    2.000    6.667    0.000    0.000    5.000 
#    0.000    0.000    0.000    0.000    0.000    0.000 
#    0.000    5.333    0.000    0.000    0.000    0.000 
#
# Total GULP energy -133764.887361 kJ/mol
# GULP energy per Si atom -5573.536973 kJ/mol
# Density = 2.133364 g / cm^3
# Si number density = 21.382305 Si / 1000 Ang^3
#
#
#
# Elastic Constant Matrix: (Units=GPa)
#
#
# Indices 1 2 3 4 5 6 
#
# 1 98.5966 22.9235 15.0335 0.0000 0.0000 0.0000
# 2 22.9235 166.2758 70.0891 0.0000 0.0000 0.0000
# 3 15.0335 70.0891 207.4167 0.0000 0.0000 0.0000
# 4 0.0000 0.0000 0.0000 31.6991 0.0000 0.0000
# 5 0.0000 0.0000 0.0000 0.0000 -53.2810 0.0000
# 6 0.0000 0.0000 0.0000 0.0000 0.0000 -62.2522
#
#
#
# Elastic Compliance Matrix: (Units=1/GPa)
#
#
# Indices 1 2 3 4 5 6 
#
# 1 0.010496 -0.001313 -0.000317 0.000000 0.000000 0.000000
# 2 -0.001313 0.007177 -0.002330 0.000000 0.000000 0.000000
# 3 -0.000317 -0.002330 0.005632 0.000000 0.000000 0.000000
# 4 0.000000 0.000000 0.000000 0.031547 0.000000 0.000000
# 5 0.000000 0.000000 0.000000 0.000000 -0.018768 0.000000
# 6 0.000000 0.000000 0.000000 0.000000 0.000000 -0.016064
#
#
# Mechanical properties :
#
#
# Convention : Reuss Voigt Hill
#
# Bulk Modulus (GPa) = 65.00267 76.48682 70.74475
# Shear Modulus (GPa) = 151.20125 7.51605 79.35865
#
# Velocity S-wave (km/s) = 8.41824 1.87689 6.09875
# Velocity P-wave (km/s) = 11.17834 6.36755 9.09673
#
# Compressibility (1/GPa) = 0.01538398
#
# Stress axis : x y z
#
# Youngs Moduli (GPa) = 95.27413 139.32633 177.57026
#
# Poissons Ratio (x) = 0.18300 0.05628
# Poissons Ratio (y) = 0.12514 0.41376
# Poissons Ratio (z) = 0.03019 0.32465
#
# Static dielectric constant tensor:
#      x y z
#    x 1.761430 0.000000 0.000000 
#    y 0.000000 1.813310 0.000000 
#    z 0.000000 0.000000 1.795930 
# 
# From -- ./inp_files/8022.got.cif
#   From: 2010.05.17/outbox.cif.g08.bks.cpg/sg69_5_cif.got.tgz:8022.got - 2010.06.03 19:29:58.
