data_PCOD9511643
_publ_section_title
;
Structure prediction by ZEFSAII (Michael W. Deem and Ramdas Pophale) SiO2 
 PCOD9511643
Probable space group: F M M M
;
_chemical_formula_sum "Si O2"
_cell_formula_units_Z 192
_cell_length_a 15.639500
_cell_length_b 29.521193
_cell_length_c 23.195586
_cell_angle_alpha 90.000000
_cell_angle_beta 90.000000
_cell_angle_gamma 90.000000
_cell_volume 10709.325463
_symmetry_space_group_name_H-M "F M M M"
_symmetry_group_IT_number 69
_symmetry_cell_setting 'orthorhombic'
loop_
_space_group_symop_operation_xyz
x,y,z
-x,-y,z
x,-y,-z
-x,y,-z
-x,-y,-z
x,y,-z
-x,y,z
x,-y,z
x,1/2+y,1/2+z
-x,1/2-y,1/2+z
x,1/2-y,1/2-z
-x,1/2+y,1/2-z
-x,1/2-y,1/2-z
x,1/2+y,1/2-z
-x,1/2+y,1/2+z
x,1/2-y,1/2+z
1/2+x,y,1/2+z
1/2-x,-y,1/2+z
1/2+x,-y,1/2-z
1/2-x,y,1/2-z
1/2-x,-y,1/2-z
1/2+x,y,1/2-z
1/2-x,y,1/2+z
1/2+x,-y,1/2+z
1/2+x,1/2+y,z
1/2-x,1/2-y,z
1/2+x,1/2-y,-z
1/2-x,1/2+y,-z
1/2-x,1/2-y,-z
1/2+x,1/2+y,-z
1/2-x,1/2+y,z
1/2+x,1/2-y,z
loop_
_atom_site_type_symbol
_atom_site_label
_atom_site_fract_x
_atom_site_fract_y
_atom_site_fract_z
Si Si1 0.242604 0.900233 0.569720
Si Si2 0.900934 0.819274 0.236692
Si Si3 0.405218 0.171303 0.932033
Si Si4 0.265140 0.500000 0.567047
Si Si5 0.399352 0.899367 0.654007
Si Si6 0.346284 0.263014 0.340348
Si Si7 0.596265 0.000000 0.368330
O O1 0.255838 0.901239 0.500000
O O2 0.170689 0.863224 0.582911
O O3 0.331154 0.890457 0.603045
O O4 0.208872 0.950263 0.588879
O O5 0.878522 0.866869 0.207588
O O6 0.890731 0.780529 0.188037
O O7 0.846502 0.801589 0.290521
O O8 0.000000 0.820409 0.255567
O O9 0.500000 0.152069 0.920768
O O10 0.393253 0.216220 0.894784
O O11 0.399044 0.180744 0.000000
O O12 0.285991 0.500000 0.500000
O O13 0.163540 0.500000 0.579756
O O14 0.500000 0.890679 0.639028
O O15 0.392093 0.953206 0.666047
O O16 0.250000 0.250000 0.355092
O O17 0.500000 0.000000 0.391173
#
# Coordination Sequence:
#
# PCOD9511643 Si02
#       7
#    32  32  32  16  32  32  16
#     4   9  17  30  48  71 100 134 172 213 255 301
#     4  10  19  32  50  73 101 131 166 204 242 289
#     4  10  21  37  55  74  99 132 167 205 254 308
#     4   8  14  25  43  67  95 128 168 214 256 293
#     4   9  17  29  48  75 106 139 171 206 251 302
#     4  11  21  34  53  75  97 125 164 208 250 294
#     4   8  14  25  42  68 102 137 170 202 246 303
#
# _framework density 17.9283
#
# number of rings (size 3 to 8) (size 9 to 14) (size 15 to 20)
#    0.000    2.500    0.000    4.000    0.000    0.833 
#    0.000    4.583    0.000    4.500    0.000    8.167 
#    0.000    0.000    0.000    0.000    0.000    0.000 
#
# Total GULP energy -267296.497759 kJ/mol
# GULP energy per Si atom -5568.677037 kJ/mol
# Density = 1.788749 g / cm^3
# Si number density = 17.928300 Si / 1000 Ang^3
#
#
#
# Elastic Constant Matrix: (Units=GPa)
#
#
# Indices 1 2 3 4 5 6 
#
# 1 68.3451 40.2828 24.7461 0.0000 0.0000 0.0000
# 2 40.2828 52.9594 32.8844 0.0000 0.0000 0.0000
# 3 24.7461 32.8844 25.4531 0.0000 0.0000 0.0000
# 4 0.0000 0.0000 0.0000 24.3938 0.0000 0.0000
# 5 0.0000 0.0000 0.0000 0.0000 16.6288 0.0000
# 6 0.0000 0.0000 0.0000 0.0000 0.0000 24.3176
#
#
#
# Elastic Compliance Matrix: (Units=1/GPa)
#
#
# Indices 1 2 3 4 5 6 
#
# 1 0.026532 -0.021055 0.001407 0.000000 0.000000 0.000000
# 2 -0.021055 0.112183 -0.124467 0.000000 0.000000 0.000000
# 3 0.001407 -0.124467 0.198727 0.000000 0.000000 0.000000
# 4 0.000000 0.000000 0.000000 0.040994 0.000000 0.000000
# 5 0.000000 0.000000 0.000000 0.000000 0.060137 0.000000
# 6 0.000000 0.000000 0.000000 0.000000 0.000000 0.041122
#
#
# Mechanical properties :
#
#
# Convention : Reuss Voigt Hill
#
# Bulk Modulus (GPa) = 20.31995 38.06493 29.19244
# Shear Modulus (GPa) = 6.37488 16.32430 11.34959
#
# Velocity S-wave (km/s) = 1.88772 3.02078 2.51879
# Velocity P-wave (km/s) = 4.01372 5.78313 4.97768
#
# Compressibility (1/GPa) = 0.04921272
#
# Stress axis : x y z
#
# Youngs Moduli (GPa) = 37.69035 8.91398 5.03204
#
# Poissons Ratio (x) = 0.18768 -0.00708
# Poissons Ratio (y) = 0.79356 0.62632
# Poissons Ratio (z) = -0.05303 1.10949
#
# Static dielectric constant tensor:
#      x y z
#    x 1.616300 0.000000 0.000000 
#    y 0.000000 1.646190 0.000000 
#    z 0.000000 0.000000 1.596170 
# 
# From -- ./inp_files/41276.got.cif
#   From: 2010.05.17/outbox.cif.g08.bks.cpg/sg69_21_cif.got.tgz:41276.got - 2010.06.03 19:29:58.
