data_PCOD9511975
_publ_section_title
;
Structure prediction by ZEFSAII (Michael W. Deem and Ramdas Pophale) SiO2 
 PCOD9511975
Probable space group: F M M M
;
_chemical_formula_sum "Si O2"
_cell_formula_units_Z 160
_cell_length_a 16.601274
_cell_length_b 22.022720
_cell_length_c 22.715655
_cell_angle_alpha 90.000000
_cell_angle_beta 90.000000
_cell_angle_gamma 90.000000
_cell_volume 8304.961793
_symmetry_space_group_name_H-M "F M M M"
_symmetry_group_IT_number 69
_symmetry_cell_setting 'orthorhombic'
loop_
_space_group_symop_operation_xyz
x,y,z
-x,-y,z
x,-y,-z
-x,y,-z
-x,-y,-z
x,y,-z
-x,y,z
x,-y,z
x,1/2+y,1/2+z
-x,1/2-y,1/2+z
x,1/2-y,1/2-z
-x,1/2+y,1/2-z
-x,1/2-y,1/2-z
x,1/2+y,1/2-z
-x,1/2+y,1/2+z
x,1/2-y,1/2+z
1/2+x,y,1/2+z
1/2-x,-y,1/2+z
1/2+x,-y,1/2-z
1/2-x,y,1/2-z
1/2-x,-y,1/2-z
1/2+x,y,1/2-z
1/2-x,y,1/2+z
1/2+x,-y,1/2+z
1/2+x,1/2+y,z
1/2-x,1/2-y,z
1/2+x,1/2-y,-z
1/2-x,1/2+y,-z
1/2-x,1/2-y,-z
1/2+x,1/2+y,-z
1/2-x,1/2+y,z
1/2+x,1/2-y,z
loop_
_atom_site_type_symbol
_atom_site_label
_atom_site_fract_x
_atom_site_fract_y
_atom_site_fract_z
Si Si1 0.904229 0.229876 0.126957
Si Si2 0.859574 0.569266 0.500000
Si Si3 0.314856 0.669237 0.697885
Si Si4 0.593469 0.565401 0.762349
Si Si5 0.594067 0.711210 0.000000
Si Si6 0.817507 0.105094 0.127918
O O1 0.856833 0.270729 0.173250
O O2 0.873288 0.240037 0.059978
O O3 0.883676 0.159145 0.133004
O O4 0.000000 0.239952 0.131723
O O5 0.896748 0.500000 0.500000
O O6 0.901715 0.636932 0.500000
O O7 0.816384 0.574925 0.563719
O O8 0.250000 0.679430 0.750000
O O9 0.379645 0.621922 0.723090
O O10 0.265971 0.636587 0.645496
O O11 0.500000 0.571227 0.780204
O O12 0.601980 0.500000 0.731218
O O13 0.652406 0.564099 0.818511
O O14 0.500000 0.725213 0.000000
#
# Coordination Sequence:
#
# PCOD9511975 Si02
#       6
#    32  16  32  32  16  32
#     4  10  19  35  56  78 106 136 173 217 262 310
#     4  10  20  34  53  77 106 140 174 208 254 312
#     4  10  22  36  54  78 106 140 176 215 259 310
#     4  10  21  37  55  76 103 137 178 219 260 307
#     4   8  18  34  53  79 106 134 170 215 261 306
#     4  10  21  35  53  79 109 138 171 214 262 311
#
# _framework density 19.265592000000002
#
# number of rings (size 3 to 8) (size 9 to 14) (size 15 to 20)
#    0.000    2.200    0.000    2.400    0.000   11.800 
#    0.000    8.000    0.000    0.000    0.000    0.000 
#    0.000    7.200    0.000    0.000    0.000    0.000 
#
# Total GULP energy -222741.962981 kJ/mol
# GULP energy per Si atom -5568.549075 kJ/mol
# Density = 1.922174 g / cm^3
# Si number density = 19.265592 Si / 1000 Ang^3
#
#
#
# Elastic Constant Matrix: (Units=GPa)
#
#
# Indices 1 2 3 4 5 6 
#
# 1 51.2217 20.3263 12.3536 0.0000 0.0000 0.0000
# 2 20.3263 107.3354 44.4060 0.0000 0.0000 0.0000
# 3 12.3536 44.4060 88.4708 0.0000 0.0000 0.0000
# 4 0.0000 0.0000 0.0000 20.7464 0.0000 0.0000
# 5 0.0000 0.0000 0.0000 0.0000 15.4949 0.0000
# 6 0.0000 0.0000 0.0000 0.0000 0.0000 16.4711
#
#
#
# Elastic Compliance Matrix: (Units=1/GPa)
#
#
# Indices 1 2 3 4 5 6 
#
# 1 0.021209 -0.003523 -0.001193 0.000000 0.000000 0.000000
# 2 -0.003523 0.012343 -0.005704 0.000000 0.000000 0.000000
# 3 -0.001193 -0.005704 0.014333 0.000000 0.000000 0.000000
# 4 0.000000 0.000000 0.000000 0.048201 0.000000 0.000000
# 5 0.000000 0.000000 0.000000 0.000000 0.064537 0.000000
# 6 0.000000 0.000000 0.000000 0.000000 0.000000 0.060713
#
#
# Mechanical properties :
#
#
# Convention : Reuss Voigt Hill
#
# Bulk Modulus (GPa) = 36.97479 44.57774 40.77627
# Shear Modulus (GPa) = 19.90528 21.87195 20.88861
#
# Velocity S-wave (km/s) = 3.21784 3.37306 3.29636
# Velocity P-wave (km/s) = 5.74802 6.19345 5.97489
#
# Compressibility (1/GPa) = 0.02704545
#
# Stress axis : x y z
#
# Youngs Moduli (GPa) = 47.15051 81.01555 69.77110
#
# Poissons Ratio (x) = 0.28539 0.08326
# Poissons Ratio (y) = 0.16609 0.39794
# Poissons Ratio (z) = 0.05627 0.46208
#
# Static dielectric constant tensor:
#      x y z
#    x 1.651220 0.000000 0.000000 
#    y 0.000000 1.710580 0.000000 
#    z 0.000000 0.000000 1.742900 
# 
# From -- ./inp_files/36615.got.cif
#   From: 2010.05.17/outbox.cif.g08.bks.cpg/sg69_19_cif.got.tgz:36615.got - 2010.06.03 19:29:58.
