data_PCOD9511695
_publ_section_title
;
Structure prediction by ZEFSAII (Michael W. Deem and Ramdas Pophale) SiO2 
 PCOD9511695
Probable space group: F M M M
;
_chemical_formula_sum "Si O2"
_cell_formula_units_Z 160
_cell_length_a 33.607074
_cell_length_b 13.936245
_cell_length_c 18.999912
_cell_angle_alpha 90.000000
_cell_angle_beta 90.000000
_cell_angle_gamma 90.000000
_cell_volume 8898.730708
_symmetry_space_group_name_H-M "F M M M"
_symmetry_group_IT_number 69
_symmetry_cell_setting 'orthorhombic'
loop_
_space_group_symop_operation_xyz
x,y,z
-x,-y,z
x,-y,-z
-x,y,-z
-x,-y,-z
x,y,-z
-x,y,z
x,-y,z
x,1/2+y,1/2+z
-x,1/2-y,1/2+z
x,1/2-y,1/2-z
-x,1/2+y,1/2-z
-x,1/2-y,1/2-z
x,1/2+y,1/2-z
-x,1/2+y,1/2+z
x,1/2-y,1/2+z
1/2+x,y,1/2+z
1/2-x,-y,1/2+z
1/2+x,-y,1/2-z
1/2-x,y,1/2-z
1/2-x,-y,1/2-z
1/2+x,y,1/2-z
1/2-x,y,1/2+z
1/2+x,-y,1/2+z
1/2+x,1/2+y,z
1/2-x,1/2-y,z
1/2+x,1/2-y,-z
1/2-x,1/2+y,-z
1/2-x,1/2-y,-z
1/2+x,1/2+y,-z
1/2-x,1/2+y,z
1/2+x,1/2-y,z
loop_
_atom_site_type_symbol
_atom_site_label
_atom_site_fract_x
_atom_site_fract_y
_atom_site_fract_z
Si Si1 0.047171 0.109727 0.276928
Si Si2 0.325755 0.610709 0.000000
Si Si3 0.421451 0.782519 0.358496
Si Si4 0.327336 0.215198 0.642586
Si Si5 0.077083 0.889408 0.000000
Si Si6 0.795562 0.109856 0.275508
O O1 0.069399 0.148218 0.207539
O O2 0.057841 0.182432 0.339414
O O3 0.000000 0.115427 0.263298
O O4 0.057897 0.000000 0.291827
O O5 0.313270 0.666030 0.070608
O O6 0.374309 0.608849 0.000000
O O7 0.312374 0.500000 0.000000
O O8 0.374266 0.765212 0.363222
O O9 0.435320 0.833486 0.429787
O O10 0.320998 0.142471 0.707706
O O11 0.304902 0.312623 0.664349
O O12 0.063704 0.000000 0.000000
O O13 0.750000 0.117700 0.250000
O O14 0.803671 0.000000 0.295402
#
# Coordination Sequence:
#
# PCOD9511695 Si02
#       6
#    32  16  32  32  16  32
#     4  10  20  34  51  72 101 134 165 201 247 298
#     4   9  18  32  50  75 105 132 161 202 253 300
#     4  10  19  32  53  77 100 127 165 210 249 292
#     4  10  19  32  53  77  99 129 168 208 249 295
#     4   9  18  32  50  75 104 129 159 205 255 297
#     4  10  20  34  51  73 103 135 167 206 249 293
#
# _framework density 17.980093
#
# number of rings (size 3 to 8) (size 9 to 14) (size 15 to 20)
#    0.000    2.200    0.000    6.000    0.000    4.800 
#    0.000    5.000    0.000   10.800    0.000    0.000 
#    0.000    0.000    0.000    0.000    0.000    0.000 
#
# Total GULP energy -223220.108084 kJ/mol
# GULP energy per Si atom -5580.502702 kJ/mol
# Density = 1.793917 g / cm^3
# Si number density = 17.980093 Si / 1000 Ang^3
#
#
#
# Elastic Constant Matrix: (Units=GPa)
#
#
# Indices 1 2 3 4 5 6 
#
# 1 31.0630 29.6507 7.8978 0.0000 0.0000 0.0000
# 2 29.6507 197.8301 90.2363 0.0000 0.0000 0.0000
# 3 7.8978 90.2363 130.0780 0.0000 0.0000 0.0000
# 4 0.0000 0.0000 0.0000 18.7412 0.0000 0.0000
# 5 0.0000 0.0000 0.0000 0.0000 -38.8004 0.0000
# 6 0.0000 0.0000 0.0000 0.0000 0.0000 32.7792
#
#
#
# Elastic Compliance Matrix: (Units=1/GPa)
#
#
# Indices 1 2 3 4 5 6 
#
# 1 0.038077 -0.006806 0.002409 0.000000 0.000000 0.000000
# 2 -0.006806 0.008611 -0.005560 0.000000 0.000000 0.000000
# 3 0.002409 -0.005560 0.011399 0.000000 0.000000 0.000000
# 4 0.000000 0.000000 0.000000 0.053358 0.000000 0.000000
# 5 0.000000 0.000000 0.000000 0.000000 -0.025773 0.000000
# 6 0.000000 0.000000 0.000000 0.000000 0.000000 0.030507
#
#
# Mechanical properties :
#
#
# Convention : Reuss Voigt Hill
#
# Bulk Modulus (GPa) = 26.19673 68.28229 47.23951
# Shear Modulus (GPa) = 33.59830 17.95642 25.77736
#
# Velocity S-wave (km/s) = 4.32746 3.16362 3.79048
# Velocity P-wave (km/s) = 6.29053 7.16964 6.74442
#
# Compressibility (1/GPa) = 0.03817271
#
# Stress axis : x y z
#
# Youngs Moduli (GPa) = 26.26286 116.12792 87.72917
#
# Poissons Ratio (x) = 0.79036 -0.21138
# Poissons Ratio (y) = 0.17874 0.48781
# Poissons Ratio (z) = -0.06328 0.64572
#
# Static dielectric constant tensor:
#      x y z
#    x 1.633670 0.000000 0.000000 
#    y 0.000000 1.613720 0.000000 
#    z 0.000000 0.000000 1.596380 
# 
# From -- ./inp_files/27491.got.cif
#   From: 2010.05.17/outbox.cif.g08.bks.cpg/sg69_14_cif.got.tgz:27491.got - 2010.06.03 19:29:58.
