data_PCOD9511016
_publ_section_title
;
Structure prediction by ZEFSAII (Michael W. Deem and Ramdas Pophale) SiO2 
 PCOD9511016
Probable space group: F M M M
;
_chemical_formula_sum "Si O2"
_cell_formula_units_Z 136
_cell_length_a 13.420513
_cell_length_b 23.922280
_cell_length_c 22.803202
_cell_angle_alpha 90.000000
_cell_angle_beta 90.000000
_cell_angle_gamma 90.000000
_cell_volume 7320.951350
_symmetry_space_group_name_H-M "F M M M"
_symmetry_group_IT_number 69
_symmetry_cell_setting 'orthorhombic'
loop_
_space_group_symop_operation_xyz
x,y,z
-x,-y,z
x,-y,-z
-x,y,-z
-x,-y,-z
x,y,-z
-x,y,z
x,-y,z
x,1/2+y,1/2+z
-x,1/2-y,1/2+z
x,1/2-y,1/2-z
-x,1/2+y,1/2-z
-x,1/2-y,1/2-z
x,1/2+y,1/2-z
-x,1/2+y,1/2+z
x,1/2-y,1/2+z
1/2+x,y,1/2+z
1/2-x,-y,1/2+z
1/2+x,-y,1/2-z
1/2-x,y,1/2-z
1/2-x,-y,1/2-z
1/2+x,y,1/2-z
1/2-x,y,1/2+z
1/2+x,-y,1/2+z
1/2+x,1/2+y,z
1/2-x,1/2-y,z
1/2+x,1/2-y,-z
1/2-x,1/2+y,-z
1/2-x,1/2-y,-z
1/2+x,1/2+y,-z
1/2-x,1/2+y,z
1/2+x,1/2-y,z
loop_
_atom_site_type_symbol
_atom_site_label
_atom_site_fract_x
_atom_site_fract_y
_atom_site_fract_z
Si Si1 0.325381 0.328842 0.129288
Si Si2 0.000000 0.000000 0.850219
Si Si3 0.387204 0.799559 0.138866
Si Si4 0.000000 0.392459 0.567997
Si Si5 0.889311 0.500000 0.766036
Si Si6 0.117010 0.620762 0.751137
O O1 0.366276 0.266452 0.142307
O O2 0.211224 0.324418 0.107516
O O3 0.401878 0.357306 0.085031
O O4 0.330377 0.361416 0.191307
O O5 0.000000 0.946526 0.891014
O O6 0.092551 0.000000 0.804645
O O7 0.500000 0.809116 0.115991
O O8 0.382394 0.829049 0.202449
O O9 0.000000 0.406876 0.500000
O O10 0.847370 0.438569 0.778482
O O11 0.000000 0.500000 0.793848
O O12 0.000000 0.611309 0.735989
#
# Coordination Sequence:
#
# PCOD9511016 Si02
#       6
#    32   8  32  16  16  32
#     4  11  19  36  53  77 117 142 188 236 272 329
#     4  10  17  38  56  82 114 144 178 242 293 322
#     4  10  21  32  54  80 110 154 186 213 273 343
#     4  12  23  38  62  85 105 143 191 244 293 324
#     4   8  14  27  50  74 114 148 176 225 274 313
#     4  10  16  29  50  79 112 150 185 215 271 333
#
# _framework density 18.576820999999999
#
# number of rings (size 3 to 8) (size 9 to 14) (size 15 to 20)
#    0.353    1.412    4.706    1.588    0.000    3.765 
#    0.000    5.882    0.000    0.000    0.000    0.000 
#    0.000    1.882    0.000    0.000    0.000    0.000 
#
# Total GULP energy -189403.259043 kJ/mol
# GULP energy per Si atom -5570.684089 kJ/mol
# Density = 1.853454 g / cm^3
# Si number density = 18.576821 Si / 1000 Ang^3
#
#
#
# Elastic Constant Matrix: (Units=GPa)
#
#
# Indices 1 2 3 4 5 6 
#
# 1 148.2909 12.1478 -4.4382 0.0000 0.0000 0.0000
# 2 12.1478 84.8398 15.0076 0.0000 0.0000 0.0000
# 3 -4.4382 15.0076 39.5394 0.0000 0.0000 0.0000
# 4 0.0000 0.0000 0.0000 -9.0018 0.0000 0.0000
# 5 0.0000 0.0000 0.0000 0.0000 6.2133 0.0000
# 6 0.0000 0.0000 0.0000 0.0000 0.0000 12.6871
#
#
#
# Elastic Compliance Matrix: (Units=1/GPa)
#
#
# Indices 1 2 3 4 5 6 
#
# 1 0.006879 -0.001202 0.001228 0.000000 0.000000 0.000000
# 2 -0.001202 0.012845 -0.005011 0.000000 0.000000 0.000000
# 3 0.001228 -0.005011 0.027331 0.000000 0.000000 0.000000
# 4 0.000000 0.000000 0.000000 -0.111089 0.000000 0.000000
# 5 0.000000 0.000000 0.000000 0.000000 0.160944 0.000000
# 6 0.000000 0.000000 0.000000 0.000000 0.000000 0.078820
#
#
# Mechanical properties :
#
#
# Convention : Reuss Voigt Hill
#
# Bulk Modulus (GPa) = 26.96407 35.34496 31.15452
# Shear Modulus (GPa) = 25.24479 18.64326 21.94402
#
# Velocity S-wave (km/s) = 3.69038 3.17136 3.44067
# Velocity P-wave (km/s) = 5.71882 5.69892 5.70888
#
# Compressibility (1/GPa) = 0.03708638
#
# Stress axis : x y z
#
# Youngs Moduli (GPa) = 145.37511 77.84893 36.58857
#
# Poissons Ratio (x) = 0.09359 -0.04495
# Poissons Ratio (y) = 0.17478 0.18333
# Poissons Ratio (z) = -0.17858 0.39007
#
# Static dielectric constant tensor:
#      x y z
#    x 1.769400 0.000000 0.000000 
#    y 0.000000 1.666530 0.000000 
#    z 0.000000 0.000000 1.577420 
# 
# From -- ./inp_files/29812.got.cif
#   From: 2010.05.17/outbox.cif.g08.bks.cpg/sg69_15_cif.got.tgz:29812.got - 2010.06.03 19:29:58.
