data_PCOD9511968
_publ_section_title
;
Structure prediction by ZEFSAII (Michael W. Deem and Ramdas Pophale) SiO2 
 PCOD9511968
Probable space group: F M M M
;
_chemical_formula_sum "Si O2"
_cell_formula_units_Z 160
_cell_length_a 17.780651
_cell_length_b 28.042404
_cell_length_c 18.431545
_cell_angle_alpha 90.000000
_cell_angle_beta 90.000000
_cell_angle_gamma 90.000000
_cell_volume 9190.193178
_symmetry_space_group_name_H-M "F M M M"
_symmetry_group_IT_number 69
_symmetry_cell_setting 'orthorhombic'
loop_
_space_group_symop_operation_xyz
x,y,z
-x,-y,z
x,-y,-z
-x,y,-z
-x,-y,-z
x,y,-z
-x,y,z
x,-y,z
x,1/2+y,1/2+z
-x,1/2-y,1/2+z
x,1/2-y,1/2-z
-x,1/2+y,1/2-z
-x,1/2-y,1/2-z
x,1/2+y,1/2-z
-x,1/2+y,1/2+z
x,1/2-y,1/2+z
1/2+x,y,1/2+z
1/2-x,-y,1/2+z
1/2+x,-y,1/2-z
1/2-x,y,1/2-z
1/2-x,-y,1/2-z
1/2+x,y,1/2-z
1/2-x,y,1/2+z
1/2+x,-y,1/2+z
1/2+x,1/2+y,z
1/2-x,1/2-y,z
1/2+x,1/2-y,-z
1/2-x,1/2+y,-z
1/2-x,1/2-y,-z
1/2+x,1/2+y,-z
1/2-x,1/2+y,z
1/2+x,1/2-y,z
loop_
_atom_site_type_symbol
_atom_site_label
_atom_site_fract_x
_atom_site_fract_y
_atom_site_fract_z
Si Si1 0.721871 0.344949 0.666548
Si Si2 0.085969 0.081928 0.913479
Si Si3 0.634944 0.810476 0.585059
Si Si4 0.914413 0.776465 0.324604
Si Si5 0.237195 0.448161 0.662861
O O1 0.750000 0.345766 0.750000
O O2 0.784256 0.315479 0.622945
O O3 0.642611 0.319153 0.661784
O O4 0.722608 0.399424 0.638252
O O5 0.093258 0.139065 0.901221
O O6 0.150594 0.058677 0.863643
O O7 0.000000 0.066950 0.898303
O O8 0.100576 0.073310 0.000000
O O9 0.644700 0.805837 0.500000
O O10 0.592711 0.764862 0.615943
O O11 0.892481 0.750000 0.250000
O O12 0.000000 0.793047 0.317836
O O13 0.262985 0.500000 0.635203
O O14 0.250000 0.449119 0.750000
#
# Coordination Sequence:
#
# PCOD9511968 Si02
#       5
#    32  32  32  32  32
#     4  10  19  35  54  73 101 139 177 219 256 307
#     4   9  18  33  55  84 114 140 170 217 280 337
#     4  10  20  34  54  79 108 142 174 210 260 319
#     4  11  22  33  50  77 106 139 177 214 258 310
#     4   9  19  35  52  73 104 143 182 219 261 313
#
# _framework density 17.409863000000001
#
# number of rings (size 3 to 8) (size 9 to 14) (size 15 to 20)
#    0.000    2.200    2.000    1.200    0.000    3.600 
#    0.000    1.000    0.000    1.800    0.000    0.000 
#    0.000    0.800    0.000   21.600    0.000    0.000 
#
# Total GULP energy -222981.975355 kJ/mol
# GULP energy per Si atom -5574.549384 kJ/mol
# Density = 1.737024 g / cm^3
# Si number density = 17.409863 Si / 1000 Ang^3
#
#
#
# Elastic Constant Matrix: (Units=GPa)
#
#
# Indices 1 2 3 4 5 6 
#
# 1 89.2793 48.8408 26.4406 0.0000 0.0000 0.0000
# 2 48.8408 92.1163 18.2722 0.0000 0.0000 0.0000
# 3 26.4406 18.2722 55.2752 0.0000 0.0000 0.0000
# 4 0.0000 0.0000 0.0000 1211.1046 0.0000 0.0000
# 5 0.0000 0.0000 0.0000 0.0000 21.6388 0.0000
# 6 0.0000 0.0000 0.0000 0.0000 0.0000 9.5188
#
#
#
# Elastic Compliance Matrix: (Units=1/GPa)
#
#
# Indices 1 2 3 4 5 6 
#
# 1 0.017256 -0.008039 -0.005597 0.000000 0.000000 0.000000
# 2 -0.008039 0.015363 -0.001233 0.000000 0.000000 0.000000
# 3 -0.005597 -0.001233 0.021176 0.000000 0.000000 0.000000
# 4 0.000000 0.000000 0.000000 0.000826 0.000000 0.000000
# 5 0.000000 0.000000 0.000000 0.000000 0.046213 0.000000
# 6 0.000000 0.000000 0.000000 0.000000 0.000000 0.105055
#
#
# Mechanical properties :
#
#
# Convention : Reuss Voigt Hill
#
# Bulk Modulus (GPa) = 41.56781 47.08642 44.32712
# Shear Modulus (GPa) = 20.52153 257.99360 139.25756
#
# Velocity S-wave (km/s) = 3.43699 12.18646 8.95329
# Velocity P-wave (km/s) = 6.29908 15.00392 11.50643
#
# Compressibility (1/GPa) = 0.02405708
#
# Stress axis : x y z
#
# Youngs Moduli (GPa) = 57.95003 65.09210 47.22295
#
# Poissons Ratio (x) = 0.52329 0.26430
# Poissons Ratio (y) = 0.46587 0.05822
# Poissons Ratio (z) = 0.32434 0.08026
#
# Static dielectric constant tensor:
#      x y z
#    x 1.579220 0.000000 0.000000 
#    y 0.000000 1.628330 0.000000 
#    z 0.000000 0.000000 1.605200 
# 
# From -- ./inp_files/23104.got.cif
#   From: 2010.05.17/outbox.cif.g08.bks.cpg/sg69_12_cif.got.tgz:23104.got - 2010.06.03 19:29:58.
