data_PCOD9511870
_publ_section_title
;
Structure prediction by ZEFSAII (Michael W. Deem and Ramdas Pophale) SiO2 
 PCOD9511870
Probable space group: F M M M
;
_chemical_formula_sum "Si O2"
_cell_formula_units_Z 160
_cell_length_a 13.796705
_cell_length_b 28.678340
_cell_length_c 24.175414
_cell_angle_alpha 90.000000
_cell_angle_beta 90.000000
_cell_angle_gamma 90.000000
_cell_volume 9565.403785
_symmetry_space_group_name_H-M "F M M M"
_symmetry_group_IT_number 69
_symmetry_cell_setting 'orthorhombic'
loop_
_space_group_symop_operation_xyz
x,y,z
-x,-y,z
x,-y,-z
-x,y,-z
-x,-y,-z
x,y,-z
-x,y,z
x,-y,z
x,1/2+y,1/2+z
-x,1/2-y,1/2+z
x,1/2-y,1/2-z
-x,1/2+y,1/2-z
-x,1/2-y,1/2-z
x,1/2+y,1/2-z
-x,1/2+y,1/2+z
x,1/2-y,1/2+z
1/2+x,y,1/2+z
1/2-x,-y,1/2+z
1/2+x,-y,1/2-z
1/2-x,y,1/2-z
1/2-x,-y,1/2-z
1/2+x,y,1/2-z
1/2-x,y,1/2+z
1/2+x,-y,1/2+z
1/2+x,1/2+y,z
1/2-x,1/2-y,z
1/2+x,1/2-y,-z
1/2-x,1/2+y,-z
1/2-x,1/2-y,-z
1/2+x,1/2+y,-z
1/2-x,1/2+y,z
1/2+x,1/2-y,z
loop_
_atom_site_type_symbol
_atom_site_label
_atom_site_fract_x
_atom_site_fract_y
_atom_site_fract_z
Si Si1 0.383458 0.346446 0.437610
Si Si2 0.617768 0.948832 0.097243
Si Si3 0.777817 0.695950 0.833218
Si Si4 0.384703 0.650540 0.770893
Si Si5 0.616864 0.550951 0.274482
O O1 0.364060 0.330206 0.500000
O O2 0.500000 0.343965 0.428071
O O3 0.354571 0.401154 0.432571
O O4 0.328522 0.318214 0.390217
O O5 0.500000 0.949763 0.095902
O O6 0.648263 0.944728 0.161597
O O7 0.649887 0.000000 0.076465
O O8 0.750000 0.750000 0.829967
O O9 0.677884 0.668515 0.822015
O O10 0.848235 0.679753 0.782813
O O11 0.500000 0.655095 0.777084
O O12 0.358005 0.596641 0.759517
O O13 0.500000 0.551192 0.276863
O O14 0.645290 0.500000 0.252539
#
# Coordination Sequence:
#
# PCOD9511870 Si02
#       5
#    32  32  32  32  32
#     4  10  20  35  55  75  99 133 167 205 254 302
#     4   8  13  24  45  73 103 132 159 192 239 295
#     4  11  23  35  50  74 101 129 170 217 252 288
#     4  10  19  34  54  75 103 135 166 200 247 302
#     4   8  13  24  46  73 102 133 159 190 236 293
#
# _framework density 16.726946999999999
#
# number of rings (size 3 to 8) (size 9 to 14) (size 15 to 20)
#    0.000    2.600    2.000    3.000    0.000    3.200 
#    0.000    5.000    0.000    0.600    0.000    0.000 
#    0.000    0.000    0.000    6.800    0.000    0.200 
#
# Total GULP energy -222860.429900 kJ/mol
# GULP energy per Si atom -5571.510747 kJ/mol
# Density = 1.668888 g / cm^3
# Si number density = 16.726947 Si / 1000 Ang^3
#
#
#
# Elastic Constant Matrix: (Units=GPa)
#
#
# Indices 1 2 3 4 5 6 
#
# 1 87.5189 25.3433 35.8876 0.0000 0.0000 0.0000
# 2 25.3433 117.7606 50.8659 0.0000 0.0000 0.0000
# 3 35.8876 50.8659 79.0661 0.0000 0.0000 0.0000
# 4 0.0000 0.0000 0.0000 89.4449 0.0000 0.0000
# 5 0.0000 0.0000 0.0000 0.0000 23.0361 0.0000
# 6 0.0000 0.0000 0.0000 0.0000 0.0000 30.3132
#
#
#
# Elastic Compliance Matrix: (Units=1/GPa)
#
#
# Indices 1 2 3 4 5 6 
#
# 1 0.014051 -0.000373 -0.006138 0.000000 0.000000 0.000000
# 2 -0.000373 0.011769 -0.007403 0.000000 0.000000 0.000000
# 3 -0.006138 -0.007403 0.020196 0.000000 0.000000 0.000000
# 4 0.000000 0.000000 0.000000 0.011180 0.000000 0.000000
# 5 0.000000 0.000000 0.000000 0.000000 0.043410 0.000000
# 6 0.000000 0.000000 0.000000 0.000000 0.000000 0.032989
#
#
# Mechanical properties :
#
#
# Convention : Reuss Voigt Hill
#
# Bulk Modulus (GPa) = 54.97500 56.50436 55.73968
# Shear Modulus (GPa) = 29.85346 40.04212 34.94779
#
# Velocity S-wave (km/s) = 4.22922 4.89803 4.57586
# Velocity P-wave (km/s) = 7.53564 8.11427 7.83030
#
# Compressibility (1/GPa) = 0.01819009
#
# Stress axis : x y z
#
# Youngs Moduli (GPa) = 71.16997 84.96546 49.51510
#
# Poissons Ratio (x) = 0.03167 0.30392
# Poissons Ratio (y) = 0.02652 0.36654
# Poissons Ratio (z) = 0.43683 0.62896
#
# Static dielectric constant tensor:
#      x y z
#    x 1.582020 0.000000 0.000000 
#    y 0.000000 1.600350 0.000000 
#    z 0.000000 0.000000 1.561460 
# 
# From -- ./inp_files/17976.got.cif
#   From: 2010.05.17/outbox.cif.g08.bks.cpg/sg69_9_cif.got.tgz:17976.got - 2010.06.03 19:29:58.
