data_PCOD9511209
_publ_section_title
;
Structure prediction by ZEFSAII (Michael W. Deem and Ramdas Pophale) SiO2 
 PCOD9511209
Probable space group: F M M M
;
_chemical_formula_sum "Si O2"
_cell_formula_units_Z 136
_cell_length_a 14.291762
_cell_length_b 27.102084
_cell_length_c 22.130729
_cell_angle_alpha 90.000000
_cell_angle_beta 90.000000
_cell_angle_gamma 90.000000
_cell_volume 8572.039871
_symmetry_space_group_name_H-M "F M M M"
_symmetry_group_IT_number 69
_symmetry_cell_setting 'orthorhombic'
loop_
_space_group_symop_operation_xyz
x,y,z
-x,-y,z
x,-y,-z
-x,y,-z
-x,-y,-z
x,y,-z
-x,y,z
x,-y,z
x,1/2+y,1/2+z
-x,1/2-y,1/2+z
x,1/2-y,1/2-z
-x,1/2+y,1/2-z
-x,1/2-y,1/2-z
x,1/2+y,1/2-z
-x,1/2+y,1/2+z
x,1/2-y,1/2+z
1/2+x,y,1/2+z
1/2-x,-y,1/2+z
1/2+x,-y,1/2-z
1/2-x,y,1/2-z
1/2-x,-y,1/2-z
1/2+x,y,1/2-z
1/2-x,y,1/2+z
1/2+x,-y,1/2+z
1/2+x,1/2+y,z
1/2-x,1/2-y,z
1/2+x,1/2-y,-z
1/2-x,1/2+y,-z
1/2-x,1/2-y,-z
1/2+x,1/2+y,-z
1/2-x,1/2+y,z
1/2+x,1/2-y,z
loop_
_atom_site_type_symbol
_atom_site_label
_atom_site_fract_x
_atom_site_fract_y
_atom_site_fract_z
Si Si1 0.000000 0.594589 0.790746
Si Si2 0.711892 0.696922 0.680295
Si Si3 0.288429 0.000000 0.680614
Si Si4 0.500000 0.500000 0.793614
Si Si5 0.813434 0.905407 0.372220
Si Si6 0.387308 0.559425 0.500000
Si Si7 0.000000 0.799088 0.711478
O O1 0.000000 0.548478 0.747578
O O2 0.908267 0.592636 0.832289
O O3 0.000000 0.647254 0.756515
O O4 0.750000 0.690625 0.750000
O O5 0.750000 0.750000 0.659479
O O6 0.733759 0.647440 0.642786
O O7 0.599129 0.701345 0.677959
O O8 0.250000 0.000000 0.750000
O O9 0.400155 0.000000 0.674376
O O10 0.248900 0.049202 0.650064
O O11 0.843616 0.915527 0.440736
O O12 0.369624 0.500000 0.500000
O O13 0.500000 0.565602 0.500000
O O14 0.000000 0.750000 0.750000
#
# Coordination Sequence:
#
# PCOD9511209 Si02
#       7
#    16  32  16   8  32  16  16
#     4  10  20  31  53  80 112 138 174 220 269 332
#     4  10  20  33  53  80 112 145 175 215 272 330
#     4  12  22  33  53  79 115 143 174 217 271 328
#     4  12  24  32  46  82 118 148 168 208 280 344
#     4  11  21  36  54  82 109 143 178 231 268 324
#     4  11  22  36  59  82 108 140 187 227 280 317
#     4  10  18  30  47  74 109 141 176 210 254 315
#
# _framework density 15.865534999999999
#
# number of rings (size 3 to 8) (size 9 to 14) (size 15 to 20)
#    0.000    1.294    7.059    0.706    3.294    0.000 
#    0.000    0.588    0.000    1.412    0.000    0.000 
#    0.000    0.000    0.000    0.000    0.000    0.000 
#
# Total GULP energy -189402.099384 kJ/mol
# GULP energy per Si atom -5570.649982 kJ/mol
# Density = 1.582942 g / cm^3
# Si number density = 15.865535 Si / 1000 Ang^3
#
#
#
# Elastic Constant Matrix: (Units=GPa)
#
#
# Indices 1 2 3 4 5 6 
#
# 1 103.2281 52.0095 25.0099 0.0000 0.0000 0.0000
# 2 52.0095 197.9706 62.4853 0.0000 0.0000 0.0000
# 3 25.0099 62.4853 78.8356 0.0000 0.0000 0.0000
# 4 0.0000 0.0000 0.0000 10.2598 0.0000 0.0000
# 5 0.0000 0.0000 0.0000 0.0000 17.9666 0.0000
# 6 0.0000 0.0000 0.0000 0.0000 0.0000 28.9113
#
#
#
# Elastic Compliance Matrix: (Units=1/GPa)
#
#
# Indices 1 2 3 4 5 6 
#
# 1 0.011323 -0.002455 -0.001646 0.000000 0.000000 0.000000
# 2 -0.002455 0.007269 -0.004982 0.000000 0.000000 0.000000
# 3 -0.001646 -0.004982 0.017156 0.000000 0.000000 0.000000
# 4 0.000000 0.000000 0.000000 0.097468 0.000000 0.000000
# 5 0.000000 0.000000 0.000000 0.000000 0.055659 0.000000
# 6 0.000000 0.000000 0.000000 0.000000 0.000000 0.034589
#
#
# Mechanical properties :
#
#
# Convention : Reuss Voigt Hill
#
# Bulk Modulus (GPa) = 56.88171 73.22708 65.05440
# Shear Modulus (GPa) = 20.20276 27.46285 23.83280
#
# Velocity S-wave (km/s) = 3.57231 4.16501 3.87999
# Velocity P-wave (km/s) = 7.27636 8.32975 7.82081
#
# Compressibility (1/GPa) = 0.01758034
#
# Stress axis : x y z
#
# Youngs Moduli (GPa) = 88.31509 137.57331 58.28878
#
# Poissons Ratio (x) = 0.33776 0.09596
# Poissons Ratio (y) = 0.21683 0.29042
# Poissons Ratio (z) = 0.14539 0.68545
#
# Static dielectric constant tensor:
#      x y z
#    x 1.598180 0.000000 0.000000 
#    y 0.000000 1.544050 0.000000 
#    z 0.000000 0.000000 1.506520 
# 
# From -- ./inp_files/16767.got.cif
#   From: 2010.05.17/outbox.cif.g08.bks.cpg/sg69_9_cif.got.tgz:16767.got - 2010.06.03 19:29:58.
