data_PCOD9511895
_publ_section_title
;
Structure prediction by ZEFSAII (Michael W. Deem and Ramdas Pophale) SiO2 
 PCOD9511895
Probable space group: F M M M
;
_chemical_formula_sum "Si O2"
_cell_formula_units_Z 136
_cell_length_a 16.902758
_cell_length_b 18.101045
_cell_length_c 24.390221
_cell_angle_alpha 90.000000
_cell_angle_beta 90.000000
_cell_angle_gamma 90.000000
_cell_volume 7462.373070
_symmetry_space_group_name_H-M "F M M M"
_symmetry_group_IT_number 69
_symmetry_cell_setting 'orthorhombic'
loop_
_space_group_symop_operation_xyz
x,y,z
-x,-y,z
x,-y,-z
-x,y,-z
-x,-y,-z
x,y,-z
-x,y,z
x,-y,z
x,1/2+y,1/2+z
-x,1/2-y,1/2+z
x,1/2-y,1/2-z
-x,1/2+y,1/2-z
-x,1/2-y,1/2-z
x,1/2+y,1/2-z
-x,1/2+y,1/2+z
x,1/2-y,1/2+z
1/2+x,y,1/2+z
1/2-x,-y,1/2+z
1/2+x,-y,1/2-z
1/2-x,y,1/2-z
1/2-x,-y,1/2-z
1/2+x,y,1/2-z
1/2-x,y,1/2+z
1/2+x,-y,1/2+z
1/2+x,1/2+y,z
1/2-x,1/2-y,z
1/2+x,1/2-y,-z
1/2-x,1/2+y,-z
1/2-x,1/2-y,-z
1/2+x,1/2+y,-z
1/2-x,1/2+y,z
1/2+x,1/2-y,z
loop_
_atom_site_type_symbol
_atom_site_label
_atom_site_fract_x
_atom_site_fract_y
_atom_site_fract_z
Si Si1 0.160359 0.356738 0.379215
Si Si2 0.500000 0.917252 0.598396
Si Si3 0.298093 0.914231 0.193869
Si Si4 0.672038 0.700579 0.000000
Si Si5 0.591997 0.777522 0.812813
Si Si6 0.500000 0.299328 0.000000
O O1 0.235307 0.396042 0.353410
O O2 0.172225 0.346123 0.444066
O O3 0.143270 0.277533 0.350784
O O4 0.080473 0.403437 0.368618
O O5 0.500000 0.854035 0.552119
O O6 0.500000 0.000000 0.575582
O O7 0.250000 0.898043 0.250000
O O8 0.370839 0.858729 0.186939
O O9 0.320867 0.000000 0.194195
O O10 0.750000 0.750000 0.000000
O O11 0.585101 0.740638 0.000000
O O12 0.500000 0.775341 0.830266
O O13 0.596287 0.750000 0.750000
#
# Coordination Sequence:
#
# PCOD9511895 Si02
#       6
#    32  16  32  16  32   8
#     4  11  21  38  58  88 116 151 197 235 293 348
#     4  10  19  34  55  83 120 151 183 237 289 347
#     4  11  23  38  58  84 116 155 195 238 287 345
#     4  10  20  35  57  84 117 152 190 249 289 339
#     4  11  22  38  59  84 115 153 196 241 290 341
#     4   8  19  32  52  80 114 152 197 226 295 354
#
# _framework density 18.224765999999999
#
# number of rings (size 3 to 8) (size 9 to 14) (size 15 to 20)
#    0.000    1.412    3.529    3.000    0.000    0.471 
#    0.000    1.765    0.000    0.000    0.000    0.000 
#    0.000    5.647    0.000    0.000    0.000    0.000 
#
# Total GULP energy -189750.494674 kJ/mol
# GULP energy per Si atom -5580.896902 kJ/mol
# Density = 1.818329 g / cm^3
# Si number density = 18.224766 Si / 1000 Ang^3
#
#
#
# Elastic Constant Matrix: (Units=GPa)
#
#
# Indices 1 2 3 4 5 6 
#
# 1 82.1218 21.9323 -0.4770 0.0000 0.0000 0.0000
# 2 21.9323 72.5660 3.0887 0.0000 0.0000 0.0000
# 3 -0.4770 3.0887 79.1857 0.0000 0.0000 0.0000
# 4 0.0000 0.0000 0.0000 -5.5622 0.0000 0.0000
# 5 0.0000 0.0000 0.0000 0.0000 18.3269 0.0000
# 6 0.0000 0.0000 0.0000 0.0000 0.0000 26.9884
#
#
#
# Elastic Compliance Matrix: (Units=1/GPa)
#
#
# Indices 1 2 3 4 5 6 
#
# 1 0.013251 -0.004015 0.000236 0.000000 0.000000 0.000000
# 2 -0.004015 0.015020 -0.000610 0.000000 0.000000 0.000000
# 3 0.000236 -0.000610 0.012654 0.000000 0.000000 0.000000
# 4 0.000000 0.000000 0.000000 -0.179785 0.000000 0.000000
# 5 0.000000 0.000000 0.000000 0.000000 0.054565 0.000000
# 6 0.000000 0.000000 0.000000 0.000000 0.000000 0.037053
#
#
# Mechanical properties :
#
#
# Convention : Reuss Voigt Hill
#
# Bulk Modulus (GPa) = 31.10679 31.44015 31.27347
# Shear Modulus (GPa) = -180.17540 21.90594 -79.13473
#
# Velocity S-wave (km/s) = -9.95377 3.47073 -6.59665
# Velocity P-wave (km/s) = 10.72371 5.77495 6.38936
#
# Compressibility (1/GPa) = 0.03214732
#
# Stress axis : x y z
#
# Youngs Moduli (GPa) = 75.46788 66.57798 79.02792
#
# Poissons Ratio (x) = 0.26731 -0.01868
# Poissons Ratio (y) = 0.30300 0.04821
# Poissons Ratio (z) = -0.01784 0.04062
#
# Static dielectric constant tensor:
#      x y z
#    x 1.658320 0.000000 0.000000 
#    y 0.000000 1.614600 0.000000 
#    z 0.000000 0.000000 1.618980 
# 
# From -- ./inp_files/18758.got.cif
#   From: 2010.05.17/outbox.cif.g08.bks.cpg/sg69_10_cif.got.tgz:18758.got - 2010.06.03 19:29:58.
