data_PCOD9511411
_publ_section_title
;
Structure prediction by ZEFSAII (Michael W. Deem and Ramdas Pophale) SiO2 
 PCOD9511411
Probable space group: F M M M
;
_chemical_formula_sum "Si O2"
_cell_formula_units_Z 192
_cell_length_a 16.083261
_cell_length_b 37.086471
_cell_length_c 18.030795
_cell_angle_alpha 90.000000
_cell_angle_beta 90.000000
_cell_angle_gamma 90.000000
_cell_volume 10754.853404
_symmetry_space_group_name_H-M "F M M M"
_symmetry_group_IT_number 69
_symmetry_cell_setting 'orthorhombic'
loop_
_space_group_symop_operation_xyz
x,y,z
-x,-y,z
x,-y,-z
-x,y,-z
-x,-y,-z
x,y,-z
-x,y,z
x,-y,z
x,1/2+y,1/2+z
-x,1/2-y,1/2+z
x,1/2-y,1/2-z
-x,1/2+y,1/2-z
-x,1/2-y,1/2-z
x,1/2+y,1/2-z
-x,1/2+y,1/2+z
x,1/2-y,1/2+z
1/2+x,y,1/2+z
1/2-x,-y,1/2+z
1/2+x,-y,1/2-z
1/2-x,y,1/2-z
1/2-x,-y,1/2-z
1/2+x,y,1/2-z
1/2-x,y,1/2+z
1/2+x,-y,1/2+z
1/2+x,1/2+y,z
1/2-x,1/2-y,z
1/2+x,1/2-y,-z
1/2-x,1/2+y,-z
1/2-x,1/2-y,-z
1/2+x,1/2+y,-z
1/2-x,1/2+y,z
1/2+x,1/2-y,z
loop_
_atom_site_type_symbol
_atom_site_label
_atom_site_fract_x
_atom_site_fract_y
_atom_site_fract_z
Si Si1 0.000000 0.042320 0.230012
Si Si2 0.667717 0.635978 0.415648
Si Si3 0.099182 0.712842 0.332218
Si Si4 0.344747 0.591030 0.730168
Si Si5 0.142618 0.635955 0.377377
Si Si6 0.101050 0.292422 0.160401
Si Si7 0.500000 0.418199 0.921146
O O1 0.915973 0.061328 0.259451
O O2 0.000000 0.052874 0.143541
O O3 0.000000 0.000000 0.243451
O O4 0.638355 0.629696 0.500000
O O5 0.642715 0.607821 0.351300
O O6 0.767181 0.633038 0.412315
O O7 0.640069 0.675452 0.386850
O O8 0.118612 0.677733 0.379368
O O9 0.127612 0.706128 0.247213
O O10 0.126965 0.751757 0.362270
O O11 0.000000 0.715938 0.326190
O O12 0.250000 0.578410 0.750000
O O13 0.357255 0.622743 0.791277
O O14 0.078056 0.608639 0.413557
O O15 0.000000 0.295876 0.156570
O O16 0.500000 0.436510 0.000000
#
# Coordination Sequence:
#
# PCOD9511411 Si02
#       7
#    16  32  32  32  32  32  16
#     4  10  22  39  65  93 113 141 185 218 248 325
#     4  11  22  34  50  78 112 143 186 237 279 318
#     4   9  16  31  53  75  97 138 192 240 276 324
#     4   9  20  37  59  85 114 146 182 224 269 321
#     4  10  18  33  56  79 103 144 192 226 268 331
#     4   9  19  31  49  73 102 141 191 237 281 322
#     4  10  20  35  58  85 117 143 165 215 282 329
#
# _framework density 17.852405999999998
#
# number of rings (size 3 to 8) (size 9 to 14) (size 15 to 20)
#    0.000    2.333    2.500    1.500    1.167    1.500 
#    0.000    4.167    0.000    1.000    0.000    0.000 
#    0.000    0.000    0.000    0.000    0.000    0.000 
#
# Total GULP energy -267456.556924 kJ/mol
# GULP energy per Si atom -5572.011603 kJ/mol
# Density = 1.781177 g / cm^3
# Si number density = 17.852406 Si / 1000 Ang^3
#
#
#
# Elastic Constant Matrix: (Units=GPa)
#
#
# Indices 1 2 3 4 5 6 
#
# 1 66.2951 48.3288 24.4896 0.0000 0.0000 0.0000
# 2 48.3288 119.3522 42.4779 0.0000 0.0000 0.0000
# 3 24.4896 42.4779 117.1012 0.0000 0.0000 0.0000
# 4 0.0000 0.0000 0.0000 4.5059 0.0000 0.0000
# 5 0.0000 0.0000 0.0000 0.0000 35.9131 0.0000
# 6 0.0000 0.0000 0.0000 0.0000 0.0000 -6.2724
#
#
#
# Elastic Compliance Matrix: (Units=1/GPa)
#
#
# Indices 1 2 3 4 5 6 
#
# 1 0.021643 -0.008213 -0.001547 0.000000 0.000000 0.000000
# 2 -0.008213 0.012737 -0.002903 0.000000 0.000000 0.000000
# 3 -0.001547 -0.002903 0.009916 0.000000 0.000000 0.000000
# 4 0.000000 0.000000 0.000000 0.221930 0.000000 0.000000
# 5 0.000000 0.000000 0.000000 0.000000 0.027845 0.000000
# 6 0.000000 0.000000 0.000000 0.000000 0.000000 -0.159428
#
#
# Mechanical properties :
#
#
# Convention : Reuss Voigt Hill
#
# Bulk Modulus (GPa) = 52.71323 59.26014 55.98669
# Shear Modulus (GPa) = 30.06746 19.32612 24.69679
#
# Velocity S-wave (km/s) = 4.10838 3.29378 3.72343
# Velocity P-wave (km/s) = 7.21779 6.90883 7.06499
#
# Compressibility (1/GPa) = 0.01897057
#
# Stress axis : x y z
#
# Youngs Moduli (GPa) = 46.20449 78.50880 100.84597
#
# Poissons Ratio (x) = 0.64481 0.15600
# Poissons Ratio (y) = 0.37949 0.29273
# Poissons Ratio (z) = 0.07147 0.22789
#
# Static dielectric constant tensor:
#      x y z
#    x 1.632200 0.000000 0.000000 
#    y 0.000000 1.578630 0.000000 
#    z 0.000000 0.000000 1.642860 
# 
# From -- ./inp_files/23681.got.cif
#   From: 2010.05.17/outbox.cif.g08.bks.cpg/sg69_12_cif.got.tgz:23681.got - 2010.06.03 19:29:58.
