data_PCOD9511178
_publ_section_title
;
Structure prediction by ZEFSAII (Michael W. Deem and Ramdas Pophale) SiO2 
 PCOD9511178
Probable space group: F M M M
;
_chemical_formula_sum "Si O2"
_cell_formula_units_Z 160
_cell_length_a 14.596304
_cell_length_b 20.243562
_cell_length_c 21.787472
_cell_angle_alpha 90.000000
_cell_angle_beta 90.000000
_cell_angle_gamma 90.000000
_cell_volume 6437.788045
_symmetry_space_group_name_H-M "F M M M"
_symmetry_group_IT_number 69
_symmetry_cell_setting 'orthorhombic'
loop_
_space_group_symop_operation_xyz
x,y,z
-x,-y,z
x,-y,-z
-x,y,-z
-x,-y,-z
x,y,-z
-x,y,z
x,-y,z
x,1/2+y,1/2+z
-x,1/2-y,1/2+z
x,1/2-y,1/2-z
-x,1/2+y,1/2-z
-x,1/2-y,1/2-z
x,1/2+y,1/2-z
-x,1/2+y,1/2+z
x,1/2-y,1/2+z
1/2+x,y,1/2+z
1/2-x,-y,1/2+z
1/2+x,-y,1/2-z
1/2-x,y,1/2-z
1/2-x,-y,1/2-z
1/2+x,y,1/2-z
1/2-x,y,1/2+z
1/2+x,-y,1/2+z
1/2+x,1/2+y,z
1/2-x,1/2-y,z
1/2+x,1/2-y,-z
1/2-x,1/2+y,-z
1/2-x,1/2-y,-z
1/2+x,1/2+y,-z
1/2-x,1/2+y,z
1/2+x,1/2-y,z
loop_
_atom_site_type_symbol
_atom_site_label
_atom_site_fract_x
_atom_site_fract_y
_atom_site_fract_z
Si Si1 0.142349 0.427150 0.740164
Si Si2 0.109013 0.180024 0.336147
Si Si3 0.888233 0.074825 0.568410
Si Si4 0.112109 0.285242 0.567494
Si Si5 0.608024 0.071021 0.595280
O O1 0.105572 0.500000 0.763897
O O2 0.250000 0.431317 0.750000
O O3 0.118879 0.355854 0.770402
O O4 0.116388 0.425283 0.668950
O O5 0.146917 0.122862 0.380261
O O6 0.142529 0.246234 0.370889
O O7 0.000000 0.185620 0.342085
O O8 0.860325 0.092956 0.500000
O O9 0.000000 0.077706 0.569570
O O10 0.862585 0.000000 0.581016
O O11 0.136124 0.256173 0.500000
O O12 0.145259 0.360617 0.569743
O O13 0.000000 0.286221 0.568786
O O14 0.500000 0.069872 0.579798
O O15 0.647220 0.000000 0.575441
#
# Coordination Sequence:
#
# PCOD9511178 Si02
#       5
#    32  32  32  32  32
#     4  10  21  36  53  74 103 138 176 219 262 304
#     4  10  18  29  49  75 105 138 169 205 254 313
#     4   8  13  21  36  62  94 126 161 197 231 277
#     4   9  18  32  52  81 111 135 166 214 268 315
#     4   9  18  34  56  79 102 132 175 222 262 308
#
# _framework density 24.853255999999998
#
# number of rings (size 3 to 8) (size 9 to 14) (size 15 to 20)
#    0.000    2.800    0.000    2.400    0.000    5.600 
#    0.000    7.000    0.000    3.600    0.000    5.600 
#    0.000    0.000    0.000    0.000    0.000    0.000 
#
# Total GULP energy -222994.324214 kJ/mol
# GULP energy per Si atom -5574.858105 kJ/mol
# Density = 2.479669 g / cm^3
# Si number density = 24.853256 Si / 1000 Ang^3
#
#
#
# Elastic Constant Matrix: (Units=GPa)
#
#
# Indices 1 2 3 4 5 6 
#
# 1 79.4933 -1.3349 -9.1563 0.0000 0.0000 0.0000
# 2 -1.3349 151.8823 55.0871 0.0000 0.0000 0.0000
# 3 -9.1563 55.0871 88.9381 0.0000 0.0000 0.0000
# 4 0.0000 0.0000 0.0000 36.6563 0.0000 0.0000
# 5 0.0000 0.0000 0.0000 0.0000 -20.5888 0.0000
# 6 0.0000 0.0000 0.0000 0.0000 0.0000 -2.6141
#
#
#
# Elastic Compliance Matrix: (Units=1/GPa)
#
#
# Indices 1 2 3 4 5 6 
#
# 1 0.012757 -0.000470 0.001604 0.000000 0.000000 0.000000
# 2 -0.000470 0.008509 -0.005319 0.000000 0.000000 0.000000
# 3 0.001604 -0.005319 0.014703 0.000000 0.000000 0.000000
# 4 0.000000 0.000000 0.000000 0.027280 0.000000 0.000000
# 5 0.000000 0.000000 0.000000 0.000000 -0.048570 0.000000
# 6 0.000000 0.000000 0.000000 0.000000 0.000000 -0.382539
#
#
# Mechanical properties :
#
#
# Convention : Reuss Voigt Hill
#
# Bulk Modulus (GPa) = 36.23130 45.50059 40.86594
# Shear Modulus (GPa) = -14.27381 21.07187 3.39903
#
# Velocity S-wave (km/s) = -2.39911 2.91495 1.17073
# Velocity P-wave (km/s) = 2.63353 5.44763 4.27856
#
# Compressibility (1/GPa) = 0.02760045
#
# Stress axis : x y z
#
# Youngs Moduli (GPa) = 78.39094 117.52268 68.01203
#
# Poissons Ratio (x) = 0.05520 -0.10911
# Poissons Ratio (y) = 0.03682 0.36174
# Poissons Ratio (z) = -0.12576 0.62507
#
# Static dielectric constant tensor:
#      x y z
#    x 1.999270 0.000000 0.000000 
#    y 0.000000 2.026020 0.000000 
#    z 0.000000 0.000000 1.996570 
# 
# From -- ./inp_files/30792.got.cif
#   From: 2010.05.17/outbox.cif.g08.bks.cpg/sg69_16_cif.got.tgz:30792.got - 2010.06.03 19:29:58.
