data_PCOD9511269
_publ_section_title
;
Structure prediction by ZEFSAII (Michael W. Deem and Ramdas Pophale) SiO2 
 PCOD9511269
Probable space group: F M M M
;
_chemical_formula_sum "Si O2"
_cell_formula_units_Z 136
_cell_length_a 15.834594
_cell_length_b 23.000255
_cell_length_c 19.005341
_cell_angle_alpha 90.000000
_cell_angle_beta 90.000000
_cell_angle_gamma 90.000000
_cell_volume 6921.739487
_symmetry_space_group_name_H-M "F M M M"
_symmetry_group_IT_number 69
_symmetry_cell_setting 'orthorhombic'
loop_
_space_group_symop_operation_xyz
x,y,z
-x,-y,z
x,-y,-z
-x,y,-z
-x,-y,-z
x,y,-z
-x,y,z
x,-y,z
x,1/2+y,1/2+z
-x,1/2-y,1/2+z
x,1/2-y,1/2-z
-x,1/2+y,1/2-z
-x,1/2-y,1/2-z
x,1/2+y,1/2-z
-x,1/2+y,1/2+z
x,1/2-y,1/2+z
1/2+x,y,1/2+z
1/2-x,-y,1/2+z
1/2+x,-y,1/2-z
1/2-x,y,1/2-z
1/2-x,-y,1/2-z
1/2+x,y,1/2-z
1/2-x,y,1/2+z
1/2+x,-y,1/2+z
1/2+x,1/2+y,z
1/2-x,1/2-y,z
1/2+x,1/2-y,-z
1/2-x,1/2+y,-z
1/2-x,1/2-y,-z
1/2+x,1/2+y,-z
1/2-x,1/2+y,z
1/2+x,1/2-y,z
loop_
_atom_site_type_symbol
_atom_site_label
_atom_site_fract_x
_atom_site_fract_y
_atom_site_fract_z
Si Si1 0.500000 0.327535 0.584993
Si Si2 0.667238 0.873907 0.580443
Si Si3 0.401767 0.500000 0.895651
Si Si4 0.662468 0.500000 0.500000
Si Si5 0.158658 0.403685 0.873138
Si Si6 0.500000 0.191634 0.414617
Si Si7 0.599408 0.000000 0.772181
O O1 0.500000 0.333072 0.500000
O O2 0.418003 0.359799 0.614707
O O3 0.500000 0.259381 0.602468
O O4 0.683911 0.854087 0.500000
O O5 0.752238 0.870693 0.624978
O O6 0.585469 0.840310 0.609301
O O7 0.642226 0.941908 0.577749
O O8 0.500000 0.500000 0.915942
O O9 0.395991 0.500000 0.811421
O O10 0.659717 0.449164 0.438308
O O11 0.142706 0.443129 0.804869
O O12 0.500000 0.185399 0.500000
O O13 0.500000 0.000000 0.793586
#
# Coordination Sequence:
#
# PCOD9511269 Si02
#       7
#    16  32  16   8  32  16  16
#     4  11  20  36  55  83 110 159 185 231 288 324
#     4  11  21  37  56  88 112 147 186 236 275 340
#     4  11  22  36  60  82 115 152 187 222 292 339
#     4  10  18  31  48  89 108 140 178 221 262 339
#     4  11  21  33  58  82 119 145 183 227 281 339
#     4   9  22  37  54  78 119 145 195 235 276 322
#     4  10  22  37  54  88 118 149 179 232 278 348
#
# _framework density 19.648240000000001
#
# number of rings (size 3 to 8) (size 9 to 14) (size 15 to 20)
#    0.000    1.412    4.706    1.765    0.000    3.765 
#    0.000    3.529    0.000    2.824    0.000    3.294 
#    0.000    0.000    0.000    0.000    0.000    0.000 
#
# Total GULP energy -189517.573426 kJ/mol
# GULP energy per Si atom -5574.046277 kJ/mol
# Density = 1.960352 g / cm^3
# Si number density = 19.648240 Si / 1000 Ang^3
#
#
#
# Elastic Constant Matrix: (Units=GPa)
#
#
# Indices 1 2 3 4 5 6 
#
# 1 193.6970 70.6345 23.3717 0.0000 0.0000 0.0000
# 2 70.6345 112.9624 5.4756 0.0000 0.0000 0.0000
# 3 23.3717 5.4756 59.6916 0.0000 0.0000 0.0000
# 4 0.0000 0.0000 0.0000 -1.1440 0.0000 0.0000
# 5 0.0000 0.0000 0.0000 0.0000 24.8717 0.0000
# 6 0.0000 0.0000 0.0000 0.0000 0.0000 -9.6485
#
#
#
# Elastic Compliance Matrix: (Units=1/GPa)
#
#
# Indices 1 2 3 4 5 6 
#
# 1 0.007001 -0.004264 -0.002350 0.000000 0.000000 0.000000
# 2 -0.004264 0.011489 0.000616 0.000000 0.000000 0.000000
# 3 -0.002350 0.000616 0.017616 0.000000 0.000000 0.000000
# 4 0.000000 0.000000 0.000000 -0.874115 0.000000 0.000000
# 5 0.000000 0.000000 0.000000 0.000000 0.040206 0.000000
# 6 0.000000 0.000000 0.000000 0.000000 0.000000 -0.103643
#
#
# Mechanical properties :
#
#
# Convention : Reuss Voigt Hill
#
# Bulk Modulus (GPa) = 41.47709 62.81272 52.14490
# Shear Modulus (GPa) = -5.67271 20.60713 7.46721
#
# Velocity S-wave (km/s) = -1.70100 3.24204 1.95159
# Velocity P-wave (km/s) = 4.15906 6.78619 5.62806
#
# Compressibility (1/GPa) = 0.02410969
#
# Stress axis : x y z
#
# Youngs Moduli (GPa) = 142.83381 87.04118 56.76510
#
# Poissons Ratio (x) = 0.37113 0.13340
# Poissons Ratio (y) = 0.60902 -0.03494
# Poissons Ratio (z) = 0.33567 -0.05358
#
# Static dielectric constant tensor:
#      x y z
#    x 1.734660 0.000000 0.000000 
#    y 0.000000 1.646610 0.000000 
#    z 0.000000 0.000000 1.668840 
# 
# From -- ./inp_files/29824.got.cif
#   From: 2010.05.17/outbox.cif.g08.bks.cpg/sg69_15_cif.got.tgz:29824.got - 2010.06.03 19:29:58.
