data_PCOD9511352
_publ_section_title
;
Structure prediction by ZEFSAII (Michael W. Deem and Ramdas Pophale) SiO2 
 PCOD9511352
Probable space group: F M M M
;
_chemical_formula_sum "Si O2"
_cell_formula_units_Z 112
_cell_length_a 15.637318
_cell_length_b 38.618847
_cell_length_c 8.763036
_cell_angle_alpha 90.000000
_cell_angle_beta 90.000000
_cell_angle_gamma 90.000000
_cell_volume 5291.955302
_symmetry_space_group_name_H-M "F M M M"
_symmetry_group_IT_number 69
_symmetry_cell_setting 'orthorhombic'
loop_
_space_group_symop_operation_xyz
x,y,z
-x,-y,z
x,-y,-z
-x,y,-z
-x,-y,-z
x,y,-z
-x,y,z
x,-y,z
x,1/2+y,1/2+z
-x,1/2-y,1/2+z
x,1/2-y,1/2-z
-x,1/2+y,1/2-z
-x,1/2-y,1/2-z
x,1/2+y,1/2-z
-x,1/2+y,1/2+z
x,1/2-y,1/2+z
1/2+x,y,1/2+z
1/2-x,-y,1/2+z
1/2+x,-y,1/2-z
1/2-x,y,1/2-z
1/2-x,-y,1/2-z
1/2+x,y,1/2-z
1/2-x,y,1/2+z
1/2+x,-y,1/2+z
1/2+x,1/2+y,z
1/2-x,1/2-y,z
1/2+x,1/2-y,-z
1/2-x,1/2+y,-z
1/2-x,1/2-y,-z
1/2+x,1/2+y,-z
1/2-x,1/2+y,z
1/2+x,1/2-y,z
loop_
_atom_site_type_symbol
_atom_site_label
_atom_site_fract_x
_atom_site_fract_y
_atom_site_fract_z
Si Si1 0.399350 0.714656 0.683780
Si Si2 0.152753 0.000000 0.317861
Si Si3 0.398037 0.360320 0.672980
Si Si4 0.655253 0.069629 0.319783
O O1 0.395982 0.715701 0.500000
O O2 0.500000 0.714767 0.730033
O O3 0.360909 0.750000 0.750000
O O4 0.363721 0.676915 0.730032
O O5 0.250000 0.000000 0.250000
O O6 0.112933 0.964212 0.257250
O O7 0.156142 0.000000 0.500000
O O8 0.365088 0.367045 0.500000
O O9 0.500000 0.355839 0.660304
O O10 0.383577 0.393459 0.776779
O O11 0.657944 0.064381 0.500000
O O12 0.750000 0.071414 0.250000
#
# Coordination Sequence:
#
# PCOD9511352 Si02
#       4
#    32  16  32  32
#     4   8  14  25  43  67  95 127 162 199 238 284
#     4  10  18  32  53  74  97 126 163 203 243 289
#     4   9  18  33  51  73 103 135 165 201 248 296
#     4  11  21  34  53  76 101 129 165 205 245 291
#
# _framework density 21.164200999999998
#
# number of rings (size 3 to 8) (size 9 to 14) (size 15 to 20)
#    0.000    2.571    0.000    7.286    0.000    1.714 
#    0.000    3.571    0.000    5.143    0.000    6.000 
#    0.000    0.000    0.000    0.000    0.000    0.000 
#
# Total GULP energy -156085.531209 kJ/mol
# GULP energy per Si atom -5574.483257 kJ/mol
# Density = 2.111603 g / cm^3
# Si number density = 21.164201 Si / 1000 Ang^3
#
#
#
# Elastic Constant Matrix: (Units=GPa)
#
#
# Indices 1 2 3 4 5 6 
#
# 1 18.5452 14.5989 2.4216 0.0000 0.0000 0.0000
# 2 14.5989 229.0136 80.8531 0.0000 0.0000 0.0000
# 3 2.4216 80.8531 127.4641 0.0000 0.0000 0.0000
# 4 0.0000 0.0000 0.0000 31.1483 0.0000 0.0000
# 5 0.0000 0.0000 0.0000 0.0000 12.9501 0.0000
# 6 0.0000 0.0000 0.0000 0.0000 0.0000 -81.5692
#
#
#
# Elastic Compliance Matrix: (Units=1/GPa)
#
#
# Indices 1 2 3 4 5 6 
#
# 1 0.057015 -0.004191 0.001575 0.000000 0.000000 0.000000
# 2 -0.004191 0.005935 -0.003685 0.000000 0.000000 0.000000
# 3 0.001575 -0.003685 0.010153 0.000000 0.000000 0.000000
# 4 0.000000 0.000000 0.000000 0.032104 0.000000 0.000000
# 5 0.000000 0.000000 0.000000 0.000000 0.077220 0.000000
# 6 0.000000 0.000000 0.000000 0.000000 0.000000 -0.012260
#
#
# Mechanical properties :
#
#
# Convention : Reuss Voigt Hill
#
# Bulk Modulus (GPa) = 16.52839 63.41890 39.97364
# Shear Modulus (GPa) = 24.63835 10.98247 17.81041
#
# Velocity S-wave (km/s) = 3.41567 2.28045 2.90407
# Velocity P-wave (km/s) = 4.83552 6.07981 5.49301
#
# Compressibility (1/GPa) = 0.06050198
#
# Stress axis : x y z
#
# Youngs Moduli (GPa) = 17.53911 168.50277 98.49502
#
# Poissons Ratio (x) = 0.70613 -0.15513
# Poissons Ratio (y) = 0.07350 0.36294
# Poissons Ratio (z) = -0.02762 0.62091
#
# Static dielectric constant tensor:
#      x y z
#    x 1.821080 0.000000 0.000000 
#    y 0.000000 1.874530 0.000000 
#    z 0.000000 0.000000 1.711030 
# 
# From -- ./inp_files/4001.got.cif
#   From: 2010.05.17/outbox.cif.g08.bks.cpg/sg69_3_cif.got.tgz:4001.got - 2010.06.03 19:29:58.
