data_PCOD9511666
_publ_section_title
;
Structure prediction by ZEFSAII (Michael W. Deem and Ramdas Pophale) SiO2 
 PCOD9511666
Probable space group: F M M M
;
_chemical_formula_sum "Si O2"
_cell_formula_units_Z 192
_cell_length_a 20.786097
_cell_length_b 24.569735
_cell_length_c 14.995159
_cell_angle_alpha 90.000000
_cell_angle_beta 90.000000
_cell_angle_gamma 90.000000
_cell_volume 7658.161083
_symmetry_space_group_name_H-M "F M M M"
_symmetry_group_IT_number 69
_symmetry_cell_setting 'orthorhombic'
loop_
_space_group_symop_operation_xyz
x,y,z
-x,-y,z
x,-y,-z
-x,y,-z
-x,-y,-z
x,y,-z
-x,y,z
x,-y,z
x,1/2+y,1/2+z
-x,1/2-y,1/2+z
x,1/2-y,1/2-z
-x,1/2+y,1/2-z
-x,1/2-y,1/2-z
x,1/2+y,1/2-z
-x,1/2+y,1/2+z
x,1/2-y,1/2+z
1/2+x,y,1/2+z
1/2-x,-y,1/2+z
1/2+x,-y,1/2-z
1/2-x,y,1/2-z
1/2-x,-y,1/2-z
1/2+x,y,1/2-z
1/2-x,y,1/2+z
1/2+x,-y,1/2+z
1/2+x,1/2+y,z
1/2-x,1/2-y,z
1/2+x,1/2-y,-z
1/2-x,1/2+y,-z
1/2-x,1/2-y,-z
1/2+x,1/2+y,-z
1/2-x,1/2+y,z
1/2+x,1/2-y,z
loop_
_atom_site_type_symbol
_atom_site_label
_atom_site_fract_x
_atom_site_fract_y
_atom_site_fract_z
Si Si1 0.569933 0.081235 0.369652
Si Si2 0.887850 0.184013 0.345238
Si Si3 0.751580 0.671531 0.393434
Si Si4 0.425552 0.562185 0.344735
Si Si5 0.214811 0.555792 0.601998
Si Si6 0.101655 0.299376 0.638031
O O1 0.500000 0.059971 0.396717
O O2 0.574987 0.070022 0.262830
O O3 0.637628 0.058655 0.402634
O O4 0.571938 0.144845 0.397471
O O5 0.811129 0.193526 0.345997
O O6 0.898573 0.121516 0.377594
O O7 0.917310 0.238351 0.390881
O O8 0.910193 0.191278 0.243527
O O9 0.738788 0.673580 0.500000
O O10 0.758909 0.610269 0.357397
O O11 0.822030 0.695625 0.380274
O O12 0.500000 0.561386 0.373422
O O13 0.399743 0.500000 0.364827
O O14 0.238113 0.555941 0.500000
O O15 0.234802 0.500000 0.646365
#
# Coordination Sequence:
#
# PCOD9511666 Si02
#       6
#    32  32  32  32  32  32
#     4   9  17  30  48  69  95 127 160 194 236 285
#     4  10  19  32  52  73  96 129 162 193 238 293
#     4  10  20  33  50  72  98 128 162 200 240 283
#     4   9  18  32  50  73  98 122 155 202 245 280
#     4   9  18  31  45  65  96 129 160 197 237 279
#     4   9  19  33  48  72 102 127 157 199 240 279
#
# _framework density 25.071293000000001
#
# number of rings (size 3 to 8) (size 9 to 14) (size 15 to 20)
#    0.000    2.667    0.000    1.500    0.000    5.333 
#    0.000    4.167    0.000    6.500    0.000    3.500 
#    0.000    0.000    0.000    0.000    0.000    0.000 
#
# Total GULP energy -267414.310335 kJ/mol
# GULP energy per Si atom -5571.131465 kJ/mol
# Density = 2.501423 g / cm^3
# Si number density = 25.071293 Si / 1000 Ang^3
#
#
#
# Elastic Constant Matrix: (Units=GPa)
#
#
# Indices 1 2 3 4 5 6 
#
# 1 66.7835 29.4600 -15.8552 0.0000 0.0000 0.0000
# 2 29.4600 250.6636 1.4696 0.0000 0.0000 0.0000
# 3 -15.8552 1.4696 52.7450 0.0000 0.0000 0.0000
# 4 0.0000 0.0000 0.0000 -15.9811 0.0000 0.0000
# 5 0.0000 0.0000 0.0000 0.0000 -16.5704 0.0000
# 6 0.0000 0.0000 0.0000 0.0000 0.0000 -24.3303
#
#
#
# Elastic Compliance Matrix: (Units=1/GPa)
#
#
# Indices 1 2 3 4 5 6 
#
# 1 0.017109 -0.002041 0.005200 0.000000 0.000000 0.000000
# 2 -0.002041 0.004234 -0.000732 0.000000 0.000000 0.000000
# 3 0.005200 -0.000732 0.020543 0.000000 0.000000 0.000000
# 4 0.000000 0.000000 0.000000 -0.062574 0.000000 0.000000
# 5 0.000000 0.000000 0.000000 0.000000 -0.060349 0.000000
# 6 0.000000 0.000000 0.000000 0.000000 0.000000 -0.041101
#
#
# Mechanical properties :
#
#
# Convention : Reuss Voigt Hill
#
# Bulk Modulus (GPa) = 21.39548 44.48230 32.93889
# Shear Modulus (GPa) = -44.87800 12.29817 -16.28992
#
# Velocity S-wave (km/s) = -4.23545 2.21719 -2.55177
# Velocity P-wave (km/s) = 3.91999 4.93309 2.11768
#
# Compressibility (1/GPa) = 0.04673884
#
# Stress axis : x y z
#
# Youngs Moduli (GPa) = 58.44982 236.20549 48.67939
#
# Poissons Ratio (x) = 0.48215 -0.25312
# Poissons Ratio (y) = 0.11931 0.03561
# Poissons Ratio (z) = -0.30393 0.17280
#
# Static dielectric constant tensor:
#      x y z
#    x 1.919060 0.000000 0.000000 
#    y 0.000000 2.109640 0.000000 
#    z 0.000000 0.000000 1.980850 
# 
# From -- ./inp_files/32049.got.cif
#   From: 2010.05.17/outbox.cif.g08.bks.cpg/sg69_17_cif.got.tgz:32049.got - 2010.06.03 19:29:58.
