data_PCOD9511104
_publ_section_title
;
Structure prediction by ZEFSAII (Michael W. Deem and Ramdas Pophale) SiO2 
 PCOD9511104
Probable space group: F M M M
;
_chemical_formula_sum "Si O2"
_cell_formula_units_Z 128
_cell_length_a 24.298851
_cell_length_b 30.093483
_cell_length_c 9.027490
_cell_angle_alpha 90.000000
_cell_angle_beta 90.000000
_cell_angle_gamma 90.000000
_cell_volume 6601.235242
_symmetry_space_group_name_H-M "F M M M"
_symmetry_group_IT_number 69
_symmetry_cell_setting 'orthorhombic'
loop_
_space_group_symop_operation_xyz
x,y,z
-x,-y,z
x,-y,-z
-x,y,-z
-x,-y,-z
x,y,-z
-x,y,z
x,-y,z
x,1/2+y,1/2+z
-x,1/2-y,1/2+z
x,1/2-y,1/2-z
-x,1/2+y,1/2-z
-x,1/2-y,1/2-z
x,1/2+y,1/2-z
-x,1/2+y,1/2+z
x,1/2-y,1/2+z
1/2+x,y,1/2+z
1/2-x,-y,1/2+z
1/2+x,-y,1/2-z
1/2-x,y,1/2-z
1/2-x,-y,1/2-z
1/2+x,y,1/2-z
1/2-x,y,1/2+z
1/2+x,-y,1/2+z
1/2+x,1/2+y,z
1/2-x,1/2-y,z
1/2+x,1/2-y,-z
1/2-x,1/2+y,-z
1/2-x,1/2-y,-z
1/2+x,1/2+y,-z
1/2-x,1/2+y,z
1/2+x,1/2-y,z
loop_
_atom_site_type_symbol
_atom_site_label
_atom_site_fract_x
_atom_site_fract_y
_atom_site_fract_z
Si Si1 0.500000 0.103281 0.322576
Si Si2 0.309850 0.622605 0.323523
Si Si3 0.500000 0.197641 0.708811
Si Si4 0.128740 0.796468 0.166239
Si Si5 0.614173 0.052491 0.674920
O O1 0.500000 0.117033 0.500000
O O2 0.500000 0.147646 0.221781
O O3 0.445577 0.074385 0.299202
O O4 0.306161 0.625397 0.500000
O O5 0.250000 0.623580 0.250000
O O6 0.344655 0.663793 0.258305
O O7 0.341607 0.578333 0.272329
O O8 0.500000 0.250000 0.750000
O O9 0.436954 0.195907 0.651816
O O10 0.137527 0.750000 0.250000
O O11 0.151955 0.795175 0.000000
O O12 0.626966 0.059345 0.500000
O O13 0.612646 0.000000 0.703125
#
# Coordination Sequence:
#
# PCOD9511104 Si02
#       5
#    16  32  16  32  32
#     4  10  17  34  64  96 129 168 206 249 304 371
#     4  12  26  44  65  90 121 164 212 264 317 372
#     4  10  20  33  61  98 134 171 205 248 303 370
#     4  11  22  40  64  95 131 169 209 254 305 369
#     4  10  21  39  66  97 127 163 208 258 313 373
#
# _framework density 19.390311000000001
#
# number of rings (size 3 to 8) (size 9 to 14) (size 15 to 20)
#    0.000    1.250    2.500    4.500    0.000    3.000 
#    0.000    6.250    0.000    1.500    0.000    0.000 
#    0.000    0.000    0.000    0.000    0.000    0.000 
#
# Total GULP energy -178289.009880 kJ/mol
# GULP energy per Si atom -5571.531559 kJ/mol
# Density = 1.934618 g / cm^3
# Si number density = 19.390311 Si / 1000 Ang^3
#
#
#
# Elastic Constant Matrix: (Units=GPa)
#
#
# Indices 1 2 3 4 5 6 
#
# 1 134.7887 65.0163 69.9598 0.0000 0.0009 -0.0001
# 2 65.0163 160.2481 81.8009 0.0002 -0.0003 0.0002
# 3 69.9598 81.8009 138.4582 0.0009 0.0010 -0.0003
# 4 0.0000 0.0002 0.0009 23.3046 0.0012 -0.0002
# 5 0.0009 -0.0003 0.0010 0.0012 -82.1967 -0.0015
# 6 -0.0001 0.0002 -0.0003 -0.0002 -0.0015 5.9215
#
#
#
# Elastic Compliance Matrix: (Units=1/GPa)
#
#
# Indices 1 2 3 4 5 6 
#
# 1 0.010590 -0.002241 -0.004027 0.000000 0.000000 0.000000
# 2 -0.002241 0.009409 -0.004427 0.000000 0.000000 -0.000001
# 3 -0.004027 -0.004427 0.011872 0.000000 0.000000 0.000001
# 4 0.000000 0.000000 0.000000 0.042910 0.000001 0.000002
# 5 0.000000 0.000000 0.000000 0.000001 -0.012166 -0.000003
# 6 0.000000 -0.000001 0.000001 0.000002 -0.000003 0.168877
#
#
# Mechanical properties :
#
#
# Convention : Reuss Voigt Hill
#
# Bulk Modulus (GPa) = 95.39707 96.33877 95.86792
# Shear Modulus (GPa) = 19.50261 3.85375 11.67818
#
# Velocity S-wave (km/s) = 3.17486 1.41130 2.45678
# Velocity P-wave (km/s) = 7.92116 7.24207 7.58921
#
# Compressibility (1/GPa) = 0.01048250
#
# Stress axis : x y z
#
# Youngs Moduli (GPa) = 94.42766 106.27928 84.22942
#
# Poissons Ratio (x) = 0.23818 0.33919
# Poissons Ratio (y) = 0.21162 0.37285
# Poissons Ratio (z) = 0.38025 0.47045
#
# Static dielectric constant tensor:
#      x y z
#    x 1.647920 0.000000 0.000000 
#    y 0.000000 1.657400 0.000000 
#    z 0.000000 0.000000 1.695100 
# 
# From -- ./inp_files/4794.got.cif
#   From: 2010.05.17/outbox.cif.g08.bks.cpg/sg69_3_cif.got.tgz:4794.got - 2010.06.03 19:29:58.
