data_PCOD9511719
_publ_section_title
;
Structure prediction by ZEFSAII (Michael W. Deem and Ramdas Pophale) SiO2 
 PCOD9511719
Probable space group: F M M M
;
_chemical_formula_sum "Si O2"
_cell_formula_units_Z 208
_cell_length_a 28.592840
_cell_length_b 15.716166
_cell_length_c 24.214211
_cell_angle_alpha 90.000000
_cell_angle_beta 90.000000
_cell_angle_gamma 90.000000
_cell_volume 10881.135635
_symmetry_space_group_name_H-M "F M M M"
_symmetry_group_IT_number 69
_symmetry_cell_setting 'orthorhombic'
loop_
_space_group_symop_operation_xyz
x,y,z
-x,-y,z
x,-y,-z
-x,y,-z
-x,-y,-z
x,y,-z
-x,y,z
x,-y,z
x,1/2+y,1/2+z
-x,1/2-y,1/2+z
x,1/2-y,1/2-z
-x,1/2+y,1/2-z
-x,1/2-y,1/2-z
x,1/2+y,1/2-z
-x,1/2+y,1/2+z
x,1/2-y,1/2+z
1/2+x,y,1/2+z
1/2-x,-y,1/2+z
1/2+x,-y,1/2-z
1/2-x,y,1/2-z
1/2-x,-y,1/2-z
1/2+x,y,1/2-z
1/2-x,y,1/2+z
1/2+x,-y,1/2+z
1/2+x,1/2+y,z
1/2-x,1/2-y,z
1/2+x,1/2-y,-z
1/2-x,1/2+y,-z
1/2-x,1/2-y,-z
1/2+x,1/2+y,-z
1/2-x,1/2+y,z
1/2+x,1/2-y,z
loop_
_atom_site_type_symbol
_atom_site_label
_atom_site_fract_x
_atom_site_fract_y
_atom_site_fract_z
Si Si1 0.447847 0.500000 0.932882
Si Si2 0.881451 0.153683 0.436130
Si Si3 0.446401 0.397495 0.334494
Si Si4 0.366504 0.403288 0.743215
Si Si5 0.123848 0.141854 0.063458
Si Si6 0.305273 0.155657 0.345254
Si Si7 0.800722 0.639976 0.143652
O O1 0.500000 0.500000 0.910463
O O2 0.419529 0.584602 0.917358
O O3 0.450565 0.500000 0.000000
O O4 0.888208 0.127651 0.500000
O O5 0.919902 0.122366 0.392058
O O6 0.884313 0.256804 0.433932
O O7 0.830354 0.125416 0.412594
O O8 0.500000 0.366962 0.333892
O O9 0.446974 0.500000 0.329535
O O10 0.413972 0.365291 0.283546
O O11 0.376132 0.500000 0.760736
O O12 0.338129 0.360350 0.792559
O O13 0.331186 0.401613 0.691578
O O14 0.167315 0.122191 0.101846
O O15 0.133381 0.119975 0.000000
O O16 0.253352 0.116797 0.347402
O O17 0.301454 0.257719 0.349318
#
# Coordination Sequence:
#
# PCOD9511719 Si02
#       7
#    16  32  32  32  32  32  32
#     4   9  18  34  52  68  97 138 172 212 267 310
#     4   9  18  33  54  80 108 139 177 216 257 318
#     4   9  19  36  55  76 106 139 170 216 273 315
#     4  10  20  33  51  74 101 134 174 218 260 309
#     4   9  19  34  52  76 105 136 172 217 264 311
#     4  10  19  32  54  75 101 136 178 211 251 316
#     4   9  19  34  50  75 105 139 168 213 264 302
#
# _framework density 19.115652000000001
#
# number of rings (size 3 to 8) (size 9 to 14) (size 15 to 20)
#    0.000    2.692    0.000    0.923    1.077    4.308 
#    0.000    6.154    0.000   12.000    0.000    0.000 
#    0.000    0.000    0.000    0.000    0.000    0.000 
#
# Total GULP energy -289661.599104 kJ/mol
# GULP energy per Si atom -5570.415367 kJ/mol
# Density = 1.907214 g / cm^3
# Si number density = 19.115652 Si / 1000 Ang^3
#
#
#
# Elastic Constant Matrix: (Units=GPa)
#
#
# Indices 1 2 3 4 5 6 
#
# 1 166.7246 15.6941 81.5965 0.0000 0.0000 0.0000
# 2 15.6941 14.9459 14.6748 0.0000 0.0000 0.0000
# 3 81.5965 14.6748 90.6543 0.0000 0.0000 0.0000
# 4 0.0000 0.0000 0.0000 -70.2580 0.0000 0.0000
# 5 0.0000 0.0000 0.0000 0.0000 18.1856 0.0000
# 6 0.0000 0.0000 0.0000 0.0000 0.0000 40.0740
#
#
#
# Elastic Compliance Matrix: (Units=1/GPa)
#
#
# Indices 1 2 3 4 5 6 
#
# 1 0.010777 -0.002131 -0.009355 0.000000 0.000000 0.000000
# 2 -0.002131 0.079974 -0.011028 0.000000 0.000000 0.000000
# 3 -0.009355 -0.011028 0.021237 0.000000 0.000000 0.000000
# 4 0.000000 0.000000 0.000000 -0.014233 0.000000 0.000000
# 5 0.000000 0.000000 0.000000 0.000000 0.054989 0.000000
# 6 0.000000 0.000000 0.000000 0.000000 0.000000 0.024954
#
#
# Mechanical properties :
#
#
# Convention : Reuss Voigt Hill
#
# Bulk Modulus (GPa) = 14.93449 55.13953 35.03701
# Shear Modulus (GPa) = 20.40445 8.29093 14.34769
#
# Velocity S-wave (km/s) = 3.27069 2.08487 2.74263
# Velocity P-wave (km/s) = 4.70030 5.89096 5.32899
#
# Compressibility (1/GPa) = 0.06695909
#
# Stress axis : x y z
#
# Youngs Moduli (GPa) = 92.78940 12.50413 47.08837
#
# Poissons Ratio (x) = 0.02665 0.44053
# Poissons Ratio (y) = 0.19773 0.51928
# Poissons Ratio (z) = 0.86808 0.13789
#
# Static dielectric constant tensor:
#      x y z
#    x 1.688010 0.000000 0.000000 
#    y 0.000000 1.690010 0.000000 
#    z 0.000000 0.000000 1.661270 
# 
# From -- ./inp_files/38486.got.cif
#   From: 2010.05.17/outbox.cif.g08.bks.cpg/sg69_20_cif.got.tgz:38486.got - 2010.06.03 19:29:58.
