data_PCOD9511366
_publ_section_title
;
Structure prediction by ZEFSAII (Michael W. Deem and Ramdas Pophale) SiO2 
 PCOD9511366
Probable space group: F M M M
;
_chemical_formula_sum "Si O2"
_cell_formula_units_Z 112
_cell_length_a 22.062561
_cell_length_b 28.708823
_cell_length_c 8.499464
_cell_angle_alpha 90.000000
_cell_angle_beta 90.000000
_cell_angle_gamma 90.000000
_cell_volume 5383.476852
_symmetry_space_group_name_H-M "F M M M"
_symmetry_group_IT_number 69
_symmetry_cell_setting 'orthorhombic'
loop_
_space_group_symop_operation_xyz
x,y,z
-x,-y,z
x,-y,-z
-x,y,-z
-x,-y,-z
x,y,-z
-x,y,z
x,-y,z
x,1/2+y,1/2+z
-x,1/2-y,1/2+z
x,1/2-y,1/2-z
-x,1/2+y,1/2-z
-x,1/2-y,1/2-z
x,1/2+y,1/2-z
-x,1/2+y,1/2+z
x,1/2-y,1/2+z
1/2+x,y,1/2+z
1/2-x,-y,1/2+z
1/2+x,-y,1/2-z
1/2-x,y,1/2-z
1/2-x,-y,1/2-z
1/2+x,y,1/2-z
1/2-x,y,1/2+z
1/2+x,-y,1/2+z
1/2+x,1/2+y,z
1/2-x,1/2-y,z
1/2+x,1/2-y,-z
1/2-x,1/2+y,-z
1/2-x,1/2-y,-z
1/2+x,1/2+y,-z
1/2-x,1/2+y,z
1/2+x,1/2-y,z
loop_
_atom_site_type_symbol
_atom_site_label
_atom_site_fract_x
_atom_site_fract_y
_atom_site_fract_z
Si Si1 0.128691 0.197428 0.812777
Si Si2 0.933265 0.554924 0.809000
Si Si3 0.313712 0.891149 0.811441
Si Si4 0.500000 0.696840 0.312066
O O1 0.136851 0.250000 0.750000
O O2 0.177784 0.161493 0.749323
O O3 0.063679 0.178391 0.750575
O O4 0.127845 0.198864 0.000000
O O5 0.929356 0.500000 0.772861
O O6 0.872897 0.580725 0.753131
O O7 0.000000 0.571843 0.754586
O O8 0.933645 0.559213 0.000000
O O9 0.250000 0.910323 0.750000
O O10 0.313503 0.891457 0.000000
O O11 0.500000 0.695220 0.500000
O O12 0.500000 0.750000 0.250000
#
# Coordination Sequence:
#
# PCOD9511366 Si02
#       4
#    32  32  32  16
#     4  11  22  38  58  84 118 158 203 252 301 355
#     4   8  16  34  61  91 119 151 196 247 298 356
#     4  11  23  38  58  87 122 161 203 248 301 361
#     4  10  18  32  54  82 113 148 193 242 296 349
#
# _framework density 20.804399
#
# number of rings (size 3 to 8) (size 9 to 14) (size 15 to 20)
#    0.000    2.000    0.000    7.286    2.000    1.143 
#    0.000    2.857    0.000    2.571    0.000    8.000 
#    0.000    0.000    0.000    0.000    0.000    0.000 
#
# Total GULP energy -156382.289523 kJ/mol
# GULP energy per Si atom -5585.081769 kJ/mol
# Density = 2.075705 g / cm^3
# Si number density = 20.804399 Si / 1000 Ang^3
#
#
#
# Elastic Constant Matrix: (Units=GPa)
#
#
# Indices 1 2 3 4 5 6 
#
# 1 189.2180 71.1954 37.9154 0.0001 -0.0003 0.0000
# 2 71.1954 69.8099 12.0605 -0.0001 0.0000 0.0000
# 3 37.9154 12.0605 100.4788 0.0000 -0.0009 0.0001
# 4 0.0001 -0.0001 0.0000 9.9673 -0.0001 0.0000
# 5 -0.0003 0.0000 -0.0009 -0.0001 34.4037 0.0000
# 6 0.0000 0.0000 0.0001 0.0000 0.0000 26.9716
#
#
#
# Elastic Compliance Matrix: (Units=1/GPa)
#
#
# Indices 1 2 3 4 5 6 
#
# 1 0.009096 -0.008867 -0.002368 0.000000 0.000000 0.000000
# 2 -0.008867 0.023272 0.000553 0.000000 0.000000 0.000000
# 3 -0.002368 0.000553 0.010780 0.000000 0.000000 0.000000
# 4 0.000000 0.000000 0.000000 0.100328 0.000000 0.000000
# 5 0.000000 0.000000 0.000000 0.000000 0.029067 0.000000
# 6 0.000000 0.000000 0.000000 0.000000 0.000000 0.037076
#
#
# Mechanical properties :
#
#
# Convention : Reuss Voigt Hill
#
# Bulk Modulus (GPa) = 45.90810 66.87215 56.39012
# Shear Modulus (GPa) = 20.98683 30.15754 25.57218
#
# Velocity S-wave (km/s) = 3.17956 3.81146 3.50976
# Velocity P-wave (km/s) = 5.96606 7.18211 6.60214
#
# Compressibility (1/GPa) = 0.02178265
#
# Stress axis : x y z
#
# Youngs Moduli (GPa) = 109.94095 42.96943 92.76829
#
# Poissons Ratio (x) = 0.38102 0.21967
# Poissons Ratio (y) = 0.97487 -0.05127
# Poissons Ratio (z) = 0.26033 -0.02375
#
# Static dielectric constant tensor:
#      x y z
#    x 1.741280 0.000000 0.000000 
#    y 0.000000 1.739580 0.000000 
#    z 0.000000 0.000000 1.713870 
# 
# From -- ./inp_files/3700.got.cif
#   From: 2010.05.17/outbox.cif.g08.bks.cpg/sg69_2_cif.got.tgz:3700.got - 2010.06.03 19:29:58.
