data_PCOD9511521
_publ_section_title
;
Structure prediction by ZEFSAII (Michael W. Deem and Ramdas Pophale) SiO2 
 PCOD9511521
Probable space group: F M M M
;
_chemical_formula_sum "Si O2"
_cell_formula_units_Z 160
_cell_length_a 15.268570
_cell_length_b 20.543203
_cell_length_c 29.307935
_cell_angle_alpha 90.000000
_cell_angle_beta 90.000000
_cell_angle_gamma 90.000000
_cell_volume 9192.883192
_symmetry_space_group_name_H-M "F M M M"
_symmetry_group_IT_number 69
_symmetry_cell_setting 'orthorhombic'
loop_
_space_group_symop_operation_xyz
x,y,z
-x,-y,z
x,-y,-z
-x,y,-z
-x,-y,-z
x,y,-z
-x,y,z
x,-y,z
x,1/2+y,1/2+z
-x,1/2-y,1/2+z
x,1/2-y,1/2-z
-x,1/2+y,1/2-z
-x,1/2-y,1/2-z
x,1/2+y,1/2-z
-x,1/2+y,1/2+z
x,1/2-y,1/2+z
1/2+x,y,1/2+z
1/2-x,-y,1/2+z
1/2+x,-y,1/2-z
1/2-x,y,1/2-z
1/2-x,-y,1/2-z
1/2+x,y,1/2-z
1/2-x,y,1/2+z
1/2+x,-y,1/2+z
1/2+x,1/2+y,z
1/2-x,1/2-y,z
1/2+x,1/2-y,-z
1/2-x,1/2+y,-z
1/2-x,1/2-y,-z
1/2+x,1/2+y,-z
1/2-x,1/2+y,z
1/2+x,1/2-y,z
loop_
_atom_site_type_symbol
_atom_site_label
_atom_site_fract_x
_atom_site_fract_y
_atom_site_fract_z
Si Si1 0.263362 0.171657 0.551186
Si Si2 0.897611 0.807744 0.128992
Si Si3 0.103290 0.427589 0.197693
Si Si4 0.102615 0.152871 0.390340
Si Si5 0.849848 0.181025 0.233116
O O1 0.285745 0.149935 0.500000
O O2 0.250000 0.250000 0.549545
O O3 0.338529 0.161606 0.589027
O O4 0.171041 0.143353 0.568821
O O5 0.892670 0.729125 0.123475
O O6 0.860750 0.823464 0.179046
O O7 0.000000 0.825852 0.125959
O O8 0.141553 0.500000 0.202866
O O9 0.134646 0.389237 0.152833
O O10 0.112964 0.381495 0.241255
O O11 0.000000 0.434099 0.190173
O O12 0.000000 0.139094 0.400822
O O13 0.890248 0.250000 0.250000
O O14 0.750000 0.182696 0.250000
#
# Coordination Sequence:
#
# PCOD9511521 Si02
#       5
#    32  32  32  32  32
#     4   9  18  31  48  71 100 129 164 216 268 310
#     4  10  19  30  49  74 101 135 175 211 254 314
#     4  10  20  33  49  72 105 140 173 214 261 311
#     4   9  17  30  49  72 100 135 172 208 256 315
#     4  11  21  31  51  75 102 140 176 218 262 312
#
# _framework density 17.404768000000001
#
# number of rings (size 3 to 8) (size 9 to 14) (size 15 to 20)
#    0.000    2.200    2.000    1.800    5.600    2.000 
#    0.000    4.000    0.000    0.600    0.000    2.800 
#    0.000    0.000    0.000    8.600    0.000    2.600 
#
# Total GULP energy -222883.630160 kJ/mol
# GULP energy per Si atom -5572.090754 kJ/mol
# Density = 1.736515 g / cm^3
# Si number density = 17.404768 Si / 1000 Ang^3
#
#
#
# Elastic Constant Matrix: (Units=GPa)
#
#
# Indices 1 2 3 4 5 6 
#
# 1 92.8856 21.1030 70.1858 0.0000 0.0000 0.0000
# 2 21.1030 55.7262 32.5619 0.0000 0.0000 0.0000
# 3 70.1858 32.5619 177.3921 0.0000 0.0000 0.0000
# 4 0.0000 0.0000 0.0000 -19.0414 0.0000 0.0000
# 5 0.0000 0.0000 0.0000 0.0000 17.3996 0.0000
# 6 0.0000 0.0000 0.0000 0.0000 0.0000 10.7218
#
#
#
# Elastic Compliance Matrix: (Units=1/GPa)
#
#
# Indices 1 2 3 4 5 6 
#
# 1 0.015684 -0.002591 -0.005730 0.000000 0.000000 0.000000
# 2 -0.002591 0.020529 -0.002743 0.000000 0.000000 0.000000
# 3 -0.005730 -0.002743 0.008408 0.000000 0.000000 0.000000
# 4 0.000000 0.000000 0.000000 -0.052517 0.000000 0.000000
# 5 0.000000 0.000000 0.000000 0.000000 0.057473 0.000000
# 6 0.000000 0.000000 0.000000 0.000000 0.000000 0.093268
#
#
# Mechanical properties :
#
#
# Convention : Reuss Voigt Hill
#
# Bulk Modulus (GPa) = 44.45921 63.74502 54.10212
# Shear Modulus (GPa) = 28.99045 15.29287 22.14166
#
# Velocity S-wave (km/s) = 4.08568 2.96744 3.57061
# Velocity P-wave (km/s) = 6.91786 6.96028 6.93910
#
# Compressibility (1/GPa) = 0.02249253
#
# Stress axis : x y z
#
# Youngs Moduli (GPa) = 63.75829 48.71160 118.93768
#
# Poissons Ratio (x) = 0.12623 0.68149
# Poissons Ratio (y) = 0.16522 0.32624
# Poissons Ratio (z) = 0.36533 0.13362
#
# Static dielectric constant tensor:
#      x y z
#    x 1.579840 0.000000 0.000000 
#    y 0.000000 1.611090 0.000000 
#    z 0.000000 0.000000 1.588750 
# 
# From -- ./inp_files/17998.got.cif
#   From: 2010.05.17/outbox.cif.g08.bks.cpg/sg69_9_cif.got.tgz:17998.got - 2010.06.03 19:29:58.
