data_PCOD9511815
_publ_section_title
;
Structure prediction by ZEFSAII (Michael W. Deem and Ramdas Pophale) SiO2 
 PCOD9511815
Probable space group: F M M M
;
_chemical_formula_sum "Si O2"
_cell_formula_units_Z 192
_cell_length_a 14.826127
_cell_length_b 27.344957
_cell_length_c 27.455383
_cell_angle_alpha 90.000000
_cell_angle_beta 90.000000
_cell_angle_gamma 90.000000
_cell_volume 11130.956030
_symmetry_space_group_name_H-M "F M M M"
_symmetry_group_IT_number 69
_symmetry_cell_setting 'orthorhombic'
loop_
_space_group_symop_operation_xyz
x,y,z
-x,-y,z
x,-y,-z
-x,y,-z
-x,-y,-z
x,y,-z
-x,y,z
x,-y,z
x,1/2+y,1/2+z
-x,1/2-y,1/2+z
x,1/2-y,1/2-z
-x,1/2+y,1/2-z
-x,1/2-y,1/2-z
x,1/2+y,1/2-z
-x,1/2+y,1/2+z
x,1/2-y,1/2+z
1/2+x,y,1/2+z
1/2-x,-y,1/2+z
1/2+x,-y,1/2-z
1/2-x,y,1/2-z
1/2-x,-y,1/2-z
1/2+x,y,1/2-z
1/2-x,y,1/2+z
1/2+x,-y,1/2+z
1/2+x,1/2+y,z
1/2-x,1/2-y,z
1/2+x,1/2-y,-z
1/2-x,1/2+y,-z
1/2-x,1/2-y,-z
1/2+x,1/2+y,-z
1/2-x,1/2+y,z
1/2+x,1/2-y,z
loop_
_atom_site_type_symbol
_atom_site_label
_atom_site_fract_x
_atom_site_fract_y
_atom_site_fract_z
Si Si1 0.891836 0.771331 0.405327
Si Si2 0.780639 0.321175 0.443093
Si Si3 0.802899 0.941790 0.301325
Si Si4 0.832951 0.624183 0.647409
Si Si5 0.892406 0.776420 0.800734
Si Si6 0.500000 0.444690 0.833345
Si Si7 0.000000 0.944650 0.282803
O O1 0.846197 0.725704 0.434019
O O2 0.820659 0.812588 0.421747
O O3 0.880893 0.759145 0.347659
O O4 0.000000 0.777157 0.414739
O O5 0.775797 0.331368 0.500000
O O6 0.825978 0.360330 0.408278
O O7 0.750000 0.937878 0.250000
O O8 0.753399 0.906564 0.337862
O O9 0.904916 0.922899 0.296997
O O10 0.800996 0.000000 0.313390
O O11 0.846696 0.672418 0.681901
O O12 0.914387 0.587003 0.653373
O O13 0.863657 0.750000 0.750000
O O14 0.000000 0.786632 0.796050
O O15 0.500000 0.500000 0.852755
O O16 0.500000 0.448282 0.775099
O O17 0.000000 0.000000 0.302527
#
# Coordination Sequence:
#
# PCOD9511815 Si02
#       7
#    32  32  32  32  32  16  16
#     4   9  18  36  58  79 104 145 189 231 274 318
#     4  10  22  37  54  78 105 138 189 242 283 327
#     4  10  19  33  55  82 111 142 180 223 269 330
#     4  11  21  35  55  83 109 147 185 223 281 329
#     4   9  18  33  52  78 118 155 180 213 258 329
#     4  11  20  36  60  85 114 141 181 228 271 331
#     4   9  18  34  54  80 110 141 177 219 265 321
#
# _framework density 17.249192000000001
#
# number of rings (size 3 to 8) (size 9 to 14) (size 15 to 20)
#    0.000    2.167    2.500    1.500    1.167    2.667 
#    1.500    5.833    0.000    2.500    0.000    0.583 
#    0.000    2.000    0.000    0.000    0.000    0.000 
#
# Total GULP energy -267345.714377 kJ/mol
# GULP energy per Si atom -5569.702383 kJ/mol
# Density = 1.720993 g / cm^3
# Si number density = 17.249192 Si / 1000 Ang^3
#
#
#
# Elastic Constant Matrix: (Units=GPa)
#
#
# Indices 1 2 3 4 5 6 
#
# 1 125.8376 25.2238 31.8301 0.0000 0.0000 0.0000
# 2 25.2238 53.3905 39.2265 0.0000 0.0000 0.0000
# 3 31.8301 39.2265 98.7312 0.0000 0.0000 0.0000
# 4 0.0000 0.0000 0.0000 8.8688 0.0000 0.0000
# 5 0.0000 0.0000 0.0000 0.0000 19.0124 0.0000
# 6 0.0000 0.0000 0.0000 0.0000 0.0000 58.5473
#
#
#
# Elastic Compliance Matrix: (Units=1/GPa)
#
#
# Indices 1 2 3 4 5 6 
#
# 1 0.008977 -0.002987 -0.001708 0.000000 0.000000 0.000000
# 2 -0.002987 0.027445 -0.009941 0.000000 0.000000 0.000000
# 3 -0.001708 -0.009941 0.014629 0.000000 0.000000 0.000000
# 4 0.000000 0.000000 0.000000 0.112755 0.000000 0.000000
# 5 0.000000 0.000000 0.000000 0.000000 0.052597 0.000000
# 6 0.000000 0.000000 0.000000 0.000000 0.000000 0.017080
#
#
# Mechanical properties :
#
#
# Convention : Reuss Voigt Hill
#
# Bulk Modulus (GPa) = 45.91355 52.28001 49.09678
# Shear Modulus (GPa) = 18.51760 29.39764 23.95762
#
# Velocity S-wave (km/s) = 3.28004 4.13278 3.73085
# Velocity P-wave (km/s) = 6.40472 7.29025 6.86178
#
# Compressibility (1/GPa) = 0.02178006
#
# Stress axis : x y z
#
# Youngs Moduli (GPa) = 111.39138 36.43688 68.35893
#
# Poissons Ratio (x) = 0.10883 0.11673
# Poissons Ratio (y) = 0.33269 0.67956
# Poissons Ratio (z) = 0.19021 0.36222
#
# Static dielectric constant tensor:
#      x y z
#    x 1.789380 0.000000 0.000000 
#    y 0.000000 1.606800 0.000000 
#    z 0.000000 0.000000 1.570760 
# 
# From -- ./inp_files/41291.got.cif
#   From: 2010.05.17/outbox.cif.g08.bks.cpg/sg69_21_cif.got.tgz:41291.got - 2010.06.03 19:29:58.
