data_PCOD9511472
_publ_section_title
;
Structure prediction by ZEFSAII (Michael W. Deem and Ramdas Pophale) SiO2 
 PCOD9511472
Probable space group: F M M M
;
_chemical_formula_sum "Si O2"
_cell_formula_units_Z 160
_cell_length_a 27.405606
_cell_length_b 17.492163
_cell_length_c 23.358855
_cell_angle_alpha 90.000000
_cell_angle_beta 90.000000
_cell_angle_gamma 90.000000
_cell_volume 11197.845631
_symmetry_space_group_name_H-M "F M M M"
_symmetry_group_IT_number 69
_symmetry_cell_setting 'orthorhombic'
loop_
_space_group_symop_operation_xyz
x,y,z
-x,-y,z
x,-y,-z
-x,y,-z
-x,-y,-z
x,y,-z
-x,y,z
x,-y,z
x,1/2+y,1/2+z
-x,1/2-y,1/2+z
x,1/2-y,1/2-z
-x,1/2+y,1/2-z
-x,1/2-y,1/2-z
x,1/2+y,1/2-z
-x,1/2+y,1/2+z
x,1/2-y,1/2+z
1/2+x,y,1/2+z
1/2-x,-y,1/2+z
1/2+x,-y,1/2-z
1/2-x,y,1/2-z
1/2-x,-y,1/2-z
1/2+x,y,1/2-z
1/2-x,y,1/2+z
1/2+x,-y,1/2+z
1/2+x,1/2+y,z
1/2-x,1/2-y,z
1/2+x,1/2-y,-z
1/2-x,1/2+y,-z
1/2-x,1/2-y,-z
1/2+x,1/2+y,-z
1/2-x,1/2+y,z
1/2+x,1/2-y,z
loop_
_atom_site_type_symbol
_atom_site_label
_atom_site_fract_x
_atom_site_fract_y
_atom_site_fract_z
Si Si1 0.236069 0.912687 0.816481
Si Si2 0.306390 0.412240 0.500000
Si Si3 0.810782 0.413417 0.500000
Si Si4 0.557044 0.408460 0.932793
Si Si5 0.149930 0.154818 0.118619
Si Si6 0.795394 0.302653 0.899018
O O1 0.250000 0.908737 0.750000
O O2 0.180605 0.889267 0.832582
O O3 0.270130 0.853933 0.850568
O O4 0.243695 0.000000 0.836664
O O5 0.324555 0.500000 0.500000
O O6 0.247478 0.416620 0.500000
O O7 0.317774 0.360302 0.445123
O O8 0.829924 0.500000 0.500000
O O9 0.827803 0.373352 0.557796
O O10 0.500000 0.391876 0.922855
O O11 0.563841 0.500000 0.926885
O O12 0.593535 0.365779 0.889829
O O13 0.567524 0.389543 0.000000
O O14 0.164401 0.243398 0.123356
O O15 0.750000 0.250000 0.922364
#
# Coordination Sequence:
#
# PCOD9511472 Si02
#       6
#    32  16  16  32  32  32
#     4  10  20  32  44  60  85 119 155 184 216 262
#     4  11  18  26  38  56  85 116 150 181 206 248
#     4  11  17  23  40  60  83 119 151 171 206 260
#     4   9  17  28  43  65  92 120 149 182 220 268
#     4  11  19  27  44  63  90 119 147 179 221 268
#     4  10  19  27  39  60  85 113 145 180 214 260
#
# _framework density 14.288463
#
# number of rings (size 3 to 8) (size 9 to 14) (size 15 to 20)
#    0.000    1.800    5.000    3.900    0.000    3.600 
#    0.000    0.000    0.000    0.000    0.000    2.800 
#    0.000    5.600    0.000    0.000    0.000    0.000 
#
# Total GULP energy -222849.151849 kJ/mol
# GULP energy per Si atom -5571.228796 kJ/mol
# Density = 1.425594 g / cm^3
# Si number density = 14.288463 Si / 1000 Ang^3
#
#
#
# Elastic Constant Matrix: (Units=GPa)
#
#
# Indices 1 2 3 4 5 6 
#
# 1 87.3828 33.0865 21.5488 0.0000 0.0000 0.0000
# 2 33.0865 104.6638 26.1198 0.0000 0.0000 0.0000
# 3 21.5488 26.1198 42.7584 0.0000 0.0000 0.0000
# 4 0.0000 0.0000 0.0000 -60.1709 0.0000 0.0000
# 5 0.0000 0.0000 0.0000 0.0000 13.0867 0.0000
# 6 0.0000 0.0000 0.0000 0.0000 0.0000 17.7059
#
#
#
# Elastic Compliance Matrix: (Units=1/GPa)
#
#
# Indices 1 2 3 4 5 6 
#
# 1 0.013880 -0.003117 -0.005091 0.000000 0.000000 0.000000
# 2 -0.003117 0.011973 -0.005743 0.000000 0.000000 0.000000
# 3 -0.005091 -0.005743 0.029461 0.000000 0.000000 0.000000
# 4 0.000000 0.000000 0.000000 -0.016619 0.000000 0.000000
# 5 0.000000 0.000000 0.000000 0.000000 0.076413 0.000000
# 6 0.000000 0.000000 0.000000 0.000000 0.000000 0.056478
#
#
# Mechanical properties :
#
#
# Convention : Reuss Voigt Hill
#
# Bulk Modulus (GPa) = 36.48055 44.03501 40.25778
# Shear Modulus (GPa) = 23.96646 4.39433 14.18040
#
# Velocity S-wave (km/s) = 4.09996 1.75560 3.15371
# Velocity P-wave (km/s) = 6.92819 5.91565 6.44185
#
# Compressibility (1/GPa) = 0.02741187
#
# Stress axis : x y z
#
# Youngs Moduli (GPa) = 72.04839 83.52100 33.94328
#
# Poissons Ratio (x) = 0.26035 0.17279
# Poissons Ratio (y) = 0.22459 0.19494
# Poissons Ratio (z) = 0.36677 0.47966
#
# Static dielectric constant tensor:
#      x y z
#    x 1.482900 0.000000 0.000000 
#    y 0.000000 1.502250 0.000000 
#    z 0.000000 0.000000 1.478990 
# 
# From -- ./inp_files/25004.got.cif
#   From: 2010.05.17/outbox.cif.g08.bks.cpg/sg69_13_cif.got.tgz:25004.got - 2010.06.03 19:29:58.
