data_PCOD9511857
_publ_section_title
;
Structure prediction by ZEFSAII (Michael W. Deem and Ramdas Pophale) SiO2 
 PCOD9511857
Probable space group: F M M M
;
_chemical_formula_sum "Si O2"
_cell_formula_units_Z 192
_cell_length_a 25.756713
_cell_length_b 14.621698
_cell_length_c 23.409800
_cell_angle_alpha 90.000000
_cell_angle_beta 90.000000
_cell_angle_gamma 90.000000
_cell_volume 8816.291715
_symmetry_space_group_name_H-M "F M M M"
_symmetry_group_IT_number 69
_symmetry_cell_setting 'orthorhombic'
loop_
_space_group_symop_operation_xyz
x,y,z
-x,-y,z
x,-y,-z
-x,y,-z
-x,-y,-z
x,y,-z
-x,y,z
x,-y,z
x,1/2+y,1/2+z
-x,1/2-y,1/2+z
x,1/2-y,1/2-z
-x,1/2+y,1/2-z
-x,1/2-y,1/2-z
x,1/2+y,1/2-z
-x,1/2+y,1/2+z
x,1/2-y,1/2+z
1/2+x,y,1/2+z
1/2-x,-y,1/2+z
1/2+x,-y,1/2-z
1/2-x,y,1/2-z
1/2-x,-y,1/2-z
1/2+x,y,1/2-z
1/2-x,y,1/2+z
1/2+x,-y,1/2+z
1/2+x,1/2+y,z
1/2-x,1/2-y,z
1/2+x,1/2-y,-z
1/2-x,1/2+y,-z
1/2-x,1/2-y,-z
1/2+x,1/2+y,-z
1/2-x,1/2+y,z
1/2+x,1/2-y,z
loop_
_atom_site_type_symbol
_atom_site_label
_atom_site_fract_x
_atom_site_fract_y
_atom_site_fract_z
Si Si1 0.682806 0.112201 0.065078
Si Si2 0.305701 0.855955 0.266304
Si Si3 0.613211 0.394182 0.670635
Si Si4 0.500000 0.736492 0.931343
Si Si5 0.298058 0.390516 0.899204
Si Si6 0.090065 0.103960 0.933723
Si Si7 0.000000 0.610346 0.845854
O O1 0.644853 0.145426 0.116043
O O2 0.741756 0.142807 0.080081
O O3 0.682907 0.000000 0.066072
O O4 0.669059 0.139099 0.000000
O O5 0.304091 0.750000 0.250000
O O6 0.250000 0.897268 0.250000
O O7 0.351707 0.891955 0.227000
O O8 0.309475 0.868048 0.333503
O O9 0.606848 0.500000 0.654922
O O10 0.554951 0.359184 0.681248
O O11 0.549784 0.677888 0.910434
O O12 0.500000 0.838059 0.906368
O O13 0.500000 0.742426 0.000000
O O14 0.295013 0.500000 0.905638
O O15 0.350488 0.363092 0.931129
O O16 0.086395 0.000000 0.908739
O O17 0.075897 0.094921 0.000000
O O18 0.000000 0.500000 0.849067
#
# Coordination Sequence:
#
# PCOD9511857 Si02
#       7
#    32  32  32  16  32  32  16
#     4   9  17  31  56  88 117 149 190 239 296 355
#     4  11  23  37  58  87 120 153 191 244 297 358
#     4  10  21  40  62  83 114 154 200 248 296 351
#     4  10  21  37  61  86 117 166 209 248 295 356
#     4  10  19  33  58  89 119 151 191 240 298 364
#     4   9  18  34  58  91 127 158 193 243 302 364
#     4  10  24  42  61  84 115 158 206 262 304 343
#
# _framework density 21.777864000000001
#
# number of rings (size 3 to 8) (size 9 to 14) (size 15 to 20)
#    0.000    2.167    1.667    1.250    2.333    4.500 
#    0.000    2.917    0.000    3.000    0.000    0.000 
#    0.000    0.000    0.000    0.000    0.000    0.000 
#
# Total GULP energy -267706.129411 kJ/mol
# GULP energy per Si atom -5577.211029 kJ/mol
# Density = 2.172830 g / cm^3
# Si number density = 21.777864 Si / 1000 Ang^3
#
#
#
# Elastic Constant Matrix: (Units=GPa)
#
#
# Indices 1 2 3 4 5 6 
#
# 1 148.6482 13.5343 28.5245 0.0000 0.0000 0.0000
# 2 13.5343 32.7867 -16.2852 0.0000 0.0000 0.0000
# 3 28.5245 -16.2852 67.3847 0.0000 0.0000 0.0000
# 4 0.0000 0.0000 0.0000 4.8675 0.0000 0.0000
# 5 0.0000 0.0000 0.0000 0.0000 25.7275 0.0000
# 6 0.0000 0.0000 0.0000 0.0000 0.0000 -6.6634
#
#
#
# Elastic Compliance Matrix: (Units=1/GPa)
#
#
# Indices 1 2 3 4 5 6 
#
# 1 0.008189 -0.005798 -0.004868 0.000000 0.000000 0.000000
# 2 -0.005798 0.038766 0.011823 0.000000 0.000000 0.000000
# 3 -0.004868 0.011823 0.019758 0.000000 0.000000 0.000000
# 4 0.000000 0.000000 0.000000 0.205446 0.000000 0.000000
# 5 0.000000 0.000000 0.000000 0.000000 0.038869 0.000000
# 6 0.000000 0.000000 0.000000 0.000000 0.000000 -0.150075
#
#
# Mechanical properties :
#
#
# Convention : Reuss Voigt Hill
#
# Bulk Modulus (GPa) = 14.48689 33.37410 23.93050
# Shear Modulus (GPa) = 27.52555 19.65606 23.59081
#
# Velocity S-wave (km/s) = 3.55903 3.00754 3.29484
# Velocity P-wave (km/s) = 4.85340 5.23626 5.04846
#
# Compressibility (1/GPa) = 0.06902795
#
# Stress axis : x y z
#
# Youngs Moduli (GPa) = 122.10948 25.79551 50.61179
#
# Poissons Ratio (x) = 0.14957 0.24638
# Poissons Ratio (y) = 0.70805 -0.59840
# Poissons Ratio (z) = 0.59443 -0.30499
#
# Static dielectric constant tensor:
#      x y z
#    x 1.848770 0.000000 0.000000 
#    y 0.000000 1.751930 0.000000 
#    z 0.000000 0.000000 1.867870 
# 
# From -- ./inp_files/43230.got.cif
#   From: 2010.05.17/outbox.cif.g08.bks.cpg/sg69_22_cif.got.tgz:43230.got - 2010.06.03 19:29:58.
