data_PCOD9511250
_publ_section_title
;
Structure prediction by ZEFSAII (Michael W. Deem and Ramdas Pophale) SiO2 
 PCOD9511250
Probable space group: F M M M
;
_chemical_formula_sum "Si O2"
_cell_formula_units_Z 112
_cell_length_a 8.970011
_cell_length_b 21.835705
_cell_length_c 27.837373
_cell_angle_alpha 90.000000
_cell_angle_beta 90.000000
_cell_angle_gamma 90.000000
_cell_volume 5452.409210
_symmetry_space_group_name_H-M "F M M M"
_symmetry_group_IT_number 69
_symmetry_cell_setting 'orthorhombic'
loop_
_space_group_symop_operation_xyz
x,y,z
-x,-y,z
x,-y,-z
-x,y,-z
-x,-y,-z
x,y,-z
-x,y,z
x,-y,z
x,1/2+y,1/2+z
-x,1/2-y,1/2+z
x,1/2-y,1/2-z
-x,1/2+y,1/2-z
-x,1/2-y,1/2-z
x,1/2+y,1/2-z
-x,1/2+y,1/2+z
x,1/2-y,1/2+z
1/2+x,y,1/2+z
1/2-x,-y,1/2+z
1/2+x,-y,1/2-z
1/2-x,y,1/2-z
1/2-x,-y,1/2-z
1/2+x,y,1/2-z
1/2-x,y,1/2+z
1/2+x,-y,1/2+z
1/2+x,1/2+y,z
1/2-x,1/2-y,z
1/2+x,1/2-y,-z
1/2-x,1/2+y,-z
1/2-x,1/2-y,-z
1/2+x,1/2+y,-z
1/2-x,1/2+y,z
1/2+x,1/2-y,z
loop_
_atom_site_type_symbol
_atom_site_label
_atom_site_fract_x
_atom_site_fract_y
_atom_site_fract_z
Si Si1 0.826468 0.932022 0.442041
Si Si2 0.825237 0.687082 0.601498
Si Si3 0.823113 0.624525 0.301684
Si Si4 0.678996 0.000000 0.196365
O O1 0.823106 0.930932 0.500000
O O2 0.740081 0.873328 0.423238
O O3 0.000000 0.927932 0.427010
O O4 0.770983 0.000000 0.427210
O O5 0.750000 0.750000 0.585779
O O6 0.803497 0.676748 0.658735
O O7 0.000000 0.690223 0.592018
O O8 0.750000 0.637997 0.250000
O O9 0.743298 0.563696 0.322944
O O10 0.000000 0.612598 0.295421
O O11 0.750000 0.000000 0.250000
O O12 0.500000 0.000000 0.196834
#
# Coordination Sequence:
#
# PCOD9511250 Si02
#       4
#    32  32  32  16
#     4   9  20  41  68  96 124 155 195 244 300 363
#     4  11  25  41  60  88 123 162 205 251 300 359
#     4  10  21  37  56  82 117 157 202 250 298 353
#     4  10  18  30  52  80 109 146 191 242 296 347
#
# _framework density 20.541378999999999
#
# number of rings (size 3 to 8) (size 9 to 14) (size 15 to 20)
#    0.000    2.000    0.000    5.571    2.000    6.857 
#    0.000    4.286    0.000    0.000    0.000    0.000 
#    0.000    0.000    0.000    0.000    0.000    0.000 
#
# Total GULP energy -156396.377932 kJ/mol
# GULP energy per Si atom -5585.584926 kJ/mol
# Density = 2.049463 g / cm^3
# Si number density = 20.541379 Si / 1000 Ang^3
#
#
#
# Elastic Constant Matrix: (Units=GPa)
#
#
# Indices 1 2 3 4 5 6 
#
# 1 119.8850 92.1724 38.3861 0.0000 0.0000 0.0000
# 2 92.1724 187.0425 44.1034 0.0000 0.0000 0.0000
# 3 38.3861 44.1034 49.5419 0.0000 0.0000 0.0000
# 4 0.0000 0.0000 0.0000 16.0316 0.0000 0.0000
# 5 0.0000 0.0000 0.0000 0.0000 26.3846 0.0000
# 6 0.0000 0.0000 0.0000 0.0000 0.0000 29.0525
#
#
#
# Elastic Compliance Matrix: (Units=1/GPa)
#
#
# Indices 1 2 3 4 5 6 
#
# 1 0.014841 -0.005825 -0.006314 0.000000 0.000000 0.000000
# 2 -0.005825 0.009053 -0.003546 0.000000 0.000000 0.000000
# 3 -0.006314 -0.003546 0.028234 0.000000 0.000000 0.000000
# 4 0.000000 0.000000 0.000000 0.062377 0.000000 0.000000
# 5 0.000000 0.000000 0.000000 0.000000 0.037901 0.000000
# 6 0.000000 0.000000 0.000000 0.000000 0.000000 0.034420
#
#
# Mechanical properties :
#
#
# Convention : Reuss Voigt Hill
#
# Bulk Modulus (GPa) = 48.17279 78.42145 63.29712
# Shear Modulus (GPa) = 22.21085 26.41425 24.31255
#
# Velocity S-wave (km/s) = 3.29184 3.58984 3.44406
# Velocity P-wave (km/s) = 6.16042 7.44599 6.83350
#
# Compressibility (1/GPa) = 0.02075860
#
# Stress axis : x y z
#
# Youngs Moduli (GPa) = 67.37909 110.46180 35.41859
#
# Poissons Ratio (x) = 0.64343 0.22363
# Poissons Ratio (y) = 0.39247 0.12559
# Poissons Ratio (z) = 0.42543 0.39168
#
# Static dielectric constant tensor:
#      x y z
#    x 1.697610 0.000000 0.000000 
#    y 0.000000 1.734920 0.000000 
#    z 0.000000 0.000000 1.790090 
# 
# From -- ./inp_files/44300.got.cif
#   From: 2010.05.17/outbox.cif.g08.bks.cpg/sg69_23_cif.got.tgz:44300.got - 2010.06.03 19:29:58.
