data_PCOD9511862
_publ_section_title
;
Structure prediction by ZEFSAII (Michael W. Deem and Ramdas Pophale) SiO2 
 PCOD9511862
Probable space group: F M M M
;
_chemical_formula_sum "Si O2"
_cell_formula_units_Z 136
_cell_length_a 28.727956
_cell_length_b 24.250415
_cell_length_c 11.388720
_cell_angle_alpha 90.000000
_cell_angle_beta 90.000000
_cell_angle_gamma 90.000000
_cell_volume 7934.120969
_symmetry_space_group_name_H-M "F M M M"
_symmetry_group_IT_number 69
_symmetry_cell_setting 'orthorhombic'
loop_
_space_group_symop_operation_xyz
x,y,z
-x,-y,z
x,-y,-z
-x,y,-z
-x,-y,-z
x,y,-z
-x,y,z
x,-y,z
x,1/2+y,1/2+z
-x,1/2-y,1/2+z
x,1/2-y,1/2-z
-x,1/2+y,1/2-z
-x,1/2-y,1/2-z
x,1/2+y,1/2-z
-x,1/2+y,1/2+z
x,1/2-y,1/2+z
1/2+x,y,1/2+z
1/2-x,-y,1/2+z
1/2+x,-y,1/2-z
1/2-x,y,1/2-z
1/2-x,-y,1/2-z
1/2+x,y,1/2-z
1/2-x,y,1/2+z
1/2+x,-y,1/2+z
1/2+x,1/2+y,z
1/2-x,1/2-y,z
1/2+x,1/2-y,-z
1/2-x,1/2+y,-z
1/2-x,1/2-y,-z
1/2+x,1/2+y,-z
1/2-x,1/2+y,z
1/2+x,1/2-y,z
loop_
_atom_site_type_symbol
_atom_site_label
_atom_site_fract_x
_atom_site_fract_y
_atom_site_fract_z
Si Si1 0.944728 0.879730 0.000000
Si Si2 0.930209 0.000000 0.000000
Si Si3 0.948630 0.000000 0.265220
Si Si4 0.612297 0.098272 0.863353
Si Si5 0.053465 0.815785 0.756007
Si Si6 0.781910 0.566735 0.862856
O O1 0.938228 0.842178 0.884740
O O2 0.000000 0.896781 0.000000
O O3 0.912687 0.935124 0.000000
O O4 0.953355 0.000000 0.126025
O O5 0.918832 0.053056 0.298360
O O6 0.000000 0.000000 0.319550
O O7 0.590966 0.156605 0.828398
O O8 0.666776 0.090765 0.839005
O O9 0.606264 0.087448 0.000000
O O10 0.056626 0.750000 0.750000
O O11 0.000000 0.830926 0.722997
O O12 0.785209 0.500000 0.862328
O O13 0.750000 0.582066 0.750000
O O14 0.768295 0.581544 0.000000
#
# Coordination Sequence:
#
# PCOD9511862 Si02
#       6
#    16   8  16  32  32  32
#     4  10  19  34  52  72 106 147 190 240 276 315
#     4  12  21  34  52  74 114 154 184 232 288 324
#     4  12  22  34  50  78 117 151 184 222 274 335
#     4  11  22  36  55  81 112 146 183 231 281 334
#     4  10  22  37  54  78 110 153 198 233 270 324
#     4   9  18  36  57  81 113 142 177 228 287 344
#
# _framework density 17.141155999999999
#
# number of rings (size 3 to 8) (size 9 to 14) (size 15 to 20)
#    0.000    1.647    3.529    2.118    1.647    2.353 
#    4.235    0.000    0.000    0.706    0.000    3.294 
#    0.000    0.000    0.000    0.000    0.000    0.000 
#
# Total GULP energy -189285.842171 kJ/mol
# GULP energy per Si atom -5567.230652 kJ/mol
# Density = 1.710214 g / cm^3
# Si number density = 17.141156 Si / 1000 Ang^3
#
#
#
# Elastic Constant Matrix: (Units=GPa)
#
#
# Indices 1 2 3 4 5 6 
#
# 1 87.8294 30.7343 76.9047 0.0000 0.0001 -0.0001
# 2 30.7343 77.0541 31.1781 -0.0001 0.0001 -0.0002
# 3 76.9047 31.1781 103.4459 -0.0002 0.0002 -0.0005
# 4 0.0000 -0.0001 -0.0002 17.1018 0.0001 -0.0002
# 5 0.0001 0.0001 0.0002 0.0001 9.6503 0.0002
# 6 -0.0001 -0.0002 -0.0005 -0.0002 0.0002 11.1577
#
#
#
# Elastic Compliance Matrix: (Units=1/GPa)
#
#
# Indices 1 2 3 4 5 6 
#
# 1 0.033543 -0.003746 -0.023808 0.000000 0.000000 -0.000001
# 2 -0.003746 0.015199 -0.001796 0.000000 0.000000 0.000000
# 3 -0.023808 -0.001796 0.027908 0.000000 0.000000 0.000001
# 4 0.000000 0.000000 0.000000 0.058473 -0.000001 0.000001
# 5 0.000000 0.000000 0.000000 -0.000001 0.103624 -0.000002
# 6 -0.000001 0.000000 0.000001 0.000001 -0.000002 0.089624
#
#
# Mechanical properties :
#
#
# Convention : Reuss Voigt Hill
#
# Bulk Modulus (GPa) = 55.71078 60.66264 58.18671
# Shear Modulus (GPa) = 12.72090 16.21610 14.46850
#
# Velocity S-wave (km/s) = 2.72715 3.07910 2.90846
# Velocity P-wave (km/s) = 6.51830 6.93600 6.73039
#
# Compressibility (1/GPa) = 0.01794985
#
# Stress axis : x y z
#
# Youngs Moduli (GPa) = 29.81243 65.79505 35.83241
#
# Poissons Ratio (x) = 0.24646 0.85309
# Poissons Ratio (y) = 0.11167 0.06436
# Poissons Ratio (z) = 0.70977 0.11817
#
# Static dielectric constant tensor:
#      x y z
#    x 1.591060 0.000000 0.000000 
#    y 0.000000 1.602350 0.000000 
#    z 0.000000 0.000000 1.603200 
# 
# From -- ./inp_files/10207.got.cif
#   From: 2010.05.17/outbox.cif.g08.bks.cpg/sg69_6_cif.got.tgz:10207.got - 2010.06.03 19:29:58.
