data_PCOD9511344
_publ_section_title
;
Structure prediction by ZEFSAII (Michael W. Deem and Ramdas Pophale) SiO2 
 PCOD9511344
Probable space group: F M M M
;
_chemical_formula_sum "Si O2"
_cell_formula_units_Z 160
_cell_length_a 24.610662
_cell_length_b 18.369152
_cell_length_c 18.682774
_cell_angle_alpha 90.000000
_cell_angle_beta 90.000000
_cell_angle_gamma 90.000000
_cell_volume 8446.052255
_symmetry_space_group_name_H-M "F M M M"
_symmetry_group_IT_number 69
_symmetry_cell_setting 'orthorhombic'
loop_
_space_group_symop_operation_xyz
x,y,z
-x,-y,z
x,-y,-z
-x,y,-z
-x,-y,-z
x,y,-z
-x,y,z
x,-y,z
x,1/2+y,1/2+z
-x,1/2-y,1/2+z
x,1/2-y,1/2-z
-x,1/2+y,1/2-z
-x,1/2-y,1/2-z
x,1/2+y,1/2-z
-x,1/2+y,1/2+z
x,1/2-y,1/2+z
1/2+x,y,1/2+z
1/2-x,-y,1/2+z
1/2+x,-y,1/2-z
1/2-x,y,1/2-z
1/2-x,-y,1/2-z
1/2+x,y,1/2-z
1/2-x,y,1/2+z
1/2+x,-y,1/2+z
1/2+x,1/2+y,z
1/2-x,1/2-y,z
1/2+x,1/2-y,-z
1/2-x,1/2+y,-z
1/2-x,1/2-y,-z
1/2+x,1/2+y,-z
1/2-x,1/2+y,z
1/2+x,1/2-y,z
loop_
_atom_site_type_symbol
_atom_site_label
_atom_site_fract_x
_atom_site_fract_y
_atom_site_fract_z
Si Si1 0.249051 0.585523 0.418264
Si Si2 0.842869 0.819633 0.155231
Si Si3 0.936900 0.261597 0.086337
Si Si4 0.805742 0.839571 0.297476
Si Si5 0.933780 0.421640 0.084252
O O1 0.263653 0.603680 0.500000
O O2 0.237328 0.500000 0.413852
O O3 0.196845 0.632144 0.393282
O O4 0.296379 0.606020 0.362610
O O5 0.899149 0.800407 0.118236
O O6 0.848993 0.853569 0.234604
O O7 0.815322 0.740449 0.169979
O O8 0.917709 0.342102 0.112562
O O9 0.000000 0.252382 0.105270
O O10 0.933101 0.261776 0.000000
O O11 0.750000 0.842596 0.250000
O O12 0.915979 0.500000 0.115086
O O13 0.000000 0.420833 0.086166
O O14 0.918686 0.422384 0.000000
#
# Coordination Sequence:
#
# PCOD9511344 Si02
#       5
#    32  32  32  32  32
#     4  10  20  33  53  82 108 130 164 213 269 325
#     4  10  18  32  52  74 103 141 179 210 249 312
#     4   9  17  28  45  72 105 142 183 226 267 303
#     4   9  19  35  53  74 102 134 169 208 257 316
#     4   7  10  19  36  58  88 128 170 209 252 300
#
# _framework density 18.943760999999999
#
# number of rings (size 3 to 8) (size 9 to 14) (size 15 to 20)
#    0.000    3.000    0.000    6.600    0.000    6.000 
#    0.000    3.000    0.000    4.200    0.000    2.800 
#    0.000    1.600    0.000    6.600    0.000    0.000 
#
# Total GULP energy -222783.561985 kJ/mol
# GULP energy per Si atom -5569.589050 kJ/mol
# Density = 1.890064 g / cm^3
# Si number density = 18.943761 Si / 1000 Ang^3
#
#
#
# Elastic Constant Matrix: (Units=GPa)
#
#
# Indices 1 2 3 4 5 6 
#
# 1 66.9161 28.7119 30.9899 0.0000 0.0000 0.0000
# 2 28.7119 63.9221 44.8577 0.0000 0.0000 0.0000
# 3 30.9899 44.8577 94.3502 0.0000 0.0000 0.0000
# 4 0.0000 0.0000 0.0000 15.0847 0.0000 0.0000
# 5 0.0000 0.0000 0.0000 0.0000 22.4906 0.0000
# 6 0.0000 0.0000 0.0000 0.0000 0.0000 20.8721
#
#
#
# Elastic Compliance Matrix: (Units=1/GPa)
#
#
# Indices 1 2 3 4 5 6 
#
# 1 0.019175 -0.006293 -0.003306 0.000000 0.000000 0.000000
# 2 -0.006293 0.025542 -0.010077 0.000000 0.000000 0.000000
# 3 -0.003306 -0.010077 0.016476 0.000000 0.000000 0.000000
# 4 0.000000 0.000000 0.000000 0.066292 0.000000 0.000000
# 5 0.000000 0.000000 0.000000 0.000000 0.044463 0.000000
# 6 0.000000 0.000000 0.000000 0.000000 0.000000 0.047911
#
#
# Mechanical properties :
#
#
# Convention : Reuss Voigt Hill
#
# Bulk Modulus (GPa) = 45.78497 48.25638 47.02067
# Shear Modulus (GPa) = 18.76233 19.73141 19.24687
#
# Velocity S-wave (km/s) = 3.15051 3.23085 3.19093
# Velocity P-wave (km/s) = 6.12010 6.28066 6.20090
#
# Compressibility (1/GPa) = 0.02184123
#
# Stress axis : x y z
#
# Youngs Moduli (GPa) = 52.15015 39.15125 60.69533
#
# Poissons Ratio (x) = 0.24637 0.20069
# Poissons Ratio (y) = 0.32816 0.61161
# Poissons Ratio (z) = 0.17243 0.39452
#
# Static dielectric constant tensor:
#      x y z
#    x 1.709330 0.000000 0.000000 
#    y 0.000000 1.678310 0.000000 
#    z 0.000000 0.000000 1.701830 
# 
# From -- ./inp_files/23466.got.cif
#   From: 2010.05.17/outbox.cif.g08.bks.cpg/sg69_12_cif.got.tgz:23466.got - 2010.06.03 19:29:58.
