data_PCOD9511503
_publ_section_title
;
Structure prediction by ZEFSAII (Michael W. Deem and Ramdas Pophale) SiO2 
 PCOD9511503
Probable space group: F M M M
;
_chemical_formula_sum "Si O2"
_cell_formula_units_Z 128
_cell_length_a 27.135928
_cell_length_b 7.791517
_cell_length_c 37.053874
_cell_angle_alpha 90.000000
_cell_angle_beta 90.000000
_cell_angle_gamma 90.000000
_cell_volume 7834.302222
_symmetry_space_group_name_H-M "F M M M"
_symmetry_group_IT_number 69
_symmetry_cell_setting 'orthorhombic'
loop_
_space_group_symop_operation_xyz
x,y,z
-x,-y,z
x,-y,-z
-x,y,-z
-x,-y,-z
x,y,-z
-x,y,z
x,-y,z
x,1/2+y,1/2+z
-x,1/2-y,1/2+z
x,1/2-y,1/2-z
-x,1/2+y,1/2-z
-x,1/2-y,1/2-z
x,1/2+y,1/2-z
-x,1/2+y,1/2+z
x,1/2-y,1/2+z
1/2+x,y,1/2+z
1/2-x,-y,1/2+z
1/2+x,-y,1/2-z
1/2-x,y,1/2-z
1/2-x,-y,1/2-z
1/2+x,y,1/2-z
1/2-x,y,1/2+z
1/2+x,-y,1/2+z
1/2+x,1/2+y,z
1/2-x,1/2-y,z
1/2+x,1/2-y,-z
1/2-x,1/2+y,-z
1/2-x,1/2-y,-z
1/2+x,1/2+y,-z
1/2-x,1/2+y,z
1/2+x,1/2-y,z
loop_
_atom_site_type_symbol
_atom_site_label
_atom_site_fract_x
_atom_site_fract_y
_atom_site_fract_z
Si Si1 0.153515 0.500000 0.542823
Si Si2 0.304871 0.200231 0.908621
Si Si3 0.557059 0.295091 0.209554
Si Si4 0.902512 0.694087 0.134873
Si Si5 0.055743 0.500000 0.411625
O O1 0.155912 0.500000 0.500000
O O2 0.179396 0.331727 0.559891
O O3 0.097414 0.500000 0.557604
O O4 0.250000 0.250000 0.896693
O O5 0.346116 0.222322 0.877608
O O6 0.305688 0.000000 0.919731
O O7 0.500000 0.235725 0.205958
O O8 0.557533 0.500000 0.205580
O O9 0.573430 0.250000 0.250000
O O10 0.588584 0.217226 0.177265
O O11 0.916086 0.500000 0.124423
O O12 0.934377 0.834393 0.113532
O O13 0.000000 0.500000 0.425041
#
# Coordination Sequence:
#
# PCOD9511503 Si02
#       5
#    16  32  32  32  16
#     4  10  22  37  54  80 109 135 168 213 261 312
#     4  10  20  36  56  79 104 134 172 212 262 312
#     4  10  19  30  46  72 105 138 173 214 259 304
#     4  10  20  33  52  76 104 137 175 217 257 306
#     4  10  20  35  54  76 103 139 179 212 250 307
#
# _framework density 16.338405999999999
#
# number of rings (size 3 to 8) (size 9 to 14) (size 15 to 20)
#    0.000    2.000    2.500    1.500    0.000    4.250 
#    0.000    0.000    0.000    0.750    0.000   12.250 
#    0.000    0.000    0.000    0.000    0.000    0.000 
#
# Total GULP energy -178490.973581 kJ/mol
# GULP energy per Si atom -5577.842924 kJ/mol
# Density = 1.630122 g / cm^3
# Si number density = 16.338406 Si / 1000 Ang^3
#
#
#
# Elastic Constant Matrix: (Units=GPa)
#
#
# Indices 1 2 3 4 5 6 
#
# 1 88.8623 39.8333 37.4840 0.0000 0.0000 0.0004
# 2 39.8333 109.0828 39.2993 -0.0006 0.0005 0.0021
# 3 37.4840 39.2993 109.9595 0.0002 -0.0001 -0.0010
# 4 0.0000 -0.0006 0.0002 16.8154 0.0000 -0.0004
# 5 0.0000 0.0005 -0.0001 0.0000 7.1439 0.0002
# 6 0.0004 0.0021 -0.0010 -0.0004 0.0002 4.6725
#
#
#
# Elastic Compliance Matrix: (Units=1/GPa)
#
#
# Indices 1 2 3 4 5 6 
#
# 1 0.014550 -0.004047 -0.003513 0.000000 0.000000 0.000000
# 2 -0.004047 0.011648 -0.002783 0.000000 -0.000001 -0.000005
# 3 -0.003513 -0.002783 0.011287 0.000000 0.000000 0.000004
# 4 0.000000 0.000000 0.000000 0.059469 0.000000 0.000005
# 5 0.000000 -0.000001 0.000000 0.000000 0.139979 -0.000005
# 6 0.000000 -0.000005 0.000004 0.000005 -0.000005 0.214016
#
#
# Mechanical properties :
#
#
# Convention : Reuss Voigt Hill
#
# Bulk Modulus (GPa) = 59.53629 60.12644 59.83137
# Shear Modulus (GPa) = 10.47701 18.47891 14.47796
#
# Velocity S-wave (km/s) = 2.53504 3.36670 2.98002
# Velocity P-wave (km/s) = 6.71470 7.21065 6.96709
#
# Compressibility (1/GPa) = 0.01679648
#
# Stress axis : x y z
#
# Youngs Moduli (GPa) = 68.73049 85.85157 88.60024
#
# Poissons Ratio (x) = 0.34746 0.31128
# Poissons Ratio (y) = 0.27817 0.24660
# Poissons Ratio (z) = 0.24147 0.23895
#
# Static dielectric constant tensor:
#      x y z
#    x 1.541920 0.000000 0.000000 
#    y 0.000000 1.574650 0.000000 
#    z 0.000000 0.000000 1.517550 
# 
# From -- ./inp_files/47139.got.cif
#   From: 2010.05.17/outbox.cif.g08.bks.cpg/sg69_24_cif.got.tgz:47139.got - 2010.06.03 19:29:58.
