data_PCOD9511752
_publ_section_title
;
Structure prediction by ZEFSAII (Michael W. Deem and Ramdas Pophale) SiO2 
 PCOD9511752
Probable space group: F M M M
;
_chemical_formula_sum "Si O2"
_cell_formula_units_Z 168
_cell_length_a 14.163872
_cell_length_b 26.399566
_cell_length_c 23.895953
_cell_angle_alpha 90.000000
_cell_angle_beta 90.000000
_cell_angle_gamma 90.000000
_cell_volume 8935.176506
_symmetry_space_group_name_H-M "F M M M"
_symmetry_group_IT_number 69
_symmetry_cell_setting 'orthorhombic'
loop_
_space_group_symop_operation_xyz
x,y,z
-x,-y,z
x,-y,-z
-x,y,-z
-x,-y,-z
x,y,-z
-x,y,z
x,-y,z
x,1/2+y,1/2+z
-x,1/2-y,1/2+z
x,1/2-y,1/2-z
-x,1/2+y,1/2-z
-x,1/2-y,1/2-z
x,1/2+y,1/2-z
-x,1/2+y,1/2+z
x,1/2-y,1/2+z
1/2+x,y,1/2+z
1/2-x,-y,1/2+z
1/2+x,-y,1/2-z
1/2-x,y,1/2-z
1/2-x,-y,1/2-z
1/2+x,y,1/2-z
1/2-x,y,1/2+z
1/2+x,-y,1/2+z
1/2+x,1/2+y,z
1/2-x,1/2-y,z
1/2+x,1/2-y,-z
1/2-x,1/2+y,-z
1/2-x,1/2-y,-z
1/2+x,1/2+y,-z
1/2-x,1/2+y,z
1/2+x,1/2-y,z
loop_
_atom_site_type_symbol
_atom_site_label
_atom_site_fract_x
_atom_site_fract_y
_atom_site_fract_z
Si Si1 0.872004 0.500000 0.500000
Si Si2 0.388973 0.409266 0.090656
Si Si3 0.890931 0.221746 0.809402
Si Si4 0.887192 0.320538 0.120810
Si Si5 0.764521 0.621477 0.313026
Si Si6 0.884795 0.710380 0.000000
Si Si7 0.614329 0.826775 0.500000
O O1 0.876891 0.455730 0.548490
O O2 0.500000 0.405355 0.104918
O O3 0.324284 0.413267 0.145164
O O4 0.360770 0.358717 0.055466
O O5 0.883706 0.250000 0.750000
O O6 0.867820 0.264290 0.855087
O O7 0.824564 0.173591 0.809218
O O8 0.000000 0.206160 0.817669
O O9 0.832364 0.361619 0.157279
O O10 0.857511 0.318764 0.056186
O O11 0.000000 0.328007 0.125035
O O12 0.750000 0.602451 0.250000
O O13 0.852645 0.768933 0.000000
O O14 0.000000 0.712543 0.000000
O O15 0.500000 0.825767 0.500000
#
# Coordination Sequence:
#
# PCOD9511752 Si02
#       7
#     8  32  32  32  32  16  16
#     4  10  21  44  72  94 113 128 159 224 314 390
#     4  10  20  36  61  87 108 134 167 221 295 362
#     4  10  19  33  51  71 109 163 203 236 268 306
#     4  10  21  34  49  70 106 157 204 239 273 308
#     4  12  23  33  50  80 116 149 193 233 265 323
#     4   9  17  31  46  65  99 145 192 235 268 303
#     4   8  15  30  50  75 104 129 171 229 281 330
#
# _framework density 18.80209
#
# number of rings (size 3 to 8) (size 9 to 14) (size 15 to 20)
#    0.000    1.905    1.905    3.714    0.000    5.333 
#    0.000    3.333    0.000    0.000    0.000    1.333 
#    0.000    0.000    0.000    0.000    0.000    0.000 
#
# Total GULP energy -234203.874190 kJ/mol
# GULP energy per Si atom -5576.282719 kJ/mol
# Density = 1.875930 g / cm^3
# Si number density = 18.802090 Si / 1000 Ang^3
#
#
#
# Elastic Constant Matrix: (Units=GPa)
#
#
# Indices 1 2 3 4 5 6 
#
# 1 76.1907 26.3118 41.3685 0.0000 0.0000 0.0000
# 2 26.3118 42.6311 26.5395 0.0000 0.0000 0.0000
# 3 41.3685 26.5395 163.3089 0.0000 0.0000 0.0000
# 4 0.0000 0.0000 0.0000 13.5288 0.0000 0.0000
# 5 0.0000 0.0000 0.0000 0.0000 0.6581 0.0000
# 6 0.0000 0.0000 0.0000 0.0000 0.0000 -13.4722
#
#
#
# Elastic Compliance Matrix: (Units=1/GPa)
#
#
# Indices 1 2 3 4 5 6 
#
# 1 0.017954 -0.009179 -0.003056 0.000000 0.000000 0.000000
# 2 -0.009179 0.030790 -0.002679 0.000000 0.000000 0.000000
# 3 -0.003056 -0.002679 0.007333 0.000000 0.000000 0.000000
# 4 0.000000 0.000000 0.000000 0.073916 0.000000 0.000000
# 5 0.000000 0.000000 0.000000 0.000000 1.519580 0.000000
# 6 0.000000 0.000000 0.000000 0.000000 0.000000 -0.074227
#
#
# Mechanical properties :
#
#
# Convention : Reuss Voigt Hill
#
# Bulk Modulus (GPa) = 38.09595 52.28560 45.19078
# Shear Modulus (GPa) = 3.09804 12.67033 7.88419
#
# Velocity S-wave (km/s) = 1.28502 2.59873 2.04996
# Velocity P-wave (km/s) = 4.74418 6.07234 5.44888
#
# Compressibility (1/GPa) = 0.02624951
#
# Stress axis : x y z
#
# Youngs Moduli (GPa) = 55.69723 32.47859 136.37157
#
# Poissons Ratio (x) = 0.29811 0.41681
# Poissons Ratio (y) = 0.51122 0.36528
# Poissons Ratio (z) = 0.17024 0.08700
#
# Static dielectric constant tensor:
#      x y z
#    x 1.696950 0.000000 0.000000 
#    y 0.000000 1.591150 0.000000 
#    z 0.000000 0.000000 1.688020 
# 
# From -- ./inp_files/30153.got.cif
#   From: 2010.05.17/outbox.cif.g08.bks.cpg/sg69_16_cif.got.tgz:30153.got - 2010.06.03 19:29:58.
