data_PCOD9511678
_publ_section_title
;
Structure prediction by ZEFSAII (Michael W. Deem and Ramdas Pophale) SiO2 
 PCOD9511678
Probable space group: F M M M
;
_chemical_formula_sum "Si O2"
_cell_formula_units_Z 240
_cell_length_a 30.386619
_cell_length_b 14.788013
_cell_length_c 27.147481
_cell_angle_alpha 90.000000
_cell_angle_beta 90.000000
_cell_angle_gamma 90.000000
_cell_volume 12198.930079
_symmetry_space_group_name_H-M "F M M M"
_symmetry_group_IT_number 69
_symmetry_cell_setting 'orthorhombic'
loop_
_space_group_symop_operation_xyz
x,y,z
-x,-y,z
x,-y,-z
-x,y,-z
-x,-y,-z
x,y,-z
-x,y,z
x,-y,z
x,1/2+y,1/2+z
-x,1/2-y,1/2+z
x,1/2-y,1/2-z
-x,1/2+y,1/2-z
-x,1/2-y,1/2-z
x,1/2+y,1/2-z
-x,1/2+y,1/2+z
x,1/2-y,1/2+z
1/2+x,y,1/2+z
1/2-x,-y,1/2+z
1/2+x,-y,1/2-z
1/2-x,y,1/2-z
1/2-x,-y,1/2-z
1/2+x,y,1/2-z
1/2-x,y,1/2+z
1/2+x,-y,1/2+z
1/2+x,1/2+y,z
1/2-x,1/2-y,z
1/2+x,1/2-y,-z
1/2-x,1/2+y,-z
1/2-x,1/2-y,-z
1/2+x,1/2+y,-z
1/2-x,1/2+y,z
1/2+x,1/2-y,z
loop_
_atom_site_type_symbol
_atom_site_label
_atom_site_fract_x
_atom_site_fract_y
_atom_site_fract_z
Si Si1 0.909905 0.219723 0.083760
Si Si2 0.619679 0.603296 0.824379
Si Si3 0.192119 0.393353 0.873528
Si Si4 0.909878 0.895442 0.636641
Si Si5 0.549911 0.142276 0.242087
Si Si6 0.214522 0.892180 0.146966
Si Si7 0.810670 0.732345 0.444433
Si Si8 0.551267 0.100040 0.500000
O O1 0.901384 0.169701 0.135566
O O2 0.924947 0.321027 0.096932
O O3 0.863116 0.225382 0.056953
O O4 0.938121 0.157833 0.048374
O O5 0.618675 0.500000 0.843222
O O6 0.589126 0.606672 0.776572
O O7 0.671691 0.628688 0.819283
O O8 0.193612 0.500000 0.884688
O O9 0.142610 0.375547 0.853994
O O10 0.234566 0.371262 0.839148
O O11 0.198520 0.331053 0.921519
O O12 0.937192 0.881548 0.686385
O O13 0.913230 0.000000 0.620880
O O14 0.500000 0.110250 0.253581
O O15 0.549784 0.250000 0.250000
O O16 0.205834 0.839517 0.095955
O O17 0.213407 0.000000 0.139472
O O18 0.795267 0.718318 0.500000
O O19 0.500000 0.087095 0.500000
O O20 0.573274 0.000000 0.500000
#
# Coordination Sequence:
#
# PCOD9511678 Si02
#       8
#    32  32  32  32  32  32  32  16
#     4  10  20  39  58  82 120 155 195 241 293 351
#     4  10  20  36  60  86 116 155 192 238 300 360
#     4   9  19  35  54  79 114 153 193 237 286 344
#     4  10  21  39  64  88 117 160 199 241 298 354
#     4  11  23  40  62  89 118 147 190 250 307 359
#     4   9  19  34  52  80 116 152 190 235 286 348
#     4  10  19  32  52  78 108 150 195 237 286 337
#     4  11  24  40  61  89 118 153 198 248 303 365
#
# _framework density 19.673856000000001
#
# number of rings (size 3 to 8) (size 9 to 14) (size 15 to 20)
#    0.000    2.067    2.000    1.200    0.000    4.267 
#    0.000    2.333    0.000    4.400    0.000    0.000 
#    0.000    0.000    0.000    0.000    0.000    0.000 
#
# Total GULP energy -334262.896671 kJ/mol
# GULP energy per Si atom -5571.048278 kJ/mol
# Density = 1.962908 g / cm^3
# Si number density = 19.673856 Si / 1000 Ang^3
#
#
#
# Elastic Constant Matrix: (Units=GPa)
#
#
# Indices 1 2 3 4 5 6 
#
# 1 99.4433 27.3241 31.1819 0.0000 0.0000 0.0000
# 2 27.3241 92.6952 14.9974 0.0000 0.0000 0.0000
# 3 31.1819 14.9974 43.2647 0.0000 0.0000 0.0000
# 4 0.0000 0.0000 0.0000 70.1565 0.0000 0.0000
# 5 0.0000 0.0000 0.0000 0.0000 33.5200 0.0000
# 6 0.0000 0.0000 0.0000 0.0000 0.0000 16.5747
#
#
#
# Elastic Compliance Matrix: (Units=1/GPa)
#
#
# Indices 1 2 3 4 5 6 
#
# 1 0.013541 -0.002556 -0.008873 0.000000 0.000000 0.000000
# 2 -0.002556 0.011911 -0.002287 0.000000 0.000000 0.000000
# 3 -0.008873 -0.002287 0.030301 0.000000 0.000000 0.000000
# 4 0.000000 0.000000 0.000000 0.014254 0.000000 0.000000
# 5 0.000000 0.000000 0.000000 0.000000 0.029833 0.000000
# 6 0.000000 0.000000 0.000000 0.000000 0.000000 0.060333
#
#
# Mechanical properties :
#
#
# Convention : Reuss Voigt Hill
#
# Bulk Modulus (GPa) = 35.30872 42.49001 38.89937
# Shear Modulus (GPa) = 25.37491 34.84355 30.10923
#
# Velocity S-wave (km/s) = 3.59524 4.21296 3.91630
# Velocity P-wave (km/s) = 5.93467 6.73123 6.34546
#
# Compressibility (1/GPa) = 0.02832162
#
# Stress axis : x y z
#
# Youngs Moduli (GPa) = 73.85248 83.95282 33.00190
#
# Poissons Ratio (x) = 0.21457 0.29283
# Poissons Ratio (y) = 0.18875 0.07548
# Poissons Ratio (z) = 0.65529 0.19200
#
# Static dielectric constant tensor:
#      x y z
#    x 1.747340 0.000000 0.000000 
#    y 0.000000 1.731840 0.000000 
#    z 0.000000 0.000000 1.646960 
# 
# From -- ./inp_files/47586.got.cif
#   From: 2010.05.17/outbox.cif.g08.bks.cpg/sg69_24_cif.got.tgz:47586.got - 2010.06.03 19:29:58.
