data_PCOD9511958
_publ_section_title
;
Structure prediction by ZEFSAII (Michael W. Deem and Ramdas Pophale) SiO2 
 PCOD9511958
Probable space group: F M M M
;
_chemical_formula_sum "Si O2"
_cell_formula_units_Z 160
_cell_length_a 17.700004
_cell_length_b 21.259437
_cell_length_c 21.413339
_cell_angle_alpha 90.000000
_cell_angle_beta 90.000000
_cell_angle_gamma 90.000000
_cell_volume 8057.670727
_symmetry_space_group_name_H-M "F M M M"
_symmetry_group_IT_number 69
_symmetry_cell_setting 'orthorhombic'
loop_
_space_group_symop_operation_xyz
x,y,z
-x,-y,z
x,-y,-z
-x,y,-z
-x,-y,-z
x,y,-z
-x,y,z
x,-y,z
x,1/2+y,1/2+z
-x,1/2-y,1/2+z
x,1/2-y,1/2-z
-x,1/2+y,1/2-z
-x,1/2-y,1/2-z
x,1/2+y,1/2-z
-x,1/2+y,1/2+z
x,1/2-y,1/2+z
1/2+x,y,1/2+z
1/2-x,-y,1/2+z
1/2+x,-y,1/2-z
1/2-x,y,1/2-z
1/2-x,-y,1/2-z
1/2+x,y,1/2-z
1/2-x,y,1/2+z
1/2+x,-y,1/2+z
1/2+x,1/2+y,z
1/2-x,1/2-y,z
1/2+x,1/2-y,-z
1/2-x,1/2+y,-z
1/2-x,1/2-y,-z
1/2+x,1/2+y,-z
1/2-x,1/2+y,z
1/2+x,1/2-y,z
loop_
_atom_site_type_symbol
_atom_site_label
_atom_site_fract_x
_atom_site_fract_y
_atom_site_fract_z
Si Si1 0.250000 0.250000 0.834341
Si Si2 0.127454 0.150387 0.317569
Si Si3 0.337797 0.339807 0.069130
Si Si4 0.500000 0.124839 0.613124
Si Si5 0.805926 0.074646 0.431141
Si Si6 0.500000 0.573036 0.243854
Si Si7 0.000000 0.741438 0.175486
O O1 0.197969 0.303522 0.799925
O O2 0.306759 0.290979 0.878740
O O3 0.152084 0.103924 0.372165
O O4 0.075367 0.110950 0.268302
O O5 0.070338 0.201074 0.345067
O O6 0.420484 0.370318 0.077769
O O7 0.277454 0.396148 0.070818
O O8 0.334679 0.309704 0.000000
O O9 0.500000 0.074595 0.668806
O O10 0.500000 0.190612 0.649033
O O11 0.838143 0.091556 0.500000
O O12 0.804513 0.000000 0.426356
O O13 0.500000 0.500000 0.265492
O O14 0.000000 0.750000 0.250000
#
# Coordination Sequence:
#
# PCOD9511958 Si02
#       7
#    16  32  32  16  32  16  16
#     4  10  19  34  61  90 124 154 188 242 302 358
#     4  10  20  37  63  88 117 157 196 240 297 351
#     4  10  21  36  58  87 119 154 195 243 294 353
#     4  12  22  39  57  83 116 157 198 244 294 340
#     4   9  19  38  61  87 121 157 194 238 291 351
#     4  11  25  43  62  84 119 161 204 249 292 353
#     4  11  20  39  56  80 118 157 195 238 292 349
#
# _framework density 19.856853999999998
#
# number of rings (size 3 to 8) (size 9 to 14) (size 15 to 20)
#    0.000    1.800    4.000    1.200    0.000    1.600 
#    0.000   11.500    0.000   14.400    0.000    0.000 
#    0.000    0.000    0.000    0.000    0.000    0.000 
#
# Total GULP energy -222709.449472 kJ/mol
# GULP energy per Si atom -5567.736237 kJ/mol
# Density = 1.981166 g / cm^3
# Si number density = 19.856854 Si / 1000 Ang^3
#
#
#
# Elastic Constant Matrix: (Units=GPa)
#
#
# Indices 1 2 3 4 5 6 
#
# 1 117.6513 28.8362 41.9212 0.0000 0.0000 0.0000
# 2 28.8362 104.1258 26.8134 0.0000 0.0000 0.0000
# 3 41.9212 26.8134 55.7684 0.0000 0.0000 0.0000
# 4 0.0000 0.0000 0.0000 25.2397 0.0000 0.0000
# 5 0.0000 0.0000 0.0000 0.0000 27.1054 0.0000
# 6 0.0000 0.0000 0.0000 0.0000 0.0000 17.1514
#
#
#
# Elastic Compliance Matrix: (Units=1/GPa)
#
#
# Indices 1 2 3 4 5 6 
#
# 1 0.011722 -0.001115 -0.008275 0.000000 0.000000 0.000000
# 2 -0.001115 0.011067 -0.004483 0.000000 0.000000 0.000000
# 3 -0.008275 -0.004483 0.026307 0.000000 0.000000 0.000000
# 4 0.000000 0.000000 0.000000 0.039620 0.000000 0.000000
# 5 0.000000 0.000000 0.000000 0.000000 0.036893 0.000000
# 6 0.000000 0.000000 0.000000 0.000000 0.000000 0.058304
#
#
# Mechanical properties :
#
#
# Convention : Reuss Voigt Hill
#
# Bulk Modulus (GPa) = 46.83904 52.52082 49.67993
# Shear Modulus (GPa) = 22.85454 25.89761 24.37608
#
# Velocity S-wave (km/s) = 3.39627 3.61531 3.50750
# Velocity P-wave (km/s) = 6.24652 6.62830 6.44024
#
# Compressibility (1/GPa) = 0.02134971
#
# Stress axis : x y z
#
# Youngs Moduli (GPa) = 85.31313 90.35913 38.01294
#
# Poissons Ratio (x) = 0.10077 0.31455
# Poissons Ratio (y) = 0.09515 0.17040
# Poissons Ratio (z) = 0.70596 0.40505
#
# Static dielectric constant tensor:
#      x y z
#    x 1.733930 0.000000 0.000000 
#    y 0.000000 1.644090 0.000000 
#    z 0.000000 0.000000 1.798020 
# 
# From -- ./inp_files/30884.got.cif
#   From: 2010.05.17/outbox.cif.g08.bks.cpg/sg69_16_cif.got.tgz:30884.got - 2010.06.03 19:29:58.
