data_PCOD9511640
_publ_section_title
;
Structure prediction by ZEFSAII (Michael W. Deem and Ramdas Pophale) SiO2 
 PCOD9511640
Probable space group: F M M M
;
_chemical_formula_sum "Si O2"
_cell_formula_units_Z 144
_cell_length_a 33.888520
_cell_length_b 10.082747
_cell_length_c 27.532241
_cell_angle_alpha 90.000000
_cell_angle_beta 90.000000
_cell_angle_gamma 90.000000
_cell_volume 9407.474175
_symmetry_space_group_name_H-M "F M M M"
_symmetry_group_IT_number 69
_symmetry_cell_setting 'orthorhombic'
loop_
_space_group_symop_operation_xyz
x,y,z
-x,-y,z
x,-y,-z
-x,y,-z
-x,-y,-z
x,y,-z
-x,y,z
x,-y,z
x,1/2+y,1/2+z
-x,1/2-y,1/2+z
x,1/2-y,1/2-z
-x,1/2+y,1/2-z
-x,1/2-y,1/2-z
x,1/2+y,1/2-z
-x,1/2+y,1/2+z
x,1/2-y,1/2+z
1/2+x,y,1/2+z
1/2-x,-y,1/2+z
1/2+x,-y,1/2-z
1/2-x,y,1/2-z
1/2-x,-y,1/2-z
1/2+x,y,1/2-z
1/2-x,y,1/2+z
1/2+x,-y,1/2+z
1/2+x,1/2+y,z
1/2-x,1/2-y,z
1/2+x,1/2-y,-z
1/2-x,1/2+y,-z
1/2-x,1/2-y,-z
1/2+x,1/2+y,-z
1/2-x,1/2+y,z
1/2+x,1/2-y,z
loop_
_atom_site_type_symbol
_atom_site_label
_atom_site_fract_x
_atom_site_fract_y
_atom_site_fract_z
Si Si1 0.336184 0.265107 0.644347
Si Si2 0.500000 0.652704 0.295264
Si Si3 0.587718 0.341519 0.701166
Si Si4 0.787430 0.843095 0.442195
Si Si5 0.198394 0.500000 0.689116
Si Si6 0.792536 0.500000 0.197649
O O1 0.380452 0.293516 0.661931
O O2 0.324786 0.292315 0.588596
O O3 0.309883 0.371156 0.672962
O O4 0.320841 0.125054 0.663085
O O5 0.500000 0.500000 0.278298
O O6 0.500000 0.750000 0.250000
O O7 0.542870 0.673116 0.318901
O O8 0.593800 0.500000 0.711697
O O9 0.591724 0.250000 0.750000
O O10 0.793349 0.830426 0.500000
O O11 0.750000 0.750000 0.428782
O O12 0.780156 0.000000 0.431898
O O13 0.192349 0.500000 0.747043
O O14 0.245878 0.500000 0.688569
#
# Coordination Sequence:
#
# PCOD9511640 Si02
#       6
#    32  16  32  32  16  16
#     4  12  22  33  50  72  97 130 170 207 246 290
#     4   8  16  30  48  70  95 129 162 198 241 290
#     4  10  19  32  50  72 101 131 165 201 244 295
#     4  10  21  37  55  73  94 126 168 214 258 294
#     4  11  24  32  47  68 100 136 166 200 237 291
#     4  11  20  36  47  66  98 134 168 198 239 285
#
# _framework density 15.306978000000001
#
# number of rings (size 3 to 8) (size 9 to 14) (size 15 to 20)
#    0.000    1.556    2.222    4.000    3.111    1.778 
#    0.000    0.000    0.000    0.000    0.000    0.778 
#    0.000    4.444    0.000    2.000    0.000    0.889 
#
# Total GULP energy -200621.648156 kJ/mol
# GULP energy per Si atom -5572.823560 kJ/mol
# Density = 1.527214 g / cm^3
# Si number density = 15.306978 Si / 1000 Ang^3
#
#
#
# Elastic Constant Matrix: (Units=GPa)
#
#
# Indices 1 2 3 4 5 6 
#
# 1 108.8952 41.9735 45.0416 0.0000 0.0000 0.0001
# 2 41.9735 117.8262 32.2418 0.0000 0.0000 0.0002
# 3 45.0416 32.2418 63.4438 0.0000 0.0000 0.0000
# 4 0.0000 0.0000 0.0000 25.8961 0.0000 0.0001
# 5 0.0000 0.0000 0.0000 0.0000 14.5715 0.0000
# 6 0.0001 0.0002 0.0000 0.0001 0.0000-1945.0022
#
#
#
# Elastic Compliance Matrix: (Units=1/GPa)
#
#
# Indices 1 2 3 4 5 6 
#
# 1 0.013637 -0.002566 -0.008378 0.000000 0.000000 0.000000
# 2 -0.002566 0.010341 -0.003434 0.000000 0.000000 0.000000
# 3 -0.008378 -0.003434 0.023455 0.000000 0.000000 0.000000
# 4 0.000000 0.000000 0.000000 0.038616 0.000000 0.000000
# 5 0.000000 0.000000 0.000000 0.000000 0.068627 0.000000
# 6 0.000000 0.000000 0.000000 0.000000 0.000000 -0.000514
#
#
# Mechanical properties :
#
#
# Convention : Reuss Voigt Hill
#
# Bulk Modulus (GPa) = 53.53759 58.74211 56.13985
# Shear Modulus (GPa) = 26.43519 -369.51302 -171.53891
#
# Velocity S-wave (km/s) = 4.16023 -15.55396 -10.59760
# Velocity P-wave (km/s) = 7.62421 16.85551 10.62967
#
# Compressibility (1/GPa) = 0.01867847
#
# Stress axis : x y z
#
# Youngs Moduli (GPa) = 73.32805 96.70636 42.63518
#
# Poissons Ratio (x) = 0.24810 0.35720
# Poissons Ratio (y) = 0.18813 0.14639
# Poissons Ratio (z) = 0.61434 0.33205
#
# Static dielectric constant tensor:
#      x y z
#    x 1.539360 0.000000 0.000000 
#    y 0.000000 1.507010 0.000000 
#    z 0.000000 0.000000 1.511750 
# 
# From -- ./inp_files/5671.got.cif
#   From: 2010.05.17/outbox.cif.g08.bks.cpg/sg69_3_cif.got.tgz:5671.got - 2010.06.03 19:29:58.
