data_PCOD9511444
_publ_section_title
;
Structure prediction by ZEFSAII (Michael W. Deem and Ramdas Pophale) SiO2 
 PCOD9511444
Probable space group: F M M M
;
_chemical_formula_sum "Si O2"
_cell_formula_units_Z 176
_cell_length_a 24.305435
_cell_length_b 15.373569
_cell_length_c 28.107801
_cell_angle_alpha 90.000000
_cell_angle_beta 90.000000
_cell_angle_gamma 90.000000
_cell_volume 10502.796957
_symmetry_space_group_name_H-M "F M M M"
_symmetry_group_IT_number 69
_symmetry_cell_setting 'orthorhombic'
loop_
_space_group_symop_operation_xyz
x,y,z
-x,-y,z
x,-y,-z
-x,y,-z
-x,-y,-z
x,y,-z
-x,y,z
x,-y,z
x,1/2+y,1/2+z
-x,1/2-y,1/2+z
x,1/2-y,1/2-z
-x,1/2+y,1/2-z
-x,1/2-y,1/2-z
x,1/2+y,1/2-z
-x,1/2+y,1/2+z
x,1/2-y,1/2+z
1/2+x,y,1/2+z
1/2-x,-y,1/2+z
1/2+x,-y,1/2-z
1/2-x,y,1/2-z
1/2-x,-y,1/2-z
1/2+x,y,1/2-z
1/2-x,y,1/2+z
1/2+x,-y,1/2+z
1/2+x,1/2+y,z
1/2-x,1/2-y,z
1/2+x,1/2-y,-z
1/2-x,1/2+y,-z
1/2-x,1/2-y,-z
1/2+x,1/2+y,-z
1/2-x,1/2+y,z
1/2+x,1/2-y,z
loop_
_atom_site_type_symbol
_atom_site_label
_atom_site_fract_x
_atom_site_fract_y
_atom_site_fract_z
Si Si1 0.000000 0.302097 0.053229
Si Si2 0.307143 0.398711 0.778548
Si Si3 0.379242 0.397823 0.687188
Si Si4 0.000000 0.603913 0.153476
Si Si5 0.390674 0.184152 0.444993
Si Si6 0.685971 0.756484 0.638697
Si Si7 0.937617 0.000000 0.057719
O O1 0.000000 0.363591 0.099030
O O2 0.946140 0.241535 0.056225
O O3 0.000000 0.343085 0.000000
O O4 0.302351 0.500000 0.794259
O O5 0.250000 0.378187 0.750000
O O6 0.357074 0.392504 0.741004
O O7 0.317625 0.331025 0.820666
O O8 0.373801 0.500000 0.672933
O O9 0.442619 0.369761 0.678727
O O10 0.339833 0.333209 0.658208
O O11 0.000000 0.500000 0.153910
O O12 0.372015 0.182085 0.500000
O O13 0.346859 0.220087 0.408552
O O14 0.406874 0.087392 0.428933
O O15 0.750000 0.750000 0.627996
O O16 0.000000 0.000000 0.075830
O O17 0.940745 0.000000 0.000000
#
# Coordination Sequence:
#
# PCOD9511444 Si02
#       7
#    16  32  32  16  32  32  16
#     4  10  18  34  57  83 109 141 193 240 277 330
#     4  10  21  38  59  84 113 145 188 236 277 331
#     4  10  21  38  58  82 116 149 187 233 281 337
#     4  10  20  37  59  81 111 153 186 226 296 337
#     4  10  21  36  56  82 116 150 185 231 284 339
#     4  12  23  35  59  85 112 150 196 234 275 333
#     4   9  16  32  58  82 107 144 182 223 280 343
#
# _framework density 16.757439999999999
#
# number of rings (size 3 to 8) (size 9 to 14) (size 15 to 20)
#    0.000    1.727    4.545    0.545    1.273    0.545 
#    0.000    2.727    0.000    0.545    0.000    0.000 
#    0.000    0.000    0.000    0.000    0.000    0.000 
#
# Total GULP energy -245363.714767 kJ/mol
# GULP energy per Si atom -5576.448063 kJ/mol
# Density = 1.671930 g / cm^3
# Si number density = 16.757440 Si / 1000 Ang^3
#
#
#
# Elastic Constant Matrix: (Units=GPa)
#
#
# Indices 1 2 3 4 5 6 
#
# 1 136.2256 48.6621 65.6521 0.0000 0.0000 0.0000
# 2 48.6621 55.7011 38.3322 0.0000 0.0000 0.0000
# 3 65.6521 38.3322 89.4674 0.0000 0.0000 0.0000
# 4 0.0000 0.0000 0.0000 26.0178 0.0000 0.0000
# 5 0.0000 0.0000 0.0000 0.0000 -48.5102 0.0000
# 6 0.0000 0.0000 0.0000 0.0000 0.0000 20.2891
#
#
#
# Elastic Compliance Matrix: (Units=1/GPa)
#
#
# Indices 1 2 3 4 5 6 
#
# 1 0.012934 -0.006762 -0.006594 0.000000 0.000000 0.000000
# 2 -0.006762 0.028995 -0.007461 0.000000 0.000000 0.000000
# 3 -0.006594 -0.007461 0.019213 0.000000 0.000000 0.000000
# 4 0.000000 0.000000 0.000000 0.038435 0.000000 0.000000
# 5 0.000000 0.000000 0.000000 0.000000 -0.020614 0.000000
# 6 0.000000 0.000000 0.000000 0.000000 0.000000 0.049288
#
#
# Mechanical properties :
#
#
# Convention : Reuss Voigt Hill
#
# Bulk Modulus (GPa) = 51.26113 65.18745 58.22429
# Shear Modulus (GPa) = 28.34691 8.14251 18.24471
#
# Velocity S-wave (km/s) = 4.11737 2.20672 3.30321
# Velocity P-wave (km/s) = 7.29795 6.74373 7.02631
#
# Compressibility (1/GPa) = 0.01950796
#
# Stress axis : x y z
#
# Youngs Moduli (GPa) = 77.31489 34.48921 52.04887
#
# Poissons Ratio (x) = 0.23321 0.34322
# Poissons Ratio (y) = 0.52278 0.38833
# Poissons Ratio (z) = 0.50983 0.25732
#
# Static dielectric constant tensor:
#      x y z
#    x 1.527390 0.000000 0.000000 
#    y 0.000000 1.583730 0.000000 
#    z 0.000000 0.000000 1.544380 
# 
# From -- ./inp_files/43181.got.cif
#   From: 2010.05.17/outbox.cif.g08.bks.cpg/sg69_22_cif.got.tgz:43181.got - 2010.06.03 19:29:58.
