data_PCOD9511033
_publ_section_title
;
Structure prediction by ZEFSAII (Michael W. Deem and Ramdas Pophale) SiO2 
 PCOD9511033
Probable space group: F M M M
;
_chemical_formula_sum "Si O2"
_cell_formula_units_Z 160
_cell_length_a 19.541369
_cell_length_b 21.708284
_cell_length_c 14.397094
_cell_angle_alpha 90.000000
_cell_angle_beta 90.000000
_cell_angle_gamma 90.000000
_cell_volume 6107.385314
_symmetry_space_group_name_H-M "F M M M"
_symmetry_group_IT_number 69
_symmetry_cell_setting 'orthorhombic'
loop_
_space_group_symop_operation_xyz
x,y,z
-x,-y,z
x,-y,-z
-x,y,-z
-x,-y,-z
x,y,-z
-x,y,z
x,-y,z
x,1/2+y,1/2+z
-x,1/2-y,1/2+z
x,1/2-y,1/2-z
-x,1/2+y,1/2-z
-x,1/2-y,1/2-z
x,1/2+y,1/2-z
-x,1/2+y,1/2+z
x,1/2-y,1/2+z
1/2+x,y,1/2+z
1/2-x,-y,1/2+z
1/2+x,-y,1/2-z
1/2-x,y,1/2-z
1/2-x,-y,1/2-z
1/2+x,y,1/2-z
1/2-x,y,1/2+z
1/2+x,-y,1/2+z
1/2+x,1/2+y,z
1/2-x,1/2-y,z
1/2+x,1/2-y,-z
1/2-x,1/2+y,-z
1/2-x,1/2-y,-z
1/2+x,1/2+y,-z
1/2-x,1/2+y,z
1/2+x,1/2-y,z
loop_
_atom_site_type_symbol
_atom_site_label
_atom_site_fract_x
_atom_site_fract_y
_atom_site_fract_z
Si Si1 0.000000 0.204296 0.165074
Si Si2 0.857208 0.756209 0.895288
Si Si3 0.895090 0.500000 0.109139
Si Si4 0.233240 0.000000 0.889515
Si Si5 0.079081 0.365473 0.108038
Si Si6 0.151842 0.113819 0.889979
Si Si7 0.500000 0.571675 0.165521
O O1 0.000000 0.250000 0.250000
O O2 0.934178 0.215696 0.103340
O O3 0.000000 0.138256 0.216001
O O4 0.872626 0.688826 0.852487
O O5 0.825307 0.818053 0.851894
O O6 0.831641 0.746331 0.000000
O O7 0.814052 0.500000 0.114942
O O8 0.918078 0.565746 0.150150
O O9 0.918183 0.500000 0.000000
O O10 0.200138 0.061268 0.848999
O O11 0.215718 0.000000 0.000000
O O12 0.000000 0.345986 0.100306
O O13 0.102478 0.372935 0.000000
O O14 0.074542 0.084656 0.882880
O O15 0.164333 0.121108 0.000000
O O16 0.500000 0.500000 0.192901
#
# Coordination Sequence:
#
# PCOD9511033 Si02
#       7
#    16  32  16  16  32  32  16
#     4  10  19  29  44  66 101 130 144 180 244 292
#     4   9  16  28  46  68  91 122 159 189 221 278
#     4   9  17  26  38  58  87 126 160 192 243 281
#     4   9  16  26  36  56  96 128 148 186 236 283
#     4   9  15  25  42  62  85 116 156 198 230 272
#     4   9  16  24  39  65  94 122 152 185 225 276
#     4  10  17  26  43  65  88 119 157 187 218 275
#
# _framework density 26.197790000000001
#
# number of rings (size 3 to 8) (size 9 to 14) (size 15 to 20)
#    0.000    2.800    2.000    0.900    0.000    4.000 
#    0.000    1.000    2.200    6.000    0.000    0.000 
#    0.000   19.200    0.000    0.000    0.000    0.000 
#
# Total GULP energy -222693.209049 kJ/mol
# GULP energy per Si atom -5567.330226 kJ/mol
# Density = 2.613816 g / cm^3
# Si number density = 26.197790 Si / 1000 Ang^3
#
#
#
# Elastic Constant Matrix: (Units=GPa)
#
#
# Indices 1 2 3 4 5 6 
#
# 1 53.4558 33.3235 -4.4694 0.0000 0.0000 0.0000
# 2 33.3235 330.3237 20.7268 0.0000 0.0000 0.0000
# 3 -4.4694 20.7268 79.3400 0.0000 0.0000 0.0000
# 4 0.0000 0.0000 0.0000 19.5896 0.0000 0.0000
# 5 0.0000 0.0000 0.0000 0.0000 1.5142 0.0000
# 6 0.0000 0.0000 0.0000 0.0000 0.0000 -34.5598
#
#
#
# Elastic Compliance Matrix: (Units=1/GPa)
#
#
# Indices 1 2 3 4 5 6 
#
# 1 0.020185 -0.002143 0.001697 0.000000 0.000000 0.000000
# 2 -0.002143 0.003305 -0.000984 0.000000 0.000000 0.000000
# 3 0.001697 -0.000984 0.012957 0.000000 0.000000 0.000000
# 4 0.000000 0.000000 0.000000 0.051047 0.000000 0.000000
# 5 0.000000 0.000000 0.000000 0.000000 0.660427 0.000000
# 6 0.000000 0.000000 0.000000 0.000000 0.000000 -0.028935
#
#
# Mechanical properties :
#
#
# Convention : Reuss Voigt Hill
#
# Bulk Modulus (GPa) = 29.77393 62.47570 46.12482
# Shear Modulus (GPa) = 6.82090 24.87803 15.84946
#
# Velocity S-wave (km/s) = 1.61532 3.08494 2.46233
# Velocity P-wave (km/s) = 3.85600 6.04885 5.07234
#
# Compressibility (1/GPa) = 0.03358642
#
# Stress axis : x y z
#
# Youngs Moduli (GPa) = 49.54256 302.54914 77.18028
#
# Poissons Ratio (x) = 0.64828 -0.13096
# Poissons Ratio (y) = 0.10616 0.07596
# Poissons Ratio (z) = -0.08406 0.29776
#
# Static dielectric constant tensor:
#      x y z
#    x 2.053770 0.000000 0.000000 
#    y 0.000000 2.190880 0.000000 
#    z 0.000000 0.000000 2.078490 
# 
# From -- ./inp_files/24692.got.cif
#   From: 2010.05.17/outbox.cif.g08.bks.cpg/sg69_13_cif.got.tgz:24692.got - 2010.06.03 19:29:58.
