data_PCOD9511989
_publ_section_title
;
Structure prediction by ZEFSAII (Michael W. Deem and Ramdas Pophale) SiO2 
 PCOD9511989
Probable space group: F M M M
;
_chemical_formula_sum "Si O2"
_cell_formula_units_Z 160
_cell_length_a 15.902001
_cell_length_b 25.322125
_cell_length_c 16.721325
_cell_angle_alpha 90.000000
_cell_angle_beta 90.000000
_cell_angle_gamma 90.000000
_cell_volume 6733.217023
_symmetry_space_group_name_H-M "F M M M"
_symmetry_group_IT_number 69
_symmetry_cell_setting 'orthorhombic'
loop_
_space_group_symop_operation_xyz
x,y,z
-x,-y,z
x,-y,-z
-x,y,-z
-x,-y,-z
x,y,-z
-x,y,z
x,-y,z
x,1/2+y,1/2+z
-x,1/2-y,1/2+z
x,1/2-y,1/2-z
-x,1/2+y,1/2-z
-x,1/2-y,1/2-z
x,1/2+y,1/2-z
-x,1/2+y,1/2+z
x,1/2-y,1/2+z
1/2+x,y,1/2+z
1/2-x,-y,1/2+z
1/2+x,-y,1/2-z
1/2-x,y,1/2-z
1/2-x,-y,1/2-z
1/2+x,y,1/2-z
1/2-x,y,1/2+z
1/2+x,-y,1/2+z
1/2+x,1/2+y,z
1/2-x,1/2-y,z
1/2+x,1/2-y,-z
1/2-x,1/2+y,-z
1/2-x,1/2-y,-z
1/2+x,1/2+y,-z
1/2-x,1/2+y,z
1/2+x,1/2-y,z
loop_
_atom_site_type_symbol
_atom_site_label
_atom_site_fract_x
_atom_site_fract_y
_atom_site_fract_z
Si Si1 0.161118 0.277688 0.593585
Si Si2 0.845480 0.500000 0.854261
Si Si3 0.137933 0.108606 0.909469
Si Si4 0.906418 0.201600 0.305107
Si Si5 0.141115 0.500000 0.669269
Si Si6 0.840353 0.112362 0.589071
O O1 0.172602 0.288798 0.500000
O O2 0.250000 0.250000 0.618850
O O3 0.128156 0.333342 0.629648
O O4 0.093610 0.233392 0.611105
O O5 0.874197 0.500000 0.763062
O O6 0.742498 0.500000 0.848308
O O7 0.873398 0.446555 0.896913
O O8 0.108960 0.055339 0.866623
O O9 0.239533 0.107333 0.913226
O O10 0.104332 0.108031 0.000000
O O11 0.870638 0.250000 0.250000
O O12 0.860875 0.148476 0.333627
O O13 0.000000 0.189885 0.277020
O O14 0.865870 0.131660 0.500000
#
# Coordination Sequence:
#
# PCOD9511989 Si02
#       6
#    32  16  32  32  16  32
#     4  10  19  35  57  85 113 142 188 237 283 343
#     4   9  19  31  50  84 115 144 189 235 279 340
#     4   9  17  30  52  82 116 149 184 228 279 341
#     4  11  25  40  55  80 115 152 191 236 292 352
#     4   9  17  29  47  79 121 149 179 224 289 339
#     4  10  19  36  58  80 112 151 189 232 283 341
#
# _framework density 23.762785999999998
#
# number of rings (size 3 to 8) (size 9 to 14) (size 15 to 20)
#    0.000    2.200    2.000    1.200    2.800    4.400 
#    0.000    0.500    0.000    1.200    0.000    0.700 
#    0.000    3.200    0.000    0.000    0.000    0.000 
#
# Total GULP energy -222789.552490 kJ/mol
# GULP energy per Si atom -5569.738812 kJ/mol
# Density = 2.370870 g / cm^3
# Si number density = 23.762786 Si / 1000 Ang^3
#
#
#
# Elastic Constant Matrix: (Units=GPa)
#
#
# Indices 1 2 3 4 5 6 
#
# 1 52.2537 2.1505 18.5217 0.0000 0.0000 0.0000
# 2 2.1505 139.8103 24.1617 0.0000 0.0000 0.0000
# 3 18.5217 24.1617 65.2124 0.0000 0.0000 0.0000
# 4 0.0000 0.0000 0.0000 40.6361 0.0000 0.0000
# 5 0.0000 0.0000 0.0000 0.0000 4.8590 0.0000
# 6 0.0000 0.0000 0.0000 0.0000 0.0000 -2.5425
#
#
#
# Elastic Compliance Matrix: (Units=1/GPa)
#
#
# Indices 1 2 3 4 5 6 
#
# 1 0.021357 0.000769 -0.006351 0.000000 0.000000 0.000000
# 2 0.000769 0.007670 -0.003060 0.000000 0.000000 0.000000
# 3 -0.006351 -0.003060 0.018272 0.000000 0.000000 0.000000
# 4 0.000000 0.000000 0.000000 0.024609 0.000000 0.000000
# 5 0.000000 0.000000 0.000000 0.000000 0.205802 0.000000
# 6 0.000000 0.000000 0.000000 0.000000 0.000000 -0.393307
#
#
# Mechanical properties :
#
#
# Convention : Reuss Voigt Hill
#
# Bulk Modulus (GPa) = 33.31681 38.54937 35.93309
# Shear Modulus (GPa) = -56.61924 22.75335 -16.93294
#
# Velocity S-wave (km/s) = -4.88657 3.09774 -2.67232
# Velocity P-wave (km/s) = 4.21747 5.39003 2.37333
#
# Compressibility (1/GPa) = 0.03001488
#
# Stress axis : x y z
#
# Youngs Moduli (GPa) = 46.82343 130.38568 54.72851
#
# Poissons Ratio (x) = -0.10027 0.34757
# Poissons Ratio (y) = -0.03601 0.16747
# Poissons Ratio (z) = 0.29736 0.39899
#
# Static dielectric constant tensor:
#      x y z
#    x 1.954920 0.000000 0.000000 
#    y 0.000000 1.934330 0.000000 
#    z 0.000000 0.000000 2.008810 
# 
# From -- ./inp_files/24876.got.cif
#   From: 2010.05.17/outbox.cif.g08.bks.cpg/sg69_13_cif.got.tgz:24876.got - 2010.06.03 19:29:58.
