data_PCOD9511884
_publ_section_title
;
Structure prediction by ZEFSAII (Michael W. Deem and Ramdas Pophale) SiO2 
 PCOD9511884
Probable space group: F M M M
;
_chemical_formula_sum "Si O2"
_cell_formula_units_Z 128
_cell_length_a 28.743947
_cell_length_b 7.769690
_cell_length_c 30.540017
_cell_angle_alpha 90.000000
_cell_angle_beta 90.000000
_cell_angle_gamma 90.000000
_cell_volume 6820.549565
_symmetry_space_group_name_H-M "F M M M"
_symmetry_group_IT_number 69
_symmetry_cell_setting 'orthorhombic'
loop_
_space_group_symop_operation_xyz
x,y,z
-x,-y,z
x,-y,-z
-x,y,-z
-x,-y,-z
x,y,-z
-x,y,z
x,-y,z
x,1/2+y,1/2+z
-x,1/2-y,1/2+z
x,1/2-y,1/2-z
-x,1/2+y,1/2-z
-x,1/2-y,1/2-z
x,1/2+y,1/2-z
-x,1/2+y,1/2+z
x,1/2-y,1/2+z
1/2+x,y,1/2+z
1/2-x,-y,1/2+z
1/2+x,-y,1/2-z
1/2-x,y,1/2-z
1/2-x,-y,1/2-z
1/2+x,y,1/2-z
1/2-x,y,1/2+z
1/2+x,-y,1/2+z
1/2+x,1/2+y,z
1/2-x,1/2-y,z
1/2+x,1/2-y,-z
1/2-x,1/2+y,-z
1/2-x,1/2-y,-z
1/2+x,1/2+y,-z
1/2-x,1/2+y,z
1/2+x,1/2-y,z
loop_
_atom_site_type_symbol
_atom_site_label
_atom_site_fract_x
_atom_site_fract_y
_atom_site_fract_z
Si Si1 0.556636 0.000000 0.552927
Si Si2 0.400965 0.192944 0.887490
Si Si3 0.946474 0.705434 0.702660
Si Si4 0.195944 0.705966 0.595459
Si Si5 0.195701 0.794363 0.000000
O O1 0.579072 0.835611 0.578370
O O2 0.500000 0.000000 0.557929
O O3 0.566777 0.000000 0.500000
O O4 0.425331 0.215139 0.840777
O O5 0.346211 0.222479 0.876725
O O6 0.408475 0.000000 0.904360
O O7 0.945125 0.500000 0.697472
O O8 0.925001 0.750000 0.750000
O O9 0.000000 0.763877 0.704408
O O10 0.193635 0.500000 0.595607
O O11 0.250000 0.750000 0.603898
O O12 0.180633 0.771807 0.546905
O O13 0.250000 0.750000 0.000000
O O14 0.188956 0.000000 0.000000
#
# Coordination Sequence:
#
# PCOD9511884 Si02
#       5
#    16  32  32  32  16
#     4  11  26  46  64  86 126 171 214 264 310 369
#     4  12  24  39  63  92 124 166 211 256 311 375
#     4  10  20  37  62  92 123 154 196 257 320 374
#     4  10  19  34  54  82 119 158 202 255 308 361
#     4   8  16  28  48  72 104 143 188 245 299 343
#
# _framework density 18.766815999999999
#
# number of rings (size 3 to 8) (size 9 to 14) (size 15 to 20)
#    0.000    1.625    2.500    2.250    1.750    4.500 
#    0.000    1.250    0.000    0.750    0.000    5.250 
#    0.000    0.000    0.000    0.000    0.000    0.000 
#
# Total GULP energy -178319.256295 kJ/mol
# GULP energy per Si atom -5572.476759 kJ/mol
# Density = 1.872410 g / cm^3
# Si number density = 18.766816 Si / 1000 Ang^3
#
#
#
# Elastic Constant Matrix: (Units=GPa)
#
#
# Indices 1 2 3 4 5 6 
#
# 1 107.5556 35.9665 50.7544 0.0000 0.0000 -0.0002
# 2 35.9665 118.9408 43.8981 -0.0001 -0.0002 -0.0003
# 3 50.7544 43.8981 96.9322 -0.0001 0.0000 -0.0001
# 4 0.0000 -0.0001 -0.0001 20.7543 0.0001 0.0001
# 5 0.0000 -0.0002 0.0000 0.0001 6.1209 0.0000
# 6 -0.0002 -0.0003 -0.0001 0.0001 0.0000 21.2243
#
#
#
# Elastic Compliance Matrix: (Units=1/GPa)
#
#
# Indices 1 2 3 4 5 6 
#
# 1 0.012614 -0.001653 -0.005856 0.000000 0.000000 0.000000
# 2 -0.001653 0.010311 -0.003804 0.000000 0.000000 0.000000
# 3 -0.005856 -0.003804 0.015106 0.000000 0.000000 0.000000
# 4 0.000000 0.000000 0.000000 0.048183 -0.000001 0.000000
# 5 0.000000 0.000000 0.000000 -0.000001 0.163374 0.000000
# 6 0.000000 0.000000 0.000000 0.000000 0.000000 0.047116
#
#
# Mechanical properties :
#
#
# Convention : Reuss Voigt Hill
#
# Bulk Modulus (GPa) = 64.91739 64.96297 64.94018
# Shear Modulus (GPa) = 15.41002 22.47388 18.94195
#
# Velocity S-wave (km/s) = 2.86865 3.46429 3.18045
# Velocity P-wave (km/s) = 6.75565 7.11989 6.94016
#
# Compressibility (1/GPa) = 0.01540419
#
# Stress axis : x y z
#
# Youngs Moduli (GPa) = 79.27918 96.97962 66.20056
#
# Poissons Ratio (x) = 0.16030 0.38767
# Poissons Ratio (y) = 0.13104 0.25185
# Poissons Ratio (z) = 0.46426 0.36894
#
# Static dielectric constant tensor:
#      x y z
#    x 1.668450 0.000000 0.000000 
#    y 0.000000 1.668150 0.000000 
#    z 0.000000 0.000000 1.695370 
# 
# From -- ./inp_files/47350.got.cif
#   From: 2010.05.17/outbox.cif.g08.bks.cpg/sg69_24_cif.got.tgz:47350.got - 2010.06.03 19:29:58.
