data_PCOD9511063
_publ_section_title
;
Structure prediction by ZEFSAII (Michael W. Deem and Ramdas Pophale) SiO2 
 PCOD9511063
Probable space group: F M M M
;
_chemical_formula_sum "Si O2"
_cell_formula_units_Z 144
_cell_length_a 22.704792
_cell_length_b 20.571781
_cell_length_c 14.651943
_cell_angle_alpha 90.000000
_cell_angle_beta 90.000000
_cell_angle_gamma 90.000000
_cell_volume 6843.600360
_symmetry_space_group_name_H-M "F M M M"
_symmetry_group_IT_number 69
_symmetry_cell_setting 'orthorhombic'
loop_
_space_group_symop_operation_xyz
x,y,z
-x,-y,z
x,-y,-z
-x,y,-z
-x,-y,-z
x,y,-z
-x,y,z
x,-y,z
x,1/2+y,1/2+z
-x,1/2-y,1/2+z
x,1/2-y,1/2-z
-x,1/2+y,1/2-z
-x,1/2-y,1/2-z
x,1/2+y,1/2-z
-x,1/2+y,1/2+z
x,1/2-y,1/2+z
1/2+x,y,1/2+z
1/2-x,-y,1/2+z
1/2+x,-y,1/2-z
1/2-x,y,1/2-z
1/2-x,-y,1/2-z
1/2+x,y,1/2-z
1/2-x,y,1/2+z
1/2+x,-y,1/2+z
1/2+x,1/2+y,z
1/2-x,1/2-y,z
1/2+x,1/2-y,-z
1/2-x,1/2+y,-z
1/2-x,1/2-y,-z
1/2+x,1/2+y,-z
1/2-x,1/2+y,z
1/2+x,1/2-y,z
loop_
_atom_site_type_symbol
_atom_site_label
_atom_site_fract_x
_atom_site_fract_y
_atom_site_fract_z
Si Si1 0.932655 0.254766 0.358320
Si Si2 0.500000 0.076878 0.606989
Si Si3 0.624244 0.383567 0.108289
Si Si4 0.343028 0.000000 0.888106
Si Si5 0.708525 0.500000 0.887853
Si Si6 0.565394 0.895152 0.893552
O O1 0.934792 0.250000 0.250000
O O2 0.880924 0.305452 0.383149
O O3 0.922344 0.181532 0.390833
O O4 0.000000 0.273621 0.389420
O O5 0.500000 0.098162 0.500000
O O6 0.439033 0.098306 0.650927
O O7 0.500000 0.000000 0.605063
O O8 0.673997 0.433883 0.140949
O O9 0.621826 0.397133 0.000000
O O10 0.275922 0.000000 0.856122
O O11 0.381235 0.937989 0.856965
O O12 0.339569 0.000000 0.000000
O O13 0.709664 0.500000 0.000000
O O14 0.500000 0.906926 0.853319
O O15 0.561188 0.913615 0.000000
#
# Coordination Sequence:
#
# PCOD9511063 Si02
#       6
#    32  16  32  16  16  32
#     4  10  20  32  47  72 104 131 159 203 250 287
#     4   9  14  22  41  70  98 123 155 192 229 279
#     4  10  17  28  48  73 102 131 159 194 238 294
#     4   9  17  32  53  76 100 122 158 215 253 278
#     4   9  18  30  49  78 103 126 160 200 246 293
#     4   9  17  31  54  78  96 123 163 203 248 295
#
# _framework density 21.041556
#
# number of rings (size 3 to 8) (size 9 to 14) (size 15 to 20)
#    0.000    2.556    2.222    1.000    0.000    2.222 
#    0.000    2.222    0.000   12.000    0.000    0.000 
#    0.000    0.000    0.000    0.000    0.000    0.000 
#
# Total GULP energy -200589.630364 kJ/mol
# GULP energy per Si atom -5571.934177 kJ/mol
# Density = 2.099366 g / cm^3
# Si number density = 21.041556 Si / 1000 Ang^3
#
#
#
# Elastic Constant Matrix: (Units=GPa)
#
#
# Indices 1 2 3 4 5 6 
#
# 1 182.1926 111.7175 14.2143 0.0000 0.0000 0.0000
# 2 111.7175 146.1197 -3.6300 0.0000 0.0000 0.0000
# 3 14.2143 -3.6300 46.8159 0.0000 0.0000 0.0000
# 4 0.0000 0.0000 0.0000 -77.6927 0.0000 0.0000
# 5 0.0000 0.0000 0.0000 0.0000 4.6651 0.0000
# 6 0.0000 0.0000 0.0000 0.0000 0.0000 -9.4419
#
#
#
# Elastic Compliance Matrix: (Units=1/GPa)
#
#
# Indices 1 2 3 4 5 6 
#
# 1 0.011038 -0.008539 -0.004013 0.000000 0.000000 0.000000
# 2 -0.008539 0.013462 0.003636 0.000000 0.000000 0.000000
# 3 -0.004013 0.003636 0.022861 0.000000 0.000000 0.000000
# 4 0.000000 0.000000 0.000000 -0.012871 0.000000 0.000000
# 5 0.000000 0.000000 0.000000 0.000000 0.214355 0.000000
# 6 0.000000 0.000000 0.000000 0.000000 0.000000 -0.105911
#
#
# Mechanical properties :
#
#
# Convention : Reuss Voigt Hill
#
# Bulk Modulus (GPa) = 33.86442 68.85910 51.36176
# Shear Modulus (GPa) = 29.30691 0.36118 14.83405
#
# Velocity S-wave (km/s) = 3.73609 0.41476 2.65804
# Velocity P-wave (km/s) = 5.89408 5.74680 5.82090
#
# Compressibility (1/GPa) = 0.02952952
#
# Stress axis : x y z
#
# Youngs Moduli (GPa) = 90.60007 74.28149 43.74308
#
# Poissons Ratio (x) = 0.63426 0.17555
# Poissons Ratio (y) = 0.77359 -0.15906
# Poissons Ratio (z) = 0.36360 -0.27011
#
# Static dielectric constant tensor:
#      x y z
#    x 1.754030 0.000000 0.000000 
#    y 0.000000 1.807360 0.000000 
#    z 0.000000 0.000000 1.877960 
# 
# From -- ./inp_files/24521.got.cif
#   From: 2010.05.17/outbox.cif.g08.bks.cpg/sg69_13_cif.got.tgz:24521.got - 2010.06.03 19:29:58.
