data_PCOD9511363
_publ_section_title
;
Structure prediction by ZEFSAII (Michael W. Deem and Ramdas Pophale) SiO2 
 PCOD9511363
Probable space group: F M M M
;
_chemical_formula_sum "Si O2"
_cell_formula_units_Z 160
_cell_length_a 16.278227
_cell_length_b 28.414390
_cell_length_c 18.577689
_cell_angle_alpha 90.000000
_cell_angle_beta 90.000000
_cell_angle_gamma 90.000000
_cell_volume 8592.847925
_symmetry_space_group_name_H-M "F M M M"
_symmetry_group_IT_number 69
_symmetry_cell_setting 'orthorhombic'
loop_
_space_group_symop_operation_xyz
x,y,z
-x,-y,z
x,-y,-z
-x,y,-z
-x,-y,-z
x,y,-z
-x,y,z
x,-y,z
x,1/2+y,1/2+z
-x,1/2-y,1/2+z
x,1/2-y,1/2-z
-x,1/2+y,1/2-z
-x,1/2-y,1/2-z
x,1/2+y,1/2-z
-x,1/2+y,1/2+z
x,1/2-y,1/2+z
1/2+x,y,1/2+z
1/2-x,-y,1/2+z
1/2+x,-y,1/2-z
1/2-x,y,1/2-z
1/2-x,-y,1/2-z
1/2+x,y,1/2-z
1/2-x,y,1/2+z
1/2+x,-y,1/2+z
1/2+x,1/2+y,z
1/2-x,1/2-y,z
1/2+x,1/2-y,-z
1/2-x,1/2+y,-z
1/2-x,1/2-y,-z
1/2+x,1/2+y,-z
1/2-x,1/2+y,z
1/2+x,1/2-y,z
loop_
_atom_site_type_symbol
_atom_site_label
_atom_site_fract_x
_atom_site_fract_y
_atom_site_fract_z
Si Si1 0.249424 0.054766 0.415509
Si Si2 0.830797 0.119639 0.200058
Si Si3 0.901270 0.778194 0.175985
Si Si4 0.099593 0.693360 0.080856
Si Si5 0.594409 0.596048 0.341929
O O1 0.249162 0.067189 0.500000
O O2 0.308613 0.087460 0.367828
O O3 0.158790 0.062586 0.381627
O O4 0.271842 0.000000 0.408447
O O5 0.750000 0.123526 0.250000
O O6 0.859749 0.171224 0.177136
O O7 0.894913 0.096362 0.255879
O O8 0.886033 0.750000 0.250000
O O9 0.872182 0.742670 0.113856
O O10 0.000000 0.784745 0.170600
O O11 0.117713 0.648896 0.131250
O O12 0.000000 0.695878 0.079205
O O13 0.129445 0.685250 0.000000
O O14 0.500000 0.587109 0.361892
#
# Coordination Sequence:
#
# PCOD9511363 Si02
#       5
#    32  32  32  32  32
#     4  10  23  42  59  79 113 155 194 239 296 347
#     4  10  21  35  56  83 113 151 191 233 288 349
#     4  10  18  32  54  79 111 150 191 232 277 330
#     4   9  17  29  48  77 112 145 176 222 286 341
#     4  10  19  35  60  87 112 143 188 244 295 344
#
# _framework density 18.620135999999999
#
# number of rings (size 3 to 8) (size 9 to 14) (size 15 to 20)
#    0.000    2.200    2.000    1.200    0.000    6.400 
#    0.000    1.000    0.000    7.200    0.000    5.600 
#    0.000    0.000    0.000    0.000    0.000    0.000 
#
# Total GULP energy -223200.889768 kJ/mol
# GULP energy per Si atom -5580.022244 kJ/mol
# Density = 1.857776 g / cm^3
# Si number density = 18.620136 Si / 1000 Ang^3
#
#
#
# Elastic Constant Matrix: (Units=GPa)
#
#
# Indices 1 2 3 4 5 6 
#
# 1 30.4713 34.3124 36.0984 0.0000 0.0000 0.0000
# 2 34.3124 102.6996 58.8939 0.0000 0.0000 0.0000
# 3 36.0984 58.8939 117.4323 0.0000 0.0000 0.0000
# 4 0.0000 0.0000 0.0000 33.2596 0.0000 0.0000
# 5 0.0000 0.0000 0.0000 0.0000 16.2647 0.0000
# 6 0.0000 0.0000 0.0000 0.0000 0.0000 0.5438
#
#
#
# Elastic Compliance Matrix: (Units=1/GPa)
#
#
# Indices 1 2 3 4 5 6 
#
# 1 0.063356 -0.014036 -0.012436 0.000000 0.000000 0.000000
# 2 -0.014036 0.016777 -0.004100 0.000000 0.000000 0.000000
# 3 -0.012436 -0.004100 0.014394 0.000000 0.000000 0.000000
# 4 0.000000 0.000000 0.000000 0.030066 0.000000 0.000000
# 5 0.000000 0.000000 0.000000 0.000000 0.061483 0.000000
# 6 0.000000 0.000000 0.000000 0.000000 0.000000 1.838971
#
#
# Mechanical properties :
#
#
# Convention : Reuss Voigt Hill
#
# Bulk Modulus (GPa) = 29.95416 56.57920 43.26668
# Shear Modulus (GPa) = 2.38400 18.10018 10.24209
#
# Velocity S-wave (km/s) = 1.13275 3.12120 2.34787
# Velocity P-wave (km/s) = 4.22288 6.59099 5.53506
#
# Compressibility (1/GPa) = 0.03338434
#
# Stress axis : x y z
#
# Youngs Moduli (GPa) = 15.78394 59.60369 69.47140
#
# Poissons Ratio (x) = 0.83658 0.86396
# Poissons Ratio (y) = 0.22154 0.28480
# Poissons Ratio (z) = 0.19629 0.24435
#
# Static dielectric constant tensor:
#      x y z
#    x 1.669940 0.000000 0.000000 
#    y 0.000000 1.623330 0.000000 
#    z 0.000000 0.000000 1.655800 
# 
# From -- ./inp_files/23116.got.cif
#   From: 2010.05.17/outbox.cif.g08.bks.cpg/sg69_12_cif.got.tgz:23116.got - 2010.06.03 19:29:58.
