data_PCOD9511644
_publ_section_title
;
Structure prediction by ZEFSAII (Michael W. Deem and Ramdas Pophale) SiO2 
 PCOD9511644
Probable space group: F M M M
;
_chemical_formula_sum "Si O2"
_cell_formula_units_Z 160
_cell_length_a 8.108633
_cell_length_b 31.202479
_cell_length_c 31.312255
_cell_angle_alpha 90.000000
_cell_angle_beta 90.000000
_cell_angle_gamma 90.000000
_cell_volume 7922.296444
_symmetry_space_group_name_H-M "F M M M"
_symmetry_group_IT_number 69
_symmetry_cell_setting 'orthorhombic'
loop_
_space_group_symop_operation_xyz
x,y,z
-x,-y,z
x,-y,-z
-x,y,-z
-x,-y,-z
x,y,-z
-x,y,z
x,-y,z
x,1/2+y,1/2+z
-x,1/2-y,1/2+z
x,1/2-y,1/2-z
-x,1/2+y,1/2-z
-x,1/2-y,1/2-z
x,1/2+y,1/2-z
-x,1/2+y,1/2+z
x,1/2-y,1/2+z
1/2+x,y,1/2+z
1/2-x,-y,1/2+z
1/2+x,-y,1/2-z
1/2-x,y,1/2-z
1/2-x,-y,1/2-z
1/2+x,y,1/2-z
1/2-x,y,1/2+z
1/2+x,-y,1/2+z
1/2+x,1/2+y,z
1/2-x,1/2-y,z
1/2+x,1/2-y,-z
1/2-x,1/2+y,-z
1/2-x,1/2-y,-z
1/2+x,1/2+y,-z
1/2-x,1/2+y,z
1/2+x,1/2-y,z
loop_
_atom_site_type_symbol
_atom_site_label
_atom_site_fract_x
_atom_site_fract_y
_atom_site_fract_z
Si Si1 0.799516 0.334168 0.089688
Si Si2 0.202227 0.000000 0.050134
Si Si3 0.304261 0.796816 0.178065
Si Si4 0.806502 0.572744 0.384205
Si Si5 0.801983 0.701487 0.000000
Si Si6 0.196324 0.107802 0.203387
O O1 0.754690 0.302155 0.128182
O O2 0.718236 0.379529 0.098722
O O3 0.742707 0.319067 0.043691
O O4 0.000000 0.338535 0.090386
O O5 0.257581 0.040275 0.079557
O O6 0.000000 0.000000 0.048145
O O7 0.256387 0.000000 0.000000
O O8 0.500000 0.797747 0.181395
O O9 0.250000 0.750000 0.194288
O O10 0.243936 0.841759 0.198237
O O11 0.736622 0.578554 0.335866
O O12 0.000000 0.561951 0.379821
O O13 0.750000 0.750000 0.000000
O O14 0.000000 0.698251 0.000000
O O15 0.250000 0.093063 0.250000
O O16 0.000000 0.106441 0.200494
#
# Coordination Sequence:
#
# PCOD9511644 Si02
#       6
#    32  16  32  32  16  32
#     4   9  19  33  49  70 103 141 176 217 267 315
#     4   9  18  34  58  87 115 139 171 215 262 313
#     4  10  19  32  50  73 103 140 180 224 269 312
#     4   9  19  35  56  81 107 137 174 218 262 312
#     4  10  20  32  46  69 100 137 179 222 261 306
#     4  10  20  35  54  77 105 139 179 220 267 318
#
# _framework density 20.196162999999999
#
# number of rings (size 3 to 8) (size 9 to 14) (size 15 to 20)
#    0.000    2.500    0.000    1.800    1.400    2.800 
#    0.000    3.000    0.000    0.600    0.000    0.000 
#    0.000    0.000    0.000    0.000    0.000    0.000 
#
# Total GULP energy -222865.666765 kJ/mol
# GULP energy per Si atom -5571.641669 kJ/mol
# Density = 2.015020 g / cm^3
# Si number density = 20.196163 Si / 1000 Ang^3
#
#
#
# Elastic Constant Matrix: (Units=GPa)
#
#
# Indices 1 2 3 4 5 6 
#
# 1 12.5833 3.1789 12.0519 0.0000 0.0000 0.0000
# 2 3.1789 81.0222 54.4376 0.0000 0.0000 0.0000
# 3 12.0519 54.4376 187.4916 0.0000 0.0000 0.0000
# 4 0.0000 0.0000 0.0000 9.9908 0.0000 0.0000
# 5 0.0000 0.0000 0.0000 0.0000 13.8671 0.0000
# 6 0.0000 0.0000 0.0000 0.0000 0.0000 11.1194
#
#
#
# Elastic Compliance Matrix: (Units=1/GPa)
#
#
# Indices 1 2 3 4 5 6 
#
# 1 0.084696 0.000416 -0.005565 0.000000 0.000000 0.000000
# 2 0.000416 0.015336 -0.004479 0.000000 0.000000 0.000000
# 3 -0.005565 -0.004479 0.006992 0.000000 0.000000 0.000000
# 4 0.000000 0.000000 0.000000 0.100092 0.000000 0.000000
# 5 0.000000 0.000000 0.000000 0.000000 0.072113 0.000000
# 6 0.000000 0.000000 0.000000 0.000000 0.000000 0.089933
#
#
# Mechanical properties :
#
#
# Convention : Reuss Voigt Hill
#
# Bulk Modulus (GPa) = 11.39389 46.71488 29.05438
# Shear Modulus (GPa) = 11.97107 21.09070 16.53089
#
# Velocity S-wave (km/s) = 2.43727 3.23506 2.86408
# Velocity P-wave (km/s) = 3.68432 6.09384 5.03533
#
# Compressibility (1/GPa) = 0.08776636
#
# Stress axis : x y z
#
# Youngs Moduli (GPa) = 11.80698 65.20767 143.02326
#
# Poissons Ratio (x) = -0.02713 0.79593
# Poissons Ratio (y) = -0.00491 0.64066
# Poissons Ratio (z) = 0.06571 0.29209
#
# Static dielectric constant tensor:
#      x y z
#    x 1.707650 0.000000 0.000000 
#    y 0.000000 1.692180 0.000000 
#    z 0.000000 0.000000 1.768000 
# 
# From -- ./inp_files/44601.got.cif
#   From: 2010.05.17/outbox.cif.g08.bks.cpg/sg69_23_cif.got.tgz:44601.got - 2010.06.03 19:29:58.
