data_PCOD9511856
_publ_section_title
;
Structure prediction by ZEFSAII (Michael W. Deem and Ramdas Pophale) SiO2 
 PCOD9511856
Probable space group: F M M M
;
_chemical_formula_sum "Si O2"
_cell_formula_units_Z 144
_cell_length_a 31.491978
_cell_length_b 17.447393
_cell_length_c 14.094837
_cell_angle_alpha 90.000000
_cell_angle_beta 90.000000
_cell_angle_gamma 90.000000
_cell_volume 7744.449297
_symmetry_space_group_name_H-M "F M M M"
_symmetry_group_IT_number 69
_symmetry_cell_setting 'orthorhombic'
loop_
_space_group_symop_operation_xyz
x,y,z
-x,-y,z
x,-y,-z
-x,y,-z
-x,-y,-z
x,y,-z
-x,y,z
x,-y,z
x,1/2+y,1/2+z
-x,1/2-y,1/2+z
x,1/2-y,1/2-z
-x,1/2+y,1/2-z
-x,1/2-y,1/2-z
x,1/2+y,1/2-z
-x,1/2+y,1/2+z
x,1/2-y,1/2+z
1/2+x,y,1/2+z
1/2-x,-y,1/2+z
1/2+x,-y,1/2-z
1/2-x,y,1/2-z
1/2-x,-y,1/2-z
1/2+x,y,1/2-z
1/2-x,y,1/2+z
1/2+x,-y,1/2+z
1/2+x,1/2+y,z
1/2-x,1/2-y,z
1/2+x,1/2-y,-z
1/2-x,1/2+y,-z
1/2-x,1/2-y,-z
1/2+x,1/2+y,-z
1/2-x,1/2+y,z
1/2+x,1/2-y,z
loop_
_atom_site_type_symbol
_atom_site_label
_atom_site_fract_x
_atom_site_fract_y
_atom_site_fract_z
Si Si1 0.050302 0.840521 0.500000
Si Si2 0.674580 0.910766 0.000000
Si Si3 0.205474 0.410286 0.790339
Si Si4 0.624744 0.829077 0.302116
Si Si5 0.048516 0.408665 0.206687
Si Si6 0.873633 0.745460 0.500000
O O1 0.060817 0.883161 0.599181
O O2 0.076117 0.762187 0.500000
O O3 0.000000 0.830214 0.500000
O O4 0.701745 0.905469 0.903952
O O5 0.645753 0.832753 0.000000
O O6 0.655857 0.000000 0.000000
O O7 0.202563 0.500000 0.764043
O O8 0.250000 0.380080 0.750000
O O9 0.165046 0.368070 0.746972
O O10 0.614917 0.750000 0.250000
O O11 0.582944 0.879209 0.281894
O O12 0.636477 0.804195 0.407974
O O13 0.048314 0.500000 0.207766
O O14 0.000000 0.381414 0.224591
#
# Coordination Sequence:
#
# PCOD9511856 Si02
#       6
#    16  16  32  32  32  16
#     4  10  19  33  58  88 119 148 194 255 300 342
#     4  10  20  39  65  88 115 154 204 253 293 343
#     4  10  22  41  65  90 118 158 203 247 297 352
#     4  12  23  39  59  87 126 156 195 243 302 358
#     4  10  21  38  62  90 119 156 201 248 298 353
#     4  12  24  39  55  93 120 158 200 240 301 363
#
# _framework density 18.593962000000001
#
# number of rings (size 3 to 8) (size 9 to 14) (size 15 to 20)
#    0.000    1.333    4.444    1.000    0.000    6.667 
#    0.000    4.444    0.000    1.333    0.000    0.000 
#    0.000    0.000    0.000    0.000    0.000    0.000 
#
# Total GULP energy -200769.039915 kJ/mol
# GULP energy per Si atom -5576.917775 kJ/mol
# Density = 1.855164 g / cm^3
# Si number density = 18.593962 Si / 1000 Ang^3
#
#
#
# Elastic Constant Matrix: (Units=GPa)
#
#
# Indices 1 2 3 4 5 6 
#
# 1 92.3697 37.7058 35.7948 0.0000 0.0000 0.0000
# 2 37.7058 50.2956 28.3240 0.0000 0.0000 0.0000
# 3 35.7948 28.3240 110.4671 0.0000 0.0000 0.0000
# 4 0.0000 0.0000 0.0000 -16.3783 0.0000 0.0000
# 5 0.0000 0.0000 0.0000 0.0000 46.1381 0.0000
# 6 0.0000 0.0000 0.0000 0.0000 0.0000 2.0311
#
#
#
# Elastic Compliance Matrix: (Units=1/GPa)
#
#
# Indices 1 2 3 4 5 6 
#
# 1 0.016166 -0.010717 -0.002490 0.000000 0.000000 0.000000
# 2 -0.010717 0.030342 -0.004307 0.000000 0.000000 0.000000
# 3 -0.002490 -0.004307 0.010964 0.000000 0.000000 0.000000
# 4 0.000000 0.000000 0.000000 -0.061056 0.000000 0.000000
# 5 0.000000 0.000000 0.000000 0.000000 0.021674 0.000000
# 6 0.000000 0.000000 0.000000 0.000000 0.000000 0.492351
#
#
# Mechanical properties :
#
#
# Convention : Reuss Voigt Hill
#
# Bulk Modulus (GPa) = 44.55727 50.75349 47.65538
# Shear Modulus (GPa) = 9.04240 16.44537 12.74389
#
# Velocity S-wave (km/s) = 2.20763 2.97719 2.62081
# Velocity P-wave (km/s) = 5.52390 6.25885 5.90282
#
# Compressibility (1/GPa) = 0.02244303
#
# Stress axis : x y z
#
# Youngs Moduli (GPa) = 61.85918 32.95738 91.20894
#
# Poissons Ratio (x) = 0.35319 0.22715
# Poissons Ratio (y) = 0.66293 0.39286
# Poissons Ratio (z) = 0.15406 0.14196
#
# Static dielectric constant tensor:
#      x y z
#    x 1.676270 0.000000 0.000000 
#    y 0.000000 1.639170 0.000000 
#    z 0.000000 0.000000 1.582860 
# 
# From -- ./inp_files/19503.got.cif
#   From: 2010.05.17/outbox.cif.g08.bks.cpg/sg69_10_cif.got.tgz:19503.got - 2010.06.03 19:29:58.
