data_PCOD9511071
_publ_section_title
;
Structure prediction by ZEFSAII (Michael W. Deem and Ramdas Pophale) SiO2 
 PCOD9511071
Probable space group: F M M M
;
_chemical_formula_sum "Si O2"
_cell_formula_units_Z 160
_cell_length_a 25.481637
_cell_length_b 23.960384
_cell_length_c 16.682717
_cell_angle_alpha 90.000000
_cell_angle_beta 90.000000
_cell_angle_gamma 90.000000
_cell_volume 10185.629652
_symmetry_space_group_name_H-M "F M M M"
_symmetry_group_IT_number 69
_symmetry_cell_setting 'orthorhombic'
loop_
_space_group_symop_operation_xyz
x,y,z
-x,-y,z
x,-y,-z
-x,y,-z
-x,-y,-z
x,y,-z
-x,y,z
x,-y,z
x,1/2+y,1/2+z
-x,1/2-y,1/2+z
x,1/2-y,1/2-z
-x,1/2+y,1/2-z
-x,1/2-y,1/2-z
x,1/2+y,1/2-z
-x,1/2+y,1/2+z
x,1/2-y,1/2+z
1/2+x,y,1/2+z
1/2-x,-y,1/2+z
1/2+x,-y,1/2-z
1/2-x,y,1/2-z
1/2-x,-y,1/2-z
1/2+x,y,1/2-z
1/2-x,y,1/2+z
1/2+x,-y,1/2+z
1/2+x,1/2+y,z
1/2-x,1/2-y,z
1/2+x,1/2-y,-z
1/2-x,1/2+y,-z
1/2-x,1/2-y,-z
1/2+x,1/2+y,-z
1/2-x,1/2+y,z
1/2+x,1/2-y,z
loop_
_atom_site_type_symbol
_atom_site_label
_atom_site_fract_x
_atom_site_fract_y
_atom_site_fract_z
Si Si1 0.166944 0.436094 0.597009
Si Si2 0.557268 0.748559 0.097235
Si Si3 0.329137 0.730855 0.404922
Si Si4 0.057813 0.382925 0.402817
Si Si5 0.764006 0.164409 0.842934
O O1 0.167788 0.432787 0.500000
O O2 0.176724 0.500000 0.620186
O O3 0.108722 0.416676 0.624121
O O4 0.209082 0.392524 0.629910
O O5 0.500000 0.767894 0.127169
O O6 0.611035 0.777975 0.123035
O O7 0.562884 0.682768 0.116793
O O8 0.555596 0.752251 0.000000
O O9 0.329672 0.743122 0.500000
O O10 0.289540 0.680362 0.388848
O O11 0.304101 0.784925 0.362295
O O12 0.057505 0.385994 0.500000
O O13 0.000000 0.402332 0.375447
O O14 0.750000 0.163979 0.750000
#
# Coordination Sequence:
#
# PCOD9511071 Si02
#       5
#    32  32  32  32  32
#     4  10  19  31  47  66  88 115 152 189 217 255
#     4   8  13  22  41  68  92 111 135 175 221 259
#     4  10  17  29  50  68  87 115 151 184 217 261
#     4   8  13  23  40  64  92 115 138 173 217 260
#     4  11  21  31  43  62  91 121 150 185 220 262
#
# _framework density 15.708405000000001
#
# number of rings (size 3 to 8) (size 9 to 14) (size 15 to 20)
#    0.000    2.600    2.000    4.800    0.000    0.800 
#    0.000    2.000    0.000    3.600    0.000    0.000 
#    0.000    0.800    0.000    7.400    0.000    0.000 
#
# Total GULP energy -222742.059490 kJ/mol
# GULP energy per Si atom -5568.551487 kJ/mol
# Density = 1.567265 g / cm^3
# Si number density = 15.708405 Si / 1000 Ang^3
#
#
#
# Elastic Constant Matrix: (Units=GPa)
#
#
# Indices 1 2 3 4 5 6 
#
# 1 172.1270 68.2033 22.6998 0.0000 0.0000 0.0000
# 2 68.2033 65.8204 7.8085 0.0000 0.0000 0.0000
# 3 22.6998 7.8085 22.0721 0.0000 0.0000 0.0000
# 4 0.0000 0.0000 0.0000 14.2034 0.0000 0.0000
# 5 0.0000 0.0000 0.0000 0.0000 -7.3353 0.0000
# 6 0.0000 0.0000 0.0000 0.0000 0.0000 19.4004
#
#
#
# Elastic Compliance Matrix: (Units=1/GPa)
#
#
# Indices 1 2 3 4 5 6 
#
# 1 0.010945 -0.010445 -0.007562 0.000000 0.000000 0.000000
# 2 -0.010445 0.025825 0.001605 0.000000 0.000000 0.000000
# 3 -0.007562 0.001605 0.052515 0.000000 0.000000 0.000000
# 4 0.000000 0.000000 0.000000 0.070406 0.000000 0.000000
# 5 0.000000 0.000000 0.000000 0.000000 -0.136326 0.000000
# 6 0.000000 0.000000 0.000000 0.000000 0.000000 0.051545
#
#
# Mechanical properties :
#
#
# Convention : Reuss Voigt Hill
#
# Bulk Modulus (GPa) = 17.70422 50.82696 34.26559
# Shear Modulus (GPa) = 39.51314 16.00754 27.76034
#
# Velocity S-wave (km/s) = 5.02083 3.19571 4.20840
# Velocity P-wave (km/s) = 6.70124 6.78554 6.74352
#
# Compressibility (1/GPa) = 0.05648370
#
# Stress axis : x y z
#
# Youngs Moduli (GPa) = 91.36208 38.72186 19.04223
#
# Poissons Ratio (x) = 0.40444 0.14399
# Poissons Ratio (y) = 0.95425 -0.03057
# Poissons Ratio (z) = 0.69085 -0.06217
#
# Static dielectric constant tensor:
#      x y z
#    x 1.579010 0.000000 0.000000 
#    y 0.000000 1.500780 0.000000 
#    z 0.000000 0.000000 1.520060 
# 
# From -- ./inp_files/17709.got.cif
#   From: 2010.05.17/outbox.cif.g08.bks.cpg/sg69_9_cif.got.tgz:17709.got - 2010.06.03 19:29:58.
