data_PCOD9511825
_publ_section_title
;
Structure prediction by ZEFSAII (Michael W. Deem and Ramdas Pophale) SiO2 
 PCOD9511825
Probable space group: F M M M
;
_chemical_formula_sum "Si O2"
_cell_formula_units_Z 168
_cell_length_a 27.689797
_cell_length_b 14.683066
_cell_length_c 19.883482
_cell_angle_alpha 90.000000
_cell_angle_beta 90.000000
_cell_angle_gamma 90.000000
_cell_volume 8084.049484
_symmetry_space_group_name_H-M "F M M M"
_symmetry_group_IT_number 69
_symmetry_cell_setting 'orthorhombic'
loop_
_space_group_symop_operation_xyz
x,y,z
-x,-y,z
x,-y,-z
-x,y,-z
-x,-y,-z
x,y,-z
-x,y,z
x,-y,z
x,1/2+y,1/2+z
-x,1/2-y,1/2+z
x,1/2-y,1/2-z
-x,1/2+y,1/2-z
-x,1/2-y,1/2-z
x,1/2+y,1/2-z
-x,1/2+y,1/2+z
x,1/2-y,1/2+z
1/2+x,y,1/2+z
1/2-x,-y,1/2+z
1/2+x,-y,1/2-z
1/2-x,y,1/2-z
1/2-x,-y,1/2-z
1/2+x,y,1/2-z
1/2-x,y,1/2+z
1/2+x,-y,1/2+z
1/2+x,1/2+y,z
1/2-x,1/2-y,z
1/2+x,1/2-y,-z
1/2-x,1/2+y,-z
1/2-x,1/2-y,-z
1/2+x,1/2+y,-z
1/2-x,1/2+y,z
1/2+x,1/2-y,z
loop_
_atom_site_type_symbol
_atom_site_label
_atom_site_fract_x
_atom_site_fract_y
_atom_site_fract_z
Si Si1 0.445893 0.745926 0.581025
Si Si2 0.571160 0.104921 0.316274
Si Si3 0.000000 0.750000 0.750000
Si Si4 0.321881 0.348820 0.219671
Si Si5 0.635557 0.604602 0.580287
Si Si6 0.268355 0.397504 0.352344
O O1 0.445920 0.747281 0.500000
O O2 0.500000 0.718228 0.605407
O O3 0.436552 0.844678 0.612047
O O4 0.405399 0.674335 0.604945
O O5 0.541980 0.171896 0.266856
O O6 0.628077 0.108700 0.301442
O O7 0.555661 0.000000 0.314807
O O8 0.331083 0.250000 0.250000
O O9 0.296395 0.400397 0.281146
O O10 0.281244 0.344743 0.161479
O O11 0.630695 0.601199 0.500000
O O12 0.629401 0.500000 0.605572
O O13 0.689572 0.636190 0.598383
O O14 0.255042 0.500000 0.373078
#
# Coordination Sequence:
#
# PCOD9511825 Si02
#       6
#    32  32   8  32  32  32
#     4  10  22  41  63  89 123 164 217 267 309 372
#     4  12  25  44  66  92 128 166 206 259 320 377
#     4  12  26  44  62  94 124 162 206 256 310 374
#     4  11  21  36  57  86 120 157 202 256 309 376
#     4   9  19  36  59  89 127 168 211 264 319 369
#     4  10  19  33  55  85 117 159 206 247 307 374
#
# _framework density 20.781663999999999
#
# number of rings (size 3 to 8) (size 9 to 14) (size 15 to 20)
#    0.000    1.524    1.905    4.857    0.000    0.762 
#    0.000    4.762    0.000    6.857    0.000    0.000 
#    0.000    0.000    0.000    0.000    0.000    0.000 
#
# Total GULP energy -233926.214008 kJ/mol
# GULP energy per Si atom -5569.671762 kJ/mol
# Density = 2.073436 g / cm^3
# Si number density = 20.781664 Si / 1000 Ang^3
#
#
#
# Elastic Constant Matrix: (Units=GPa)
#
#
# Indices 1 2 3 4 5 6 
#
# 1 162.0416 58.4933 26.2463 0.0000 0.0000 0.0000
# 2 58.4933 156.9877 28.8269 0.0000 0.0000 0.0000
# 3 26.2463 28.8269 20.5893 0.0000 0.0000 0.0000
# 4 0.0000 0.0000 0.0000 28.2814 0.0000 0.0000
# 5 0.0000 0.0000 0.0000 0.0000 33.0923 0.0000
# 6 0.0000 0.0000 0.0000 0.0000 0.0000 9.8586
#
#
#
# Elastic Compliance Matrix: (Units=1/GPa)
#
#
# Indices 1 2 3 4 5 6 
#
# 1 0.008030 -0.001497 -0.008140 0.000000 0.000000 0.000000
# 2 -0.001497 0.008853 -0.010487 0.000000 0.000000 0.000000
# 3 -0.008140 -0.010487 0.073628 0.000000 0.000000 0.000000
# 4 0.000000 0.000000 0.000000 0.035359 0.000000 0.000000
# 5 0.000000 0.000000 0.000000 0.000000 0.030219 0.000000
# 6 0.000000 0.000000 0.000000 0.000000 0.000000 0.101434
#
#
# Mechanical properties :
#
#
# Convention : Reuss Voigt Hill
#
# Bulk Modulus (GPa) = 19.89532 62.97238 41.43385
# Shear Modulus (GPa) = 15.89688 29.31659 22.60673
#
# Velocity S-wave (km/s) = 2.76877 3.76000 3.30179
# Velocity P-wave (km/s) = 4.45148 7.01554 5.87510
#
# Compressibility (1/GPa) = 0.05026309
#
# Stress axis : x y z
#
# Youngs Moduli (GPa) = 124.52930 112.94976 13.58172
#
# Poissons Ratio (x) = 0.16912 0.11056
# Poissons Ratio (y) = 0.18646 0.14243
# Poissons Ratio (z) = 1.01369 1.18450
#
# Static dielectric constant tensor:
#      x y z
#    x 1.768730 0.000000 0.000000 
#    y 0.000000 1.903980 0.000000 
#    z 0.000000 0.000000 1.845590 
# 
# From -- ./inp_files/33411.got.cif
#   From: 2010.05.17/outbox.cif.g08.bks.cpg/sg69_17_cif.got.tgz:33411.got - 2010.06.03 19:29:58.
