data_PCOD9511009
_publ_section_title
;
Structure prediction by ZEFSAII (Michael W. Deem and Ramdas Pophale) SiO2 
 PCOD9511009
Probable space group: F M M M
;
_chemical_formula_sum "Si O2"
_cell_formula_units_Z 128
_cell_length_a 15.178914
_cell_length_b 15.049667
_cell_length_c 31.420991
_cell_angle_alpha 90.000000
_cell_angle_beta 90.000000
_cell_angle_gamma 90.000000
_cell_volume 7177.735809
_symmetry_space_group_name_H-M "F M M M"
_symmetry_group_IT_number 69
_symmetry_cell_setting 'orthorhombic'
loop_
_space_group_symop_operation_xyz
x,y,z
-x,-y,z
x,-y,-z
-x,y,-z
-x,-y,-z
x,y,-z
-x,y,z
x,-y,z
x,1/2+y,1/2+z
-x,1/2-y,1/2+z
x,1/2-y,1/2-z
-x,1/2+y,1/2-z
-x,1/2-y,1/2-z
x,1/2+y,1/2-z
-x,1/2+y,1/2+z
x,1/2-y,1/2+z
1/2+x,y,1/2+z
1/2-x,-y,1/2+z
1/2+x,-y,1/2-z
1/2-x,y,1/2-z
1/2-x,-y,1/2-z
1/2+x,y,1/2-z
1/2-x,y,1/2+z
1/2+x,-y,1/2+z
1/2+x,1/2+y,z
1/2-x,1/2-y,z
1/2+x,1/2-y,-z
1/2-x,1/2+y,-z
1/2-x,1/2-y,-z
1/2+x,1/2+y,-z
1/2-x,1/2+y,z
1/2+x,1/2-y,z
loop_
_atom_site_type_symbol
_atom_site_label
_atom_site_fract_x
_atom_site_fract_y
_atom_site_fract_z
Si Si1 0.180938 0.391016 0.365720
Si Si2 0.000000 0.900285 0.827019
Si Si3 0.000000 0.849211 0.733157
Si Si4 0.397779 0.892067 0.548038
Si Si5 0.193663 0.607436 0.208191
O O1 0.183684 0.500000 0.365170
O O2 0.168381 0.363339 0.414668
O O3 0.260016 0.361863 0.335361
O O4 0.090945 0.359965 0.342705
O O5 0.000000 0.905582 0.776507
O O6 0.000000 0.000000 0.845503
O O7 0.000000 0.750000 0.750000
O O8 0.091813 0.866218 0.709962
O O9 0.377234 0.862086 0.500000
O O10 0.500000 0.867548 0.557892
O O11 0.396503 0.000000 0.547584
O O12 0.196908 0.500000 0.209349
O O13 0.250000 0.637301 0.250000
#
# Coordination Sequence:
#
# PCOD9511009 Si02
#       5
#    32  16  16  32  32
#     4   9  15  24  42  65  89 121 155 183 218 269
#     4  10  16  28  47  66  90 120 155 184 216 269
#     4  12  24  34  44  63  94 122 150 193 238 269
#     4   8  12  18  32  60  97 125 141 172 228 281
#     4  10  19  32  50  67  85 119 160 189 217 268
#
# _framework density 17.832922
#
# number of rings (size 3 to 8) (size 9 to 14) (size 15 to 20)
#    0.000    2.500    3.750    1.875    0.000    0.500 
#    0.000    0.000    0.000    0.000    0.000    0.875 
#    0.000   12.000    0.000    0.000    0.000    0.000 
#
# Total GULP energy -178225.823987 kJ/mol
# GULP energy per Si atom -5569.557000 kJ/mol
# Density = 1.779233 g / cm^3
# Si number density = 17.832922 Si / 1000 Ang^3
#
#
#
# Elastic Constant Matrix: (Units=GPa)
#
#
# Indices 1 2 3 4 5 6 
#
# 1 141.3840 3.3832 94.7011 0.0000 0.0000 0.0000
# 2 3.3832 26.5954 6.4103 0.0000 0.0000 0.0000
# 3 94.7011 6.4103 162.5598 0.0000 0.0000 0.0000
# 4 0.0000 0.0000 0.0000 -0.2156 0.0000 0.0000
# 5 0.0000 0.0000 0.0000 0.0000 33.0419 0.0000
# 6 0.0000 0.0000 0.0000 0.0000 0.0000 -8.5201
#
#
#
# Elastic Compliance Matrix: (Units=1/GPa)
#
#
# Indices 1 2 3 4 5 6 
#
# 1 0.011600 0.000155 -0.006764 0.000000 0.000000 0.000000
# 2 0.000155 0.037963 -0.001587 0.000000 0.000000 0.000000
# 3 -0.006764 -0.001587 0.010154 0.000000 0.000000 0.000000
# 4 0.000000 0.000000 0.000000 -4.638820 0.000000 0.000000
# 5 0.000000 0.000000 0.000000 0.000000 0.030265 0.000000
# 6 0.000000 0.000000 0.000000 0.000000 0.000000 -0.117369
#
#
# Mechanical properties :
#
#
# Convention : Reuss Voigt Hill
#
# Bulk Modulus (GPa) = 23.08125 59.94759 41.51442
# Shear Modulus (GPa) = -1.07866 19.93089 9.42612
#
# Velocity S-wave (km/s) = -0.77858 3.34675 2.30158
# Velocity P-wave (km/s) = 3.48754 6.97306 5.51300
#
# Compressibility (1/GPa) = 0.04332520
#
# Stress axis : x y z
#
# Youngs Moduli (GPa) = 86.21011 26.34120 98.47992
#
# Poissons Ratio (x) = -0.00407 0.66607
# Poissons Ratio (y) = -0.01333 0.15630
# Poissons Ratio (z) = 0.58309 0.04181
#
# Static dielectric constant tensor:
#      x y z
#    x 1.635330 0.000000 0.000000 
#    y 0.000000 1.611610 0.000000 
#    z 0.000000 0.000000 1.650770 
# 
# From -- ./inp_files/15468.got.cif
#   From: 2010.05.17/outbox.cif.g08.bks.cpg/sg69_8_cif.got.tgz:15468.got - 2010.06.03 19:29:58.
