data_PCOD9511742
_publ_section_title
;
Structure prediction by ZEFSAII (Michael W. Deem and Ramdas Pophale) SiO2 
 PCOD9511742
Probable space group: F M M M
;
_chemical_formula_sum "Si O2"
_cell_formula_units_Z 136
_cell_length_a 18.470888
_cell_length_b 28.746032
_cell_length_c 13.271234
_cell_angle_alpha 90.000000
_cell_angle_beta 90.000000
_cell_angle_gamma 90.000000
_cell_volume 7046.557277
_symmetry_space_group_name_H-M "F M M M"
_symmetry_group_IT_number 69
_symmetry_cell_setting 'orthorhombic'
loop_
_space_group_symop_operation_xyz
x,y,z
-x,-y,z
x,-y,-z
-x,y,-z
-x,-y,-z
x,y,-z
-x,y,z
x,-y,z
x,1/2+y,1/2+z
-x,1/2-y,1/2+z
x,1/2-y,1/2-z
-x,1/2+y,1/2-z
-x,1/2-y,1/2-z
x,1/2+y,1/2-z
-x,1/2+y,1/2+z
x,1/2-y,1/2+z
1/2+x,y,1/2+z
1/2-x,-y,1/2+z
1/2+x,-y,1/2-z
1/2-x,y,1/2-z
1/2-x,-y,1/2-z
1/2+x,y,1/2-z
1/2-x,y,1/2+z
1/2+x,-y,1/2+z
1/2+x,1/2+y,z
1/2-x,1/2-y,z
1/2+x,1/2-y,-z
1/2-x,1/2+y,-z
1/2-x,1/2-y,-z
1/2+x,1/2+y,-z
1/2-x,1/2+y,z
1/2+x,1/2-y,z
loop_
_atom_site_type_symbol
_atom_site_label
_atom_site_fract_x
_atom_site_fract_y
_atom_site_fract_z
Si Si1 0.765962 0.000000 0.384314
Si Si2 0.919467 0.000000 0.670562
Si Si3 0.792738 0.831461 0.383895
Si Si4 0.250000 0.250000 0.750000
Si Si5 0.169145 0.092885 0.116651
Si Si6 0.080789 0.398290 0.817133
O O1 0.832579 0.000000 0.306017
O O2 0.718999 0.046875 0.376610
O O3 0.795479 0.000000 0.500000
O O4 0.921293 0.948047 0.626242
O O5 0.000000 0.000000 0.726892
O O6 0.789082 0.818470 0.500000
O O7 0.795471 0.785131 0.318438
O O8 0.721280 0.862911 0.362381
O O9 0.861019 0.864326 0.364572
O O10 0.108091 0.091195 0.202601
O O11 0.143366 0.095633 0.000000
O O12 0.000000 0.378895 0.816310
#
# Coordination Sequence:
#
# PCOD9511742 Si02
#       6
#    16  16  32   8  32  32
#     4  10  19  32  56  86 120 162 208 255 294 346
#     4  10  21  32  52  88 128 169 203 237 295 364
#     4  11  23  40  65  92 117 152 199 252 306 359
#     4  12  22  44  70  92 116 148 204 264 308 360
#     4  10  20  36  59  88 119 159 207 249 295 355
#     4  11  22  38  59  89 129 165 198 245 301 360
#
# _framework density 19.300204999999998
#
# number of rings (size 3 to 8) (size 9 to 14) (size 15 to 20)
#    0.000    1.412    4.706    1.059    0.000    2.118 
#    0.000    2.941    0.000    4.235    0.000    0.000 
#    0.000    0.000    0.000    0.000    0.000    0.000 
#
# Total GULP energy -189382.319582 kJ/mol
# GULP energy per Si atom -5570.068223 kJ/mol
# Density = 1.925628 g / cm^3
# Si number density = 19.300205 Si / 1000 Ang^3
#
#
#
# Elastic Constant Matrix: (Units=GPa)
#
#
# Indices 1 2 3 4 5 6 
#
# 1 59.6686 16.2134 12.0638 0.0000 0.0000 0.0000
# 2 16.2134 126.8888 31.0245 0.0000 0.0000 0.0000
# 3 12.0638 31.0245 92.9900 0.0000 0.0000 0.0000
# 4 0.0000 0.0000 0.0000 11.0418 0.0000 0.0000
# 5 0.0000 0.0000 0.0000 0.0000 8.8461 0.0000
# 6 0.0000 0.0000 0.0000 0.0000 0.0000 12.7113
#
#
#
# Elastic Compliance Matrix: (Units=1/GPa)
#
#
# Indices 1 2 3 4 5 6 
#
# 1 0.017597 -0.001840 -0.001669 0.000000 0.000000 0.000000
# 2 -0.001840 0.008773 -0.002688 0.000000 0.000000 0.000000
# 3 -0.001669 -0.002688 0.011867 0.000000 0.000000 0.000000
# 4 0.000000 0.000000 0.000000 0.090565 0.000000 0.000000
# 5 0.000000 0.000000 0.000000 0.000000 0.113044 0.000000
# 6 0.000000 0.000000 0.000000 0.000000 0.000000 0.078670
#
#
# Mechanical properties :
#
#
# Convention : Reuss Voigt Hill
#
# Bulk Modulus (GPa) = 38.69639 44.23899 41.46769
# Shear Modulus (GPa) = 14.64019 21.20290 17.92154
#
# Velocity S-wave (km/s) = 2.75717 3.31809 3.05055
# Velocity P-wave (km/s) = 5.49811 6.13603 5.82581
#
# Compressibility (1/GPa) = 0.02584220
#
# Stress axis : x y z
#
# Youngs Moduli (GPa) = 56.82881 113.98119 84.26542
#
# Poissons Ratio (x) = 0.20977 0.14062
# Poissons Ratio (y) = 0.10459 0.22653
# Poissons Ratio (z) = 0.09484 0.30642
#
# Static dielectric constant tensor:
#      x y z
#    x 1.682890 0.000000 0.000000 
#    y 0.000000 1.648380 0.000000 
#    z 0.000000 0.000000 1.742710 
# 
# From -- ./inp_files/16636.got.cif
#   From: 2010.05.17/outbox.cif.g08.bks.cpg/sg69_9_cif.got.tgz:16636.got - 2010.06.03 19:29:58.
