data_PCOD9511216
_publ_section_title
;
Structure prediction by ZEFSAII (Michael W. Deem and Ramdas Pophale) SiO2 
 PCOD9511216
Probable space group: F M M M
;
_chemical_formula_sum "Si O2"
_cell_formula_units_Z 192
_cell_length_a 14.417433
_cell_length_b 27.310149
_cell_length_c 26.024422
_cell_angle_alpha 90.000000
_cell_angle_beta 90.000000
_cell_angle_gamma 90.000000
_cell_volume 10246.914302
_symmetry_space_group_name_H-M "F M M M"
_symmetry_group_IT_number 69
_symmetry_cell_setting 'orthorhombic'
loop_
_space_group_symop_operation_xyz
x,y,z
-x,-y,z
x,-y,-z
-x,y,-z
-x,-y,-z
x,y,-z
-x,y,z
x,-y,z
x,1/2+y,1/2+z
-x,1/2-y,1/2+z
x,1/2-y,1/2-z
-x,1/2+y,1/2-z
-x,1/2-y,1/2-z
x,1/2+y,1/2-z
-x,1/2+y,1/2+z
x,1/2-y,1/2+z
1/2+x,y,1/2+z
1/2-x,-y,1/2+z
1/2+x,-y,1/2-z
1/2-x,y,1/2-z
1/2-x,-y,1/2-z
1/2+x,y,1/2-z
1/2-x,y,1/2+z
1/2+x,-y,1/2+z
1/2+x,1/2+y,z
1/2-x,1/2-y,z
1/2+x,1/2-y,-z
1/2-x,1/2+y,-z
1/2-x,1/2-y,-z
1/2+x,1/2+y,-z
1/2-x,1/2+y,z
1/2+x,1/2-y,z
loop_
_atom_site_type_symbol
_atom_site_label
_atom_site_fract_x
_atom_site_fract_y
_atom_site_fract_z
Si Si1 0.361748 0.000000 0.745268
Si Si2 0.887721 0.726666 0.413888
Si Si3 0.392461 0.106651 0.866766
Si Si4 0.608397 0.783988 0.295934
Si Si5 0.288915 0.325881 0.443599
Si Si6 0.105195 0.000000 0.365355
Si Si7 0.360284 0.108285 0.746162
O O1 0.250000 0.000000 0.750000
O O2 0.388897 0.054234 0.724517
O O3 0.397825 0.000000 0.803510
O O4 0.859643 0.727904 0.353402
O O5 0.820367 0.685412 0.437335
O O6 0.849272 0.776057 0.439565
O O7 0.000000 0.721186 0.419007
O O8 0.500000 0.111612 0.883585
O O9 0.326907 0.143185 0.896326
O O10 0.393419 0.113130 0.805181
O O11 0.354447 0.052236 0.879079
O O12 0.500000 0.771790 0.298063
O O13 0.647606 0.750000 0.250000
O O14 0.615838 0.841894 0.283594
O O15 0.305680 0.347912 0.500000
O O16 0.000000 0.000000 0.384702
O O17 0.250000 0.107019 0.750000
#
# Coordination Sequence:
#
# PCOD9511216 Si02
#       7
#    16  32  32  32  32  16  32
#     4   8  16  28  44  69  99 135 172 208 247 289
#     4  10  21  37  54  74 105 138 170 214 263 310
#     4  10  19  33  53  78 109 141 173 213 263 316
#     4  10  20  32  47  71 102 135 169 204 246 299
#     4  11  23  37  55  78 100 131 178 222 266 319
#     4   8  16  30  49  74 104 137 169 206 259 318
#     4  10  18  30  49  73 104 139 176 211 247 300
#
# _framework density 18.737348000000001
#
# number of rings (size 3 to 8) (size 9 to 14) (size 15 to 20)
#    0.000    2.167    0.000    4.000    0.000    6.000 
#    0.000    0.417    0.000    1.500    0.000    0.583 
#    0.000    1.333    0.000    0.000    0.000    0.500 
#
# Total GULP energy -267277.696863 kJ/mol
# GULP energy per Si atom -5568.285351 kJ/mol
# Density = 1.869470 g / cm^3
# Si number density = 18.737348 Si / 1000 Ang^3
#
#
#
# Elastic Constant Matrix: (Units=GPa)
#
#
# Indices 1 2 3 4 5 6 
#
# 1 99.5782 10.3327 14.8536 0.0000 0.0000 0.0000
# 2 10.3327 71.9320 15.7308 0.0000 0.0000 0.0000
# 3 14.8536 15.7308 62.5414 0.0000 0.0000 0.0000
# 4 0.0000 0.0000 0.0000 -52.6968 0.0000 0.0000
# 5 0.0000 0.0000 0.0000 0.0000 17.2018 0.0000
# 6 0.0000 0.0000 0.0000 0.0000 0.0000 6.8345
#
#
#
# Elastic Compliance Matrix: (Units=1/GPa)
#
#
# Indices 1 2 3 4 5 6 
#
# 1 0.010481 -0.001017 -0.002233 0.000000 0.000000 0.000000
# 2 -0.001017 0.014810 -0.003484 0.000000 0.000000 0.000000
# 3 -0.002233 -0.003484 0.017396 0.000000 0.000000 0.000000
# 4 0.000000 0.000000 0.000000 -0.018976 0.000000 0.000000
# 5 0.000000 0.000000 0.000000 0.000000 0.058133 0.000000
# 6 0.000000 0.000000 0.000000 0.000000 0.000000 0.146317
#
#
# Mechanical properties :
#
#
# Convention : Reuss Voigt Hill
#
# Bulk Modulus (GPa) = 34.22443 35.09843 34.66143
# Shear Modulus (GPa) = 19.89113 7.14354 13.51734
#
# Velocity S-wave (km/s) = 3.26172 1.95467 2.68882
# Velocity P-wave (km/s) = 5.70001 4.88536 5.30834
#
# Compressibility (1/GPa) = 0.02921889
#
# Stress axis : x y z
#
# Youngs Moduli (GPa) = 95.41032 67.52226 57.48434
#
# Poissons Ratio (x) = 0.06868 0.12839
# Poissons Ratio (y) = 0.09705 0.20025
# Poissons Ratio (z) = 0.21309 0.23521
#
# Static dielectric constant tensor:
#      x y z
#    x 1.678090 0.000000 0.000000 
#    y 0.000000 1.715400 0.000000 
#    z 0.000000 0.000000 1.649990 
# 
# From -- ./inp_files/36106.got.cif
#   From: 2010.05.17/outbox.cif.g08.bks.cpg/sg69_19_cif.got.tgz:36106.got - 2010.06.03 19:29:58.
