data_PCOD9511056
_publ_section_title
;
Structure prediction by ZEFSAII (Michael W. Deem and Ramdas Pophale) SiO2 
 PCOD9511056
Probable space group: F M M M
;
_chemical_formula_sum "Si O2"
_cell_formula_units_Z 112
_cell_length_a 15.258533
_cell_length_b 38.033331
_cell_length_c 8.767486
_cell_angle_alpha 90.000000
_cell_angle_beta 90.000000
_cell_angle_gamma 90.000000
_cell_volume 5088.060016
_symmetry_space_group_name_H-M "F M M M"
_symmetry_group_IT_number 69
_symmetry_cell_setting 'orthorhombic'
loop_
_space_group_symop_operation_xyz
x,y,z
-x,-y,z
x,-y,-z
-x,y,-z
-x,-y,-z
x,y,-z
-x,y,z
x,-y,z
x,1/2+y,1/2+z
-x,1/2-y,1/2+z
x,1/2-y,1/2-z
-x,1/2+y,1/2-z
-x,1/2-y,1/2-z
x,1/2+y,1/2-z
-x,1/2+y,1/2+z
x,1/2-y,1/2+z
1/2+x,y,1/2+z
1/2-x,-y,1/2+z
1/2+x,-y,1/2-z
1/2-x,y,1/2-z
1/2-x,-y,1/2-z
1/2+x,y,1/2-z
1/2-x,y,1/2+z
1/2+x,-y,1/2+z
1/2+x,1/2+y,z
1/2-x,1/2-y,z
1/2+x,1/2-y,-z
1/2-x,1/2+y,-z
1/2-x,1/2-y,-z
1/2+x,1/2+y,-z
1/2-x,1/2+y,z
1/2+x,1/2-y,z
loop_
_atom_site_type_symbol
_atom_site_label
_atom_site_fract_x
_atom_site_fract_y
_atom_site_fract_z
Si Si1 0.652691 0.356893 0.319113
Si Si2 0.849708 0.714133 0.682861
Si Si3 0.396335 0.928536 0.669664
Si Si4 0.392248 0.000000 0.824519
O O1 0.654247 0.351923 0.500000
O O2 0.750000 0.358671 0.250000
O O3 0.609982 0.322486 0.241319
O O4 0.613620 0.394318 0.273588
O O5 0.847279 0.715265 0.500000
O O6 0.889701 0.750000 0.750000
O O7 0.750000 0.713597 0.750000
O O8 0.359121 0.921946 0.500000
O O9 0.500000 0.934127 0.654284
O O10 0.361500 0.964482 0.742103
O O11 0.500000 0.000000 0.823190
O O12 0.365106 0.000000 0.000000
#
# Coordination Sequence:
#
# PCOD9511056 Si02
#       4
#    32  32  32  16
#     4  11  21  34  52  76 106 137 171 211 257 304
#     4  10  17  28  46  70  99 131 169 209 251 297
#     4  10  20  35  55  78 104 135 171 210 253 302
#     4   9  17  31  52  77 102 131 170 211 249 295
#
# _framework density 22.012319000000002
#
# number of rings (size 3 to 8) (size 9 to 14) (size 15 to 20)
#    0.000    1.857    0.000    9.000    0.000    3.429 
#    0.000    0.714    0.000    0.857    0.000    0.000 
#    0.000    0.000    0.000    0.000    0.000    0.000 
#
# Total GULP energy -156381.742158 kJ/mol
# GULP energy per Si atom -5585.062220 kJ/mol
# Density = 2.196222 g / cm^3
# Si number density = 22.012319 Si / 1000 Ang^3
#
#
#
# Elastic Constant Matrix: (Units=GPa)
#
#
# Indices 1 2 3 4 5 6 
#
# 1 29.6821 10.7362 8.5310 0.0000 0.0000 0.0000
# 2 10.7362 215.1529 92.0039 0.0000 0.0000 0.0000
# 3 8.5310 92.0039 231.4025 0.0000 0.0000 0.0000
# 4 0.0000 0.0000 0.0000 1.7813 0.0000 0.0000
# 5 0.0000 0.0000 0.0000 0.0000 11.3277 0.0000
# 6 0.0000 0.0000 0.0000 0.0000 0.0000 2.0435
#
#
#
# Elastic Compliance Matrix: (Units=1/GPa)
#
#
# Indices 1 2 3 4 5 6 
#
# 1 0.034405 -0.001415 -0.000706 0.000000 0.000000 0.000000
# 2 -0.001415 0.005658 -0.002197 0.000000 0.000000 0.000000
# 3 -0.000706 -0.002197 0.005221 0.000000 0.000000 0.000000
# 4 0.000000 0.000000 0.000000 0.561374 0.000000 0.000000
# 5 0.000000 0.000000 0.000000 0.000000 0.088279 0.000000
# 6 0.000000 0.000000 0.000000 0.000000 0.000000 0.489351
#
#
# Mechanical properties :
#
#
# Convention : Reuss Voigt Hill
#
# Bulk Modulus (GPa) = 27.28680 77.64219 52.46449
# Shear Modulus (GPa) = 4.14889 27.36161 15.75525
#
# Velocity S-wave (km/s) = 1.37437 3.52946 2.67825
# Velocity P-wave (km/s) = 3.86544 7.20821 5.78359
#
# Compressibility (1/GPa) = 0.03664776
#
# Stress axis : x y z
#
# Youngs Moduli (GPa) = 29.06558 176.73613 191.52705
#
# Poissons Ratio (x) = 0.25008 0.13518
# Poissons Ratio (y) = 0.04113 0.42088
# Poissons Ratio (z) = 0.02051 0.38837
#
# Static dielectric constant tensor:
#      x y z
#    x 1.858570 0.000000 0.000000 
#    y 0.000000 1.862580 0.000000 
#    z 0.000000 0.000000 1.771760 
# 
# From -- ./inp_files/3976.got.cif
#   From: 2010.05.17/outbox.cif.g08.bks.cpg/sg69_2_cif.got.tgz:3976.got - 2010.06.03 19:29:58.
