data_PCOD9511138
_publ_section_title
;
Structure prediction by ZEFSAII (Michael W. Deem and Ramdas Pophale) SiO2 
 PCOD9511138
Probable space group: F M M M
;
_chemical_formula_sum "Si O2"
_cell_formula_units_Z 176
_cell_length_a 28.893327
_cell_length_b 28.976697
_cell_length_c 10.365618
_cell_angle_alpha 90.000000
_cell_angle_beta 90.000000
_cell_angle_gamma 90.000000
_cell_volume 8678.439339
_symmetry_space_group_name_H-M "F M M M"
_symmetry_group_IT_number 69
_symmetry_cell_setting 'orthorhombic'
loop_
_space_group_symop_operation_xyz
x,y,z
-x,-y,z
x,-y,-z
-x,y,-z
-x,-y,-z
x,y,-z
-x,y,z
x,-y,z
x,1/2+y,1/2+z
-x,1/2-y,1/2+z
x,1/2-y,1/2-z
-x,1/2+y,1/2-z
-x,1/2-y,1/2-z
x,1/2+y,1/2-z
-x,1/2+y,1/2+z
x,1/2-y,1/2+z
1/2+x,y,1/2+z
1/2-x,-y,1/2+z
1/2+x,-y,1/2-z
1/2-x,y,1/2-z
1/2-x,-y,1/2-z
1/2+x,y,1/2-z
1/2-x,y,1/2+z
1/2+x,-y,1/2+z
1/2+x,1/2+y,z
1/2-x,1/2-y,z
1/2+x,1/2-y,-z
1/2-x,1/2+y,-z
1/2-x,1/2-y,-z
1/2+x,1/2+y,-z
1/2-x,1/2+y,z
1/2+x,1/2-y,z
loop_
_atom_site_type_symbol
_atom_site_label
_atom_site_fract_x
_atom_site_fract_y
_atom_site_fract_z
Si Si1 0.083425 0.821522 0.500000
Si Si2 0.848868 0.447998 0.649062
Si Si3 0.948129 0.077059 0.500000
Si Si4 0.209870 0.363690 0.651481
Si Si5 0.447082 0.553882 0.782745
Si Si6 0.876021 0.803431 0.225552
Si Si7 0.553902 0.714832 0.000000
O O1 0.052911 0.867592 0.500000
O O2 0.111727 0.823699 0.633834
O O3 0.059180 0.771103 0.500000
O O4 0.836082 0.452257 0.500000
O O5 0.849018 0.500000 0.705095
O O6 0.812059 0.412011 0.702404
O O7 0.901409 0.427750 0.647677
O O8 0.930345 0.058862 0.634940
O O9 0.000000 0.058970 0.500000
O O10 0.224041 0.366665 0.500000
O O11 0.250000 0.349811 0.750000
O O12 0.167062 0.328635 0.661903
O O13 0.500000 0.573041 0.797707
O O14 0.450683 0.500000 0.818735
O O15 0.864584 0.750000 0.250000
O O16 0.919562 0.803385 0.127223
O O17 0.500000 0.702807 0.000000
#
# Coordination Sequence:
#
# PCOD9511138 Si02
#       7
#    16  32  16  32  32  32  16
#     4  10  21  33  59  86 120 156 200 247 292 353
#     4   9  19  37  60  84 117 155 192 244 300 357
#     4  10  18  28  44  72 110 149 193 237 277 325
#     4  11  24  43  66  90 121 157 203 258 318 371
#     4   9  17  30  50  78 114 156 196 234 286 351
#     4  10  22  41  62  92 125 160 203 255 300 365
#     4  10  21  40  62  87 126 171 202 239 304 366
#
# _framework density 20.280142999999999
#
# number of rings (size 3 to 8) (size 9 to 14) (size 15 to 20)
#    0.000    2.182    0.909    1.636    1.273    6.182 
#    1.636    3.636    0.000    0.000    0.000    0.000 
#    0.000    0.000    0.000    0.000    0.000    0.000 
#
# Total GULP energy -245048.977721 kJ/mol
# GULP energy per Si atom -5569.294948 kJ/mol
# Density = 2.023398 g / cm^3
# Si number density = 20.280143 Si / 1000 Ang^3
#
#
#
# Elastic Constant Matrix: (Units=GPa)
#
#
# Indices 1 2 3 4 5 6 
#
# 1 98.4589 26.1504 34.8723 -0.0002 -0.0005 -0.0001
# 2 26.1504 37.4700 10.3011 -0.0024 0.0002 0.0010
# 3 34.8723 10.3011 99.2372 -0.0023 -0.0037 0.0002
# 4 -0.0002 -0.0024 -0.0023 6.7300 -0.0007 0.0005
# 5 -0.0005 0.0002 -0.0037 -0.0007 14.6933 0.0005
# 6 -0.0001 0.0010 0.0002 0.0005 0.0005 20.6621
#
#
#
# Elastic Compliance Matrix: (Units=1/GPa)
#
#
# Indices 1 2 3 4 5 6 
#
# 1 0.013839 -0.008566 -0.003974 -0.000004 0.000000 0.000000
# 2 -0.008566 0.032774 -0.000392 0.000011 -0.000001 -0.000002
# 3 -0.003974 -0.000392 0.011514 0.000004 0.000003 0.000000
# 4 -0.000004 0.000011 0.000004 0.148588 0.000007 -0.000004
# 5 0.000000 -0.000001 0.000003 0.000007 0.068058 -0.000002
# 6 0.000000 -0.000002 0.000000 -0.000004 -0.000002 0.048398
#
#
# Mechanical properties :
#
#
# Convention : Reuss Voigt Hill
#
# Bulk Modulus (GPa) = 30.99478 41.97933 36.48705
# Shear Modulus (GPa) = 13.89701 19.33988 16.61845
#
# Velocity S-wave (km/s) = 2.62057 3.09145 2.86570
# Velocity P-wave (km/s) = 4.94702 5.78683 5.38333
#
# Compressibility (1/GPa) = 0.03226350
#
# Stress axis : x y z
#
# Youngs Moduli (GPa) = 72.25906 30.51208 86.85072
#
# Poissons Ratio (x) = 0.26136 0.34514
# Poissons Ratio (y) = 0.61896 0.03404
# Poissons Ratio (z) = 0.28715 0.01196
#
# Static dielectric constant tensor:
#      x y z
#    x 1.706910 0.000000 0.000000 
#    y 0.000000 1.773140 0.000000 
#    z 0.000000 0.000000 2.359270 
# 
# From -- ./inp_files/11595.got.cif
#   From: 2010.05.17/outbox.cif.g08.bks.cpg/sg69_6_cif.got.tgz:11595.got - 2010.06.03 19:29:58.
