data_PCOD9511386
_publ_section_title
;
Structure prediction by ZEFSAII (Michael W. Deem and Ramdas Pophale) SiO2 
 PCOD9511386
Probable space group: F M M M
;
_chemical_formula_sum "Si O2"
_cell_formula_units_Z 136
_cell_length_a 24.090891
_cell_length_b 19.291311
_cell_length_c 14.723496
_cell_angle_alpha 90.000000
_cell_angle_beta 90.000000
_cell_angle_gamma 90.000000
_cell_volume 6842.669243
_symmetry_space_group_name_H-M "F M M M"
_symmetry_group_IT_number 69
_symmetry_cell_setting 'orthorhombic'
loop_
_space_group_symop_operation_xyz
x,y,z
-x,-y,z
x,-y,-z
-x,y,-z
-x,-y,-z
x,y,-z
-x,y,z
x,-y,z
x,1/2+y,1/2+z
-x,1/2-y,1/2+z
x,1/2-y,1/2-z
-x,1/2+y,1/2-z
-x,1/2-y,1/2-z
x,1/2+y,1/2-z
-x,1/2+y,1/2+z
x,1/2-y,1/2+z
1/2+x,y,1/2+z
1/2-x,-y,1/2+z
1/2+x,-y,1/2-z
1/2-x,y,1/2-z
1/2-x,-y,1/2-z
1/2+x,y,1/2-z
1/2-x,y,1/2+z
1/2+x,-y,1/2+z
1/2+x,1/2+y,z
1/2-x,1/2-y,z
1/2+x,1/2-y,-z
1/2-x,1/2+y,-z
1/2-x,1/2-y,-z
1/2+x,1/2+y,-z
1/2-x,1/2+y,z
1/2+x,1/2-y,z
loop_
_atom_site_type_symbol
_atom_site_label
_atom_site_fract_x
_atom_site_fract_y
_atom_site_fract_z
Si Si1 0.834840 0.857892 0.000000
Si Si2 0.338346 0.241811 0.847564
Si Si3 0.062885 0.638091 0.192398
Si Si4 0.936124 0.000000 0.206425
Si Si5 0.403376 0.500000 0.000000
Si Si6 0.912656 0.579446 0.000000
Si Si7 0.706507 0.643378 0.500000
O O1 0.846886 0.809765 0.910791
O O2 0.769931 0.879039 0.000000
O O3 0.869056 0.928420 0.000000
O O4 0.310721 0.250000 0.750000
O O5 0.395159 0.201886 0.819649
O O6 0.303491 0.191168 0.912159
O O7 0.086033 0.573061 0.252583
O O8 0.062001 0.611105 0.089844
O O9 0.000000 0.655588 0.223148
O O10 0.000000 0.000000 0.237709
O O11 0.933897 0.000000 0.097483
O O12 0.845657 0.591342 0.000000
O O13 0.924867 0.500000 0.000000
#
# Coordination Sequence:
#
# PCOD9511386 Si02
#       7
#    16  32  32  16   8  16  16
#     4  11  24  41  59  83 114 153 198 246 289 339
#     4  10  20  38  61  83 116 153 191 238 288 341
#     4  10  20  34  58  92 121 149 186 232 288 349
#     4  10  21  39  59  83 120 157 189 226 282 353
#     4  12  25  42  60  80 112 156 203 238 282 340
#     4  10  18  32  57  84 120 144 176 230 288 342
#     4   9  22  37  57  84 109 147 192 237 289 339
#
# _framework density 19.875284000000001
#
# number of rings (size 3 to 8) (size 9 to 14) (size 15 to 20)
#    0.000    1.882    1.176    4.059    0.824    2.824 
#    0.000    2.353    0.000    4.235    0.000    0.000 
#    0.000    0.000    0.000    0.000    0.000    0.000 
#
# Total GULP energy -189473.935355 kJ/mol
# GULP energy per Si atom -5572.762805 kJ/mol
# Density = 1.983005 g / cm^3
# Si number density = 19.875284 Si / 1000 Ang^3
#
#
#
# Elastic Constant Matrix: (Units=GPa)
#
#
# Indices 1 2 3 4 5 6 
#
# 1 95.0402 30.6803 3.9425 0.0000 0.0000 0.0000
# 2 30.6803 65.6709 23.3940 0.0000 0.0000 0.0000
# 3 3.9425 23.3940 147.6219 0.0000 0.0000 0.0000
# 4 0.0000 0.0000 0.0000 25.0618 0.0000 0.0000
# 5 0.0000 0.0000 0.0000 0.0000 -16.7439 0.0000
# 6 0.0000 0.0000 0.0000 0.0000 0.0000 -0.8270
#
#
#
# Elastic Compliance Matrix: (Units=1/GPa)
#
#
# Indices 1 2 3 4 5 6 
#
# 1 0.012445 -0.006036 0.000624 0.000000 0.000000 0.000000
# 2 -0.006036 0.019066 -0.002860 0.000000 0.000000 0.000000
# 3 0.000624 -0.002860 0.007211 0.000000 0.000000 0.000000
# 4 0.000000 0.000000 0.000000 0.039901 0.000000 0.000000
# 5 0.000000 0.000000 0.000000 0.000000 -0.059723 0.000000
# 6 0.000000 0.000000 0.000000 0.000000 0.000000 -1.209230
#
#
# Mechanical properties :
#
#
# Convention : Reuss Voigt Hill
#
# Bulk Modulus (GPa) = 45.09179 47.15186 46.12183
# Shear Modulus (GPa) = -4.28672 18.18592 6.94960
#
# Velocity S-wave (km/s) = -1.47020 3.02818 1.87195
# Velocity P-wave (km/s) = 4.45585 6.00016 5.28472
#
# Compressibility (1/GPa) = 0.02217699
#
# Stress axis : x y z
#
# Youngs Moduli (GPa) = 80.35640 52.44829 138.68338
#
# Poissons Ratio (x) = 0.31659 -0.08657
# Poissons Ratio (y) = 0.48505 0.39667
# Poissons Ratio (z) = -0.05016 0.15002
#
# Static dielectric constant tensor:
#      x y z
#    x 1.730090 0.000000 0.000000 
#    y 0.000000 1.710700 0.000000 
#    z 0.000000 0.000000 1.668710 
# 
# From -- ./inp_files/16671.got.cif
#   From: 2010.05.17/outbox.cif.g08.bks.cpg/sg69_9_cif.got.tgz:16671.got - 2010.06.03 19:29:58.
