data_PCOD9511417
_publ_section_title
;
Structure prediction by ZEFSAII (Michael W. Deem and Ramdas Pophale) SiO2 
 PCOD9511417
Probable space group: F M M M
;
_chemical_formula_sum "Si O2"
_cell_formula_units_Z 100
_cell_length_a 23.263678
_cell_length_b 25.026120
_cell_length_c 8.646565
_cell_angle_alpha 90.000000
_cell_angle_beta 90.000000
_cell_angle_gamma 90.000000
_cell_volume 5034.026661
_symmetry_space_group_name_H-M "F M M M"
_symmetry_group_IT_number 69
_symmetry_cell_setting 'orthorhombic'
loop_
_space_group_symop_operation_xyz
x,y,z
-x,-y,z
x,-y,-z
-x,y,-z
-x,-y,-z
x,y,-z
-x,y,z
x,-y,z
x,1/2+y,1/2+z
-x,1/2-y,1/2+z
x,1/2-y,1/2-z
-x,1/2+y,1/2-z
-x,1/2-y,1/2-z
x,1/2+y,1/2-z
-x,1/2+y,1/2+z
x,1/2-y,1/2+z
1/2+x,y,1/2+z
1/2-x,-y,1/2+z
1/2+x,-y,1/2-z
1/2-x,y,1/2-z
1/2-x,-y,1/2-z
1/2+x,y,1/2-z
1/2-x,y,1/2+z
1/2+x,-y,1/2+z
1/2+x,1/2+y,z
1/2-x,1/2-y,z
1/2+x,1/2-y,-z
1/2-x,1/2+y,-z
1/2-x,1/2-y,-z
1/2+x,1/2+y,-z
1/2-x,1/2+y,z
1/2+x,1/2-y,z
loop_
_atom_site_type_symbol
_atom_site_label
_atom_site_fract_x
_atom_site_fract_y
_atom_site_fract_z
Si Si1 0.188136 0.905412 0.815905
Si Si2 0.000000 0.500000 0.000000
Si Si3 0.000000 0.189297 0.185464
Si Si4 0.879688 0.189965 0.315146
Si Si5 0.618986 0.500000 0.328390
O O1 0.250000 0.921696 0.750000
O O2 0.170055 0.848534 0.744315
O O3 0.141136 0.948227 0.760951
O O4 0.189952 0.902079 0.000000
O O5 0.948416 0.500000 0.132676
O O6 0.000000 0.250000 0.250000
O O7 0.940455 0.166805 0.251162
O O8 0.000000 0.189310 0.000000
O O9 0.881993 0.191709 0.500000
O O10 0.873173 0.250000 0.250000
O O11 0.647397 0.500000 0.500000
#
# Coordination Sequence:
#
# PCOD9511417 Si02
#       5
#    32   4  16  32  16
#     4  12  25  43  67  98 133 179 231 278 335 403
#     4   8  24  44  78 100 140 164 218 266 340 398
#     4  10  18  33  56  85 120 166 218 273 330 395
#     4  11  22  39  61  92 132 177 229 284 341 399
#     4  10  22  46  70 100 131 170 216 271 335 398
#
# _framework density 19.864813000000002
#
# number of rings (size 3 to 8) (size 9 to 14) (size 15 to 20)
#    0.480    0.640    0.000   10.080    0.000    1.920 
#    0.000    6.400    0.000    0.000    0.000    0.000 
#    0.000    0.000    0.000    0.000    0.000    0.000 
#
# Total GULP energy -139420.966206 kJ/mol
# GULP energy per Si atom -5576.838648 kJ/mol
# Density = 1.981960 g / cm^3
# Si number density = 19.864813 Si / 1000 Ang^3
#
#
#
# Elastic Constant Matrix: (Units=GPa)
#
#
# Indices 1 2 3 4 5 6 
#
# 1 136.0619 40.9109 51.3435 0.0002 -0.0002 0.0009
# 2 40.9109 83.9779 41.6517 0.0003 -0.0002 0.0006
# 3 51.3435 41.6517 224.7056 0.0009 -0.0012 0.0031
# 4 0.0002 0.0003 0.0009 24.5701 -0.0005 0.0012
# 5 -0.0002 -0.0002 -0.0012 -0.0005 33.0392 -0.0015
# 6 0.0009 0.0006 0.0031 0.0012 -0.0015 20.9265
#
#
#
# Elastic Compliance Matrix: (Units=1/GPa)
#
#
# Indices 1 2 3 4 5 6 
#
# 1 0.008976 -0.003695 -0.001366 0.000000 0.000000 0.000000
# 2 -0.003695 0.014635 -0.001868 0.000000 0.000000 0.000000
# 3 -0.001366 -0.001868 0.005109 0.000000 0.000000 -0.000001
# 4 0.000000 0.000000 0.000000 0.040700 0.000001 -0.000002
# 5 0.000000 0.000000 0.000000 0.000001 0.030267 0.000002
# 6 0.000000 0.000000 -0.000001 -0.000002 0.000002 0.047786
#
#
# Mechanical properties :
#
#
# Convention : Reuss Voigt Hill
#
# Bulk Modulus (GPa) = 67.29362 79.17307 73.23334
# Shear Modulus (GPa) = 30.06870 36.42978 33.24924
#
# Velocity S-wave (km/s) = 3.89481 4.28703 4.09562
# Velocity P-wave (km/s) = 7.36039 8.02791 7.70139
#
# Compressibility (1/GPa) = 0.01486025
#
# Stress axis : x y z
#
# Youngs Moduli (GPa) = 111.40599 68.33026 195.74399
#
# Poissons Ratio (x) = 0.25250 0.26739
# Poissons Ratio (y) = 0.41168 0.36572
# Poissons Ratio (z) = 0.15218 0.12767
#
# Static dielectric constant tensor:
#      x y z
#    x 1.747040 0.000000 0.000000 
#    y 0.000000 1.764960 0.000000 
#    z 0.000000 0.000000 1.661610 
# 
# From -- ./inp_files/2992.got.cif
#   From: 2010.05.17/outbox.cif.g08.bks.cpg/sg69_2_cif.got.tgz:2992.got - 2010.06.03 19:29:58.
