data_PCOD9511971
_publ_section_title
;
Structure prediction by ZEFSAII (Michael W. Deem and Ramdas Pophale) SiO2 
 PCOD9511971
Probable space group: F M M M
;
_chemical_formula_sum "Si O2"
_cell_formula_units_Z 160
_cell_length_a 18.012049
_cell_length_b 30.996484
_cell_length_c 14.963539
_cell_angle_alpha 90.000000
_cell_angle_beta 90.000000
_cell_angle_gamma 90.000000
_cell_volume 8354.296282
_symmetry_space_group_name_H-M "F M M M"
_symmetry_group_IT_number 69
_symmetry_cell_setting 'orthorhombic'
loop_
_space_group_symop_operation_xyz
x,y,z
-x,-y,z
x,-y,-z
-x,y,-z
-x,-y,-z
x,y,-z
-x,y,z
x,-y,z
x,1/2+y,1/2+z
-x,1/2-y,1/2+z
x,1/2-y,1/2-z
-x,1/2+y,1/2-z
-x,1/2-y,1/2-z
x,1/2+y,1/2-z
-x,1/2+y,1/2+z
x,1/2-y,1/2+z
1/2+x,y,1/2+z
1/2-x,-y,1/2+z
1/2+x,-y,1/2-z
1/2-x,y,1/2-z
1/2-x,-y,1/2-z
1/2+x,y,1/2-z
1/2-x,y,1/2+z
1/2+x,-y,1/2+z
1/2+x,1/2+y,z
1/2-x,1/2-y,z
1/2+x,1/2-y,-z
1/2-x,1/2+y,-z
1/2-x,1/2-y,-z
1/2+x,1/2+y,-z
1/2-x,1/2+y,z
1/2+x,1/2-y,z
loop_
_atom_site_type_symbol
_atom_site_label
_atom_site_fract_x
_atom_site_fract_y
_atom_site_fract_z
Si Si1 0.162185 0.755713 0.500000
Si Si2 0.085968 0.684341 0.143641
Si Si3 0.317721 0.047971 0.681623
Si Si4 0.582346 0.391617 0.500000
Si Si5 0.413165 0.369520 0.194816
Si Si6 0.138191 0.844065 0.000000
Si Si7 0.248127 0.916077 0.500000
O O1 0.250000 0.750000 0.500000
O O2 0.133145 0.781587 0.412996
O O3 0.133546 0.707097 0.500000
O O4 0.085511 0.640488 0.084948
O O5 0.114325 0.669266 0.240748
O O6 0.000000 0.699616 0.149224
O O7 0.250000 0.046920 0.750000
O O8 0.372860 0.085411 0.712937
O O9 0.283313 0.061576 0.586535
O O10 0.351212 0.000000 0.676252
O O11 0.500000 0.412734 0.500000
O O12 0.658903 0.417992 0.500000
O O13 0.500000 0.373352 0.213577
O O14 0.399763 0.359793 0.090955
O O15 0.220548 0.866429 0.000000
#
# Coordination Sequence:
#
# PCOD9511971 Si02
#       7
#    16  32  32  16  32  16  16
#     4  11  22  37  56  83 114 144 185 229 270 324
#     4   9  19  35  55  80 111 146 182 228 284 329
#     4  10  21  36  56  82 111 144 181 225 279 336
#     4   9  16  30  54  79 102 139 191 233 272 330
#     4  10  21  38  59  82 109 145 188 230 276 331
#     4  10  22  36  54  82 115 149 186 230 274 327
#     4  10  19  35  55  78 114 150 181 224 280 332
#
# _framework density 19.151823
#
# number of rings (size 3 to 8) (size 9 to 14) (size 15 to 20)
#    0.000    2.200    0.000    3.900    0.000    4.400 
#    0.000    3.000    0.000    6.000    0.000    0.000 
#    0.000    9.600    0.000    0.000    0.000    0.000 
#
# Total GULP energy -223128.816305 kJ/mol
# GULP energy per Si atom -5578.220408 kJ/mol
# Density = 1.910823 g / cm^3
# Si number density = 19.151823 Si / 1000 Ang^3
#
#
#
# Elastic Constant Matrix: (Units=GPa)
#
#
# Indices 1 2 3 4 5 6 
#
# 1 90.2223 49.2733 19.0674 0.0000 0.0000 0.0000
# 2 49.2733 123.7892 37.2772 0.0000 0.0000 0.0000
# 3 19.0674 37.2772 108.4857 0.0000 0.0000 0.0000
# 4 0.0000 0.0000 0.0000 26.4147 0.0000 0.0000
# 5 0.0000 0.0000 0.0000 0.0000 21.4134 0.0000
# 6 0.0000 0.0000 0.0000 0.0000 0.0000 25.3782
#
#
#
# Elastic Compliance Matrix: (Units=1/GPa)
#
#
# Indices 1 2 3 4 5 6 
#
# 1 0.014199 -0.005466 -0.000617 0.000000 0.000000 0.000000
# 2 -0.005466 0.011115 -0.002858 0.000000 0.000000 0.000000
# 3 -0.000617 -0.002858 0.010309 0.000000 0.000000 0.000000
# 4 0.000000 0.000000 0.000000 0.037858 0.000000 0.000000
# 5 0.000000 0.000000 0.000000 0.000000 0.046700 0.000000
# 6 0.000000 0.000000 0.000000 0.000000 0.000000 0.039404
#
#
# Mechanical properties :
#
#
# Convention : Reuss Voigt Hill
#
# Bulk Modulus (GPa) = 56.37381 59.30369 57.83875
# Shear Modulus (GPa) = 27.26568 29.09990 28.18279
#
# Velocity S-wave (km/s) = 3.77724 3.90222 3.84024
# Velocity P-wave (km/s) = 6.96581 7.16487 7.06604
#
# Compressibility (1/GPa) = 0.01773874
#
# Stress axis : x y z
#
# Youngs Moduli (GPa) = 70.42554 89.97065 97.00694
#
# Poissons Ratio (x) = 0.49178 0.05990
# Poissons Ratio (y) = 0.38495 0.27729
# Poissons Ratio (z) = 0.04349 0.25718
#
# Static dielectric constant tensor:
#      x y z
#    x 1.679820 0.000000 0.000000 
#    y 0.000000 1.678640 0.000000 
#    z 0.000000 0.000000 3.925490 
# 
# From -- ./inp_files/15728.got.cif
#   From: 2010.05.17/outbox.cif.g08.bks.cpg/sg69_8_cif.got.tgz:15728.got - 2010.06.03 19:29:58.
