data_PCOD9511775
_publ_section_title
;
Structure prediction by ZEFSAII (Michael W. Deem and Ramdas Pophale) SiO2 
 PCOD9511775
Probable space group: F M M M
;
_chemical_formula_sum "Si O2"
_cell_formula_units_Z 144
_cell_length_a 20.168475
_cell_length_b 21.437120
_cell_length_c 15.396949
_cell_angle_alpha 90.000000
_cell_angle_beta 90.000000
_cell_angle_gamma 90.000000
_cell_volume 6656.932777
_symmetry_space_group_name_H-M "F M M M"
_symmetry_group_IT_number 69
_symmetry_cell_setting 'orthorhombic'
loop_
_space_group_symop_operation_xyz
x,y,z
-x,-y,z
x,-y,-z
-x,y,-z
-x,-y,-z
x,y,-z
-x,y,z
x,-y,z
x,1/2+y,1/2+z
-x,1/2-y,1/2+z
x,1/2-y,1/2-z
-x,1/2+y,1/2-z
-x,1/2-y,1/2-z
x,1/2+y,1/2-z
-x,1/2+y,1/2+z
x,1/2-y,1/2+z
1/2+x,y,1/2+z
1/2-x,-y,1/2+z
1/2+x,-y,1/2-z
1/2-x,y,1/2-z
1/2-x,-y,1/2-z
1/2+x,y,1/2-z
1/2-x,y,1/2+z
1/2+x,-y,1/2+z
1/2+x,1/2+y,z
1/2-x,1/2-y,z
1/2+x,1/2-y,-z
1/2-x,1/2+y,-z
1/2-x,1/2-y,-z
1/2+x,1/2+y,-z
1/2-x,1/2+y,z
1/2+x,1/2-y,z
loop_
_atom_site_type_symbol
_atom_site_label
_atom_site_fract_x
_atom_site_fract_y
_atom_site_fract_z
Si Si1 0.779365 0.569657 0.602471
Si Si2 0.074885 0.345370 0.836458
Si Si3 0.579447 0.931705 0.000000
Si Si4 0.702859 0.307155 0.394437
Si Si5 0.926751 0.927237 0.164220
O O1 0.765369 0.567546 0.500000
O O2 0.764849 0.500000 0.638614
O O3 0.736725 0.627872 0.636414
O O4 0.858417 0.581568 0.612598
O O5 0.093645 0.394086 0.913065
O O6 0.132697 0.296144 0.848106
O O7 0.076134 0.382191 0.746788
O O8 0.000000 0.322354 0.851634
O O9 0.500000 0.937914 0.000000
O O10 0.610380 0.000000 0.000000
O O11 0.694996 0.308765 0.500000
O O12 0.750000 0.250000 0.374405
O O13 0.000000 0.917744 0.121725
O O14 0.926090 0.000000 0.192682
#
# Coordination Sequence:
#
# PCOD9511775 Si02
#       5
#    32  32  16  32  32
#     4   9  19  36  57  81 107 143 192 236 276 328
#     4  10  19  33  53  80 110 143 181 221 271 335
#     4   9  16  26  45  76 110 140 171 208 256 317
#     4  10  21  38  57  80 112 149 185 228 277 332
#     4   9  18  33  54  82 116 147 180 231 285 329
#
# _framework density 21.631585000000001
#
# number of rings (size 3 to 8) (size 9 to 14) (size 15 to 20)
#    0.000    2.556    1.111    0.667    0.000    5.778 
#    0.000    7.778    0.000    6.667    0.000    0.000 
#    0.000    0.000    0.000    0.000    0.000    0.000 
#
# Total GULP energy -200845.598664 kJ/mol
# GULP energy per Si atom -5579.044407 kJ/mol
# Density = 2.158235 g / cm^3
# Si number density = 21.631585 Si / 1000 Ang^3
#
#
#
# Elastic Constant Matrix: (Units=GPa)
#
#
# Indices 1 2 3 4 5 6 
#
# 1 170.4896 67.5124 9.5080 0.0000 0.0000 0.0000
# 2 67.5124 65.2012 12.0075 0.0000 0.0000 0.0000
# 3 9.5080 12.0075 26.6640 0.0000 0.0000 0.0000
# 4 0.0000 0.0000 0.0000 10.0474 0.0000 0.0000
# 5 0.0000 0.0000 0.0000 0.0000 17.7115 0.0000
# 6 0.0000 0.0000 0.0000 0.0000 0.0000 34.7376
#
#
#
# Elastic Compliance Matrix: (Units=1/GPa)
#
#
# Indices 1 2 3 4 5 6 
#
# 1 0.009977 -0.010550 0.001193 0.000000 0.000000 0.000000
# 2 -0.010550 0.027881 -0.008793 0.000000 0.000000 0.000000
# 3 0.001193 -0.008793 0.041038 0.000000 0.000000 0.000000
# 4 0.000000 0.000000 0.000000 0.099528 0.000000 0.000000
# 5 0.000000 0.000000 0.000000 0.000000 0.056461 0.000000
# 6 0.000000 0.000000 0.000000 0.000000 0.000000 0.028787
#
#
# Mechanical properties :
#
#
# Convention : Reuss Voigt Hill
#
# Bulk Modulus (GPa) = 23.47677 48.93451 36.20564
# Shear Modulus (GPa) = 15.91497 24.05442 19.98470
#
# Velocity S-wave (km/s) = 2.71537 3.33829 3.04281
# Velocity P-wave (km/s) = 4.55056 6.12616 5.39617
#
# Compressibility (1/GPa) = 0.04259531
#
# Stress axis : x y z
#
# Youngs Moduli (GPa) = 100.23426 35.86732 24.36764
#
# Poissons Ratio (x) = 0.37840 -0.02908
# Poissons Ratio (y) = 1.05748 0.21427
# Poissons Ratio (z) = -0.11962 0.31539
#
# Static dielectric constant tensor:
#      x y z
#    x 1.827920 0.000000 0.000000 
#    y 0.000000 1.817140 0.000000 
#    z 0.000000 0.000000 1.754220 
# 
# From -- ./inp_files/22838.got.cif
#   From: 2010.05.17/outbox.cif.g08.bks.cpg/sg69_12_cif.got.tgz:22838.got - 2010.06.03 19:29:58.
