data_PCOD9511171
_publ_section_title
;
Structure prediction by ZEFSAII (Michael W. Deem and Ramdas Pophale) SiO2 
 PCOD9511171
Probable space group: F M M M
;
_chemical_formula_sum "Si O2"
_cell_formula_units_Z 112
_cell_length_a 25.413329
_cell_length_b 8.778890
_cell_length_c 26.010515
_cell_angle_alpha 90.000000
_cell_angle_beta 90.000000
_cell_angle_gamma 90.000000
_cell_volume 5802.967221
_symmetry_space_group_name_H-M "F M M M"
_symmetry_group_IT_number 69
_symmetry_cell_setting 'orthorhombic'
loop_
_space_group_symop_operation_xyz
x,y,z
-x,-y,z
x,-y,-z
-x,y,-z
-x,-y,-z
x,y,-z
-x,y,z
x,-y,z
x,1/2+y,1/2+z
-x,1/2-y,1/2+z
x,1/2-y,1/2-z
-x,1/2+y,1/2-z
-x,1/2-y,1/2-z
x,1/2+y,1/2-z
-x,1/2+y,1/2+z
x,1/2-y,1/2+z
1/2+x,y,1/2+z
1/2-x,-y,1/2+z
1/2+x,-y,1/2-z
1/2-x,y,1/2-z
1/2-x,-y,1/2-z
1/2+x,y,1/2-z
1/2-x,y,1/2+z
1/2+x,-y,1/2+z
1/2+x,1/2+y,z
1/2-x,1/2-y,z
1/2+x,1/2-y,-z
1/2-x,1/2+y,-z
1/2-x,1/2-y,-z
1/2+x,1/2+y,-z
1/2-x,1/2+y,z
1/2+x,1/2-y,z
loop_
_atom_site_type_symbol
_atom_site_label
_atom_site_fract_x
_atom_site_fract_y
_atom_site_fract_z
Si Si1 0.000000 0.325513 0.423194
Si Si2 0.383597 0.684162 0.914344
Si Si3 0.000000 0.163878 0.323871
Si Si4 0.118370 0.827081 0.301696
Si Si5 0.308335 0.182468 0.000000
O O1 0.058223 0.262869 0.434897
O O2 0.000000 0.500000 0.439926
O O3 0.000000 0.307515 0.361394
O O4 0.383018 0.500000 0.916371
O O5 0.375125 0.738440 0.855537
O O6 0.339828 0.755075 0.950687
O O7 0.945142 0.163509 0.295049
O O8 0.000000 0.000000 0.353984
O O9 0.139982 0.750000 0.250000
O O10 0.137907 0.000000 0.307208
O O11 0.250000 0.250000 0.000000
O O12 0.307175 0.000000 0.000000
#
# Coordination Sequence:
#
# PCOD9511171 Si02
#       5
#    16  32  16  32  16
#     4   8  16  30  52  81 116 153 188 226 278 336
#     4  10  20  37  59  86 118 154 193 236 283 337
#     4   8  15  25  40  66 106 152 196 233 271 322
#     4  10  18  29  47  76 113 154 194 235 280 332
#     4  12  26  45  66  87 109 142 188 240 291 344
#
# _framework density 19.300471000000002
#
# number of rings (size 3 to 8) (size 9 to 14) (size 15 to 20)
#    0.000    2.286    0.000    3.429    0.000    2.857 
#    0.000    7.143    0.000    0.857    0.000    6.000 
#    0.000    0.000    0.000    0.000    0.000    0.000 
#
# Total GULP energy -155883.484074 kJ/mol
# GULP energy per Si atom -5567.267288 kJ/mol
# Density = 1.925654 g / cm^3
# Si number density = 19.300471 Si / 1000 Ang^3
#
#
#
# Elastic Constant Matrix: (Units=GPa)
#
#
# Indices 1 2 3 4 5 6 
#
# 1 115.7762 46.1346 57.1630 0.0000 0.0000 0.0000
# 2 46.1346 122.7672 66.7836 0.0000 0.0000 -0.0001
# 3 57.1630 66.7836 130.2293 0.0000 0.0000 0.0000
# 4 0.0000 0.0000 0.0000 30.2388 0.0000 0.0000
# 5 0.0000 0.0000 0.0000 0.0000 26.7941 0.0000
# 6 0.0000 -0.0001 0.0000 0.0000 0.0000 20.1464
#
#
#
# Elastic Compliance Matrix: (Units=1/GPa)
#
#
# Indices 1 2 3 4 5 6 
#
# 1 0.011430 -0.002172 -0.003903 0.000000 0.000000 0.000000
# 2 -0.002172 0.011710 -0.005052 0.000000 0.000000 0.000000
# 3 -0.003903 -0.005052 0.011983 0.000000 0.000000 0.000000
# 4 0.000000 0.000000 0.000000 0.033070 0.000000 0.000000
# 5 0.000000 0.000000 0.000000 0.000000 0.037322 0.000000
# 6 0.000000 0.000000 0.000000 0.000000 0.000000 0.049637
#
#
# Mechanical properties :
#
#
# Convention : Reuss Voigt Hill
#
# Bulk Modulus (GPa) = 77.70786 78.77056 78.23921
# Shear Modulus (GPa) = 27.51883 28.68196 28.10039
#
# Velocity S-wave (km/s) = 3.78009 3.85915 3.81982
# Velocity P-wave (km/s) = 7.70725 7.79479 7.75114
#
# Compressibility (1/GPa) = 0.01286871
#
# Stress axis : x y z
#
# Youngs Moduli (GPa) = 87.48872 85.39963 83.45440
#
# Poissons Ratio (x) = 0.18548 0.32575
# Poissons Ratio (y) = 0.19002 0.42157
# Poissons Ratio (z) = 0.34150 0.43140
#
# Static dielectric constant tensor:
#      x y z
#    x 1.680590 0.000000 0.000000 
#    y 0.000000 1.711970 0.000000 
#    z 0.000000 0.000000 1.671090 
# 
# From -- ./inp_files/42963.got.cif
#   From: 2010.05.17/outbox.cif.g08.bks.cpg/sg69_22_cif.got.tgz:42963.got - 2010.06.03 19:29:58.
