data_PCOD9511361
_publ_section_title
;
Structure prediction by ZEFSAII (Michael W. Deem and Ramdas Pophale) SiO2 
 PCOD9511361
Probable space group: F M M M
;
_chemical_formula_sum "Si O2"
_cell_formula_units_Z 180
_cell_length_a 29.010584
_cell_length_b 21.406434
_cell_length_c 15.078754
_cell_angle_alpha 90.000000
_cell_angle_beta 90.000000
_cell_angle_gamma 90.000000
_cell_volume 9364.104545
_symmetry_space_group_name_H-M "F M M M"
_symmetry_group_IT_number 69
_symmetry_cell_setting 'orthorhombic'
loop_
_space_group_symop_operation_xyz
x,y,z
-x,-y,z
x,-y,-z
-x,y,-z
-x,-y,-z
x,y,-z
-x,y,z
x,-y,z
x,1/2+y,1/2+z
-x,1/2-y,1/2+z
x,1/2-y,1/2-z
-x,1/2+y,1/2-z
-x,1/2-y,1/2-z
x,1/2+y,1/2-z
-x,1/2+y,1/2+z
x,1/2-y,1/2+z
1/2+x,y,1/2+z
1/2-x,-y,1/2+z
1/2+x,-y,1/2-z
1/2-x,y,1/2-z
1/2-x,-y,1/2-z
1/2+x,y,1/2-z
1/2-x,y,1/2+z
1/2+x,-y,1/2+z
1/2+x,1/2+y,z
1/2-x,1/2-y,z
1/2+x,1/2-y,-z
1/2-x,1/2+y,-z
1/2-x,1/2-y,-z
1/2+x,1/2+y,-z
1/2-x,1/2+y,z
1/2+x,1/2-y,z
loop_
_atom_site_type_symbol
_atom_site_label
_atom_site_fract_x
_atom_site_fract_y
_atom_site_fract_z
Si Si1 0.231793 0.318176 0.607293
Si Si2 0.385835 0.139949 0.169328
Si Si3 0.500000 0.000000 0.000000
Si Si4 0.447664 0.187699 0.687912
Si Si5 0.200797 0.928632 0.392579
Si Si6 0.449581 0.871260 0.000000
Si Si7 0.638332 0.232417 0.398442
O O1 0.235721 0.319347 0.500000
O O2 0.250000 0.250000 0.636427
O O3 0.261761 0.377042 0.637319
O O4 0.177457 0.317126 0.628334
O O5 0.418951 0.137846 0.254010
O O6 0.347778 0.087653 0.153415
O O7 0.420471 0.143406 0.086237
O O8 0.359560 0.206474 0.162928
O O9 0.460977 0.055404 0.000000
O O10 0.500000 0.170209 0.666077
O O11 0.450055 0.250000 0.750000
O O12 0.412960 0.205404 0.609587
O O13 0.194251 0.922253 0.500000
O O14 0.214807 0.000000 0.375295
O O15 0.500000 0.838926 0.000000
O O16 0.648200 0.251640 0.500000
#
# Coordination Sequence:
#
# PCOD9511361 Si02
#       7
#    32  32   4  32  32  16  32
#     4   9  16  29  50  76 105 138 179 221 262 324
#     4  11  18  31  50  73 105 147 179 215 266 321
#     4   8  24  32  40  80 104 148 186 228 226 320
#     4   9  20  34  47  71 105 134 174 228 272 315
#     4  10  19  29  50  82 113 143 176 216 260 319
#     4  10  20  30  46  71 107 143 183 211 249 311
#     4  10  18  32  54  76  99 137 187 224 273 316
#
# _framework density 19.222339000000002
#
# number of rings (size 3 to 8) (size 9 to 14) (size 15 to 20)
#    0.267    1.956    3.556    0.533    1.244    1.067 
#    0.000    0.889    0.000    2.133    0.000    0.000 
#    0.000    0.000    0.000    9.511    0.000    0.000 
#
# Total GULP energy -250596.805336 kJ/mol
# GULP energy per Si atom -5568.817896 kJ/mol
# Density = 1.917859 g / cm^3
# Si number density = 19.222339 Si / 1000 Ang^3
#
#
#
# Elastic Constant Matrix: (Units=GPa)
#
#
# Indices 1 2 3 4 5 6 
#
# 1 141.9639 55.8369 5.3521 0.0000 0.0000 0.0000
# 2 55.8369 97.6635 9.9272 0.0000 0.0000 0.0000
# 3 5.3521 9.9272 24.5004 0.0000 0.0000 0.0000
# 4 0.0000 0.0000 0.0000 11.0186 0.0000 0.0000
# 5 0.0000 0.0000 0.0000 0.0000 22.3603 0.0000
# 6 0.0000 0.0000 0.0000 0.0000 0.0000 29.8003
#
#
#
# Elastic Compliance Matrix: (Units=1/GPa)
#
#
# Indices 1 2 3 4 5 6 
#
# 1 0.009088 -0.005209 0.000125 0.000000 0.000000 0.000000
# 2 -0.005209 0.013664 -0.004399 0.000000 0.000000 0.000000
# 3 0.000125 -0.004399 0.042571 0.000000 0.000000 0.000000
# 4 0.000000 0.000000 0.000000 0.090756 0.000000 0.000000
# 5 0.000000 0.000000 0.000000 0.000000 0.044722 0.000000
# 6 0.000000 0.000000 0.000000 0.000000 0.000000 0.033557
#
#
# Mechanical properties :
#
#
# Convention : Reuss Voigt Hill
#
# Bulk Modulus (GPa) = 21.57102 45.15113 33.36107
# Shear Modulus (GPa) = 18.60298 25.50329 22.05314
#
# Velocity S-wave (km/s) = 3.11429 3.64641 3.39081
# Velocity P-wave (km/s) = 4.91711 6.42404 5.72041
#
# Compressibility (1/GPa) = 0.04635850
#
# Stress axis : x y z
#
# Youngs Moduli (GPa) = 110.03599 73.18379 23.49042
#
# Poissons Ratio (x) = 0.38118 -0.00294
# Poissons Ratio (y) = 0.57313 0.10333
# Poissons Ratio (z) = -0.01377 0.32192
#
# Static dielectric constant tensor:
#      x y z
#    x 1.732600 0.000000 0.000000 
#    y 0.000000 1.666380 0.000000 
#    z 0.000000 0.000000 1.852780 
# 
# From -- ./inp_files/27883.got.cif
#   From: 2010.05.17/outbox.cif.g08.bks.cpg/sg69_14_cif.got.tgz:27883.got - 2010.06.03 19:29:58.
