data_PCOD9511316
_publ_section_title
;
Structure prediction by ZEFSAII (Michael W. Deem and Ramdas Pophale) SiO2 
 PCOD9511316
Probable space group: F M M M
;
_chemical_formula_sum "Si O2"
_cell_formula_units_Z 128
_cell_length_a 17.148743
_cell_length_b 19.391415
_cell_length_c 21.518589
_cell_angle_alpha 90.000000
_cell_angle_beta 90.000000
_cell_angle_gamma 90.000000
_cell_volume 7155.756989
_symmetry_space_group_name_H-M "F M M M"
_symmetry_group_IT_number 69
_symmetry_cell_setting 'orthorhombic'
loop_
_space_group_symop_operation_xyz
x,y,z
-x,-y,z
x,-y,-z
-x,y,-z
-x,-y,-z
x,y,-z
-x,y,z
x,-y,z
x,1/2+y,1/2+z
-x,1/2-y,1/2+z
x,1/2-y,1/2-z
-x,1/2+y,1/2-z
-x,1/2-y,1/2-z
x,1/2+y,1/2-z
-x,1/2+y,1/2+z
x,1/2-y,1/2+z
1/2+x,y,1/2+z
1/2-x,-y,1/2+z
1/2+x,-y,1/2-z
1/2-x,y,1/2-z
1/2-x,-y,1/2-z
1/2+x,y,1/2-z
1/2-x,y,1/2+z
1/2+x,-y,1/2+z
1/2+x,1/2+y,z
1/2-x,1/2-y,z
1/2+x,1/2-y,-z
1/2-x,1/2+y,-z
1/2-x,1/2-y,-z
1/2+x,1/2+y,-z
1/2-x,1/2+y,z
1/2+x,1/2-y,z
loop_
_atom_site_type_symbol
_atom_site_label
_atom_site_fract_x
_atom_site_fract_y
_atom_site_fract_z
Si Si1 0.000000 0.921973 0.424966
Si Si2 0.593026 0.686019 0.894266
Si Si3 0.906079 0.577186 0.500000
Si Si4 0.228598 0.830839 0.183551
Si Si5 0.655559 0.337526 0.427005
O O1 0.921399 0.880978 0.409397
O O2 0.000000 0.924960 0.500000
O O3 0.000000 0.000000 0.400799
O O4 0.500000 0.694242 0.889946
O O5 0.612214 0.623915 0.940855
O O6 0.636932 0.667408 0.830842
O O7 0.630719 0.757094 0.919598
O O8 0.872793 0.500000 0.500000
O O9 0.000000 0.571113 0.500000
O O10 0.250000 0.862854 0.250000
O O11 0.250000 0.750000 0.187178
O O12 0.277403 0.854841 0.122999
O O13 0.675923 0.349417 0.500000
#
# Coordination Sequence:
#
# PCOD9511316 Si02
#       5
#    16  32  16  32  32
#     4   9  18  32  52  81 112 136 173 228 273 319
#     4  10  18  31  55  79 105 142 181 220 266 319
#     4   9  18  30  49  80 110 133 168 223 269 310
#     4   9  20  35  49  79 117 142 177 227 269 312
#     4  10  18  31  55  80 107 141 180 223 269 317
#
# _framework density 17.887695999999998
#
# number of rings (size 3 to 8) (size 9 to 14) (size 15 to 20)
#    0.000    2.500    2.500    0.000    1.750    1.500 
#    2.250    3.750    0.000    3.000    0.000    0.000 
#    0.000    0.000    0.000    0.000    0.000    0.000 
#
# Total GULP energy -178163.362143 kJ/mol
# GULP energy per Si atom -5567.605067 kJ/mol
# Density = 1.784698 g / cm^3
# Si number density = 17.887696 Si / 1000 Ang^3
#
#
#
# Elastic Constant Matrix: (Units=GPa)
#
#
# Indices 1 2 3 4 5 6 
#
# 1 74.2443 6.2671 48.2859 0.0000 0.0000 0.0000
# 2 6.2671 82.1163 8.8226 0.0000 0.0000 0.0000
# 3 48.2859 8.8226 105.7213 0.0000 0.0000 0.0000
# 4 0.0000 0.0000 0.0000 -0.0095 0.0000 0.0000
# 5 0.0000 0.0000 0.0000 0.0000 15.4853 0.0000
# 6 0.0000 0.0000 0.0000 0.0000 0.0000 2.1277
#
#
#
# Elastic Compliance Matrix: (Units=1/GPa)
#
#
# Indices 1 2 3 4 5 6 
#
# 1 0.019183 -0.000527 -0.008717 0.000000 0.000000 0.000000
# 2 -0.000527 0.012303 -0.000786 0.000000 0.000000 0.000000
# 3 -0.008717 -0.000786 0.013506 0.000000 0.000000 0.000000
# 4 0.000000 0.000000 0.000000********** 0.000000 0.000000
# 5 0.000000 0.000000 0.000000 0.000000 0.064577 0.000000
# 6 0.000000 0.000000 0.000000 0.000000 0.000000 0.469991
#
#
# Mechanical properties :
#
#
# Convention : Reuss Voigt Hill
#
# Bulk Modulus (GPa) = 40.11199 43.20369 41.65784
# Shear Modulus (GPa) = -0.04759 16.76780 8.36010
#
# Velocity S-wave (km/s) = -0.16328 3.06501 2.16421
# Velocity P-wave (km/s) = 4.73682 6.06060 5.43913
#
# Compressibility (1/GPa) = 0.02493020
#
# Stress axis : x y z
#
# Youngs Moduli (GPa) = 52.12923 81.28415 74.04166
#
# Poissons Ratio (x) = 0.04287 0.64545
# Poissons Ratio (y) = 0.02750 0.05818
# Poissons Ratio (z) = 0.45443 0.06387
#
# Static dielectric constant tensor:
#      x y z
#    x 1.640480 0.000000 0.000000 
#    y 0.000000 1.610990 0.000000 
#    z 0.000000 0.000000 1.641180 
# 
# From -- ./inp_files/30677.got.cif
#   From: 2010.05.17/outbox.cif.g08.bks.cpg/sg69_16_cif.got.tgz:30677.got - 2010.06.03 19:29:58.
