data_PCOD9511558
_publ_section_title
;
Structure prediction by ZEFSAII (Michael W. Deem and Ramdas Pophale) SiO2 
 PCOD9511558
Probable space group: F M M M
;
_chemical_formula_sum "Si O2"
_cell_formula_units_Z 192
_cell_length_a 18.824022
_cell_length_b 27.078065
_cell_length_c 20.589701
_cell_angle_alpha 90.000000
_cell_angle_beta 90.000000
_cell_angle_gamma 90.000000
_cell_volume 10494.943094
_symmetry_space_group_name_H-M "F M M M"
_symmetry_group_IT_number 69
_symmetry_cell_setting 'orthorhombic'
loop_
_space_group_symop_operation_xyz
x,y,z
-x,-y,z
x,-y,-z
-x,y,-z
-x,-y,-z
x,y,-z
-x,y,z
x,-y,z
x,1/2+y,1/2+z
-x,1/2-y,1/2+z
x,1/2-y,1/2-z
-x,1/2+y,1/2-z
-x,1/2-y,1/2-z
x,1/2+y,1/2-z
-x,1/2+y,1/2+z
x,1/2-y,1/2+z
1/2+x,y,1/2+z
1/2-x,-y,1/2+z
1/2+x,-y,1/2-z
1/2-x,y,1/2-z
1/2-x,-y,1/2-z
1/2+x,y,1/2-z
1/2-x,y,1/2+z
1/2+x,-y,1/2+z
1/2+x,1/2+y,z
1/2-x,1/2-y,z
1/2+x,1/2-y,-z
1/2-x,1/2+y,-z
1/2-x,1/2-y,-z
1/2+x,1/2+y,-z
1/2-x,1/2+y,z
1/2+x,1/2-y,z
loop_
_atom_site_type_symbol
_atom_site_label
_atom_site_fract_x
_atom_site_fract_y
_atom_site_fract_z
Si Si1 0.581722 0.057458 0.196234
Si Si2 0.632937 0.054390 0.343303
Si Si3 0.771009 0.609861 0.177338
Si Si4 0.218272 0.805261 0.576708
Si Si5 0.420214 0.245297 0.078895
Si Si6 0.414683 0.353540 0.926671
O O1 0.500000 0.072801 0.181527
O O2 0.593437 0.057217 0.274149
O O3 0.647778 0.090795 0.172227
O O4 0.589886 0.000000 0.174938
O O5 0.716597 0.064390 0.332392
O O6 0.606420 0.099126 0.386621
O O7 0.620737 0.000000 0.371199
O O8 0.750000 0.628303 0.250000
O O9 0.755428 0.651814 0.123885
O O10 0.225340 0.817503 0.500000
O O11 0.250000 0.750000 0.584572
O O12 0.135549 0.796690 0.594322
O O13 0.500000 0.235771 0.101627
O O14 0.395071 0.299658 0.101236
O O15 0.421651 0.249155 0.000000
O O16 0.500000 0.351582 0.930147
O O17 0.386389 0.357324 0.000000
#
# Coordination Sequence:
#
# PCOD9511558 Si02
#       6
#    32  32  32  32  32  32
#     4   9  18  34  55  75  96 127 167 208 251 300
#     4  10  19  31  48  70  98 132 169 205 244 297
#     4  10  21  35  52  76 104 132 165 209 255 296
#     4  10  20  34  53  75 100 133 171 206 244 297
#     4   8  15  29  48  69  94 126 164 204 246 295
#     4   9  17  29  46  70 101 134 166 204 251 298
#
# _framework density 18.294526000000001
#
# number of rings (size 3 to 8) (size 9 to 14) (size 15 to 20)
#    0.000    2.667    0.000    3.000    0.000    6.333 
#    0.000    0.833    0.000    1.500    0.000   10.500 
#    0.000    0.000    0.000    0.000    0.000    0.000 
#
# Total GULP energy -267367.246971 kJ/mol
# GULP energy per Si atom -5570.150979 kJ/mol
# Density = 1.825289 g / cm^3
# Si number density = 18.294526 Si / 1000 Ang^3
#
#
#
# Elastic Constant Matrix: (Units=GPa)
#
#
# Indices 1 2 3 4 5 6 
#
# 1 97.0375 20.8418 5.0130 0.0000 0.0000 0.0000
# 2 20.8418 64.5348 24.5044 0.0000 0.0000 0.0000
# 3 5.0130 24.5044 33.9719 0.0000 0.0000 0.0000
# 4 0.0000 0.0000 0.0000 71.6188 0.0000 0.0000
# 5 0.0000 0.0000 0.0000 0.0000 18.5969 0.0000
# 6 0.0000 0.0000 0.0000 0.0000 0.0000 24.4283
#
#
#
# Elastic Compliance Matrix: (Units=1/GPa)
#
#
# Indices 1 2 3 4 5 6 
#
# 1 0.011115 -0.004086 0.001307 0.000000 0.000000 0.000000
# 2 -0.004086 0.022842 -0.015874 0.000000 0.000000 0.000000
# 3 0.001307 -0.015874 0.040693 0.000000 0.000000 0.000000
# 4 0.000000 0.000000 0.000000 0.013963 0.000000 0.000000
# 5 0.000000 0.000000 0.000000 0.000000 0.053773 0.000000
# 6 0.000000 0.000000 0.000000 0.000000 0.000000 0.040936
#
#
# Mechanical properties :
#
#
# Convention : Reuss Voigt Hill
#
# Bulk Modulus (GPa) = 26.77684 32.91810 29.84747
# Shear Modulus (GPa) = 21.45221 32.60778 27.02999
#
# Velocity S-wave (km/s) = 3.42804 4.22640 3.84798
# Velocity P-wave (km/s) = 5.50790 6.46909 6.00775
#
# Compressibility (1/GPa) = 0.03734571
#
# Stress axis : x y z
#
# Youngs Moduli (GPa) = 89.96539 43.77809 24.57421
#
# Poissons Ratio (x) = 0.17888 -0.03212
# Poissons Ratio (y) = 0.36761 0.39008
# Poissons Ratio (z) = -0.11760 0.69492
#
# Static dielectric constant tensor:
#      x y z
#    x 1.717720 0.000000 0.000000 
#    y 0.000000 1.605500 0.000000 
#    z 0.000000 0.000000 1.602140 
# 
# From -- ./inp_files/32042.got.cif
#   From: 2010.05.17/outbox.cif.g08.bks.cpg/sg69_17_cif.got.tgz:32042.got - 2010.06.03 19:29:58.
