data_PCOD9511574
_publ_section_title
;
Structure prediction by ZEFSAII (Michael W. Deem and Ramdas Pophale) SiO2 
 PCOD9511574
Probable space group: F M M M
;
_chemical_formula_sum "Si O2"
_cell_formula_units_Z 160
_cell_length_a 16.460269
_cell_length_b 21.976467
_cell_length_c 19.078689
_cell_angle_alpha 90.000000
_cell_angle_beta 90.000000
_cell_angle_gamma 90.000000
_cell_volume 6901.497457
_symmetry_space_group_name_H-M "F M M M"
_symmetry_group_IT_number 69
_symmetry_cell_setting 'orthorhombic'
loop_
_space_group_symop_operation_xyz
x,y,z
-x,-y,z
x,-y,-z
-x,y,-z
-x,-y,-z
x,y,-z
-x,y,z
x,-y,z
x,1/2+y,1/2+z
-x,1/2-y,1/2+z
x,1/2-y,1/2-z
-x,1/2+y,1/2-z
-x,1/2-y,1/2-z
x,1/2+y,1/2-z
-x,1/2+y,1/2+z
x,1/2-y,1/2+z
1/2+x,y,1/2+z
1/2-x,-y,1/2+z
1/2+x,-y,1/2-z
1/2-x,y,1/2-z
1/2-x,-y,1/2-z
1/2+x,y,1/2-z
1/2-x,y,1/2+z
1/2+x,-y,1/2+z
1/2+x,1/2+y,z
1/2-x,1/2-y,z
1/2+x,1/2-y,-z
1/2-x,1/2+y,-z
1/2-x,1/2-y,-z
1/2+x,1/2+y,-z
1/2-x,1/2+y,z
1/2+x,1/2-y,z
loop_
_atom_site_type_symbol
_atom_site_label
_atom_site_fract_x
_atom_site_fract_y
_atom_site_fract_z
Si Si1 0.593799 0.907638 0.000000
Si Si2 0.902532 0.913130 0.342984
Si Si3 0.678486 0.346270 0.886571
Si Si4 0.750000 0.593925 0.250000
Si Si5 0.405487 0.266856 0.328260
Si Si6 0.903615 0.430416 0.500000
Si Si7 0.202880 0.687795 0.000000
O O1 0.618286 0.931475 0.076758
O O2 0.500000 0.917739 0.000000
O O3 0.611015 0.834064 0.000000
O O4 0.828907 0.934348 0.291567
O O5 0.900299 0.839046 0.337788
O O6 0.000000 0.928469 0.328446
O O7 0.703517 0.369021 0.810557
O O8 0.641508 0.278378 0.880242
O O9 0.622949 0.392458 0.931033
O O10 0.758798 0.343737 0.932428
O O11 0.500000 0.249512 0.333176
O O12 0.376894 0.250000 0.250000
O O13 0.870730 0.500000 0.500000
O O14 0.000000 0.433890 0.500000
O O15 0.250000 0.750000 0.000000
#
# Coordination Sequence:
#
# PCOD9511574 Si02
#       7
#    16  32  32  16  32  16  16
#     4  10  19  34  49  67 102 152 207 240 279 347
#     4  10  21  34  51  76 117 171 207 238 286 346
#     4  11  23  34  58  91 117 159 211 250 315 384
#     4  12  22  35  57  86 130 164 199 248 295 372
#     4  10  19  31  48  79 123 165 204 249 297 361
#     4  10  24  49  72  87 113 156 217 294 345 369
#     4  11  21  33  49  79 118 159 203 246 291 360
#
# _framework density 23.183375000000002
#
# number of rings (size 3 to 8) (size 9 to 14) (size 15 to 20)
#    0.000    1.500    4.000    1.800    0.000    2.400 
#    0.000    4.500    0.000    0.000    0.000    0.000 
#    0.000   13.600    0.000    0.000    0.000    0.000 
#
# Total GULP energy -222845.562211 kJ/mol
# GULP energy per Si atom -5571.139055 kJ/mol
# Density = 2.313061 g / cm^3
# Si number density = 23.183375 Si / 1000 Ang^3
#
#
#
# Elastic Constant Matrix: (Units=GPa)
#
#
# Indices 1 2 3 4 5 6 
#
# 1 120.2250 31.0433 50.7904 0.0000 0.0000 0.0000
# 2 31.0433 141.4280 33.1146 0.0000 0.0000 0.0000
# 3 50.7904 33.1146 164.5037 0.0000 0.0000 0.0000
# 4 0.0000 0.0000 0.0000 -187.8366 0.0000 0.0000
# 5 0.0000 0.0000 0.0000 0.0000 0.1173 0.0000
# 6 0.0000 0.0000 0.0000 0.0000 0.0000 -48.8428
#
#
#
# Elastic Compliance Matrix: (Units=1/GPa)
#
#
# Indices 1 2 3 4 5 6 
#
# 1 0.009869 -0.001525 -0.002740 0.000000 0.000000 0.000000
# 2 -0.001525 0.007656 -0.001070 0.000000 0.000000 0.000000
# 3 -0.002740 -0.001070 0.007140 0.000000 0.000000 0.000000
# 4 0.000000 0.000000 0.000000 -0.005324 0.000000 0.000000
# 5 0.000000 0.000000 0.000000 0.000000 8.527850 0.000000
# 6 0.000000 0.000000 0.000000 0.000000 0.000000 -0.020474
#
#
# Mechanical properties :
#
#
# Convention : Reuss Voigt Hill
#
# Bulk Modulus (GPa) = 71.45406 72.89479 72.17443
# Shear Modulus (GPa) = 0.58534 -26.56520 -12.98993
#
# Velocity S-wave (km/s) = 0.50302 -3.38875 -2.36966
# Velocity P-wave (km/s) = 5.58798 4.02486 4.86955
#
# Compressibility (1/GPa) = 0.01399501
#
# Stress axis : x y z
#
# Youngs Moduli (GPa) = 101.32720 130.61602 140.04850
#
# Poissons Ratio (x) = 0.19914 0.38375
# Poissons Ratio (y) = 0.15449 0.14991
# Poissons Ratio (z) = 0.27765 0.13981
#
# Static dielectric constant tensor:
#      x y z
#    x 1.857430 0.000000 0.000000 
#    y 0.000000 1.711090 0.000000 
#    z 0.000000 0.000000 2.188380 
# 
# From -- ./inp_files/31061.got.cif
#   From: 2010.05.17/outbox.cif.g08.bks.cpg/sg69_16_cif.got.tgz:31061.got - 2010.06.03 19:29:58.
