data_PCOD9511520
_publ_section_title
;
Structure prediction by ZEFSAII (Michael W. Deem and Ramdas Pophale) SiO2 
 PCOD9511520
Probable space group: F M M M
;
_chemical_formula_sum "Si O2"
_cell_formula_units_Z 208
_cell_length_a 27.462239
_cell_length_b 16.512898
_cell_length_c 23.846057
_cell_angle_alpha 90.000000
_cell_angle_beta 90.000000
_cell_angle_gamma 90.000000
_cell_volume 10813.737386
_symmetry_space_group_name_H-M "F M M M"
_symmetry_group_IT_number 69
_symmetry_cell_setting 'orthorhombic'
loop_
_space_group_symop_operation_xyz
x,y,z
-x,-y,z
x,-y,-z
-x,y,-z
-x,-y,-z
x,y,-z
-x,y,z
x,-y,z
x,1/2+y,1/2+z
-x,1/2-y,1/2+z
x,1/2-y,1/2-z
-x,1/2+y,1/2-z
-x,1/2-y,1/2-z
x,1/2+y,1/2-z
-x,1/2+y,1/2+z
x,1/2-y,1/2+z
1/2+x,y,1/2+z
1/2-x,-y,1/2+z
1/2+x,-y,1/2-z
1/2-x,y,1/2-z
1/2-x,-y,1/2-z
1/2+x,y,1/2-z
1/2-x,y,1/2+z
1/2+x,-y,1/2+z
1/2+x,1/2+y,z
1/2-x,1/2-y,z
1/2+x,1/2-y,-z
1/2-x,1/2+y,-z
1/2-x,1/2-y,-z
1/2+x,1/2+y,-z
1/2-x,1/2+y,z
1/2+x,1/2-y,z
loop_
_atom_site_type_symbol
_atom_site_label
_atom_site_fract_x
_atom_site_fract_y
_atom_site_fract_z
Si Si1 0.827390 0.250000 0.750000
Si Si2 0.442858 0.089444 0.699448
Si Si3 0.812621 0.087528 0.607264
Si Si4 0.444781 0.737349 0.886805
Si Si5 0.221917 0.835142 0.158095
Si Si6 0.895523 0.860331 0.314926
Si Si7 0.659353 0.263443 0.062892
O O1 0.800387 0.173905 0.779437
O O2 0.860546 0.214603 0.701367
O O3 0.500000 0.090696 0.714375
O O4 0.436630 0.160936 0.654787
O O5 0.413553 0.103630 0.756650
O O6 0.430925 0.000000 0.676606
O O7 0.762896 0.099789 0.643163
O O8 0.860065 0.086678 0.647325
O O9 0.820295 0.171538 0.573054
O O10 0.810073 0.000000 0.577826
O O11 0.500000 0.731989 0.909216
O O12 0.438667 0.819340 0.850085
O O13 0.399012 0.738904 0.928583
O O14 0.250000 0.750000 0.156142
O O15 0.182451 0.824638 0.108673
O O16 0.672113 0.288302 0.000000
#
# Coordination Sequence:
#
# PCOD9511520 Si02
#       7
#    16  32  32  32  32  32  32
#     4  12  17  32  55  76 108 146 181 222 263 308
#     4  10  19  30  48  78 115 150 180 219 275 330
#     4  10  22  36  53  82 112 143 179 222 279 328
#     4  10  19  34  55  80 107 142 186 231 272 322
#     4  10  19  33  55  76 105 142 181 222 262 324
#     4  11  18  31  52  77 112 148 189 221 255 319
#     4  10  21  39  60  79 102 140 186 234 276 321
#
# _framework density 19.234793
#
# number of rings (size 3 to 8) (size 9 to 14) (size 15 to 20)
#    0.000    1.692    6.154    1.154    0.000    4.615 
#    0.000    4.615    0.000    5.538    0.000    6.462 
#    0.000    0.000    0.000    0.000    0.000    0.000 
#
# Total GULP energy -289505.675117 kJ/mol
# GULP energy per Si atom -5567.416829 kJ/mol
# Density = 1.919101 g / cm^3
# Si number density = 19.234793 Si / 1000 Ang^3
#
#
#
# Elastic Constant Matrix: (Units=GPa)
#
#
# Indices 1 2 3 4 5 6 
#
# 1 80.9572 17.1623 15.7061 0.0000 0.0000 0.0000
# 2 17.1623 69.4381 0.0677 0.0000 0.0000 0.0000
# 3 15.7061 0.0677 54.5397 0.0000 0.0000 0.0000
# 4 0.0000 0.0000 0.0000 8.8869 0.0000 0.0000
# 5 0.0000 0.0000 0.0000 0.0000 7.7347 0.0000
# 6 0.0000 0.0000 0.0000 0.0000 0.0000 -6.1777
#
#
#
# Elastic Compliance Matrix: (Units=1/GPa)
#
#
# Indices 1 2 3 4 5 6 
#
# 1 0.013850 -0.003419 -0.003984 0.000000 0.000000 0.000000
# 2 -0.003419 0.015245 0.000966 0.000000 0.000000 0.000000
# 3 -0.003984 0.000966 0.019481 0.000000 0.000000 0.000000
# 4 0.000000 0.000000 0.000000 0.112525 0.000000 0.000000
# 5 0.000000 0.000000 0.000000 0.000000 0.129288 0.000000
# 6 0.000000 0.000000 0.000000 0.000000 0.000000 -0.161873
#
#
# Mechanical properties :
#
#
# Convention : Reuss Voigt Hill
#
# Bulk Modulus (GPa) = 28.01011 30.08970 29.04990
# Shear Modulus (GPa) = 32.61735 13.55537 23.08636
#
# Velocity S-wave (km/s) = 4.12241 2.65756 3.46821
# Velocity P-wave (km/s) = 6.10351 5.00941 5.58332
#
# Compressibility (1/GPa) = 0.03570140
#
# Stress axis : x y z
#
# Youngs Moduli (GPa) = 72.20199 65.59319 51.33094
#
# Poissons Ratio (x) = 0.22428 0.20451
# Poissons Ratio (y) = 0.24688 -0.04957
# Poissons Ratio (z) = 0.28767 -0.06335
#
# Static dielectric constant tensor:
#      x y z
#    x 1.742960 0.000000 0.000000 
#    y 0.000000 1.678910 0.000000 
#    z 0.000000 0.000000 1.757910 
# 
# From -- ./inp_files/38515.got.cif
#   From: 2010.05.17/outbox.cif.g08.bks.cpg/sg69_20_cif.got.tgz:38515.got - 2010.06.03 19:29:58.
