data_PCOD9511642
_publ_section_title
;
Structure prediction by ZEFSAII (Michael W. Deem and Ramdas Pophale) SiO2 
 PCOD9511642
Probable space group: F M M M
;
_chemical_formula_sum "Si O2"
_cell_formula_units_Z 192
_cell_length_a 20.365815
_cell_length_b 21.026620
_cell_length_c 22.408197
_cell_angle_alpha 90.000000
_cell_angle_beta 90.000000
_cell_angle_gamma 90.000000
_cell_volume 9595.733421
_symmetry_space_group_name_H-M "F M M M"
_symmetry_group_IT_number 69
_symmetry_cell_setting 'orthorhombic'
loop_
_space_group_symop_operation_xyz
x,y,z
-x,-y,z
x,-y,-z
-x,y,-z
-x,-y,-z
x,y,-z
-x,y,z
x,-y,z
x,1/2+y,1/2+z
-x,1/2-y,1/2+z
x,1/2-y,1/2-z
-x,1/2+y,1/2-z
-x,1/2-y,1/2-z
x,1/2+y,1/2-z
-x,1/2+y,1/2+z
x,1/2-y,1/2+z
1/2+x,y,1/2+z
1/2-x,-y,1/2+z
1/2+x,-y,1/2-z
1/2-x,y,1/2-z
1/2-x,-y,1/2-z
1/2+x,y,1/2-z
1/2-x,y,1/2+z
1/2+x,-y,1/2+z
1/2+x,1/2+y,z
1/2-x,1/2-y,z
1/2+x,1/2-y,-z
1/2-x,1/2+y,-z
1/2-x,1/2-y,-z
1/2+x,1/2+y,-z
1/2-x,1/2+y,z
1/2+x,1/2-y,z
loop_
_atom_site_type_symbol
_atom_site_label
_atom_site_fract_x
_atom_site_fract_y
_atom_site_fract_z
Si Si1 0.074021 0.689517 0.093663
Si Si2 0.313766 0.710059 0.928545
Si Si3 0.925218 0.179420 0.263547
Si Si4 0.693371 0.069833 0.432096
Si Si5 0.845431 0.069253 0.409376
Si Si6 0.325062 0.427210 0.266086
O O1 0.121686 0.748395 0.081735
O O2 0.070699 0.677831 0.164765
O O3 0.109802 0.626681 0.069637
O O4 0.000000 0.698589 0.071930
O O5 0.250000 0.750000 0.905747
O O6 0.322800 0.638377 0.903741
O O7 0.303448 0.702822 0.000000
O O8 0.899769 0.250000 0.250000
O O9 0.877093 0.123910 0.242472
O O10 0.000000 0.173515 0.239788
O O11 0.667120 0.069145 0.500000
O O12 0.772448 0.072216 0.435155
O O13 0.676990 0.000000 0.404856
O O14 0.833538 0.073386 0.337908
O O15 0.874425 0.000000 0.422489
O O16 0.337256 0.500000 0.246302
O O17 0.250000 0.411117 0.250000
#
# Coordination Sequence:
#
# PCOD9511642 Si02
#       6
#    32  32  32  32  32  32
#     4  10  20  33  50  72  99 130 162 200 245 293
#     4  10  19  32  50  73 100 129 163 202 241 287
#     4   9  19  35  50  68  97 130 163 199 243 295
#     4   9  17  30  49  70  94 127 163 198 239 285
#     4   9  17  30  48  71  99 128 158 194 241 293
#     4   9  18  31  47  71  99 124 159 204 242 282
#
# _framework density 20.008891999999999
#
# number of rings (size 3 to 8) (size 9 to 14) (size 15 to 20)
#    0.000    2.667    1.667    0.000    0.000    2.667 
#    0.000    3.333    0.000    0.500    0.000    8.167 
#    0.000    0.000    0.000    0.000    0.000    0.000 
#
# Total GULP energy -267548.211557 kJ/mol
# GULP energy per Si atom -5573.921074 kJ/mol
# Density = 1.996335 g / cm^3
# Si number density = 20.008892 Si / 1000 Ang^3
#
#
#
# Elastic Constant Matrix: (Units=GPa)
#
#
# Indices 1 2 3 4 5 6 
#
# 1 100.6714 99.4018 0.4066 0.0000 0.0000 0.0000
# 2 99.4018 218.4669 4.0702 0.0000 0.0000 0.0000
# 3 0.4066 4.0702 35.5970 0.0000 0.0000 0.0000
# 4 0.0000 0.0000 0.0000 -624.0479 0.0000 0.0000
# 5 0.0000 0.0000 0.0000 0.0000 17.4399 0.0000
# 6 0.0000 0.0000 0.0000 0.0000 0.0000 21.7464
#
#
#
# Elastic Compliance Matrix: (Units=1/GPa)
#
#
# Indices 1 2 3 4 5 6 
#
# 1 0.018055 -0.008229 0.000735 0.000000 0.000000 0.000000
# 2 -0.008229 0.008337 -0.000859 0.000000 0.000000 0.000000
# 3 0.000735 -0.000859 0.028182 0.000000 0.000000 0.000000
# 4 0.000000 0.000000 0.000000 -0.001602 0.000000 0.000000
# 5 0.000000 0.000000 0.000000 0.000000 0.057340 0.000000
# 6 0.000000 0.000000 0.000000 0.000000 0.000000 0.045985
#
#
# Mechanical properties :
#
#
# Convention : Reuss Voigt Hill
#
# Bulk Modulus (GPa) = 26.40755 62.49917 44.45336
# Shear Modulus (GPa) = 26.93577 -100.24856 -36.65639
#
# Velocity S-wave (km/s) = 3.67303 -7.08596 -4.28484
# Velocity P-wave (km/s) = 5.58701 5.97028 1.48820
#
# Compressibility (1/GPa) = 0.03786796
#
# Stress axis : x y z
#
# Youngs Moduli (GPa) = 55.38503 119.94058 35.48351
#
# Poissons Ratio (x) = 0.98697 -0.02607
# Poissons Ratio (y) = 0.45576 0.03049
# Poissons Ratio (z) = -0.04069 0.10307
#
# Static dielectric constant tensor:
#      x y z
#    x 1.666250 0.000000 0.000000 
#    y 0.000000 1.753390 0.000000 
#    z 0.000000 0.000000 1.805600 
# 
# From -- ./inp_files/32106.got.cif
#   From: 2010.05.17/outbox.cif.g08.bks.cpg/sg69_17_cif.got.tgz:32106.got - 2010.06.03 19:29:58.
