data_PCOD9511094
_publ_section_title
;
Structure prediction by ZEFSAII (Michael W. Deem and Ramdas Pophale) SiO2 
 PCOD9511094
Probable space group: F M M M
;
_chemical_formula_sum "Si O2"
_cell_formula_units_Z 136
_cell_length_a 19.827732
_cell_length_b 14.613152
_cell_length_c 25.192696
_cell_angle_alpha 90.000000
_cell_angle_beta 90.000000
_cell_angle_gamma 90.000000
_cell_volume 7299.474368
_symmetry_space_group_name_H-M "F M M M"
_symmetry_group_IT_number 69
_symmetry_cell_setting 'orthorhombic'
loop_
_space_group_symop_operation_xyz
x,y,z
-x,-y,z
x,-y,-z
-x,y,-z
-x,-y,-z
x,y,-z
-x,y,z
x,-y,z
x,1/2+y,1/2+z
-x,1/2-y,1/2+z
x,1/2-y,1/2-z
-x,1/2+y,1/2-z
-x,1/2-y,1/2-z
x,1/2+y,1/2-z
-x,1/2+y,1/2+z
x,1/2-y,1/2+z
1/2+x,y,1/2+z
1/2-x,-y,1/2+z
1/2+x,-y,1/2-z
1/2-x,y,1/2-z
1/2-x,-y,1/2-z
1/2+x,y,1/2-z
1/2-x,y,1/2+z
1/2+x,-y,1/2+z
1/2+x,1/2+y,z
1/2-x,1/2-y,z
1/2+x,1/2-y,-z
1/2-x,1/2+y,-z
1/2-x,1/2-y,-z
1/2+x,1/2+y,-z
1/2-x,1/2+y,z
1/2+x,1/2-y,z
loop_
_atom_site_type_symbol
_atom_site_label
_atom_site_fract_x
_atom_site_fract_y
_atom_site_fract_z
Si Si1 0.286354 0.840399 0.412565
Si Si2 0.712346 0.389368 0.696250
Si Si3 0.578413 0.889538 0.363584
Si Si4 0.574344 0.388760 0.738759
Si Si5 0.227015 0.000000 0.000000
O O1 0.250000 0.750000 0.433229
O O2 0.250210 0.859095 0.356079
O O3 0.366124 0.838155 0.398610
O O4 0.274746 0.920984 0.453592
O O5 0.712134 0.500000 0.695913
O O6 0.750000 0.360935 0.750000
O O7 0.635391 0.356535 0.702313
O O8 0.500000 0.871807 0.377171
O O9 0.587110 0.868611 0.300874
O O10 0.589658 0.000000 0.369369
O O11 0.500000 0.354942 0.723765
O O12 0.572952 0.500000 0.735944
#
# Coordination Sequence:
#
# PCOD9511094 Si02
#       5
#    32  32  32  32   8
#     4  12  24  40  63  92 121 163 206 260 313 364
#     4  10  17  31  57  86 123 161 197 236 301 372
#     4   9  16  33  60  91 128 161 192 247 313 367
#     4   8  14  25  49  85 123 164 198 230 290 372
#     4  12  26  48  63  82 121 158 218 266 308 370
#
# _framework density 18.631478000000001
#
# number of rings (size 3 to 8) (size 9 to 14) (size 15 to 20)
#    0.000    2.118    4.706    1.765    0.000    0.471 
#    0.000    2.353    0.000    2.824    0.000    5.765 
#    0.000    0.000    0.000    0.000    0.000    0.000 
#
# Total GULP energy -189272.261812 kJ/mol
# GULP energy per Si atom -5566.831230 kJ/mol
# Density = 1.858907 g / cm^3
# Si number density = 18.631478 Si / 1000 Ang^3
#
#
#
# Elastic Constant Matrix: (Units=GPa)
#
#
# Indices 1 2 3 4 5 6 
#
# 1 131.6505 48.1175 45.0418 0.0000 0.0000 0.0000
# 2 48.1175 66.5871 33.9987 0.0000 0.0000 0.0000
# 3 45.0418 33.9987 104.3745 0.0000 0.0000 0.0000
# 4 0.0000 0.0000 0.0000 60.9175 0.0000 0.0000
# 5 0.0000 0.0000 0.0000 0.0000 -4.1340 0.0000
# 6 0.0000 0.0000 0.0000 0.0000 0.0000 14.0611
#
#
#
# Elastic Compliance Matrix: (Units=1/GPa)
#
#
# Indices 1 2 3 4 5 6 
#
# 1 0.010862 -0.006544 -0.002556 0.000000 0.000000 0.000000
# 2 -0.006544 0.021957 -0.004328 0.000000 0.000000 0.000000
# 3 -0.002556 -0.004328 0.012094 0.000000 0.000000 0.000000
# 4 0.000000 0.000000 0.000000 0.016416 0.000000 0.000000
# 5 0.000000 0.000000 0.000000 0.000000 -0.241894 0.000000
# 6 0.000000 0.000000 0.000000 0.000000 0.000000 0.071118
#
#
# Mechanical properties :
#
#
# Convention : Reuss Voigt Hill
#
# Bulk Modulus (GPa) = 55.38191 61.88088 58.63139
# Shear Modulus (GPa) = -65.29764 25.86585 -19.71590
#
# Velocity S-wave (km/s) = -5.92647 3.73002 -3.25653
# Velocity P-wave (km/s) = 4.12811 7.19971 4.17101
#
# Compressibility (1/GPa) = 0.01805644
#
# Stress axis : x y z
#
# Youngs Moduli (GPa) = 92.06250 45.54380 82.68842
#
# Poissons Ratio (x) = 0.29805 0.21133
# Poissons Ratio (y) = 0.60249 0.35788
# Poissons Ratio (z) = 0.23529 0.19711
#
# Static dielectric constant tensor:
#      x y z
#    x 1.683390 0.000000 0.000000 
#    y 0.000000 1.759600 0.000000 
#    z 0.000000 0.000000 1.594830 
# 
# From -- ./inp_files/16544.got.cif
#   From: 2010.05.17/outbox.cif.g08.bks.cpg/sg69_9_cif.got.tgz:16544.got - 2010.06.03 19:29:58.
