data_PCOD9511221
_publ_section_title
;
Structure prediction by ZEFSAII (Michael W. Deem and Ramdas Pophale) SiO2 
 PCOD9511221
Probable space group: F M M M
;
_chemical_formula_sum "Si O2"
_cell_formula_units_Z 144
_cell_length_a 27.909072
_cell_length_b 32.942443
_cell_length_c 8.302721
_cell_angle_alpha 90.000000
_cell_angle_beta 90.000000
_cell_angle_gamma 90.000000
_cell_volume 7633.463681
_symmetry_space_group_name_H-M "F M M M"
_symmetry_group_IT_number 69
_symmetry_cell_setting 'orthorhombic'
loop_
_space_group_symop_operation_xyz
x,y,z
-x,-y,z
x,-y,-z
-x,y,-z
-x,-y,-z
x,y,-z
-x,y,z
x,-y,z
x,1/2+y,1/2+z
-x,1/2-y,1/2+z
x,1/2-y,1/2-z
-x,1/2+y,1/2-z
-x,1/2-y,1/2-z
x,1/2+y,1/2-z
-x,1/2+y,1/2+z
x,1/2-y,1/2+z
1/2+x,y,1/2+z
1/2-x,-y,1/2+z
1/2+x,-y,1/2-z
1/2-x,y,1/2-z
1/2-x,-y,1/2-z
1/2+x,y,1/2-z
1/2-x,y,1/2+z
1/2+x,-y,1/2+z
1/2+x,1/2+y,z
1/2-x,1/2-y,z
1/2+x,1/2-y,-z
1/2-x,1/2+y,-z
1/2-x,1/2-y,-z
1/2+x,1/2+y,-z
1/2-x,1/2+y,z
1/2+x,1/2-y,z
loop_
_atom_site_type_symbol
_atom_site_label
_atom_site_fract_x
_atom_site_fract_y
_atom_site_fract_z
Si Si1 0.195345 0.000000 0.304889
Si Si2 0.696980 0.330864 0.693044
Si Si3 0.946935 0.876501 0.306703
Si Si4 0.900824 0.294462 0.690285
Si Si5 0.150504 0.915450 0.303640
O O1 0.250000 0.000000 0.250000
O O2 0.169829 0.041292 0.248062
O O3 0.193994 0.000000 0.500000
O O4 0.694409 0.328557 0.500000
O O5 0.750000 0.320035 0.750000
O O6 0.654503 0.303436 0.763389
O O7 0.684021 0.377320 0.742597
O O8 0.948162 0.880814 0.500000
O O9 0.931656 0.830435 0.268799
O O10 0.903174 0.904503 0.247647
O O11 0.000000 0.885452 0.243041
O O12 0.906173 0.296966 0.500000
O O13 0.914596 0.250000 0.750000
O O14 0.150020 0.916068 0.500000
#
# Coordination Sequence:
#
# PCOD9511221 Si02
#       5
#    16  32  32  32  32
#     4  10  18  30  49  75 107 139 172 208 249 296
#     4  10  19  33  51  73 102 137 175 212 255 304
#     4   9  18  35  56  75  99 133 170 210 258 307
#     4  11  22  36  53  75 102 131 167 211 257 305
#     4   8  16  30  49  74 104 135 169 210 251 297
#
# _framework density 18.864307
#
# number of rings (size 3 to 8) (size 9 to 14) (size 15 to 20)
#    0.000    2.444    0.000    4.667    0.000    1.333 
#    0.000    7.222    0.000    3.333    0.000    0.000 
#    0.000    8.000    0.000    0.000    0.000    0.000 
#
# Total GULP energy -200906.289002 kJ/mol
# GULP energy per Si atom -5580.730250 kJ/mol
# Density = 1.882137 g / cm^3
# Si number density = 18.864307 Si / 1000 Ang^3
#
#
#
# Elastic Constant Matrix: (Units=GPa)
#
#
# Indices 1 2 3 4 5 6 
#
# 1 108.3273 25.2219 -5.5748 -0.0117 0.0174 -0.0030
# 2 25.2219 96.2108 -7.4353 -0.0111 0.0083 -0.0007
# 3 -5.5748 -7.4353 9.4741 -0.0245 0.0276 0.0075
# 4 -0.0117 -0.0111 -0.0245 14.4451 0.0117 0.0071
# 5 0.0174 0.0083 0.0276 0.0117 18.8502 0.0009
# 6 -0.0030 -0.0007 0.0075 0.0071 0.0009 11.9648
#
#
#
# Elastic Compliance Matrix: (Units=1/GPa)
#
#
# Indices 1 2 3 4 5 6 
#
# 1 0.009976 -0.002301 0.004064 0.000013 -0.000014 0.000000
# 2 -0.002301 0.011596 0.007746 0.000020 -0.000014 -0.000005
# 3 0.004064 0.007746 0.114023 0.000202 -0.000174 -0.000070
# 4 0.000013 0.000020 0.000202 0.069228 -0.000043 -0.000041
# 5 -0.000014 -0.000014 -0.000174 -0.000043 0.053050 -0.000004
# 6 0.000000 -0.000005 -0.000070 -0.000041 -0.000004 0.083578
#
#
# Mechanical properties :
#
#
# Convention : Reuss Voigt Hill
#
# Bulk Modulus (GPa) = 6.46774 26.49288 16.48031
# Shear Modulus (GPa) = 13.37005 22.50537 17.93771
#
# Velocity S-wave (km/s) = 2.66512 3.45775 3.08698
# Velocity P-wave (km/s) = 3.59256 5.47867 4.63262
#
# Compressibility (1/GPa) = 0.15461348
#
# Stress axis : x y z
#
# Youngs Moduli (GPa) = 100.23818 86.23839 8.77020
#
# Poissons Ratio (x) = 0.19845 -0.03564
# Poissons Ratio (y) = 0.23067 -0.06794
# Poissons Ratio (z) = -0.40740 -0.66803
#
# Static dielectric constant tensor:
#      x y z
#    x 1.654410 0.000000 0.000000 
#    y 0.000000 1.641470 0.000000 
#    z 0.000000 0.000000 1.655590 
# 
# From -- ./inp_files/5555.got.cif
#   From: 2010.05.17/outbox.cif.g08.bks.cpg/sg69_3_cif.got.tgz:5555.got - 2010.06.03 19:29:58.
