data_PCOD9511535
_publ_section_title
;
Structure prediction by ZEFSAII (Michael W. Deem and Ramdas Pophale) SiO2 
 PCOD9511535
Probable space group: F M M M
;
_chemical_formula_sum "Si O2"
_cell_formula_units_Z 144
_cell_length_a 25.098396
_cell_length_b 17.038826
_cell_length_c 14.295385
_cell_angle_alpha 90.000000
_cell_angle_beta 90.000000
_cell_angle_gamma 90.000000
_cell_volume 6113.381401
_symmetry_space_group_name_H-M "F M M M"
_symmetry_group_IT_number 69
_symmetry_cell_setting 'orthorhombic'
loop_
_space_group_symop_operation_xyz
x,y,z
-x,-y,z
x,-y,-z
-x,y,-z
-x,-y,-z
x,y,-z
-x,y,z
x,-y,z
x,1/2+y,1/2+z
-x,1/2-y,1/2+z
x,1/2-y,1/2-z
-x,1/2+y,1/2-z
-x,1/2-y,1/2-z
x,1/2+y,1/2-z
-x,1/2+y,1/2+z
x,1/2-y,1/2+z
1/2+x,y,1/2+z
1/2-x,-y,1/2+z
1/2+x,-y,1/2-z
1/2-x,y,1/2-z
1/2-x,-y,1/2-z
1/2+x,y,1/2-z
1/2-x,y,1/2+z
1/2+x,-y,1/2+z
1/2+x,1/2+y,z
1/2-x,1/2-y,z
1/2+x,1/2-y,-z
1/2-x,1/2+y,-z
1/2-x,1/2-y,-z
1/2+x,1/2+y,-z
1/2-x,1/2+y,z
1/2+x,1/2-y,z
loop_
_atom_site_type_symbol
_atom_site_label
_atom_site_fract_x
_atom_site_fract_y
_atom_site_fract_z
Si Si1 0.940840 0.164894 0.613880
Si Si2 0.000000 0.908904 0.885555
Si Si3 0.391336 0.179007 0.613271
Si Si4 0.226410 0.000000 0.645645
Si Si5 0.603209 0.500000 0.613719
Si Si6 0.231020 0.664430 0.643409
O O1 0.941113 0.164380 0.500000
O O2 0.899366 0.230653 0.642614
O O3 0.926307 0.078297 0.644470
O O4 0.000000 0.187599 0.643803
O O5 0.055453 0.867505 0.855967
O O6 0.000000 0.000000 0.858607
O O7 0.000000 0.904901 0.000000
O O8 0.391523 0.175415 0.500000
O O9 0.332688 0.153930 0.642455
O O10 0.250000 0.000000 0.750000
O O11 0.163055 0.000000 0.648511
O O12 0.244544 0.916377 0.602726
O O13 0.604467 0.500000 0.500000
O O14 0.250000 0.666605 0.750000
O O15 0.250000 0.750000 0.604094
#
# Coordination Sequence:
#
# PCOD9511535 Si02
#       6
#    32  16  32  16  16  32
#     4   9  16  29  49  81 118 145 171 214 277 336
#     4   9  18  32  52  84 117 143 174 222 285 340
#     4  10  19  33  57  86 116 145 181 227 276 333
#     4  10  22  39  55  77 101 153 191 228 277 324
#     4  10  19  30  52  83 112 141 182 228 266 324
#     4  10  22  39  57  79 107 153 192 230 277 328
#
# _framework density 23.554886
#
# number of rings (size 3 to 8) (size 9 to 14) (size 15 to 20)
#    0.000    2.333    1.111    1.667    1.556    2.667 
#    0.000    0.000    0.000    2.667   23.111    0.000 
#    0.000    0.000    0.000    0.000    0.000    0.222 
#
# Total GULP energy -201244.574385 kJ/mol
# GULP energy per Si atom -5590.127066 kJ/mol
# Density = 2.350127 g / cm^3
# Si number density = 23.554886 Si / 1000 Ang^3
#
#
#
# Elastic Constant Matrix: (Units=GPa)
#
#
# Indices 1 2 3 4 5 6 
#
# 1 119.9750 24.1307 9.0407 0.0000 0.0000 0.0000
# 2 24.1307 151.9823 10.7098 0.0000 0.0000 0.0000
# 3 9.0407 10.7098 94.4806 0.0000 0.0000 0.0000
# 4 0.0000 0.0000 0.0000 -14.5697 0.0000 0.0000
# 5 0.0000 0.0000 0.0000 0.0000 36.0198 0.0000
# 6 0.0000 0.0000 0.0000 0.0000 0.0000 56.6450
#
#
#
# Elastic Compliance Matrix: (Units=1/GPa)
#
#
# Indices 1 2 3 4 5 6 
#
# 1 0.008653 -0.001326 -0.000678 0.000000 0.000000 0.000000
# 2 -0.001326 0.006836 -0.000648 0.000000 0.000000 0.000000
# 3 -0.000678 -0.000648 0.010722 0.000000 0.000000 0.000000
# 4 0.000000 0.000000 0.000000 -0.068635 0.000000 0.000000
# 5 0.000000 0.000000 0.000000 0.000000 0.027763 0.000000
# 6 0.000000 0.000000 0.000000 0.000000 0.000000 0.017654
#
#
# Mechanical properties :
#
#
# Convention : Reuss Voigt Hill
#
# Bulk Modulus (GPa) = 47.82911 50.46672 49.14791
# Shear Modulus (GPa) = 327.54785 37.12279 182.33532
#
# Velocity S-wave (km/s) = 11.80505 3.97421 8.80777
# Velocity P-wave (km/s) = 14.35833 6.52156 11.15106
#
# Compressibility (1/GPa) = 0.02090777
#
# Stress axis : x y z
#
# Youngs Moduli (GPa) = 115.56885 146.28606 93.26202
#
# Poissons Ratio (x) = 0.19399 0.06320
# Poissons Ratio (y) = 0.15325 0.06043
# Poissons Ratio (z) = 0.07832 0.09479
#
# Static dielectric constant tensor:
#      x y z
#    x 1.818370 0.000000 0.000000 
#    y 0.000000 1.903640 0.000000 
#    z 0.000000 0.000000 1.928790 
# 
# From -- ./inp_files/31696.got.cif
#   From: 2010.05.17/outbox.cif.g08.bks.cpg/sg69_16_cif.got.tgz:31696.got - 2010.06.03 19:29:58.
