data_PCOD9511800
_publ_section_title
;
Structure prediction by ZEFSAII (Michael W. Deem and Ramdas Pophale) SiO2 
 PCOD9511800
Probable space group: F M M M
;
_chemical_formula_sum "Si O2"
_cell_formula_units_Z 168
_cell_length_a 31.397067
_cell_length_b 17.953782
_cell_length_c 14.389120
_cell_angle_alpha 90.000000
_cell_angle_beta 90.000000
_cell_angle_gamma 90.000000
_cell_volume 8111.090774
_symmetry_space_group_name_H-M "F M M M"
_symmetry_group_IT_number 69
_symmetry_cell_setting 'orthorhombic'
loop_
_space_group_symop_operation_xyz
x,y,z
-x,-y,z
x,-y,-z
-x,y,-z
-x,-y,-z
x,y,-z
-x,y,z
x,-y,z
x,1/2+y,1/2+z
-x,1/2-y,1/2+z
x,1/2-y,1/2-z
-x,1/2+y,1/2-z
-x,1/2-y,1/2-z
x,1/2+y,1/2-z
-x,1/2+y,1/2+z
x,1/2-y,1/2+z
1/2+x,y,1/2+z
1/2-x,-y,1/2+z
1/2+x,-y,1/2-z
1/2-x,y,1/2-z
1/2-x,-y,1/2-z
1/2+x,y,1/2-z
1/2-x,y,1/2+z
1/2+x,-y,1/2+z
1/2+x,1/2+y,z
1/2-x,1/2-y,z
1/2+x,1/2-y,-z
1/2-x,1/2+y,-z
1/2-x,1/2-y,-z
1/2+x,1/2+y,-z
1/2-x,1/2+y,z
1/2+x,1/2-y,z
loop_
_atom_site_type_symbol
_atom_site_label
_atom_site_fract_x
_atom_site_fract_y
_atom_site_fract_z
Si Si1 0.840548 0.914168 0.697994
Si Si2 0.000000 0.646858 0.000000
Si Si3 0.795790 0.726240 0.142206
Si Si4 0.546921 0.181187 0.678441
Si Si5 0.437665 0.413536 0.651287
Si Si6 0.137181 0.152464 0.899607
O O1 0.807181 0.860460 0.647186
O O2 0.886830 0.903805 0.650464
O O3 0.848065 0.891517 0.806644
O O4 0.828393 0.000000 0.692956
O O5 0.036992 0.637964 0.919263
O O6 0.795424 0.750000 0.250000
O O7 0.750000 0.750000 0.103882
O O8 0.834106 0.773517 0.100225
O O9 0.500000 0.188538 0.634246
O O10 0.552841 0.250000 0.750000
O O11 0.548323 0.108777 0.744966
O O12 0.587853 0.174894 0.613936
O O13 0.447572 0.500000 0.629681
O O14 0.142495 0.114231 0.000000
#
# Coordination Sequence:
#
# PCOD9511800 Si02
#       6
#    32   8  32  32  32  32
#     4   9  19  37  59  84 117 150 187 235 287 338
#     4  12  21  32  54  88 118 150 195 230 281 344
#     4   9  18  37  61  83 108 146 190 230 288 357
#     4  10  20  36  50  73 112 152 192 236 283 332
#     4  10  19  33  54  80 114 152 185 227 281 338
#     4  10  20  35  56  81 112 150 195 236 277 341
#
# _framework density 20.71238
#
# number of rings (size 3 to 8) (size 9 to 14) (size 15 to 20)
#    0.000    2.286    0.952    3.714    0.000    1.143 
#    6.857    7.619    0.000    0.000    0.000    5.333 
#    0.000    0.000    0.000    0.000    0.000    0.000 
#
# Total GULP energy -233820.759772 kJ/mol
# GULP energy per Si atom -5567.160947 kJ/mol
# Density = 2.066524 g / cm^3
# Si number density = 20.712380 Si / 1000 Ang^3
#
#
#
# Elastic Constant Matrix: (Units=GPa)
#
#
# Indices 1 2 3 4 5 6 
#
# 1 133.3099 53.7906 37.9943 0.0000 0.0000 0.0000
# 2 53.7906 93.1749 3.2738 0.0000 0.0000 0.0000
# 3 37.9943 3.2738 82.7192 0.0000 0.0000 0.0000
# 4 0.0000 0.0000 0.0000 -2.7942 0.0000 0.0000
# 5 0.0000 0.0000 0.0000 0.0000 266.9690 0.0000
# 6 0.0000 0.0000 0.0000 0.0000 0.0000 15.3961
#
#
#
# Elastic Compliance Matrix: (Units=1/GPa)
#
#
# Indices 1 2 3 4 5 6 
#
# 1 0.011564 -0.006498 -0.005054 0.000000 0.000000 0.000000
# 2 -0.006498 0.014399 0.002415 0.000000 0.000000 0.000000
# 3 -0.005054 0.002415 0.014315 0.000000 0.000000 0.000000
# 4 0.000000 0.000000 0.000000 -0.357885 0.000000 0.000000
# 5 0.000000 0.000000 0.000000 0.000000 0.003746 0.000000
# 6 0.000000 0.000000 0.000000 0.000000 0.000000 0.064951
#
#
# Mechanical properties :
#
#
# Convention : Reuss Voigt Hill
#
# Bulk Modulus (GPa) = 45.44901 55.48016 50.46459
# Shear Modulus (GPa) = -22.39139 70.19053 23.89957
#
# Velocity S-wave (km/s) = -3.29152 5.82767 3.40056
# Velocity P-wave (km/s) = 2.74683 8.49273 6.31156
#
# Compressibility (1/GPa) = 0.02200268
#
# Stress axis : x y z
#
# Youngs Moduli (GPa) = 86.47579 69.44824 69.85653
#
# Poissons Ratio (x) = 0.45130 0.35308
# Poissons Ratio (y) = 0.56195 -0.16870
# Poissons Ratio (z) = 0.43708 -0.16771
#
# Static dielectric constant tensor:
#      x y z
#    x 1.757830 0.000000 0.000000 
#    y 0.000000 1.759770 0.000000 
#    z 0.000000 0.000000 1.742330 
# 
# From -- ./inp_files/19684.got.cif
#   From: 2010.05.17/outbox.cif.g08.bks.cpg/sg69_10_cif.got.tgz:19684.got - 2010.06.03 19:29:58.
