data_PCOD9511233
_publ_section_title
;
Structure prediction by ZEFSAII (Michael W. Deem and Ramdas Pophale) SiO2 
 PCOD9511233
Probable space group: F M M M
;
_chemical_formula_sum "Si O2"
_cell_formula_units_Z 96
_cell_length_a 7.803085
_cell_length_b 25.835317
_cell_length_c 20.590825
_cell_angle_alpha 90.000000
_cell_angle_beta 90.000000
_cell_angle_gamma 90.000000
_cell_volume 4151.010960
_symmetry_space_group_name_H-M "F M M M"
_symmetry_group_IT_number 69
_symmetry_cell_setting 'orthorhombic'
loop_
_space_group_symop_operation_xyz
x,y,z
-x,-y,z
x,-y,-z
-x,y,-z
-x,-y,-z
x,y,-z
-x,y,z
x,-y,z
x,1/2+y,1/2+z
-x,1/2-y,1/2+z
x,1/2-y,1/2-z
-x,1/2+y,1/2-z
-x,1/2-y,1/2-z
x,1/2+y,1/2-z
-x,1/2+y,1/2+z
x,1/2-y,1/2+z
1/2+x,y,1/2+z
1/2-x,-y,1/2+z
1/2+x,-y,1/2-z
1/2-x,y,1/2-z
1/2-x,-y,1/2-z
1/2+x,y,1/2-z
1/2-x,y,1/2+z
1/2+x,-y,1/2+z
1/2+x,1/2+y,z
1/2-x,1/2-y,z
1/2+x,1/2-y,-z
1/2-x,1/2+y,-z
1/2-x,1/2-y,-z
1/2+x,1/2+y,-z
1/2-x,1/2+y,z
1/2+x,1/2-y,z
loop_
_atom_site_type_symbol
_atom_site_label
_atom_site_fract_x
_atom_site_fract_y
_atom_site_fract_z
Si Si1 0.206879 0.083164 0.320038
Si Si2 0.295032 0.810617 0.500000
Si Si3 0.303876 0.690044 0.357268
Si Si4 0.709628 0.000000 0.924860
O O1 0.250000 0.060079 0.250000
O O2 0.281385 0.141749 0.321267
O O3 0.265166 0.049238 0.381456
O O4 0.000000 0.085325 0.325063
O O5 0.500000 0.817576 0.500000
O O6 0.250000 0.750000 0.500000
O O7 0.215265 0.827950 0.432415
O O8 0.500000 0.691549 0.337783
O O9 0.250000 0.750000 0.350818
O O10 0.500000 0.000000 0.926358
O O11 0.767031 0.000000 0.000000
#
# Coordination Sequence:
#
# PCOD9511233 Si02
#       4
#    32  16  32  16
#     4  10  22  38  61  88 117 156 194 240 292 347
#     4  10  18  30  50  77 110 151 191 238 288 332
#     4  10  20  34  54  83 117 156 197 236 286 344
#     4   9  19  38  65  91 112 145 196 246 293 346
#
# _framework density 23.126895999999999
#
# number of rings (size 3 to 8) (size 9 to 14) (size 15 to 20)
#    0.000    2.167    0.000    5.000    2.333    3.333 
#    0.000    3.333    0.000    1.000    0.000    0.000 
#    0.000    0.000    0.000    0.000    0.000    0.000 
#
# Total GULP energy -133788.281253 kJ/mol
# GULP energy per Si atom -5574.511719 kJ/mol
# Density = 2.307426 g / cm^3
# Si number density = 23.126896 Si / 1000 Ang^3
#
#
#
# Elastic Constant Matrix: (Units=GPa)
#
#
# Indices 1 2 3 4 5 6 
#
# 1 36.1709 18.9108 -20.9503 0.0000 0.0000 0.0000
# 2 18.9108 170.0629 78.9948 0.0000 0.0000 0.0000
# 3 -20.9503 78.9948 167.0800 0.0000 0.0000 0.0000
# 4 0.0000 0.0000 0.0000 25.2542 0.0000 0.0000
# 5 0.0000 0.0000 0.0000 0.0000 21.2311 0.0000
# 6 0.0000 0.0000 0.0000 0.0000 0.0000 5.7210
#
#
#
# Elastic Compliance Matrix: (Units=1/GPa)
#
#
# Indices 1 2 3 4 5 6 
#
# 1 0.036647 -0.007957 0.008357 0.000000 0.000000 0.000000
# 2 -0.007957 0.009263 -0.005377 0.000000 0.000000 0.000000
# 3 0.008357 -0.005377 0.009575 0.000000 0.000000 0.000000
# 4 0.000000 0.000000 0.000000 0.039597 0.000000 0.000000
# 5 0.000000 0.000000 0.000000 0.000000 0.047101 0.000000
# 6 0.000000 0.000000 0.000000 0.000000 0.000000 0.174795
#
#
# Mechanical properties :
#
#
# Convention : Reuss Voigt Hill
#
# Bulk Modulus (GPa) = 21.96286 58.58049 40.27167
# Shear Modulus (GPa) = 14.61523 30.19850 22.40686
#
# Velocity S-wave (km/s) = 2.51661 3.61747 3.11604
# Velocity P-wave (km/s) = 4.23812 6.54470 5.51338
#
# Compressibility (1/GPa) = 0.04553142
#
# Stress axis : x y z
#
# Youngs Moduli (GPa) = 27.28721 107.96017 104.43478
#
# Poissons Ratio (x) = 0.85905 -0.87279
# Poissons Ratio (y) = 0.21713 0.56156
# Poissons Ratio (z) = -0.22805 0.58051
#
# Static dielectric constant tensor:
#      x y z
#    x 1.840160 0.000000 0.000000 
#    y 0.000000 1.915810 0.000000 
#    z 0.000000 0.000000 1.906050 
# 
# From -- ./inp_files/28437.got.cif
#   From: 2010.05.17/outbox.cif.g08.bks.cpg/sg69_15_cif.got.tgz:28437.got - 2010.06.03 19:29:58.
