data_PCOD9511995
_publ_section_title
;
Structure prediction by ZEFSAII (Michael W. Deem and Ramdas Pophale) SiO2 
 PCOD9511995
Probable space group: F M M M
;
_chemical_formula_sum "Si O2"
_cell_formula_units_Z 192
_cell_length_a 19.568448
_cell_length_b 25.619993
_cell_length_c 19.990889
_cell_angle_alpha 90.000000
_cell_angle_beta 90.000000
_cell_angle_gamma 90.000000
_cell_volume 10022.302275
_symmetry_space_group_name_H-M "F M M M"
_symmetry_group_IT_number 69
_symmetry_cell_setting 'orthorhombic'
loop_
_space_group_symop_operation_xyz
x,y,z
-x,-y,z
x,-y,-z
-x,y,-z
-x,-y,-z
x,y,-z
-x,y,z
x,-y,z
x,1/2+y,1/2+z
-x,1/2-y,1/2+z
x,1/2-y,1/2-z
-x,1/2+y,1/2-z
-x,1/2-y,1/2-z
x,1/2+y,1/2-z
-x,1/2+y,1/2+z
x,1/2-y,1/2+z
1/2+x,y,1/2+z
1/2-x,-y,1/2+z
1/2+x,-y,1/2-z
1/2-x,y,1/2-z
1/2-x,-y,1/2-z
1/2+x,y,1/2-z
1/2-x,y,1/2+z
1/2+x,-y,1/2+z
1/2+x,1/2+y,z
1/2-x,1/2-y,z
1/2+x,1/2-y,-z
1/2-x,1/2+y,-z
1/2-x,1/2-y,-z
1/2+x,1/2+y,-z
1/2-x,1/2+y,z
1/2+x,1/2-y,z
loop_
_atom_site_type_symbol
_atom_site_label
_atom_site_fract_x
_atom_site_fract_y
_atom_site_fract_z
Si Si1 0.820288 0.942470 0.577709
Si Si2 0.423082 0.641176 0.212951
Si Si3 0.718694 0.806965 0.427619
Si Si4 0.579379 0.647288 0.627392
Si Si5 0.921778 0.730329 0.387946
Si Si6 0.719856 0.894749 0.324491
O O1 0.800084 0.940190 0.500000
O O2 0.872438 0.895462 0.593554
O O3 0.756094 0.936410 0.627754
O O4 0.851730 0.000000 0.589322
O O5 0.500000 0.622913 0.196833
O O6 0.414592 0.641595 0.292516
O O7 0.418341 0.700333 0.183701
O O8 0.362134 0.606946 0.181966
O O9 0.740411 0.828717 0.500000
O O10 0.750000 0.750000 0.420854
O O11 0.637088 0.799260 0.427579
O O12 0.737965 0.841411 0.364126
O O13 0.500000 0.638502 0.608811
O O14 0.594513 0.708134 0.612300
O O15 0.000000 0.724489 0.411548
O O16 0.750000 0.896318 0.250000
#
# Coordination Sequence:
#
# PCOD9511995 Si02
#       6
#    32  32  32  32  32  32
#     4  11  25  43  61  83 114 152 197 250 303 351
#     4   9  18  34  56  88 124 151 185 232 286 342
#     4  10  21  34  50  77 118 156 190 233 282 340
#     4  10  19  35  58  85 118 157 197 236 286 347
#     4   9  18  31  53  83 118 157 193 229 274 340
#     4  11  21  37  60  86 109 148 194 242 291 348
#
# _framework density 19.157274999999998
#
# number of rings (size 3 to 8) (size 9 to 14) (size 15 to 20)
#    0.000    2.000    1.667    2.000    0.000    5.667 
#    0.000    2.500    0.000    2.000    0.000    1.167 
#    0.000    0.000    0.000    0.000    0.000    0.000 
#
# Total GULP energy -267577.551038 kJ/mol
# GULP energy per Si atom -5574.532313 kJ/mol
# Density = 1.911367 g / cm^3
# Si number density = 19.157275 Si / 1000 Ang^3
#
#
#
# Elastic Constant Matrix: (Units=GPa)
#
#
# Indices 1 2 3 4 5 6 
#
# 1 80.8984 43.3803 28.1097 0.0000 0.0000 0.0000
# 2 43.3803 76.1900 36.4652 0.0000 0.0000 0.0000
# 3 28.1097 36.4652 116.8711 0.0000 0.0000 0.0000
# 4 0.0000 0.0000 0.0000 19.5584 0.0000 0.0000
# 5 0.0000 0.0000 0.0000 0.0000 11.5095 0.0000
# 6 0.0000 0.0000 0.0000 0.0000 0.0000 21.1225
#
#
#
# Elastic Compliance Matrix: (Units=1/GPa)
#
#
# Indices 1 2 3 4 5 6 
#
# 1 0.017968 -0.009595 -0.001328 0.000000 0.000000 0.000000
# 2 -0.009595 0.020553 -0.004105 0.000000 0.000000 0.000000
# 3 -0.001328 -0.004105 0.010157 0.000000 0.000000 0.000000
# 4 0.000000 0.000000 0.000000 0.051129 0.000000 0.000000
# 5 0.000000 0.000000 0.000000 0.000000 0.086885 0.000000
# 6 0.000000 0.000000 0.000000 0.000000 0.000000 0.047343
#
#
# Mechanical properties :
#
#
# Convention : Reuss Voigt Hill
#
# Bulk Modulus (GPa) = 53.70049 54.42997 54.06523
# Shear Modulus (GPa) = 18.49824 21.50502 20.00163
#
# Velocity S-wave (km/s) = 3.11078 3.35408 3.23472
# Velocity P-wave (km/s) = 6.40272 6.59346 6.49879
#
# Compressibility (1/GPa) = 0.01862180
#
# Stress axis : x y z
#
# Youngs Moduli (GPa) = 55.65597 48.65556 98.45796
#
# Poissons Ratio (x) = 0.46683 0.13074
# Poissons Ratio (y) = 0.53400 0.40417
# Poissons Ratio (z) = 0.07390 0.19973
#
# Static dielectric constant tensor:
#      x y z
#    x 1.714640 0.000000 0.000000 
#    y 0.000000 1.652810 0.000000 
#    z 0.000000 0.000000 1.672420 
# 
# From -- ./inp_files/32072.got.cif
#   From: 2010.05.17/outbox.cif.g08.bks.cpg/sg69_17_cif.got.tgz:32072.got - 2010.06.03 19:29:58.
