data_PCOD9511028
_publ_section_title
;
Structure prediction by ZEFSAII (Michael W. Deem and Ramdas Pophale) SiO2 
 PCOD9511028
Probable space group: F M M M
;
_chemical_formula_sum "Si O2"
_cell_formula_units_Z 104
_cell_length_a 16.539929
_cell_length_b 29.573060
_cell_length_c 10.238657
_cell_angle_alpha 90.000000
_cell_angle_beta 90.000000
_cell_angle_gamma 90.000000
_cell_volume 5008.098932
_symmetry_space_group_name_H-M "F M M M"
_symmetry_group_IT_number 69
_symmetry_cell_setting 'orthorhombic'
loop_
_space_group_symop_operation_xyz
x,y,z
-x,-y,z
x,-y,-z
-x,y,-z
-x,-y,-z
x,y,-z
-x,y,z
x,-y,z
x,1/2+y,1/2+z
-x,1/2-y,1/2+z
x,1/2-y,1/2-z
-x,1/2+y,1/2-z
-x,1/2-y,1/2-z
x,1/2+y,1/2-z
-x,1/2+y,1/2+z
x,1/2-y,1/2+z
1/2+x,y,1/2+z
1/2-x,-y,1/2+z
1/2+x,-y,1/2-z
1/2-x,y,1/2-z
1/2-x,-y,1/2-z
1/2+x,y,1/2-z
1/2-x,y,1/2+z
1/2+x,-y,1/2+z
1/2+x,1/2+y,z
1/2-x,1/2-y,z
1/2+x,1/2-y,-z
1/2-x,1/2+y,-z
1/2-x,1/2-y,-z
1/2+x,1/2+y,-z
1/2-x,1/2+y,z
1/2+x,1/2-y,z
loop_
_atom_site_type_symbol
_atom_site_label
_atom_site_fract_x
_atom_site_fract_y
_atom_site_fract_z
Si Si1 0.175558 0.657271 0.000000
Si Si2 0.097633 0.000000 0.653548
Si Si3 0.349917 0.735013 0.000000
Si Si4 0.250000 0.250000 0.250000
Si Si5 0.869975 0.642956 0.500000
Si Si6 0.904879 0.900961 0.725646
O O1 0.145680 0.710109 0.000000
O O2 0.140888 0.632156 0.873329
O O3 0.272329 0.650525 0.000000
O O4 0.126160 0.952466 0.711937
O O5 0.116020 0.000000 0.500000
O O6 0.000000 0.000000 0.668378
O O7 0.307102 0.726401 0.857323
O O8 0.409800 0.693079 0.000000
O O9 0.894201 0.616254 0.628464
O O10 0.000000 0.900488 0.689677
#
# Coordination Sequence:
#
# PCOD9511028 Si02
#       6
#    16  16  16   8  16  32
#     4  12  22  40  67  95 120 169 219 252 301 369
#     4   9  18  41  68  88 115 168 214 246 297 394
#     4  11  22  36  61  86 131 166 213 242 301 378
#     4  10  16  34  56  82 110 164 220 230 278 358
#     4  12  24  40  61  97 130 161 203 266 313 359
#     4  11  24  42  66  92 125 164 211 256 314 375
#
# _framework density 20.766362999999998
#
# number of rings (size 3 to 8) (size 9 to 14) (size 15 to 20)
#    0.000    1.077    4.615    3.692    0.000    0.615 
#    0.000   11.538    0.000    0.000    0.000    0.000 
#    0.000    0.000    0.000    0.000    0.000    0.000 
#
# Total GULP energy -144791.284104 kJ/mol
# GULP energy per Si atom -5568.895542 kJ/mol
# Density = 2.071910 g / cm^3
# Si number density = 20.766363 Si / 1000 Ang^3
#
#
#
# Elastic Constant Matrix: (Units=GPa)
#
#
# Indices 1 2 3 4 5 6 
#
# 1 58.5374 19.6679 1.7142 0.0000 0.0000 0.0000
# 2 19.6679 193.6305 46.1847 0.0000 0.0000 0.0000
# 3 1.7142 46.1847 126.6441 0.0000 0.0000 0.0000
# 4 0.0000 0.0000 0.0000 34.1088 0.0000 0.0000
# 5 0.0000 0.0000 0.0000 0.0000 -183.5864 0.0000
# 6 0.0000 0.0000 0.0000 0.0000 0.0000 12.8705
#
#
#
# Elastic Compliance Matrix: (Units=1/GPa)
#
#
# Indices 1 2 3 4 5 6 
#
# 1 0.017711 -0.001908 0.000456 0.000000 0.000000 0.000000
# 2 -0.001908 0.005862 -0.002112 0.000000 0.000000 0.000000
# 3 0.000456 -0.002112 0.008660 0.000000 0.000000 0.000000
# 4 0.000000 0.000000 0.000000 0.029318 0.000000 0.000000
# 5 0.000000 0.000000 0.000000 0.000000 -0.005447 0.000000
# 6 0.000000 0.000000 0.000000 0.000000 0.000000 0.077697
#
#
# Mechanical properties :
#
#
# Convention : Reuss Voigt Hill
#
# Bulk Modulus (GPa) = 39.83186 57.10506 48.46846
# Shear Modulus (GPa) = 33.49034 -6.57174 13.45930
#
# Velocity S-wave (km/s) = 4.02023 -1.78086 2.54860
# Velocity P-wave (km/s) = 6.38531 4.83010 5.66136
#
# Compressibility (1/GPa) = 0.02510553
#
# Stress axis : x y z
#
# Youngs Moduli (GPa) = 56.46300 170.59060 115.47135
#
# Poissons Ratio (x) = 0.32544 -0.05265
# Poissons Ratio (y) = 0.10772 0.24387
# Poissons Ratio (z) = -0.02575 0.36028
#
# Static dielectric constant tensor:
#      x y z
#    x 1.811960 0.000000 0.000000 
#    y 0.000000 1.794070 0.000000 
#    z 0.000000 0.000000 1.690760 
# 
# From -- ./inp_files/3016.got.cif
#   From: 2010.05.17/outbox.cif.g08.bks.cpg/sg69_2_cif.got.tgz:3016.got - 2010.06.03 19:29:58.
