data_PCOD9511223
_publ_section_title
;
Structure prediction by ZEFSAII (Michael W. Deem and Ramdas Pophale) SiO2 
 PCOD9511223
Probable space group: F M M M
;
_chemical_formula_sum "Si O2"
_cell_formula_units_Z 112
_cell_length_a 8.716857
_cell_length_b 25.852012
_cell_length_c 31.612075
_cell_angle_alpha 90.000000
_cell_angle_beta 90.000000
_cell_angle_gamma 90.000000
_cell_volume 7123.727100
_symmetry_space_group_name_H-M "F M M M"
_symmetry_group_IT_number 69
_symmetry_cell_setting 'orthorhombic'
loop_
_space_group_symop_operation_xyz
x,y,z
-x,-y,z
x,-y,-z
-x,y,-z
-x,-y,-z
x,y,-z
-x,y,z
x,-y,z
x,1/2+y,1/2+z
-x,1/2-y,1/2+z
x,1/2-y,1/2-z
-x,1/2+y,1/2-z
-x,1/2-y,1/2-z
x,1/2+y,1/2-z
-x,1/2+y,1/2+z
x,1/2-y,1/2+z
1/2+x,y,1/2+z
1/2-x,-y,1/2+z
1/2+x,-y,1/2-z
1/2-x,y,1/2-z
1/2-x,-y,1/2-z
1/2+x,y,1/2-z
1/2-x,y,1/2+z
1/2+x,-y,1/2+z
1/2+x,1/2+y,z
1/2-x,1/2-y,z
1/2+x,1/2-y,-z
1/2-x,1/2+y,-z
1/2-x,1/2-y,-z
1/2+x,1/2+y,-z
1/2-x,1/2+y,z
1/2+x,1/2-y,z
loop_
_atom_site_type_symbol
_atom_site_label
_atom_site_fract_x
_atom_site_fract_y
_atom_site_fract_z
Si Si1 0.183315 0.307730 0.133410
Si Si2 0.816118 0.691628 0.546130
Si Si3 0.815984 0.392719 0.797240
Si Si4 0.316548 0.500000 0.202219
O O1 0.250000 0.250000 0.139095
O O2 0.247174 0.330668 0.089227
O O3 0.222693 0.344957 0.172359
O O4 0.000000 0.303800 0.130327
O O5 0.777083 0.668153 0.500000
O O6 0.750000 0.750000 0.545252
O O7 0.000000 0.693754 0.549492
O O8 0.750000 0.385088 0.750000
O O9 0.746759 0.446107 0.815666
O O10 0.000000 0.397696 0.794460
O O11 0.500000 0.500000 0.202970
O O12 0.250000 0.500000 0.250000
#
# Coordination Sequence:
#
# PCOD9511223 Si02
#       4
#    32  32  32  16
#     4  10  20  31  45  66  93 124 154 185 222 267
#     4   9  16  26  42  63  87 116 149 185 223 263
#     4  10  20  33  48  67  91 120 153 188 226 266
#     4  10  18  30  50  70  87 112 147 190 232 265
#
# _framework density 15.722106
#
# number of rings (size 3 to 8) (size 9 to 14) (size 15 to 20)
#    0.000    2.286    0.000    7.286    0.000    6.857 
#    0.000    2.857    0.000    0.000    0.000    1.000 
#    0.000    8.000    0.000    0.000    0.000    0.000 
#
# Total GULP energy -155947.155642 kJ/mol
# GULP energy per Si atom -5569.541273 kJ/mol
# Density = 1.568632 g / cm^3
# Si number density = 15.722106 Si / 1000 Ang^3
#
#
#
# Elastic Constant Matrix: (Units=GPa)
#
#
# Indices 1 2 3 4 5 6 
#
# 1 74.2272 41.0129 47.1233 0.0000 0.0000 0.0000
# 2 41.0129 82.8502 59.2276 0.0000 0.0000 0.0000
# 3 47.1233 59.2276 116.5581 0.0000 0.0000 0.0000
# 4 0.0000 0.0000 0.0000 -0.1296 0.0000 0.0000
# 5 0.0000 0.0000 0.0000 0.0000 25.7202 0.0000
# 6 0.0000 0.0000 0.0000 0.0000 0.0000 21.1192
#
#
#
# Elastic Compliance Matrix: (Units=1/GPa)
#
#
# Indices 1 2 3 4 5 6 
#
# 1 0.020139 -0.006516 -0.004831 0.000000 0.000000 0.000000
# 2 -0.006516 0.021064 -0.008069 0.000000 0.000000 0.000000
# 3 -0.004831 -0.008069 0.014633 0.000000 0.000000 0.000000
# 4 0.000000 0.000000 0.000000 -7.718867 0.000000 0.000000
# 5 0.000000 0.000000 0.000000 0.000000 0.038880 0.000000
# 6 0.000000 0.000000 0.000000 0.000000 0.000000 0.047350
#
#
# Mechanical properties :
#
#
# Convention : Reuss Voigt Hill
#
# Bulk Modulus (GPa) = 58.81000 63.15145 60.98073
# Shear Modulus (GPa) = -0.66381 17.76010 8.54814
#
# Velocity S-wave (km/s) = -0.65048 3.36464 2.33427
# Velocity P-wave (km/s) = 6.07643 7.43968 6.79234
#
# Compressibility (1/GPa) = 0.01700391
#
# Stress axis : x y z
#
# Youngs Moduli (GPa) = 49.65372 47.47475 68.33940
#
# Poissons Ratio (x) = 0.30933 0.33017
# Poissons Ratio (y) = 0.32353 0.55143
# Poissons Ratio (z) = 0.23989 0.38308
#
# Static dielectric constant tensor:
#      x y z
#    x 1.525420 0.000000 0.000000 
#    y 0.000000 1.526580 0.000000 
#    z 0.000000 0.000000 1.564210 
# 
# From -- ./inp_files/4726.got.cif
#   From: 2010.05.17/outbox.cif.g08.bks.cpg/sg69_3_cif.got.tgz:4726.got - 2010.06.03 19:29:58.
