data_PCOD9511414
_publ_section_title
;
Structure prediction by ZEFSAII (Michael W. Deem and Ramdas Pophale) SiO2 
 PCOD9511414
Probable space group: F M M M
;
_chemical_formula_sum "Si O2"
_cell_formula_units_Z 160
_cell_length_a 28.351929
_cell_length_b 8.740080
_cell_length_c 34.279569
_cell_angle_alpha 90.000000
_cell_angle_beta 90.000000
_cell_angle_gamma 90.000000
_cell_volume 8494.413014
_symmetry_space_group_name_H-M "F M M M"
_symmetry_group_IT_number 69
_symmetry_cell_setting 'orthorhombic'
loop_
_space_group_symop_operation_xyz
x,y,z
-x,-y,z
x,-y,-z
-x,y,-z
-x,-y,-z
x,y,-z
-x,y,z
x,-y,z
x,1/2+y,1/2+z
-x,1/2-y,1/2+z
x,1/2-y,1/2-z
-x,1/2+y,1/2-z
-x,1/2-y,1/2-z
x,1/2+y,1/2-z
-x,1/2+y,1/2+z
x,1/2-y,1/2+z
1/2+x,y,1/2+z
1/2-x,-y,1/2+z
1/2+x,-y,1/2-z
1/2-x,y,1/2-z
1/2-x,-y,1/2-z
1/2+x,y,1/2-z
1/2-x,y,1/2+z
1/2+x,-y,1/2+z
1/2+x,1/2+y,z
1/2-x,1/2-y,z
1/2+x,1/2-y,-z
1/2-x,1/2+y,-z
1/2-x,1/2-y,-z
1/2+x,1/2+y,-z
1/2-x,1/2+y,z
1/2+x,1/2-y,z
loop_
_atom_site_type_symbol
_atom_site_label
_atom_site_fract_x
_atom_site_fract_y
_atom_site_fract_z
Si Si1 0.875500 0.677325 0.645111
Si Si2 0.946049 0.321132 0.000000
Si Si3 0.696966 0.684396 0.416105
Si Si4 0.052797 0.825094 0.075172
Si Si5 0.196708 0.684761 0.500000
Si Si6 0.446432 0.316020 0.293675
O O1 0.862391 0.500000 0.653121
O O2 0.833728 0.762122 0.621400
O O3 0.917287 0.679058 0.613549
O O4 0.901768 0.753362 0.681931
O O5 0.924640 0.267019 0.040032
O O6 0.948520 0.500000 0.000000
O O7 0.000000 0.257491 0.000000
O O8 0.697492 0.500000 0.418897
O O9 0.750000 0.750000 0.411266
O O10 0.678950 0.753900 0.457791
O O11 0.000000 0.766316 0.082818
O O12 0.050198 0.000000 0.061853
O O13 0.195062 0.500000 0.500000
O O14 0.250000 0.750000 0.500000
O O15 0.500000 0.273271 0.308487
O O16 0.444471 0.500000 0.293253
O O17 0.443689 0.250000 0.250000
#
# Coordination Sequence:
#
# PCOD9511414 Si02
#       6
#    32  16  32  32  16  32
#     4  11  22  36  56  83 112 144 184 231 283 337
#     4   9  17  28  43  64  94 134 177 220 263 308
#     4  11  22  38  58  82 113 150 193 241 292 342
#     4   9  18  32  49  69  98 137 177 216 261 316
#     4  10  18  33  56  81 109 145 190 239 292 343
#     4  10  21  38  61  89 120 153 188 229 279 336
#
# _framework density 18.835910999999999
#
# number of rings (size 3 to 8) (size 9 to 14) (size 15 to 20)
#    0.000    1.900    0.000    6.000    0.000    5.600 
#    0.000    3.000    0.000    0.600    0.000    4.200 
#    0.000    0.000    0.000    0.000    0.000    0.000 
#
# Total GULP energy -222944.781909 kJ/mol
# GULP energy per Si atom -5573.619548 kJ/mol
# Density = 1.879304 g / cm^3
# Si number density = 18.835911 Si / 1000 Ang^3
#
#
#
# Elastic Constant Matrix: (Units=GPa)
#
#
# Indices 1 2 3 4 5 6 
#
# 1 116.4679 47.8997 42.8391 -0.0001 0.0000 0.0004
# 2 47.8997 120.1686 54.8049 0.0000 0.0002 0.0005
# 3 42.8391 54.8049 95.3800 0.0000 0.0000 0.0000
# 4 -0.0001 0.0000 0.0000 55.2903 -0.0001 0.0001
# 5 0.0000 0.0002 0.0000 -0.0001 42.7642 0.0000
# 6 0.0004 0.0005 0.0000 0.0001 0.0000 21.6836
#
#
#
# Elastic Compliance Matrix: (Units=1/GPa)
#
#
# Indices 1 2 3 4 5 6 
#
# 1 0.010975 -0.002882 -0.003274 0.000000 0.000000 0.000000
# 2 -0.002882 0.012033 -0.005620 0.000000 0.000000 0.000000
# 3 -0.003274 -0.005620 0.015184 0.000000 0.000000 0.000000
# 4 0.000000 0.000000 0.000000 0.018086 0.000000 0.000000
# 5 0.000000 0.000000 0.000000 0.000000 0.023384 0.000000
# 6 0.000000 0.000000 0.000000 0.000000 0.000000 0.046118
#
#
# Mechanical properties :
#
#
# Convention : Reuss Voigt Hill
#
# Bulk Modulus (GPa) = 68.29747 69.23377 68.76562
# Shear Modulus (GPa) = 32.42280 36.37914 34.40097
#
# Velocity S-wave (km/s) = 4.15339 4.39950 4.27822
# Velocity P-wave (km/s) = 7.70317 7.91477 7.80968
#
# Compressibility (1/GPa) = 0.01464183
#
# Stress axis : x y z
#
# Youngs Moduli (GPa) = 91.11319 83.10162 65.85913
#
# Poissons Ratio (x) = 0.23949 0.21560
# Poissons Ratio (y) = 0.26257 0.37013
# Poissons Ratio (z) = 0.29827 0.46703
#
# Static dielectric constant tensor:
#      x y z
#    x 1.722600 0.000000 0.000000 
#    y 0.000000 1.656570 0.000000 
#    z 0.000000 0.000000 1.651820 
# 
# From -- ./inp_files/47495.got.cif
#   From: 2010.05.17/outbox.cif.g08.bks.cpg/sg69_24_cif.got.tgz:47495.got - 2010.06.03 19:29:58.
