data_PCOD9511163
_publ_section_title
;
Structure prediction by ZEFSAII (Michael W. Deem and Ramdas Pophale) SiO2 
 PCOD9511163
Probable space group: F M M M
;
_chemical_formula_sum "Si O2"
_cell_formula_units_Z 200
_cell_length_a 23.179934
_cell_length_b 29.910645
_cell_length_c 16.626450
_cell_angle_alpha 90.000000
_cell_angle_beta 90.000000
_cell_angle_gamma 90.000000
_cell_volume 11527.562991
_symmetry_space_group_name_H-M "F M M M"
_symmetry_group_IT_number 69
_symmetry_cell_setting 'orthorhombic'
loop_
_space_group_symop_operation_xyz
x,y,z
-x,-y,z
x,-y,-z
-x,y,-z
-x,-y,-z
x,y,-z
-x,y,z
x,-y,z
x,1/2+y,1/2+z
-x,1/2-y,1/2+z
x,1/2-y,1/2-z
-x,1/2+y,1/2-z
-x,1/2-y,1/2-z
x,1/2+y,1/2-z
-x,1/2+y,1/2+z
x,1/2-y,1/2+z
1/2+x,y,1/2+z
1/2-x,-y,1/2+z
1/2+x,-y,1/2-z
1/2-x,y,1/2-z
1/2-x,-y,1/2-z
1/2+x,y,1/2-z
1/2-x,y,1/2+z
1/2+x,-y,1/2+z
1/2+x,1/2+y,z
1/2-x,1/2-y,z
1/2+x,1/2-y,-z
1/2-x,1/2+y,-z
1/2-x,1/2-y,-z
1/2+x,1/2+y,-z
1/2-x,1/2+y,z
1/2+x,1/2-y,z
loop_
_atom_site_type_symbol
_atom_site_label
_atom_site_fract_x
_atom_site_fract_y
_atom_site_fract_z
Si Si1 0.500000 0.500000 0.348138
Si Si2 0.768764 0.548865 0.097428
Si Si3 0.567076 0.743565 0.092195
Si Si4 0.741493 0.647142 0.907706
Si Si5 0.903050 0.934462 0.594873
Si Si6 0.626919 0.336568 0.371943
Si Si7 0.160550 0.203069 0.207371
O O1 0.449419 0.538508 0.355493
O O2 0.747600 0.500000 0.125881
O O3 0.738698 0.595361 0.122278
O O4 0.836929 0.552932 0.115645
O O5 0.764875 0.549193 0.000000
O O6 0.500000 0.743140 0.115392
O O7 0.592518 0.793540 0.098184
O O8 0.606519 0.714778 0.150977
O O9 0.572115 0.728311 0.000000
O O10 0.809224 0.659418 0.909543
O O11 0.709125 0.680274 0.847347
O O12 0.719650 0.650237 0.000000
O O13 0.912215 0.944912 0.500000
O O14 0.906589 0.881570 0.607860
O O15 0.639801 0.329636 0.277757
O O16 0.178484 0.250000 0.250000
#
# Coordination Sequence:
#
# PCOD9511163 Si02
#       7
#     8  32  32  32  32  32  32
#     4  12  21  28  48  76 100 136 185 218 239 294
#     4   8  14  27  47  70 100 129 159 204 254 292
#     4  10  21  37  55  75  98 129 174 218 256 300
#     4  10  19  33  55  79 103 133 175 217 256 304
#     4  10  18  29  45  71 103 136 171 207 244 291
#     4  10  21  34  50  74 109 139 166 205 258 314
#     4  10  22  37  54  75 103 138 171 211 264 315
#
# _framework density 17.349720999999999
#
# number of rings (size 3 to 8) (size 9 to 14) (size 15 to 20)
#    0.000    2.240    0.800    4.080    1.120    7.360 
#    0.000    4.000    1.760    1.920    0.000    0.000 
#    0.000    0.000    0.000    7.200    0.000    0.000 
#
# Total GULP energy -278368.344975 kJ/mol
# GULP energy per Si atom -5567.366900 kJ/mol
# Density = 1.731023 g / cm^3
# Si number density = 17.349721 Si / 1000 Ang^3
#
#
#
# Elastic Constant Matrix: (Units=GPa)
#
#
# Indices 1 2 3 4 5 6 
#
# 1 69.8953 38.0964 29.1982 0.0000 0.0000 0.0000
# 2 38.0964 85.4250 34.6630 0.0000 0.0000 0.0000
# 3 29.1982 34.6630 59.3100 0.0000 0.0000 0.0000
# 4 0.0000 0.0000 0.0000 -1.7247 0.0000 0.0000
# 5 0.0000 0.0000 0.0000 0.0000 -6.2171 0.0000
# 6 0.0000 0.0000 0.0000 0.0000 0.0000 38.7728
#
#
#
# Elastic Compliance Matrix: (Units=1/GPa)
#
#
# Indices 1 2 3 4 5 6 
#
# 1 0.020520 -0.006623 -0.006231 0.000000 0.000000 0.000000
# 2 -0.006623 0.017483 -0.006957 0.000000 0.000000 0.000000
# 3 -0.006231 -0.006957 0.023994 0.000000 0.000000 0.000000
# 4 0.000000 0.000000 0.000000 -0.579827 0.000000 0.000000
# 5 0.000000 0.000000 0.000000 0.000000 -0.160847 0.000000
# 6 0.000000 0.000000 0.000000 0.000000 0.000000 0.025791
#
#
# Mechanical properties :
#
#
# Convention : Reuss Voigt Hill
#
# Bulk Modulus (GPa) = 44.69389 46.50503 45.59946
# Shear Modulus (GPa) = -8.25348 13.67772 2.71212
#
# Velocity S-wave (km/s) = -2.18345 2.81081 1.25164
# Velocity P-wave (km/s) = 4.41134 6.11530 5.33183
#
# Compressibility (1/GPa) = 0.02237442
#
# Stress axis : x y z
#
# Youngs Moduli (GPa) = 48.73323 57.19961 41.67650
#
# Poissons Ratio (x) = 0.37881 0.25970
# Poissons Ratio (y) = 0.32274 0.28995
# Poissons Ratio (z) = 0.30368 0.39795
#
# Static dielectric constant tensor:
#      x y z
#    x 1.567020 0.000000 0.000000 
#    y 0.000000 1.622940 0.000000 
#    z 0.000000 0.000000 1.607980 
# 
# From -- ./inp_files/25204.got.cif
#   From: 2010.05.17/outbox.cif.g08.bks.cpg/sg69_13_cif.got.tgz:25204.got - 2010.06.03 19:29:58.
