data_PCOD9511408
_publ_section_title
;
Structure prediction by ZEFSAII (Michael W. Deem and Ramdas Pophale) SiO2 
 PCOD9511408
Probable space group: F M M M
;
_chemical_formula_sum "Si O2"
_cell_formula_units_Z 232
_cell_length_a 29.454320
_cell_length_b 28.367815
_cell_length_c 15.916483
_cell_angle_alpha 90.000000
_cell_angle_beta 90.000000
_cell_angle_gamma 90.000000
_cell_volume 13299.092189
_symmetry_space_group_name_H-M "F M M M"
_symmetry_group_IT_number 69
_symmetry_cell_setting 'orthorhombic'
loop_
_space_group_symop_operation_xyz
x,y,z
-x,-y,z
x,-y,-z
-x,y,-z
-x,-y,-z
x,y,-z
-x,y,z
x,-y,z
x,1/2+y,1/2+z
-x,1/2-y,1/2+z
x,1/2-y,1/2-z
-x,1/2+y,1/2-z
-x,1/2-y,1/2-z
x,1/2+y,1/2-z
-x,1/2+y,1/2+z
x,1/2-y,1/2+z
1/2+x,y,1/2+z
1/2-x,-y,1/2+z
1/2+x,-y,1/2-z
1/2-x,y,1/2-z
1/2-x,-y,1/2-z
1/2+x,y,1/2-z
1/2-x,y,1/2+z
1/2+x,-y,1/2+z
1/2+x,1/2+y,z
1/2-x,1/2-y,z
1/2+x,1/2-y,-z
1/2-x,1/2+y,-z
1/2-x,1/2-y,-z
1/2+x,1/2+y,-z
1/2-x,1/2+y,z
1/2+x,1/2-y,z
loop_
_atom_site_type_symbol
_atom_site_label
_atom_site_fract_x
_atom_site_fract_y
_atom_site_fract_z
Si Si1 0.145333 0.769060 0.099442
Si Si2 0.141648 0.422031 0.853310
Si Si3 0.192911 0.325917 0.898176
Si Si4 0.050669 0.764405 0.652484
Si Si5 0.344737 0.000000 0.000000
Si Si6 0.794295 0.147354 0.101065
Si Si7 0.052944 0.127155 0.399439
Si Si8 0.797944 0.052078 0.799642
O O1 0.169962 0.722150 0.133673
O O2 0.091930 0.763570 0.111809
O O3 0.167055 0.817010 0.133230
O O4 0.154798 0.769317 0.000000
O O5 0.166783 0.372188 0.868168
O O6 0.088362 0.409126 0.859044
O O7 0.161309 0.441942 0.766681
O O8 0.153802 0.458666 0.926518
O O9 0.245524 0.330899 0.874718
O O10 0.190303 0.325677 0.000000
O O11 0.050784 0.750000 0.750000
O O12 0.059019 0.820144 0.637352
O O13 0.000000 0.754632 0.618468
O O14 0.799036 0.095405 0.137265
O O15 0.795489 0.144656 0.000000
O O16 0.062176 0.129333 0.500000
O O17 0.000000 0.114168 0.388238
O O18 0.750000 0.055066 0.750000
O O19 0.799714 0.000000 0.838981
#
# Coordination Sequence:
#
# PCOD9511408 Si02
#       8
#    32  32  32  32   8  32  32  32
#     4  10  20  34  56  82 109 145 186 227 277 335
#     4  12  21  37  57  83 117 148 193 233 285 336
#     4  10  18  33  55  79 111 149 185 225 278 335
#     4  10  21  34  50  79 112 147 186 225 277 335
#     4  12  24  36  59  92 112 156 200 230 283 352
#     4  10  22  38  56  82 111 149 192 236 282 334
#     4  10  20  36  59  84 112 151 191 229 282 350
#     4  11  24  40  56  81 111 146 192 243 284 332
#
# _framework density 17.444800000000001
#
# number of rings (size 3 to 8) (size 9 to 14) (size 15 to 20)
#    0.000    1.517    4.828    0.828    1.931    2.759 
#    0.000    0.690    0.000    0.000    0.000    0.000 
#    0.000    0.000    0.000    4.276    0.000    0.000 
#
# Total GULP energy -323200.938844 kJ/mol
# GULP energy per Si atom -5572.429980 kJ/mol
# Density = 1.740509 g / cm^3
# Si number density = 17.444800 Si / 1000 Ang^3
#
#
#
# Elastic Constant Matrix: (Units=GPa)
#
#
# Indices 1 2 3 4 5 6 
#
# 1 84.7421 53.8771 20.4382 0.0000 0.0000 0.0000
# 2 53.8771 135.3945 22.7104 0.0000 0.0000 0.0000
# 3 20.4382 22.7104 24.5084 0.0000 0.0000 0.0000
# 4 0.0000 0.0000 0.0000 24.1735 0.0000 0.0000
# 5 0.0000 0.0000 0.0000 0.0000 -222.2681 0.0000
# 6 0.0000 0.0000 0.0000 0.0000 0.0000 3.9221
#
#
#
# Elastic Compliance Matrix: (Units=1/GPa)
#
#
# Indices 1 2 3 4 5 6 
#
# 1 0.017537 -0.005358 -0.009659 0.000000 0.000000 0.000000
# 2 -0.005358 0.010382 -0.005152 0.000000 0.000000 0.000000
# 3 -0.009659 -0.005152 0.053632 0.000000 0.000000 0.000000
# 4 0.000000 0.000000 0.000000 0.041368 0.000000 0.000000
# 5 0.000000 0.000000 0.000000 0.000000 -0.004499 0.000000
# 6 0.000000 0.000000 0.000000 0.000000 0.000000 0.254965
#
#
# Mechanical properties :
#
#
# Convention : Reuss Voigt Hill
#
# Bulk Modulus (GPa) = 24.26515 48.74403 36.50459
# Shear Modulus (GPa) = 11.69697 -28.99322 -8.64812
#
# Velocity S-wave (km/s) = 2.59224 -4.08118 -2.22894
# Velocity P-wave (km/s) = 4.78534 2.40717 3.78774
#
# Compressibility (1/GPa) = 0.04121137
#
# Stress axis : x y z
#
# Youngs Moduli (GPa) = 57.02318 96.31892 18.64567
#
# Poissons Ratio (x) = 0.51609 0.18010
# Poissons Ratio (y) = 0.30554 0.09607
# Poissons Ratio (z) = 0.55080 0.49626
#
# Static dielectric constant tensor:
#      x y z
#    x 1.616580 0.000000 0.000000 
#    y 0.000000 1.583930 0.000000 
#    z 0.000000 0.000000 1.612710 
# 
# From -- ./inp_files/28092.got.cif
#   From: 2010.05.17/outbox.cif.g08.bks.cpg/sg69_15_cif.got.tgz:28092.got - 2010.06.03 19:29:58.
