data_PCOD9511701
_publ_section_title
;
Structure prediction by ZEFSAII (Michael W. Deem and Ramdas Pophale) SiO2 
 PCOD9511701
Probable space group: F M M M
;
_chemical_formula_sum "Si O2"
_cell_formula_units_Z 192
_cell_length_a 18.454501
_cell_length_b 22.182941
_cell_length_c 22.285543
_cell_angle_alpha 90.000000
_cell_angle_beta 90.000000
_cell_angle_gamma 90.000000
_cell_volume 9123.146547
_symmetry_space_group_name_H-M "F M M M"
_symmetry_group_IT_number 69
_symmetry_cell_setting 'orthorhombic'
loop_
_space_group_symop_operation_xyz
x,y,z
-x,-y,z
x,-y,-z
-x,y,-z
-x,-y,-z
x,y,-z
-x,y,z
x,-y,z
x,1/2+y,1/2+z
-x,1/2-y,1/2+z
x,1/2-y,1/2-z
-x,1/2+y,1/2-z
-x,1/2-y,1/2-z
x,1/2+y,1/2-z
-x,1/2+y,1/2+z
x,1/2-y,1/2+z
1/2+x,y,1/2+z
1/2-x,-y,1/2+z
1/2+x,-y,1/2-z
1/2-x,y,1/2-z
1/2-x,-y,1/2-z
1/2+x,y,1/2-z
1/2-x,y,1/2+z
1/2+x,-y,1/2+z
1/2+x,1/2+y,z
1/2-x,1/2-y,z
1/2+x,1/2-y,-z
1/2-x,1/2+y,-z
1/2-x,1/2-y,-z
1/2+x,1/2+y,-z
1/2-x,1/2+y,z
1/2+x,1/2-y,z
loop_
_atom_site_type_symbol
_atom_site_label
_atom_site_fract_x
_atom_site_fract_y
_atom_site_fract_z
Si Si1 0.919954 0.000000 0.570687
Si Si2 0.783714 0.571485 0.185525
Si Si3 0.317639 0.615777 0.431031
Si Si4 0.583915 0.571037 0.761022
Si Si5 0.415559 0.266020 0.569968
Si Si6 0.088511 0.859800 0.118975
Si Si7 0.088549 0.568872 0.500000
O O1 0.871533 0.940820 0.579223
O O2 0.931945 0.000000 0.500000
O O3 0.000000 0.000000 0.600509
O O4 0.769658 0.500000 0.176070
O O5 0.750000 0.587484 0.250000
O O6 0.764587 0.608224 0.125780
O O7 0.868040 0.581400 0.202724
O O8 0.289621 0.612335 0.500000
O O9 0.363848 0.676685 0.425333
O O10 0.500000 0.583821 0.749564
O O11 0.591164 0.500000 0.776495
O O12 0.608570 0.609187 0.818567
O O13 0.414120 0.245729 0.500000
O O14 0.500000 0.281481 0.583016
O O15 0.391070 0.209823 0.610100
O O16 0.000000 0.860370 0.117816
O O17 0.111373 0.897501 0.060548
O O18 0.113921 0.500000 0.500000
O O19 0.000000 0.568171 0.500000
#
# Coordination Sequence:
#
# PCOD9511701 Si02
#       7
#    16  32  32  32  32  32  16
#     4   9  16  26  43  76 114 140 169 220 276 317
#     4  10  21  38  58  80 110 148 182 226 287 346
#     4  10  19  32  53  79 106 141 183 228 272 329
#     4   9  18  32  52  79 109 142 182 232 286 338
#     4   9  16  27  45  75 114 152 184 222 279 340
#     4   9  15  26  44  70 107 147 184 224 275 331
#     4   9  14  20  38  68 100 140 187 235 282 324
#
# _framework density 21.045369999999998
#
# number of rings (size 3 to 8) (size 9 to 14) (size 15 to 20)
#    0.000    2.667    1.667    1.000    0.000    5.333 
#    0.000    0.833    1.833    5.000    0.000    2.333 
#    0.000    0.000    0.000    0.000    0.000    0.000 
#
# Total GULP energy -267781.749787 kJ/mol
# GULP energy per Si atom -5578.786454 kJ/mol
# Density = 2.099747 g / cm^3
# Si number density = 21.045370 Si / 1000 Ang^3
#
#
#
# Elastic Constant Matrix: (Units=GPa)
#
#
# Indices 1 2 3 4 5 6 
#
# 1 41.3106 8.1843 34.0329 0.0000 0.0000 0.0000
# 2 8.1843 79.6036 47.9394 0.0000 0.0000 0.0000
# 3 34.0329 47.9394 165.0902 0.0000 0.0000 0.0000
# 4 0.0000 0.0000 0.0000 2.2422 0.0000 0.0000
# 5 0.0000 0.0000 0.0000 0.0000 28.0088 0.0000
# 6 0.0000 0.0000 0.0000 0.0000 0.0000 1.1096
#
#
#
# Elastic Compliance Matrix: (Units=1/GPa)
#
#
# Indices 1 2 3 4 5 6 
#
# 1 0.029196 0.000755 -0.006238 0.000000 0.000000 0.000000
# 2 0.000755 0.015244 -0.004582 0.000000 0.000000 0.000000
# 3 -0.006238 -0.004582 0.008674 0.000000 0.000000 0.000000
# 4 0.000000 0.000000 0.000000 0.445995 0.000000 0.000000
# 5 0.000000 0.000000 0.000000 0.000000 0.035703 0.000000
# 6 0.000000 0.000000 0.000000 0.000000 0.000000 0.901263
#
#
# Mechanical properties :
#
#
# Convention : Reuss Voigt Hill
#
# Bulk Modulus (GPa) = 30.31803 51.81308 41.06556
# Shear Modulus (GPa) = 3.40785 19.32862 11.36824
#
# Velocity S-wave (km/s) = 1.27389 3.03384 2.32669
# Velocity P-wave (km/s) = 4.07444 6.07827 5.17429
#
# Compressibility (1/GPa) = 0.03298367
#
# Stress axis : x y z
#
# Youngs Moduli (GPa) = 34.25092 65.59864 115.28904
#
# Poissons Ratio (x) = -0.04952 0.71917
# Poissons Ratio (y) = -0.02586 0.52829
# Poissons Ratio (z) = 0.21366 0.30059
#
# Static dielectric constant tensor:
#      x y z
#    x 1.894760 0.000000 0.000000 
#    y 0.000000 1.718400 0.000000 
#    z 0.000000 0.000000 1.757190 
# 
# From -- ./inp_files/32938.got.cif
#   From: 2010.05.17/outbox.cif.g08.bks.cpg/sg69_17_cif.got.tgz:32938.got - 2010.06.03 19:29:58.
