data_PCOD9511983
_publ_section_title
;
Structure prediction by ZEFSAII (Michael W. Deem and Ramdas Pophale) SiO2 
 PCOD9511983
Probable space group: F M M M
;
_chemical_formula_sum "Si O2"
_cell_formula_units_Z 240
_cell_length_a 29.866698
_cell_length_b 13.874975
_cell_length_c 25.538072
_cell_angle_alpha 90.000000
_cell_angle_beta 90.000000
_cell_angle_gamma 90.000000
_cell_volume 10582.969071
_symmetry_space_group_name_H-M "F M M M"
_symmetry_group_IT_number 69
_symmetry_cell_setting 'orthorhombic'
loop_
_space_group_symop_operation_xyz
x,y,z
-x,-y,z
x,-y,-z
-x,y,-z
-x,-y,-z
x,y,-z
-x,y,z
x,-y,z
x,1/2+y,1/2+z
-x,1/2-y,1/2+z
x,1/2-y,1/2-z
-x,1/2+y,1/2-z
-x,1/2-y,1/2-z
x,1/2+y,1/2-z
-x,1/2+y,1/2+z
x,1/2-y,1/2+z
1/2+x,y,1/2+z
1/2-x,-y,1/2+z
1/2+x,-y,1/2-z
1/2-x,y,1/2-z
1/2-x,-y,1/2-z
1/2+x,y,1/2-z
1/2-x,y,1/2+z
1/2+x,-y,1/2+z
1/2+x,1/2+y,z
1/2-x,1/2-y,z
1/2+x,1/2-y,-z
1/2-x,1/2+y,-z
1/2-x,1/2-y,-z
1/2+x,1/2+y,-z
1/2-x,1/2+y,z
1/2+x,1/2-y,z
loop_
_atom_site_type_symbol
_atom_site_label
_atom_site_fract_x
_atom_site_fract_y
_atom_site_fract_z
Si Si1 0.905255 0.192116 0.093027
Si Si2 0.632173 0.610051 0.804798
Si Si3 0.189103 0.612366 0.882170
Si Si4 0.917651 0.892628 0.618754
Si Si5 0.549395 0.138811 0.233726
Si Si6 0.226163 0.887226 0.168132
Si Si7 0.807322 0.694831 0.442018
Si Si8 0.552436 0.000000 0.557608
O O1 0.888283 0.182551 0.152792
O O2 0.926765 0.296787 0.084883
O O3 0.860685 0.180832 0.059104
O O4 0.934866 0.098918 0.085104
O O5 0.635275 0.500000 0.826953
O O6 0.595794 0.603817 0.759348
O O7 0.683637 0.642919 0.796633
O O8 0.199425 0.500000 0.895508
O O9 0.136204 0.613606 0.870618
O O10 0.222069 0.645942 0.834748
O O11 0.198412 0.692049 0.926902
O O12 0.944762 0.880561 0.672375
O O13 0.926035 0.000000 0.596936
O O14 0.500000 0.101987 0.250721
O O15 0.548562 0.250000 0.250000
O O16 0.210711 0.865306 0.107867
O O17 0.230326 0.000000 0.179433
O O18 0.790185 0.671818 0.500000
O O19 0.500000 0.000000 0.552741
O O20 0.573813 0.000000 0.500000
#
# Coordination Sequence:
#
# PCOD9511983 Si02
#       8
#    32  32  32  32  32  32  32  16
#     4  10  20  38  58  83 117 157 198 240 299 367
#     4  10  19  35  56  81 113 153 192 238 301 364
#     4   9  19  36  55  77 110 153 195 240 287 349
#     4  10  21  39  62  86 119 161 202 243 300 362
#     4  11  23  38  58  86 118 150 192 252 308 362
#     4   9  19  34  53  78 111 149 194 237 289 354
#     4  10  20  32  52  80 111 149 191 239 292 348
#     4  11  24  40  62  92 122 154 199 258 312 364
#
# _framework density 22.677945999999999
#
# number of rings (size 3 to 8) (size 9 to 14) (size 15 to 20)
#    0.000    2.067    2.000    1.200    0.933    3.733 
#    0.000    2.000    0.000    5.200    0.000    0.933 
#    0.000    0.000    0.000    0.000    0.000    0.400 
#
# Total GULP energy -334221.136231 kJ/mol
# GULP energy per Si atom -5570.352271 kJ/mol
# Density = 2.262633 g / cm^3
# Si number density = 22.677946 Si / 1000 Ang^3
#
#
#
# Elastic Constant Matrix: (Units=GPa)
#
#
# Indices 1 2 3 4 5 6 
#
# 1 84.1243 18.3166 19.3553 0.0000 0.0000 0.0000
# 2 18.3166 138.5094 -12.5544 0.0000 0.0000 0.0000
# 3 19.3553 -12.5544 28.0546 0.0000 0.0000 0.0000
# 4 0.0000 0.0000 0.0000 5.6601 0.0000 0.0000
# 5 0.0000 0.0000 0.0000 0.0000 15.5677 0.0000
# 6 0.0000 0.0000 0.0000 0.0000 0.0000 108.5879
#
#
#
# Elastic Compliance Matrix: (Units=1/GPa)
#
#
# Indices 1 2 3 4 5 6 
#
# 1 0.015315 -0.003109 -0.011958 0.000000 0.000000 0.000000
# 2 -0.003109 0.008156 0.005795 0.000000 0.000000 0.000000
# 3 -0.011958 0.005795 0.046488 0.000000 0.000000 0.000000
# 4 0.000000 0.000000 0.000000 0.176677 0.000000 0.000000
# 5 0.000000 0.000000 0.000000 0.000000 0.064236 0.000000
# 6 0.000000 0.000000 0.000000 0.000000 0.000000 0.009209
#
#
# Mechanical properties :
#
#
# Convention : Reuss Voigt Hill
#
# Bulk Modulus (GPa) = 19.44940 33.43591 26.44266
# Shear Modulus (GPa) = 14.05431 41.00118 27.52775
#
# Velocity S-wave (km/s) = 2.49215 4.25664 3.48782
# Velocity P-wave (km/s) = 4.10805 6.23975 5.28254
#
# Compressibility (1/GPa) = 0.05141546
#
# Stress axis : x y z
#
# Youngs Moduli (GPa) = 65.29408 122.60713 21.51109
#
# Poissons Ratio (x) = 0.38120 0.25722
# Poissons Ratio (y) = 0.20301 -0.12465
# Poissons Ratio (z) = 0.78076 -0.71050
#
# Static dielectric constant tensor:
#      x y z
#    x 1.905450 0.000000 0.000000 
#    y 0.000000 1.949500 0.000000 
#    z 0.000000 0.000000 1.825840 
# 
# From -- ./inp_files/47583.got.cif
#   From: 2010.05.17/outbox.cif.g08.bks.cpg/sg69_24_cif.got.tgz:47583.got - 2010.06.03 19:29:58.
