data_PCOD9511255
_publ_section_title
;
Structure prediction by ZEFSAII (Michael W. Deem and Ramdas Pophale) SiO2 
 PCOD9511255
Probable space group: F M M M
;
_chemical_formula_sum "Si O2"
_cell_formula_units_Z 120
_cell_length_a 27.543256
_cell_length_b 14.555073
_cell_length_c 14.177197
_cell_angle_alpha 90.000000
_cell_angle_beta 90.000000
_cell_angle_gamma 90.000000
_cell_volume 5683.554656
_symmetry_space_group_name_H-M "F M M M"
_symmetry_group_IT_number 69
_symmetry_cell_setting 'orthorhombic'
loop_
_space_group_symop_operation_xyz
x,y,z
-x,-y,z
x,-y,-z
-x,y,-z
-x,-y,-z
x,y,-z
-x,y,z
x,-y,z
x,1/2+y,1/2+z
-x,1/2-y,1/2+z
x,1/2-y,1/2-z
-x,1/2+y,1/2-z
-x,1/2-y,1/2-z
x,1/2+y,1/2-z
-x,1/2+y,1/2+z
x,1/2-y,1/2+z
1/2+x,y,1/2+z
1/2-x,-y,1/2+z
1/2+x,-y,1/2-z
1/2-x,y,1/2-z
1/2-x,-y,1/2-z
1/2+x,y,1/2-z
1/2-x,y,1/2+z
1/2+x,-y,1/2+z
1/2+x,1/2+y,z
1/2-x,1/2-y,z
1/2+x,1/2-y,-z
1/2-x,1/2+y,-z
1/2-x,1/2-y,-z
1/2+x,1/2+y,-z
1/2-x,1/2+y,z
1/2+x,1/2-y,z
loop_
_atom_site_type_symbol
_atom_site_label
_atom_site_fract_x
_atom_site_fract_y
_atom_site_fract_z
Si Si1 0.295238 0.394751 0.304075
Si Si2 0.500000 0.190802 0.000000
Si Si3 0.000000 0.357218 0.216784
Si Si4 0.604088 0.852590 0.292408
Si Si5 0.666759 0.886842 0.000000
Si Si6 0.599736 0.713567 0.000000
O O1 0.281538 0.500000 0.322277
O O2 0.250000 0.352117 0.250000
O O3 0.346654 0.394183 0.250127
O O4 0.304564 0.357266 0.407334
O O5 0.500000 0.137998 0.101651
O O6 0.455908 0.260620 0.000000
O O7 0.000000 0.250000 0.250000
O O8 0.948264 0.392843 0.258606
O O9 0.603857 0.750000 0.250000
O O10 0.609976 0.842070 0.404605
O O11 0.621605 0.817440 0.000000
O O12 0.656969 0.000000 0.000000
#
# Coordination Sequence:
#
# PCOD9511255 Si02
#       6
#    32   8  16  32  16  16
#     4  10  22  40  59  79 111 150 184 227 282 334
#     4  12  16  28  53  78 113 148 184 220 280 338
#     4  10  18  30  53  81 113 147 178 226 278 328
#     4  11  20  35  55  85 114 141 187 227 275 323
#     4  10  20  37  58  79 108 146 187 229 283 333
#     4  12  20  33  56  86 110 148 186 232 273 329
#
# _framework density 21.113547000000001
#
# number of rings (size 3 to 8) (size 9 to 14) (size 15 to 20)
#    0.000    1.333    8.000    0.000    0.000    1.600 
#    0.000    4.333    0.000    4.800    0.000    2.800 
#    0.000    0.000    0.000    0.000    0.000    0.000 
#
# Total GULP energy -167080.419621 kJ/mol
# GULP energy per Si atom -5569.347321 kJ/mol
# Density = 2.106549 g / cm^3
# Si number density = 21.113547 Si / 1000 Ang^3
#
#
#
# Elastic Constant Matrix: (Units=GPa)
#
#
# Indices 1 2 3 4 5 6 
#
# 1 144.1589 7.1439 63.9990 0.0000 0.0000 0.0000
# 2 7.1439 43.6785 4.5595 0.0000 0.0000 0.0000
# 3 63.9990 4.5595 217.9372 0.0000 0.0000 0.0000
# 4 0.0000 0.0000 0.0000 -248.6602 0.0000 0.0000
# 5 0.0000 0.0000 0.0000 0.0000 20.8036 0.0000
# 6 0.0000 0.0000 0.0000 0.0000 0.0000 6.6053
#
#
#
# Elastic Compliance Matrix: (Units=1/GPa)
#
#
# Indices 1 2 3 4 5 6 
#
# 1 0.008026 -0.001069 -0.002335 0.000000 0.000000 0.000000
# 2 -0.001069 0.023087 -0.000169 0.000000 0.000000 0.000000
# 3 -0.002335 -0.000169 0.005278 0.000000 0.000000 0.000000
# 4 0.000000 0.000000 0.000000 -0.004022 0.000000 0.000000
# 5 0.000000 0.000000 0.000000 0.000000 0.048069 0.000000
# 6 0.000000 0.000000 0.000000 0.000000 0.000000 0.151394
#
#
# Mechanical properties :
#
#
# Convention : Reuss Voigt Hill
#
# Bulk Modulus (GPa) = 34.19336 61.90884 48.05110
# Shear Modulus (GPa) = 20.10244 -22.24546 -1.07151
#
# Velocity S-wave (km/s) = 3.08898 -3.24946 -0.71316
# Velocity P-wave (km/s) = 5.38075 3.91240 4.70422
#
# Compressibility (1/GPa) = 0.02924544
#
# Stress axis : x y z
#
# Youngs Moduli (GPa) = 124.59192 43.31427 189.48057
#
# Poissons Ratio (x) = 0.04630 0.44236
# Poissons Ratio (y) = 0.13319 0.03204
# Poissons Ratio (z) = 0.29087 0.00732
#
# Static dielectric constant tensor:
#      x y z
#    x 1.666170 0.000000 0.000000 
#    y 0.000000 1.752430 0.000000 
#    z 0.000000 0.000000 1.820930 
# 
# From -- ./inp_files/9977.got.cif
#   From: 2010.05.17/outbox.cif.g08.bks.cpg/sg69_5_cif.got.tgz:9977.got - 2010.06.03 19:29:58.
