data_PCOD9511193
_publ_section_title
;
Structure prediction by ZEFSAII (Michael W. Deem and Ramdas Pophale) SiO2 
 PCOD9511193
Probable space group: F M M M
;
_chemical_formula_sum "Si O2"
_cell_formula_units_Z 208
_cell_length_a 18.275310
_cell_length_b 23.669736
_cell_length_c 27.959354
_cell_angle_alpha 90.000000
_cell_angle_beta 90.000000
_cell_angle_gamma 90.000000
_cell_volume 12094.427053
_symmetry_space_group_name_H-M "F M M M"
_symmetry_group_IT_number 69
_symmetry_cell_setting 'orthorhombic'
loop_
_space_group_symop_operation_xyz
x,y,z
-x,-y,z
x,-y,-z
-x,y,-z
-x,-y,-z
x,y,-z
-x,y,z
x,-y,z
x,1/2+y,1/2+z
-x,1/2-y,1/2+z
x,1/2-y,1/2-z
-x,1/2+y,1/2-z
-x,1/2-y,1/2-z
x,1/2+y,1/2-z
-x,1/2+y,1/2+z
x,1/2-y,1/2+z
1/2+x,y,1/2+z
1/2-x,-y,1/2+z
1/2+x,-y,1/2-z
1/2-x,y,1/2-z
1/2-x,-y,1/2-z
1/2+x,y,1/2-z
1/2-x,y,1/2+z
1/2+x,-y,1/2+z
1/2+x,1/2+y,z
1/2-x,1/2-y,z
1/2+x,1/2-y,-z
1/2-x,1/2+y,-z
1/2-x,1/2-y,-z
1/2+x,1/2+y,-z
1/2-x,1/2+y,z
1/2+x,1/2-y,z
loop_
_atom_site_type_symbol
_atom_site_label
_atom_site_fract_x
_atom_site_fract_y
_atom_site_fract_z
Si Si1 0.088315 0.632114 0.138586
Si Si2 0.336478 0.934296 0.942673
Si Si3 0.329841 0.933755 0.406760
Si Si4 0.086078 0.629294 0.325397
Si Si5 0.411585 0.936827 0.770169
Si Si6 0.583045 0.931270 0.500000
Si Si7 0.586592 0.741911 0.696086
O O1 0.117279 0.610566 0.087780
O O2 0.112261 0.586275 0.178531
O O3 0.114058 0.691940 0.161484
O O4 0.000000 0.633341 0.136232
O O5 0.254496 0.929731 0.921689
O O6 0.360846 0.000000 0.935208
O O7 0.336356 0.924715 0.000000
O O8 0.358673 0.899533 0.361791
O O9 0.375721 0.913398 0.452497
O O10 0.346121 0.000000 0.398417
O O11 0.104618 0.606556 0.272359
O O12 0.091753 0.696671 0.327329
O O13 0.000000 0.613995 0.334733
O O14 0.500000 0.939232 0.772046
O O15 0.384177 0.000000 0.760236
O O16 0.500000 0.912190 0.500000
O O17 0.584380 0.000000 0.500000
O O18 0.500000 0.728095 0.703139
O O19 0.617540 0.750000 0.750000
#
# Coordination Sequence:
#
# PCOD9511193 Si02
#       7
#    32  32  32  32  32  16  32
#     4  10  19  33  56  80 104 138 183 229 267 316
#     4  10  21  38  57  76 104 143 182 226 283 332
#     4  10  19  33  51  75 108 142 172 209 266 327
#     4  10  18  29  51  80 109 140 174 215 259 315
#     4   9  16  26  44  76 111 135 162 209 266 317
#     4   9  16  28  50  76 100 131 173 213 250 307
#     4   9  16  31  54  79 106 141 180 217 262 314
#
# _framework density 17.198003
#
# number of rings (size 3 to 8) (size 9 to 14) (size 15 to 20)
#    0.000    2.385    2.308    1.385    0.000    2.769 
#    0.000    2.308    1.692    4.615    0.000    0.000 
#    0.000    0.000    0.000    0.000    0.000    0.000 
#
# Total GULP energy -289644.172717 kJ/mol
# GULP energy per Si atom -5570.080245 kJ/mol
# Density = 1.715886 g / cm^3
# Si number density = 17.198003 Si / 1000 Ang^3
#
#
#
# Elastic Constant Matrix: (Units=GPa)
#
#
# Indices 1 2 3 4 5 6 
#
# 1 23.5391 24.4149 24.5052 0.0000 0.0000 0.0000
# 2 24.4149 86.8273 43.9785 0.0000 0.0000 0.0000
# 3 24.5052 43.9785 105.8913 0.0000 0.0000 0.0000
# 4 0.0000 0.0000 0.0000 20.2956 0.0000 0.0000
# 5 0.0000 0.0000 0.0000 0.0000 148.3965 0.0000
# 6 0.0000 0.0000 0.0000 0.0000 0.0000 14.4103
#
#
#
# Elastic Compliance Matrix: (Units=1/GPa)
#
#
# Indices 1 2 3 4 5 6 
#
# 1 0.067062 -0.013926 -0.009736 0.000000 0.000000 0.000000
# 2 -0.013926 0.017477 -0.004036 0.000000 0.000000 0.000000
# 3 -0.009736 -0.004036 0.013373 0.000000 0.000000 0.000000
# 4 0.000000 0.000000 0.000000 0.049272 0.000000 0.000000
# 5 0.000000 0.000000 0.000000 0.000000 0.006739 0.000000
# 6 0.000000 0.000000 0.000000 0.000000 0.000000 0.069395
#
#
# Mechanical properties :
#
#
# Convention : Reuss Voigt Hill
#
# Bulk Modulus (GPa) = 23.52002 44.67276 34.09639
# Shear Modulus (GPa) = 17.07158 44.84441 30.95799
#
# Velocity S-wave (km/s) = 3.15405 5.11194 4.24735
# Velocity P-wave (km/s) = 5.19324 7.80222 6.62738
#
# Compressibility (1/GPa) = 0.04251698
#
# Stress axis : x y z
#
# Youngs Moduli (GPa) = 14.91160 57.21768 74.77859
#
# Poissons Ratio (x) = 0.79681 0.72802
# Poissons Ratio (y) = 0.20766 0.30179
# Poissons Ratio (z) = 0.14517 0.23092
#
# Static dielectric constant tensor:
#      x y z
#    x 1.592360 0.000000 0.000000 
#    y 0.000000 1.588630 0.000000 
#    z 0.000000 0.000000 1.605900 
# 
# From -- ./inp_files/26131.got.cif
#   From: 2010.05.17/outbox.cif.g08.bks.cpg/sg69_14_cif.got.tgz:26131.got - 2010.06.03 19:29:58.
