data_PCOD9511385
_publ_section_title
;
Structure prediction by ZEFSAII (Michael W. Deem and Ramdas Pophale) SiO2 
 PCOD9511385
Probable space group: F M M M
;
_chemical_formula_sum "Si O2"
_cell_formula_units_Z 144
_cell_length_a 23.737406
_cell_length_b 18.011708
_cell_length_c 14.937873
_cell_angle_alpha 90.000000
_cell_angle_beta 90.000000
_cell_angle_gamma 90.000000
_cell_volume 6386.705908
_symmetry_space_group_name_H-M "F M M M"
_symmetry_group_IT_number 69
_symmetry_cell_setting 'orthorhombic'
loop_
_space_group_symop_operation_xyz
x,y,z
-x,-y,z
x,-y,-z
-x,y,-z
-x,-y,-z
x,y,-z
-x,y,z
x,-y,z
x,1/2+y,1/2+z
-x,1/2-y,1/2+z
x,1/2-y,1/2-z
-x,1/2+y,1/2-z
-x,1/2-y,1/2-z
x,1/2+y,1/2-z
-x,1/2+y,1/2+z
x,1/2-y,1/2+z
1/2+x,y,1/2+z
1/2-x,-y,1/2+z
1/2+x,-y,1/2-z
1/2-x,y,1/2-z
1/2-x,-y,1/2-z
1/2+x,y,1/2-z
1/2-x,y,1/2+z
1/2+x,-y,1/2+z
1/2+x,1/2+y,z
1/2-x,1/2-y,z
1/2+x,1/2-y,-z
1/2-x,1/2+y,-z
1/2-x,1/2-y,-z
1/2+x,1/2+y,-z
1/2-x,1/2+y,z
1/2+x,1/2-y,z
loop_
_atom_site_type_symbol
_atom_site_label
_atom_site_fract_x
_atom_site_fract_y
_atom_site_fract_z
Si Si1 0.885782 0.083012 0.108241
Si Si2 0.259685 0.588006 0.107092
Si Si3 0.065026 0.500000 0.110185
Si Si4 0.561121 0.264960 0.854781
Si Si5 0.858083 0.364175 0.895363
O O1 0.822577 0.102408 0.141937
O O2 0.927395 0.148646 0.131672
O O3 0.900608 0.000000 0.139321
O O4 0.883313 0.079989 0.000000
O O5 0.248472 0.500000 0.119306
O O6 0.205122 0.631048 0.142867
O O7 0.263487 0.601776 0.000000
O O8 0.099520 0.427184 0.140997
O O9 0.000000 0.500000 0.139522
O O10 0.063607 0.500000 0.000000
O O11 0.500000 0.243367 0.893081
O O12 0.559895 0.250000 0.750000
O O13 0.611677 0.214757 0.890836
O O14 0.851546 0.383593 0.000000
#
# Coordination Sequence:
#
# PCOD9511385 Si02
#       5
#    32  32  16  32  32
#     4   9  19  38  65  90 111 144 193 242 283 333
#     4   8  14  29  55  88 119 142 174 225 283 336
#     4   9  16  26  46  80 111 138 178 218 257 318
#     4  11  25  42  54  75 114 153 191 238 291 342
#     4  10  18  32  57  84 113 147 181 225 276 334
#
# _framework density 22.546834
#
# number of rings (size 3 to 8) (size 9 to 14) (size 15 to 20)
#    0.000    2.556    1.111    2.667    0.000    4.000 
#    2.000    6.667    0.000    2.667    0.000    0.000 
#    0.000    0.000    0.000    0.000    0.000    0.000 
#
# Total GULP energy -200994.149649 kJ/mol
# GULP energy per Si atom -5583.170824 kJ/mol
# Density = 2.249552 g / cm^3
# Si number density = 22.546834 Si / 1000 Ang^3
#
#
#
# Elastic Constant Matrix: (Units=GPa)
#
#
# Indices 1 2 3 4 5 6 
#
# 1 45.3635 11.8091 -9.7920 0.0000 0.0000 0.0000
# 2 11.8091 73.3409 -4.6436 0.0000 0.0000 0.0000
# 3 -9.7920 -4.6436 38.8750 0.0000 0.0000 0.0000
# 4 0.0000 0.0000 0.0000 -10.7723 0.0000 0.0000
# 5 0.0000 0.0000 0.0000 0.0000 -108.7703 0.0000
# 6 0.0000 0.0000 0.0000 0.0000 0.0000 43.3218
#
#
#
# Elastic Compliance Matrix: (Units=1/GPa)
#
#
# Indices 1 2 3 4 5 6 
#
# 1 0.024189 -0.003536 0.005670 0.000000 0.000000 0.000000
# 2 -0.003536 0.014256 0.000812 0.000000 0.000000 0.000000
# 3 0.005670 0.000812 0.027249 0.000000 0.000000 0.000000
# 4 0.000000 0.000000 0.000000 -0.092831 0.000000 0.000000
# 5 0.000000 0.000000 0.000000 0.000000 -0.009194 0.000000
# 6 0.000000 0.000000 0.000000 0.000000 0.000000 0.023083
#
#
# Mechanical properties :
#
#
# Convention : Reuss Voigt Hill
#
# Bulk Modulus (GPa) = 13.96904 16.92514 15.44709
# Shear Modulus (GPa) = 1059.23704 -4.56377 527.33663
#
# Velocity S-wave (km/s) = 21.69825 -1.42426 15.30989
# Velocity P-wave (km/s) = 25.17858 2.19505 17.87148
#
# Compressibility (1/GPa) = 0.07158687
#
# Stress axis : x y z
#
# Youngs Moduli (GPa) = 41.34180 70.14738 36.69887
#
# Poissons Ratio (x) = 0.24802 -0.20810
# Poissons Ratio (y) = 0.14617 -0.02981
# Poissons Ratio (z) = -0.23442 -0.05698
#
# Static dielectric constant tensor:
#      x y z
#    x 1.850620 0.000000 0.000000 
#    y 0.000000 1.803880 0.000000 
#    z 0.000000 0.000000 1.877740 
# 
# From -- ./inp_files/25606.got.cif
#   From: 2010.05.17/outbox.cif.g08.bks.cpg/sg69_13_cif.got.tgz:25606.got - 2010.06.03 19:29:58.
