data_PCOD9511141
_publ_section_title
;
Structure prediction by ZEFSAII (Michael W. Deem and Ramdas Pophale) SiO2 
 PCOD9511141
Probable space group: F M M M
;
_chemical_formula_sum "Si O2"
_cell_formula_units_Z 152
_cell_length_a 25.264884
_cell_length_b 24.235807
_cell_length_c 15.186469
_cell_angle_alpha 90.000000
_cell_angle_beta 90.000000
_cell_angle_gamma 90.000000
_cell_volume 9298.900526
_symmetry_space_group_name_H-M "F M M M"
_symmetry_group_IT_number 69
_symmetry_cell_setting 'orthorhombic'
loop_
_space_group_symop_operation_xyz
x,y,z
-x,-y,z
x,-y,-z
-x,y,-z
-x,-y,-z
x,y,-z
-x,y,z
x,-y,z
x,1/2+y,1/2+z
-x,1/2-y,1/2+z
x,1/2-y,1/2-z
-x,1/2+y,1/2-z
-x,1/2-y,1/2-z
x,1/2+y,1/2-z
-x,1/2+y,1/2+z
x,1/2-y,1/2+z
1/2+x,y,1/2+z
1/2-x,-y,1/2+z
1/2+x,-y,1/2-z
1/2-x,y,1/2-z
1/2-x,-y,1/2-z
1/2+x,y,1/2-z
1/2-x,y,1/2+z
1/2+x,-y,1/2+z
1/2+x,1/2+y,z
1/2-x,1/2-y,z
1/2+x,1/2-y,-z
1/2-x,1/2+y,-z
1/2-x,1/2-y,-z
1/2+x,1/2+y,-z
1/2-x,1/2+y,z
1/2+x,1/2-y,z
loop_
_atom_site_type_symbol
_atom_site_label
_atom_site_fract_x
_atom_site_fract_y
_atom_site_fract_z
Si Si1 0.804474 0.330422 0.000000
Si Si2 0.562780 0.434382 0.000000
Si Si3 0.941286 0.747467 0.107011
Si Si4 0.155109 0.325609 0.822282
Si Si5 0.250000 0.750000 0.750000
Si Si6 0.389872 0.855741 0.356787
Si Si7 0.184946 0.196869 0.000000
O O1 0.829672 0.355446 0.087447
O O2 0.814050 0.263355 0.000000
O O3 0.741757 0.331205 0.000000
O O4 0.589855 0.407165 0.913657
O O5 0.568975 0.500000 0.000000
O O6 0.500000 0.421216 0.000000
O O7 0.894480 0.713500 0.152693
O O8 0.936046 0.809864 0.141892
O O9 0.000000 0.725604 0.125773
O O10 0.934869 0.748137 0.000000
O O11 0.208124 0.289532 0.800620
O O12 0.135616 0.361278 0.739438
O O13 0.345418 0.824769 0.414866
#
# Coordination Sequence:
#
# PCOD9511141 Si02
#       7
#    16  16  32  32   8  32  16
#     4  11  18  28  42  68 110 150 176 208 226 290
#     4  10  22  40  60  78  96 122 168 232 284 318
#     4  11  20  31  45  67 105 146 175 200 242 311
#     4  12  20  30  46  72 109 148 180 204 247 294
#     4  12  20  30  46  76 110 150 188 224 232 304
#     4  11  19  32  49  75  97 131 169 211 265 314
#     4  10  18  28  45  68 106 143 181 212 248 280
#
# _framework density 16.346018000000001
#
# number of rings (size 3 to 8) (size 9 to 14) (size 15 to 20)
#    0.000    0.947    7.368    3.158    0.000    2.526 
#    0.000    0.000    0.000    0.000    0.000   19.158 
#    0.000    1.684    0.000    0.000    0.000    0.000 
#
# Total GULP energy -211834.244150 kJ/mol
# GULP energy per Si atom -5574.585372 kJ/mol
# Density = 1.630881 g / cm^3
# Si number density = 16.346018 Si / 1000 Ang^3
#
#
#
# Elastic Constant Matrix: (Units=GPa)
#
#
# Indices 1 2 3 4 5 6 
#
# 1 122.3375 18.7278 40.5846 0.0000 0.0000 0.0000
# 2 18.7278 29.1650 19.2467 0.0000 0.0000 0.0000
# 3 40.5846 19.2467 135.6416 0.0000 0.0000 0.0000
# 4 0.0000 0.0000 0.0000 11.3809 0.0000 0.0000
# 5 0.0000 0.0000 0.0000 0.0000 23.0954 0.0000
# 6 0.0000 0.0000 0.0000 0.0000 0.0000 13.6094
#
#
#
# Elastic Compliance Matrix: (Units=1/GPa)
#
#
# Indices 1 2 3 4 5 6 
#
# 1 0.009631 -0.004725 -0.002211 0.000000 0.000000 0.000000
# 2 -0.004725 0.040148 -0.004283 0.000000 0.000000 0.000000
# 3 -0.002211 -0.004283 0.008642 0.000000 0.000000 0.000000
# 4 0.000000 0.000000 0.000000 0.087867 0.000000 0.000000
# 5 0.000000 0.000000 0.000000 0.000000 0.043299 0.000000
# 6 0.000000 0.000000 0.000000 0.000000 0.000000 0.073479
#
#
# Mechanical properties :
#
#
# Convention : Reuss Voigt Hill
#
# Bulk Modulus (GPa) = 27.79139 49.36247 38.57693
# Shear Modulus (GPa) = 16.80684 23.52280 20.16482
#
# Velocity S-wave (km/s) = 3.21002 3.79760 3.51611
# Velocity P-wave (km/s) = 5.54778 7.03513 6.33525
#
# Compressibility (1/GPa) = 0.03598237
#
# Stress axis : x y z
#
# Youngs Moduli (GPa) = 103.83147 24.90760 115.71811
#
# Poissons Ratio (x) = 0.11769 0.25587
# Poissons Ratio (y) = 0.49062 0.49562
# Poissons Ratio (z) = 0.22959 0.10668
#
# Static dielectric constant tensor:
#      x y z
#    x 1.595140 0.000000 0.000000 
#    y 0.000000 1.505770 0.000000 
#    z 0.000000 0.000000 1.637920 
# 
# From -- ./inp_files/18950.got.cif
#   From: 2010.05.17/outbox.cif.g08.bks.cpg/sg69_10_cif.got.tgz:18950.got - 2010.06.03 19:29:58.
