data_PCOD9511704
_publ_section_title
;
Structure prediction by ZEFSAII (Michael W. Deem and Ramdas Pophale) SiO2 
 PCOD9511704
Probable space group: F M M M
;
_chemical_formula_sum "Si O2"
_cell_formula_units_Z 176
_cell_length_a 26.626565
_cell_length_b 18.592277
_cell_length_c 20.085698
_cell_angle_alpha 90.000000
_cell_angle_beta 90.000000
_cell_angle_gamma 90.000000
_cell_volume 9943.394105
_symmetry_space_group_name_H-M "F M M M"
_symmetry_group_IT_number 69
_symmetry_cell_setting 'orthorhombic'
loop_
_space_group_symop_operation_xyz
x,y,z
-x,-y,z
x,-y,-z
-x,y,-z
-x,-y,-z
x,y,-z
-x,y,z
x,-y,z
x,1/2+y,1/2+z
-x,1/2-y,1/2+z
x,1/2-y,1/2-z
-x,1/2+y,1/2-z
-x,1/2-y,1/2-z
x,1/2+y,1/2-z
-x,1/2+y,1/2+z
x,1/2-y,1/2+z
1/2+x,y,1/2+z
1/2-x,-y,1/2+z
1/2+x,-y,1/2-z
1/2-x,y,1/2-z
1/2-x,-y,1/2-z
1/2+x,y,1/2-z
1/2-x,y,1/2+z
1/2+x,-y,1/2+z
1/2+x,1/2+y,z
1/2-x,1/2-y,z
1/2+x,1/2-y,-z
1/2-x,1/2+y,-z
1/2-x,1/2-y,-z
1/2+x,1/2+y,-z
1/2-x,1/2+y,z
1/2+x,1/2-y,z
loop_
_atom_site_type_symbol
_atom_site_label
_atom_site_fract_x
_atom_site_fract_y
_atom_site_fract_z
Si Si1 0.293298 0.810643 0.576688
Si Si2 0.945976 0.500000 0.922710
Si Si3 0.793298 0.085646 0.577208
Si Si4 0.384929 0.720922 0.826047
Si Si5 0.608769 0.874992 0.145842
Si Si6 0.440155 0.582127 0.216090
O O1 0.312605 0.808545 0.500000
O O2 0.250000 0.750000 0.581425
O O3 0.262581 0.884347 0.587365
O O4 0.335597 0.798161 0.631620
O O5 0.916402 0.428634 0.905280
O O6 0.000000 0.500000 0.887123
O O7 0.952307 0.500000 0.000000
O O8 0.806815 0.104232 0.500000
O O9 0.832237 0.121087 0.628622
O O10 0.795982 0.000000 0.584134
O O11 0.374203 0.750000 0.750000
O O12 0.408566 0.792743 0.858071
O O13 0.420126 0.650637 0.825319
O O14 0.591779 0.908039 0.216204
O O15 0.500000 0.589922 0.228147
O O16 0.432089 0.500000 0.190937
#
# Coordination Sequence:
#
# PCOD9511704 Si02
#       6
#    32  16  32  32  32  32
#     4  10  20  36  57  81 112 153 192 229 282 342
#     4  11  22  32  50  82 117 152 189 235 291 356
#     4  10  19  32  53  80 112 152 193 230 280 351
#     4  10  23  37  58  89 115 150 196 247 291 344
#     4  11  19  33  54  79 112 150 190 235 287 346
#     4  10  21  39  60  80 109 151 195 243 297 346
#
# _framework density 17.700192999999999
#
# number of rings (size 3 to 8) (size 9 to 14) (size 15 to 20)
#    0.000    1.727    3.636    1.091    0.000    5.818 
#    0.000    0.000    0.000    3.818    0.000    1.273 
#    0.000    0.000    0.000    0.000    0.000    0.000 
#
# Total GULP energy -245072.013727 kJ/mol
# GULP energy per Si atom -5569.818494 kJ/mol
# Density = 1.765991 g / cm^3
# Si number density = 17.700193 Si / 1000 Ang^3
#
#
#
# Elastic Constant Matrix: (Units=GPa)
#
#
# Indices 1 2 3 4 5 6 
#
# 1 70.0327 44.9032 35.5229 0.0000 0.0000 0.0000
# 2 44.9032 148.7632 38.9214 0.0000 0.0000 0.0000
# 3 35.5229 38.9214 47.9265 0.0000 0.0000 0.0000
# 4 0.0000 0.0000 0.0000 -12.7237 0.0000 0.0000
# 5 0.0000 0.0000 0.0000 0.0000 33.6235 0.0000
# 6 0.0000 0.0000 0.0000 0.0000 0.0000 30.8361
#
#
#
# Elastic Compliance Matrix: (Units=1/GPa)
#
#
# Indices 1 2 3 4 5 6 
#
# 1 0.024095 -0.003302 -0.015177 0.000000 0.000000 0.000000
# 2 -0.003302 0.008988 -0.004852 0.000000 0.000000 0.000000
# 3 -0.015177 -0.004852 0.036055 0.000000 0.000000 0.000000
# 4 0.000000 0.000000 0.000000 -0.078593 0.000000 0.000000
# 5 0.000000 0.000000 0.000000 0.000000 0.029741 0.000000
# 6 0.000000 0.000000 0.000000 0.000000 0.000000 0.032430
#
#
# Mechanical properties :
#
#
# Convention : Reuss Voigt Hill
#
# Bulk Modulus (GPa) = 44.49324 56.15748 50.32536
# Shear Modulus (GPa) = 46.78630 20.17218 33.47924
#
# Velocity S-wave (km/s) = 5.14685 3.37955 4.35381
# Velocity P-wave (km/s) = 7.77893 6.85743 7.33267
#
# Compressibility (1/GPa) = 0.02247532
#
# Stress axis : x y z
#
# Youngs Moduli (GPa) = 41.50325 111.25702 27.73550
#
# Poissons Ratio (x) = 0.36736 0.42095
# Poissons Ratio (y) = 0.13704 0.13457
# Poissons Ratio (z) = 0.62990 0.53982
#
# Static dielectric constant tensor:
#      x y z
#    x 1.614530 0.000000 0.000000 
#    y 0.000000 1.662500 0.000000 
#    z 0.000000 0.000000 1.618500 
# 
# From -- ./inp_files/27682.got.cif
#   From: 2010.05.17/outbox.cif.g08.bks.cpg/sg69_14_cif.got.tgz:27682.got - 2010.06.03 19:29:58.
