data_PCOD9511025
_publ_section_title
;
Structure prediction by ZEFSAII (Michael W. Deem and Ramdas Pophale) SiO2 
 PCOD9511025
Probable space group: F M M M
;
_chemical_formula_sum "Si O2"
_cell_formula_units_Z 168
_cell_length_a 22.848276
_cell_length_b 31.907092
_cell_length_c 12.384607
_cell_angle_alpha 90.000000
_cell_angle_beta 90.000000
_cell_angle_gamma 90.000000
_cell_volume 9028.651514
_symmetry_space_group_name_H-M "F M M M"
_symmetry_group_IT_number 69
_symmetry_cell_setting 'orthorhombic'
loop_
_space_group_symop_operation_xyz
x,y,z
-x,-y,z
x,-y,-z
-x,y,-z
-x,-y,-z
x,y,-z
-x,y,z
x,-y,z
x,1/2+y,1/2+z
-x,1/2-y,1/2+z
x,1/2-y,1/2-z
-x,1/2+y,1/2-z
-x,1/2-y,1/2-z
x,1/2+y,1/2-z
-x,1/2+y,1/2+z
x,1/2-y,1/2+z
1/2+x,y,1/2+z
1/2-x,-y,1/2+z
1/2+x,-y,1/2-z
1/2-x,y,1/2-z
1/2-x,-y,1/2-z
1/2+x,y,1/2-z
1/2-x,y,1/2+z
1/2+x,-y,1/2+z
1/2+x,1/2+y,z
1/2-x,1/2-y,z
1/2+x,1/2-y,-z
1/2-x,1/2+y,-z
1/2-x,1/2-y,-z
1/2+x,1/2+y,-z
1/2-x,1/2+y,z
1/2+x,1/2-y,z
loop_
_atom_site_type_symbol
_atom_site_label
_atom_site_fract_x
_atom_site_fract_y
_atom_site_fract_z
Si Si1 0.397924 0.920808 0.775418
Si Si2 0.282732 0.077008 0.000000
Si Si3 0.585323 0.450915 0.500000
Si Si4 0.818628 0.237588 0.623825
Si Si5 0.694261 0.644595 0.678547
Si Si6 0.000000 0.950720 0.128596
Si Si7 0.695242 0.000000 0.500000
Si Si8 0.679419 0.500000 0.234300
O O1 0.430910 0.926946 0.890129
O O2 0.361357 0.878034 0.766589
O O3 0.443172 0.929237 0.680562
O O4 0.350218 0.958364 0.777628
O O5 0.281478 0.108483 0.900045
O O6 0.344241 0.053161 0.000000
O O7 0.233995 0.041834 0.000000
O O8 0.568514 0.500000 0.500000
O O9 0.839812 0.252208 0.500000
O O10 0.839372 0.250000 0.750000
O O11 0.750000 0.250000 0.623971
O O12 0.825152 0.187358 0.623062
O O13 0.750000 0.656176 0.750000
O O14 0.000000 0.000000 0.160608
O O15 0.000000 0.948063 0.000000
O O16 0.661109 0.000000 0.390470
O O17 0.750000 0.500000 0.250000
#
# Coordination Sequence:
#
# PCOD9511025 Si02
#       8
#    32  16  16  32  32  16   8  16
#     4  11  23  36  58  82 113 161 205 262 309 349
#     4  10  20  30  46  74 116 161 192 249 292 337
#     4  10  16  33  54  73 105 136 196 242 303 345
#     4  10  19  35  56  83 123 167 198 234 305 384
#     4  11  20  35  53  85 121 155 202 253 302 377
#     4  11  24  45  61  77 118 166 226 275 308 359
#     4  12  22  30  48  71 116 169 204 236 292 368
#     4  12  22  35  50  82 118 156 212 247 306 366
#
# _framework density 18.607430000000001
#
# number of rings (size 3 to 8) (size 9 to 14) (size 15 to 20)
#    0.000    1.238    5.238    4.000    1.333    0.381 
#    1.714    0.952    0.000    0.000    0.000    0.667 
#    0.000    0.000    0.000    0.000    0.000    0.000 
#
# Total GULP energy -233834.464465 kJ/mol
# GULP energy per Si atom -5567.487249 kJ/mol
# Density = 1.856508 g / cm^3
# Si number density = 18.607430 Si / 1000 Ang^3
#
#
#
# Elastic Constant Matrix: (Units=GPa)
#
#
# Indices 1 2 3 4 5 6 
#
# 1 62.0920 17.1083 12.8092 0.0000 0.0000 0.0000
# 2 17.1083 89.5928 15.1561 0.0000 0.0000 0.0000
# 3 12.8092 15.1561 134.5419 0.0000 0.0001 0.0000
# 4 0.0000 0.0000 0.0000 32.7306 0.0000 0.0000
# 5 0.0000 0.0000 0.0001 0.0000 -390.8247 0.0000
# 6 0.0000 0.0000 0.0000 0.0000 0.0000 12.1445
#
#
#
# Elastic Compliance Matrix: (Units=1/GPa)
#
#
# Indices 1 2 3 4 5 6 
#
# 1 0.017218 -0.003069 -0.001293 0.000000 0.000000 0.000000
# 2 -0.003069 0.011925 -0.001051 0.000000 0.000000 0.000000
# 3 -0.001293 -0.001051 0.007674 0.000000 0.000000 0.000000
# 4 0.000000 0.000000 0.000000 0.030552 0.000000 0.000000
# 5 0.000000 0.000000 0.000000 0.000000 -0.002559 0.000000
# 6 0.000000 0.000000 0.000000 0.000000 0.000000 0.082342
#
#
# Mechanical properties :
#
#
# Convention : Reuss Voigt Hill
#
# Bulk Modulus (GPa) = 38.47656 41.81933 40.14794
# Shear Modulus (GPa) = 30.00417 -53.11306 -11.55445
#
# Velocity S-wave (km/s) = 4.01993 -5.34846 -2.49461
# Velocity P-wave (km/s) = 6.50149 3.95196 3.65044
#
# Compressibility (1/GPa) = 0.02598985
#
# Stress axis : x y z
#
# Youngs Moduli (GPa) = 58.08021 83.85398 130.30680
#
# Poissons Ratio (x) = 0.25735 0.16855
# Poissons Ratio (y) = 0.17825 0.13698
# Poissons Ratio (z) = 0.07513 0.08815
#
# Static dielectric constant tensor:
#      x y z
#    x 1.639500 0.000000 0.000000 
#    y 0.000000 1.657830 0.000000 
#    z 0.000000 0.000000 1.801640 
# 
# From -- ./inp_files/10682.got.cif
#   From: 2010.05.17/outbox.cif.g08.bks.cpg/sg69_6_cif.got.tgz:10682.got - 2010.06.03 19:29:58.
