data_PCOD9511579
_publ_section_title
;
Structure prediction by ZEFSAII (Michael W. Deem and Ramdas Pophale) SiO2 
 PCOD9511579
Probable space group: F M M M
;
_chemical_formula_sum "Si O2"
_cell_formula_units_Z 208
_cell_length_a 14.122849
_cell_length_b 24.057803
_cell_length_c 25.812829
_cell_angle_alpha 90.000000
_cell_angle_beta 90.000000
_cell_angle_gamma 90.000000
_cell_volume 8770.288593
_symmetry_space_group_name_H-M "F M M M"
_symmetry_group_IT_number 69
_symmetry_cell_setting 'orthorhombic'
loop_
_space_group_symop_operation_xyz
x,y,z
-x,-y,z
x,-y,-z
-x,y,-z
-x,-y,-z
x,y,-z
-x,y,z
x,-y,z
x,1/2+y,1/2+z
-x,1/2-y,1/2+z
x,1/2-y,1/2-z
-x,1/2+y,1/2-z
-x,1/2-y,1/2-z
x,1/2+y,1/2-z
-x,1/2+y,1/2+z
x,1/2-y,1/2+z
1/2+x,y,1/2+z
1/2-x,-y,1/2+z
1/2+x,-y,1/2-z
1/2-x,y,1/2-z
1/2-x,-y,1/2-z
1/2+x,y,1/2-z
1/2-x,y,1/2+z
1/2+x,-y,1/2+z
1/2+x,1/2+y,z
1/2-x,1/2-y,z
1/2+x,1/2-y,-z
1/2-x,1/2+y,-z
1/2-x,1/2-y,-z
1/2+x,1/2+y,-z
1/2-x,1/2+y,z
1/2+x,1/2-y,z
loop_
_atom_site_type_symbol
_atom_site_label
_atom_site_fract_x
_atom_site_fract_y
_atom_site_fract_z
Si Si1 0.889912 0.382785 0.057403
Si Si2 0.152423 0.268837 0.891316
Si Si3 0.385110 0.938356 0.836963
Si Si4 0.391054 0.432401 0.000000
Si Si5 0.116759 0.436011 0.386757
Si Si6 0.391520 0.166796 0.673650
Si Si7 0.385539 0.674538 0.713661
O O1 0.889919 0.317631 0.073996
O O2 0.851136 0.417402 0.106327
O O3 0.000000 0.399225 0.053873
O O4 0.848026 0.390803 0.000000
O O5 0.250000 0.250000 0.916039
O O6 0.106098 0.211200 0.872914
O O7 0.165989 0.297692 0.835013
O O8 0.500000 0.940342 0.840424
O O9 0.368388 0.891002 0.794524
O O10 0.350885 0.000000 0.824851
O O11 0.351095 0.417108 0.055836
O O12 0.393166 0.500000 0.000000
O O13 0.500000 0.412653 0.000000
O O14 0.142819 0.500000 0.377243
O O15 0.151486 0.390810 0.345838
O O16 0.000000 0.435031 0.387592
O O17 0.500000 0.153583 0.687098
O O18 0.355690 0.189793 0.728433
O O19 0.500000 0.686647 0.705630
#
# Coordination Sequence:
#
# PCOD9511579 Si02
#       7
#    32  32  32  16  32  32  32
#     4   9  18  34  55  78 105 132 160 203 254 298
#     4  11  22  35  51  70  97 133 171 213 250 300
#     4   8  14  26  47  77 107 131 158 194 246 307
#     4   7  10  20  38  60  91 124 148 182 235 286
#     4   8  14  25  43  69  98 124 155 202 254 299
#     4  10  19  31  49  73  99 130 171 211 251 301
#     4   9  18  32  50  72 102 134 163 208 258 297
#
# _framework density 23.716438
#
# number of rings (size 3 to 8) (size 9 to 14) (size 15 to 20)
#    0.000    3.000    0.000    3.692    0.000    3.692 
#    1.385    4.615    0.000    3.692    0.000    5.385 
#    0.000    0.000    0.000    0.000    0.000    0.000 
#
# Total GULP energy -290055.059563 kJ/mol
# GULP energy per Si atom -5577.981915 kJ/mol
# Density = 2.366246 g / cm^3
# Si number density = 23.716438 Si / 1000 Ang^3
#
#
#
# Elastic Constant Matrix: (Units=GPa)
#
#
# Indices 1 2 3 4 5 6 
#
# 1 52.1662 -19.1519 -11.1779 0.0000 0.0000 0.0000
# 2 -19.1519 90.9402 -1.7850 0.0000 0.0000 0.0000
# 3 -11.1779 -1.7850 48.8992 0.0000 0.0000 0.0000
# 4 0.0000 0.0000 0.0000 21.8786 0.0000 0.0000
# 5 0.0000 0.0000 0.0000 0.0000 16.1191 0.0000
# 6 0.0000 0.0000 0.0000 0.0000 0.0000 904.4225
#
#
#
# Elastic Compliance Matrix: (Units=1/GPa)
#
#
# Indices 1 2 3 4 5 6 
#
# 1 0.022026 0.004741 0.005208 0.000000 0.000000 0.000000
# 2 0.004741 0.012025 0.001523 0.000000 0.000000 0.000000
# 3 0.005208 0.001523 0.021696 0.000000 0.000000 0.000000
# 4 0.000000 0.000000 0.000000 0.045707 0.000000 0.000000
# 5 0.000000 0.000000 0.000000 0.000000 0.062038 0.000000
# 6 0.000000 0.000000 0.000000 0.000000 0.000000 0.001106
#
#
# Mechanical properties :
#
#
# Convention : Reuss Voigt Hill
#
# Bulk Modulus (GPa) = 12.70811 14.19732 13.45271
# Shear Modulus (GPa) = 29.78239 203.42539 116.60389
#
# Velocity S-wave (km/s) = 3.54753 9.27147 7.01944
# Velocity P-wave (km/s) = 4.70637 10.98239 8.44875
#
# Compressibility (1/GPa) = 0.07868993
#
# Stress axis : x y z
#
# Youngs Moduli (GPa) = 45.40099 83.16322 46.09073
#
# Poissons Ratio (x) = -0.39427 -0.24004
# Poissons Ratio (y) = -0.21524 -0.07018
# Poissons Ratio (z) = -0.23645 -0.12663
#
# Static dielectric constant tensor:
#      x y z
#    x 2.035060 0.000000 0.000000 
#    y 0.000000 1.881290 0.000000 
#    z 0.000000 0.000000 1.886510 
# 
# From -- ./inp_files/42137.got.cif
#   From: 2010.05.17/outbox.cif.g08.bks.cpg/sg69_22_cif.got.tgz:42137.got - 2010.06.03 19:29:58.
