data_PCOD9511273
_publ_section_title
;
Structure prediction by ZEFSAII (Michael W. Deem and Ramdas Pophale) SiO2 
 PCOD9511273
Probable space group: F M M M
;
_chemical_formula_sum "Si O2"
_cell_formula_units_Z 136
_cell_length_a 15.448316
_cell_length_b 18.599503
_cell_length_c 24.944454
_cell_angle_alpha 90.000000
_cell_angle_beta 90.000000
_cell_angle_gamma 90.000000
_cell_volume 7167.314907
_symmetry_space_group_name_H-M "F M M M"
_symmetry_group_IT_number 69
_symmetry_cell_setting 'orthorhombic'
loop_
_space_group_symop_operation_xyz
x,y,z
-x,-y,z
x,-y,-z
-x,y,-z
-x,-y,-z
x,y,-z
-x,y,z
x,-y,z
x,1/2+y,1/2+z
-x,1/2-y,1/2+z
x,1/2-y,1/2-z
-x,1/2+y,1/2-z
-x,1/2-y,1/2-z
x,1/2+y,1/2-z
-x,1/2+y,1/2+z
x,1/2-y,1/2+z
1/2+x,y,1/2+z
1/2-x,-y,1/2+z
1/2+x,-y,1/2-z
1/2-x,y,1/2-z
1/2-x,-y,1/2-z
1/2+x,y,1/2-z
1/2-x,y,1/2+z
1/2+x,-y,1/2+z
1/2+x,1/2+y,z
1/2-x,1/2-y,z
1/2+x,1/2-y,-z
1/2-x,1/2+y,-z
1/2-x,1/2-y,-z
1/2+x,1/2+y,-z
1/2-x,1/2+y,z
1/2+x,1/2-y,z
loop_
_atom_site_type_symbol
_atom_site_label
_atom_site_fract_x
_atom_site_fract_y
_atom_site_fract_z
Si Si1 0.500000 0.258564 0.500000
Si Si2 0.901669 0.585802 0.110590
Si Si3 0.839740 0.587652 0.225562
Si Si4 0.668543 0.639875 0.500000
Si Si5 0.350080 0.081860 0.500000
Si Si6 0.000000 0.913081 0.801222
Si Si7 0.500000 0.372250 0.076874
O O1 0.407841 0.299948 0.500000
O O2 0.500000 0.207347 0.552090
O O3 0.907350 0.500000 0.116338
O O4 0.857910 0.613255 0.165109
O O5 0.852027 0.600614 0.055904
O O6 0.000000 0.613741 0.106222
O O7 0.836960 0.500000 0.223719
O O8 0.750000 0.613378 0.250000
O O9 0.917140 0.606461 0.265557
O O10 0.773670 0.641409 0.500000
O O11 0.414419 0.091619 0.550682
O O12 0.314790 0.000000 0.500000
O O13 0.000000 0.878665 0.859723
O O14 0.000000 0.000000 0.808397
#
# Coordination Sequence:
#
# PCOD9511273 Si02
#       7
#     8  32  32  16  16  16  16
#     4  10  24  44  56  80 114 160 214 234 290 324
#     4  10  18  31  49  80 117 147 177 228 298 354
#     4   9  18  30  49  79 117 147 176 223 290 363
#     4  12  22  35  59  83 113 154 196 245 286 348
#     4  10  21  37  58  90 115 140 184 247 308 347
#     4  10  18  33  56  82 110 149 187 232 293 344
#     4  10  23  40  59  77 117 160 198 243 270 347
#
# _framework density 18.975027999999998
#
# number of rings (size 3 to 8) (size 9 to 14) (size 15 to 20)
#    0.000    2.118    2.353    2.471    3.294    2.824 
#    0.000    0.000    0.000    2.824    0.000    1.647 
#    0.000    0.000    0.000    0.000    0.000    0.000 
#
# Total GULP energy -189431.316082 kJ/mol
# GULP energy per Si atom -5571.509297 kJ/mol
# Density = 1.893184 g / cm^3
# Si number density = 18.975028 Si / 1000 Ang^3
#
#
#
# Elastic Constant Matrix: (Units=GPa)
#
#
# Indices 1 2 3 4 5 6 
#
# 1 156.3674 17.5158 79.7943 0.0000 0.0000 0.0000
# 2 17.5158 35.5534 9.1229 0.0000 0.0000 0.0000
# 3 79.7943 9.1229 201.7344 0.0000 0.0000 0.0000
# 4 0.0000 0.0000 0.0000 -21.0299 0.0000 0.0000
# 5 0.0000 0.0000 0.0000 0.0000 4.8790 0.0000
# 6 0.0000 0.0000 0.0000 0.0000 0.0000 153.5896
#
#
#
# Elastic Compliance Matrix: (Units=1/GPa)
#
#
# Indices 1 2 3 4 5 6 
#
# 1 0.008382 -0.003317 -0.003165 0.000000 0.000000 0.000000
# 2 -0.003317 0.029770 -0.000034 0.000000 0.000000 0.000000
# 3 -0.003165 -0.000034 0.006211 0.000000 0.000000 0.000000
# 4 0.000000 0.000000 0.000000 -0.047551 0.000000 0.000000
# 5 0.000000 0.000000 0.000000 0.000000 0.204959 0.000000
# 6 0.000000 0.000000 0.000000 0.000000 0.000000 0.006511
#
#
# Mechanical properties :
#
#
# Convention : Reuss Voigt Hill
#
# Bulk Modulus (GPa) = 31.91957 67.39125 49.65541
# Shear Modulus (GPa) = 21.57425 46.63590 34.10507
#
# Velocity S-wave (km/s) = 3.37557 4.96295 4.24413
# Velocity P-wave (km/s) = 5.66137 8.27249 7.08820
#
# Compressibility (1/GPa) = 0.03132874
#
# Stress axis : x y z
#
# Youngs Moduli (GPa) = 119.30158 33.59112 161.01436
#
# Poissons Ratio (x) = 0.11143 0.50968
# Poissons Ratio (y) = 0.39576 0.00550
# Poissons Ratio (z) = 0.37764 0.00115
#
# Static dielectric constant tensor:
#      x y z
#    x 1.667200 0.000000 0.000000 
#    y 0.000000 1.674300 0.000000 
#    z 0.000000 0.000000 1.635630 
# 
# From -- ./inp_files/35810.got.cif
#   From: 2010.05.17/outbox.cif.g08.bks.cpg/sg69_18_cif.got.tgz:35810.got - 2010.06.03 19:29:58.
