data_PCOD9511985
_publ_section_title
;
Structure prediction by ZEFSAII (Michael W. Deem and Ramdas Pophale) SiO2 
 PCOD9511985
Probable space group: F M M M
;
_chemical_formula_sum "Si O2"
_cell_formula_units_Z 160
_cell_length_a 29.984089
_cell_length_b 8.511264
_cell_length_c 33.447618
_cell_angle_alpha 90.000000
_cell_angle_beta 90.000000
_cell_angle_gamma 90.000000
_cell_volume 8535.915642
_symmetry_space_group_name_H-M "F M M M"
_symmetry_group_IT_number 69
_symmetry_cell_setting 'orthorhombic'
loop_
_space_group_symop_operation_xyz
x,y,z
-x,-y,z
x,-y,-z
-x,y,-z
-x,-y,-z
x,y,-z
-x,y,z
x,-y,z
x,1/2+y,1/2+z
-x,1/2-y,1/2+z
x,1/2-y,1/2-z
-x,1/2+y,1/2-z
-x,1/2-y,1/2-z
x,1/2+y,1/2-z
-x,1/2+y,1/2+z
x,1/2-y,1/2+z
1/2+x,y,1/2+z
1/2-x,-y,1/2+z
1/2+x,-y,1/2-z
1/2-x,y,1/2-z
1/2-x,-y,1/2-z
1/2+x,y,1/2-z
1/2-x,y,1/2+z
1/2+x,-y,1/2+z
1/2+x,1/2+y,z
1/2-x,1/2-y,z
1/2+x,1/2-y,-z
1/2-x,1/2+y,-z
1/2-x,1/2-y,-z
1/2+x,1/2+y,-z
1/2-x,1/2+y,z
1/2+x,1/2-y,z
loop_
_atom_site_type_symbol
_atom_site_label
_atom_site_fract_x
_atom_site_fract_y
_atom_site_fract_z
Si Si1 0.200694 0.687622 0.294648
Si Si2 0.921911 0.183459 0.500000
Si Si3 0.207124 0.817515 0.577950
Si Si4 0.948083 0.310915 0.910707
Si Si5 0.173290 0.678096 0.500000
Si Si6 0.365716 0.312325 0.134336
O O1 0.203998 0.500000 0.293724
O O2 0.192374 0.750000 0.250000
O O3 0.250000 0.750000 0.306778
O O4 0.159270 0.727707 0.323976
O O5 0.938068 0.245845 0.543382
O O6 0.868807 0.206260 0.500000
O O7 0.934747 0.000000 0.500000
O O8 0.250000 0.750000 0.600603
O O9 0.202101 0.713390 0.538608
O O10 0.162951 0.784543 0.602448
O O11 0.211857 0.000000 0.568987
O O12 0.940376 0.500000 0.910293
O O13 0.916053 0.233452 0.877497
O O14 0.000000 0.281984 0.902524
O O15 0.156681 0.500000 0.500000
O O16 0.360359 0.500000 0.128443
#
# Coordination Sequence:
#
# PCOD9511985 Si02
#       6
#    32  16  32  32  16  32
#     4  10  21  37  60  89 120 152 187 226 276 334
#     4  10  19  35  57  81 109 148 194 240 292 341
#     4  12  24  38  55  77 108 149 191 233 280 335
#     4  10  21  37  59  85 114 151 194 242 293 344
#     4  12  23  36  53  76 108 146 189 236 282 336
#     4  11  23  38  57  85 117 149 186 234 285 337
#
# _framework density 18.744327999999999
#
# number of rings (size 3 to 8) (size 9 to 14) (size 15 to 20)
#    0.000    1.200    2.000    5.700    0.000    6.400 
#    0.000    0.000    0.000    2.400    0.000    0.000 
#    0.000    0.000    0.000    0.000    0.000    0.000 
#
# Total GULP energy -223216.690508 kJ/mol
# GULP energy per Si atom -5580.417263 kJ/mol
# Density = 1.870166 g / cm^3
# Si number density = 18.744328 Si / 1000 Ang^3
#
#
#
# Elastic Constant Matrix: (Units=GPa)
#
#
# Indices 1 2 3 4 5 6 
#
# 1 119.5619 17.2487 49.1453 0.0000 0.0001 -0.0004
# 2 17.2487 53.7056 28.4012 0.0004 0.0004 -0.0010
# 3 49.1453 28.4012 117.5669 0.0000 0.0001 -0.0001
# 4 0.0000 0.0004 0.0000 17.7641 0.0000 -0.0001
# 5 0.0001 0.0004 0.0001 0.0000 15.6238 -0.0004
# 6 -0.0004 -0.0010 -0.0001 -0.0001 -0.0004 28.8964
#
#
#
# Elastic Compliance Matrix: (Units=1/GPa)
#
#
# Indices 1 2 3 4 5 6 
#
# 1 0.010162 -0.001166 -0.003966 0.000000 0.000000 0.000000
# 2 -0.001166 0.021481 -0.004702 0.000000 0.000000 0.000001
# 3 -0.003966 -0.004702 0.011300 0.000000 0.000000 0.000000
# 4 0.000000 0.000000 0.000000 0.056293 0.000000 0.000000
# 5 0.000000 0.000000 0.000000 0.000000 0.064005 0.000001
# 6 0.000000 0.000001 0.000000 0.000000 0.000001 0.034606
#
#
# Mechanical properties :
#
#
# Convention : Reuss Voigt Hill
#
# Bulk Modulus (GPa) = 42.96589 53.38055 48.17322
# Shear Modulus (GPa) = 22.19512 25.52614 23.86063
#
# Velocity S-wave (km/s) = 3.44481 3.69427 3.57172
# Velocity P-wave (km/s) = 6.22849 6.83644 6.53953
#
# Compressibility (1/GPa) = 0.02327427
#
# Stress axis : x y z
#
# Youngs Moduli (GPa) = 98.40114 46.55265 88.49843
#
# Poissons Ratio (x) = 0.05430 0.35102
# Poissons Ratio (y) = 0.11477 0.41609
# Poissons Ratio (z) = 0.39029 0.21888
#
# Static dielectric constant tensor:
#      x y z
#    x 1.664460 0.000000 0.000000 
#    y 0.000000 1.637990 0.000000 
#    z 0.000000 0.000000 1.678610 
# 
# From -- ./inp_files/5787.got.cif
#   From: 2010.05.17/outbox.cif.g08.bks.cpg/sg69_3_cif.got.tgz:5787.got - 2010.06.03 19:29:58.
