data_PCOD9511292
_publ_section_title
;
Structure prediction by ZEFSAII (Michael W. Deem and Ramdas Pophale) SiO2 
 PCOD9511292
Probable space group: F M M M
;
_chemical_formula_sum "Si O2"
_cell_formula_units_Z 128
_cell_length_a 16.481444
_cell_length_b 30.972996
_cell_length_c 14.158861
_cell_angle_alpha 90.000000
_cell_angle_beta 90.000000
_cell_angle_gamma 90.000000
_cell_volume 7227.811103
_symmetry_space_group_name_H-M "F M M M"
_symmetry_group_IT_number 69
_symmetry_cell_setting 'orthorhombic'
loop_
_space_group_symop_operation_xyz
x,y,z
-x,-y,z
x,-y,-z
-x,y,-z
-x,-y,-z
x,y,-z
-x,y,z
x,-y,z
x,1/2+y,1/2+z
-x,1/2-y,1/2+z
x,1/2-y,1/2-z
-x,1/2+y,1/2-z
-x,1/2-y,1/2-z
x,1/2+y,1/2-z
-x,1/2+y,1/2+z
x,1/2-y,1/2+z
1/2+x,y,1/2+z
1/2-x,-y,1/2+z
1/2+x,-y,1/2-z
1/2-x,y,1/2-z
1/2-x,-y,1/2-z
1/2+x,y,1/2-z
1/2-x,y,1/2+z
1/2+x,-y,1/2+z
1/2+x,1/2+y,z
1/2-x,1/2-y,z
1/2+x,1/2-y,-z
1/2-x,1/2+y,-z
1/2-x,1/2-y,-z
1/2+x,1/2+y,-z
1/2-x,1/2+y,z
1/2+x,1/2-y,z
loop_
_atom_site_type_symbol
_atom_site_label
_atom_site_fract_x
_atom_site_fract_y
_atom_site_fract_z
Si Si1 0.500000 0.255474 0.138981
Si Si2 0.250000 0.848218 0.250000
Si Si3 0.657599 0.093194 0.613859
Si Si4 0.094451 0.000000 0.114563
Si Si5 0.500000 0.357127 0.110056
Si Si6 0.323660 0.215011 0.105774
O O1 0.500000 0.250000 0.250000
O O2 0.500000 0.306105 0.116570
O O3 0.413963 0.235471 0.105992
O O4 0.273334 0.880717 0.333932
O O5 0.312966 0.816305 0.196030
O O6 0.665797 0.095191 0.500000
O O7 0.579469 0.120325 0.648064
O O8 0.641049 0.043680 0.641384
O O9 0.000000 0.000000 0.146634
O O10 0.090580 0.000000 0.000000
O O11 0.500000 0.369137 0.000000
O O12 0.250000 0.250000 0.114363
O O13 0.312218 0.195270 0.000000
#
# Coordination Sequence:
#
# PCOD9511292 Si02
#       6
#    16  16  32  16  16  32
#     4  12  22  34  55  79 107 148 192 229 275 327
#     4  12  23  35  52  78 114 148 184 223 269 330
#     4  10  20  34  55  81 107 136 172 222 280 332
#     4   9  16  33  58  82 107 131 165 223 289 339
#     4  10  18  31  52  76  98 125 173 228 270 309
#     4  11  23  39  56  77 112 154 194 237 281 326
#
# _framework density 17.709372999999999
#
# number of rings (size 3 to 8) (size 9 to 14) (size 15 to 20)
#    0.000    1.375    1.250    6.750    0.000    4.500 
#    0.000    0.000    0.000    0.000    0.000    0.000 
#    0.000    2.000    0.000    0.000    0.000    0.000 
#
# Total GULP energy -178189.631987 kJ/mol
# GULP energy per Si atom -5568.426000 kJ/mol
# Density = 1.766907 g / cm^3
# Si number density = 17.709373 Si / 1000 Ang^3
#
#
#
# Elastic Constant Matrix: (Units=GPa)
#
#
# Indices 1 2 3 4 5 6 
#
# 1 85.0303 52.4728 13.9909 0.0000 0.0000 0.0000
# 2 52.4728 126.1435 26.9837 0.0000 0.0000 0.0000
# 3 13.9909 26.9837 71.3278 0.0000 0.0000 0.0000
# 4 0.0000 0.0000 0.0000 21.1128 0.0000 0.0000
# 5 0.0000 0.0000 0.0000 0.0000 6.4171 0.0000
# 6 0.0000 0.0000 0.0000 0.0000 0.0000 28.9305
#
#
#
# Elastic Compliance Matrix: (Units=1/GPa)
#
#
# Indices 1 2 3 4 5 6 
#
# 1 0.015851 -0.006451 -0.000669 0.000000 0.000000 0.000000
# 2 -0.006451 0.011251 -0.002991 0.000000 0.000000 0.000000
# 3 -0.000669 -0.002991 0.015282 0.000000 0.000000 0.000000
# 4 0.000000 0.000000 0.000000 0.047365 0.000000 0.000000
# 5 0.000000 0.000000 0.000000 0.000000 0.155834 0.000000
# 6 0.000000 0.000000 0.000000 0.000000 0.000000 0.034566
#
#
# Mechanical properties :
#
#
# Convention : Reuss Voigt Hill
#
# Bulk Modulus (GPa) = 45.11925 52.15512 48.63719
# Shear Modulus (GPa) = 16.24653 23.89567 20.07110
#
# Velocity S-wave (km/s) = 3.03214 3.67730 3.37019
# Velocity P-wave (km/s) = 6.14747 6.89526 6.53207
#
# Compressibility (1/GPa) = 0.02216349
#
# Stress axis : x y z
#
# Youngs Moduli (GPa) = 63.08605 88.88401 65.43453
#
# Poissons Ratio (x) = 0.57337 0.04377
# Poissons Ratio (y) = 0.40695 0.19571
# Poissons Ratio (z) = 0.04220 0.26584
#
# Static dielectric constant tensor:
#      x y z
#    x 1.626000 0.000000 0.000000 
#    y 0.000000 1.587440 0.000000 
#    z 0.000000 0.000000 1.626320 
# 
# From -- ./inp_files/15392.got.cif
#   From: 2010.05.17/outbox.cif.g08.bks.cpg/sg69_8_cif.got.tgz:15392.got - 2010.06.03 19:29:58.
