data_PCOD9511018
_publ_section_title
;
Structure prediction by ZEFSAII (Michael W. Deem and Ramdas Pophale) SiO2 
 PCOD9511018
Probable space group: F M M M
;
_chemical_formula_sum "Si O2"
_cell_formula_units_Z 144
_cell_length_a 28.350611
_cell_length_b 18.810627
_cell_length_c 14.242699
_cell_angle_alpha 90.000000
_cell_angle_beta 90.000000
_cell_angle_gamma 90.000000
_cell_volume 7595.528384
_symmetry_space_group_name_H-M "F M M M"
_symmetry_group_IT_number 69
_symmetry_cell_setting 'orthorhombic'
loop_
_space_group_symop_operation_xyz
x,y,z
-x,-y,z
x,-y,-z
-x,y,-z
-x,-y,-z
x,y,-z
-x,y,z
x,-y,z
x,1/2+y,1/2+z
-x,1/2-y,1/2+z
x,1/2-y,1/2-z
-x,1/2+y,1/2-z
-x,1/2-y,1/2-z
x,1/2+y,1/2-z
-x,1/2+y,1/2+z
x,1/2-y,1/2+z
1/2+x,y,1/2+z
1/2-x,-y,1/2+z
1/2+x,-y,1/2-z
1/2-x,y,1/2-z
1/2-x,-y,1/2-z
1/2+x,y,1/2-z
1/2-x,y,1/2+z
1/2+x,-y,1/2+z
1/2+x,1/2+y,z
1/2-x,1/2-y,z
1/2+x,1/2-y,-z
1/2-x,1/2+y,-z
1/2-x,1/2-y,-z
1/2+x,1/2+y,-z
1/2-x,1/2+y,z
1/2+x,1/2-y,z
loop_
_atom_site_type_symbol
_atom_site_label
_atom_site_fract_x
_atom_site_fract_y
_atom_site_fract_z
Si Si1 0.052213 0.500000 0.112707
Si Si2 0.369948 0.917011 0.657744
Si Si3 0.386988 0.137948 0.148172
Si Si4 0.945018 0.724947 0.000000
Si Si5 0.945819 0.605207 0.500000
Si Si6 0.312621 0.086609 0.000000
Si Si7 0.296377 0.414191 0.000000
O O1 0.079331 0.430394 0.141837
O O2 0.000000 0.500000 0.152050
O O3 0.050564 0.500000 0.000000
O O4 0.375366 0.861085 0.742086
O O5 0.415930 0.917757 0.591051
O O6 0.326484 0.894045 0.591415
O O7 0.362017 0.000000 0.689074
O O8 0.416144 0.197397 0.091256
O O9 0.340383 0.117994 0.089196
O O10 0.946117 0.809366 0.000000
O O11 0.000000 0.698561 0.000000
O O12 0.000000 0.581195 0.500000
O O13 0.257897 0.107487 0.000000
O O14 0.316806 0.000000 0.000000
O O15 0.296675 0.500000 0.000000
#
# Coordination Sequence:
#
# PCOD9511018 Si02
#       7
#    16  32  32  16  16  16  16
#     4  11  18  28  46  74 110 142 166 211 270 309
#     4  10  20  37  55  80 108 137 180 224 271 311
#     4  11  19  32  53  81 111 136 175 222 263 323
#     4  10  22  38  53  77 109 145 180 214 266 317
#     4  10  23  40  55  72 105 148 188 220 249 312
#     4  10  16  30  51  81 114 140 172 212 275 327
#     4   8  18  32  52  75 110 148 169 215 268 321
#
# _framework density 18.958523
#
# number of rings (size 3 to 8) (size 9 to 14) (size 15 to 20)
#    0.000    1.889    4.444    1.667    0.000    4.444 
#    0.000    5.556    0.000   10.667    0.000   12.444 
#    0.000    0.000    0.000    0.000    0.000    0.000 
#
# Total GULP energy -200776.325198 kJ/mol
# GULP energy per Si atom -5577.120144 kJ/mol
# Density = 1.891537 g / cm^3
# Si number density = 18.958523 Si / 1000 Ang^3
#
#
#
# Elastic Constant Matrix: (Units=GPa)
#
#
# Indices 1 2 3 4 5 6 
#
# 1 170.4760 16.9861 58.7191 0.0000 0.0000 0.0000
# 2 16.9861 55.3007 12.3209 0.0000 0.0000 0.0000
# 3 58.7191 12.3209 128.6302 0.0000 0.0000 0.0000
# 4 0.0000 0.0000 0.0000 12.7504 0.0000 0.0000
# 5 0.0000 0.0000 0.0000 0.0000 20.6052 0.0000
# 6 0.0000 0.0000 0.0000 0.0000 0.0000 10.8979
#
#
#
# Elastic Compliance Matrix: (Units=1/GPa)
#
#
# Indices 1 2 3 4 5 6 
#
# 1 0.007078 -0.001486 -0.003089 0.000000 0.000000 0.000000
# 2 -0.001486 0.018789 -0.001121 0.000000 0.000000 0.000000
# 3 -0.003089 -0.001121 0.009292 0.000000 0.000000 0.000000
# 4 0.000000 0.000000 0.000000 0.078429 0.000000 0.000000
# 5 0.000000 0.000000 0.000000 0.000000 0.048532 0.000000
# 6 0.000000 0.000000 0.000000 0.000000 0.000000 0.091761
#
#
# Mechanical properties :
#
#
# Convention : Reuss Voigt Hill
#
# Bulk Modulus (GPa) = 42.07569 58.93989 50.50779
# Shear Modulus (GPa) = 18.30200 26.60941 22.45570
#
# Velocity S-wave (km/s) = 3.11041 3.75048 3.44534
# Velocity P-wave (km/s) = 5.92801 7.06478 6.52121
#
# Compressibility (1/GPa) = 0.02376669
#
# Stress axis : x y z
#
# Youngs Moduli (GPa) = 141.28585 53.22203 107.62400
#
# Poissons Ratio (x) = 0.07908 0.33242
# Poissons Ratio (y) = 0.20993 0.12069
# Poissons Ratio (z) = 0.43639 0.05969
#
# Static dielectric constant tensor:
#      x y z
#    x 1.659170 0.000000 0.000000 
#    y 0.000000 1.649260 0.000000 
#    z 0.000000 0.000000 1.387960 
# 
# From -- ./inp_files/19548.got.cif
#   From: 2010.05.17/outbox.cif.g08.bks.cpg/sg69_10_cif.got.tgz:19548.got - 2010.06.03 19:29:58.
