data_PCOD9511654
_publ_section_title
;
Structure prediction by ZEFSAII (Michael W. Deem and Ramdas Pophale) SiO2 
 PCOD9511654
Probable space group: F M M M
;
_chemical_formula_sum "Si O2"
_cell_formula_units_Z 160
_cell_length_a 11.685766
_cell_length_b 22.746285
_cell_length_c 35.229441
_cell_angle_alpha 90.000000
_cell_angle_beta 90.000000
_cell_angle_gamma 90.000000
_cell_volume 9364.258935
_symmetry_space_group_name_H-M "F M M M"
_symmetry_group_IT_number 69
_symmetry_cell_setting 'orthorhombic'
loop_
_space_group_symop_operation_xyz
x,y,z
-x,-y,z
x,-y,-z
-x,y,-z
-x,-y,-z
x,y,-z
-x,y,z
x,-y,z
x,1/2+y,1/2+z
-x,1/2-y,1/2+z
x,1/2-y,1/2-z
-x,1/2+y,1/2-z
-x,1/2-y,1/2-z
x,1/2+y,1/2-z
-x,1/2+y,1/2+z
x,1/2-y,1/2+z
1/2+x,y,1/2+z
1/2-x,-y,1/2+z
1/2+x,-y,1/2-z
1/2-x,y,1/2-z
1/2-x,-y,1/2-z
1/2+x,y,1/2-z
1/2-x,y,1/2+z
1/2+x,-y,1/2+z
1/2+x,1/2+y,z
1/2-x,1/2-y,z
1/2+x,1/2-y,-z
1/2-x,1/2+y,-z
1/2-x,1/2-y,-z
1/2+x,1/2+y,-z
1/2-x,1/2+y,z
1/2+x,1/2-y,z
loop_
_atom_site_type_symbol
_atom_site_label
_atom_site_fract_x
_atom_site_fract_y
_atom_site_fract_z
Si Si1 0.635406 0.356710 0.543403
Si Si2 0.750000 0.750000 0.087957
Si Si3 0.219809 0.569159 0.594086
Si Si4 0.131841 0.335392 0.644636
Si Si5 0.500000 0.571063 0.956870
Si Si6 0.130947 0.683765 0.733448
O O1 0.674374 0.365130 0.500000
O O2 0.500000 0.349345 0.543447
O O3 0.692537 0.299476 0.562040
O O4 0.671653 0.411359 0.569566
O O5 0.838246 0.782808 0.115922
O O6 0.215216 0.500000 0.601682
O O7 0.207975 0.609352 0.631303
O O8 0.112503 0.586737 0.566948
O O9 0.147486 0.316437 0.688052
O O10 0.000000 0.352796 0.640392
O O11 0.500000 0.500000 0.959257
O O12 0.500000 0.594277 0.000000
O O13 0.127619 0.750000 0.750000
O O14 0.250000 0.656582 0.750000
O O15 0.000000 0.659533 0.740838
#
# Coordination Sequence:
#
# PCOD9511654 Si02
#       6
#    32  16  32  32  16  32
#     4  10  21  35  50  71 102 141 182 223 271 327
#     4  10  19  32  51  74 102 136 176 218 269 316
#     4  10  20  34  52  75 101 132 176 224 270 317
#     4  10  19  32  52  77 105 135 169 215 265 320
#     4   9  16  28  48  72  97 124 164 218 264 303
#     4   9  17  30  49  75 104 133 167 207 258 317
#
# _framework density 17.086241999999999
#
# number of rings (size 3 to 8) (size 9 to 14) (size 15 to 20)
#    0.000    2.300    1.000    2.700    0.000    1.600 
#    0.000    5.000    0.000    0.600    0.000    0.000 
#    0.000    0.000    0.000    0.000    0.000    0.000 
#
# Total GULP energy -222769.842437 kJ/mol
# GULP energy per Si atom -5569.246061 kJ/mol
# Density = 1.704735 g / cm^3
# Si number density = 17.086242 Si / 1000 Ang^3
#
#
#
# Elastic Constant Matrix: (Units=GPa)
#
#
# Indices 1 2 3 4 5 6 
#
# 1 72.2273 -1.6852 28.0044 0.0000 0.0000 0.0000
# 2 -1.6852 60.9504 34.3671 0.0000 0.0000 0.0000
# 3 28.0044 34.3671 113.5220 0.0000 0.0000 0.0000
# 4 0.0000 0.0000 0.0000 16.7357 0.0000 0.0000
# 5 0.0000 0.0000 0.0000 0.0000 27.5537 0.0000
# 6 0.0000 0.0000 0.0000 0.0000 0.0000 13.3657
#
#
#
# Elastic Compliance Matrix: (Units=1/GPa)
#
#
# Indices 1 2 3 4 5 6 
#
# 1 0.015804 0.003178 -0.004861 0.000000 0.000000 0.000000
# 2 0.003178 0.020423 -0.006967 0.000000 0.000000 0.000000
# 3 -0.004861 -0.006967 0.012117 0.000000 0.000000 0.000000
# 4 0.000000 0.000000 0.000000 0.059752 0.000000 0.000000
# 5 0.000000 0.000000 0.000000 0.000000 0.036293 0.000000
# 6 0.000000 0.000000 0.000000 0.000000 0.000000 0.074818
#
#
# Mechanical properties :
#
#
# Convention : Reuss Voigt Hill
#
# Bulk Modulus (GPa) = 32.21179 40.89692 36.55435
# Shear Modulus (GPa) = 20.25485 23.93192 22.09339
#
# Velocity S-wave (km/s) = 3.44677 3.74659 3.59980
# Velocity P-wave (km/s) = 5.89353 6.53479 6.22243
#
# Compressibility (1/GPa) = 0.03104453
#
# Stress axis : x y z
#
# Youngs Moduli (GPa) = 63.27554 48.96496 82.52917
#
# Poissons Ratio (x) = -0.15559 0.40114
# Poissons Ratio (y) = -0.20107 0.57494
# Poissons Ratio (z) = 0.30756 0.34112
#
# Static dielectric constant tensor:
#      x y z
#    x 1.625210 0.000000 0.000000 
#    y 0.000000 1.568570 0.000000 
#    z 0.000000 0.000000 1.572230 
# 
# From -- ./inp_files/45084.got.cif
#   From: 2010.05.17/outbox.cif.g08.bks.cpg/sg69_23_cif.got.tgz:45084.got - 2010.06.03 19:29:58.
