data_PCOD9511453
_publ_section_title
;
Structure prediction by ZEFSAII (Michael W. Deem and Ramdas Pophale) SiO2 
 PCOD9511453
Probable space group: F M M M
;
_chemical_formula_sum "Si O2"
_cell_formula_units_Z 192
_cell_length_a 19.146985
_cell_length_b 21.063810
_cell_length_c 28.521210
_cell_angle_alpha 90.000000
_cell_angle_beta 90.000000
_cell_angle_gamma 90.000000
_cell_volume 11502.845115
_symmetry_space_group_name_H-M "F M M M"
_symmetry_group_IT_number 69
_symmetry_cell_setting 'orthorhombic'
loop_
_space_group_symop_operation_xyz
x,y,z
-x,-y,z
x,-y,-z
-x,y,-z
-x,-y,-z
x,y,-z
-x,y,z
x,-y,z
x,1/2+y,1/2+z
-x,1/2-y,1/2+z
x,1/2-y,1/2-z
-x,1/2+y,1/2-z
-x,1/2-y,1/2-z
x,1/2+y,1/2-z
-x,1/2+y,1/2+z
x,1/2-y,1/2+z
1/2+x,y,1/2+z
1/2-x,-y,1/2+z
1/2+x,-y,1/2-z
1/2-x,y,1/2-z
1/2-x,-y,1/2-z
1/2+x,y,1/2-z
1/2-x,y,1/2+z
1/2+x,-y,1/2+z
1/2+x,1/2+y,z
1/2-x,1/2-y,z
1/2+x,1/2-y,-z
1/2-x,1/2+y,-z
1/2-x,1/2-y,-z
1/2+x,1/2+y,-z
1/2-x,1/2+y,z
1/2+x,1/2-y,z
loop_
_atom_site_type_symbol
_atom_site_label
_atom_site_fract_x
_atom_site_fract_y
_atom_site_fract_z
Si Si1 0.577181 0.430485 0.245377
Si Si2 0.168051 0.229522 0.643554
Si Si3 0.790173 0.925168 0.888513
Si Si4 0.211399 0.681009 0.947435
Si Si5 0.418510 0.857692 0.650398
Si Si6 0.296880 0.117329 0.203683
O O1 0.500000 0.422653 0.266594
O O2 0.579162 0.500000 0.222159
O O3 0.586216 0.379711 0.204406
O O4 0.639625 0.427230 0.281687
O O5 0.250000 0.250000 0.643678
O O6 0.156438 0.192936 0.594416
O O7 0.118482 0.289582 0.646426
O O8 0.165853 0.181696 0.686701
O O9 0.759550 0.876247 0.927397
O O10 0.870394 0.905716 0.879266
O O11 0.749323 0.908442 0.839651
O O12 0.782195 0.000000 0.898814
O O13 0.250000 0.750000 0.950606
O O14 0.186674 0.666373 0.000000
O O15 0.500000 0.857073 0.637188
O O16 0.250000 0.126448 0.250000
#
# Coordination Sequence:
#
# PCOD9511453 Si02
#       6
#    32  32  32  32  32  32
#     4  10  21  34  46  67 104 149 186 219 268 319
#     4  10  18  35  52  76 100 133 177 221 269 317
#     4  11  21  34  54  82 109 142 185 222 263 318
#     4   9  17  34  59  79 100 133 175 222 269 313
#     4  11  21  34  50  75 111 146 182 218 260 321
#     4  11  20  32  53  74 104 138 184 231 271 313
#
# _framework density 16.691521999999999
#
# number of rings (size 3 to 8) (size 9 to 14) (size 15 to 20)
#    0.000    1.667    6.667    1.000    0.000    5.000 
#    0.000    1.667    0.000    2.000    0.000    1.167 
#    0.000    0.000    0.000   17.667    0.000    0.000 
#
# Total GULP energy -267236.748956 kJ/mol
# GULP energy per Si atom -5567.432270 kJ/mol
# Density = 1.665353 g / cm^3
# Si number density = 16.691522 Si / 1000 Ang^3
#
#
#
# Elastic Constant Matrix: (Units=GPa)
#
#
# Indices 1 2 3 4 5 6 
#
# 1 86.9335 39.4713 32.1487 0.0000 0.0000 0.0000
# 2 39.4713 114.9756 38.7051 0.0000 0.0000 0.0000
# 3 32.1487 38.7051 80.6892 0.0000 0.0000 0.0000
# 4 0.0000 0.0000 0.0000 6.7926 0.0000 0.0000
# 5 0.0000 0.0000 0.0000 0.0000 9.4123 0.0000
# 6 0.0000 0.0000 0.0000 0.0000 0.0000 22.4688
#
#
#
# Elastic Compliance Matrix: (Units=1/GPa)
#
#
# Indices 1 2 3 4 5 6 
#
# 1 0.014679 -0.003662 -0.004092 0.000000 0.000000 0.000000
# 2 -0.003662 0.011286 -0.003955 0.000000 0.000000 0.000000
# 3 -0.004092 -0.003955 0.015921 0.000000 0.000000 0.000000
# 4 0.000000 0.000000 0.000000 0.147218 0.000000 0.000000
# 5 0.000000 0.000000 0.000000 0.000000 0.106244 0.000000
# 6 0.000000 0.000000 0.000000 0.000000 0.000000 0.044506
#
#
# Mechanical properties :
#
#
# Convention : Reuss Voigt Hill
#
# Bulk Modulus (GPa) = 54.14631 55.91652 55.03141
# Shear Modulus (GPa) = 13.53449 19.21962 16.37705
#
# Velocity S-wave (km/s) = 2.85065 3.39700 3.13575
# Velocity P-wave (km/s) = 6.58367 6.99706 6.79351
#
# Compressibility (1/GPa) = 0.01846848
#
# Stress axis : x y z
#
# Youngs Moduli (GPa) = 68.12502 88.60627 62.81187
#
# Poissons Ratio (x) = 0.32446 0.25702
# Poissons Ratio (y) = 0.24946 0.24840
# Poissons Ratio (z) = 0.27877 0.35041
#
# Static dielectric constant tensor:
#      x y z
#    x 1.572580 0.000000 0.000000 
#    y 0.000000 1.632070 0.000000 
#    z 0.000000 0.000000 1.582390 
# 
# From -- ./inp_files/42793.got.cif
#   From: 2010.05.17/outbox.cif.g08.bks.cpg/sg69_22_cif.got.tgz:42793.got - 2010.06.03 19:29:58.
