data_PCOD9511625
_publ_section_title
;
Structure prediction by ZEFSAII (Michael W. Deem and Ramdas Pophale) SiO2 
 PCOD9511625
Probable space group: F M M M
;
_chemical_formula_sum "Si O2"
_cell_formula_units_Z 176
_cell_length_a 23.099613
_cell_length_b 33.045638
_cell_length_c 14.608841
_cell_angle_alpha 90.000000
_cell_angle_beta 90.000000
_cell_angle_gamma 90.000000
_cell_volume 11151.533859
_symmetry_space_group_name_H-M "F M M M"
_symmetry_group_IT_number 69
_symmetry_cell_setting 'orthorhombic'
loop_
_space_group_symop_operation_xyz
x,y,z
-x,-y,z
x,-y,-z
-x,y,-z
-x,-y,-z
x,y,-z
-x,y,z
x,-y,z
x,1/2+y,1/2+z
-x,1/2-y,1/2+z
x,1/2-y,1/2-z
-x,1/2+y,1/2-z
-x,1/2-y,1/2-z
x,1/2+y,1/2-z
-x,1/2+y,1/2+z
x,1/2-y,1/2+z
1/2+x,y,1/2+z
1/2-x,-y,1/2+z
1/2+x,-y,1/2-z
1/2-x,y,1/2-z
1/2-x,-y,1/2-z
1/2+x,y,1/2-z
1/2-x,y,1/2+z
1/2+x,-y,1/2+z
1/2+x,1/2+y,z
1/2-x,1/2-y,z
1/2+x,1/2-y,-z
1/2-x,1/2+y,-z
1/2-x,1/2-y,-z
1/2+x,1/2+y,-z
1/2-x,1/2+y,z
1/2+x,1/2-y,z
loop_
_atom_site_type_symbol
_atom_site_label
_atom_site_fract_x
_atom_site_fract_y
_atom_site_fract_z
Si Si1 0.934848 0.261070 0.894398
Si Si2 0.429659 0.500000 0.605644
Si Si3 0.137014 0.320470 0.398323
Si Si4 0.622661 0.665290 0.699287
Si Si5 0.232715 0.704547 0.105918
Si Si6 0.932583 0.088495 0.610580
O O1 0.888855 0.224926 0.886590
O O2 0.920004 0.298257 0.829456
O O3 0.000000 0.245845 0.877673
O O4 0.932482 0.275568 0.000000
O O5 0.500000 0.500000 0.603729
O O6 0.409838 0.500000 0.500000
O O7 0.413406 0.543831 0.644925
O O8 0.118442 0.334242 0.500000
O O9 0.118218 0.343105 0.307103
O O10 0.206444 0.318566 0.396395
O O11 0.685130 0.683150 0.668678
O O12 0.606060 0.625052 0.645523
O O13 0.250000 0.750000 0.135260
O O14 0.210828 0.707262 0.000000
O O15 0.931252 0.087508 0.500000
O O16 0.000000 0.095190 0.636789
#
# Coordination Sequence:
#
# PCOD9511625 Si02
#       6
#    32  16  32  32  32  32
#     4  10  20  32  44  61  87 117 151 192 235 275
#     4   7  12  26  46  68 100 131 141 161 225 297
#     4  10  22  35  43  57  86 125 161 195 230 266
#     4  12  20  28  48  70  88 116 158 195 230 268
#     4  10  19  32  48  65  88 117 154 197 238 274
#     4   9  17  29  47  74 103 124 145 180 230 286
#
# _framework density 15.782582
#
# number of rings (size 3 to 8) (size 9 to 14) (size 15 to 20)
#    0.000    2.091    1.818    4.364    0.000    4.364 
#    0.000    0.000    0.000    0.000    0.000    3.182 
#    0.000    5.091    0.000    0.000    0.000    0.000 
#
# Total GULP energy -245248.046601 kJ/mol
# GULP energy per Si atom -5573.819241 kJ/mol
# Density = 1.574666 g / cm^3
# Si number density = 15.782582 Si / 1000 Ang^3
#
#
#
# Elastic Constant Matrix: (Units=GPa)
#
#
# Indices 1 2 3 4 5 6 
#
# 1 62.3282 27.7975 15.3391 0.0000 0.0000 0.0000
# 2 27.7975 66.0667 23.6160 0.0000 0.0000 0.0000
# 3 15.3391 23.6160 74.2390 0.0000 0.0000 0.0000
# 4 0.0000 0.0000 0.0000 4.8306 0.0000 0.0000
# 5 0.0000 0.0000 0.0000 0.0000 2.4138 0.0000
# 6 0.0000 0.0000 0.0000 0.0000 0.0000 13.1290
#
#
#
# Elastic Compliance Matrix: (Units=1/GPa)
#
#
# Indices 1 2 3 4 5 6 
#
# 1 0.019925 -0.007799 -0.001636 0.000000 0.000000 0.000000
# 2 -0.007799 0.020131 -0.004792 0.000000 0.000000 0.000000
# 3 -0.001636 -0.004792 0.015333 0.000000 0.000000 0.000000
# 4 0.000000 0.000000 0.000000 0.207014 0.000000 0.000000
# 5 0.000000 0.000000 0.000000 0.000000 0.414286 0.000000
# 6 0.000000 0.000000 0.000000 0.000000 0.000000 0.076167
#
#
# Mechanical properties :
#
#
# Convention : Reuss Voigt Hill
#
# Bulk Modulus (GPa) = 37.12783 37.34878 37.23830
# Shear Modulus (GPa) = 6.32682 13.13343 9.73012
#
# Velocity S-wave (km/s) = 2.00435 2.88783 2.48566
# Velocity P-wave (km/s) = 5.37887 5.90214 5.64657
#
# Compressibility (1/GPa) = 0.02693398
#
# Stress axis : x y z
#
# Youngs Moduli (GPa) = 50.18876 49.67583 65.22079
#
# Poissons Ratio (x) = 0.38740 0.10670
# Poissons Ratio (y) = 0.39140 0.31256
# Poissons Ratio (z) = 0.08211 0.23806
#
# Static dielectric constant tensor:
#      x y z
#    x 1.543980 0.000000 0.000000 
#    y 0.000000 1.507070 0.000000 
#    z 0.000000 0.000000 1.577270 
# 
# From -- ./inp_files/18231.got.cif
#   From: 2010.05.17/outbox.cif.g08.bks.cpg/sg69_10_cif.got.tgz:18231.got - 2010.06.03 19:29:58.
