data_PCOD9511762
_publ_section_title
;
Structure prediction by ZEFSAII (Michael W. Deem and Ramdas Pophale) SiO2 
 PCOD9511762
Probable space group: F M M M
;
_chemical_formula_sum "Si O2"
_cell_formula_units_Z 112
_cell_length_a 7.864718
_cell_length_b 26.695969
_cell_length_c 27.689897
_cell_angle_alpha 90.000000
_cell_angle_beta 90.000000
_cell_angle_gamma 90.000000
_cell_volume 5813.667433
_symmetry_space_group_name_H-M "F M M M"
_symmetry_group_IT_number 69
_symmetry_cell_setting 'orthorhombic'
loop_
_space_group_symop_operation_xyz
x,y,z
-x,-y,z
x,-y,-z
-x,y,-z
-x,-y,-z
x,y,-z
-x,y,z
x,-y,z
x,1/2+y,1/2+z
-x,1/2-y,1/2+z
x,1/2-y,1/2-z
-x,1/2+y,1/2-z
-x,1/2-y,1/2-z
x,1/2+y,1/2-z
-x,1/2+y,1/2+z
x,1/2-y,1/2+z
1/2+x,y,1/2+z
1/2-x,-y,1/2+z
1/2+x,-y,1/2-z
1/2-x,y,1/2-z
1/2-x,-y,1/2-z
1/2+x,y,1/2-z
1/2-x,y,1/2+z
1/2+x,-y,1/2+z
1/2+x,1/2+y,z
1/2-x,1/2-y,z
1/2+x,1/2-y,-z
1/2-x,1/2+y,-z
1/2-x,1/2-y,-z
1/2+x,1/2+y,-z
1/2-x,1/2+y,z
1/2+x,1/2-y,z
loop_
_atom_site_type_symbol
_atom_site_label
_atom_site_fract_x
_atom_site_fract_y
_atom_site_fract_z
Si Si1 0.500000 0.559913 0.555609
Si Si2 0.204174 0.691772 0.107096
Si Si3 0.203184 0.500000 0.194007
Si Si4 0.192560 0.089290 0.874829
Si Si5 0.703629 0.692001 0.500000
O O1 0.500000 0.500000 0.555160
O O2 0.500000 0.577586 0.500000
O O3 0.665590 0.577214 0.584829
O O4 0.250000 0.750000 0.116254
O O5 0.278580 0.647470 0.139825
O O6 0.000000 0.688906 0.107935
O O7 0.266666 0.676314 0.052793
O O8 0.250000 0.500000 0.250000
O O9 0.274852 0.549366 0.167538
O O10 0.000000 0.500000 0.187759
O O11 0.000000 0.082714 0.892261
O O12 0.500000 0.687024 0.500000
O O13 0.750000 0.750000 0.500000
#
# Coordination Sequence:
#
# PCOD9511762 Si02
#       5
#    16  32  16  32  16
#     4  11  24  42  62  88 132 173 209 262 314 375
#     4  10  19  33  52  81 121 165 207 255 304 359
#     4  12  24  46  72  98 123 153 202 270 326 377
#     4  12  23  40  63  92 127 165 215 259 310 379
#     4   8  16  28  46  69 106 153 204 248 286 335
#
# _framework density 19.264948
#
# number of rings (size 3 to 8) (size 9 to 14) (size 15 to 20)
#    0.000    1.286    4.286    2.143    2.000    1.714 
#    0.000    1.429    0.000    0.857    0.000    6.000 
#    0.000    0.000    0.000    0.000    0.000    0.000 
#
# Total GULP energy -156200.203586 kJ/mol
# GULP energy per Si atom -5578.578699 kJ/mol
# Density = 1.922110 g / cm^3
# Si number density = 19.264948 Si / 1000 Ang^3
#
#
#
# Elastic Constant Matrix: (Units=GPa)
#
#
# Indices 1 2 3 4 5 6 
#
# 1 147.6963 39.2582 36.7310 0.0000 0.0000 0.0000
# 2 39.2582 181.0675 60.2204 0.0000 0.0000 0.0000
# 3 36.7310 60.2204 89.3514 0.0000 0.0000 0.0000
# 4 0.0000 0.0000 0.0000 9.9674 0.0000 0.0000
# 5 0.0000 0.0000 0.0000 0.0000 16.9346 0.0000
# 6 0.0000 0.0000 0.0000 0.0000 0.0000 30.2729
#
#
#
# Elastic Compliance Matrix: (Units=1/GPa)
#
#
# Indices 1 2 3 4 5 6 
#
# 1 0.007628 -0.000787 -0.002605 0.000000 0.000000 0.000000
# 2 -0.000787 0.007200 -0.004529 0.000000 0.000000 0.000000
# 3 -0.002605 -0.004529 0.015315 0.000000 0.000000 0.000000
# 4 0.000000 0.000000 0.000000 0.100327 0.000000 0.000000
# 5 0.000000 0.000000 0.000000 0.000000 0.059051 0.000000
# 6 0.000000 0.000000 0.000000 0.000000 0.000000 0.033033
#
#
# Mechanical properties :
#
#
# Convention : Reuss Voigt Hill
#
# Bulk Modulus (GPa) = 69.92938 76.72605 73.32771
# Shear Modulus (GPa) = 20.56246 30.22869 25.39558
#
# Velocity S-wave (km/s) = 3.27058 3.96549 3.63468
# Velocity P-wave (km/s) = 7.11616 7.80256 7.46726
#
# Compressibility (1/GPa) = 0.01430014
#
# Stress axis : x y z
#
# Youngs Moduli (GPa) = 131.09950 138.89446 65.29615
#
# Poissons Ratio (x) = 0.10937 0.17009
# Poissons Ratio (y) = 0.10323 0.29571
# Poissons Ratio (z) = 0.34151 0.62901
#
# Static dielectric constant tensor:
#      x y z
#    x 1.659290 0.000000 0.000000 
#    y 0.000000 1.727570 0.000000 
#    z 0.000000 0.000000 1.688180 
# 
# From -- ./inp_files/3809.got.cif
#   From: 2010.05.17/outbox.cif.g08.bks.cpg/sg69_2_cif.got.tgz:3809.got - 2010.06.03 19:29:58.
