data_PCOD9511539
_publ_section_title
;
Structure prediction by ZEFSAII (Michael W. Deem and Ramdas Pophale) SiO2 
 PCOD9511539
Probable space group: F M M M
;
_chemical_formula_sum "Si O2"
_cell_formula_units_Z 192
_cell_length_a 31.205891
_cell_length_b 14.224154
_cell_length_c 21.864377
_cell_angle_alpha 90.000000
_cell_angle_beta 90.000000
_cell_angle_gamma 90.000000
_cell_volume 9705.102800
_symmetry_space_group_name_H-M "F M M M"
_symmetry_group_IT_number 69
_symmetry_cell_setting 'orthorhombic'
loop_
_space_group_symop_operation_xyz
x,y,z
-x,-y,z
x,-y,-z
-x,y,-z
-x,-y,-z
x,y,-z
-x,y,z
x,-y,z
x,1/2+y,1/2+z
-x,1/2-y,1/2+z
x,1/2-y,1/2-z
-x,1/2+y,1/2-z
-x,1/2-y,1/2-z
x,1/2+y,1/2-z
-x,1/2+y,1/2+z
x,1/2-y,1/2+z
1/2+x,y,1/2+z
1/2-x,-y,1/2+z
1/2+x,-y,1/2-z
1/2-x,y,1/2-z
1/2-x,-y,1/2-z
1/2+x,y,1/2-z
1/2-x,y,1/2+z
1/2+x,-y,1/2+z
1/2+x,1/2+y,z
1/2-x,1/2-y,z
1/2+x,1/2-y,-z
1/2-x,1/2+y,-z
1/2-x,1/2-y,-z
1/2+x,1/2+y,-z
1/2-x,1/2+y,z
1/2+x,1/2-y,z
loop_
_atom_site_type_symbol
_atom_site_label
_atom_site_fract_x
_atom_site_fract_y
_atom_site_fract_z
Si Si1 0.638746 0.613829 0.230907
Si Si2 0.730857 0.645018 0.187833
Si Si3 0.545853 0.387988 0.228262
Si Si4 0.454007 0.112167 0.876139
Si Si5 0.771120 0.852672 0.432777
Si Si6 0.360318 0.614479 0.625030
O O1 0.637848 0.500000 0.228252
O O2 0.679922 0.646809 0.194080
O O3 0.592194 0.649202 0.208020
O O4 0.644471 0.637990 0.302738
O O5 0.750000 0.601515 0.250000
O O6 0.750000 0.750000 0.187240
O O7 0.747289 0.601238 0.124977
O O8 0.500000 0.348068 0.206286
O O9 0.545258 0.500000 0.215198
O O10 0.546402 0.379688 0.302065
O O11 0.500000 0.150628 0.898244
O O12 0.407470 0.146969 0.896876
O O13 0.454393 0.000000 0.888807
O O14 0.767322 0.895701 0.500000
O O15 0.750000 0.750000 0.437123
O O16 0.820785 0.847271 0.413384
O O17 0.359041 0.500000 0.621397
#
# Coordination Sequence:
#
# PCOD9511539 Si02
#       6
#    32  32  32  32  32  32
#     4   9  16  25  42  69  94 116 145 181 217 257
#     4  10  19  31  46  64  85 114 152 185 221 259
#     4   7  10  18  33  57  90 119 139 165 208 259
#     4   7  10  18  34  58  88 118 143 168 203 247
#     4  10  21  35  47  60  83 116 154 189 224 265
#     4   9  16  26  43  67  92 118 148 181 215 252
#
# _framework density 19.783407
#
# number of rings (size 3 to 8) (size 9 to 14) (size 15 to 20)
#    0.000    3.333    1.667    3.000    0.000    1.333 
#    0.000    0.000    0.000    0.500    0.000    9.333 
#    0.000    2.000    0.000    4.167    0.000    0.667 
#
# Total GULP energy -267371.274354 kJ/mol
# GULP energy per Si atom -5570.234882 kJ/mol
# Density = 1.973838 g / cm^3
# Si number density = 19.783407 Si / 1000 Ang^3
#
#
#
# Elastic Constant Matrix: (Units=GPa)
#
#
# Indices 1 2 3 4 5 6 
#
# 1 241.9512 30.8309 57.0051 0.0000 0.0000 0.0000
# 2 30.8309 57.0533 10.7170 0.0000 0.0000 0.0000
# 3 57.0051 10.7170 101.8896 0.0000 0.0000 0.0000
# 4 0.0000 0.0000 0.0000 -83.1597 0.0000 0.0000
# 5 0.0000 0.0000 0.0000 0.0000 -0.1916 0.0000
# 6 0.0000 0.0000 0.0000 0.0000 0.0000 27.3733
#
#
#
# Elastic Compliance Matrix: (Units=1/GPa)
#
#
# Indices 1 2 3 4 5 6 
#
# 1 0.005024 -0.002231 -0.002576 0.000000 0.000000 0.000000
# 2 -0.002231 0.018872 -0.000737 0.000000 0.000000 0.000000
# 3 -0.002576 -0.000737 0.011333 0.000000 0.000000 0.000000
# 4 0.000000 0.000000 0.000000 -0.012025 0.000000 0.000000
# 5 0.000000 0.000000 0.000000 0.000000 -5.220511 0.000000
# 6 0.000000 0.000000 0.000000 0.000000 0.000000 0.036532
#
#
# Mechanical properties :
#
#
# Convention : Reuss Voigt Hill
#
# Bulk Modulus (GPa) = 41.42332 66.44446 53.93389
# Shear Modulus (GPa) = -0.97245 8.96048 3.99401
#
# Velocity S-wave (km/s) = -0.70187 2.13052 1.42241
# Velocity P-wave (km/s) = 4.50855 6.30167 5.47896
#
# Compressibility (1/GPa) = 0.02414099
#
# Stress axis : x y z
#
# Youngs Moduli (GPa) = 199.02961 52.98982 88.23443
#
# Poissons Ratio (x) = 0.11823 0.22732
# Poissons Ratio (y) = 0.44407 0.06500
# Poissons Ratio (z) = 0.51277 0.03904
#
# Static dielectric constant tensor:
#      x y z
#    x 1.769260 0.000000 0.000000 
#    y 0.000000 1.668140 0.000000 
#    z 0.000000 0.000000 1.698150 
# 
# From -- ./inp_files/38568.got.cif
#   From: 2010.05.17/outbox.cif.g08.bks.cpg/sg69_20_cif.got.tgz:38568.got - 2010.06.03 19:29:58.
