data_PCOD9511937
_publ_section_title
;
Structure prediction by ZEFSAII (Michael W. Deem and Ramdas Pophale) SiO2 
 PCOD9511937
Probable space group: F M M M
;
_chemical_formula_sum "Si O2"
_cell_formula_units_Z 192
_cell_length_a 32.926906
_cell_length_b 16.883546
_cell_length_c 16.690844
_cell_angle_alpha 90.000000
_cell_angle_beta 90.000000
_cell_angle_gamma 90.000000
_cell_volume 9278.822936
_symmetry_space_group_name_H-M "F M M M"
_symmetry_group_IT_number 69
_symmetry_cell_setting 'orthorhombic'
loop_
_space_group_symop_operation_xyz
x,y,z
-x,-y,z
x,-y,-z
-x,y,-z
-x,-y,-z
x,y,-z
-x,y,z
x,-y,z
x,1/2+y,1/2+z
-x,1/2-y,1/2+z
x,1/2-y,1/2-z
-x,1/2+y,1/2-z
-x,1/2-y,1/2-z
x,1/2+y,1/2-z
-x,1/2+y,1/2+z
x,1/2-y,1/2+z
1/2+x,y,1/2+z
1/2-x,-y,1/2+z
1/2+x,-y,1/2-z
1/2-x,y,1/2-z
1/2-x,-y,1/2-z
1/2+x,y,1/2-z
1/2-x,y,1/2+z
1/2+x,-y,1/2+z
1/2+x,1/2+y,z
1/2-x,1/2-y,z
1/2+x,1/2-y,-z
1/2-x,1/2+y,-z
1/2-x,1/2-y,-z
1/2+x,1/2+y,-z
1/2-x,1/2+y,z
1/2+x,1/2-y,z
loop_
_atom_site_type_symbol
_atom_site_label
_atom_site_fract_x
_atom_site_fract_y
_atom_site_fract_z
Si Si1 0.452178 0.656444 0.000000
Si Si2 0.664577 0.088473 0.913751
Si Si3 0.089349 0.349956 0.834999
Si Si4 0.097477 0.840231 0.158860
Si Si5 0.764591 0.339069 0.151551
Si Si6 0.687057 0.406982 0.192220
Si Si7 0.454070 0.349635 0.500000
O O1 0.427270 0.632303 0.919739
O O2 0.452414 0.752979 0.000000
O O3 0.500000 0.632063 0.000000
O O4 0.631772 0.105463 0.846606
O O5 0.700546 0.150523 0.913011
O O6 0.709302 0.131391 0.770561
O O7 0.681415 0.000000 0.904517
O O8 0.097407 0.255672 0.842378
O O9 0.076054 0.364207 0.743370
O O10 0.063785 0.373662 0.913156
O O11 0.144479 0.868520 0.165135
O O12 0.750000 0.250000 0.160161
O O13 0.724893 0.391005 0.132565
O O14 0.856657 0.406887 0.000000
O O15 0.681232 0.500000 0.204166
O O16 0.500000 0.376398 0.500000
#
# Coordination Sequence:
#
# PCOD9511937 Si02
#       7
#    16  32  32  32  32  32  16
#     4   9  20  40  61  90 127 158 203 263 320 375
#     4  11  22  37  58  84 121 166 209 256 314 373
#     4  10  19  34  58  88 120 160 208 252 309 376
#     4  10  21  35  61  89 117 164 208 255 308 375
#     4  11  22  36  57  85 121 163 204 256 303 366
#     4  11  21  35  57  84 117 158 206 258 307 355
#     4   9  18  34  57  90 125 152 191 259 320 371
#
# _framework density 20.69228
#
# number of rings (size 3 to 8) (size 9 to 14) (size 15 to 20)
#    0.000    1.667    2.500    4.000    2.333    1.000 
#    1.500    3.750    0.000    2.000    0.000    2.333 
#    0.000    0.000    0.000    0.000    0.000    0.000 
#
# Total GULP energy -267322.768243 kJ/mol
# GULP energy per Si atom -5569.224338 kJ/mol
# Density = 2.064518 g / cm^3
# Si number density = 20.692280 Si / 1000 Ang^3
#
#
#
# Elastic Constant Matrix: (Units=GPa)
#
#
# Indices 1 2 3 4 5 6 
#
# 1 145.9155 23.8368 79.7635 0.0000 0.0000 0.0000
# 2 23.8368 48.4852 30.6900 0.0000 0.0000 0.0000
# 3 79.7635 30.6900 148.1386 0.0000 0.0000 0.0000
# 4 0.0000 0.0000 0.0000 6.6040 0.0000 0.0000
# 5 0.0000 0.0000 0.0000 0.0000 32.9857 0.0000
# 6 0.0000 0.0000 0.0000 0.0000 0.0000 2.6854
#
#
#
# Elastic Compliance Matrix: (Units=1/GPa)
#
#
# Indices 1 2 3 4 5 6 
#
# 1 0.009833 -0.001707 -0.004941 0.000000 0.000000 0.000000
# 2 -0.001707 0.024034 -0.004060 0.000000 0.000000 0.000000
# 3 -0.004941 -0.004060 0.010252 0.000000 0.000000 0.000000
# 4 0.000000 0.000000 0.000000 0.151424 0.000000 0.000000
# 5 0.000000 0.000000 0.000000 0.000000 0.030316 0.000000
# 6 0.000000 0.000000 0.000000 0.000000 0.000000 0.372380
#
#
# Mechanical properties :
#
#
# Convention : Reuss Voigt Hill
#
# Bulk Modulus (GPa) = 44.04643 67.90222 55.97433
# Shear Modulus (GPa) = 7.97166 22.33829 15.15497
#
# Velocity S-wave (km/s) = 1.96490 3.28921 2.70922
# Velocity P-wave (km/s) = 5.14591 6.87835 6.07421
#
# Compressibility (1/GPa) = 0.02270332
#
# Stress axis : x y z
#
# Youngs Moduli (GPa) = 101.69862 41.60783 97.54259
#
# Poissons Ratio (x) = 0.07101 0.48194
# Poissons Ratio (y) = 0.17357 0.39604
# Poissons Ratio (z) = 0.50248 0.16893
#
# Static dielectric constant tensor:
#      x y z
#    x 1.756790 0.000000 0.000000 
#    y 0.000000 1.722900 0.000000 
#    z 0.000000 0.000000 1.894620 
# 
# From -- ./inp_files/27767.got.cif
#   From: 2010.05.17/outbox.cif.g08.bks.cpg/sg69_14_cif.got.tgz:27767.got - 2010.06.03 19:29:58.
