data_PCOD9511387
_publ_section_title
;
Structure prediction by ZEFSAII (Michael W. Deem and Ramdas Pophale) SiO2 
 PCOD9511387
Probable space group: F M M M
;
_chemical_formula_sum "Si O2"
_cell_formula_units_Z 208
_cell_length_a 30.480847
_cell_length_b 17.464670
_cell_length_c 20.774889
_cell_angle_alpha 90.000000
_cell_angle_beta 90.000000
_cell_angle_gamma 90.000000
_cell_volume 11059.261493
_symmetry_space_group_name_H-M "F M M M"
_symmetry_group_IT_number 69
_symmetry_cell_setting 'orthorhombic'
loop_
_space_group_symop_operation_xyz
x,y,z
-x,-y,z
x,-y,-z
-x,y,-z
-x,-y,-z
x,y,-z
-x,y,z
x,-y,z
x,1/2+y,1/2+z
-x,1/2-y,1/2+z
x,1/2-y,1/2-z
-x,1/2+y,1/2-z
-x,1/2-y,1/2-z
x,1/2+y,1/2-z
-x,1/2+y,1/2+z
x,1/2-y,1/2+z
1/2+x,y,1/2+z
1/2-x,-y,1/2+z
1/2+x,-y,1/2-z
1/2-x,y,1/2-z
1/2-x,-y,1/2-z
1/2+x,y,1/2-z
1/2-x,y,1/2+z
1/2+x,-y,1/2+z
1/2+x,1/2+y,z
1/2-x,1/2-y,z
1/2+x,1/2-y,-z
1/2-x,1/2+y,-z
1/2-x,1/2-y,-z
1/2+x,1/2+y,-z
1/2-x,1/2+y,z
1/2+x,1/2-y,z
loop_
_atom_site_type_symbol
_atom_site_label
_atom_site_fract_x
_atom_site_fract_y
_atom_site_fract_z
Si Si1 0.815901 0.695157 0.313308
Si Si2 0.376270 0.257858 0.572757
Si Si3 0.391506 0.090195 0.739237
Si Si4 0.143695 0.086080 0.621332
Si Si5 0.552090 0.839509 0.360916
Si Si6 0.756631 0.915657 0.327371
Si Si7 0.553143 0.000000 0.427815
O O1 0.810036 0.750000 0.250000
O O2 0.841805 0.733443 0.371910
O O3 0.846636 0.624413 0.290267
O O4 0.772076 0.658416 0.342454
O O5 0.369386 0.228395 0.500000
O O6 0.370856 0.348873 0.573054
O O7 0.422161 0.226156 0.600941
O O8 0.386526 0.095388 0.815505
O O9 0.429036 0.145029 0.710420
O O10 0.397090 0.000000 0.723933
O O11 0.193669 0.094073 0.648401
O O12 0.139827 0.000000 0.596340
O O13 0.500000 0.829848 0.362095
O O14 0.565037 0.920403 0.394510
O O15 0.750000 0.918726 0.250000
O O16 0.741770 0.000000 0.351469
O O17 0.500000 0.000000 0.429082
O O18 0.570279 0.000000 0.500000
#
# Coordination Sequence:
#
# PCOD9511387 Si02
#       7
#    32  32  32  32  32  32  16
#     4  11  20  34  56  86 119 154 193 240 293 345
#     4  11  24  40  58  84 118 156 196 244 297 345
#     4  10  18  33  56  83 116 148 184 235 285 337
#     4  10  21  38  59  83 114 152 197 244 293 346
#     4  10  21  36  59  87 116 152 190 232 289 356
#     4  10  18  32  57  86 114 152 198 244 289 343
#     4   9  16  30  52  80 112 147 185 217 261 344
#
# _framework density 18.807766000000001
#
# number of rings (size 3 to 8) (size 9 to 14) (size 15 to 20)
#    0.000    1.769    3.846    0.923    0.000    3.385 
#    0.000    3.077    0.000    2.308    0.000    1.077 
#    0.000    0.000    0.000    0.000    0.000    0.000 
#
# Total GULP energy -289804.542175 kJ/mol
# GULP energy per Si atom -5573.164273 kJ/mol
# Density = 1.876496 g / cm^3
# Si number density = 18.807766 Si / 1000 Ang^3
#
#
#
# Elastic Constant Matrix: (Units=GPa)
#
#
# Indices 1 2 3 4 5 6 
#
# 1 80.5435 54.3074 36.0798 0.0000 0.0000 0.0000
# 2 54.3074 88.9317 33.0408 0.0000 0.0000 0.0000
# 3 36.0798 33.0408 70.0592 0.0000 0.0000 0.0000
# 4 0.0000 0.0000 0.0000 18.8825 0.0000 0.0000
# 5 0.0000 0.0000 0.0000 0.0000 6.1668 0.0000
# 6 0.0000 0.0000 0.0000 0.0000 0.0000 19.3919
#
#
#
# Elastic Compliance Matrix: (Units=1/GPa)
#
#
# Indices 1 2 3 4 5 6 
#
# 1 0.023254 -0.011823 -0.006400 0.000000 0.000000 0.000000
# 2 -0.011823 0.019644 -0.003176 0.000000 0.000000 0.000000
# 3 -0.006400 -0.003176 0.019067 0.000000 0.000000 0.000000
# 4 0.000000 0.000000 0.000000 0.052959 0.000000 0.000000
# 5 0.000000 0.000000 0.000000 0.000000 0.162158 0.000000
# 6 0.000000 0.000000 0.000000 0.000000 0.000000 0.051568
#
#
# Mechanical properties :
#
#
# Convention : Reuss Voigt Hill
#
# Bulk Modulus (GPa) = 52.16847 54.04339 53.10593
# Shear Modulus (GPa) = 13.23320 16.62867 14.93093
#
# Velocity S-wave (km/s) = 2.65543 2.97667 2.82063
# Velocity P-wave (km/s) = 6.09915 6.37268 6.23742
#
# Compressibility (1/GPa) = 0.01916867
#
# Stress axis : x y z
#
# Youngs Moduli (GPa) = 43.00313 50.90555 52.44579
#
# Poissons Ratio (x) = 0.60184 0.33565
# Poissons Ratio (y) = 0.50841 0.16656
# Poissons Ratio (z) = 0.27522 0.16167
#
# Static dielectric constant tensor:
#      x y z
#    x 1.669210 0.000000 0.000000 
#    y 0.000000 1.709570 0.000000 
#    z 0.000000 0.000000 1.661360 
# 
# From -- ./inp_files/33976.got.cif
#   From: 2010.05.17/outbox.cif.g08.bks.cpg/sg69_17_cif.got.tgz:33976.got - 2010.06.03 19:29:58.
