data_PCOD9511893
_publ_section_title
;
Structure prediction by ZEFSAII (Michael W. Deem and Ramdas Pophale) SiO2 
 PCOD9511893
Probable space group: F M M M
;
_chemical_formula_sum "Si O2"
_cell_formula_units_Z 120
_cell_length_a 28.883691
_cell_length_b 16.125768
_cell_length_c 15.515683
_cell_angle_alpha 90.000000
_cell_angle_beta 90.000000
_cell_angle_gamma 90.000000
_cell_volume 7226.766048
_symmetry_space_group_name_H-M "F M M M"
_symmetry_group_IT_number 69
_symmetry_cell_setting 'orthorhombic'
loop_
_space_group_symop_operation_xyz
x,y,z
-x,-y,z
x,-y,-z
-x,y,-z
-x,-y,-z
x,y,-z
-x,y,z
x,-y,z
x,1/2+y,1/2+z
-x,1/2-y,1/2+z
x,1/2-y,1/2-z
-x,1/2+y,1/2-z
-x,1/2-y,1/2-z
x,1/2+y,1/2-z
-x,1/2+y,1/2+z
x,1/2-y,1/2+z
1/2+x,y,1/2+z
1/2-x,-y,1/2+z
1/2+x,-y,1/2-z
1/2-x,y,1/2-z
1/2-x,-y,1/2-z
1/2+x,y,1/2-z
1/2-x,y,1/2+z
1/2+x,-y,1/2+z
1/2+x,1/2+y,z
1/2-x,1/2-y,z
1/2+x,1/2-y,-z
1/2-x,1/2+y,-z
1/2-x,1/2-y,-z
1/2+x,1/2+y,-z
1/2-x,1/2+y,z
1/2+x,1/2-y,z
loop_
_atom_site_type_symbol
_atom_site_label
_atom_site_fract_x
_atom_site_fract_y
_atom_site_fract_z
Si Si1 0.912976 0.000000 0.000000
Si Si2 0.946791 0.500000 0.690936
Si Si3 0.605214 0.170441 0.307513
Si Si4 0.208439 0.401487 0.315605
Si Si5 0.614466 0.820643 0.500000
Si Si6 0.282607 0.171976 0.500000
O O1 0.880583 0.920511 0.000000
O O2 0.942716 0.000000 0.086346
O O3 0.921528 0.585634 0.716891
O O4 0.000000 0.500000 0.717557
O O5 0.595164 0.250000 0.250000
O O6 0.659947 0.147016 0.302023
O O7 0.592517 0.194851 0.406875
O O8 0.199604 0.500000 0.306416
O O9 0.250000 0.378528 0.250000
O O10 0.223206 0.380719 0.413182
O O11 0.666082 0.788158 0.500000
O O12 0.250000 0.250000 0.500000
#
# Coordination Sequence:
#
# PCOD9511893 Si02
#       6
#     8  16  32  32  16  16
#     4   8  15  32  56  80  98 126 168 220 276 316
#     4  10  19  34  55  82 107 131 170 221 276 325
#     4  10  20  34  55  78 107 138 175 217 268 316
#     4  10  21  35  52  72 103 143 180 213 252 305
#     4   8  18  31  51  73 103 135 167 214 262 308
#     4  10  21  29  47  75 103 135 172 210 259 301
#
# _framework density 16.604938000000001
#
# number of rings (size 3 to 8) (size 9 to 14) (size 15 to 20)
#    0.000    2.400    1.333    0.600   13.067    0.533 
#    0.000    0.000    0.000    0.800    0.000    0.933 
#    0.000    0.000    0.000    0.000    0.000    0.000 
#
# Total GULP energy -167042.839818 kJ/mol
# GULP energy per Si atom -5568.094661 kJ/mol
# Density = 1.656714 g / cm^3
# Si number density = 16.604938 Si / 1000 Ang^3
#
#
#
# Elastic Constant Matrix: (Units=GPa)
#
#
# Indices 1 2 3 4 5 6 
#
# 1 79.5900 40.8824 28.9438 0.0000 0.0000 0.0000
# 2 40.8824 105.1888 58.8405 0.0000 0.0000 0.0000
# 3 28.9438 58.8405 100.4046 0.0000 0.0000 0.0000
# 4 0.0000 0.0000 0.0000 27.0421 0.0000 0.0000
# 5 0.0000 0.0000 0.0000 0.0000 9.7276 0.0000
# 6 0.0000 0.0000 0.0000 0.0000 0.0000 11.7175
#
#
#
# Elastic Compliance Matrix: (Units=1/GPa)
#
#
# Indices 1 2 3 4 5 6 
#
# 1 0.015834 -0.005357 -0.001425 0.000000 0.000000 0.000000
# 2 -0.005357 0.015955 -0.007806 0.000000 0.000000 0.000000
# 3 -0.001425 -0.007806 0.014945 0.000000 0.000000 0.000000
# 4 0.000000 0.000000 0.000000 0.036979 0.000000 0.000000
# 5 0.000000 0.000000 0.000000 0.000000 0.102800 0.000000
# 6 0.000000 0.000000 0.000000 0.000000 0.000000 0.085342
#
#
# Mechanical properties :
#
#
# Convention : Reuss Voigt Hill
#
# Bulk Modulus (GPa) = 56.95304 60.27965 58.61635
# Shear Modulus (GPa) = 16.29270 20.13189 18.21230
#
# Velocity S-wave (km/s) = 3.13580 3.48574 3.31539
# Velocity P-wave (km/s) = 6.89089 7.25131 7.07340
#
# Compressibility (1/GPa) = 0.01755832
#
# Stress axis : x y z
#
# Youngs Moduli (GPa) = 63.15392 62.67520 66.91100
#
# Poissons Ratio (x) = 0.33574 0.09537
# Poissons Ratio (y) = 0.33831 0.52231
# Poissons Ratio (z) = 0.09001 0.48925
#
# Static dielectric constant tensor:
#      x y z
#    x 1.577300 0.000000 0.000000 
#    y 0.000000 1.540930 0.000000 
#    z 0.000000 0.000000 1.598270 
# 
# From -- ./inp_files/14449.got.cif
#   From: 2010.05.17/outbox.cif.g08.bks.cpg/sg69_8_cif.got.tgz:14449.got - 2010.06.03 19:29:58.
