data_PCOD9511548
_publ_section_title
;
Structure prediction by ZEFSAII (Michael W. Deem and Ramdas Pophale) SiO2 
 PCOD9511548
Probable space group: F M M M
;
_chemical_formula_sum "Si O2"
_cell_formula_units_Z 208
_cell_length_a 17.387936
_cell_length_b 29.251363
_cell_length_c 25.783471
_cell_angle_alpha 90.000000
_cell_angle_beta 90.000000
_cell_angle_gamma 90.000000
_cell_volume 13114.010362
_symmetry_space_group_name_H-M "F M M M"
_symmetry_group_IT_number 69
_symmetry_cell_setting 'orthorhombic'
loop_
_space_group_symop_operation_xyz
x,y,z
-x,-y,z
x,-y,-z
-x,y,-z
-x,-y,-z
x,y,-z
-x,y,z
x,-y,z
x,1/2+y,1/2+z
-x,1/2-y,1/2+z
x,1/2-y,1/2-z
-x,1/2+y,1/2-z
-x,1/2-y,1/2-z
x,1/2+y,1/2-z
-x,1/2+y,1/2+z
x,1/2-y,1/2+z
1/2+x,y,1/2+z
1/2-x,-y,1/2+z
1/2+x,-y,1/2-z
1/2-x,y,1/2-z
1/2-x,-y,1/2-z
1/2+x,y,1/2-z
1/2-x,y,1/2+z
1/2+x,-y,1/2+z
1/2+x,1/2+y,z
1/2-x,1/2-y,z
1/2+x,1/2-y,-z
1/2-x,1/2+y,-z
1/2-x,1/2-y,-z
1/2+x,1/2+y,-z
1/2-x,1/2+y,z
1/2+x,1/2-y,z
loop_
_atom_site_type_symbol
_atom_site_label
_atom_site_fract_x
_atom_site_fract_y
_atom_site_fract_z
Si Si1 0.589540 0.652919 0.675567
Si Si2 0.755649 0.623569 0.127561
Si Si3 0.089221 0.259694 0.352045
Si Si4 0.668659 0.944906 0.560873
Si Si5 0.327066 0.330002 0.779369
Si Si6 0.806977 0.293237 0.559132
Si Si7 0.000000 0.947195 0.062846
O O1 0.500000 0.640013 0.668411
O O2 0.655392 0.625505 0.644629
O O3 0.598759 0.705659 0.656928
O O4 0.614116 0.651870 0.736069
O O5 0.730395 0.578280 0.097720
O O6 0.703202 0.633313 0.178447
O O7 0.734571 0.665303 0.088840
O O8 0.136679 0.287708 0.309608
O O9 0.120535 0.276834 0.407217
O O10 0.000000 0.270585 0.346039
O O11 0.680577 0.933613 0.500000
O O12 0.582979 0.927233 0.577093
O O13 0.668471 0.000000 0.564446
O O14 0.250000 0.314741 0.750000
O O15 0.825886 0.305665 0.500000
O O16 0.750000 0.250000 0.558854
O O17 0.000000 0.000000 0.080716
O O18 0.000000 0.948518 0.000000
#
# Coordination Sequence:
#
# PCOD9511548 Si02
#       7
#    32  32  32  32  32  32  16
#     4  10  19  32  48  67  95 131 171 212 245 278
#     4  10  19  32  50  74  97 128 166 195 242 299
#     4  10  19  31  47  69  93 127 171 208 242 283
#     4   9  17  32  55  79 102 126 156 197 240 290
#     4   9  19  30  48  70  98 126 163 205 251 288
#     4  10  19  32  47  65  97 135 162 196 237 287
#     4   7  12  26  48  74 100 122 143 176 232 290
#
# _framework density 15.860899
#
# number of rings (size 3 to 8) (size 9 to 14) (size 15 to 20)
#    0.000    2.538    1.538    2.308    0.000    3.385 
#    6.923    0.000    0.000    6.462    0.000    1.077 
#    0.000    0.000    0.000    0.000    0.000    0.000 
#
# Total GULP energy -289730.656329 kJ/mol
# GULP energy per Si atom -5571.743391 kJ/mol
# Density = 1.582480 g / cm^3
# Si number density = 15.860899 Si / 1000 Ang^3
#
#
#
# Elastic Constant Matrix: (Units=GPa)
#
#
# Indices 1 2 3 4 5 6 
#
# 1 115.5741 32.4169 52.6343 0.0000 0.0000 0.0000
# 2 32.4169 29.5863 24.2670 0.0000 0.0000 0.0000
# 3 52.6343 24.2670 100.7471 0.0000 0.0000 0.0000
# 4 0.0000 0.0000 0.0000 17.8230 0.0000 0.0000
# 5 0.0000 0.0000 0.0000 0.0000 16.9821 0.0000
# 6 0.0000 0.0000 0.0000 0.0000 0.0000 19.3505
#
#
#
# Elastic Compliance Matrix: (Units=1/GPa)
#
#
# Indices 1 2 3 4 5 6 
#
# 1 0.013954 -0.011602 -0.004496 0.000000 0.000000 0.000000
# 2 -0.011602 0.051767 -0.006408 0.000000 0.000000 0.000000
# 3 -0.004496 -0.006408 0.013818 0.000000 0.000000 0.000000
# 4 0.000000 0.000000 0.000000 0.056107 0.000000 0.000000
# 5 0.000000 0.000000 0.000000 0.000000 0.058886 0.000000
# 6 0.000000 0.000000 0.000000 0.000000 0.000000 0.051678
#
#
# Mechanical properties :
#
#
# Convention : Reuss Voigt Hill
#
# Bulk Modulus (GPa) = 28.96161 51.61600 40.28880
# Shear Modulus (GPa) = 16.51639 19.93708 18.22673
#
# Velocity S-wave (km/s) = 3.23046 3.54926 3.39361
# Velocity P-wave (km/s) = 5.67573 7.02922 6.38842
#
# Compressibility (1/GPa) = 0.03452847
#
# Stress axis : x y z
#
# Youngs Moduli (GPa) = 71.66455 19.31737 72.36920
#
# Poissons Ratio (x) = 0.22411 0.32534
# Poissons Ratio (y) = 0.83142 0.46374
# Poissons Ratio (z) = 0.32218 0.12379
#
# Static dielectric constant tensor:
#      x y z
#    x 1.542080 0.000000 0.000000 
#    y 0.000000 1.520620 0.000000 
#    z 0.000000 0.000000 1.541940 
# 
# From -- ./inp_files/42211.got.cif
#   From: 2010.05.17/outbox.cif.g08.bks.cpg/sg69_22_cif.got.tgz:42211.got - 2010.06.03 19:29:58.
