data_PCOD9511420
_publ_section_title
;
Structure prediction by ZEFSAII (Michael W. Deem and Ramdas Pophale) SiO2 
 PCOD9511420
Probable space group: F M M M
;
_chemical_formula_sum "Si O2"
_cell_formula_units_Z 112
_cell_length_a 10.971711
_cell_length_b 33.367460
_cell_length_c 14.232179
_cell_angle_alpha 90.000000
_cell_angle_beta 90.000000
_cell_angle_gamma 90.000000
_cell_volume 5210.374088
_symmetry_space_group_name_H-M "F M M M"
_symmetry_group_IT_number 69
_symmetry_cell_setting 'orthorhombic'
loop_
_space_group_symop_operation_xyz
x,y,z
-x,-y,z
x,-y,-z
-x,y,-z
-x,-y,-z
x,y,-z
-x,y,z
x,-y,z
x,1/2+y,1/2+z
-x,1/2-y,1/2+z
x,1/2-y,1/2-z
-x,1/2+y,1/2-z
-x,1/2-y,1/2-z
x,1/2+y,1/2-z
-x,1/2+y,1/2+z
x,1/2-y,1/2+z
1/2+x,y,1/2+z
1/2-x,-y,1/2+z
1/2+x,-y,1/2-z
1/2-x,y,1/2-z
1/2-x,-y,1/2-z
1/2+x,y,1/2-z
1/2-x,y,1/2+z
1/2+x,-y,1/2+z
1/2+x,1/2+y,z
1/2-x,1/2-y,z
1/2+x,1/2-y,-z
1/2-x,1/2+y,-z
1/2-x,1/2-y,-z
1/2+x,1/2+y,-z
1/2-x,1/2+y,z
1/2+x,1/2-y,z
loop_
_atom_site_type_symbol
_atom_site_label
_atom_site_fract_x
_atom_site_fract_y
_atom_site_fract_z
Si Si1 0.357571 0.500000 0.105244
Si Si2 0.758639 0.417420 0.386097
Si Si3 0.000000 0.452922 0.886433
Si Si4 0.139367 0.166464 0.184659
Si Si5 0.865997 0.221339 0.000000
O O1 0.500000 0.500000 0.095065
O O2 0.321639 0.541834 0.148569
O O3 0.298339 0.500000 0.000000
O O4 0.771482 0.414212 0.500000
O O5 0.618192 0.426538 0.362954
O O6 0.820934 0.378529 0.343488
O O7 0.000000 0.500000 0.851587
O O8 0.000000 0.456664 0.000000
O O9 0.250000 0.181454 0.250000
O O10 0.138814 0.193208 0.091245
O O11 0.000000 0.167103 0.223269
O O12 0.750000 0.250000 0.000000
O O13 0.000000 0.241962 0.000000
#
# Coordination Sequence:
#
# PCOD9511420 Si02
#       5
#    16  32  16  32  16
#     4   9  16  25  48  81 113 164 226 276 320 377
#     4  10  18  33  57  86 126 173 225 273 330 382
#     4   9  16  28  50  86 126 166 222 286 334 379
#     4  11  25  44  68 101 139 174 217 271 325 388
#     4  10  24  50  78 105 136 171 211 260 325 400
#
# _framework density 21.495578999999999
#
# number of rings (size 3 to 8) (size 9 to 14) (size 15 to 20)
#    0.000    2.000    2.857    0.857    2.000    2.857 
#    0.000    3.571    0.000    0.000    0.000    0.000 
#    0.000    0.000    0.000    0.000    0.000    0.000 
#
# Total GULP energy -156355.080353 kJ/mol
# GULP energy per Si atom -5584.110013 kJ/mol
# Density = 2.144665 g / cm^3
# Si number density = 21.495579 Si / 1000 Ang^3
#
#
#
# Elastic Constant Matrix: (Units=GPa)
#
#
# Indices 1 2 3 4 5 6 
#
# 1 201.3902 54.8877 38.3682 0.0000 0.0000 0.0000
# 2 54.8877 76.4926 5.3903 0.0000 0.0000 0.0000
# 3 38.3682 5.3903 83.9298 0.0000 0.0000 0.0000
# 4 0.0000 0.0000 0.0000 -22.5134 0.0000 0.0000
# 5 0.0000 0.0000 0.0000 0.0000 23.3238 0.0000
# 6 0.0000 0.0000 0.0000 0.0000 0.0000 38.3332
#
#
#
# Elastic Compliance Matrix: (Units=1/GPa)
#
#
# Indices 1 2 3 4 5 6 
#
# 1 0.006768 -0.004659 -0.002795 0.000000 0.000000 0.000000
# 2 -0.004659 0.016340 0.001081 0.000000 0.000000 0.000000
# 3 -0.002795 0.001081 0.013123 0.000000 0.000000 0.000000
# 4 0.000000 0.000000 0.000000 -0.044418 0.000000 0.000000
# 5 0.000000 0.000000 0.000000 0.000000 0.042875 0.000000
# 6 0.000000 0.000000 0.000000 0.000000 0.000000 0.026087
#
#
# Mechanical properties :
#
#
# Convention : Reuss Voigt Hill
#
# Bulk Modulus (GPa) = 42.58183 62.12278 52.35230
# Shear Modulus (GPa) = 61.46306 25.37313 43.41810
#
# Velocity S-wave (km/s) = 5.35308 3.43941 4.49916
# Velocity P-wave (km/s) = 7.61970 6.68847 7.16922
#
# Compressibility (1/GPa) = 0.02348420
#
# Stress axis : x y z
#
# Youngs Moduli (GPa) = 147.75904 61.19827 76.20278
#
# Poissons Ratio (x) = 0.28514 0.21296
# Poissons Ratio (y) = 0.68846 -0.08234
# Poissons Ratio (z) = 0.41293 -0.06613
#
# Static dielectric constant tensor:
#      x y z
#    x 1.827880 0.000000 0.000000 
#    y 0.000000 1.736500 0.000000 
#    z 0.000000 0.000000 1.877850 
# 
# From -- ./inp_files/13368.got.cif
#   From: 2010.05.17/outbox.cif.g08.bks.cpg/sg69_7_cif.got.tgz:13368.got - 2010.06.03 19:29:58.
