data_PCOD9511190
_publ_section_title
;
Structure prediction by ZEFSAII (Michael W. Deem and Ramdas Pophale) SiO2 
 PCOD9511190
Probable space group: F M M M
;
_chemical_formula_sum "Si O2"
_cell_formula_units_Z 176
_cell_length_a 19.929270
_cell_length_b 27.960663
_cell_length_c 18.118165
_cell_angle_alpha 90.000000
_cell_angle_beta 90.000000
_cell_angle_gamma 90.000000
_cell_volume 10096.086586
_symmetry_space_group_name_H-M "F M M M"
_symmetry_group_IT_number 69
_symmetry_cell_setting 'orthorhombic'
loop_
_space_group_symop_operation_xyz
x,y,z
-x,-y,z
x,-y,-z
-x,y,-z
-x,-y,-z
x,y,-z
-x,y,z
x,-y,z
x,1/2+y,1/2+z
-x,1/2-y,1/2+z
x,1/2-y,1/2-z
-x,1/2+y,1/2-z
-x,1/2-y,1/2-z
x,1/2+y,1/2-z
-x,1/2+y,1/2+z
x,1/2-y,1/2+z
1/2+x,y,1/2+z
1/2-x,-y,1/2+z
1/2+x,-y,1/2-z
1/2-x,y,1/2-z
1/2-x,-y,1/2-z
1/2+x,y,1/2-z
1/2-x,y,1/2+z
1/2+x,-y,1/2+z
1/2+x,1/2+y,z
1/2-x,1/2-y,z
1/2+x,1/2-y,-z
1/2-x,1/2+y,-z
1/2-x,1/2-y,-z
1/2+x,1/2+y,-z
1/2-x,1/2+y,z
1/2+x,1/2-y,z
loop_
_atom_site_type_symbol
_atom_site_label
_atom_site_fract_x
_atom_site_fract_y
_atom_site_fract_z
Si Si1 0.276666 0.392536 0.087252
Si Si2 0.000000 0.554318 0.911941
Si Si3 0.872874 0.388048 0.147034
Si Si4 0.579454 0.211536 0.088216
Si Si5 0.173552 0.446192 0.280434
Si Si6 0.809372 0.715041 0.589326
O O1 0.197641 0.397759 0.105665
O O2 0.318831 0.429824 0.135386
O O3 0.297875 0.339195 0.113295
O O4 0.286966 0.397187 0.000000
O O5 0.066181 0.582035 0.886885
O O6 0.000000 0.500000 0.883793
O O7 0.000000 0.553303 0.000000
O O8 0.891033 0.332715 0.134188
O O9 0.863687 0.407214 0.230150
O O10 0.500000 0.215901 0.099356
O O11 0.620513 0.259431 0.107011
O O12 0.590721 0.201623 0.000000
O O13 0.146204 0.500000 0.272229
O O14 0.250000 0.446977 0.250000
O O15 0.804452 0.713521 0.500000
O O16 0.750000 0.750000 0.615806
#
# Coordination Sequence:
#
# PCOD9511190 Si02
#       6
#    32  16  32  32  32  32
#     4  10  19  33  57  81 104 138 185 233 267 310
#     4  11  22  32  48  80 116 147 183 219 260 331
#     4  11  19  32  52  77 112 145 177 212 267 330
#     4  10  18  29  50  80 113 145 174 210 264 332
#     4   9  20  36  51  71 103 140 177 220 274 320
#     4   9  16  28  49  79 108 137 177 222 269 320
#
# _framework density 17.432497000000001
#
# number of rings (size 3 to 8) (size 9 to 14) (size 15 to 20)
#    0.000    2.091    2.727    2.182    0.000    1.091 
#    0.000    0.909    2.000    1.091    0.000    0.000 
#    0.000    2.182    0.000    0.000    0.000    0.000 
#
# Total GULP energy -245305.449392 kJ/mol
# GULP energy per Si atom -5575.123850 kJ/mol
# Density = 1.739282 g / cm^3
# Si number density = 17.432497 Si / 1000 Ang^3
#
#
#
# Elastic Constant Matrix: (Units=GPa)
#
#
# Indices 1 2 3 4 5 6 
#
# 1 71.0413 31.1732 28.8401 0.0000 0.0000 0.0000
# 2 31.1732 77.1080 31.5937 0.0000 0.0000 0.0000
# 3 28.8401 31.5937 70.2930 0.0000 0.0000 0.0000
# 4 0.0000 0.0000 0.0000 -14.5651 0.0000 0.0000
# 5 0.0000 0.0000 0.0000 0.0000 13.7770 0.0000
# 6 0.0000 0.0000 0.0000 0.0000 0.0000 20.5947
#
#
#
# Elastic Compliance Matrix: (Units=1/GPa)
#
#
# Indices 1 2 3 4 5 6 
#
# 1 0.018540 -0.005367 -0.005194 0.000000 0.000000 0.000000
# 2 -0.005367 0.017450 -0.005641 0.000000 0.000000 0.000000
# 3 -0.005194 -0.005641 0.018893 0.000000 0.000000 0.000000
# 4 0.000000 0.000000 0.000000 -0.068657 0.000000 0.000000
# 5 0.000000 0.000000 0.000000 0.000000 0.072585 0.000000
# 6 0.000000 0.000000 0.000000 0.000000 0.000000 0.048556
#
#
# Mechanical properties :
#
#
# Convention : Reuss Voigt Hill
#
# Bulk Modulus (GPa) = 44.48830 44.62848 44.55839
# Shear Modulus (GPa) = 33.95256 12.41699 23.18478
#
# Velocity S-wave (km/s) = 4.41802 2.67177 3.65084
# Velocity P-wave (km/s) = 7.18338 5.93078 6.58692
#
# Compressibility (1/GPa) = 0.02247782
#
# Stress axis : x y z
#
# Youngs Moduli (GPa) = 53.93691 57.30684 52.93039
#
# Poissons Ratio (x) = 0.30757 0.27494
# Poissons Ratio (y) = 0.28948 0.29858
# Poissons Ratio (z) = 0.28017 0.32327
#
# Static dielectric constant tensor:
#      x y z
#    x 1.574580 0.000000 0.000000 
#    y 0.000000 1.602020 0.000000 
#    z 0.000000 0.000000 1.592650 
# 
# From -- ./inp_files/23596.got.cif
#   From: 2010.05.17/outbox.cif.g08.bks.cpg/sg69_12_cif.got.tgz:23596.got - 2010.06.03 19:29:58.
