data_PCOD9511038
_publ_section_title
;
Structure prediction by ZEFSAII (Michael W. Deem and Ramdas Pophale) SiO2 
 PCOD9511038
Probable space group: F M M M
;
_chemical_formula_sum "Si O2"
_cell_formula_units_Z 160
_cell_length_a 27.291819
_cell_length_b 27.295704
_cell_length_c 15.058054
_cell_angle_alpha 90.000000
_cell_angle_beta 90.000000
_cell_angle_gamma 90.000000
_cell_volume 11217.488489
_symmetry_space_group_name_H-M "F M M M"
_symmetry_group_IT_number 69
_symmetry_cell_setting 'orthorhombic'
loop_
_space_group_symop_operation_xyz
x,y,z
-x,-y,z
x,-y,-z
-x,y,-z
-x,-y,-z
x,y,-z
-x,y,z
x,-y,z
x,1/2+y,1/2+z
-x,1/2-y,1/2+z
x,1/2-y,1/2-z
-x,1/2+y,1/2-z
-x,1/2-y,1/2-z
x,1/2+y,1/2-z
-x,1/2+y,1/2+z
x,1/2-y,1/2+z
1/2+x,y,1/2+z
1/2-x,-y,1/2+z
1/2+x,-y,1/2-z
1/2-x,y,1/2-z
1/2-x,-y,1/2-z
1/2+x,y,1/2-z
1/2-x,y,1/2+z
1/2+x,-y,1/2+z
1/2+x,1/2+y,z
1/2-x,1/2-y,z
1/2+x,1/2-y,-z
1/2-x,1/2+y,-z
1/2-x,1/2-y,-z
1/2+x,1/2+y,-z
1/2-x,1/2+y,z
1/2+x,1/2-y,z
loop_
_atom_site_type_symbol
_atom_site_label
_atom_site_fract_x
_atom_site_fract_y
_atom_site_fract_z
Si Si1 0.943064 0.055492 0.892745
Si Si2 0.204990 0.190814 0.500000
Si Si3 0.855860 0.374873 0.648510
Si Si4 0.795236 0.139669 0.311884
Si Si5 0.323624 0.699015 0.000000
Si Si6 0.263668 0.056560 0.604582
O O1 0.907201 0.097614 0.859166
O O2 0.000000 0.062652 0.868259
O O3 0.928412 0.000000 0.865043
O O4 0.940295 0.056385 0.000000
O O5 0.194955 0.165859 0.594960
O O6 0.264723 0.190988 0.500000
O O7 0.176295 0.242361 0.500000
O O8 0.841592 0.360892 0.748169
O O9 0.847664 0.328365 0.584234
O O10 0.814261 0.414112 0.618238
O O11 0.750000 0.160250 0.250000
O O12 0.776718 0.085525 0.339153
O O13 0.251413 0.059540 0.500000
O O14 0.268439 0.000000 0.629271
#
# Coordination Sequence:
#
# PCOD9511038 Si02
#       6
#    32  16  32  32  16  32
#     4   9  17  29  48  73 101 127 149 185 238 289
#     4  11  20  36  42  62  96 123 160 204 226 277
#     4  11  18  30  45  71  91 122 158 188 231 287
#     4  10  19  31  45  64  91 126 161 190 227 271
#     4  11  20  30  49  63  92 126 157 197 246 263
#     4  10  17  27  42  60  91 128 154 180 215 265
#
# _framework density 14.263442
#
# number of rings (size 3 to 8) (size 9 to 14) (size 15 to 20)
#    0.000    1.800    7.000    1.200    0.000    6.800 
#    0.000    0.000    0.000    0.000    0.000    4.900 
#    0.000    1.600    0.000    0.000    0.000    0.000 
#
# Total GULP energy -222720.496909 kJ/mol
# GULP energy per Si atom -5568.012423 kJ/mol
# Density = 1.423098 g / cm^3
# Si number density = 14.263442 Si / 1000 Ang^3
#
#
#
# Elastic Constant Matrix: (Units=GPa)
#
#
# Indices 1 2 3 4 5 6 
#
# 1 47.2317 27.9873 23.3861 0.0000 0.0000 0.0000
# 2 27.9873 97.7662 49.6077 0.0000 0.0000 0.0000
# 3 23.3861 49.6077 105.9417 0.0000 0.0000 0.0000
# 4 0.0000 0.0000 0.0000 3.1218 0.0000 0.0000
# 5 0.0000 0.0000 0.0000 0.0000 10.4182 0.0000
# 6 0.0000 0.0000 0.0000 0.0000 0.0000 21.2647
#
#
#
# Elastic Compliance Matrix: (Units=1/GPa)
#
#
# Indices 1 2 3 4 5 6 
#
# 1 0.026195 -0.005987 -0.002979 0.000000 0.000000 0.000000
# 2 -0.005987 0.014785 -0.005601 0.000000 0.000000 0.000000
# 3 -0.002979 -0.005601 0.012720 0.000000 0.000000 0.000000
# 4 0.000000 0.000000 0.000000 0.320325 0.000000 0.000000
# 5 0.000000 0.000000 0.000000 0.000000 0.095986 0.000000
# 6 0.000000 0.000000 0.000000 0.000000 0.000000 0.047026
#
#
# Mechanical properties :
#
#
# Convention : Reuss Voigt Hill
#
# Bulk Modulus (GPa) = 40.70951 50.32241 45.51596
# Shear Modulus (GPa) = 9.01943 16.95818 12.98880
#
# Velocity S-wave (km/s) = 2.51738 3.45182 3.02095
# Velocity P-wave (km/s) = 6.08709 7.15849 6.64442
#
# Compressibility (1/GPa) = 0.02456429
#
# Stress axis : x y z
#
# Youngs Moduli (GPa) = 38.17538 67.63788 78.61906
#
# Poissons Ratio (x) = 0.40497 0.23419
# Poissons Ratio (y) = 0.22857 0.44037
# Poissons Ratio (z) = 0.11372 0.37886
#
# Static dielectric constant tensor:
#      x y z
#    x 1.450270 0.000000 0.000000 
#    y 0.000000 1.494750 0.000000 
#    z 0.000000 0.000000 1.501920 
# 
# From -- ./inp_files/18051.got.cif
#   From: 2010.05.17/outbox.cif.g08.bks.cpg/sg69_10_cif.got.tgz:18051.got - 2010.06.03 19:29:58.
