data_PCOD9511508
_publ_section_title
;
Structure prediction by ZEFSAII (Michael W. Deem and Ramdas Pophale) SiO2 
 PCOD9511508
Probable space group: F M M M
;
_chemical_formula_sum "Si O2"
_cell_formula_units_Z 208
_cell_length_a 24.498185
_cell_length_b 26.850822
_cell_length_c 18.752981
_cell_angle_alpha 90.000000
_cell_angle_beta 90.000000
_cell_angle_gamma 90.000000
_cell_volume 12335.643480
_symmetry_space_group_name_H-M "F M M M"
_symmetry_group_IT_number 69
_symmetry_cell_setting 'orthorhombic'
loop_
_space_group_symop_operation_xyz
x,y,z
-x,-y,z
x,-y,-z
-x,y,-z
-x,-y,-z
x,y,-z
-x,y,z
x,-y,z
x,1/2+y,1/2+z
-x,1/2-y,1/2+z
x,1/2-y,1/2-z
-x,1/2+y,1/2-z
-x,1/2-y,1/2-z
x,1/2+y,1/2-z
-x,1/2+y,1/2+z
x,1/2-y,1/2+z
1/2+x,y,1/2+z
1/2-x,-y,1/2+z
1/2+x,-y,1/2-z
1/2-x,y,1/2-z
1/2-x,-y,1/2-z
1/2+x,y,1/2-z
1/2-x,y,1/2+z
1/2+x,-y,1/2+z
1/2+x,1/2+y,z
1/2-x,1/2-y,z
1/2+x,1/2-y,-z
1/2-x,1/2+y,-z
1/2-x,1/2-y,-z
1/2+x,1/2+y,-z
1/2-x,1/2+y,z
1/2+x,1/2-y,z
loop_
_atom_site_type_symbol
_atom_site_label
_atom_site_fract_x
_atom_site_fract_y
_atom_site_fract_z
Si Si1 0.065386 0.057041 0.000000
Si Si2 0.809905 0.227248 0.080913
Si Si3 0.263563 0.380675 0.080883
Si Si4 0.171222 0.442094 0.302273
Si Si5 0.802959 0.352830 0.792140
Si Si6 0.436454 0.395323 0.850214
Si Si7 0.391907 0.292774 0.796289
O O1 0.078282 0.089362 0.930928
O O2 0.000000 0.051474 0.000000
O O3 0.088153 0.000000 0.000000
O O4 0.750000 0.250000 0.098583
O O5 0.802091 0.167740 0.078032
O O6 0.854796 0.233310 0.142302
O O7 0.823679 0.244589 0.000000
O O8 0.295531 0.420532 0.129411
O O9 0.211421 0.359512 0.125098
O O10 0.251914 0.396638 0.000000
O O11 0.180422 0.500000 0.294671
O O12 0.190421 0.408894 0.236476
O O13 0.107111 0.428870 0.308405
O O14 0.750000 0.331991 0.750000
O O15 0.852313 0.321274 0.760152
O O16 0.500000 0.407218 0.837614
O O17 0.425970 0.337374 0.832190
O O18 0.421037 0.250000 0.750000
#
# Coordination Sequence:
#
# PCOD9511508 Si02
#       7
#    16  32  32  32  32  32  32
#     4   9  18  32  54  78  99 130 168 212 270 323
#     4  10  19  30  47  71  97 127 166 213 251 290
#     4  10  19  31  47  70 102 134 168 206 249 307
#     4  10  20  32  49  71  98 132 168 210 255 310
#     4   9  17  32  46  69  98 133 170 206 250 304
#     4  10  21  36  51  72 101 132 171 216 259 312
#     4  11  21  31  52  73  98 137 172 215 257 305
#
# _framework density 16.861706000000002
#
# number of rings (size 3 to 8) (size 9 to 14) (size 15 to 20)
#    0.000    2.077    4.615    1.385    2.154    4.308 
#    0.000    0.000    0.000    0.000    0.000    0.000 
#    0.000    6.000    0.000    5.538    0.000    0.000 
#
# Total GULP energy -289521.585164 kJ/mol
# GULP energy per Si atom -5567.722792 kJ/mol
# Density = 1.682333 g / cm^3
# Si number density = 16.861706 Si / 1000 Ang^3
#
#
#
# Elastic Constant Matrix: (Units=GPa)
#
#
# Indices 1 2 3 4 5 6 
#
# 1 44.2404 -2.5004 16.4241 0.0000 0.0000 0.0000
# 2 -2.5004 85.8493 24.2540 0.0000 0.0000 0.0000
# 3 16.4241 24.2540 95.9152 0.0000 0.0000 0.0000
# 4 0.0000 0.0000 0.0000 18.2165 0.0000 0.0000
# 5 0.0000 0.0000 0.0000 0.0000 18.1197 0.0000
# 6 0.0000 0.0000 0.0000 0.0000 0.0000 11.5803
#
#
#
# Elastic Compliance Matrix: (Units=1/GPa)
#
#
# Indices 1 2 3 4 5 6 
#
# 1 0.024466 0.002042 -0.004706 0.000000 0.000000 0.000000
# 2 0.002042 0.012715 -0.003565 0.000000 0.000000 0.000000
# 3 -0.004706 -0.003565 0.012133 0.000000 0.000000 0.000000
# 4 0.000000 0.000000 0.000000 0.054895 0.000000 0.000000
# 5 0.000000 0.000000 0.000000 0.000000 0.055189 0.000000
# 6 0.000000 0.000000 0.000000 0.000000 0.000000 0.086354
#
#
# Mechanical properties :
#
#
# Convention : Reuss Voigt Hill
#
# Bulk Modulus (GPa) = 27.13194 33.59560 30.36377
# Shear Modulus (GPa) = 18.48463 22.10510 20.29486
#
# Velocity S-wave (km/s) = 3.31456 3.62465 3.47307
# Velocity P-wave (km/s) = 5.54745 6.12249 5.84205
#
# Compressibility (1/GPa) = 0.03685693
#
# Stress axis : x y z
#
# Youngs Moduli (GPa) = 40.87270 78.64760 82.41889
#
# Poissons Ratio (x) = -0.16060 0.38785
# Poissons Ratio (y) = -0.08346 0.29381
# Poissons Ratio (z) = 0.19234 0.28037
#
# Static dielectric constant tensor:
#      x y z
#    x 1.593020 0.000000 0.000000 
#    y 0.000000 1.595660 0.000000 
#    z 0.000000 0.000000 1.626320 
# 
# From -- ./inp_files/26113.got.cif
#   From: 2010.05.17/outbox.cif.g08.bks.cpg/sg69_14_cif.got.tgz:26113.got - 2010.06.03 19:29:58.
