data_PCOD9511012
_publ_section_title
;
Structure prediction by ZEFSAII (Michael W. Deem and Ramdas Pophale) SiO2 
 PCOD9511012
Probable space group: F M M M
;
_chemical_formula_sum "Si O2"
_cell_formula_units_Z 144
_cell_length_a 19.308971
_cell_length_b 20.628402
_cell_length_c 22.907667
_cell_angle_alpha 90.000000
_cell_angle_beta 90.000000
_cell_angle_gamma 90.000000
_cell_volume 9124.426514
_symmetry_space_group_name_H-M "F M M M"
_symmetry_group_IT_number 69
_symmetry_cell_setting 'orthorhombic'
loop_
_space_group_symop_operation_xyz
x,y,z
-x,-y,z
x,-y,-z
-x,y,-z
-x,-y,-z
x,y,-z
-x,y,z
x,-y,z
x,1/2+y,1/2+z
-x,1/2-y,1/2+z
x,1/2-y,1/2-z
-x,1/2+y,1/2-z
-x,1/2-y,1/2-z
x,1/2+y,1/2-z
-x,1/2+y,1/2+z
x,1/2-y,1/2+z
1/2+x,y,1/2+z
1/2-x,-y,1/2+z
1/2+x,-y,1/2-z
1/2-x,y,1/2-z
1/2-x,-y,1/2-z
1/2+x,y,1/2-z
1/2-x,y,1/2+z
1/2+x,-y,1/2+z
1/2+x,1/2+y,z
1/2-x,1/2-y,z
1/2+x,1/2-y,-z
1/2-x,1/2+y,-z
1/2-x,1/2-y,-z
1/2+x,1/2+y,-z
1/2-x,1/2+y,z
1/2+x,1/2-y,z
loop_
_atom_site_type_symbol
_atom_site_label
_atom_site_fract_x
_atom_site_fract_y
_atom_site_fract_z
Si Si1 0.624767 0.250000 0.750000
Si Si2 0.802924 0.305874 0.636590
Si Si3 0.223003 0.574559 0.816751
Si Si4 0.419355 0.246088 0.932006
Si Si5 0.922409 0.359669 0.833510
O O1 0.671385 0.283555 0.799330
O O2 0.581660 0.304895 0.716941
O O3 0.750000 0.250000 0.616397
O O4 0.765026 0.373989 0.644159
O O5 0.868982 0.300243 0.594776
O O6 0.233815 0.500000 0.833671
O O7 0.250000 0.582012 0.750000
O O8 0.141873 0.593143 0.821763
O O9 0.500000 0.264452 0.925374
O O10 0.409894 0.181238 0.893032
O O11 0.405141 0.234769 0.000000
O O12 0.000000 0.387853 0.834943
#
# Coordination Sequence:
#
# PCOD9511012 Si02
#       5
#    16  32  32  32  32
#     4  10  16  28  50  76 100 124 164 210 252 298
#     4  11  17  31  53  75 100 130 168 208 252 301
#     4  11  21  34  49  72 108 141 167 204 252 301
#     4   9  19  33  52  79 104 128 163 211 259 296
#     4  10  19  31  50  74 102 134 167 208 251 305
#
# _framework density 15.781813
#
# number of rings (size 3 to 8) (size 9 to 14) (size 15 to 20)
#    0.000    1.778    6.667    0.667    0.000    1.778 
#    0.000    0.000    0.000    3.333    0.000    4.667 
#    0.000    0.000    0.000    0.000    0.000    0.000 
#
# Total GULP energy -200610.487188 kJ/mol
# GULP energy per Si atom -5572.513533 kJ/mol
# Density = 1.574589 g / cm^3
# Si number density = 15.781813 Si / 1000 Ang^3
#
#
#
# Elastic Constant Matrix: (Units=GPa)
#
#
# Indices 1 2 3 4 5 6 
#
# 1 113.8030 48.8165 39.2685 0.0000 0.0000 0.0000
# 2 48.8165 91.3555 17.9074 0.0000 0.0000 0.0000
# 3 39.2685 17.9074 69.0214 0.0000 0.0000 0.0000
# 4 0.0000 0.0000 0.0000 8.0944 0.0000 0.0000
# 5 0.0000 0.0000 0.0000 0.0000 21.5621 0.0000
# 6 0.0000 0.0000 0.0000 0.0000 0.0000 3.6265
#
#
#
# Elastic Compliance Matrix: (Units=1/GPa)
#
#
# Indices 1 2 3 4 5 6 
#
# 1 0.013467 -0.006000 -0.006105 0.000000 0.000000 0.000000
# 2 -0.006000 0.014206 -0.000272 0.000000 0.000000 0.000000
# 3 -0.006105 -0.000272 0.018032 0.000000 0.000000 0.000000
# 4 0.000000 0.000000 0.000000 0.123543 0.000000 0.000000
# 5 0.000000 0.000000 0.000000 0.000000 0.046378 0.000000
# 6 0.000000 0.000000 0.000000 0.000000 0.000000 0.275751
#
#
# Mechanical properties :
#
#
# Convention : Reuss Voigt Hill
#
# Bulk Modulus (GPa) = 47.73076 54.01830 50.87453
# Shear Modulus (GPa) = 9.55813 17.86910 13.71361
#
# Velocity S-wave (km/s) = 2.46365 3.36856 2.95099
# Velocity P-wave (km/s) = 6.19698 7.03079 6.62701
#
# Compressibility (1/GPa) = 0.02095085
#
# Stress axis : x y z
#
# Youngs Moduli (GPa) = 74.25317 70.39503 55.45551
#
# Poissons Ratio (x) = 0.42234 0.33858
# Poissons Ratio (y) = 0.44549 0.01509
# Poissons Ratio (z) = 0.45335 0.01916
#
# Static dielectric constant tensor:
#      x y z
#    x 1.574100 0.000000 0.000000 
#    y 0.000000 1.513180 0.000000 
#    z 0.000000 0.000000 1.521200 
# 
# From -- ./inp_files/24811.got.cif
#   From: 2010.05.17/outbox.cif.g08.bks.cpg/sg69_13_cif.got.tgz:24811.got - 2010.06.03 19:29:58.
