data_PCOD9511378
_publ_section_title
;
Structure prediction by ZEFSAII (Michael W. Deem and Ramdas Pophale) SiO2 
 PCOD9511378
Probable space group: F M M M
;
_chemical_formula_sum "Si O2"
_cell_formula_units_Z 128
_cell_length_a 20.971963
_cell_length_b 20.334835
_cell_length_c 14.563740
_cell_angle_alpha 90.000000
_cell_angle_beta 90.000000
_cell_angle_gamma 90.000000
_cell_volume 6210.873055
_symmetry_space_group_name_H-M "F M M M"
_symmetry_group_IT_number 69
_symmetry_cell_setting 'orthorhombic'
loop_
_space_group_symop_operation_xyz
x,y,z
-x,-y,z
x,-y,-z
-x,y,-z
-x,-y,-z
x,y,-z
-x,y,z
x,-y,z
x,1/2+y,1/2+z
-x,1/2-y,1/2+z
x,1/2-y,1/2-z
-x,1/2+y,1/2-z
-x,1/2-y,1/2-z
x,1/2+y,1/2-z
-x,1/2+y,1/2+z
x,1/2-y,1/2+z
1/2+x,y,1/2+z
1/2-x,-y,1/2+z
1/2+x,-y,1/2-z
1/2-x,y,1/2-z
1/2-x,-y,1/2-z
1/2+x,y,1/2-z
1/2-x,y,1/2+z
1/2+x,-y,1/2+z
1/2+x,1/2+y,z
1/2-x,1/2-y,z
1/2+x,1/2-y,-z
1/2-x,1/2+y,-z
1/2-x,1/2-y,-z
1/2+x,1/2+y,-z
1/2-x,1/2+y,z
1/2+x,1/2-y,z
loop_
_atom_site_type_symbol
_atom_site_label
_atom_site_fract_x
_atom_site_fract_y
_atom_site_fract_z
Si Si1 0.929372 0.711376 0.153835
Si Si2 0.374016 0.925225 0.110463
Si Si3 0.308081 0.791173 0.605718
Si Si4 0.778059 0.928913 0.889298
O O1 0.931225 0.750000 0.250000
O O2 0.910647 0.634617 0.158062
O O3 0.871470 0.748557 0.104992
O O4 0.000000 0.717029 0.112387
O O5 0.297690 0.919613 0.125626
O O6 0.393130 0.000000 0.135264
O O7 0.383608 0.917998 0.000000
O O8 0.289239 0.803231 0.500000
O O9 0.250000 0.750000 0.647625
O O10 0.313291 0.864133 0.647109
O O11 0.797423 0.000000 0.850211
O O12 0.787297 0.933525 0.000000
#
# Coordination Sequence:
#
# PCOD9511378 Si02
#       4
#    32  32  32  32
#     4  11  24  38  50  73 114 155 184 217 271 336
#     4   9  17  33  59  87 111 137 177 233 291 338
#     4  10  18  32  56  81 103 135 181 229 275 324
#     4   8  14  27  50  80 109 131 160 216 282 328
#
# _framework density 20.609019
#
# number of rings (size 3 to 8) (size 9 to 14) (size 15 to 20)
#    0.000    2.500    2.500    2.250    0.000    3.000 
#    0.000    2.500    0.000    5.250    0.000    3.500 
#    0.000    0.000    0.000    0.000    0.000    0.000 
#
# Total GULP energy -178422.053621 kJ/mol
# GULP energy per Si atom -5575.689176 kJ/mol
# Density = 2.056211 g / cm^3
# Si number density = 20.609019 Si / 1000 Ang^3
#
#
#
# Elastic Constant Matrix: (Units=GPa)
#
#
# Indices 1 2 3 4 5 6 
#
# 1 88.6413 75.0726 -0.9740 0.0000 0.0000 0.0000
# 2 75.0726 231.0164 19.0161 0.0000 0.0000 0.0000
# 3 -0.9740 19.0161 47.5163 0.0000 0.0000 0.0000
# 4 0.0000 0.0000 0.0000 17.1791 0.0000 0.0000
# 5 0.0000 0.0000 0.0000 0.0000 6.0132 0.0000
# 6 0.0000 0.0000 0.0000 0.0000 0.0000 11.2680
#
#
#
# Elastic Compliance Matrix: (Units=1/GPa)
#
#
# Indices 1 2 3 4 5 6 
#
# 1 0.015840 -0.005350 0.002466 0.000000 0.000000 0.000000
# 2 -0.005350 0.006283 -0.002624 0.000000 0.000000 0.000000
# 3 0.002466 -0.002624 0.022146 0.000000 0.000000 0.000000
# 4 0.000000 0.000000 0.000000 0.058210 0.000000 0.000000
# 5 0.000000 0.000000 0.000000 0.000000 0.166302 0.000000
# 6 0.000000 0.000000 0.000000 0.000000 0.000000 0.088747
#
#
# Mechanical properties :
#
#
# Convention : Reuss Voigt Hill
#
# Bulk Modulus (GPa) = 30.07344 61.48928 45.78136
# Shear Modulus (GPa) = 13.17072 25.16269 19.16670
#
# Velocity S-wave (km/s) = 2.53074 3.49801 3.05292
# Velocity P-wave (km/s) = 4.81285 6.79821 5.88979
#
# Compressibility (1/GPa) = 0.03325193
#
# Stress axis : x y z
#
# Youngs Moduli (GPa) = 63.13160 159.14887 45.15449
#
# Poissons Ratio (x) = 0.85151 -0.11135
# Poissons Ratio (y) = 0.33778 0.11850
# Poissons Ratio (z) = -0.15568 0.41765
#
# Static dielectric constant tensor:
#      x y z
#    x 1.702430 0.000000 0.000000 
#    y 0.000000 1.814670 0.000000 
#    z 0.000000 0.000000 1.830500 
# 
# From -- ./inp_files/22754.got.cif
#   From: 2010.05.17/outbox.cif.g08.bks.cpg/sg69_12_cif.got.tgz:22754.got - 2010.06.03 19:29:58.
