data_PCOD9511462
_publ_section_title
;
Structure prediction by ZEFSAII (Michael W. Deem and Ramdas Pophale) SiO2 
 PCOD9511462
Probable space group: F M M M
;
_chemical_formula_sum "Si O2"
_cell_formula_units_Z 160
_cell_length_a 28.550399
_cell_length_b 28.041561
_cell_length_c 10.120861
_cell_angle_alpha 90.000000
_cell_angle_beta 90.000000
_cell_angle_gamma 90.000000
_cell_volume 8102.738597
_symmetry_space_group_name_H-M "F M M M"
_symmetry_group_IT_number 69
_symmetry_cell_setting 'orthorhombic'
loop_
_space_group_symop_operation_xyz
x,y,z
-x,-y,z
x,-y,-z
-x,y,-z
-x,-y,-z
x,y,-z
-x,y,z
x,-y,z
x,1/2+y,1/2+z
-x,1/2-y,1/2+z
x,1/2-y,1/2-z
-x,1/2+y,1/2-z
-x,1/2-y,1/2-z
x,1/2+y,1/2-z
-x,1/2+y,1/2+z
x,1/2-y,1/2+z
1/2+x,y,1/2+z
1/2-x,-y,1/2+z
1/2+x,-y,1/2-z
1/2-x,y,1/2-z
1/2-x,-y,1/2-z
1/2+x,y,1/2-z
1/2-x,y,1/2+z
1/2+x,-y,1/2+z
1/2+x,1/2+y,z
1/2-x,1/2-y,z
1/2+x,1/2-y,-z
1/2-x,1/2+y,-z
1/2-x,1/2-y,-z
1/2+x,1/2+y,-z
1/2-x,1/2+y,z
1/2+x,1/2-y,z
loop_
_atom_site_type_symbol
_atom_site_label
_atom_site_fract_x
_atom_site_fract_y
_atom_site_fract_z
Si Si1 0.380553 0.055602 0.500000
Si Si2 0.831917 0.054074 0.719983
Si Si3 0.707253 0.652933 0.343106
Si Si4 0.107835 0.193090 0.251356
Si Si5 0.912151 0.947552 0.500000
Si Si6 0.943055 0.853597 0.000000
Si Si7 0.447727 0.345286 0.500000
O O1 0.349241 0.063340 0.369130
O O2 0.423921 0.091980 0.500000
O O3 0.395272 0.000000 0.500000
O O4 0.798260 0.095570 0.669584
O O5 0.877777 0.056081 0.626283
O O6 0.813172 0.000000 0.710266
O O7 0.710955 0.665016 0.500000
O O8 0.750000 0.668392 0.250000
O O9 0.660194 0.674086 0.277798
O O10 0.108401 0.250000 0.250000
O O11 0.078794 0.173954 0.374166
O O12 0.081338 0.171993 0.124667
O O13 0.945477 0.902531 0.500000
O O14 0.934235 0.000000 0.500000
O O15 0.000000 0.850792 0.000000
O O16 0.500000 0.327462 0.500000
#
# Coordination Sequence:
#
# PCOD9511462 Si02
#       7
#    16  32  32  32  16  16  16
#     4  10  20  36  63  96 135 179 219 263 325 393
#     4  10  19  37  64  91 131 178 217 264 327 395
#     4  12  26  45  70 100 132 172 222 277 340 405
#     4  12  26  47  69  94 134 178 225 283 337 387
#     4  10  18  36  65  94 129 175 217 263 325 399
#     4  12  25  41  70 105 135 175 226 274 335 398
#     4  12  23  43  70  99 135 175 222 276 335 400
#
# _framework density 19.746410000000001
#
# number of rings (size 3 to 8) (size 9 to 14) (size 15 to 20)
#    0.000    0.800    6.000    1.200    2.800    3.600 
#    0.000    1.000    0.000    6.000    0.000    0.000 
#    0.000    0.000    0.000    0.000    0.000    0.000 
#
# Total GULP energy -223508.292208 kJ/mol
# GULP energy per Si atom -5587.707305 kJ/mol
# Density = 1.970147 g / cm^3
# Si number density = 19.746410 Si / 1000 Ang^3
#
#
#
# Elastic Constant Matrix: (Units=GPa)
#
#
# Indices 1 2 3 4 5 6 
#
# 1 137.0740 29.9741 58.6701 -0.0001 0.0014 -0.0004
# 2 29.9741 103.7998 29.2229 0.0008 0.0014 -0.0008
# 3 58.6701 29.2229 178.4645 0.0032 -0.0007 -0.0015
# 4 -0.0001 0.0008 0.0032 32.4245 -0.0009 -0.0018
# 5 0.0014 0.0014 -0.0007 -0.0009 47.2768 0.0040
# 6 -0.0004 -0.0008 -0.0015 -0.0018 0.0040 40.9391
#
#
#
# Elastic Compliance Matrix: (Units=1/GPa)
#
#
# Indices 1 2 3 4 5 6 
#
# 1 0.008803 -0.001811 -0.002597 0.000000 0.000000 0.000000
# 2 -0.001811 0.010472 -0.001119 0.000000 0.000000 0.000000
# 3 -0.002597 -0.001119 0.006641 -0.000001 0.000000 0.000000
# 4 0.000000 0.000000 -0.000001 0.030841 0.000001 0.000001
# 5 0.000000 0.000000 0.000000 0.000001 0.021152 -0.000002
# 6 0.000000 0.000000 0.000000 0.000001 -0.000002 0.024427
#
#
# Mechanical properties :
#
#
# Convention : Reuss Voigt Hill
#
# Bulk Modulus (GPa) = 67.29389 72.78582 70.03986
# Shear Modulus (GPa) = 42.24974 44.22616 43.23795
#
# Velocity S-wave (km/s) = 4.63062 4.73769 4.68446
# Velocity P-wave (km/s) = 7.92106 8.17728 8.05019
#
# Compressibility (1/GPa) = 0.01486019
#
# Stress axis : x y z
#
# Youngs Moduli (GPa) = 113.59679 95.49292 150.58912
#
# Poissons Ratio (x) = 0.17292 0.39115
# Poissons Ratio (y) = 0.20570 0.16858
# Poissons Ratio (z) = 0.29507 0.10690
#
# Static dielectric constant tensor:
#      x y z
#    x 1.667330 0.000000 0.000000 
#    y 0.000000 1.676190 0.000000 
#    z 0.000000 0.000000 1.684010 
# 
# From -- ./inp_files/5823.got.cif
#   From: 2010.05.17/outbox.cif.g08.bks.cpg/sg69_3_cif.got.tgz:5823.got - 2010.06.03 19:29:58.
