data_PCOD9511865
_publ_section_title
;
Structure prediction by ZEFSAII (Michael W. Deem and Ramdas Pophale) SiO2 
 PCOD9511865
Probable space group: F M M M
;
_chemical_formula_sum "Si O2"
_cell_formula_units_Z 160
_cell_length_a 25.578163
_cell_length_b 11.304426
_cell_length_c 28.901742
_cell_angle_alpha 90.000000
_cell_angle_beta 90.000000
_cell_angle_gamma 90.000000
_cell_volume 8356.836123
_symmetry_space_group_name_H-M "F M M M"
_symmetry_group_IT_number 69
_symmetry_cell_setting 'orthorhombic'
loop_
_space_group_symop_operation_xyz
x,y,z
-x,-y,z
x,-y,-z
-x,y,-z
-x,-y,-z
x,y,-z
-x,y,z
x,-y,z
x,1/2+y,1/2+z
-x,1/2-y,1/2+z
x,1/2-y,1/2-z
-x,1/2+y,1/2-z
-x,1/2-y,1/2-z
x,1/2+y,1/2-z
-x,1/2+y,1/2+z
x,1/2-y,1/2+z
1/2+x,y,1/2+z
1/2-x,-y,1/2+z
1/2+x,-y,1/2-z
1/2-x,y,1/2-z
1/2-x,-y,1/2-z
1/2+x,y,1/2-z
1/2-x,y,1/2+z
1/2+x,-y,1/2+z
1/2+x,1/2+y,z
1/2-x,1/2-y,z
1/2+x,1/2-y,-z
1/2-x,1/2+y,-z
1/2-x,1/2-y,-z
1/2+x,1/2+y,-z
1/2-x,1/2+y,z
1/2+x,1/2-y,z
loop_
_atom_site_type_symbol
_atom_site_label
_atom_site_fract_x
_atom_site_fract_y
_atom_site_fract_z
Si Si1 0.688212 0.254996 0.318779
Si Si2 0.138343 0.500000 0.554596
Si Si3 0.190283 0.500000 0.344514
Si Si4 0.206935 0.000000 0.709198
Si Si5 0.356274 0.134438 0.907723
Si Si6 0.059413 0.280451 0.445848
Si Si7 0.288393 0.136520 0.000000
O O1 0.750000 0.250000 0.309926
O O2 0.669746 0.118407 0.318592
O O3 0.674659 0.376224 0.290890
O O4 0.674106 0.288371 0.370885
O O5 0.156863 0.500000 0.500000
O O6 0.176527 0.500000 0.600034
O O7 0.100139 0.612373 0.559011
O O8 0.253443 0.500000 0.335911
O O9 0.250000 0.000000 0.750000
O O10 0.415145 0.177684 0.915755
O O11 0.356166 0.000000 0.892340
O O12 0.325206 0.145856 0.955482
O O13 0.059220 0.246422 0.500000
O O14 0.000000 0.312126 0.433389
O O15 0.250000 0.250000 0.000000
O O16 0.267417 0.000000 0.000000
#
# Coordination Sequence:
#
# PCOD9511865 Si02
#       7
#    32  16  16  16  32  32  16
#     4  10  20  35  55  77 112 147 183 228 275 335
#     4  10  19  34  52  78 112 153 194 238 288 344
#     4  10  20  33  58  84 111 147 192 236 277 329
#     4  10  22  40  61  83 115 152 183 229 293 354
#     4  11  20  34  51  72 105 146 189 239 281 336
#     4  10  20  34  52  74 105 148 198 249 295 338
#     4  10  22  38  49  71 104 148 199 231 277 332
#
# _framework density 19.146000999999998
#
# number of rings (size 3 to 8) (size 9 to 14) (size 15 to 20)
#    0.000    1.800    4.000    0.900    0.000    5.200 
#    3.600    1.000    0.000    0.000    0.000    0.000 
#    0.000    4.800    0.000    0.000    0.000    0.000 
#
# Total GULP energy -222733.123607 kJ/mol
# GULP energy per Si atom -5568.328090 kJ/mol
# Density = 1.910242 g / cm^3
# Si number density = 19.146001 Si / 1000 Ang^3
#
#
#
# Elastic Constant Matrix: (Units=GPa)
#
#
# Indices 1 2 3 4 5 6 
#
# 1 57.4836 11.4395 22.7358 0.0000 0.0000 0.0000
# 2 11.4395 162.8695 28.3826 0.0000 0.0000 0.0000
# 3 22.7358 28.3826 87.8168 0.0000 0.0000 0.0000
# 4 0.0000 0.0000 0.0000 -23.6789 0.0000 0.0000
# 5 0.0000 0.0000 0.0000 0.0000 -2.5080 0.0000
# 6 0.0000 0.0000 0.0000 0.0000 0.0000 4.6985
#
#
#
# Elastic Compliance Matrix: (Units=1/GPa)
#
#
# Indices 1 2 3 4 5 6 
#
# 1 0.019422 -0.000517 -0.004861 0.000000 0.000000 0.000000
# 2 -0.000517 0.006520 -0.001973 0.000000 0.000000 0.000000
# 3 -0.004861 -0.001973 0.013284 0.000000 0.000000 0.000000
# 4 0.000000 0.000000 0.000000 -0.042232 0.000000 0.000000
# 5 0.000000 0.000000 0.000000 0.000000 -0.398727 0.000000
# 6 0.000000 0.000000 0.000000 0.000000 0.000000 0.212834
#
#
# Mechanical properties :
#
#
# Convention : Reuss Voigt Hill
#
# Bulk Modulus (GPa) = 40.77915 48.14286 44.46100
# Shear Modulus (GPa) = -30.11657 12.07646 -9.02006
#
# Velocity S-wave (km/s) = -3.97040 2.51421 -2.17288
# Velocity P-wave (km/s) = 0.57138 5.79897 4.12035
#
# Compressibility (1/GPa) = 0.02452234
#
# Stress axis : x y z
#
# Youngs Moduli (GPa) = 51.48835 153.37181 75.27990
#
# Poissons Ratio (x) = 0.07929 0.36595
# Poissons Ratio (y) = 0.02662 0.14856
# Poissons Ratio (z) = 0.25030 0.30267
#
# Static dielectric constant tensor:
#      x y z
#    x 1.634890 0.000000 0.000000 
#    y 0.000000 1.821150 0.000000 
#    z 0.000000 0.000000 1.692120 
# 
# From -- ./inp_files/43520.got.cif
#   From: 2010.05.17/outbox.cif.g08.bks.cpg/sg69_22_cif.got.tgz:43520.got - 2010.06.03 19:29:58.
