data_PCOD9511334
_publ_section_title
;
Structure prediction by ZEFSAII (Michael W. Deem and Ramdas Pophale) SiO2 
 PCOD9511334
Probable space group: F M M M
;
_chemical_formula_sum "Si O2"
_cell_formula_units_Z 160
_cell_length_a 18.529042
_cell_length_b 14.691634
_cell_length_c 32.277462
_cell_angle_alpha 90.000000
_cell_angle_beta 90.000000
_cell_angle_gamma 90.000000
_cell_volume 8786.632144
_symmetry_space_group_name_H-M "F M M M"
_symmetry_group_IT_number 69
_symmetry_cell_setting 'orthorhombic'
loop_
_space_group_symop_operation_xyz
x,y,z
-x,-y,z
x,-y,-z
-x,y,-z
-x,-y,-z
x,y,-z
-x,y,z
x,-y,z
x,1/2+y,1/2+z
-x,1/2-y,1/2+z
x,1/2-y,1/2-z
-x,1/2+y,1/2-z
-x,1/2-y,1/2-z
x,1/2+y,1/2-z
-x,1/2+y,1/2+z
x,1/2-y,1/2+z
1/2+x,y,1/2+z
1/2-x,-y,1/2+z
1/2+x,-y,1/2-z
1/2-x,y,1/2-z
1/2-x,-y,1/2-z
1/2+x,y,1/2-z
1/2-x,y,1/2+z
1/2+x,-y,1/2+z
1/2+x,1/2+y,z
1/2-x,1/2-y,z
1/2+x,1/2-y,-z
1/2-x,1/2+y,-z
1/2-x,1/2-y,-z
1/2+x,1/2+y,-z
1/2-x,1/2+y,z
1/2+x,1/2-y,z
loop_
_atom_site_type_symbol
_atom_site_label
_atom_site_fract_x
_atom_site_fract_y
_atom_site_fract_z
Si Si1 0.231778 0.857294 0.795105
Si Si2 0.082784 0.257170 0.409075
Si Si3 0.786727 0.649878 0.882509
Si Si4 0.420336 0.394874 0.831466
Si Si5 0.178201 0.399569 0.546841
O O1 0.250000 0.895824 0.750000
O O2 0.250000 0.750000 0.793315
O O3 0.273000 0.890980 0.836789
O O4 0.147176 0.872195 0.802952
O O5 0.131471 0.170947 0.395793
O O6 0.083175 0.326357 0.369932
O O7 0.123924 0.316866 0.443630
O O8 0.000000 0.235841 0.419270
O O9 0.750000 0.750000 0.880244
O O10 0.741352 0.603531 0.918980
O O11 0.500000 0.385213 0.812078
O O12 0.413262 0.500000 0.845321
O O13 0.206381 0.389959 0.500000
O O14 0.142988 0.500000 0.549942
#
# Coordination Sequence:
#
# PCOD9511334 Si02
#       5
#    32  32  32  32  32
#     4  10  18  32  51  75 102 133 176 214 246 291
#     4  10  19  32  50  74 103 133 165 202 250 302
#     4   9  17  33  50  71 101 135 167 206 245 299
#     4  10  19  32  50  73 103 135 164 201 255 307
#     4  10  20  33  52  77 102 130 165 205 252 301
#
# _framework density 18.209479999999999
#
# number of rings (size 3 to 8) (size 9 to 14) (size 15 to 20)
#    0.000    2.200    6.000    0.600    0.000    5.600 
#    0.000    4.000    0.000    0.600    0.000    1.400 
#    0.000    0.000    0.000    0.000    0.000    0.000 
#
# Total GULP energy -222733.919002 kJ/mol
# GULP energy per Si atom -5568.347975 kJ/mol
# Density = 1.816803 g / cm^3
# Si number density = 18.209480 Si / 1000 Ang^3
#
#
#
# Elastic Constant Matrix: (Units=GPa)
#
#
# Indices 1 2 3 4 5 6 
#
# 1 124.4999 28.4714 46.1896 0.0000 0.0000 0.0000
# 2 28.4714 40.1621 17.0346 0.0000 0.0000 0.0000
# 3 46.1896 17.0346 141.8573 0.0000 0.0000 0.0000
# 4 0.0000 0.0000 0.0000 27.9978 0.0000 0.0000
# 5 0.0000 0.0000 0.0000 0.0000 20.5312 0.0000
# 6 0.0000 0.0000 0.0000 0.0000 0.0000 17.2557
#
#
#
# Elastic Compliance Matrix: (Units=1/GPa)
#
#
# Indices 1 2 3 4 5 6 
#
# 1 0.010452 -0.006286 -0.002648 0.000000 0.000000 0.000000
# 2 -0.006286 0.030016 -0.001558 0.000000 0.000000 0.000000
# 3 -0.002648 -0.001558 0.008099 0.000000 0.000000 0.000000
# 4 0.000000 0.000000 0.000000 0.035717 0.000000 0.000000
# 5 0.000000 0.000000 0.000000 0.000000 0.048706 0.000000
# 6 0.000000 0.000000 0.000000 0.000000 0.000000 0.057952
#
#
# Mechanical properties :
#
#
# Convention : Reuss Voigt Hill
#
# Bulk Modulus (GPa) = 36.25494 54.43451 45.34472
# Shear Modulus (GPa) = 22.61199 27.47852 25.04525
#
# Velocity S-wave (km/s) = 3.52770 3.88883 3.71266
# Velocity P-wave (km/s) = 6.04533 7.07972 6.58287
#
# Compressibility (1/GPa) = 0.02758245
#
# Stress axis : x y z
#
# Youngs Moduli (GPa) = 95.67234 33.31526 123.47636
#
# Poissons Ratio (x) = 0.20944 0.32702
# Poissons Ratio (y) = 0.60144 0.19232
# Poissons Ratio (z) = 0.25338 0.05189
#
# Static dielectric constant tensor:
#      x y z
#    x 1.644800 0.000000 0.000000 
#    y 0.000000 1.649940 0.000000 
#    z 0.000000 0.000000 1.653920 
# 
# From -- ./inp_files/27591.got.cif
#   From: 2010.05.17/outbox.cif.g08.bks.cpg/sg69_14_cif.got.tgz:27591.got - 2010.06.03 19:29:58.
