data_PCOD9511992
_publ_section_title
;
Structure prediction by ZEFSAII (Michael W. Deem and Ramdas Pophale) SiO2 
 PCOD9511992
Probable space group: F M M M
;
_chemical_formula_sum "Si O2"
_cell_formula_units_Z 208
_cell_length_a 19.003964
_cell_length_b 19.912678
_cell_length_c 33.017487
_cell_angle_alpha 90.000000
_cell_angle_beta 90.000000
_cell_angle_gamma 90.000000
_cell_volume 12494.471351
_symmetry_space_group_name_H-M "F M M M"
_symmetry_group_IT_number 69
_symmetry_cell_setting 'orthorhombic'
loop_
_space_group_symop_operation_xyz
x,y,z
-x,-y,z
x,-y,-z
-x,y,-z
-x,-y,-z
x,y,-z
-x,y,z
x,-y,z
x,1/2+y,1/2+z
-x,1/2-y,1/2+z
x,1/2-y,1/2-z
-x,1/2+y,1/2-z
-x,1/2-y,1/2-z
x,1/2+y,1/2-z
-x,1/2+y,1/2+z
x,1/2-y,1/2+z
1/2+x,y,1/2+z
1/2-x,-y,1/2+z
1/2+x,-y,1/2-z
1/2-x,y,1/2-z
1/2-x,-y,1/2-z
1/2+x,y,1/2-z
1/2-x,y,1/2+z
1/2+x,-y,1/2+z
1/2+x,1/2+y,z
1/2-x,1/2-y,z
1/2+x,1/2-y,-z
1/2-x,1/2+y,-z
1/2-x,1/2-y,-z
1/2+x,1/2+y,-z
1/2-x,1/2+y,z
1/2+x,1/2-y,z
loop_
_atom_site_type_symbol
_atom_site_label
_atom_site_fract_x
_atom_site_fract_y
_atom_site_fract_z
Si Si1 0.174160 0.174149 0.367713
Si Si2 0.832692 0.731713 0.954812
Si Si3 0.170929 0.078124 0.767602
Si Si4 0.583587 0.856531 0.421329
Si Si5 0.581786 0.079645 0.813003
Si Si6 0.085449 0.500000 0.546260
Si Si7 0.166982 0.173749 0.155838
O O1 0.155246 0.186701 0.414803
O O2 0.125641 0.120024 0.346215
O O3 0.165549 0.245081 0.343628
O O4 0.256682 0.156480 0.363594
O O5 0.750000 0.750000 0.953546
O O6 0.877037 0.799460 0.947077
O O7 0.848370 0.704866 0.000000
O O8 0.250000 0.083940 0.750000
O O9 0.117463 0.090705 0.730758
O O10 0.161234 0.132434 0.802892
O O11 0.162179 0.000000 0.781418
O O12 0.500000 0.850872 0.427171
O O13 0.605714 0.846088 0.375021
O O14 0.607893 0.930814 0.433581
O O15 0.500000 0.099328 0.812812
O O16 0.586367 0.000000 0.820929
O O17 0.108381 0.500000 0.500000
O O18 0.000000 0.500000 0.547124
#
# Coordination Sequence:
#
# PCOD9511992 Si02
#       7
#    32  32  32  32  32  16  32
#     4  10  19  37  55  83 113 146 182 229 282 335
#     4  10  19  35  58  82 112 146 183 228 278 330
#     4  10  20  35  57  83 111 148 190 228 271 334
#     4  10  20  34  52  79 111 147 182 221 274 328
#     4  10  22  40  60  83 111 146 190 237 283 334
#     4   9  18  32  48  72 109 146 179 213 262 329
#     4  10  20  34  53  83 113 144 185 226 279 327
#
# _framework density 16.647362999999999
#
# number of rings (size 3 to 8) (size 9 to 14) (size 15 to 20)
#    0.000    2.077    4.615    0.462    1.077    4.615 
#    0.000    0.769    0.000    0.462    0.000    1.077 
#    0.000    0.000    0.000    0.000    0.000    0.000 
#
# Total GULP energy -289841.228064 kJ/mol
# GULP energy per Si atom -5573.869770 kJ/mol
# Density = 1.660947 g / cm^3
# Si number density = 16.647363 Si / 1000 Ang^3
#
#
#
# Elastic Constant Matrix: (Units=GPa)
#
#
# Indices 1 2 3 4 5 6 
#
# 1 77.9471 33.2819 21.3297 0.0000 0.0000 0.0000
# 2 33.2819 48.1530 49.3149 0.0000 0.0000 0.0000
# 3 21.3297 49.3149 104.9153 0.0000 0.0000 0.0000
# 4 0.0000 0.0000 0.0000 12.8801 0.0000 0.0000
# 5 0.0000 0.0000 0.0000 0.0000 4.4267 0.0000
# 6 0.0000 0.0000 0.0000 0.0000 0.0000 32.4526
#
#
#
# Elastic Compliance Matrix: (Units=1/GPa)
#
#
# Indices 1 2 3 4 5 6 
#
# 1 0.019248 -0.017925 0.004512 0.000000 0.000000 0.000000
# 2 -0.017925 0.056736 -0.023024 0.000000 0.000000 0.000000
# 3 0.004512 -0.023024 0.019437 0.000000 0.000000 0.000000
# 4 0.000000 0.000000 0.000000 0.077639 0.000000 0.000000
# 5 0.000000 0.000000 0.000000 0.000000 0.225904 0.000000
# 6 0.000000 0.000000 0.000000 0.000000 0.000000 0.030814
#
#
# Mechanical properties :
#
#
# Convention : Reuss Voigt Hill
#
# Bulk Modulus (GPa) = 44.35177 48.76314 46.55745
# Shear Modulus (GPa) = 9.80070 18.42447 14.11258
#
# Velocity S-wave (km/s) = 2.42900 3.33039 2.91475
# Velocity P-wave (km/s) = 5.87932 6.64410 6.27338
#
# Compressibility (1/GPa) = 0.02254702
#
# Stress axis : x y z
#
# Youngs Moduli (GPa) = 51.95353 17.62546 51.44924
#
# Poissons Ratio (x) = 0.31593 -0.23215
# Poissons Ratio (y) = 0.93125 1.18459
# Poissons Ratio (z) = -0.23443 0.40581
#
# Static dielectric constant tensor:
#      x y z
#    x 1.552350 0.000000 0.000000 
#    y 0.000000 1.582150 0.000000 
#    z 0.000000 0.000000 1.561640 
# 
# From -- ./inp_files/46511.got.cif
#   From: 2010.05.17/outbox.cif.g08.bks.cpg/sg69_24_cif.got.tgz:46511.got - 2010.06.03 19:29:58.
