data_PCOD9511075
_publ_section_title
;
Structure prediction by ZEFSAII (Michael W. Deem and Ramdas Pophale) SiO2 
 PCOD9511075
Probable space group: F M M M
;
_chemical_formula_sum "Si O2"
_cell_formula_units_Z 168
_cell_length_a 14.806019
_cell_length_b 31.863942
_cell_length_c 18.460336
_cell_angle_alpha 90.000000
_cell_angle_beta 90.000000
_cell_angle_gamma 90.000000
_cell_volume 8709.182810
_symmetry_space_group_name_H-M "F M M M"
_symmetry_group_IT_number 69
_symmetry_cell_setting 'orthorhombic'
loop_
_space_group_symop_operation_xyz
x,y,z
-x,-y,z
x,-y,-z
-x,y,-z
-x,-y,-z
x,y,-z
-x,y,z
x,-y,z
x,1/2+y,1/2+z
-x,1/2-y,1/2+z
x,1/2-y,1/2-z
-x,1/2+y,1/2-z
-x,1/2-y,1/2-z
x,1/2+y,1/2-z
-x,1/2+y,1/2+z
x,1/2-y,1/2+z
1/2+x,y,1/2+z
1/2-x,-y,1/2+z
1/2+x,-y,1/2-z
1/2-x,y,1/2-z
1/2-x,-y,1/2-z
1/2+x,y,1/2-z
1/2-x,y,1/2+z
1/2+x,-y,1/2+z
1/2+x,1/2+y,z
1/2-x,1/2-y,z
1/2+x,1/2-y,-z
1/2-x,1/2+y,-z
1/2-x,1/2-y,-z
1/2+x,1/2+y,-z
1/2-x,1/2+y,z
1/2+x,1/2-y,z
loop_
_atom_site_type_symbol
_atom_site_label
_atom_site_fract_x
_atom_site_fract_y
_atom_site_fract_z
Si Si1 0.705748 0.867827 0.079788
Si Si2 0.000000 0.750000 0.250000
Si Si3 0.849757 0.548112 0.728848
Si Si4 0.349737 0.182695 0.778210
Si Si5 0.099530 0.874871 0.141324
Si Si6 0.897833 0.547708 0.107305
O O1 0.662728 0.842767 0.147052
O O2 0.813757 0.866702 0.091779
O O3 0.669101 0.915623 0.083663
O O4 0.683091 0.851003 0.000000
O O5 0.079770 0.779982 0.285277
O O6 0.840348 0.500000 0.704508
O O7 0.750000 0.564720 0.750000
O O8 0.892829 0.577449 0.669274
O O9 0.900038 0.548776 0.805230
O O10 0.250000 0.195566 0.750000
O O11 0.387773 0.152588 0.714416
O O12 0.000000 0.866289 0.110760
O O13 0.870560 0.500000 0.087496
O O14 0.000000 0.555168 0.081535
#
# Coordination Sequence:
#
# PCOD9511075 Si02
#       6
#    32   8  32  32  32  32
#     4  11  24  40  59  89 134 172 202 249 309 371
#     4  12  22  40  74  98 118 138 190 260 304 370
#     4  10  17  29  53  84 120 160 208 273 321 347
#     4  10  22  41  66  96 121 155 202 249 306 364
#     4  11  20  37  63  88 119 161 216 263 295 358
#     4  10  20  34  54  83 122 168 216 259 305 358
#
# _framework density 19.289985000000001
#
# number of rings (size 3 to 8) (size 9 to 14) (size 15 to 20)
#    0.000    1.524    4.762    1.429    1.333    2.286 
#    0.000    0.952    0.000   13.714    0.000    2.667 
#    0.000    0.000    0.000    0.000    0.000    0.000 
#
# Total GULP energy -233887.477023 kJ/mol
# GULP energy per Si atom -5568.749453 kJ/mol
# Density = 1.924608 g / cm^3
# Si number density = 19.289985 Si / 1000 Ang^3
#
#
#
# Elastic Constant Matrix: (Units=GPa)
#
#
# Indices 1 2 3 4 5 6 
#
# 1 146.4214 42.6193 16.9139 0.0000 0.0000 0.0000
# 2 42.6193 43.8115 20.2393 0.0000 0.0000 0.0000
# 3 16.9139 20.2393 71.8499 0.0000 0.0000 0.0000
# 4 0.0000 0.0000 0.0000 3.4295 0.0000 0.0000
# 5 0.0000 0.0000 0.0000 0.0000 -21.0569 0.0000
# 6 0.0000 0.0000 0.0000 0.0000 0.0000 111.3339
#
#
#
# Elastic Compliance Matrix: (Units=1/GPa)
#
#
# Indices 1 2 3 4 5 6 
#
# 1 0.009538 -0.009475 0.000423 0.000000 0.000000 0.000000
# 2 -0.009475 0.035651 -0.007812 0.000000 0.000000 0.000000
# 3 0.000423 -0.007812 0.016019 0.000000 0.000000 0.000000
# 4 0.000000 0.000000 0.000000 0.291585 0.000000 0.000000
# 5 0.000000 0.000000 0.000000 0.000000 -0.047490 0.000000
# 6 0.000000 0.000000 0.000000 0.000000 0.000000 0.008982
#
#
# Mechanical properties :
#
#
# Convention : Reuss Voigt Hill
#
# Bulk Modulus (GPa) = 36.38787 46.84754 41.61770
# Shear Modulus (GPa) = 13.99888 30.89535 22.44711
#
# Velocity S-wave (km/s) = 2.69682 4.00637 3.41496
# Velocity P-wave (km/s) = 5.34805 6.76314 6.09679
#
# Compressibility (1/GPa) = 0.02748168
#
# Stress axis : x y z
#
# Youngs Moduli (GPa) = 104.83876 28.05003 62.42679
#
# Poissons Ratio (x) = 0.26576 -0.02643
# Poissons Ratio (y) = 0.99330 0.48768
# Poissons Ratio (z) = -0.04439 0.21913
#
# Static dielectric constant tensor:
#      x y z
#    x 1.714280 0.000000 0.000000 
#    y 0.000000 1.680980 0.000000 
#    z 0.000000 0.000000 1.670670 
# 
# From -- ./inp_files/30111.got.cif
#   From: 2010.05.17/outbox.cif.g08.bks.cpg/sg69_16_cif.got.tgz:30111.got - 2010.06.03 19:29:58.
