data_PCOD9511534
_publ_section_title
;
Structure prediction by ZEFSAII (Michael W. Deem and Ramdas Pophale) SiO2 
 PCOD9511534
Probable space group: F M M M
;
_chemical_formula_sum "Si O2"
_cell_formula_units_Z 160
_cell_length_a 28.068302
_cell_length_b 14.333104
_cell_length_c 17.268986
_cell_angle_alpha 90.000000
_cell_angle_beta 90.000000
_cell_angle_gamma 90.000000
_cell_volume 6947.414811
_symmetry_space_group_name_H-M "F M M M"
_symmetry_group_IT_number 69
_symmetry_cell_setting 'orthorhombic'
loop_
_space_group_symop_operation_xyz
x,y,z
-x,-y,z
x,-y,-z
-x,y,-z
-x,-y,-z
x,y,-z
-x,y,z
x,-y,z
x,1/2+y,1/2+z
-x,1/2-y,1/2+z
x,1/2-y,1/2-z
-x,1/2+y,1/2-z
-x,1/2-y,1/2-z
x,1/2+y,1/2-z
-x,1/2+y,1/2+z
x,1/2-y,1/2+z
1/2+x,y,1/2+z
1/2-x,-y,1/2+z
1/2+x,-y,1/2-z
1/2-x,y,1/2-z
1/2-x,-y,1/2-z
1/2+x,y,1/2-z
1/2-x,y,1/2+z
1/2+x,-y,1/2+z
1/2+x,1/2+y,z
1/2-x,1/2-y,z
1/2+x,1/2-y,-z
1/2-x,1/2+y,-z
1/2-x,1/2-y,-z
1/2+x,1/2+y,-z
1/2-x,1/2+y,z
1/2+x,1/2-y,z
loop_
_atom_site_type_symbol
_atom_site_label
_atom_site_fract_x
_atom_site_fract_y
_atom_site_fract_z
Si Si1 0.444051 0.886270 0.848368
Si Si2 0.616236 0.886987 0.000000
Si Si3 0.050122 0.386717 0.587387
Si Si4 0.230197 0.855070 0.500000
Si Si5 0.375694 0.613371 0.793386
Si Si6 0.767699 0.855981 0.831531
O O1 0.500000 0.855953 0.844080
O O2 0.415966 0.860119 0.926352
O O3 0.407452 0.858241 0.780170
O O4 0.446275 0.000000 0.845720
O O5 0.672075 0.855821 0.000000
O O6 0.619752 0.000000 0.000000
O O7 0.050624 0.354492 0.500000
O O8 0.052027 0.500000 0.585844
O O9 0.093738 0.353194 0.634533
O O10 0.000000 0.362457 0.625561
O O11 0.250000 0.750000 0.500000
O O12 0.250312 0.894200 0.416343
O O13 0.373131 0.500000 0.790496
O O14 0.323536 0.646622 0.814216
O O15 0.750000 0.899752 0.750000
O O16 0.750000 0.750000 0.832864
#
# Coordination Sequence:
#
# PCOD9511534 Si02
#       6
#    32  16  32  16  32  32
#     4   9  17  30  50  82 120 148 173 215 276 341
#     4  10  19  32  54  83 113 144 183 230 276 323
#     4   8  14  25  42  69 106 138 162 195 248 315
#     4  10  22  39  57  78 104 148 197 236 282 327
#     4  10  19  30  51  80 110 140 177 222 268 317
#     4  10  22  39  55  74 104 142 192 232 277 328
#
# _framework density 23.030149999999999
#
# number of rings (size 3 to 8) (size 9 to 14) (size 15 to 20)
#    0.000    2.600    0.000    2.700    1.400    4.800 
#    0.000    0.000    0.000    0.000    0.000   61.600 
#    0.000    0.000    0.000    0.000    0.000    1.600 
#
# Total GULP energy -222975.355666 kJ/mol
# GULP energy per Si atom -5574.383892 kJ/mol
# Density = 2.297773 g / cm^3
# Si number density = 23.030150 Si / 1000 Ang^3
#
#
#
# Elastic Constant Matrix: (Units=GPa)
#
#
# Indices 1 2 3 4 5 6 
#
# 1 300.7766 18.7269 131.0401 0.0000 0.0000 0.0000
# 2 18.7269 96.5242 19.6002 0.0000 0.0000 0.0000
# 3 131.0401 19.6002 184.0720 0.0000 0.0000 0.0000
# 4 0.0000 0.0000 0.0000 -95.3987 0.0000 0.0000
# 5 0.0000 0.0000 0.0000 0.0000 49.2826 0.0000
# 6 0.0000 0.0000 0.0000 0.0000 0.0000 41.6737
#
#
#
# Elastic Compliance Matrix: (Units=1/GPa)
#
#
# Indices 1 2 3 4 5 6 
#
# 1 0.004825 -0.000244 -0.003409 0.000000 0.000000 0.000000
# 2 -0.000244 0.010601 -0.000955 0.000000 0.000000 0.000000
# 3 -0.003409 -0.000955 0.007961 0.000000 0.000000 0.000000
# 4 0.000000 0.000000 0.000000 -0.010482 0.000000 0.000000
# 5 0.000000 0.000000 0.000000 0.000000 0.020291 0.000000
# 6 0.000000 0.000000 0.000000 0.000000 0.000000 0.023996
#
#
# Mechanical properties :
#
#
# Convention : Reuss Voigt Hill
#
# Bulk Modulus (GPa) = 70.56424 102.23411 86.39918
# Shear Modulus (GPa) = 70.29127 26.57857 48.43492
#
# Velocity S-wave (km/s) = 5.53061 3.40086 4.59094
# Velocity P-wave (km/s) = 8.45518 7.74008 8.10552
#
# Compressibility (1/GPa) = 0.01417148
#
# Stress axis : x y z
#
# Youngs Moduli (GPa) = 207.24843 94.32728 125.60868
#
# Poissons Ratio (x) = 0.02301 0.42820
# Poissons Ratio (y) = 0.05055 0.11998
# Poissons Ratio (z) = 0.70651 0.09010
#
# Static dielectric constant tensor:
#      x y z
#    x 1.712660 0.000000 0.000000 
#    y 0.000000 1.931590 0.000000 
#    z 0.000000 0.000000 1.948840 
# 
# From -- ./inp_files/26661.got.cif
#   From: 2010.05.17/outbox.cif.g08.bks.cpg/sg69_14_cif.got.tgz:26661.got - 2010.06.03 19:29:58.
