data_PCOD9511219
_publ_section_title
;
Structure prediction by ZEFSAII (Michael W. Deem and Ramdas Pophale) SiO2 
 PCOD9511219
Probable space group: F M M M
;
_chemical_formula_sum "Si O2"
_cell_formula_units_Z 176
_cell_length_a 17.064645
_cell_length_b 28.578133
_cell_length_c 16.308409
_cell_angle_alpha 90.000000
_cell_angle_beta 90.000000
_cell_angle_gamma 90.000000
_cell_volume 7953.214684
_symmetry_space_group_name_H-M "F M M M"
_symmetry_group_IT_number 69
_symmetry_cell_setting 'orthorhombic'
loop_
_space_group_symop_operation_xyz
x,y,z
-x,-y,z
x,-y,-z
-x,y,-z
-x,-y,-z
x,y,-z
-x,y,z
x,-y,z
x,1/2+y,1/2+z
-x,1/2-y,1/2+z
x,1/2-y,1/2-z
-x,1/2+y,1/2-z
-x,1/2-y,1/2-z
x,1/2+y,1/2-z
-x,1/2+y,1/2+z
x,1/2-y,1/2+z
1/2+x,y,1/2+z
1/2-x,-y,1/2+z
1/2+x,-y,1/2-z
1/2-x,y,1/2-z
1/2-x,-y,1/2-z
1/2+x,y,1/2-z
1/2-x,y,1/2+z
1/2+x,-y,1/2+z
1/2+x,1/2+y,z
1/2-x,1/2-y,z
1/2+x,1/2-y,-z
1/2-x,1/2+y,-z
1/2-x,1/2-y,-z
1/2+x,1/2+y,-z
1/2-x,1/2+y,z
1/2+x,1/2-y,z
loop_
_atom_site_type_symbol
_atom_site_label
_atom_site_fract_x
_atom_site_fract_y
_atom_site_fract_z
Si Si1 0.194344 0.142800 0.592885
Si Si2 0.126897 0.846488 0.912055
Si Si3 0.592965 0.947889 0.643519
Si Si4 0.154981 0.805145 0.744389
Si Si5 0.500000 0.056256 0.909191
Si Si6 0.338579 0.053360 0.177971
O O1 0.164339 0.136765 0.500000
O O2 0.280466 0.165067 0.584671
O O3 0.139879 0.171907 0.655341
O O4 0.212654 0.093320 0.637382
O O5 0.110490 0.902030 0.908716
O O6 0.108007 0.827883 0.820606
O O7 0.093884 0.829087 0.000000
O O8 0.500000 0.946434 0.666197
O O9 0.646215 0.945109 0.725389
O O10 0.606080 0.000000 0.607239
O O11 0.141945 0.750000 0.750000
O O12 0.250000 0.813098 0.750000
O O13 0.577902 0.066779 0.860870
O O14 0.500000 0.000000 0.915578
O O15 0.500000 0.076161 0.000000
O O16 0.317200 0.000000 0.155962
#
# Coordination Sequence:
#
# PCOD9511219 Si02
#       6
#    32  32  32  32  16  32
#     4  10  20  33  52  81 111 137 170 211 261 321
#     4  10  21  36  54  78 107 139 176 216 261 312
#     4  10  20  35  55  77 103 140 186 225 256 299
#     4   9  18  34  55  78 106 137 170 213 264 314
#     4   9  16  26  42  68 100 135 175 211 244 294
#     4  10  18  30  49  74 106 142 176 211 256 311
#
# _framework density 22.129415999999999
#
# number of rings (size 3 to 8) (size 9 to 14) (size 15 to 20)
#    0.000    2.273    2.727    0.545    0.000    3.273 
#    0.000    8.182    0.000    0.545    0.000    0.000 
#    0.000    0.000    0.000    0.000    0.000    0.000 
#
# Total GULP energy -245132.273502 kJ/mol
# GULP energy per Si atom -5571.188034 kJ/mol
# Density = 2.207905 g / cm^3
# Si number density = 22.129416 Si / 1000 Ang^3
#
#
#
# Elastic Constant Matrix: (Units=GPa)
#
#
# Indices 1 2 3 4 5 6 
#
# 1 34.0961 -1.6899 16.7982 0.0000 0.0000 0.0000
# 2 -1.6899 98.4809 68.8071 0.0000 0.0000 0.0000
# 3 16.7982 68.8071 170.4246 0.0000 0.0000 0.0000
# 4 0.0000 0.0000 0.0000 8.8755 0.0000 0.0000
# 5 0.0000 0.0000 0.0000 0.0000 1.3522 0.0000
# 6 0.0000 0.0000 0.0000 0.0000 0.0000 -14.0359
#
#
#
# Elastic Compliance Matrix: (Units=1/GPa)
#
#
# Indices 1 2 3 4 5 6 
#
# 1 0.031822 0.003813 -0.004676 0.000000 0.000000 0.000000
# 2 0.003813 0.014601 -0.006271 0.000000 0.000000 0.000000
# 3 -0.004676 -0.006271 0.008860 0.000000 0.000000 0.000000
# 4 0.000000 0.000000 0.000000 0.112670 0.000000 0.000000
# 5 0.000000 0.000000 0.000000 0.000000 0.739540 0.000000
# 6 0.000000 0.000000 0.000000 0.000000 0.000000 -0.071246
#
#
# Mechanical properties :
#
#
# Convention : Reuss Voigt Hill
#
# Bulk Modulus (GPa) = 24.38104 52.31472 38.34788
# Shear Modulus (GPa) = 5.78579 13.84410 9.81494
#
# Velocity S-wave (km/s) = 1.61870 2.50391 2.10829
# Velocity P-wave (km/s) = 3.81248 5.66137 4.82629
#
# Compressibility (1/GPa) = 0.04101548
#
# Stress axis : x y z
#
# Youngs Moduli (GPa) = 31.42516 68.48828 112.86177
#
# Poissons Ratio (x) = -0.26116 0.52775
# Poissons Ratio (y) = -0.11983 0.70774
# Poissons Ratio (z) = 0.14695 0.42948
#
# Static dielectric constant tensor:
#      x y z
#    x 1.947000 0.000000 0.000000 
#    y 0.000000 1.813500 0.000000 
#    z 0.000000 0.000000 1.870260 
# 
# From -- ./inp_files/18112.got.cif
#   From: 2010.05.17/outbox.cif.g08.bks.cpg/sg69_10_cif.got.tgz:18112.got - 2010.06.03 19:29:58.
