data_PCOD9511691
_publ_section_title
;
Structure prediction by ZEFSAII (Michael W. Deem and Ramdas Pophale) SiO2 
 PCOD9511691
Probable space group: F M M M
;
_chemical_formula_sum "Si O2"
_cell_formula_units_Z 120
_cell_length_a 25.116153
_cell_length_b 25.244969
_cell_length_c 10.339696
_cell_angle_alpha 90.000000
_cell_angle_beta 90.000000
_cell_angle_gamma 90.000000
_cell_volume 6555.951497
_symmetry_space_group_name_H-M "F M M M"
_symmetry_group_IT_number 69
_symmetry_cell_setting 'orthorhombic'
loop_
_space_group_symop_operation_xyz
x,y,z
-x,-y,z
x,-y,-z
-x,y,-z
-x,-y,-z
x,y,-z
-x,y,z
x,-y,z
x,1/2+y,1/2+z
-x,1/2-y,1/2+z
x,1/2-y,1/2-z
-x,1/2+y,1/2-z
-x,1/2-y,1/2-z
x,1/2+y,1/2-z
-x,1/2+y,1/2+z
x,1/2-y,1/2+z
1/2+x,y,1/2+z
1/2-x,-y,1/2+z
1/2+x,-y,1/2-z
1/2-x,y,1/2-z
1/2-x,-y,1/2-z
1/2+x,y,1/2-z
1/2-x,y,1/2+z
1/2+x,-y,1/2+z
1/2+x,1/2+y,z
1/2-x,1/2-y,z
1/2+x,1/2-y,-z
1/2-x,1/2+y,-z
1/2-x,1/2-y,-z
1/2+x,1/2+y,-z
1/2-x,1/2+y,z
1/2+x,1/2-y,z
loop_
_atom_site_type_symbol
_atom_site_label
_atom_site_fract_x
_atom_site_fract_y
_atom_site_fract_z
Si Si1 0.867425 0.604964 0.790083
Si Si2 0.559459 0.000000 0.215729
Si Si3 0.786846 0.564133 0.000000
Si Si4 0.562029 0.205339 0.145635
Si Si5 0.164068 0.902163 0.000000
Si Si6 0.085028 0.000000 0.000000
O O1 0.905791 0.553086 0.807454
O O2 0.900301 0.654797 0.841864
O O3 0.850007 0.620277 0.642934
O O4 0.816380 0.588986 0.875413
O O5 0.500000 0.000000 0.156784
O O6 0.553238 0.000000 0.369685
O O7 0.791939 0.500000 0.000000
O O8 0.725153 0.579858 0.000000
O O9 0.500000 0.189645 0.166988
O O10 0.575411 0.250000 0.250000
O O11 0.566019 0.227059 0.000000
O O12 0.124497 0.951297 0.000000
#
# Coordination Sequence:
#
# PCOD9511691 Si02
#       6
#    32  16  16  32  16   8
#     4  11  22  38  58  91 121 156 198 248 302 356
#     4  10  19  32  52  84 123 158 183 231 302 365
#     4  12  22  38  60  88 123 163 204 250 298 360
#     4  10  22  41  65  91 120 159 203 246 294 359
#     4  10  22  35  59  83 119 157 203 243 291 348
#     4   8  17  32  48  76 114 156 195 234 270 340
#
# _framework density 18.303979000000002
#
# number of rings (size 3 to 8) (size 9 to 14) (size 15 to 20)
#    0.000    1.600    3.333    1.800    1.867    1.067 
#    0.000    2.000    0.000    4.800    0.000    0.000 
#    0.000    0.000    0.000    0.000    0.000    0.000 
#
# Total GULP energy -167114.227510 kJ/mol
# GULP energy per Si atom -5570.474250 kJ/mol
# Density = 1.826232 g / cm^3
# Si number density = 18.303979 Si / 1000 Ang^3
#
#
#
# Elastic Constant Matrix: (Units=GPa)
#
#
# Indices 1 2 3 4 5 6 
#
# 1 120.3231 38.5757 36.1254 0.0000 0.0000 0.0000
# 2 38.5757 79.7603 33.6550 -0.0001 0.0001 0.0000
# 3 36.1254 33.6550 115.8369 -0.0001 0.0000 0.0000
# 4 0.0000 -0.0001 -0.0001 24.3683 0.0002 0.0000
# 5 0.0000 0.0001 0.0000 0.0002 15.4005 0.0000
# 6 0.0000 0.0000 0.0000 0.0000 0.0000 21.6606
#
#
#
# Elastic Compliance Matrix: (Units=1/GPa)
#
#
# Indices 1 2 3 4 5 6 
#
# 1 0.010226 -0.004103 -0.001997 0.000000 0.000000 0.000000
# 2 -0.004103 0.015936 -0.003350 0.000000 0.000000 0.000000
# 3 -0.001997 -0.003350 0.010229 0.000000 0.000000 0.000000
# 4 0.000000 0.000000 0.000000 0.041037 0.000000 0.000000
# 5 0.000000 0.000000 0.000000 0.000000 0.064933 0.000000
# 6 0.000000 0.000000 0.000000 0.000000 0.000000 0.046167
#
#
# Mechanical properties :
#
#
# Convention : Reuss Voigt Hill
#
# Bulk Modulus (GPa) = 57.17607 59.18139 58.17873
# Shear Modulus (GPa) = 23.44578 26.12350 24.78464
#
# Velocity S-wave (km/s) = 3.58287 3.78193 3.68374
# Velocity P-wave (km/s) = 6.95850 7.17450 7.06732
#
# Compressibility (1/GPa) = 0.01748984
#
# Stress axis : x y z
#
# Youngs Moduli (GPa) = 97.79000 62.75220 97.76113
#
# Poissons Ratio (x) = 0.25748 0.19523
# Poissons Ratio (y) = 0.40124 0.32753
# Poissons Ratio (z) = 0.19529 0.21024
#
# Static dielectric constant tensor:
#      x y z
#    x 1.606810 0.000000 0.000000 
#    y 0.000000 1.581630 0.000000 
#    z 0.000000 0.000000 1.702770 
# 
# From -- ./inp_files/9972.got.cif
#   From: 2010.05.17/outbox.cif.g08.bks.cpg/sg69_5_cif.got.tgz:9972.got - 2010.06.03 19:29:58.
