data_PCOD9511434
_publ_section_title
;
Structure prediction by ZEFSAII (Michael W. Deem and Ramdas Pophale) SiO2 
 PCOD9511434
Probable space group: F M M M
;
_chemical_formula_sum "Si O2"
_cell_formula_units_Z 160
_cell_length_a 28.594182
_cell_length_b 20.250260
_cell_length_c 18.574526
_cell_angle_alpha 90.000000
_cell_angle_beta 90.000000
_cell_angle_gamma 90.000000
_cell_volume 10755.386476
_symmetry_space_group_name_H-M "F M M M"
_symmetry_group_IT_number 69
_symmetry_cell_setting 'orthorhombic'
loop_
_space_group_symop_operation_xyz
x,y,z
-x,-y,z
x,-y,-z
-x,y,-z
-x,-y,-z
x,y,-z
-x,y,z
x,-y,z
x,1/2+y,1/2+z
-x,1/2-y,1/2+z
x,1/2-y,1/2-z
-x,1/2+y,1/2-z
-x,1/2-y,1/2-z
x,1/2+y,1/2-z
-x,1/2+y,1/2+z
x,1/2-y,1/2+z
1/2+x,y,1/2+z
1/2-x,-y,1/2+z
1/2+x,-y,1/2-z
1/2-x,y,1/2-z
1/2-x,-y,1/2-z
1/2+x,y,1/2-z
1/2-x,y,1/2+z
1/2+x,-y,1/2+z
1/2+x,1/2+y,z
1/2-x,1/2-y,z
1/2+x,1/2-y,-z
1/2-x,1/2+y,-z
1/2-x,1/2-y,-z
1/2+x,1/2+y,-z
1/2-x,1/2+y,z
1/2+x,1/2-y,z
loop_
_atom_site_type_symbol
_atom_site_label
_atom_site_fract_x
_atom_site_fract_y
_atom_site_fract_z
Si Si1 0.054097 0.577740 0.586294
Si Si2 0.194595 0.000000 0.914643
Si Si3 0.353320 0.635583 0.862019
Si Si4 0.694546 0.736794 0.421085
Si Si5 0.282387 0.000000 0.178719
Si Si6 0.697073 0.643433 0.715407
O O1 0.060581 0.584313 0.500000
O O2 0.062052 0.500000 0.603130
O O3 0.092146 0.622436 0.625396
O O4 0.000000 0.592931 0.602690
O O5 0.171688 0.066372 0.882909
O O6 0.248297 0.000000 0.889604
O O7 0.188778 0.000000 0.000000
O O8 0.332741 0.694536 0.910133
O O9 0.338252 0.652560 0.781093
O O10 0.682089 0.708293 0.500000
O O11 0.750000 0.750000 0.422091
O O12 0.687983 0.691752 0.350935
O O13 0.250000 0.000000 0.250000
O O14 0.308349 0.930898 0.185378
O O15 0.750000 0.651519 0.750000
#
# Coordination Sequence:
#
# PCOD9511434 Si02
#       6
#    32  16  32  32  16  32
#     4   9  18  32  50  76 107 133 165 213 264 311
#     4  12  20  28  47  73  98 128 172 209 242 299
#     4  12  20  31  52  73 102 137 167 205 253 312
#     4  11  22  33  47  70  99 136 180 214 245 301
#     4  10  18  34  44  64  94 132 163 209 242 291
#     4  11  20  34  50  67 100 134 171 209 253 296
#
# _framework density 14.876267
#
# number of rings (size 3 to 8) (size 9 to 14) (size 15 to 20)
#    0.000    1.200    7.000    3.000    0.000    2.400 
#    0.000    0.000    0.000    2.400    0.000    0.000 
#    0.000    0.000    0.000    2.200    0.000    0.200 
#
# Total GULP energy -223083.416683 kJ/mol
# GULP energy per Si atom -5577.085417 kJ/mol
# Density = 1.484241 g / cm^3
# Si number density = 14.876267 Si / 1000 Ang^3
#
#
#
# Elastic Constant Matrix: (Units=GPa)
#
#
# Indices 1 2 3 4 5 6 
#
# 1 92.0945 26.2794 35.7880 0.0000 0.0000 0.0000
# 2 26.2794 75.2005 41.7631 0.0000 0.0000 0.0000
# 3 35.7880 41.7631 116.3286 0.0000 0.0000 0.0000
# 4 0.0000 0.0000 0.0000 20.7685 0.0000 0.0000
# 5 0.0000 0.0000 0.0000 0.0000 21.5480 0.0000
# 6 0.0000 0.0000 0.0000 0.0000 0.0000 19.1709
#
#
#
# Elastic Compliance Matrix: (Units=1/GPa)
#
#
# Indices 1 2 3 4 5 6 
#
# 1 0.012806 -0.002857 -0.002914 0.000000 0.000000 0.000000
# 2 -0.002857 0.017247 -0.005313 0.000000 0.000000 0.000000
# 3 -0.002914 -0.005313 0.011400 0.000000 0.000000 0.000000
# 4 0.000000 0.000000 0.000000 0.048150 0.000000 0.000000
# 5 0.000000 0.000000 0.000000 0.000000 0.046408 0.000000
# 6 0.000000 0.000000 0.000000 0.000000 0.000000 0.052162
#
#
# Mechanical properties :
#
#
# Convention : Reuss Voigt Hill
#
# Bulk Modulus (GPa) = 51.85268 54.58718 53.21993
# Shear Modulus (GPa) = 23.06602 24.28369 23.67486
#
# Velocity S-wave (km/s) = 3.94194 4.04465 3.99363
# Velocity P-wave (km/s) = 7.45991 7.65416 7.55765
#
# Compressibility (1/GPa) = 0.01928541
#
# Stress axis : x y z
#
# Youngs Moduli (GPa) = 78.08827 57.98230 87.71777
#
# Poissons Ratio (x) = 0.16564 0.25562
# Poissons Ratio (y) = 0.22308 0.46603
# Poissons Ratio (z) = 0.22756 0.30805
#
# Static dielectric constant tensor:
#      x y z
#    x 1.485810 0.000000 0.000000 
#    y 0.000000 1.515580 0.000000 
#    z 0.000000 0.000000 1.511520 
# 
# From -- ./inp_files/26887.got.cif
#   From: 2010.05.17/outbox.cif.g08.bks.cpg/sg69_14_cif.got.tgz:26887.got - 2010.06.03 19:29:58.
