data_PCOD9511609
_publ_section_title
;
Structure prediction by ZEFSAII (Michael W. Deem and Ramdas Pophale) SiO2 
 PCOD9511609
Probable space group: F M M M
;
_chemical_formula_sum "Si O2"
_cell_formula_units_Z 160
_cell_length_a 21.721990
_cell_length_b 24.488235
_cell_length_c 14.586023
_cell_angle_alpha 90.000000
_cell_angle_beta 90.000000
_cell_angle_gamma 90.000000
_cell_volume 7758.789828
_symmetry_space_group_name_H-M "F M M M"
_symmetry_group_IT_number 69
_symmetry_cell_setting 'orthorhombic'
loop_
_space_group_symop_operation_xyz
x,y,z
-x,-y,z
x,-y,-z
-x,y,-z
-x,-y,-z
x,y,-z
-x,y,z
x,-y,z
x,1/2+y,1/2+z
-x,1/2-y,1/2+z
x,1/2-y,1/2-z
-x,1/2+y,1/2-z
-x,1/2-y,1/2-z
x,1/2+y,1/2-z
-x,1/2+y,1/2+z
x,1/2-y,1/2+z
1/2+x,y,1/2+z
1/2-x,-y,1/2+z
1/2+x,-y,1/2-z
1/2-x,y,1/2-z
1/2-x,-y,1/2-z
1/2+x,y,1/2-z
1/2-x,y,1/2+z
1/2+x,-y,1/2+z
1/2+x,1/2+y,z
1/2-x,1/2-y,z
1/2+x,1/2-y,-z
1/2-x,1/2+y,-z
1/2-x,1/2-y,-z
1/2+x,1/2+y,-z
1/2-x,1/2+y,z
1/2+x,1/2-y,z
loop_
_atom_site_type_symbol
_atom_site_label
_atom_site_fract_x
_atom_site_fract_y
_atom_site_fract_z
Si Si1 0.192586 0.377554 0.396513
Si Si2 0.847012 0.500000 0.402341
Si Si3 0.174324 0.614642 0.111625
Si Si4 0.931359 0.801798 0.611282
Si Si5 0.178393 0.000000 0.711592
Si Si6 0.568774 0.175400 0.388084
O O1 0.192903 0.354721 0.500000
O O2 0.190296 0.443333 0.404073
O O3 0.258759 0.363330 0.356910
O O4 0.127868 0.358531 0.355378
O O5 0.883337 0.500000 0.500000
O O6 0.869054 0.500000 0.297874
O O7 0.120875 0.656140 0.139408
O O8 0.167867 0.554756 0.154337
O O9 0.175161 0.610535 0.000000
O O10 0.931144 0.801658 0.500000
O O11 0.921779 0.738712 0.637865
O O12 0.000000 0.817973 0.641140
O O13 0.250000 0.000000 0.750000
O O14 0.567482 0.172052 0.500000
O O15 0.500000 0.158152 0.358395
#
# Coordination Sequence:
#
# PCOD9511609 Si02
#       6
#    32  16  32  32  16  32
#     4   9  16  27  46  73 104 135 174 225 268 310
#     4  10  20  35  53  77 106 135 176 225 270 320
#     4  10  19  31  51  82 113 141 178 218 258 316
#     4   8  15  29  49  75 110 147 179 216 265 318
#     4  12  21  33  55  77 103 146 175 211 273 321
#     4   8  14  26  46  73 104 142 185 222 264 318
#
# _framework density 20.621772
#
# number of rings (size 3 to 8) (size 9 to 14) (size 15 to 20)
#    0.000    2.800    2.000    1.500    0.000    0.800 
#    0.000    5.000    0.000    9.000    0.000    2.800 
#    0.000    0.000    0.000    0.000    0.000    0.200 
#
# Total GULP energy -222733.337618 kJ/mol
# GULP energy per Si atom -5568.333440 kJ/mol
# Density = 2.057484 g / cm^3
# Si number density = 20.621772 Si / 1000 Ang^3
#
#
#
# Elastic Constant Matrix: (Units=GPa)
#
#
# Indices 1 2 3 4 5 6 
#
# 1 188.5577 98.4155 10.2565 0.0000 0.0000 0.0000
# 2 98.4155 82.6886 2.0015 0.0000 0.0000 0.0000
# 3 10.2565 2.0015 90.4546 0.0000 0.0000 0.0000
# 4 0.0000 0.0000 0.0000 -20.1294 0.0000 0.0000
# 5 0.0000 0.0000 0.0000 0.0000 -4.1295 0.0000
# 6 0.0000 0.0000 0.0000 0.0000 0.0000 -298.5372
#
#
#
# Elastic Compliance Matrix: (Units=1/GPa)
#
#
# Indices 1 2 3 4 5 6 
#
# 1 0.014137 -0.016795 -0.001231 0.000000 0.000000 0.000000
# 2 -0.016795 0.032055 0.001195 0.000000 0.000000 0.000000
# 3 -0.001231 0.001195 0.011168 0.000000 0.000000 0.000000
# 4 0.000000 0.000000 0.000000 -0.049679 0.000000 0.000000
# 5 0.000000 0.000000 0.000000 0.000000 -0.242159 0.000000
# 6 0.000000 0.000000 0.000000 0.000000 0.000000 -0.003350
#
#
# Mechanical properties :
#
#
# Convention : Reuss Voigt Hill
#
# Bulk Modulus (GPa) = 42.20076 64.78312 53.49194
# Shear Modulus (GPa) = -25.47573 -47.82405 -36.64989
#
# Velocity S-wave (km/s) = -3.51861 -4.82093 -4.22031
# Velocity P-wave (km/s) = 2.00028 0.70327 1.49928
#
# Compressibility (1/GPa) = 0.02369626
#
# Stress axis : x y z
#
# Youngs Moduli (GPa) = 70.73834 31.19684 89.53805
#
# Poissons Ratio (x) = 0.52397 0.11025
# Poissons Ratio (y) = 1.18809 -0.10701
# Poissons Ratio (z) = 0.08710 -0.03728
#
# Static dielectric constant tensor:
#      x y z
#    x 1.750840 0.000000 0.000000 
#    y 0.000000 1.686230 0.000000 
#    z 0.000000 0.000000 1.834310 
# 
# From -- ./inp_files/24920.got.cif
#   From: 2010.05.17/outbox.cif.g08.bks.cpg/sg69_13_cif.got.tgz:24920.got - 2010.06.03 19:29:58.
