data_PCOD9511351
_publ_section_title
;
Structure prediction by ZEFSAII (Michael W. Deem and Ramdas Pophale) SiO2 
 PCOD9511351
Probable space group: F M M M
;
_chemical_formula_sum "Si O2"
_cell_formula_units_Z 192
_cell_length_a 20.692770
_cell_length_b 27.311312
_cell_length_c 14.717817
_cell_angle_alpha 90.000000
_cell_angle_beta 90.000000
_cell_angle_gamma 90.000000
_cell_volume 8317.725674
_symmetry_space_group_name_H-M "F M M M"
_symmetry_group_IT_number 69
_symmetry_cell_setting 'orthorhombic'
loop_
_space_group_symop_operation_xyz
x,y,z
-x,-y,z
x,-y,-z
-x,y,-z
-x,-y,-z
x,y,-z
-x,y,z
x,-y,z
x,1/2+y,1/2+z
-x,1/2-y,1/2+z
x,1/2-y,1/2-z
-x,1/2+y,1/2-z
-x,1/2-y,1/2-z
x,1/2+y,1/2-z
-x,1/2+y,1/2+z
x,1/2-y,1/2+z
1/2+x,y,1/2+z
1/2-x,-y,1/2+z
1/2+x,-y,1/2-z
1/2-x,y,1/2-z
1/2-x,-y,1/2-z
1/2+x,y,1/2-z
1/2-x,y,1/2+z
1/2+x,-y,1/2+z
1/2+x,1/2+y,z
1/2-x,1/2-y,z
1/2+x,1/2-y,-z
1/2-x,1/2+y,-z
1/2-x,1/2-y,-z
1/2+x,1/2+y,-z
1/2-x,1/2+y,z
1/2+x,1/2-y,z
loop_
_atom_site_type_symbol
_atom_site_label
_atom_site_fract_x
_atom_site_fract_y
_atom_site_fract_z
Si Si1 0.500000 0.058849 0.864500
Si Si2 0.375632 0.614792 0.141504
Si Si3 0.865505 0.608272 0.140646
Si Si4 0.311792 0.283257 0.608489
Si Si5 0.755682 0.445835 0.639593
Si Si6 0.500000 0.944370 0.357475
Si Si7 0.072523 0.221234 0.892673
O O1 0.563499 0.090762 0.892042
O O2 0.500000 0.057149 0.753493
O O3 0.500000 0.000000 0.891018
O O4 0.372844 0.610434 0.250492
O O5 0.307909 0.593604 0.108633
O O6 0.435966 0.582704 0.110282
O O7 0.391322 0.669830 0.116001
O O8 0.825881 0.658757 0.120651
O O9 0.816006 0.566582 0.109244
O O10 0.310025 0.276203 0.500000
O O11 0.250000 0.250000 0.641899
O O12 0.378273 0.260547 0.646596
O O13 0.777245 0.500000 0.614172
O O14 0.750000 0.444258 0.750000
O O15 0.500000 0.000000 0.385795
O O16 0.000000 0.219280 0.853858
O O17 0.065947 0.231754 0.000000
#
# Coordination Sequence:
#
# PCOD9511351 Si02
#       7
#    16  32  32  32  32  16  32
#     4   9  18  32  52  79 112 146 177 217 272 335
#     4  10  18  32  52  81 108 139 183 227 274 316
#     4  10  20  33  55  83 109 139 181 229 275 321
#     4  10  22  40  59  79 105 142 184 223 274 337
#     4   9  17  30  51  79 110 141 176 220 268 321
#     4   9  16  28  48  75 108 142 179 219 268 331
#     4  10  21  37  56  76 106 147 185 222 271 329
#
# _framework density 23.083234000000001
#
# number of rings (size 3 to 8) (size 9 to 14) (size 15 to 20)
#    0.000    2.333    0.833    2.000    1.167    4.667 
#    0.000    1.667    0.000    6.000    0.000    0.000 
#    0.000    0.000    0.000    0.000    0.000    0.000 
#
# Total GULP energy -267660.515941 kJ/mol
# GULP energy per Si atom -5576.260749 kJ/mol
# Density = 2.303070 g / cm^3
# Si number density = 23.083234 Si / 1000 Ang^3
#
#
#
# Elastic Constant Matrix: (Units=GPa)
#
#
# Indices 1 2 3 4 5 6 
#
# 1 186.8277 47.4844 4.1509 0.0000 0.0000 0.0000
# 2 47.4844 101.5671 -14.5122 0.0000 0.0000 0.0000
# 3 4.1509 -14.5122 75.9661 0.0000 0.0000 0.0000
# 4 0.0000 0.0000 0.0000 22.1804 0.0000 0.0000
# 5 0.0000 0.0000 0.0000 0.0000 -5.1262 0.0000
# 6 0.0000 0.0000 0.0000 0.0000 0.0000 -37.4830
#
#
#
# Elastic Compliance Matrix: (Units=1/GPa)
#
#
# Indices 1 2 3 4 5 6 
#
# 1 0.006135 -0.002998 -0.000908 0.000000 0.000000 0.000000
# 2 -0.002998 0.011587 0.002377 0.000000 0.000000 0.000000
# 3 -0.000908 0.002377 0.013668 0.000000 0.000000 0.000000
# 4 0.000000 0.000000 0.000000 0.045085 0.000000 0.000000
# 5 0.000000 0.000000 0.000000 0.000000 -0.195077 0.000000
# 6 0.000000 0.000000 0.000000 0.000000 0.000000 -0.026679
#
#
# Mechanical properties :
#
#
# Convention : Reuss Voigt Hill
#
# Bulk Modulus (GPa) = 35.29536 48.73413 42.01475
# Shear Modulus (GPa) = -37.65603 17.73009 -9.96297
#
# Velocity S-wave (km/s) = -4.04334 2.77446 -2.07978
# Velocity P-wave (km/s) = 2.54449 5.60550 3.53180
#
# Compressibility (1/GPa) = 0.02833233
#
# Stress axis : x y z
#
# Youngs Moduli (GPa) = 163.00950 86.30451 73.16616
#
# Poissons Ratio (x) = 0.25872 0.06643
# Poissons Ratio (y) = 0.48866 -0.17394
# Poissons Ratio (z) = 0.14799 -0.20517
#
# Static dielectric constant tensor:
#      x y z
#    x 1.848140 0.000000 0.000000 
#    y 0.000000 2.435040 0.000000 
#    z 0.000000 0.000000 1.909240 
# 
# From -- ./inp_files/23690.got.cif
#   From: 2010.05.17/outbox.cif.g08.bks.cpg/sg69_12_cif.got.tgz:23690.got - 2010.06.03 19:29:58.
