data_PCOD9511909
_publ_section_title
;
Structure prediction by ZEFSAII (Michael W. Deem and Ramdas Pophale) SiO2 
 PCOD9511909
Probable space group: F M M M
;
_chemical_formula_sum "Si O2"
_cell_formula_units_Z 168
_cell_length_a 20.176098
_cell_length_b 15.325912
_cell_length_c 26.714480
_cell_angle_alpha 90.000000
_cell_angle_beta 90.000000
_cell_angle_gamma 90.000000
_cell_volume 8260.574099
_symmetry_space_group_name_H-M "F M M M"
_symmetry_group_IT_number 69
_symmetry_cell_setting 'orthorhombic'
loop_
_space_group_symop_operation_xyz
x,y,z
-x,-y,z
x,-y,-z
-x,y,-z
-x,-y,-z
x,y,-z
-x,y,z
x,-y,z
x,1/2+y,1/2+z
-x,1/2-y,1/2+z
x,1/2-y,1/2-z
-x,1/2+y,1/2-z
-x,1/2-y,1/2-z
x,1/2+y,1/2-z
-x,1/2+y,1/2+z
x,1/2-y,1/2+z
1/2+x,y,1/2+z
1/2-x,-y,1/2+z
1/2+x,-y,1/2-z
1/2-x,y,1/2-z
1/2-x,-y,1/2-z
1/2+x,y,1/2-z
1/2-x,y,1/2+z
1/2+x,-y,1/2+z
1/2+x,1/2+y,z
1/2-x,1/2-y,z
1/2+x,1/2-y,-z
1/2-x,1/2+y,-z
1/2-x,1/2-y,-z
1/2+x,1/2+y,-z
1/2-x,1/2+y,z
1/2+x,1/2-y,z
loop_
_atom_site_type_symbol
_atom_site_label
_atom_site_fract_x
_atom_site_fract_y
_atom_site_fract_z
Si Si1 0.072793 0.802020 0.000000
Si Si2 0.216416 0.604412 0.100624
Si Si3 0.930132 0.844480 0.827258
Si Si4 0.000000 0.000000 0.125908
Si Si5 0.710742 0.605752 0.201381
Si Si6 0.926808 0.184086 0.400727
Si Si7 0.711106 0.894840 0.500000
O O1 0.075987 0.740484 0.048449
O O2 0.135153 0.865267 0.000000
O O3 0.000000 0.847059 0.000000
O O4 0.222774 0.500000 0.100439
O O5 0.254669 0.636615 0.150054
O O6 0.138864 0.626842 0.101658
O O7 0.251410 0.637230 0.049924
O O8 0.864905 0.864256 0.796978
O O9 0.924376 0.753991 0.855934
O O10 0.000000 0.847115 0.797580
O O11 0.942967 0.922368 0.867675
O O12 0.711378 0.500000 0.201044
O O13 0.750000 0.635756 0.250000
O O14 0.000000 0.140651 0.399368
O O15 0.713669 0.000000 0.500000
#
# Coordination Sequence:
#
# PCOD9511909 Si02
#       7
#    16  32  32   8  32  32  16
#     4  10  21  36  52  82 112 146 181 227 283 335
#     4  10  22  38  57  81 110 149 190 230 279 327
#     4   9  17  33  56  80 107 143 182 217 274 338
#     4   8  16  32  58  81 104 148 176 217 274 352
#     4  10  19  34  56  84 115 146 185 231 276 332
#     4  10  21  37  56  80 112 145 188 235 278 326
#     4  10  21  38  58  84 118 149 185 231 272 332
#
# _framework density 20.337569999999999
#
# number of rings (size 3 to 8) (size 9 to 14) (size 15 to 20)
#    0.571    1.714    0.952    1.714    0.000    4.381 
#    1.714    2.857    0.000    9.143    0.000    0.000 
#    0.000    0.000    0.000    0.000    0.000    0.000 
#
# Total GULP energy -233807.302999 kJ/mol
# GULP energy per Si atom -5566.840548 kJ/mol
# Density = 2.029128 g / cm^3
# Si number density = 20.337570 Si / 1000 Ang^3
#
#
#
# Elastic Constant Matrix: (Units=GPa)
#
#
# Indices 1 2 3 4 5 6 
#
# 1 195.0953 17.7777 82.6987 0.0000 0.0000 0.0000
# 2 17.7777 22.5039 12.2074 0.0000 0.0000 0.0000
# 3 82.6987 12.2074 109.9857 0.0000 0.0000 0.0000
# 4 0.0000 0.0000 0.0000 -3.0141 0.0000 0.0000
# 5 0.0000 0.0000 0.0000 0.0000 -2.4320 0.0000
# 6 0.0000 0.0000 0.0000 0.0000 0.0000 49.6751
#
#
#
# Elastic Compliance Matrix: (Units=1/GPa)
#
#
# Indices 1 2 3 4 5 6 
#
# 1 0.007727 -0.003142 -0.005461 0.000000 0.000000 0.000000
# 2 -0.003142 0.048561 -0.003028 0.000000 0.000000 0.000000
# 3 -0.005461 -0.003028 0.013534 0.000000 0.000000 0.000000
# 4 0.000000 0.000000 0.000000 -0.331769 0.000000 0.000000
# 5 0.000000 0.000000 0.000000 0.000000 -0.411179 0.000000
# 6 0.000000 0.000000 0.000000 0.000000 0.000000 0.020131
#
#
# Mechanical properties :
#
#
# Convention : Reuss Voigt Hill
#
# Bulk Modulus (GPa) = 21.47704 61.43917 41.45810
# Shear Modulus (GPa) = -8.14050 23.17253 7.51602
#
# Velocity S-wave (km/s) = -2.00284 3.37915 1.92449
# Velocity P-wave (km/s) = 2.28795 6.74538 5.03661
#
# Compressibility (1/GPa) = 0.04656136
#
# Stress axis : x y z
#
# Youngs Moduli (GPa) = 129.41749 20.59269 73.88557
#
# Poissons Ratio (x) = 0.06470 0.40351
# Poissons Ratio (y) = 0.40659 0.22369
# Poissons Ratio (z) = 0.70678 0.06235
#
# Static dielectric constant tensor:
#      x y z
#    x 1.730460 0.000000 0.000000 
#    y 0.000000 1.704810 0.000000 
#    z 0.000000 0.000000 1.739110 
# 
# From -- ./inp_files/42616.got.cif
#   From: 2010.05.17/outbox.cif.g08.bks.cpg/sg69_22_cif.got.tgz:42616.got - 2010.06.03 19:29:58.
