data_PCOD9511077
_publ_section_title
;
Structure prediction by ZEFSAII (Michael W. Deem and Ramdas Pophale) SiO2 
 PCOD9511077
Probable space group: F M M M
;
_chemical_formula_sum "Si O2"
_cell_formula_units_Z 168
_cell_length_a 23.115982
_cell_length_b 14.167528
_cell_length_c 30.464963
_cell_angle_alpha 90.000000
_cell_angle_beta 90.000000
_cell_angle_gamma 90.000000
_cell_volume 9977.163339
_symmetry_space_group_name_H-M "F M M M"
_symmetry_group_IT_number 69
_symmetry_cell_setting 'orthorhombic'
loop_
_space_group_symop_operation_xyz
x,y,z
-x,-y,z
x,-y,-z
-x,y,-z
-x,-y,-z
x,y,-z
-x,y,z
x,-y,z
x,1/2+y,1/2+z
-x,1/2-y,1/2+z
x,1/2-y,1/2-z
-x,1/2+y,1/2-z
-x,1/2-y,1/2-z
x,1/2+y,1/2-z
-x,1/2+y,1/2+z
x,1/2-y,1/2+z
1/2+x,y,1/2+z
1/2-x,-y,1/2+z
1/2+x,-y,1/2-z
1/2-x,y,1/2-z
1/2-x,-y,1/2-z
1/2+x,y,1/2-z
1/2-x,y,1/2+z
1/2+x,-y,1/2+z
1/2+x,1/2+y,z
1/2-x,1/2-y,z
1/2+x,1/2-y,-z
1/2-x,1/2+y,-z
1/2-x,1/2-y,-z
1/2+x,1/2+y,-z
1/2-x,1/2+y,z
1/2+x,1/2-y,z
loop_
_atom_site_type_symbol
_atom_site_label
_atom_site_fract_x
_atom_site_fract_y
_atom_site_fract_z
Si Si1 0.432639 0.388155 0.357368
Si Si2 0.765724 0.108015 0.828705
Si Si3 0.158360 0.723612 0.799469
Si Si4 0.761142 0.360498 0.930475
Si Si5 0.287194 0.000000 0.500000
Si Si6 0.895532 0.889304 0.547660
O O1 0.500000 0.381647 0.345947
O O2 0.415850 0.500000 0.355606
O O3 0.392433 0.327025 0.325908
O O4 0.423489 0.353270 0.407533
O O5 0.818438 0.180817 0.822512
O O6 0.712915 0.151702 0.800685
O O7 0.745705 0.112622 0.879488
O O8 0.778366 0.000000 0.816953
O O9 0.142677 0.750000 0.750000
O O10 0.750000 0.250000 0.934551
O O11 0.718761 0.418580 0.961511
O O12 0.826300 0.383287 0.946167
O O13 0.911088 0.847444 0.500000
O O14 0.911243 0.000000 0.545915
#
# Coordination Sequence:
#
# PCOD9511077 Si02
#       6
#    32  32  32  32   8  32
#     4  10  21  37  58  80 107 144 183 229 284 332
#     4  11  20  35  57  80 113 146 178 222 279 335
#     4  11  23  37  56  81 108 142 185 233 281 331
#     4  12  19  31  49  74 112 151 180 218 262 321
#     4  12  22  28  44  82 107 156 187 212 260 320
#     4  10  17  30  49  75 108 140 175 214 263 322
#
# _framework density 16.838453999999999
#
# number of rings (size 3 to 8) (size 9 to 14) (size 15 to 20)
#    0.000    1.143    6.667    2.000    0.000    3.048 
#    0.000    1.905    0.000    0.571    0.000    0.000 
#    0.000    0.000    0.000    7.429    0.000    0.190 
#
# Total GULP energy -233834.006876 kJ/mol
# GULP energy per Si atom -5567.476354 kJ/mol
# Density = 1.680013 g / cm^3
# Si number density = 16.838454 Si / 1000 Ang^3
#
#
#
# Elastic Constant Matrix: (Units=GPa)
#
#
# Indices 1 2 3 4 5 6 
#
# 1 56.6901 29.8770 44.4418 0.0000 0.0000 0.0000
# 2 29.8770 118.7739 39.2003 0.0000 0.0000 0.0000
# 3 44.4418 39.2003 131.0896 0.0000 0.0000 0.0000
# 4 0.0000 0.0000 0.0000 34.1360 0.0000 0.0000
# 5 0.0000 0.0000 0.0000 0.0000 -5.8988 0.0000
# 6 0.0000 0.0000 0.0000 0.0000 0.0000 19.7895
#
#
#
# Elastic Compliance Matrix: (Units=1/GPa)
#
#
# Indices 1 2 3 4 5 6 
#
# 1 0.025606 -0.003968 -0.007494 0.000000 0.000000 0.000000
# 2 -0.003968 0.009956 -0.001632 0.000000 0.000000 0.000000
# 3 -0.007494 -0.001632 0.010657 0.000000 0.000000 0.000000
# 4 0.000000 0.000000 0.000000 0.029295 0.000000 0.000000
# 5 0.000000 0.000000 0.000000 0.000000 -0.169526 0.000000
# 6 0.000000 0.000000 0.000000 0.000000 0.000000 0.050532
#
#
# Mechanical properties :
#
#
# Convention : Reuss Voigt Hill
#
# Bulk Modulus (GPa) = 49.92285 59.28798 54.60542
# Shear Modulus (GPa) = -471.02848 22.47430 -224.27709
#
# Velocity S-wave (km/s) = -16.74339 3.65732 -11.55346
# Velocity P-wave (km/s) = 18.54928 7.28841 12.06140
#
# Compressibility (1/GPa) = 0.02003091
#
# Stress axis : x y z
#
# Youngs Moduli (GPa) = 39.05335 100.44138 93.83341
#
# Poissons Ratio (x) = 0.39851 0.70323
# Poissons Ratio (y) = 0.15495 0.15315
# Poissons Ratio (z) = 0.29268 0.16393
#
# Static dielectric constant tensor:
#      x y z
#    x 1.560520 0.000000 0.000000 
#    y 0.000000 1.552360 0.000000 
#    z 0.000000 0.000000 1.604350 
# 
# From -- ./inp_files/19673.got.cif
#   From: 2010.05.17/outbox.cif.g08.bks.cpg/sg69_10_cif.got.tgz:19673.got - 2010.06.03 19:29:58.
