data_PCOD9511295
_publ_section_title
;
Structure prediction by ZEFSAII (Michael W. Deem and Ramdas Pophale) SiO2 
 PCOD9511295
Probable space group: F M M M
;
_chemical_formula_sum "Si O2"
_cell_formula_units_Z 144
_cell_length_a 16.246910
_cell_length_b 13.962453
_cell_length_c 29.030306
_cell_angle_alpha 90.000000
_cell_angle_beta 90.000000
_cell_angle_gamma 90.000000
_cell_volume 6585.429617
_symmetry_space_group_name_H-M "F M M M"
_symmetry_group_IT_number 69
_symmetry_cell_setting 'orthorhombic'
loop_
_space_group_symop_operation_xyz
x,y,z
-x,-y,z
x,-y,-z
-x,y,-z
-x,-y,-z
x,y,-z
-x,y,z
x,-y,z
x,1/2+y,1/2+z
-x,1/2-y,1/2+z
x,1/2-y,1/2-z
-x,1/2+y,1/2-z
-x,1/2-y,1/2-z
x,1/2+y,1/2-z
-x,1/2+y,1/2+z
x,1/2-y,1/2+z
1/2+x,y,1/2+z
1/2-x,-y,1/2+z
1/2+x,-y,1/2-z
1/2-x,y,1/2-z
1/2-x,-y,1/2-z
1/2+x,y,1/2-z
1/2-x,y,1/2+z
1/2+x,-y,1/2+z
1/2+x,1/2+y,z
1/2-x,1/2-y,z
1/2+x,1/2-y,-z
1/2-x,1/2+y,-z
1/2-x,1/2-y,-z
1/2+x,1/2+y,-z
1/2-x,1/2+y,z
1/2+x,1/2-y,z
loop_
_atom_site_type_symbol
_atom_site_label
_atom_site_fract_x
_atom_site_fract_y
_atom_site_fract_z
Si Si1 0.824269 0.616788 0.281813
Si Si2 0.000000 0.890017 0.773108
Si Si3 0.000000 0.110767 0.392523
Si Si4 0.173041 0.383998 0.387984
Si Si5 0.500000 0.184133 0.625240
Si Si6 0.830044 0.614645 0.051612
O O1 0.826084 0.500000 0.282933
O O2 0.750000 0.645693 0.250000
O O3 0.911142 0.648690 0.260557
O O4 0.814046 0.646581 0.334787
O O5 0.000000 0.881662 0.829069
O O6 0.000000 0.000000 0.758324
O O7 0.000000 0.203963 0.359784
O O8 0.917552 0.124517 0.422824
O O9 0.000000 0.000000 0.374755
O O10 0.166782 0.500000 0.389193
O O11 0.251088 0.355101 0.418534
O O12 0.084205 0.340825 0.401287
O O13 0.820189 0.500000 0.047505
O O14 0.831545 0.655821 0.000000
#
# Coordination Sequence:
#
# PCOD9511295 Si02
#       6
#    32  16  16  32  16  32
#     4   8  13  23  42  72 109 142 170 203 246 304
#     4   8  14  26  46  74 110 146 174 204 256 324
#     4  10  21  36  53  73  98 135 183 227 267 316
#     4   9  17  31  53  81 110 140 176 217 266 324
#     4  10  18  31  52  77 106 142 176 214 264 321
#     4   9  18  35  56  75 102 140 178 222 273 320
#
# _framework density 21.866454999999998
#
# number of rings (size 3 to 8) (size 9 to 14) (size 15 to 20)
#    0.000    3.111    0.000    2.667    0.000    2.222 
#    0.000    5.000    0.000    9.333    0.000   18.667 
#    0.000   21.333    0.000    0.000    0.000    0.000 
#
# Total GULP energy -200725.302160 kJ/mol
# GULP energy per Si atom -5575.702838 kJ/mol
# Density = 2.181669 g / cm^3
# Si number density = 21.866455 Si / 1000 Ang^3
#
#
#
# Elastic Constant Matrix: (Units=GPa)
#
#
# Indices 1 2 3 4 5 6 
#
# 1 218.8019 12.9264 48.5722 0.0000 0.0000 0.0000
# 2 12.9264 105.3815 10.5842 0.0000 0.0000 0.0000
# 3 48.5722 10.5842 34.9768 0.0000 0.0000 0.0000
# 4 0.0000 0.0000 0.0000 -0.5289 0.0000 0.0000
# 5 0.0000 0.0000 0.0000 0.0000 14.7527 0.0000
# 6 0.0000 0.0000 0.0000 0.0000 0.0000 -98.1436
#
#
#
# Elastic Compliance Matrix: (Units=1/GPa)
#
#
# Indices 1 2 3 4 5 6 
#
# 1 0.006609 0.000115 -0.009212 0.000000 0.000000 0.000000
# 2 0.000115 0.009789 -0.003121 0.000000 0.000000 0.000000
# 3 -0.009212 -0.003121 0.042327 0.000000 0.000000 0.000000
# 4 0.000000 0.000000 0.000000 -1.890701 0.000000 0.000000
# 5 0.000000 0.000000 0.000000 0.000000 0.067784 0.000000
# 6 0.000000 0.000000 0.000000 0.000000 0.000000 -0.010189
#
#
# Mechanical properties :
#
#
# Convention : Reuss Voigt Hill
#
# Bulk Modulus (GPa) = 29.16511 55.92508 42.54510
# Shear Modulus (GPa) = -2.87602 2.35453 -0.26074
#
# Velocity S-wave (km/s) = -1.14809 1.03881 -0.34569
# Velocity P-wave (km/s) = 3.40724 5.20289 4.39769
#
# Compressibility (1/GPa) = 0.03428754
#
# Stress axis : x y z
#
# Youngs Moduli (GPa) = 151.31907 102.15794 23.62532
#
# Poissons Ratio (x) = -0.01171 0.21764
# Poissons Ratio (y) = -0.01734 0.07374
# Poissons Ratio (z) = 1.39394 0.31886
#
# Static dielectric constant tensor:
#      x y z
#    x 1.824170 0.000000 0.000000 
#    y 0.000000 1.814730 0.000000 
#    z 0.000000 0.000000 1.762310 
# 
# From -- ./inp_files/41713.got.cif
#   From: 2010.05.17/outbox.cif.g08.bks.cpg/sg69_21_cif.got.tgz:41713.got - 2010.06.03 19:29:58.
