data_PCOD9511297
_publ_section_title
;
Structure prediction by ZEFSAII (Michael W. Deem and Ramdas Pophale) SiO2 
 PCOD9511297
Probable space group: F M M M
;
_chemical_formula_sum "Si O2"
_cell_formula_units_Z 192
_cell_length_a 16.599451
_cell_length_b 18.037133
_cell_length_c 35.030719
_cell_angle_alpha 90.000000
_cell_angle_beta 90.000000
_cell_angle_gamma 90.000000
_cell_volume 10488.425158
_symmetry_space_group_name_H-M "F M M M"
_symmetry_group_IT_number 69
_symmetry_cell_setting 'orthorhombic'
loop_
_space_group_symop_operation_xyz
x,y,z
-x,-y,z
x,-y,-z
-x,y,-z
-x,-y,-z
x,y,-z
-x,y,z
x,-y,z
x,1/2+y,1/2+z
-x,1/2-y,1/2+z
x,1/2-y,1/2-z
-x,1/2+y,1/2-z
-x,1/2-y,1/2-z
x,1/2+y,1/2-z
-x,1/2+y,1/2+z
x,1/2-y,1/2+z
1/2+x,y,1/2+z
1/2-x,-y,1/2+z
1/2+x,-y,1/2-z
1/2-x,y,1/2-z
1/2-x,-y,1/2-z
1/2+x,y,1/2-z
1/2-x,y,1/2+z
1/2+x,-y,1/2+z
1/2+x,1/2+y,z
1/2-x,1/2-y,z
1/2+x,1/2-y,-z
1/2-x,1/2+y,-z
1/2-x,1/2-y,-z
1/2+x,1/2+y,-z
1/2-x,1/2+y,z
1/2+x,1/2-y,z
loop_
_atom_site_type_symbol
_atom_site_label
_atom_site_fract_x
_atom_site_fract_y
_atom_site_fract_z
Si Si1 0.094380 0.212303 0.710752
Si Si2 0.598248 0.339626 0.544282
Si Si3 0.780924 0.414598 0.793629
Si Si4 0.597623 0.320409 0.074472
Si Si5 0.319121 0.188344 0.651432
Si Si6 0.098085 0.914767 0.000000
Si Si7 0.405357 0.500000 0.546573
O O1 0.125307 0.250000 0.750000
O O2 0.139678 0.135488 0.704363
O O3 0.114942 0.267524 0.676329
O O4 0.000000 0.200780 0.714311
O O5 0.622518 0.330899 0.500000
O O6 0.500000 0.342832 0.544262
O O7 0.619988 0.265665 0.566621
O O8 0.628285 0.419906 0.558826
O O9 0.794050 0.500000 0.803673
O O10 0.750000 0.411113 0.750000
O O11 0.718328 0.375114 0.821966
O O12 0.500000 0.324603 0.078074
O O13 0.641937 0.342479 0.113048
O O14 0.621600 0.369760 0.037958
O O15 0.250000 0.250000 0.643572
O O16 0.000000 0.915880 0.000000
O O17 0.126313 0.000000 0.000000
O O18 0.500000 0.500000 0.557212
O O19 0.402720 0.500000 0.500000
#
# Coordination Sequence:
#
# PCOD9511297 Si02
#       7
#    32  32  32  32  32  16  16
#     4  10  19  34  59  86 112 144 186 234 281 336
#     4   8  12  21  40  66  94 130 174 219 271 328
#     4  10  20  36  58  83 114 152 188 225 281 349
#     4  10  18  31  52  78 107 141 189 239 281 339
#     4  10  21  35  56  81 110 147 192 233 286 338
#     4   9  18  32  51  75 103 141 183 229 293 349
#     4   7  10  16  32  62  94 124 165 212 261 319
#
# _framework density 18.305893000000001
#
# number of rings (size 3 to 8) (size 9 to 14) (size 15 to 20)
#    0.000    2.667    2.500    1.500    0.000    1.000 
#    0.000    0.417    7.333    1.500    0.000    0.000 
#    0.000    0.000    0.000    0.000    0.000    9.333 
#
# Total GULP energy -267582.729523 kJ/mol
# GULP energy per Si atom -5574.640198 kJ/mol
# Density = 1.826423 g / cm^3
# Si number density = 18.305893 Si / 1000 Ang^3
#
#
#
# Elastic Constant Matrix: (Units=GPa)
#
#
# Indices 1 2 3 4 5 6 
#
# 1 24.0198 40.8442 26.2744 0.0000 0.0000 0.0000
# 2 40.8442 157.9934 58.7058 0.0000 0.0000 0.0000
# 3 26.2744 58.7058 114.0603 0.0000 0.0000 0.0000
# 4 0.0000 0.0000 0.0000 0.0861 0.0000 0.0000
# 5 0.0000 0.0000 0.0000 0.0000 19.5676 0.0000
# 6 0.0000 0.0000 0.0000 0.0000 0.0000 3.9702
#
#
#
# Elastic Compliance Matrix: (Units=1/GPa)
#
#
# Indices 1 2 3 4 5 6 
#
# 1 0.082469 -0.017633 -0.009922 0.000000 0.000000 0.000000
# 2 -0.017633 0.011596 -0.001907 0.000000 0.000000 0.000000
# 3 -0.009922 -0.001907 0.012034 0.000000 0.000000 0.000000
# 4 0.000000 0.000000 0.000000 11.612190 0.000000 0.000000
# 5 0.000000 0.000000 0.000000 0.000000 0.051105 0.000000
# 6 0.000000 0.000000 0.000000 0.000000 0.000000 0.251879
#
#
# Mechanical properties :
#
#
# Convention : Reuss Voigt Hill
#
# Bulk Modulus (GPa) = 21.19686 60.85804 41.02745
# Shear Modulus (GPa) = 0.41336 16.07471 8.24403
#
# Velocity S-wave (km/s) = 0.47571 2.96652 2.12444
# Velocity P-wave (km/s) = 3.45052 6.71199 5.33652
#
# Compressibility (1/GPa) = 0.04717680
#
# Stress axis : x y z
#
# Youngs Moduli (GPa) = 12.12574 86.23419 83.09711
#
# Poissons Ratio (x) = 1.52059 0.82446
# Poissons Ratio (y) = 0.21382 0.15843
# Poissons Ratio (z) = 0.12031 0.16442
#
# Static dielectric constant tensor:
#      x y z
#    x 1.627640 0.000000 0.000000 
#    y 0.000000 1.634200 0.000000 
#    z 0.000000 0.000000 1.570070 
# 
# From -- ./inp_files/46397.got.cif
#   From: 2010.05.17/outbox.cif.g08.bks.cpg/sg69_24_cif.got.tgz:46397.got - 2010.06.03 19:29:58.
