data_PCOD9511287
_publ_section_title
;
Structure prediction by ZEFSAII (Michael W. Deem and Ramdas Pophale) SiO2 
 PCOD9511287
Probable space group: F M M M
;
_chemical_formula_sum "Si O2"
_cell_formula_units_Z 144
_cell_length_a 14.619741
_cell_length_b 21.551828
_cell_length_c 20.445613
_cell_angle_alpha 90.000000
_cell_angle_beta 90.000000
_cell_angle_gamma 90.000000
_cell_volume 6442.047568
_symmetry_space_group_name_H-M "F M M M"
_symmetry_group_IT_number 69
_symmetry_cell_setting 'orthorhombic'
loop_
_space_group_symop_operation_xyz
x,y,z
-x,-y,z
x,-y,-z
-x,y,-z
-x,-y,-z
x,y,-z
-x,y,z
x,-y,z
x,1/2+y,1/2+z
-x,1/2-y,1/2+z
x,1/2-y,1/2-z
-x,1/2+y,1/2-z
-x,1/2-y,1/2-z
x,1/2+y,1/2-z
-x,1/2+y,1/2+z
x,1/2-y,1/2+z
1/2+x,y,1/2+z
1/2-x,-y,1/2+z
1/2+x,-y,1/2-z
1/2-x,y,1/2-z
1/2-x,-y,1/2-z
1/2+x,y,1/2-z
1/2-x,y,1/2+z
1/2+x,-y,1/2+z
1/2+x,1/2+y,z
1/2-x,1/2-y,z
1/2+x,1/2-y,-z
1/2-x,1/2+y,-z
1/2-x,1/2-y,-z
1/2+x,1/2+y,-z
1/2-x,1/2+y,z
1/2+x,1/2-y,z
loop_
_atom_site_type_symbol
_atom_site_label
_atom_site_fract_x
_atom_site_fract_y
_atom_site_fract_z
Si Si1 0.641891 0.744073 0.500000
Si Si2 0.605960 0.901028 0.000000
Si Si3 0.888105 0.069590 0.354344
Si Si4 0.388256 0.677347 0.746773
Si Si5 0.392870 0.158023 0.609927
Si Si6 0.612654 0.069471 0.500000
O O1 0.750000 0.750000 0.500000
O O2 0.611065 0.673652 0.500000
O O3 0.611448 0.779408 0.566311
O O4 0.642754 0.922883 0.929830
O O5 0.500000 0.920724 0.000000
O O6 0.859965 0.128637 0.309480
O O7 0.000000 0.071283 0.354372
O O8 0.861916 0.000000 0.330801
O O9 0.500000 0.677907 0.744072
O O10 0.361639 0.750000 0.750000
O O11 0.354437 0.655932 0.817965
O O12 0.500000 0.145164 0.618440
O O13 0.353971 0.106057 0.562828
O O14 0.500000 0.071709 0.500000
O O15 0.642228 0.000000 0.500000
#
# Coordination Sequence:
#
# PCOD9511287 Si02
#       6
#    16  16  32  32  32  16
#     4  11  21  32  49  73  98 125 164 217 259 294
#     4  10  18  31  52  72  98 136 170 204 254 312
#     4   9  17  28  46  77 109 132 163 209 255 301
#     4   9  16  26  43  69  99 129 161 198 241 290
#     4   9  17  30  48  70  97 126 157 193 239 296
#     4   8  14  24  40  63  87 114 150 187 223 268
#
# _framework density 22.353141000000001
#
# number of rings (size 3 to 8) (size 9 to 14) (size 15 to 20)
#    0.000    2.778    0.000    3.333    0.000    5.778 
#    0.000    4.444    0.000   11.333    0.000    1.556 
#    0.000    0.000    0.000    0.000    0.000    0.000 
#
# Total GULP energy -200750.971529 kJ/mol
# GULP energy per Si atom -5576.415876 kJ/mol
# Density = 2.230226 g / cm^3
# Si number density = 22.353141 Si / 1000 Ang^3
#
#
#
# Elastic Constant Matrix: (Units=GPa)
#
#
# Indices 1 2 3 4 5 6 
#
# 1 69.8046 1.4576 6.2592 0.0000 0.0000 0.0000
# 2 1.4576 182.7627 94.6652 0.0000 0.0000 0.0000
# 3 6.2592 94.6652 190.5718 0.0000 0.0000 0.0000
# 4 0.0000 0.0000 0.0000 -33.1369 0.0000 0.0000
# 5 0.0000 0.0000 0.0000 0.0000 -26.5639 0.0000
# 6 0.0000 0.0000 0.0000 0.0000 0.0000 -14.9728
#
#
#
# Elastic Compliance Matrix: (Units=1/GPa)
#
#
# Indices 1 2 3 4 5 6 
#
# 1 0.014372 0.000175 -0.000559 0.000000 0.000000 0.000000
# 2 0.000175 0.007369 -0.003666 0.000000 0.000000 0.000000
# 3 -0.000559 -0.003666 0.007087 0.000000 0.000000 0.000000
# 4 0.000000 0.000000 0.000000 -0.030178 0.000000 0.000000
# 5 0.000000 0.000000 0.000000 0.000000 -0.037645 0.000000
# 6 0.000000 0.000000 0.000000 0.000000 0.000000 -0.066788
#
#
# Mechanical properties :
#
#
# Convention : Reuss Voigt Hill
#
# Bulk Modulus (GPa) = 48.24489 71.98923 60.11706
# Shear Modulus (GPa) = -55.08285 7.78242 -23.65021
#
# Velocity S-wave (km/s) = -4.96947 1.86792 -3.25626
# Velocity P-wave (km/s) = 3.36119 6.07680 3.57980
#
# Compressibility (1/GPa) = 0.02072758
#
# Stress axis : x y z
#
# Youngs Moduli (GPa) = 69.57889 135.69926 141.10420
#
# Poissons Ratio (x) = -0.02373 0.07886
# Poissons Ratio (y) = -0.01217 0.51734
# Poissons Ratio (z) = 0.03889 0.49752
#
# Static dielectric constant tensor:
#      x y z
#    x 1.835020 0.000000 0.000000 
#    y 0.000000 1.890370 0.000000 
#    z 0.000000 0.000000 1.759420 
# 
# From -- ./inp_files/30772.got.cif
#   From: 2010.05.17/outbox.cif.g08.bks.cpg/sg69_16_cif.got.tgz:30772.got - 2010.06.03 19:29:58.
