data_PCOD9511149
_publ_section_title
;
Structure prediction by ZEFSAII (Michael W. Deem and Ramdas Pophale) SiO2 
 PCOD9511149
Probable space group: F M M M
;
_chemical_formula_sum "Si O2"
_cell_formula_units_Z 208
_cell_length_a 17.556461
_cell_length_b 26.033730
_cell_length_c 28.782853
_cell_angle_alpha 90.000000
_cell_angle_beta 90.000000
_cell_angle_gamma 90.000000
_cell_volume 13155.495554
_symmetry_space_group_name_H-M "F M M M"
_symmetry_group_IT_number 69
_symmetry_cell_setting 'orthorhombic'
loop_
_space_group_symop_operation_xyz
x,y,z
-x,-y,z
x,-y,-z
-x,y,-z
-x,-y,-z
x,y,-z
-x,y,z
x,-y,z
x,1/2+y,1/2+z
-x,1/2-y,1/2+z
x,1/2-y,1/2-z
-x,1/2+y,1/2-z
-x,1/2-y,1/2-z
x,1/2+y,1/2-z
-x,1/2+y,1/2+z
x,1/2-y,1/2+z
1/2+x,y,1/2+z
1/2-x,-y,1/2+z
1/2+x,-y,1/2-z
1/2-x,y,1/2-z
1/2-x,-y,1/2-z
1/2+x,y,1/2-z
1/2-x,y,1/2+z
1/2+x,-y,1/2+z
1/2+x,1/2+y,z
1/2-x,1/2-y,z
1/2+x,1/2-y,-z
1/2-x,1/2+y,-z
1/2-x,1/2-y,-z
1/2+x,1/2+y,-z
1/2-x,1/2+y,z
1/2+x,1/2-y,z
loop_
_atom_site_type_symbol
_atom_site_label
_atom_site_fract_x
_atom_site_fract_y
_atom_site_fract_z
Si Si1 0.234424 0.309375 0.194826
Si Si2 0.591080 0.939297 0.445294
Si Si3 0.699067 0.398113 0.131337
Si Si4 0.000000 0.437621 0.947978
Si Si5 0.587252 0.628591 0.296102
Si Si6 0.364625 0.561382 0.381385
Si Si7 0.665433 0.942797 0.272465
O O1 0.250000 0.317731 0.250000
O O2 0.250000 0.250000 0.184817
O O3 0.283724 0.345566 0.160295
O O4 0.146523 0.326842 0.190478
O O5 0.607696 0.929280 0.500000
O O6 0.500000 0.933257 0.438819
O O7 0.638272 0.903620 0.409932
O O8 0.609173 0.000000 0.436683
O O9 0.780700 0.416296 0.112106
O O10 0.674461 0.436382 0.172699
O O11 0.075914 0.422521 0.920817
O O12 0.000000 0.500000 0.948781
O O13 0.000000 0.418156 0.000000
O O14 0.500000 0.644679 0.295559
O O15 0.602108 0.584001 0.333783
O O16 0.612650 0.601511 0.248311
O O17 0.360708 0.500000 0.379168
O O18 0.750000 0.937325 0.250000
O O19 0.637719 0.000000 0.260754
#
# Coordination Sequence:
#
# PCOD9511149 Si02
#       7
#    32  32  32  16  32  32  32
#     4  10  20  39  57  72 103 141 173 222 273 309
#     4   9  19  35  53  76 109 142 170 212 269 319
#     4  11  19  33  53  78 100 136 186 217 253 317
#     4   9  18  30  42  66 104 141 176 210 243 286
#     4  11  20  32  49  74 102 137 173 208 252 321
#     4  10  18  28  46  70 102 143 172 203 248 303
#     4  11  19  29  46  74 109 144 172 204 245 299
#
# _framework density 15.810883
#
# number of rings (size 3 to 8) (size 9 to 14) (size 15 to 20)
#    0.000    1.769    5.385    2.308    0.000    2.154 
#    0.000    3.846    0.000    0.462    0.000    0.000 
#    0.000    0.000    0.000    0.000    0.000    0.000 
#
# Total GULP energy -289760.146175 kJ/mol
# GULP energy per Si atom -5572.310503 kJ/mol
# Density = 1.577490 g / cm^3
# Si number density = 15.810883 Si / 1000 Ang^3
#
#
#
# Elastic Constant Matrix: (Units=GPa)
#
#
# Indices 1 2 3 4 5 6 
#
# 1 89.8739 41.4602 49.7204 0.0000 0.0000 0.0000
# 2 41.4602 99.4845 29.0407 0.0000 0.0000 0.0000
# 3 49.7204 29.0407 98.7566 0.0000 0.0000 0.0000
# 4 0.0000 0.0000 0.0000 1.2108 0.0000 0.0000
# 5 0.0000 0.0000 0.0000 0.0000 25.5034 0.0000
# 6 0.0000 0.0000 0.0000 0.0000 0.0000 9.8837
#
#
#
# Elastic Compliance Matrix: (Units=1/GPa)
#
#
# Indices 1 2 3 4 5 6 
#
# 1 0.017568 -0.005185 -0.007320 0.000000 0.000000 0.000000
# 2 -0.005185 0.012526 -0.001073 0.000000 0.000000 0.000000
# 3 -0.007320 -0.001073 0.014127 0.000000 0.000000 0.000000
# 4 0.000000 0.000000 0.000000 0.825915 0.000000 0.000000
# 5 0.000000 0.000000 0.000000 0.000000 0.039210 0.000000
# 6 0.000000 0.000000 0.000000 0.000000 0.000000 0.101176
#
#
# Mechanical properties :
#
#
# Convention : Reuss Voigt Hill
#
# Bulk Modulus (GPa) = 58.60015 58.72864 58.66439
# Shear Modulus (GPa) = 4.79218 18.51250 11.65234
#
# Velocity S-wave (km/s) = 1.74285 3.42551 2.71769
# Velocity P-wave (km/s) = 6.41823 7.27122 6.85800
#
# Compressibility (1/GPa) = 0.01706480
#
# Stress axis : x y z
#
# Youngs Moduli (GPa) = 56.92075 79.83530 70.78646
#
# Poissons Ratio (x) = 0.41392 0.51818
# Poissons Ratio (y) = 0.29512 0.07596
# Poissons Ratio (z) = 0.41668 0.08567
#
# Static dielectric constant tensor:
#      x y z
#    x 1.555990 0.000000 0.000000 
#    y 0.000000 1.530610 0.000000 
#    z 0.000000 0.000000 1.540400 
# 
# From -- ./inp_files/42205.got.cif
#   From: 2010.05.17/outbox.cif.g08.bks.cpg/sg69_22_cif.got.tgz:42205.got - 2010.06.03 19:29:58.
