data_PCOD9511238
_publ_section_title
;
Structure prediction by ZEFSAII (Michael W. Deem and Ramdas Pophale) SiO2 
 PCOD9511238
Probable space group: F M M M
;
_chemical_formula_sum "Si O2"
_cell_formula_units_Z 208
_cell_length_a 25.065194
_cell_length_b 26.619259
_cell_length_c 17.560878
_cell_angle_alpha 90.000000
_cell_angle_beta 90.000000
_cell_angle_gamma 90.000000
_cell_volume 11716.914422
_symmetry_space_group_name_H-M "F M M M"
_symmetry_group_IT_number 69
_symmetry_cell_setting 'orthorhombic'
loop_
_space_group_symop_operation_xyz
x,y,z
-x,-y,z
x,-y,-z
-x,y,-z
-x,-y,-z
x,y,-z
-x,y,z
x,-y,z
x,1/2+y,1/2+z
-x,1/2-y,1/2+z
x,1/2-y,1/2-z
-x,1/2+y,1/2-z
-x,1/2-y,1/2-z
x,1/2+y,1/2-z
-x,1/2+y,1/2+z
x,1/2-y,1/2+z
1/2+x,y,1/2+z
1/2-x,-y,1/2+z
1/2+x,-y,1/2-z
1/2-x,y,1/2-z
1/2-x,-y,1/2-z
1/2+x,y,1/2-z
1/2-x,y,1/2+z
1/2+x,-y,1/2+z
1/2+x,1/2+y,z
1/2-x,1/2-y,z
1/2+x,1/2-y,-z
1/2-x,1/2+y,-z
1/2-x,1/2-y,-z
1/2+x,1/2+y,-z
1/2-x,1/2+y,z
1/2+x,1/2-y,z
loop_
_atom_site_type_symbol
_atom_site_label
_atom_site_fract_x
_atom_site_fract_y
_atom_site_fract_z
Si Si1 0.000000 0.560676 0.914378
Si Si2 0.111075 0.940244 0.669394
Si Si3 0.898220 0.785405 0.318762
Si Si4 0.559677 0.374797 0.218870
Si Si5 0.279497 0.699757 0.908200
Si Si6 0.820094 0.140284 0.408358
Si Si7 0.095349 0.306093 0.590275
O O1 0.944734 0.573629 0.873242
O O2 0.000000 0.500000 0.917813
O O3 0.000000 0.581042 0.000000
O O4 0.102068 0.915696 0.752172
O O5 0.157879 0.911659 0.625038
O O6 0.117074 0.000000 0.670402
O O7 0.876775 0.750000 0.250000
O O8 0.933489 0.827228 0.276174
O O9 0.855191 0.816243 0.367884
O O10 0.926468 0.746331 0.375588
O O11 0.500000 0.395282 0.222960
O O12 0.570445 0.352136 0.135986
O O13 0.250000 0.750000 0.878673
O O14 0.241178 0.653193 0.889117
O O15 0.341338 0.694885 0.888679
O O16 0.279288 0.703869 0.000000
O O17 0.826811 0.142484 0.500000
O O18 0.089173 0.308883 0.500000
#
# Coordination Sequence:
#
# PCOD9511238 Si02
#       7
#    16  32  32  32  32  32  32
#     4   9  16  28  50  78 102 127 169 217 254 304
#     4  10  20  35  54  77 104 138 174 214 269 327
#     4   9  18  30  46  72 105 141 174 209 256 315
#     4  10  21  36  52  73 105 142 176 217 271 325
#     4   9  16  29  51  77 106 139 174 216 260 306
#     4  10  18  30  51  77 108 139 171 215 264 310
#     4  10  19  33  54  77 103 137 182 225 259 306
#
# _framework density 17.752113999999999
#
# number of rings (size 3 to 8) (size 9 to 14) (size 15 to 20)
#    0.000    2.385    2.308    0.923    0.000    4.000 
#    0.000    9.231    0.000    2.308    0.000    3.231 
#    0.000    0.000    0.000    0.000    0.000    0.000 
#
# Total GULP energy -289697.494935 kJ/mol
# GULP energy per Si atom -5571.105672 kJ/mol
# Density = 1.771171 g / cm^3
# Si number density = 17.752114 Si / 1000 Ang^3
#
#
#
# Elastic Constant Matrix: (Units=GPa)
#
#
# Indices 1 2 3 4 5 6 
#
# 1 43.3294 15.8025 6.7939 0.0000 0.0000 0.0000
# 2 15.8025 92.4903 33.7983 0.0000 0.0000 0.0000
# 3 6.7939 33.7983 92.0775 0.0000 0.0000 0.0000
# 4 0.0000 0.0000 0.0000 17.0752 0.0000 0.0000
# 5 0.0000 0.0000 0.0000 0.0000 16.6114 0.0000
# 6 0.0000 0.0000 0.0000 0.0000 0.0000 20.7256
#
#
#
# Elastic Compliance Matrix: (Units=1/GPa)
#
#
# Indices 1 2 3 4 5 6 
#
# 1 0.024621 -0.004092 -0.000315 0.000000 0.000000 0.000000
# 2 -0.004092 0.013167 -0.004531 0.000000 0.000000 0.000000
# 3 -0.000315 -0.004531 0.012547 0.000000 0.000000 0.000000
# 4 0.000000 0.000000 0.000000 0.058564 0.000000 0.000000
# 5 0.000000 0.000000 0.000000 0.000000 0.060200 0.000000
# 6 0.000000 0.000000 0.000000 0.000000 0.000000 0.048250
#
#
# Mechanical properties :
#
#
# Convention : Reuss Voigt Hill
#
# Bulk Modulus (GPa) = 30.80779 37.85408 34.33093
# Shear Modulus (GPa) = 20.32169 22.31594 21.31882
#
# Velocity S-wave (km/s) = 3.38708 3.54939 3.46918
# Velocity P-wave (km/s) = 5.71739 6.17799 5.95215
#
# Compressibility (1/GPa) = 0.03245933
#
# Stress axis : x y z
#
# Youngs Moduli (GPa) = 40.61637 75.94855 79.70118
#
# Poissons Ratio (x) = 0.31075 0.02509
# Poissons Ratio (y) = 0.16618 0.36114
# Poissons Ratio (z) = 0.01278 0.34414
#
# Static dielectric constant tensor:
#      x y z
#    x 1.626920 0.000000 0.000000 
#    y 0.000000 1.606060 0.000000 
#    z 0.000000 0.000000 1.629280 
# 
# From -- ./inp_files/27086.got.cif
#   From: 2010.05.17/outbox.cif.g08.bks.cpg/sg69_14_cif.got.tgz:27086.got - 2010.06.03 19:29:58.
