data_PCOD9511840
_publ_section_title
;
Structure prediction by ZEFSAII (Michael W. Deem and Ramdas Pophale) SiO2 
 PCOD9511840
Probable space group: F M M M
;
_chemical_formula_sum "Si O2"
_cell_formula_units_Z 160
_cell_length_a 13.531889
_cell_length_b 24.886163
_cell_length_c 19.910989
_cell_angle_alpha 90.000000
_cell_angle_beta 90.000000
_cell_angle_gamma 90.000000
_cell_volume 6705.160848
_symmetry_space_group_name_H-M "F M M M"
_symmetry_group_IT_number 69
_symmetry_cell_setting 'orthorhombic'
loop_
_space_group_symop_operation_xyz
x,y,z
-x,-y,z
x,-y,-z
-x,y,-z
-x,-y,-z
x,y,-z
-x,y,z
x,-y,z
x,1/2+y,1/2+z
-x,1/2-y,1/2+z
x,1/2-y,1/2-z
-x,1/2+y,1/2-z
-x,1/2-y,1/2-z
x,1/2+y,1/2-z
-x,1/2+y,1/2+z
x,1/2-y,1/2+z
1/2+x,y,1/2+z
1/2-x,-y,1/2+z
1/2+x,-y,1/2-z
1/2-x,y,1/2-z
1/2-x,-y,1/2-z
1/2+x,y,1/2-z
1/2-x,y,1/2+z
1/2+x,-y,1/2+z
1/2+x,1/2+y,z
1/2-x,1/2-y,z
1/2+x,1/2-y,-z
1/2-x,1/2+y,-z
1/2-x,1/2-y,-z
1/2+x,1/2+y,-z
1/2-x,1/2+y,z
1/2+x,1/2-y,z
loop_
_atom_site_type_symbol
_atom_site_label
_atom_site_fract_x
_atom_site_fract_y
_atom_site_fract_z
Si Si1 0.111187 0.829758 0.248634
Si Si2 0.387043 0.059088 0.821354
Si Si3 0.317596 0.174068 0.607135
Si Si4 0.892352 0.787794 0.602305
Si Si5 0.796963 0.058723 0.078834
O O1 0.126109 0.891212 0.271954
O O2 0.184229 0.818865 0.187885
O O3 0.109801 0.794665 0.316329
O O4 0.000000 0.825017 0.219651
O O5 0.500000 0.063420 0.847733
O O6 0.303594 0.062260 0.877949
O O7 0.377851 0.000000 0.788983
O O8 0.205849 0.181039 0.580109
O O9 0.378031 0.225652 0.583022
O O10 0.354502 0.114106 0.593230
O O11 0.000000 0.807695 0.580657
O O12 0.843003 0.000000 0.094768
O O13 0.774715 0.058813 0.000000
#
# Coordination Sequence:
#
# PCOD9511840 Si02
#       5
#    32  32  32  32  32
#     4  10  19  33  56  88 122 152 186 234 289 353
#     4   9  18  33  54  83 118 151 188 239 296 352
#     4  11  21  35  59  85 116 157 193 233 294 346
#     4  10  21  36  55  86 120 151 189 232 282 348
#     4  10  22  39  58  81 111 152 202 247 287 340
#
# _framework density 23.862216
#
# number of rings (size 3 to 8) (size 9 to 14) (size 15 to 20)
#    0.000    2.000    2.000    1.800    0.000    4.400 
#    0.000    6.000    0.000    5.400    0.000    5.600 
#    0.000    0.000    0.000    0.000    0.000    0.000 
#
# Total GULP energy -223429.562433 kJ/mol
# GULP energy per Si atom -5585.739061 kJ/mol
# Density = 2.380791 g / cm^3
# Si number density = 23.862216 Si / 1000 Ang^3
#
#
#
# Elastic Constant Matrix: (Units=GPa)
#
#
# Indices 1 2 3 4 5 6 
#
# 1 82.6899 12.7923 5.1215 0.0000 0.0000 0.0000
# 2 12.7923 201.0224 5.2709 0.0000 0.0000 0.0000
# 3 5.1215 5.2709 71.8477 0.0000 0.0000 0.0000
# 4 0.0000 0.0000 0.0000 -5.7389 0.0000 0.0000
# 5 0.0000 0.0000 0.0000 0.0000 -11.1350 0.0000
# 6 0.0000 0.0000 0.0000 0.0000 0.0000 20.6172
#
#
#
# Elastic Compliance Matrix: (Units=1/GPa)
#
#
# Indices 1 2 3 4 5 6 
#
# 1 0.012261 -0.000759 -0.000818 0.000000 0.000000 0.000000
# 2 -0.000759 0.005031 -0.000315 0.000000 0.000000 0.000000
# 3 -0.000818 -0.000315 0.014000 0.000000 0.000000 0.000000
# 4 0.000000 0.000000 0.000000 -0.174250 0.000000 0.000000
# 5 0.000000 0.000000 0.000000 0.000000 -0.089807 0.000000
# 6 0.000000 0.000000 0.000000 0.000000 0.000000 0.048503
#
#
# Mechanical properties :
#
#
# Convention : Reuss Voigt Hill
#
# Bulk Modulus (GPa) = 36.35309 44.65883 40.50596
# Shear Modulus (GPa) = -29.18727 22.90702 -3.14013
#
# Velocity S-wave (km/s) = -3.50116 3.10170 -1.14839
# Velocity P-wave (km/s) = 1.03756 5.61990 3.90556
#
# Compressibility (1/GPa) = 0.02750798
#
# Stress axis : x y z
#
# Youngs Moduli (GPa) = 81.55639 198.76303 71.42972
#
# Poissons Ratio (x) = 0.15082 0.05846
# Poissons Ratio (y) = 0.06189 0.02250
# Poissons Ratio (z) = 0.06674 0.06261
#
# Static dielectric constant tensor:
#      x y z
#    x 1.908240 0.000000 0.000000 
#    y 0.000000 1.963330 0.000000 
#    z 0.000000 0.000000 1.880190 
# 
# From -- ./inp_files/35967.got.cif
#   From: 2010.05.17/outbox.cif.g08.bks.cpg/sg69_18_cif.got.tgz:35967.got - 2010.06.03 19:29:58.
