data_PCOD9511331
_publ_section_title
;
Structure prediction by ZEFSAII (Michael W. Deem and Ramdas Pophale) SiO2 
 PCOD9511331
Probable space group: F M M M
;
_chemical_formula_sum "Si O2"
_cell_formula_units_Z 240
_cell_length_a 19.143334
_cell_length_b 24.341036
_cell_length_c 30.559155
_cell_angle_alpha 90.000000
_cell_angle_beta 90.000000
_cell_angle_gamma 90.000000
_cell_volume 14239.606124
_symmetry_space_group_name_H-M "F M M M"
_symmetry_group_IT_number 69
_symmetry_cell_setting 'orthorhombic'
loop_
_space_group_symop_operation_xyz
x,y,z
-x,-y,z
x,-y,-z
-x,y,-z
-x,-y,-z
x,y,-z
-x,y,z
x,-y,z
x,1/2+y,1/2+z
-x,1/2-y,1/2+z
x,1/2-y,1/2-z
-x,1/2+y,1/2-z
-x,1/2-y,1/2-z
x,1/2+y,1/2-z
-x,1/2+y,1/2+z
x,1/2-y,1/2+z
1/2+x,y,1/2+z
1/2-x,-y,1/2+z
1/2+x,-y,1/2-z
1/2-x,y,1/2-z
1/2-x,-y,1/2-z
1/2+x,y,1/2-z
1/2-x,y,1/2+z
1/2+x,-y,1/2+z
1/2+x,1/2+y,z
1/2-x,1/2-y,z
1/2+x,1/2-y,-z
1/2-x,1/2+y,-z
1/2-x,1/2-y,-z
1/2+x,1/2+y,-z
1/2-x,1/2+y,z
1/2+x,1/2-y,z
loop_
_atom_site_type_symbol
_atom_site_label
_atom_site_fract_x
_atom_site_fract_y
_atom_site_fract_z
Si Si1 0.919267 0.335240 0.173644
Si Si2 0.701143 0.938098 0.683918
Si Si3 0.500000 0.065664 0.551223
Si Si4 0.632367 0.612803 0.101128
Si Si5 0.848871 0.437951 0.133502
Si Si6 0.827551 0.831819 0.239412
Si Si7 0.256300 0.563642 0.448987
Si Si8 0.916406 0.287474 0.341752
O O1 0.899325 0.388723 0.146071
O O2 0.871474 0.334131 0.216514
O O3 0.908471 0.277248 0.148953
O O4 0.000000 0.337232 0.186989
O O5 0.650403 0.925099 0.643090
O O6 0.779000 0.932472 0.663699
O O7 0.685221 0.892584 0.719788
O O8 0.692103 0.000000 0.699930
O O9 0.500000 0.079736 0.500000
O O10 0.567054 0.090147 0.574925
O O11 0.500000 0.000000 0.554985
O O12 0.698871 0.605680 0.069491
O O13 0.614925 0.672444 0.121206
O O14 0.876201 0.500000 0.140095
O O15 0.821644 0.432867 0.083718
O O16 0.750000 0.810024 0.250000
O O17 0.872329 0.800118 0.202450
O O18 0.271324 0.572265 0.500000
O O19 0.229531 0.500000 0.444277
O O20 0.000000 0.298862 0.336025
#
# Coordination Sequence:
#
# PCOD9511331 Si02
#       8
#    32  32  16  32  32  32  32  32
#     4  11  23  38  55  76 104 142 182 227 276 317
#     4   9  18  33  52  74 108 145 171 209 272 331
#     4  11  20  28  48  82 115 144 179 217 248 301
#     4  10  18  32  50  76 109 145 183 210 254 313
#     4   9  18  35  57  81 106 135 170 215 270 327
#     4  11  21  35  54  83 103 134 185 234 266 307
#     4   9  17  32  56  84 112 138 168 214 272 322
#     4  10  22  39  54  71 106 152 184 218 265 320
#
# _framework density 16.854398
#
# number of rings (size 3 to 8) (size 9 to 14) (size 15 to 20)
#    0.000    2.067    2.000    3.200    0.000    4.267 
#    0.000    0.000    0.000    2.800    0.000    1.867 
#    0.000    0.000    0.000    0.000    0.000    0.000 
#
# Total GULP energy -334638.936006 kJ/mol
# GULP energy per Si atom -5577.315600 kJ/mol
# Density = 1.681604 g / cm^3
# Si number density = 16.854398 Si / 1000 Ang^3
#
#
#
# Elastic Constant Matrix: (Units=GPa)
#
#
# Indices 1 2 3 4 5 6 
#
# 1 66.8687 40.8949 31.9665 0.0000 0.0000 0.0000
# 2 40.8949 118.0976 45.4411 0.0000 0.0000 0.0000
# 3 31.9665 45.4411 78.4956 0.0000 0.0000 0.0000
# 4 0.0000 0.0000 0.0000 10.9549 0.0000 0.0000
# 5 0.0000 0.0000 0.0000 0.0000 12.4732 0.0000
# 6 0.0000 0.0000 0.0000 0.0000 0.0000 25.3700
#
#
#
# Elastic Compliance Matrix: (Units=1/GPa)
#
#
# Indices 1 2 3 4 5 6 
#
# 1 0.020666 -0.005041 -0.005498 0.000000 0.000000 0.000000
# 2 -0.005041 0.012124 -0.004966 0.000000 0.000000 0.000000
# 3 -0.005498 -0.004966 0.017853 0.000000 0.000000 0.000000
# 4 0.000000 0.000000 0.000000 0.091283 0.000000 0.000000
# 5 0.000000 0.000000 0.000000 0.000000 0.080172 0.000000
# 6 0.000000 0.000000 0.000000 0.000000 0.000000 0.039417
#
#
# Mechanical properties :
#
#
# Convention : Reuss Voigt Hill
#
# Bulk Modulus (GPa) = 50.93163 55.56299 53.24731
# Shear Modulus (GPa) = 16.71865 19.43691 18.07778
#
# Velocity S-wave (km/s) = 3.15293 3.39960 3.27859
# Velocity P-wave (km/s) = 6.59840 6.96044 6.78184
#
# Compressibility (1/GPa) = 0.01963417
#
# Stress axis : x y z
#
# Youngs Moduli (GPa) = 48.38953 82.48290 56.01255
#
# Poissons Ratio (x) = 0.41577 0.30795
# Poissons Ratio (y) = 0.24392 0.27814
# Poissons Ratio (z) = 0.26604 0.40958
#
# Static dielectric constant tensor:
#      x y z
#    x 1.584540 0.000000 0.000000 
#    y 0.000000 1.580360 0.000000 
#    z 0.000000 0.000000 1.552440 
# 
# From -- ./inp_files/46814.got.cif
#   From: 2010.05.17/outbox.cif.g08.bks.cpg/sg69_24_cif.got.tgz:46814.got - 2010.06.03 19:29:58.
