data_PCOD9511174
_publ_section_title
;
Structure prediction by ZEFSAII (Michael W. Deem and Ramdas Pophale) SiO2 
 PCOD9511174
Probable space group: F M M M
;
_chemical_formula_sum "Si O2"
_cell_formula_units_Z 144
_cell_length_a 14.804045
_cell_length_b 20.084476
_cell_length_c 22.260030
_cell_angle_alpha 90.000000
_cell_angle_beta 90.000000
_cell_angle_gamma 90.000000
_cell_volume 6618.607810
_symmetry_space_group_name_H-M "F M M M"
_symmetry_group_IT_number 69
_symmetry_cell_setting 'orthorhombic'
loop_
_space_group_symop_operation_xyz
x,y,z
-x,-y,z
x,-y,-z
-x,y,-z
-x,-y,-z
x,y,-z
-x,y,z
x,-y,z
x,1/2+y,1/2+z
-x,1/2-y,1/2+z
x,1/2-y,1/2-z
-x,1/2+y,1/2-z
-x,1/2-y,1/2-z
x,1/2+y,1/2-z
-x,1/2+y,1/2+z
x,1/2-y,1/2+z
1/2+x,y,1/2+z
1/2-x,-y,1/2+z
1/2+x,-y,1/2-z
1/2-x,y,1/2-z
1/2-x,-y,1/2-z
1/2+x,y,1/2-z
1/2-x,y,1/2+z
1/2+x,-y,1/2+z
1/2+x,1/2+y,z
1/2-x,1/2-y,z
1/2+x,1/2-y,-z
1/2-x,1/2+y,-z
1/2-x,1/2-y,-z
1/2+x,1/2+y,-z
1/2-x,1/2+y,z
1/2+x,1/2-y,z
loop_
_atom_site_type_symbol
_atom_site_label
_atom_site_fract_x
_atom_site_fract_y
_atom_site_fract_z
Si Si1 0.894536 0.500000 0.803764
Si Si2 0.000000 0.072355 0.927194
Si Si3 0.190774 0.867489 0.928817
Si Si4 0.110597 0.230384 0.846481
Si Si5 0.311988 0.000000 0.928544
Si Si6 0.108917 0.144145 0.727704
O O1 0.886086 0.500000 0.876242
O O2 0.854916 0.569529 0.779307
O O3 0.000000 0.500000 0.787178
O O4 0.907829 0.105327 0.910214
O O5 0.000000 0.000000 0.900245
O O6 0.000000 0.069044 0.000000
O O7 0.177076 0.796736 0.897211
O O8 0.256202 0.930939 0.917460
O O9 0.196522 0.857027 0.000000
O O10 0.129448 0.182424 0.789260
O O11 0.133577 0.305537 0.826015
O O12 0.000000 0.229123 0.858455
O O13 0.336882 0.000000 0.000000
O O14 0.000000 0.140354 0.725750
#
# Coordination Sequence:
#
# PCOD9511174 Si02
#       6
#    16  16  32  32  16  32
#     4  10  20  40  62  74  92 133 192 237 264 308
#     4   9  14  24  42  69 108 145 167 186 233 317
#     4  10  18  29  48  79 115 143 168 205 259 325
#     4   9  16  30  53  82 114 143 172 210 264 319
#     4  10  22  37  53  77 110 141 172 222 277 316
#     4   8  17  33  54  79 105 139 183 228 262 297
#
# _framework density 21.756841000000001
#
# number of rings (size 3 to 8) (size 9 to 14) (size 15 to 20)
#    0.000    2.778    2.222    1.333    0.000    1.111 
#    0.000    5.556    0.000    9.333    0.000    0.000 
#    0.000    0.000    0.000    0.000    0.000    0.000 
#
# Total GULP energy -200471.303779 kJ/mol
# GULP energy per Si atom -5568.647327 kJ/mol
# Density = 2.170732 g / cm^3
# Si number density = 21.756841 Si / 1000 Ang^3
#
#
#
# Elastic Constant Matrix: (Units=GPa)
#
#
# Indices 1 2 3 4 5 6 
#
# 1 38.8372 31.6934 10.1645 0.0000 0.0000 0.0000
# 2 31.6934 182.0930 41.1242 0.0000 0.0000 0.0000
# 3 10.1645 41.1242 24.5897 0.0000 0.0000 0.0000
# 4 0.0000 0.0000 0.0000 30.9696 0.0000 0.0000
# 5 0.0000 0.0000 0.0000 0.0000 27.5028 0.0000
# 6 0.0000 0.0000 0.0000 0.0000 0.0000 7.8319
#
#
#
# Elastic Compliance Matrix: (Units=1/GPa)
#
#
# Indices 1 2 3 4 5 6 
#
# 1 0.030553 -0.003962 -0.006003 0.000000 0.000000 0.000000
# 2 -0.003962 0.009339 -0.013980 0.000000 0.000000 0.000000
# 3 -0.006003 -0.013980 0.066530 0.000000 0.000000 0.000000
# 4 0.000000 0.000000 0.000000 0.032290 0.000000 0.000000
# 5 0.000000 0.000000 0.000000 0.000000 0.036360 0.000000
# 6 0.000000 0.000000 0.000000 0.000000 0.000000 0.127683
#
#
# Mechanical properties :
#
#
# Convention : Reuss Voigt Hill
#
# Bulk Modulus (GPa) = 17.08527 45.72046 31.40286
# Shear Modulus (GPa) = 13.50787 24.09673 18.80230
#
# Velocity S-wave (km/s) = 2.49440 3.33159 2.94292
# Velocity P-wave (km/s) = 4.02069 5.98826 5.10025
#
# Compressibility (1/GPa) = 0.05852995
#
# Stress axis : x y z
#
# Youngs Moduli (GPa) = 32.73010 107.08231 15.03087
#
# Poissons Ratio (x) = 0.42425 0.09024
# Poissons Ratio (y) = 0.12967 0.21014
# Poissons Ratio (z) = 0.19649 1.49704
#
# Static dielectric constant tensor:
#      x y z
#    x 1.752620 0.000000 0.000000 
#    y 0.000000 1.943720 0.000000 
#    z 0.000000 0.000000 1.823980 
# 
# From -- ./inp_files/36584.got.cif
#   From: 2010.05.17/outbox.cif.g08.bks.cpg/sg69_19_cif.got.tgz:36584.got - 2010.06.03 19:29:58.
