data_PCOD9511679
_publ_section_title
;
Structure prediction by ZEFSAII (Michael W. Deem and Ramdas Pophale) SiO2 
 PCOD9511679
Probable space group: F M M M
;
_chemical_formula_sum "Si O2"
_cell_formula_units_Z 176
_cell_length_a 14.614829
_cell_length_b 17.393273
_cell_length_c 29.332731
_cell_angle_alpha 90.000000
_cell_angle_beta 90.000000
_cell_angle_gamma 90.000000
_cell_volume 7456.371733
_symmetry_space_group_name_H-M "F M M M"
_symmetry_group_IT_number 69
_symmetry_cell_setting 'orthorhombic'
loop_
_space_group_symop_operation_xyz
x,y,z
-x,-y,z
x,-y,-z
-x,y,-z
-x,-y,-z
x,y,-z
-x,y,z
x,-y,z
x,1/2+y,1/2+z
-x,1/2-y,1/2+z
x,1/2-y,1/2-z
-x,1/2+y,1/2-z
-x,1/2-y,1/2-z
x,1/2+y,1/2-z
-x,1/2+y,1/2+z
x,1/2-y,1/2+z
1/2+x,y,1/2+z
1/2-x,-y,1/2+z
1/2+x,-y,1/2-z
1/2-x,y,1/2-z
1/2-x,-y,1/2-z
1/2+x,y,1/2-z
1/2-x,y,1/2+z
1/2+x,-y,1/2+z
1/2+x,1/2+y,z
1/2-x,1/2-y,z
1/2+x,1/2-y,-z
1/2-x,1/2+y,-z
1/2-x,1/2-y,-z
1/2+x,1/2+y,-z
1/2-x,1/2+y,z
1/2+x,1/2-y,z
loop_
_atom_site_type_symbol
_atom_site_label
_atom_site_fract_x
_atom_site_fract_y
_atom_site_fract_z
Si Si1 0.889326 0.087975 0.359978
Si Si2 0.894368 0.416846 0.318229
Si Si3 0.111019 0.661681 0.403177
Si Si4 0.387737 0.820158 0.051762
Si Si5 0.611319 0.500000 0.051584
Si Si6 0.354023 0.831502 0.766582
O O1 0.858873 0.120051 0.409113
O O2 0.862364 0.144817 0.318835
O O3 0.000000 0.088271 0.360300
O O4 0.859645 0.000000 0.352346
O O5 0.850269 0.500000 0.325982
O O6 0.858178 0.348507 0.350492
O O7 0.895034 0.397204 0.265431
O O8 0.000000 0.423592 0.332373
O O9 0.142698 0.736043 0.430511
O O10 0.137035 0.579923 0.424881
O O11 0.000000 0.669151 0.405029
O O12 0.500000 0.821377 0.050798
O O13 0.356985 0.835107 0.000000
O O14 0.500000 0.500000 0.051347
O O15 0.644284 0.500000 0.000000
O O16 0.394233 0.750000 0.750000
O O17 0.250000 0.830489 0.750000
#
# Coordination Sequence:
#
# PCOD9511679 Si02
#       6
#    32  32  32  32  16  32
#     4  10  21  37  57  83 114 147 187 233 278 328
#     4  10  19  32  52  78 109 144 181 221 270 329
#     4   9  15  25  41  68 104 140 178 215 260 317
#     4   9  17  29  48  76 110 147 184 226 277 326
#     4   9  14  20  34  60  97 134 168 210 255 304
#     4  11  24  39  55  79 109 141 183 226 279 339
#
# _framework density 23.603974999999998
#
# number of rings (size 3 to 8) (size 9 to 14) (size 15 to 20)
#    0.000    2.273    0.909    2.727    0.000    8.364 
#    0.000    1.818    0.000    0.000    0.000   11.455 
#    0.000    0.000    0.000    0.000    0.000    0.182 
#
# Total GULP energy -245737.753715 kJ/mol
# GULP energy per Si atom -5584.948948 kJ/mol
# Density = 2.355025 g / cm^3
# Si number density = 23.603975 Si / 1000 Ang^3
#
#
#
# Elastic Constant Matrix: (Units=GPa)
#
#
# Indices 1 2 3 4 5 6 
#
# 1 63.0140 15.3228 11.5233 0.0000 0.0000 0.0000
# 2 15.3228 132.2447 68.2680 0.0000 0.0000 0.0000
# 3 11.5233 68.2680 187.5511 0.0000 0.0000 0.0000
# 4 0.0000 0.0000 0.0000 31.7713 0.0000 0.0000
# 5 0.0000 0.0000 0.0000 0.0000 -2.9671 0.0000
# 6 0.0000 0.0000 0.0000 0.0000 0.0000 128.8478
#
#
#
# Elastic Compliance Matrix: (Units=1/GPa)
#
#
# Indices 1 2 3 4 5 6 
#
# 1 0.016352 -0.001694 -0.000388 0.000000 0.000000 0.000000
# 2 -0.001694 0.009487 -0.003349 0.000000 0.000000 0.000000
# 3 -0.000388 -0.003349 0.006575 0.000000 0.000000 0.000000
# 4 0.000000 0.000000 0.000000 0.031475 0.000000 0.000000
# 5 0.000000 0.000000 0.000000 0.000000 -0.337032 0.000000
# 6 0.000000 0.000000 0.000000 0.000000 0.000000 0.007761
#
#
# Mechanical properties :
#
#
# Convention : Reuss Voigt Hill
#
# Bulk Modulus (GPa) = 46.40110 63.67088 55.03599
# Shear Modulus (GPa) = -20.21554 50.71010 15.24728
#
# Velocity S-wave (km/s) = -2.92969 4.64008 2.54434
# Velocity P-wave (km/s) = 2.87346 7.46595 5.65673
#
# Compressibility (1/GPa) = 0.02155121
#
# Stress axis : x y z
#
# Youngs Moduli (GPa) = 61.15282 105.40774 152.09626
#
# Poissons Ratio (x) = 0.17861 0.05900
# Poissons Ratio (y) = 0.10362 0.50939
# Poissons Ratio (z) = 0.02372 0.35302
#
# Static dielectric constant tensor:
#      x y z
#    x 2.099360 0.000000 0.000000 
#    y 0.000000 1.892630 0.000000 
#    z 0.000000 0.000000 1.888340 
# 
# From -- ./inp_files/41863.got.cif
#   From: 2010.05.17/outbox.cif.g08.bks.cpg/sg69_21_cif.got.tgz:41863.got - 2010.06.03 19:29:58.
