data_PCOD9511305
_publ_section_title
;
Structure prediction by ZEFSAII (Michael W. Deem and Ramdas Pophale) SiO2 
 PCOD9511305
Probable space group: F M M M
;
_chemical_formula_sum "Si O2"
_cell_formula_units_Z 160
_cell_length_a 16.595109
_cell_length_b 15.882252
_cell_length_c 27.455091
_cell_angle_alpha 90.000000
_cell_angle_beta 90.000000
_cell_angle_gamma 90.000000
_cell_volume 7236.275273
_symmetry_space_group_name_H-M "F M M M"
_symmetry_group_IT_number 69
_symmetry_cell_setting 'orthorhombic'
loop_
_space_group_symop_operation_xyz
x,y,z
-x,-y,z
x,-y,-z
-x,y,-z
-x,-y,-z
x,y,-z
-x,y,z
x,-y,z
x,1/2+y,1/2+z
-x,1/2-y,1/2+z
x,1/2-y,1/2-z
-x,1/2+y,1/2-z
-x,1/2-y,1/2-z
x,1/2+y,1/2-z
-x,1/2+y,1/2+z
x,1/2-y,1/2+z
1/2+x,y,1/2+z
1/2-x,-y,1/2+z
1/2+x,-y,1/2-z
1/2-x,y,1/2-z
1/2-x,-y,1/2-z
1/2+x,y,1/2-z
1/2-x,y,1/2+z
1/2+x,-y,1/2+z
1/2+x,1/2+y,z
1/2-x,1/2-y,z
1/2+x,1/2-y,-z
1/2-x,1/2+y,-z
1/2-x,1/2-y,-z
1/2+x,1/2+y,-z
1/2-x,1/2+y,z
1/2+x,1/2-y,z
loop_
_atom_site_type_symbol
_atom_site_label
_atom_site_fract_x
_atom_site_fract_y
_atom_site_fract_z
Si Si1 0.660721 0.153180 0.606946
Si Si2 0.000000 0.854376 0.442834
Si Si3 0.836454 0.149682 0.393704
Si Si4 0.821368 0.405089 0.785577
Si Si5 0.000000 0.851451 0.056815
Si Si6 0.408223 0.326111 0.212691
O O1 0.747539 0.114425 0.594162
O O2 0.664860 0.251768 0.592382
O O3 0.581610 0.116381 0.581880
O O4 0.644713 0.156915 0.664995
O O5 0.917644 0.885875 0.417469
O O6 0.000000 0.874065 0.500000
O O7 0.000000 0.751518 0.437909
O O8 0.839878 0.143377 0.335117
O O9 0.799313 0.500000 0.799684
O O10 0.750000 0.372524 0.750000
O O11 0.897582 0.402921 0.749781
O O12 0.000000 0.870576 0.000000
O O13 0.500000 0.311814 0.196288
O O14 0.386440 0.250000 0.250000
#
# Coordination Sequence:
#
# PCOD9511305 Si02
#       6
#    32  16  32  32  16  32
#     4  10  18  31  53  81 105 143 183 219 272 335
#     4   9  20  36  54  78 108 140 185 238 284 331
#     4  10  20  33  54  76 108 145 184 226 273 326
#     4  11  23  36  51  78 116 151 183 225 279 329
#     4   9  18  32  50  80 115 133 165 231 291 335
#     4  11  21  32  54  80 112 147 184 226 268 328
#
# _framework density 22.110823
#
# number of rings (size 3 to 8) (size 9 to 14) (size 15 to 20)
#    0.000    1.800    5.000    0.000    1.400    1.600 
#    0.000    4.000    0.000    1.200    0.000    0.000 
#    0.000    4.000    0.000    0.000    0.000    0.000 
#
# Total GULP energy -222949.465584 kJ/mol
# GULP energy per Si atom -5573.736640 kJ/mol
# Density = 2.206050 g / cm^3
# Si number density = 22.110823 Si / 1000 Ang^3
#
#
#
# Elastic Constant Matrix: (Units=GPa)
#
#
# Indices 1 2 3 4 5 6 
#
# 1 216.8803 6.3656 97.9832 0.0000 0.0000 0.0000
# 2 6.3656 27.0785 -1.7420 0.0000 0.0000 0.0000
# 3 97.9832 -1.7420 110.8829 0.0000 0.0000 0.0000
# 4 0.0000 0.0000 0.0000 0.7673 0.0000 0.0000
# 5 0.0000 0.0000 0.0000 0.0000 26.1441 0.0000
# 6 0.0000 0.0000 0.0000 0.0000 0.0000 3.3569
#
#
#
# Elastic Compliance Matrix: (Units=1/GPa)
#
#
# Indices 1 2 3 4 5 6 
#
# 1 0.007813 -0.002283 -0.006940 0.000000 0.000000 0.000000
# 2 -0.002283 0.037634 0.002609 0.000000 0.000000 0.000000
# 3 -0.006940 0.002609 0.015192 0.000000 0.000000 0.000000
# 4 0.000000 0.000000 0.000000 1.303352 0.000000 0.000000
# 5 0.000000 0.000000 0.000000 0.000000 0.038250 0.000000
# 6 0.000000 0.000000 0.000000 0.000000 0.000000 0.297891
#
#
# Mechanical properties :
#
#
# Convention : Reuss Voigt Hill
#
# Bulk Modulus (GPa) = 21.09226 62.22836 41.66031
# Shear Modulus (GPa) = 2.89157 22.86931 12.88044
#
# Velocity S-wave (km/s) = 1.14481 3.21955 2.41620
# Velocity P-wave (km/s) = 3.36266 6.48272 5.16397
#
# Compressibility (1/GPa) = 0.04741076
#
# Stress axis : x y z
#
# Youngs Moduli (GPa) = 127.98593 26.57152 65.82250
#
# Poissons Ratio (x) = 0.06067 0.45683
# Poissons Ratio (y) = 0.29222 -0.17172
# Poissons Ratio (z) = 0.88826 -0.06932
#
# Static dielectric constant tensor:
#      x y z
#    x 1.921130 0.000000 0.000000 
#    y 0.000000 1.889350 0.000000 
#    z 0.000000 0.000000 1.755290 
# 
# From -- ./inp_files/41956.got.cif
#   From: 2010.05.17/outbox.cif.g08.bks.cpg/sg69_21_cif.got.tgz:41956.got - 2010.06.03 19:29:58.
