data_PCOD9511327
_publ_section_title
;
Structure prediction by ZEFSAII (Michael W. Deem and Ramdas Pophale) SiO2 
 PCOD9511327
Probable space group: F M M M
;
_chemical_formula_sum "Si O2"
_cell_formula_units_Z 160
_cell_length_a 23.134752
_cell_length_b 17.409869
_cell_length_c 26.395774
_cell_angle_alpha 90.000000
_cell_angle_beta 90.000000
_cell_angle_gamma 90.000000
_cell_volume 10631.505125
_symmetry_space_group_name_H-M "F M M M"
_symmetry_group_IT_number 69
_symmetry_cell_setting 'orthorhombic'
loop_
_space_group_symop_operation_xyz
x,y,z
-x,-y,z
x,-y,-z
-x,y,-z
-x,-y,-z
x,y,-z
-x,y,z
x,-y,z
x,1/2+y,1/2+z
-x,1/2-y,1/2+z
x,1/2-y,1/2-z
-x,1/2+y,1/2-z
-x,1/2-y,1/2-z
x,1/2+y,1/2-z
-x,1/2+y,1/2+z
x,1/2-y,1/2+z
1/2+x,y,1/2+z
1/2-x,-y,1/2+z
1/2+x,-y,1/2-z
1/2-x,y,1/2-z
1/2-x,-y,1/2-z
1/2+x,y,1/2-z
1/2-x,y,1/2+z
1/2+x,-y,1/2+z
1/2+x,1/2+y,z
1/2-x,1/2-y,z
1/2+x,1/2-y,-z
1/2-x,1/2+y,-z
1/2-x,1/2-y,-z
1/2+x,1/2+y,-z
1/2-x,1/2+y,z
1/2+x,1/2-y,z
loop_
_atom_site_type_symbol
_atom_site_label
_atom_site_fract_x
_atom_site_fract_y
_atom_site_fract_z
Si Si1 0.794049 0.185600 0.881678
Si Si2 0.000000 0.256473 0.310579
Si Si3 0.125543 0.784019 0.693162
Si Si4 0.113689 0.589966 0.441185
Si Si5 0.000000 0.410440 0.627950
Si Si6 0.218485 0.091135 0.696632
O O1 0.750000 0.250000 0.902706
O O2 0.835471 0.229836 0.842109
O O3 0.834344 0.142710 0.921641
O O4 0.757171 0.125122 0.848688
O O5 0.000000 0.250000 0.250000
O O6 0.060033 0.217589 0.327012
O O7 0.000000 0.345023 0.329109
O O8 0.125847 0.750000 0.750000
O O9 0.157185 0.865760 0.695038
O O10 0.100012 0.604833 0.500000
O O11 0.129945 0.500000 0.436448
O O12 0.056967 0.600929 0.406495
O O13 0.000000 0.500000 0.645603
O O14 0.250000 0.110173 0.750000
O O15 0.213057 0.000000 0.693115
#
# Coordination Sequence:
#
# PCOD9511327 Si02
#       6
#    32  16  32  32  16  32
#     4  10  19  30  50  71  98 133 161 204 241 299
#     4  10  20  33  49  72 100 132 158 201 245 295
#     4  10  18  32  47  68  97 130 165 200 242 291
#     4  10  20  34  51  73 100 128 164 211 256 293
#     4  10  19  34  54  75  97 133 172 200 244 306
#     4  10  19  30  48  71  96 130 170 205 238 288
#
# _framework density 15.049609999999999
#
# number of rings (size 3 to 8) (size 9 to 14) (size 15 to 20)
#    0.000    2.000    4.000    0.900    0.000    1.600 
#    0.000    4.500    0.000    0.000    0.000    0.000 
#    0.000    0.000    0.000    5.200    0.000    0.000 
#
# Total GULP energy -222926.773062 kJ/mol
# GULP energy per Si atom -5573.169327 kJ/mol
# Density = 1.501536 g / cm^3
# Si number density = 15.049610 Si / 1000 Ang^3
#
#
#
# Elastic Constant Matrix: (Units=GPa)
#
#
# Indices 1 2 3 4 5 6 
#
# 1 116.1027 58.3195 19.7048 0.0000 0.0000 0.0000
# 2 58.3195 92.3997 40.8677 0.0000 0.0000 0.0000
# 3 19.7048 40.8677 56.5086 0.0000 0.0000 0.0000
# 4 0.0000 0.0000 0.0000 23.0432 0.0000 0.0000
# 5 0.0000 0.0000 0.0000 0.0000 13.6619 0.0000
# 6 0.0000 0.0000 0.0000 0.0000 0.0000 25.6374
#
#
#
# Elastic Compliance Matrix: (Units=1/GPa)
#
#
# Indices 1 2 3 4 5 6 
#
# 1 0.012767 -0.008953 0.002023 0.000000 0.000000 0.000000
# 2 -0.008953 0.022190 -0.012927 0.000000 0.000000 0.000000
# 3 0.002023 -0.012927 0.026340 0.000000 0.000000 0.000000
# 4 0.000000 0.000000 0.000000 0.043397 0.000000 0.000000
# 5 0.000000 0.000000 0.000000 0.000000 0.073196 0.000000
# 6 0.000000 0.000000 0.000000 0.000000 0.000000 0.039005
#
#
# Mechanical properties :
#
#
# Convention : Reuss Voigt Hill
#
# Bulk Modulus (GPa) = 46.33029 55.86611 51.09820
# Shear Modulus (GPa) = 18.95357 22.20979 20.58168
#
# Velocity S-wave (km/s) = 3.55266 3.84574 3.70210
# Velocity P-wave (km/s) = 6.90510 7.54464 7.23194
#
# Compressibility (1/GPa) = 0.02158415
#
# Stress axis : x y z
#
# Youngs Moduli (GPa) = 78.32872 45.06453 37.96547
#
# Poissons Ratio (x) = 0.40344 -0.07680
# Poissons Ratio (y) = 0.70124 0.49076
# Poissons Ratio (z) = -0.15844 0.58253
#
# Static dielectric constant tensor:
#      x y z
#    x 1.514610 0.000000 0.000000 
#    y 0.000000 1.485290 0.000000 
#    z 0.000000 0.000000 1.482100 
# 
# From -- ./inp_files/18027.got.cif
#   From: 2010.05.17/outbox.cif.g08.bks.cpg/sg69_10_cif.got.tgz:18027.got - 2010.06.03 19:29:58.
