data_PCOD9511082
_publ_section_title
;
Structure prediction by ZEFSAII (Michael W. Deem and Ramdas Pophale) SiO2 
 PCOD9511082
Probable space group: F M M M
;
_chemical_formula_sum "Si O2"
_cell_formula_units_Z 136
_cell_length_a 23.820079
_cell_length_b 14.589690
_cell_length_c 17.477533
_cell_angle_alpha 90.000000
_cell_angle_beta 90.000000
_cell_angle_gamma 90.000000
_cell_volume 6073.924545
_symmetry_space_group_name_H-M "F M M M"
_symmetry_group_IT_number 69
_symmetry_cell_setting 'orthorhombic'
loop_
_space_group_symop_operation_xyz
x,y,z
-x,-y,z
x,-y,-z
-x,y,-z
-x,-y,-z
x,y,-z
-x,y,z
x,-y,z
x,1/2+y,1/2+z
-x,1/2-y,1/2+z
x,1/2-y,1/2-z
-x,1/2+y,1/2-z
-x,1/2-y,1/2-z
x,1/2+y,1/2-z
-x,1/2+y,1/2+z
x,1/2-y,1/2+z
1/2+x,y,1/2+z
1/2-x,-y,1/2+z
1/2+x,-y,1/2-z
1/2-x,y,1/2-z
1/2-x,-y,1/2-z
1/2+x,y,1/2-z
1/2-x,y,1/2+z
1/2+x,-y,1/2+z
1/2+x,1/2+y,z
1/2-x,1/2-y,z
1/2+x,1/2-y,-z
1/2-x,1/2+y,-z
1/2-x,1/2-y,-z
1/2+x,1/2+y,-z
1/2-x,1/2+y,z
1/2+x,1/2-y,z
loop_
_atom_site_type_symbol
_atom_site_label
_atom_site_fract_x
_atom_site_fract_y
_atom_site_fract_z
Si Si1 0.688012 0.359772 0.267417
Si Si2 0.500000 0.634704 0.160616
Si Si3 0.379159 0.866607 0.379187
Si Si4 0.881065 0.351701 0.911273
Si Si5 0.831911 0.000000 0.000000
Si Si6 0.500000 0.858122 0.161170
O O1 0.690543 0.250000 0.250000
O O2 0.750000 0.395067 0.250000
O O3 0.640989 0.386903 0.206570
O O4 0.666562 0.383276 0.351846
O O5 0.444041 0.604782 0.117446
O O6 0.500000 0.746356 0.162114
O O7 0.500000 0.609729 0.250631
O O8 0.378871 0.759030 0.400328
O O9 0.338614 0.920774 0.434222
O O10 0.942456 0.383560 0.882026
O O11 0.872403 0.374914 0.000000
#
# Coordination Sequence:
#
# PCOD9511082 Si02
#       6
#    32  16  32  32   8  16
#     4   9  18  34  53  75 106 138 172 221 280 321
#     4   9  16  29  50  69 103 149 168 205 254 329
#     4  10  20  34  49  72 110 143 177 209 264 314
#     4  10  17  30  52  84 108 134 169 223 268 322
#     4  12  24  37  50  78 106 146 182 217 244 312
#     4   9  15  26  49  78 108 136 169 204 270 327
#
# _framework density 22.390794
#
# number of rings (size 3 to 8) (size 9 to 14) (size 15 to 20)
#    0.000    2.353    3.529    0.353    0.000    1.412 
#    2.118    2.941    0.000    0.000    0.000    0.000 
#    0.000    1.882    0.000    0.000    0.000    0.000 
#
# Total GULP energy -189309.273129 kJ/mol
# GULP energy per Si atom -5567.919798 kJ/mol
# Density = 2.233983 g / cm^3
# Si number density = 22.390794 Si / 1000 Ang^3
#
#
#
# Elastic Constant Matrix: (Units=GPa)
#
#
# Indices 1 2 3 4 5 6 
#
# 1 120.7152 -8.9933 41.0722 0.0000 0.0000 0.0000
# 2 -8.9933 68.1971 -18.1921 0.0000 0.0000 0.0000
# 3 41.0722 -18.1921 160.4820 0.0000 0.0000 0.0000
# 4 0.0000 0.0000 0.0000 -135.5816 0.0000 0.0000
# 5 0.0000 0.0000 0.0000 0.0000 6.1763 0.0000
# 6 0.0000 0.0000 0.0000 0.0000 0.0000 -31.0505
#
#
#
# Elastic Compliance Matrix: (Units=1/GPa)
#
#
# Indices 1 2 3 4 5 6 
#
# 1 0.009098 0.000597 -0.002261 0.000000 0.000000 0.000000
# 2 0.000597 0.015160 0.001566 0.000000 0.000000 0.000000
# 3 -0.002261 0.001566 0.006987 0.000000 0.000000 0.000000
# 4 0.000000 0.000000 0.000000 -0.007376 0.000000 0.000000
# 5 0.000000 0.000000 0.000000 0.000000 0.161909 0.000000
# 6 0.000000 0.000000 0.000000 0.000000 0.000000 -0.032206
#
#
# Mechanical properties :
#
#
# Convention : Reuss Voigt Hill
#
# Bulk Modulus (GPa) = 32.20803 41.90752 37.05778
# Shear Modulus (GPa) = 30.46589 -9.72398 10.37095
#
# Velocity S-wave (km/s) = 3.69269 -2.08621 2.15450
# Velocity P-wave (km/s) = 5.70938 3.59917 4.77237
#
# Compressibility (1/GPa) = 0.03104816
#
# Stress axis : x y z
#
# Youngs Moduli (GPa) = 109.91917 65.96410 143.11657
#
# Poissons Ratio (x) = -0.03936 0.32355
# Poissons Ratio (y) = -0.06558 -0.22409
# Poissons Ratio (z) = 0.24850 -0.10329
#
# Static dielectric constant tensor:
#      x y z
#    x 1.815970 0.000000 0.000000 
#    y 0.000000 1.928210 0.000000 
#    z 0.000000 0.000000 1.822530 
# 
# From -- ./inp_files/25647.got.cif
#   From: 2010.05.17/outbox.cif.g08.bks.cpg/sg69_13_cif.got.tgz:25647.got - 2010.06.03 19:29:58.
