data_PCOD9511590
_publ_section_title
;
Structure prediction by ZEFSAII (Michael W. Deem and Ramdas Pophale) SiO2 
 PCOD9511590
Probable space group: F M M M
;
_chemical_formula_sum "Si O2"
_cell_formula_units_Z 192
_cell_length_a 21.321729
_cell_length_b 27.883845
_cell_length_c 14.474777
_cell_angle_alpha 90.000000
_cell_angle_beta 90.000000
_cell_angle_gamma 90.000000
_cell_volume 8605.715030
_symmetry_space_group_name_H-M "F M M M"
_symmetry_group_IT_number 69
_symmetry_cell_setting 'orthorhombic'
loop_
_space_group_symop_operation_xyz
x,y,z
-x,-y,z
x,-y,-z
-x,y,-z
-x,-y,-z
x,y,-z
-x,y,z
x,-y,z
x,1/2+y,1/2+z
-x,1/2-y,1/2+z
x,1/2-y,1/2-z
-x,1/2+y,1/2-z
-x,1/2-y,1/2-z
x,1/2+y,1/2-z
-x,1/2+y,1/2+z
x,1/2-y,1/2+z
1/2+x,y,1/2+z
1/2-x,-y,1/2+z
1/2+x,-y,1/2-z
1/2-x,y,1/2-z
1/2-x,-y,1/2-z
1/2+x,y,1/2-z
1/2-x,y,1/2+z
1/2+x,-y,1/2+z
1/2+x,1/2+y,z
1/2-x,1/2-y,z
1/2+x,1/2-y,-z
1/2-x,1/2+y,-z
1/2-x,1/2-y,-z
1/2+x,1/2+y,-z
1/2-x,1/2+y,z
1/2+x,1/2-y,z
loop_
_atom_site_type_symbol
_atom_site_label
_atom_site_fract_x
_atom_site_fract_y
_atom_site_fract_z
Si Si1 0.307258 0.722269 0.653477
Si Si2 0.429308 0.055407 0.112522
Si Si3 0.806681 0.885984 0.387693
Si Si4 0.316442 0.554400 0.112775
Si Si5 0.928036 0.376661 0.387239
Si Si6 0.068547 0.769244 0.108574
O O1 0.310722 0.750000 0.750000
O O2 0.250000 0.750000 0.603512
O O3 0.295511 0.666119 0.655093
O O4 0.376611 0.731306 0.616421
O O5 0.500000 0.069473 0.141577
O O6 0.372781 0.090237 0.139467
O O7 0.418233 0.000000 0.141060
O O8 0.429215 0.055172 0.000000
O O9 0.806568 0.879968 0.500000
O O10 0.749095 0.920614 0.363336
O O11 0.319959 0.500000 0.146328
O O12 0.375424 0.586214 0.143787
O O13 0.318213 0.553100 0.000000
O O14 0.925472 0.377119 0.500000
O O15 0.914590 0.322242 0.353595
O O16 0.000000 0.388432 0.362417
O O17 0.000000 0.754328 0.143856
O O18 0.062119 0.777457 0.000000
#
# Coordination Sequence:
#
# PCOD9511590 Si02
#       6
#    32  32  32  32  32  32
#     4  11  24  38  51  72 103 140 183 227 271 319
#     4   8  14  26  46  75 110 139 162 198 250 307
#     4  10  19  31  50  74 101 135 174 216 261 310
#     4   9  16  25  41  70 105 134 162 201 248 301
#     4   8  14  25  42  66  96 128 160 196 243 298
#     4   9  18  34  56  79 102 131 171 219 268 318
#
# _framework density 22.310756000000001
#
# number of rings (size 3 to 8) (size 9 to 14) (size 15 to 20)
#    0.000    2.833    0.000    3.500    0.000    6.000 
#    0.000    3.333    0.000    0.000    0.000   22.167 
#    0.000    0.000    0.000    0.000    0.000    0.667 
#
# Total GULP energy -267963.606026 kJ/mol
# GULP energy per Si atom -5582.575126 kJ/mol
# Density = 2.225998 g / cm^3
# Si number density = 22.310756 Si / 1000 Ang^3
#
#
#
# Elastic Constant Matrix: (Units=GPa)
#
#
# Indices 1 2 3 4 5 6 
#
# 1 136.4960 47.3052 -9.9616 0.0000 0.0000 0.0000
# 2 47.3052 48.7287 -8.2239 0.0000 0.0000 0.0000
# 3 -9.9616 -8.2239 59.3497 0.0000 0.0000 0.0000
# 4 0.0000 0.0000 0.0000 -13.1614 0.0000 0.0000
# 5 0.0000 0.0000 0.0000 0.0000 -6.8749 0.0000
# 6 0.0000 0.0000 0.0000 0.0000 0.0000 38.4583
#
#
#
# Elastic Compliance Matrix: (Units=1/GPa)
#
#
# Indices 1 2 3 4 5 6 
#
# 1 0.011049 -0.010663 0.000377 0.000000 0.000000 0.000000
# 2 -0.010663 0.031303 0.002548 0.000000 0.000000 0.000000
# 3 0.000377 0.002548 0.017266 0.000000 0.000000 0.000000
# 4 0.000000 0.000000 0.000000 -0.075980 0.000000 0.000000
# 5 0.000000 0.000000 0.000000 0.000000 -0.145456 0.000000
# 6 0.000000 0.000000 0.000000 0.000000 0.000000 0.026002
#
#
# Mechanical properties :
#
#
# Convention : Reuss Voigt Hill
#
# Bulk Modulus (GPa) = 22.65405 33.64596 28.15001
# Shear Modulus (GPa) = -47.33665 18.04804 -14.64431
#
# Velocity S-wave (km/s) = -4.61118 2.84727 -2.56477
# Velocity P-wave (km/s) = 4.26319 5.09142 1.96823
#
# Compressibility (1/GPa) = 0.04414222
#
# Stress axis : x y z
#
# Youngs Moduli (GPa) = 90.50506 31.94577 57.91852
#
# Poissons Ratio (x) = 0.34063 -0.02184
# Poissons Ratio (y) = 0.96503 -0.14757
# Poissons Ratio (z) = -0.03413 -0.08139
#
# Static dielectric constant tensor:
#      x y z
#    x 1.922170 0.000000 0.000000 
#    y 0.000000 1.783950 0.000000 
#    z 0.000000 0.000000 3.282680 
# 
# From -- ./inp_files/32034.got.cif
#   From: 2010.05.17/outbox.cif.g08.bks.cpg/sg69_17_cif.got.tgz:32034.got - 2010.06.03 19:29:58.
