data_PCOD9511303
_publ_section_title
;
Structure prediction by ZEFSAII (Michael W. Deem and Ramdas Pophale) SiO2 
 PCOD9511303
Probable space group: F M M M
;
_chemical_formula_sum "Si O2"
_cell_formula_units_Z 176
_cell_length_a 29.433192
_cell_length_b 14.568214
_cell_length_c 17.700515
_cell_angle_alpha 90.000000
_cell_angle_beta 90.000000
_cell_angle_gamma 90.000000
_cell_volume 7589.786830
_symmetry_space_group_name_H-M "F M M M"
_symmetry_group_IT_number 69
_symmetry_cell_setting 'orthorhombic'
loop_
_space_group_symop_operation_xyz
x,y,z
-x,-y,z
x,-y,-z
-x,y,-z
-x,-y,-z
x,y,-z
-x,y,z
x,-y,z
x,1/2+y,1/2+z
-x,1/2-y,1/2+z
x,1/2-y,1/2-z
-x,1/2+y,1/2-z
-x,1/2-y,1/2-z
x,1/2+y,1/2-z
-x,1/2+y,1/2+z
x,1/2-y,1/2+z
1/2+x,y,1/2+z
1/2-x,-y,1/2+z
1/2+x,-y,1/2-z
1/2-x,y,1/2-z
1/2-x,-y,1/2-z
1/2+x,y,1/2-z
1/2-x,y,1/2+z
1/2+x,-y,1/2+z
1/2+x,1/2+y,z
1/2-x,1/2-y,z
1/2+x,1/2-y,-z
1/2-x,1/2+y,-z
1/2-x,1/2-y,-z
1/2+x,1/2+y,-z
1/2-x,1/2+y,z
1/2+x,1/2-y,z
loop_
_atom_site_type_symbol
_atom_site_label
_atom_site_fract_x
_atom_site_fract_y
_atom_site_fract_z
Si Si1 0.589813 0.389761 0.083972
Si Si2 0.947535 0.113095 0.500000
Si Si3 0.688544 0.894578 0.592011
Si Si4 0.951334 0.142166 0.238227
Si Si5 0.383403 0.106041 0.865099
Si Si6 0.713222 0.887802 0.911611
O O1 0.595184 0.500000 0.078344
O O2 0.639454 0.352267 0.108905
O O3 0.554642 0.373745 0.149844
O O4 0.578046 0.356480 0.000000
O O5 0.918844 0.144875 0.426740
O O6 0.000000 0.143624 0.500000
O O7 0.949209 0.000000 0.500000
O O8 0.690123 0.897646 0.500000
O O9 0.737178 0.854396 0.615251
O O10 0.687502 0.000000 0.620166
O O11 0.951640 0.250000 0.250000
O O12 0.908577 0.107097 0.285327
O O13 0.000000 0.104730 0.265462
O O14 0.332101 0.142940 0.868453
O O15 0.377844 0.000000 0.888406
O O16 0.716436 0.000000 0.909368
O O17 0.706863 0.862318 0.000000
#
# Coordination Sequence:
#
# PCOD9511303 Si02
#       6
#    32  16  32  32  32  32
#     4   9  18  36  63  89 108 135 183 235 276 317
#     4   9  16  26  44  74 106 131 167 215 254 297
#     4   7  11  22  46  80 112 137 165 212 268 312
#     4  11  25  42  54  72 106 144 180 223 282 339
#     4  10  18  31  53  80 107 140 179 217 260 310
#     4   8  12  22  44  78 115 142 168 206 254 313
#
# _framework density 23.189056999999998
#
# number of rings (size 3 to 8) (size 9 to 14) (size 15 to 20)
#    0.000    3.000    0.909    3.273    0.000    2.545 
#    1.636    1.818    0.000    6.545    0.000    3.818 
#    0.000    0.000    0.000    0.000    0.000    0.000 
#
# Total GULP energy -245443.716838 kJ/mol
# GULP energy per Si atom -5578.266292 kJ/mol
# Density = 2.313628 g / cm^3
# Si number density = 23.189057 Si / 1000 Ang^3
#
#
#
# Elastic Constant Matrix: (Units=GPa)
#
#
# Indices 1 2 3 4 5 6 
#
# 1 114.8719 -20.3513 26.6783 0.0000 0.0000 0.0000
# 2 -20.3513 48.0524 -9.8134 0.0000 0.0000 0.0000
# 3 26.6783 -9.8134 68.0236 0.0000 0.0000 0.0000
# 4 0.0000 0.0000 0.0000 -67.4260 0.0000 0.0000
# 5 0.0000 0.0000 0.0000 0.0000 34.5827 0.0000
# 6 0.0000 0.0000 0.0000 0.0000 0.0000 -67.2398
#
#
#
# Elastic Compliance Matrix: (Units=1/GPa)
#
#
# Indices 1 2 3 4 5 6 
#
# 1 0.010145 0.003590 -0.003461 0.000000 0.000000 0.000000
# 2 0.003590 0.022713 0.001869 0.000000 0.000000 0.000000
# 3 -0.003461 0.001869 0.016328 0.000000 0.000000 0.000000
# 4 0.000000 0.000000 0.000000 -0.014831 0.000000 0.000000
# 5 0.000000 0.000000 0.000000 0.000000 0.028916 0.000000
# 6 0.000000 0.000000 0.000000 0.000000 0.000000 -0.014872
#
#
# Mechanical properties :
#
#
# Convention : Reuss Voigt Hill
#
# Bulk Modulus (GPa) = 18.80378 24.88613 21.84495
# Shear Modulus (GPa) = 80.47630 -4.38767 38.04431
#
# Velocity S-wave (km/s) = 5.89744 -1.37704 4.05484
# Velocity P-wave (km/s) = 7.38238 2.86824 5.60028
#
# Compressibility (1/GPa) = 0.05318079
#
# Stress axis : x y z
#
# Youngs Moduli (GPa) = 98.56936 44.02835 61.24557
#
# Poissons Ratio (x) = -0.15806 0.21197
# Poissons Ratio (y) = -0.35385 -0.11445
# Poissons Ratio (z) = 0.34114 -0.08228
#
# Static dielectric constant tensor:
#      x y z
#    x 1.909140 0.000000 0.000000 
#    y 0.000000 1.935910 0.000000 
#    z 0.000000 0.000000 1.561760 
# 
# From -- ./inp_files/23574.got.cif
#   From: 2010.05.17/outbox.cif.g08.bks.cpg/sg69_12_cif.got.tgz:23574.got - 2010.06.03 19:29:58.
