data_PCOD9511034
_publ_section_title
;
Structure prediction by ZEFSAII (Michael W. Deem and Ramdas Pophale) SiO2 
 PCOD9511034
Probable space group: F M M M
;
_chemical_formula_sum "Si O2"
_cell_formula_units_Z 208
_cell_length_a 29.800492
_cell_length_b 22.494963
_cell_length_c 20.929806
_cell_angle_alpha 90.000000
_cell_angle_beta 90.000000
_cell_angle_gamma 90.000000
_cell_volume 14030.524946
_symmetry_space_group_name_H-M "F M M M"
_symmetry_group_IT_number 69
_symmetry_cell_setting 'orthorhombic'
loop_
_space_group_symop_operation_xyz
x,y,z
-x,-y,z
x,-y,-z
-x,y,-z
-x,-y,-z
x,y,-z
-x,y,z
x,-y,z
x,1/2+y,1/2+z
-x,1/2-y,1/2+z
x,1/2-y,1/2-z
-x,1/2+y,1/2-z
-x,1/2-y,1/2-z
x,1/2+y,1/2-z
-x,1/2+y,1/2+z
x,1/2-y,1/2+z
1/2+x,y,1/2+z
1/2-x,-y,1/2+z
1/2+x,-y,1/2-z
1/2-x,y,1/2-z
1/2-x,-y,1/2-z
1/2+x,y,1/2-z
1/2-x,y,1/2+z
1/2+x,-y,1/2+z
1/2+x,1/2+y,z
1/2-x,1/2-y,z
1/2+x,1/2-y,-z
1/2-x,1/2+y,-z
1/2-x,1/2-y,-z
1/2+x,1/2+y,-z
1/2-x,1/2+y,z
1/2+x,1/2-y,z
loop_
_atom_site_type_symbol
_atom_site_label
_atom_site_fract_x
_atom_site_fract_y
_atom_site_fract_z
Si Si1 0.885447 0.104791 0.371310
Si Si2 0.050747 0.162484 0.803373
Si Si3 0.774874 0.427926 0.685598
Si Si4 0.051215 0.707054 0.155580
Si Si5 0.374700 0.571161 0.222239
Si Si6 0.791059 0.928213 0.573142
Si Si7 0.947639 0.500000 0.923235
O O1 0.910530 0.167770 0.376731
O O2 0.874307 0.088314 0.297510
O O3 0.839043 0.099504 0.409169
O O4 0.921133 0.056612 0.396419
O O5 0.060691 0.222658 0.842514
O O6 0.051000 0.183858 0.729166
O O7 0.085889 0.109605 0.809165
O O8 0.000000 0.143378 0.818149
O O9 0.773589 0.500000 0.686166
O O10 0.750000 0.407389 0.750000
O O11 0.827010 0.412088 0.691060
O O12 0.746929 0.408996 0.623555
O O13 0.000000 0.697661 0.131478
O O14 0.381133 0.500000 0.217451
O O15 0.778927 0.915540 0.500000
O O16 0.796597 0.000000 0.579425
O O17 0.000000 0.500000 0.903892
O O18 0.945458 0.500000 0.000000
#
# Coordination Sequence:
#
# PCOD9511034 Si02
#       7
#    32  32  32  32  32  32  16
#     4  11  17  27  42  62  86 123 165 196 226 266
#     4   8  15  27  41  61  88 116 147 187 231 275
#     4   9  16  27  42  62  91 121 153 191 234 283
#     4   8  15  27  41  57  82 119 158 190 222 263
#     4  10  17  26  43  68  92 117 150 190 243 286
#     4  10  18  28  43  64  92 124 158 193 228 273
#     4  11  22  30  36  57  98 136 163 196 230 262
#
# _framework density 14.824819
#
# number of rings (size 3 to 8) (size 9 to 14) (size 15 to 20)
#    0.000    2.538    3.077    1.846    0.000    0.923 
#    0.000    0.000    0.000    0.923    0.000    3.231 
#    0.000    3.077    0.000    6.000    0.000    0.000 
#
# Total GULP energy -289535.636482 kJ/mol
# GULP energy per Si atom -5567.993009 kJ/mol
# Density = 1.479108 g / cm^3
# Si number density = 14.824819 Si / 1000 Ang^3
#
#
#
# Elastic Constant Matrix: (Units=GPa)
#
#
# Indices 1 2 3 4 5 6 
#
# 1 134.2138 54.1166 54.3548 0.0000 0.0000 0.0000
# 2 54.1166 49.8168 22.1531 0.0000 0.0000 0.0000
# 3 54.3548 22.1531 67.0160 0.0000 0.0000 0.0000
# 4 0.0000 0.0000 0.0000 7.1055 0.0000 0.0000
# 5 0.0000 0.0000 0.0000 0.0000 15.7999 0.0000
# 6 0.0000 0.0000 0.0000 0.0000 0.0000 14.6985
#
#
#
# Elastic Compliance Matrix: (Units=1/GPa)
#
#
# Indices 1 2 3 4 5 6 
#
# 1 0.016842 -0.014327 -0.008924 0.000000 0.000000 0.000000
# 2 -0.014327 0.035721 -0.000188 0.000000 0.000000 0.000000
# 3 -0.008924 -0.000188 0.022222 0.000000 0.000000 0.000000
# 4 0.000000 0.000000 0.000000 0.140736 0.000000 0.000000
# 5 0.000000 0.000000 0.000000 0.000000 0.063292 0.000000
# 6 0.000000 0.000000 0.000000 0.000000 0.000000 0.068034
#
#
# Mechanical properties :
#
#
# Convention : Reuss Voigt Hill
#
# Bulk Modulus (GPa) = 35.83344 56.92175 46.37760
# Shear Modulus (GPa) = 12.40619 15.54892 13.97756
#
# Velocity S-wave (km/s) = 2.89598 3.24210 3.07391
# Velocity P-wave (km/s) = 5.95029 7.24531 6.62950
#
# Compressibility (1/GPa) = 0.02790689
#
# Stress axis : x y z
#
# Youngs Moduli (GPa) = 59.37682 27.99510 45.00105
#
# Poissons Ratio (x) = 0.40108 0.40158
# Poissons Ratio (y) = 0.85069 0.00845
# Poissons Ratio (z) = 0.52987 0.00526
#
# Static dielectric constant tensor:
#      x y z
#    x 1.493050 0.000000 0.000000 
#    y 0.000000 1.481780 0.000000 
#    z 0.000000 0.000000 1.491340 
# 
# From -- ./inp_files/34064.got.cif
#   From: 2010.05.17/outbox.cif.g08.bks.cpg/sg69_18_cif.got.tgz:34064.got - 2010.06.03 19:29:58.
