data_PCOD9511549
_publ_section_title
;
Structure prediction by ZEFSAII (Michael W. Deem and Ramdas Pophale) SiO2 
 PCOD9511549
Probable space group: F M M M
;
_chemical_formula_sum "Si O2"
_cell_formula_units_Z 168
_cell_length_a 18.202509
_cell_length_b 14.677691
_cell_length_c 28.471347
_cell_angle_alpha 90.000000
_cell_angle_beta 90.000000
_cell_angle_gamma 90.000000
_cell_volume 7606.712627
_symmetry_space_group_name_H-M "F M M M"
_symmetry_group_IT_number 69
_symmetry_cell_setting 'orthorhombic'
loop_
_space_group_symop_operation_xyz
x,y,z
-x,-y,z
x,-y,-z
-x,y,-z
-x,-y,-z
x,y,-z
-x,y,z
x,-y,z
x,1/2+y,1/2+z
-x,1/2-y,1/2+z
x,1/2-y,1/2-z
-x,1/2+y,1/2-z
-x,1/2-y,1/2-z
x,1/2+y,1/2-z
-x,1/2+y,1/2+z
x,1/2-y,1/2+z
1/2+x,y,1/2+z
1/2-x,-y,1/2+z
1/2+x,-y,1/2-z
1/2-x,y,1/2-z
1/2-x,-y,1/2-z
1/2+x,y,1/2-z
1/2-x,y,1/2+z
1/2+x,-y,1/2+z
1/2+x,1/2+y,z
1/2-x,1/2-y,z
1/2+x,1/2-y,-z
1/2-x,1/2+y,-z
1/2-x,1/2-y,-z
1/2+x,1/2+y,-z
1/2-x,1/2+y,z
1/2+x,1/2-y,z
loop_
_atom_site_type_symbol
_atom_site_label
_atom_site_fract_x
_atom_site_fract_y
_atom_site_fract_z
Si Si1 0.417977 0.360510 0.242561
Si Si2 0.665625 0.150503 0.652356
Si Si3 0.202650 0.610241 0.551634
Si Si4 0.372522 0.394568 0.432513
Si Si5 0.500000 0.331260 0.500000
Si Si6 0.170783 0.366509 0.168542
O O1 0.500000 0.392243 0.251810
O O2 0.418463 0.250000 0.250000
O O3 0.393058 0.384225 0.189855
O O4 0.361704 0.394267 0.281809
O O5 0.655950 0.142012 0.596425
O O6 0.744826 0.105341 0.662036
O O7 0.671496 0.256959 0.664610
O O8 0.176575 0.639450 0.500000
O O9 0.202729 0.500000 0.552872
O O10 0.288630 0.638134 0.557305
O O11 0.378824 0.500000 0.448246
O O12 0.434909 0.339695 0.459179
O O13 0.377067 0.395338 0.376138
#
# Coordination Sequence:
#
# PCOD9511549 Si02
#       6
#    32  32  32  32   8  32
#     4   9  17  30  50  71  98 128 159 199 250 301
#     4   9  17  32  51  73  96 127 165 205 246 290
#     4   9  17  32  52  73  97 127 167 208 247 292
#     4  10  19  31  47  70 100 135 167 195 236 293
#     4  12  21  32  48  66 102 146 169 188 235 306
#     4   9  18  31  49  74  98 128 165 203 241 291
#
# _framework density 22.085757000000001
#
# number of rings (size 3 to 8) (size 9 to 14) (size 15 to 20)
#    0.000    2.667    0.952    1.429    1.333    2.286 
#    1.714    2.857    0.000    6.857    0.000    1.333 
#    0.000    0.000    0.000    0.000    0.000    0.000 
#
# Total GULP energy -233921.373809 kJ/mol
# GULP energy per Si atom -5569.556519 kJ/mol
# Density = 2.203549 g / cm^3
# Si number density = 22.085757 Si / 1000 Ang^3
#
#
#
# Elastic Constant Matrix: (Units=GPa)
#
#
# Indices 1 2 3 4 5 6 
#
# 1 53.4111 6.0450 50.0109 0.0000 0.0000 0.0000
# 2 6.0450 59.6807 4.7783 0.0000 0.0000 0.0000
# 3 50.0109 4.7783 182.3551 0.0000 0.0000 0.0000
# 4 0.0000 0.0000 0.0000 15.3185 0.0000 0.0000
# 5 0.0000 0.0000 0.0000 0.0000 9.6075 0.0000
# 6 0.0000 0.0000 0.0000 0.0000 0.0000 -3.1207
#
#
#
# Elastic Compliance Matrix: (Units=1/GPa)
#
#
# Indices 1 2 3 4 5 6 
#
# 1 0.025433 -0.002022 -0.006922 0.000000 0.000000 0.000000
# 2 -0.002022 0.016952 0.000110 0.000000 0.000000 0.000000
# 3 -0.006922 0.000110 0.007379 0.000000 0.000000 0.000000
# 4 0.000000 0.000000 0.000000 0.065281 0.000000 0.000000
# 5 0.000000 0.000000 0.000000 0.000000 0.104085 0.000000
# 6 0.000000 0.000000 0.000000 0.000000 0.000000 -0.320439
#
#
# Mechanical properties :
#
#
# Convention : Reuss Voigt Hill
#
# Bulk Modulus (GPa) = 31.15571 46.34614 38.75092
# Shear Modulus (GPa) = -68.54648 20.00190 -24.27229
#
# Velocity S-wave (km/s) = -5.57709 3.01266 -3.31872
# Velocity P-wave (km/s) = 5.22824 5.75601 1.70252
#
# Compressibility (1/GPa) = 0.03209685
#
# Stress axis : x y z
#
# Youngs Moduli (GPa) = 39.31920 58.99081 135.51470
#
# Poissons Ratio (x) = 0.11927 0.93803
# Poissons Ratio (y) = 0.07950 -0.01495
# Poissons Ratio (z) = 0.27217 -0.00651
#
# Static dielectric constant tensor:
#      x y z
#    x 1.753050 0.000000 0.000000 
#    y 0.000000 1.898860 0.000000 
#    z 0.000000 0.000000 1.829670 
# 
# From -- ./inp_files/16873.got.cif
#   From: 2010.05.17/outbox.cif.g08.bks.cpg/sg69_9_cif.got.tgz:16873.got - 2010.06.03 19:29:58.
