data_PCOD9511810
_publ_section_title
;
Structure prediction by ZEFSAII (Michael W. Deem and Ramdas Pophale) SiO2 
 PCOD9511810
Probable space group: F M M M
;
_chemical_formula_sum "Si O2"
_cell_formula_units_Z 96
_cell_length_a 13.034389
_cell_length_b 13.262124
_cell_length_c 27.080364
_cell_angle_alpha 90.000000
_cell_angle_beta 90.000000
_cell_angle_gamma 90.000000
_cell_volume 4681.211463
_symmetry_space_group_name_H-M "F M M M"
_symmetry_group_IT_number 69
_symmetry_cell_setting 'orthorhombic'
loop_
_space_group_symop_operation_xyz
x,y,z
-x,-y,z
x,-y,-z
-x,y,-z
-x,-y,-z
x,y,-z
-x,y,z
x,-y,z
x,1/2+y,1/2+z
-x,1/2-y,1/2+z
x,1/2-y,1/2-z
-x,1/2+y,1/2-z
-x,1/2-y,1/2-z
x,1/2+y,1/2-z
-x,1/2+y,1/2+z
x,1/2-y,1/2+z
1/2+x,y,1/2+z
1/2-x,-y,1/2+z
1/2+x,-y,1/2-z
1/2-x,y,1/2-z
1/2-x,-y,1/2-z
1/2+x,y,1/2-z
1/2-x,y,1/2+z
1/2+x,-y,1/2+z
1/2+x,1/2+y,z
1/2-x,1/2-y,z
1/2+x,1/2-y,-z
1/2-x,1/2+y,-z
1/2-x,1/2-y,-z
1/2+x,1/2+y,-z
1/2-x,1/2+y,z
1/2+x,1/2-y,z
loop_
_atom_site_type_symbol
_atom_site_label
_atom_site_fract_x
_atom_site_fract_y
_atom_site_fract_z
Si Si1 0.383927 0.121867 0.556306
Si Si2 0.613694 0.790204 0.694518
Si Si3 0.717577 0.885787 0.139416
O O1 0.367249 0.156729 0.500000
O O2 0.500000 0.156119 0.571401
O O3 0.286656 0.141810 0.591437
O O4 0.389243 0.000000 0.555673
O O5 0.500000 0.830120 0.687988
O O6 0.624147 0.750000 0.750000
O O7 0.635371 0.696883 0.656905
O O8 0.697222 0.874042 0.682375
O O9 0.679401 0.000000 0.134986
#
# Coordination Sequence:
#
# PCOD9511810 Si02
#       3
#    32  32  32
#     4   8  14  26  47  76 105 131 164 207 252 299
#     4  10  22  37  50  71 105 136 165 209 259 304
#     4  10  19  33  55  77  98 130 171 210 249 298
#
# _framework density 20.507511999999998
#
# number of rings (size 3 to 8) (size 9 to 14) (size 15 to 20)
#    0.000    2.667    0.000    4.000    0.000    5.333 
#    0.000    6.667    0.000    3.000    0.000    4.667 
#    0.000    0.000    0.000    0.000    0.000    0.000 
#
# Total GULP energy -133625.275407 kJ/mol
# GULP energy per Si atom -5567.719809 kJ/mol
# Density = 2.046084 g / cm^3
# Si number density = 20.507512 Si / 1000 Ang^3
#
#
#
# Elastic Constant Matrix: (Units=GPa)
#
#
# Indices 1 2 3 4 5 6 
#
# 1 35.4267 -21.2843 -11.2707 0.0000 0.0000 0.0000
# 2 -21.2843 65.1247 -3.4182 0.0000 0.0000 0.0000
# 3 -11.2707 -3.4182 101.8924 0.0000 0.0000 0.0000
# 4 0.0000 0.0000 0.0000 22.9896 0.0000 0.0000
# 5 0.0000 0.0000 0.0000 0.0000 2.5539 0.0000
# 6 0.0000 0.0000 0.0000 0.0000 0.0000 -0.8528
#
#
#
# Elastic Compliance Matrix: (Units=1/GPa)
#
#
# Indices 1 2 3 4 5 6 
#
# 1 0.037090 0.012359 0.004517 0.000000 0.000000 0.000000
# 2 0.012359 0.019500 0.002021 0.000000 0.000000 0.000000
# 3 0.004517 0.002021 0.010382 0.000000 0.000000 0.000000
# 4 0.000000 0.000000 0.000000 0.043498 0.000000 0.000000
# 5 0.000000 0.000000 0.000000 0.000000 0.391551 0.000000
# 6 0.000000 0.000000 0.000000 0.000000 0.000000 -1.172628
#
#
# Mechanical properties :
#
#
# Convention : Reuss Voigt Hill
#
# Bulk Modulus (GPa) = 9.54507 14.49973 12.02240
# Shear Modulus (GPa) = -7.42413 20.83261 6.70424
#
# Velocity S-wave (km/s) = -1.90475 3.19070 1.81004
# Velocity P-wave (km/s) = 0.41579 4.54532 3.20055
#
# Compressibility (1/GPa) = 0.10476610
#
# Stress axis : x y z
#
# Youngs Moduli (GPa) = 26.96181 51.28103 96.32290
#
# Poissons Ratio (x) = -0.63377 -0.43511
# Poissons Ratio (y) = -0.33322 -0.19469
# Poissons Ratio (z) = -0.12179 -0.10365
#
# Static dielectric constant tensor:
#      x y z
#    x 1.739540 0.000000 0.000000 
#    y 0.000000 1.748720 0.000000 
#    z 0.000000 0.000000 1.797110 
# 
# From -- ./inp_files/9776.got.cif
#   From: 2010.05.17/outbox.cif.g08.bks.cpg/sg69_5_cif.got.tgz:9776.got - 2010.06.03 19:29:58.
