data_PCOD9511234
_publ_section_title
;
Structure prediction by ZEFSAII (Michael W. Deem and Ramdas Pophale) SiO2 
 PCOD9511234
Probable space group: F M M M
;
_chemical_formula_sum "Si O2"
_cell_formula_units_Z 160
_cell_length_a 15.584824
_cell_length_b 32.861256
_cell_length_c 16.729243
_cell_angle_alpha 90.000000
_cell_angle_beta 90.000000
_cell_angle_gamma 90.000000
_cell_volume 8567.662502
_symmetry_space_group_name_H-M "F M M M"
_symmetry_group_IT_number 69
_symmetry_cell_setting 'orthorhombic'
loop_
_space_group_symop_operation_xyz
x,y,z
-x,-y,z
x,-y,-z
-x,y,-z
-x,-y,-z
x,y,-z
-x,y,z
x,-y,z
x,1/2+y,1/2+z
-x,1/2-y,1/2+z
x,1/2-y,1/2-z
-x,1/2+y,1/2-z
-x,1/2-y,1/2-z
x,1/2+y,1/2-z
-x,1/2+y,1/2+z
x,1/2-y,1/2+z
1/2+x,y,1/2+z
1/2-x,-y,1/2+z
1/2+x,-y,1/2-z
1/2-x,y,1/2-z
1/2-x,-y,1/2-z
1/2+x,y,1/2-z
1/2-x,y,1/2+z
1/2+x,-y,1/2+z
1/2+x,1/2+y,z
1/2-x,1/2-y,z
1/2+x,1/2-y,-z
1/2-x,1/2+y,-z
1/2-x,1/2-y,-z
1/2+x,1/2+y,-z
1/2-x,1/2+y,z
1/2+x,1/2-y,z
loop_
_atom_site_type_symbol
_atom_site_label
_atom_site_fract_x
_atom_site_fract_y
_atom_site_fract_z
Si Si1 0.648249 0.259614 0.407664
Si Si2 0.762477 0.388655 0.590565
Si Si3 0.091755 0.829260 0.130405
Si Si4 0.338149 0.335097 0.296231
Si Si5 0.403658 0.047402 0.402915
O O1 0.625029 0.267096 0.500000
O O2 0.750000 0.250000 0.404651
O O3 0.602050 0.219122 0.376805
O O4 0.632394 0.298717 0.353117
O O5 0.733070 0.397280 0.500000
O O6 0.828283 0.350461 0.587836
O O7 0.688466 0.373883 0.650351
O O8 0.824009 0.424646 0.622452
O O9 0.098557 0.842051 0.223003
O O10 0.000000 0.841687 0.096527
O O11 0.250000 0.322235 0.250000
O O12 0.404134 0.050127 0.500000
O O13 0.500000 0.059756 0.376131
O O14 0.391752 0.000000 0.382131
#
# Coordination Sequence:
#
# PCOD9511234 Si02
#       5
#    32  32  32  32  32
#     4  11  20  32  49  68  90 120 158 203 248 285
#     4  10  18  30  51  74  96 124 161 198 235 284
#     4  11  23  34  48  70  95 126 164 203 244 289
#     4  10  20  32  48  65  93 129 160 192 238 292
#     4   8  14  25  43  71 106 134 153 187 243 293
#
# _framework density 18.674872000000001
#
# number of rings (size 3 to 8) (size 9 to 14) (size 15 to 20)
#    0.000    2.000    4.000    3.000    0.000    4.000 
#    0.000    0.000    0.000    7.200    0.000    0.000 
#    0.000    0.000    0.000    5.000    0.000    0.000 
#
# Total GULP energy -223090.414910 kJ/mol
# GULP energy per Si atom -5577.260373 kJ/mol
# Density = 1.863237 g / cm^3
# Si number density = 18.674872 Si / 1000 Ang^3
#
#
#
# Elastic Constant Matrix: (Units=GPa)
#
#
# Indices 1 2 3 4 5 6 
#
# 1 33.4094 4.7771 10.0340 0.0000 0.0000 0.0000
# 2 4.7771 84.2579 17.0135 0.0000 0.0000 0.0000
# 3 10.0340 17.0135 93.4653 0.0000 0.0000 0.0000
# 4 0.0000 0.0000 0.0000 6.9256 0.0000 0.0000
# 5 0.0000 0.0000 0.0000 0.0000 4.0068 0.0000
# 6 0.0000 0.0000 0.0000 0.0000 0.0000 -9.8817
#
#
#
# Elastic Compliance Matrix: (Units=1/GPa)
#
#
# Indices 1 2 3 4 5 6 
#
# 1 0.031032 -0.001128 -0.003126 0.000000 0.000000 0.000000
# 2 -0.001128 0.012362 -0.002129 0.000000 0.000000 0.000000
# 3 -0.003126 -0.002129 0.011422 0.000000 0.000000 0.000000
# 4 0.000000 0.000000 0.000000 0.144392 0.000000 0.000000
# 5 0.000000 0.000000 0.000000 0.000000 0.249573 0.000000
# 6 0.000000 0.000000 0.000000 0.000000 0.000000 -0.101197
#
#
# Mechanical properties :
#
#
# Convention : Reuss Voigt Hill
#
# Bulk Modulus (GPa) = 23.78147 30.53132 27.15640
# Shear Modulus (GPa) = 13.35584 12.16401 12.75992
#
# Velocity S-wave (km/s) = 2.67718 2.55494 2.61677
# Velocity P-wave (km/s) = 4.72425 5.00879 4.86860
#
# Compressibility (1/GPa) = 0.04204955
#
# Stress axis : x y z
#
# Youngs Moduli (GPa) = 32.22493 80.89164 87.54773
#
# Poissons Ratio (x) = 0.09126 0.27368
# Poissons Ratio (y) = 0.03636 0.18641
# Poissons Ratio (z) = 0.10074 0.17223
#
# Static dielectric constant tensor:
#      x y z
#    x 1.674480 0.000000 0.000000 
#    y 0.000000 1.658030 0.000000 
#    z 0.000000 0.000000 1.675160 
# 
# From -- ./inp_files/23410.got.cif
#   From: 2010.05.17/outbox.cif.g08.bks.cpg/sg69_12_cif.got.tgz:23410.got - 2010.06.03 19:29:58.
