data_PCOD9511243
_publ_section_title
;
Structure prediction by ZEFSAII (Michael W. Deem and Ramdas Pophale) SiO2 
 PCOD9511243
Probable space group: F M M M
;
_chemical_formula_sum "Si O2"
_cell_formula_units_Z 160
_cell_length_a 19.309569
_cell_length_b 25.719277
_cell_length_c 18.907211
_cell_angle_alpha 90.000000
_cell_angle_beta 90.000000
_cell_angle_gamma 90.000000
_cell_volume 9389.853294
_symmetry_space_group_name_H-M "F M M M"
_symmetry_group_IT_number 69
_symmetry_cell_setting 'orthorhombic'
loop_
_space_group_symop_operation_xyz
x,y,z
-x,-y,z
x,-y,-z
-x,y,-z
-x,-y,-z
x,y,-z
-x,y,z
x,-y,z
x,1/2+y,1/2+z
-x,1/2-y,1/2+z
x,1/2-y,1/2-z
-x,1/2+y,1/2-z
-x,1/2-y,1/2-z
x,1/2+y,1/2-z
-x,1/2+y,1/2+z
x,1/2-y,1/2+z
1/2+x,y,1/2+z
1/2-x,-y,1/2+z
1/2+x,-y,1/2-z
1/2-x,y,1/2-z
1/2-x,-y,1/2-z
1/2+x,y,1/2-z
1/2-x,y,1/2+z
1/2+x,-y,1/2+z
1/2+x,1/2+y,z
1/2-x,1/2-y,z
1/2+x,1/2-y,-z
1/2-x,1/2+y,-z
1/2-x,1/2-y,-z
1/2+x,1/2+y,-z
1/2-x,1/2+y,z
1/2+x,1/2-y,z
loop_
_atom_site_type_symbol
_atom_site_label
_atom_site_fract_x
_atom_site_fract_y
_atom_site_fract_z
Si Si1 0.422433 0.692623 0.216350
Si Si2 0.081575 0.000000 0.797147
Si Si3 0.079475 0.407829 0.187165
Si Si4 0.773202 0.308770 0.668201
Si Si5 0.694789 0.500000 0.082556
Si Si6 0.795139 0.098174 0.583579
O O1 0.500000 0.686918 0.185275
O O2 0.417216 0.750000 0.250000
O O3 0.416072 0.649086 0.277253
O O4 0.356422 0.686378 0.166100
O O5 0.095304 0.050361 0.748438
O O6 0.130315 0.000000 0.864863
O O7 0.000000 0.000000 0.815574
O O8 0.133636 0.413007 0.124376
O O9 0.000000 0.416529 0.164582
O O10 0.750000 0.318464 0.750000
O O11 0.750000 0.250000 0.651671
O O12 0.737427 0.350324 0.618011
O O13 0.742275 0.550567 0.095240
O O14 0.673904 0.500000 0.000000
O O15 0.805900 0.104056 0.500000
#
# Coordination Sequence:
#
# PCOD9511243 Si02
#       6
#    32  16  32  32  16  32
#     4  10  18  30  51  79 108 136 173 223 272 318
#     4  10  21  36  58  84 106 138 184 226 267 323
#     4  10  20  34  53  80 107 138 181 224 268 320
#     4  11  19  34  56  82 108 141 184 228 273 324
#     4  10  23  38  54  80 112 144 179 223 273 321
#     4  11  23  37  54  79 111 146 183 224 274 328
#
# _framework density 17.039670000000001
#
# number of rings (size 3 to 8) (size 9 to 14) (size 15 to 20)
#    0.000    1.600    4.000    1.800    0.000    1.800 
#    0.000    0.000    0.000    5.400    0.000    0.000 
#    0.000    0.000    0.000    0.000    0.000    0.000 
#
# Total GULP energy -223281.735526 kJ/mol
# GULP energy per Si atom -5582.043388 kJ/mol
# Density = 1.700089 g / cm^3
# Si number density = 17.039670 Si / 1000 Ang^3
#
#
#
# Elastic Constant Matrix: (Units=GPa)
#
#
# Indices 1 2 3 4 5 6 
#
# 1 153.5337 42.6711 90.3343 0.0000 0.0000 0.0000
# 2 42.6711 116.2206 75.8586 0.0000 0.0000 0.0000
# 3 90.3343 75.8586 106.7549 0.0000 0.0000 0.0000
# 4 0.0000 0.0000 0.0000 17.6982 0.0000 0.0000
# 5 0.0000 0.0000 0.0000 0.0000 15.6700 0.0000
# 6 0.0000 0.0000 0.0000 0.0000 0.0000 91.9280
#
#
#
# Elastic Compliance Matrix: (Units=1/GPa)
#
#
# Indices 1 2 3 4 5 6 
#
# 1 0.014355 0.004957 -0.015669 0.000000 0.000000 0.000000
# 2 0.004957 0.017759 -0.016814 0.000000 0.000000 0.000000
# 3 -0.015669 -0.016814 0.034574 0.000000 0.000000 0.000000
# 4 0.000000 0.000000 0.000000 0.056503 0.000000 0.000000
# 5 0.000000 0.000000 0.000000 0.000000 0.063816 0.000000
# 6 0.000000 0.000000 0.000000 0.000000 0.000000 0.010878
#
#
# Mechanical properties :
#
#
# Convention : Reuss Voigt Hill
#
# Bulk Modulus (GPa) = 85.94239 88.24857 87.09548
# Shear Modulus (GPa) = 19.46922 36.23558 27.85240
#
# Velocity S-wave (km/s) = 3.38388 4.61645 4.04736
# Velocity P-wave (km/s) = 8.11256 8.96203 8.54785
#
# Compressibility (1/GPa) = 0.01163570
#
# Stress axis : x y z
#
# Youngs Moduli (GPa) = 69.66307 56.30969 28.92343
#
# Poissons Ratio (x) = -0.27913 0.45321
# Poissons Ratio (y) = -0.34532 0.48631
# Poissons Ratio (z) = 1.09157 0.94678
#
# Static dielectric constant tensor:
#      x y z
#    x 1.598480 0.000000 0.000000 
#    y 0.000000 1.574890 0.000000 
#    z 0.000000 0.000000 1.527460 
# 
# From -- ./inp_files/23178.got.cif
#   From: 2010.05.17/outbox.cif.g08.bks.cpg/sg69_12_cif.got.tgz:23178.got - 2010.06.03 19:29:58.
