data_PCOD9511476
_publ_section_title
;
Structure prediction by ZEFSAII (Michael W. Deem and Ramdas Pophale) SiO2 
 PCOD9511476
Probable space group: F M M M
;
_chemical_formula_sum "Si O2"
_cell_formula_units_Z 192
_cell_length_a 14.450419
_cell_length_b 29.171180
_cell_length_c 24.517982
_cell_angle_alpha 90.000000
_cell_angle_beta 90.000000
_cell_angle_gamma 90.000000
_cell_volume 10335.206513
_symmetry_space_group_name_H-M "F M M M"
_symmetry_group_IT_number 69
_symmetry_cell_setting 'orthorhombic'
loop_
_space_group_symop_operation_xyz
x,y,z
-x,-y,z
x,-y,-z
-x,y,-z
-x,-y,-z
x,y,-z
-x,y,z
x,-y,z
x,1/2+y,1/2+z
-x,1/2-y,1/2+z
x,1/2-y,1/2-z
-x,1/2+y,1/2-z
-x,1/2-y,1/2-z
x,1/2+y,1/2-z
-x,1/2+y,1/2+z
x,1/2-y,1/2+z
1/2+x,y,1/2+z
1/2-x,-y,1/2+z
1/2+x,-y,1/2-z
1/2-x,y,1/2-z
1/2-x,-y,1/2-z
1/2+x,y,1/2-z
1/2-x,y,1/2+z
1/2+x,-y,1/2+z
1/2+x,1/2+y,z
1/2-x,1/2-y,z
1/2+x,1/2-y,-z
1/2-x,1/2+y,-z
1/2-x,1/2-y,-z
1/2+x,1/2+y,-z
1/2-x,1/2+y,z
1/2+x,1/2-y,z
loop_
_atom_site_type_symbol
_atom_site_label
_atom_site_fract_x
_atom_site_fract_y
_atom_site_fract_z
Si Si1 0.284448 0.950006 0.660488
Si Si2 0.896863 0.696726 0.147697
Si Si3 0.791474 0.849205 0.873120
Si Si4 0.606681 0.570597 0.730452
Si Si5 0.105885 0.176911 0.763961
Si Si6 0.854137 0.270126 0.439522
O O1 0.304524 0.903590 0.627620
O O2 0.353589 0.948263 0.712425
O O3 0.180854 0.944389 0.685309
O O4 0.292886 0.000000 0.634010
O O5 0.816802 0.663808 0.125293
O O6 0.874551 0.708199 0.211050
O O7 0.898497 0.740649 0.108675
O O8 0.000000 0.676244 0.147641
O O9 0.828616 0.827165 0.816100
O O10 0.844572 0.822447 0.920562
O O11 0.500000 0.557735 0.720960
O O12 0.611237 0.625660 0.737730
O O13 0.000000 0.185258 0.781842
O O14 0.893797 0.264950 0.500000
O O15 0.750000 0.250000 0.441480
#
# Coordination Sequence:
#
# PCOD9511476 Si02
#       6
#    32  32  32  32  32  32
#     4  10  19  28  44  72 101 136 178 210 247 299
#     4  10  19  32  53  77 103 133 167 209 255 312
#     4  10  19  34  52  71 106 141 169 211 258 304
#     4   9  16  28  44  66 102 140 171 206 245 294
#     4   9  17  29  48  75 105 138 174 202 242 306
#     4   9  20  37  54  71  91 125 172 217 262 309
#
# _framework density 18.577278
#
# number of rings (size 3 to 8) (size 9 to 14) (size 15 to 20)
#    0.000    2.500    1.667    1.500    0.000    3.000 
#    0.000    4.167    0.000    0.500    0.000    0.000 
#    0.000    0.000    0.000   19.667    0.000    0.000 
#
# Total GULP energy -267606.975698 kJ/mol
# GULP energy per Si atom -5575.145327 kJ/mol
# Density = 1.853500 g / cm^3
# Si number density = 18.577278 Si / 1000 Ang^3
#
#
#
# Elastic Constant Matrix: (Units=GPa)
#
#
# Indices 1 2 3 4 5 6 
#
# 1 79.4240 8.8272 18.0244 0.0000 0.0000 0.0000
# 2 8.8272 108.8618 52.1755 0.0000 0.0000 0.0000
# 3 18.0244 52.1755 63.2914 0.0000 0.0000 0.0000
# 4 0.0000 0.0000 0.0000 9.8591 0.0000 0.0000
# 5 0.0000 0.0000 0.0000 0.0000 2.1536 0.0000
# 6 0.0000 0.0000 0.0000 0.0000 0.0000 13.8313
#
#
#
# Elastic Compliance Matrix: (Units=1/GPa)
#
#
# Indices 1 2 3 4 5 6 
#
# 1 0.013561 0.001242 -0.004886 0.000000 0.000000 0.000000
# 2 0.001242 0.015300 -0.012966 0.000000 0.000000 0.000000
# 3 -0.004886 -0.012966 0.027881 0.000000 0.000000 0.000000
# 4 0.000000 0.000000 0.000000 0.101429 0.000000 0.000000
# 5 0.000000 0.000000 0.000000 0.000000 0.464331 0.000000
# 6 0.000000 0.000000 0.000000 0.000000 0.000000 0.072300
#
#
# Mechanical properties :
#
#
# Convention : Reuss Voigt Hill
#
# Bulk Modulus (GPa) = 42.51507 45.51461 44.01484
# Shear Modulus (GPa) = 6.79475 16.67215 11.73345
#
# Velocity S-wave (km/s) = 1.91455 2.99899 2.51590
# Velocity P-wave (km/s) = 5.27471 6.04527 5.67309
#
# Compressibility (1/GPa) = 0.02352107
#
# Stress axis : x y z
#
# Youngs Moduli (GPa) = 73.73849 65.36014 35.86724
#
# Poissons Ratio (x) = -0.08119 0.17525
# Poissons Ratio (y) = -0.09160 0.46507
# Poissons Ratio (z) = 0.36029 0.84749
#
# Static dielectric constant tensor:
#      x y z
#    x 1.667340 0.000000 0.000000 
#    y 0.000000 1.700490 0.000000 
#    z 0.000000 0.000000 1.634340 
# 
# From -- ./inp_files/45924.got.cif
#   From: 2010.05.17/outbox.cif.g08.bks.cpg/sg69_23_cif.got.tgz:45924.got - 2010.06.03 19:29:58.
