data_PCOD9511036
_publ_section_title
;
Structure prediction by ZEFSAII (Michael W. Deem and Ramdas Pophale) SiO2 
 PCOD9511036
Probable space group: F M M M
;
_chemical_formula_sum "Si O2"
_cell_formula_units_Z 168
_cell_length_a 17.838827
_cell_length_b 28.931966
_cell_length_c 14.622911
_cell_angle_alpha 90.000000
_cell_angle_beta 90.000000
_cell_angle_gamma 90.000000
_cell_volume 7547.064759
_symmetry_space_group_name_H-M "F M M M"
_symmetry_group_IT_number 69
_symmetry_cell_setting 'orthorhombic'
loop_
_space_group_symop_operation_xyz
x,y,z
-x,-y,z
x,-y,-z
-x,y,-z
-x,-y,-z
x,y,-z
-x,y,z
x,-y,z
x,1/2+y,1/2+z
-x,1/2-y,1/2+z
x,1/2-y,1/2-z
-x,1/2+y,1/2-z
-x,1/2-y,1/2-z
x,1/2+y,1/2-z
-x,1/2+y,1/2+z
x,1/2-y,1/2+z
1/2+x,y,1/2+z
1/2-x,-y,1/2+z
1/2+x,-y,1/2-z
1/2-x,y,1/2-z
1/2-x,-y,1/2-z
1/2+x,y,1/2-z
1/2-x,y,1/2+z
1/2+x,-y,1/2+z
1/2+x,1/2+y,z
1/2-x,1/2-y,z
1/2+x,1/2-y,-z
1/2-x,1/2+y,-z
1/2-x,1/2-y,-z
1/2+x,1/2+y,-z
1/2-x,1/2+y,z
1/2+x,1/2-y,z
loop_
_atom_site_type_symbol
_atom_site_label
_atom_site_fract_x
_atom_site_fract_y
_atom_site_fract_z
Si Si1 0.500000 0.395367 0.113390
Si Si2 0.414620 0.855769 0.109585
Si Si3 0.817891 0.500000 0.388341
Si Si4 0.665346 0.757507 0.142204
Si Si5 0.728290 0.406340 0.388436
Si Si6 0.858073 0.657634 0.605568
Si Si7 0.000000 0.000000 0.842575
O O1 0.572887 0.368960 0.146785
O O2 0.500000 0.445577 0.152744
O O3 0.500000 0.398431 0.000000
O O4 0.500000 0.857026 0.144984
O O5 0.375074 0.805620 0.122735
O O6 0.355917 0.894684 0.143935
O O7 0.419666 0.861798 0.000000
O O8 0.824290 0.500000 0.500000
O O9 0.770372 0.453807 0.362370
O O10 0.903034 0.500000 0.352753
O O11 0.669268 0.750000 0.250000
O O12 0.750000 0.750000 0.105494
O O13 0.624870 0.711583 0.108259
O O14 0.723971 0.407406 0.500000
O O15 0.779831 0.362516 0.358093
O O16 0.855489 0.644016 0.500000
#
# Coordination Sequence:
#
# PCOD9511036 Si02
#       7
#    16  32  16  32  32  32   8
#     4  10  19  28  45  77 113 142 174 213 261 322
#     4  10  21  37  56  77 104 142 187 228 262 307
#     4  10  17  26  45  76 113 143 169 213 270 323
#     4  11  23  37  54  78 107 138 178 221 274 328
#     4   9  17  30  49  74 105 141 177 214 266 320
#     4  10  19  32  50  75 110 147 179 214 258 320
#     4  12  17  24  44  80 120 146 168 210 269 326
#
# _framework density 22.26031
#
# number of rings (size 3 to 8) (size 9 to 14) (size 15 to 20)
#    0.000    1.905    3.810    1.429    1.333    1.143 
#    0.000    0.476    0.000    2.857    0.000    4.000 
#    0.000    0.000    0.000    0.000    0.000    0.000 
#
# Total GULP energy -233801.874113 kJ/mol
# GULP energy per Si atom -5566.711288 kJ/mol
# Density = 2.220964 g / cm^3
# Si number density = 22.260310 Si / 1000 Ang^3
#
#
#
# Elastic Constant Matrix: (Units=GPa)
#
#
# Indices 1 2 3 4 5 6 
#
# 1 210.6553 95.2181 14.3200 0.0000 0.0000 0.0000
# 2 95.2181 144.5854 -16.7696 0.0000 0.0000 0.0000
# 3 14.3200 -16.7696 49.2114 0.0000 0.0000 0.0000
# 4 0.0000 0.0000 0.0000 -32.6175 0.0000 0.0000
# 5 0.0000 0.0000 0.0000 0.0000 14.1771 0.0000
# 6 0.0000 0.0000 0.0000 0.0000 0.0000 47.8737
#
#
#
# Elastic Compliance Matrix: (Units=1/GPa)
#
#
# Indices 1 2 3 4 5 6 
#
# 1 0.007444 -0.005366 -0.003995 0.000000 0.000000 0.000000
# 2 -0.005366 0.011068 0.005333 0.000000 0.000000 0.000000
# 3 -0.003995 0.005333 0.023300 0.000000 0.000000 0.000000
# 4 0.000000 0.000000 0.000000 -0.030658 0.000000 0.000000
# 5 0.000000 0.000000 0.000000 0.000000 0.070536 0.000000
# 6 0.000000 0.000000 0.000000 0.000000 0.000000 0.020888
#
#
# Mechanical properties :
#
#
# Convention : Reuss Voigt Hill
#
# Bulk Modulus (GPa) = 29.62214 65.55436 47.58825
# Shear Modulus (GPa) = 41.02214 26.66558 33.84386
#
# Velocity S-wave (km/s) = 4.29749 3.46482 3.90342
# Velocity P-wave (km/s) = 6.16121 6.74682 6.46065
#
# Compressibility (1/GPa) = 0.03375853
#
# Stress axis : x y z
#
# Youngs Moduli (GPa) = 134.33788 90.34711 42.91810
#
# Poissons Ratio (x) = 0.48476 0.17144
# Poissons Ratio (y) = 0.72080 -0.22889
# Poissons Ratio (z) = 0.53661 -0.48183
#
# Static dielectric constant tensor:
#      x y z
#    x 1.883720 0.000000 0.000000 
#    y 0.000000 1.830760 0.000000 
#    z 0.000000 0.000000 1.679090 
# 
# From -- ./inp_files/30149.got.cif
#   From: 2010.05.17/outbox.cif.g08.bks.cpg/sg69_16_cif.got.tgz:30149.got - 2010.06.03 19:29:58.
