data_PCOD9511902
_publ_section_title
;
Structure prediction by ZEFSAII (Michael W. Deem and Ramdas Pophale) SiO2 
 PCOD9511902
Probable space group: F M M M
;
_chemical_formula_sum "Si O2"
_cell_formula_units_Z 160
_cell_length_a 17.888676
_cell_length_b 28.118515
_cell_length_c 17.917341
_cell_angle_alpha 90.000000
_cell_angle_beta 90.000000
_cell_angle_gamma 90.000000
_cell_volume 9012.476355
_symmetry_space_group_name_H-M "F M M M"
_symmetry_group_IT_number 69
_symmetry_cell_setting 'orthorhombic'
loop_
_space_group_symop_operation_xyz
x,y,z
-x,-y,z
x,-y,-z
-x,y,-z
-x,-y,-z
x,y,-z
-x,y,z
x,-y,z
x,1/2+y,1/2+z
-x,1/2-y,1/2+z
x,1/2-y,1/2-z
-x,1/2+y,1/2-z
-x,1/2-y,1/2-z
x,1/2+y,1/2-z
-x,1/2+y,1/2+z
x,1/2-y,1/2+z
1/2+x,y,1/2+z
1/2-x,-y,1/2+z
1/2+x,-y,1/2-z
1/2-x,y,1/2-z
1/2-x,-y,1/2-z
1/2+x,y,1/2-z
1/2-x,y,1/2+z
1/2+x,-y,1/2+z
1/2+x,1/2+y,z
1/2-x,1/2-y,z
1/2+x,1/2-y,-z
1/2-x,1/2+y,-z
1/2-x,1/2-y,-z
1/2+x,1/2+y,-z
1/2-x,1/2+y,z
1/2+x,1/2-y,z
loop_
_atom_site_type_symbol
_atom_site_label
_atom_site_fract_x
_atom_site_fract_y
_atom_site_fract_z
Si Si1 0.219776 0.054644 0.411982
Si Si2 0.815580 0.123500 0.188515
Si Si3 0.835590 0.767456 0.168782
Si Si4 0.089038 0.687797 0.082376
Si Si5 0.588789 0.596069 0.319791
O O1 0.210150 0.063850 0.500000
O O2 0.279104 0.090530 0.374629
O O3 0.141381 0.061517 0.368053
O O4 0.244245 0.000000 0.402366
O O5 0.750000 0.130933 0.250000
O O6 0.838900 0.175902 0.162095
O O7 0.881931 0.098534 0.235021
O O8 0.864230 0.750000 0.250000
O O9 0.750000 0.750000 0.164670
O O10 0.879132 0.738177 0.106742
O O11 0.106768 0.647662 0.143278
O O12 0.000000 0.690394 0.079811
O O13 0.116831 0.673847 0.000000
O O14 0.500000 0.587290 0.325580
#
# Coordination Sequence:
#
# PCOD9511902 Si02
#       5
#    32  32  32  32  32
#     4  10  22  39  58  80 107 142 182 229 282 327
#     4  10  19  34  56  79 108 141 184 225 269 324
#     4  11  18  31  51  77 106 140 180 220 258 308
#     4  10  21  34  49  75 111 147 179 214 265 325
#     4  10  20  34  55  82 111 143 178 222 271 326
#
# _framework density 17.753167999999999
#
# number of rings (size 3 to 8) (size 9 to 14) (size 15 to 20)
#    0.000    1.800    4.000    1.800    0.000    7.600 
#    0.000    1.000    0.000    0.600    0.000    1.400 
#    0.000    0.000    0.000    0.000    0.000    0.000 
#
# Total GULP energy -223134.815488 kJ/mol
# GULP energy per Si atom -5578.370387 kJ/mol
# Density = 1.771276 g / cm^3
# Si number density = 17.753168 Si / 1000 Ang^3
#
#
#
# Elastic Constant Matrix: (Units=GPa)
#
#
# Indices 1 2 3 4 5 6 
#
# 1 48.3085 28.1021 40.0673 0.0000 0.0000 0.0000
# 2 28.1021 100.3815 35.7299 0.0000 0.0000 0.0000
# 3 40.0673 35.7299 67.8677 0.0000 0.0000 0.0000
# 4 0.0000 0.0000 0.0000 41.3500 0.0000 0.0000
# 5 0.0000 0.0000 0.0000 0.0000 20.8962 0.0000
# 6 0.0000 0.0000 0.0000 0.0000 0.0000 18.0186
#
#
#
# Elastic Compliance Matrix: (Units=1/GPa)
#
#
# Indices 1 2 3 4 5 6 
#
# 1 0.041577 -0.003572 -0.022665 0.000000 0.000000 0.000000
# 2 -0.003572 0.012566 -0.004507 0.000000 0.000000 0.000000
# 3 -0.022665 -0.004507 0.030488 0.000000 0.000000 0.000000
# 4 0.000000 0.000000 0.000000 0.024184 0.000000 0.000000
# 5 0.000000 0.000000 0.000000 0.000000 0.047856 0.000000
# 6 0.000000 0.000000 0.000000 0.000000 0.000000 0.055498
#
#
# Mechanical properties :
#
#
# Convention : Reuss Voigt Hill
#
# Bulk Modulus (GPa) = 43.20971 47.15071 45.18021
# Shear Modulus (GPa) = 17.77006 23.56352 20.66679
#
# Velocity S-wave (km/s) = 3.16721 3.64714 3.41562
# Velocity P-wave (km/s) = 6.14548 6.65975 6.40778
#
# Compressibility (1/GPa) = 0.02314295
#
# Stress axis : x y z
#
# Youngs Moduli (GPa) = 24.05170 79.57887 32.79945
#
# Poissons Ratio (x) = 0.28426 0.74342
# Poissons Ratio (y) = 0.08591 0.14782
# Poissons Ratio (z) = 0.54514 0.35864
#
# Static dielectric constant tensor:
#      x y z
#    x 1.617620 0.000000 0.000000 
#    y 0.000000 1.602710 0.000000 
#    z 0.000000 0.000000 1.623870 
# 
# From -- ./inp_files/23130.got.cif
#   From: 2010.05.17/outbox.cif.g08.bks.cpg/sg69_12_cif.got.tgz:23130.got - 2010.06.03 19:29:58.
