data_PCOD9511423
_publ_section_title
;
Structure prediction by ZEFSAII (Michael W. Deem and Ramdas Pophale) SiO2 
 PCOD9511423
Probable space group: F M M M
;
_chemical_formula_sum "Si O2"
_cell_formula_units_Z 192
_cell_length_a 19.250826
_cell_length_b 28.174847
_cell_length_c 18.090314
_cell_angle_alpha 90.000000
_cell_angle_beta 90.000000
_cell_angle_gamma 90.000000
_cell_volume 9811.988716
_symmetry_space_group_name_H-M "F M M M"
_symmetry_group_IT_number 69
_symmetry_cell_setting 'orthorhombic'
loop_
_space_group_symop_operation_xyz
x,y,z
-x,-y,z
x,-y,-z
-x,y,-z
-x,-y,-z
x,y,-z
-x,y,z
x,-y,z
x,1/2+y,1/2+z
-x,1/2-y,1/2+z
x,1/2-y,1/2-z
-x,1/2+y,1/2-z
-x,1/2-y,1/2-z
x,1/2+y,1/2-z
-x,1/2+y,1/2+z
x,1/2-y,1/2+z
1/2+x,y,1/2+z
1/2-x,-y,1/2+z
1/2+x,-y,1/2-z
1/2-x,y,1/2-z
1/2-x,-y,1/2-z
1/2+x,y,1/2-z
1/2-x,y,1/2+z
1/2+x,-y,1/2+z
1/2+x,1/2+y,z
1/2-x,1/2-y,z
1/2+x,1/2-y,-z
1/2-x,1/2+y,-z
1/2-x,1/2-y,-z
1/2+x,1/2+y,-z
1/2-x,1/2+y,z
1/2+x,1/2-y,z
loop_
_atom_site_type_symbol
_atom_site_label
_atom_site_fract_x
_atom_site_fract_y
_atom_site_fract_z
Si Si1 0.079445 0.500000 0.409742
Si Si2 0.185271 0.189734 0.089152
Si Si3 0.320986 0.084910 0.589200
Si Si4 0.083069 0.946523 0.500000
Si Si5 0.304494 0.053586 0.183634
Si Si6 0.081287 0.384026 0.145835
Si Si7 0.348283 0.792146 0.089271
O O1 0.078173 0.500000 0.500000
O O2 0.123190 0.545954 0.386200
O O3 0.000000 0.500000 0.384114
O O4 0.161976 0.138178 0.115412
O O5 0.267687 0.194479 0.104099
O O6 0.146048 0.237292 0.114337
O O7 0.179244 0.190602 0.000000
O O8 0.320703 0.085242 0.500000
O O9 0.244579 0.070177 0.616181
O O10 0.097530 0.915163 0.572013
O O11 0.000000 0.951833 0.500000
O O12 0.113201 0.000000 0.500000
O O13 0.250000 0.052722 0.250000
O O14 0.365679 0.090395 0.200880
O O15 0.331259 0.000000 0.172169
O O16 0.102990 0.330212 0.128469
O O17 0.000000 0.387924 0.163093
O O18 0.358838 0.794949 0.000000
#
# Coordination Sequence:
#
# PCOD9511423 Si02
#       7
#    16  32  32  16  32  32  32
#     4   9  18  32  51  78 105 125 169 242 304 340
#     4   8  15  26  47  78 111 144 184 231 272 316
#     4  10  18  33  58  84 105 139 186 234 289 336
#     4   9  18  30  46  77 116 152 182 214 265 329
#     4  11  24  39  55  79 116 149 191 238 278 342
#     4  11  21  34  54  81 119 156 185 224 279 344
#     4   9  15  27  47  78 117 149 181 225 272 323
#
# _framework density 19.567899000000001
#
# number of rings (size 3 to 8) (size 9 to 14) (size 15 to 20)
#    0.000    2.333    3.333    1.500    1.167    1.000 
#    0.000    1.667    0.000    5.000    0.000    1.167 
#    0.000    0.000    0.000    0.000    0.000    0.000 
#
# Total GULP energy -267645.330819 kJ/mol
# GULP energy per Si atom -5575.944392 kJ/mol
# Density = 1.952336 g / cm^3
# Si number density = 19.567899 Si / 1000 Ang^3
#
#
#
# Elastic Constant Matrix: (Units=GPa)
#
#
# Indices 1 2 3 4 5 6 
#
# 1 123.4379 77.3800 7.9828 0.0000 0.0000 0.0000
# 2 77.3800 192.8354 11.5098 0.0000 0.0000 0.0000
# 3 7.9828 11.5098 12.5257 0.0000 0.0000 0.0000
# 4 0.0000 0.0000 0.0000 13.0588 0.0000 0.0000
# 5 0.0000 0.0000 0.0000 0.0000 12.8030 0.0000
# 6 0.0000 0.0000 0.0000 0.0000 0.0000 31.6270
#
#
#
# Elastic Compliance Matrix: (Units=1/GPa)
#
#
# Indices 1 2 3 4 5 6 
#
# 1 0.010937 -0.004203 -0.003108 0.000000 0.000000 0.000000
# 2 -0.004203 0.007102 -0.003847 0.000000 0.000000 0.000000
# 3 -0.003108 -0.003847 0.085351 0.000000 0.000000 0.000000
# 4 0.000000 0.000000 0.000000 0.076577 0.000000 0.000000
# 5 0.000000 0.000000 0.000000 0.000000 0.078107 0.000000
# 6 0.000000 0.000000 0.000000 0.000000 0.000000 0.031619
#
#
# Mechanical properties :
#
#
# Convention : Reuss Voigt Hill
#
# Bulk Modulus (GPa) = 12.33445 58.06047 35.19746
# Shear Modulus (GPa) = 14.74776 26.95952 20.85364
#
# Velocity S-wave (km/s) = 2.74829 3.71582 3.26806
# Velocity P-wave (km/s) = 4.04819 6.93869 5.68038
#
# Compressibility (1/GPa) = 0.08107372
#
# Stress axis : x y z
#
# Youngs Moduli (GPa) = 91.43123 140.80375 11.71626
#
# Poissons Ratio (x) = 0.59184 0.03641
# Poissons Ratio (y) = 0.38431 0.04507
# Poissons Ratio (z) = 0.28417 0.54170
#
# Static dielectric constant tensor:
#      x y z
#    x 1.671620 0.000000 0.000000 
#    y 0.000000 1.715220 0.000000 
#    z 0.000000 0.000000 1.827880 
# 
# From -- ./inp_files/32173.got.cif
#   From: 2010.05.17/outbox.cif.g08.bks.cpg/sg69_17_cif.got.tgz:32173.got - 2010.06.03 19:29:58.
