data_PCOD9511486
_publ_section_title
;
Structure prediction by ZEFSAII (Michael W. Deem and Ramdas Pophale) SiO2 
 PCOD9511486
Probable space group: F M M M
;
_chemical_formula_sum "Si O2"
_cell_formula_units_Z 208
_cell_length_a 27.442096
_cell_length_b 27.272589
_cell_length_c 17.909305
_cell_angle_alpha 90.000000
_cell_angle_beta 90.000000
_cell_angle_gamma 90.000000
_cell_volume 13403.628419
_symmetry_space_group_name_H-M "F M M M"
_symmetry_group_IT_number 69
_symmetry_cell_setting 'orthorhombic'
loop_
_space_group_symop_operation_xyz
x,y,z
-x,-y,z
x,-y,-z
-x,y,-z
-x,-y,-z
x,y,-z
-x,y,z
x,-y,z
x,1/2+y,1/2+z
-x,1/2-y,1/2+z
x,1/2-y,1/2-z
-x,1/2+y,1/2-z
-x,1/2-y,1/2-z
x,1/2+y,1/2-z
-x,1/2+y,1/2+z
x,1/2-y,1/2+z
1/2+x,y,1/2+z
1/2-x,-y,1/2+z
1/2+x,-y,1/2-z
1/2-x,y,1/2-z
1/2-x,-y,1/2-z
1/2+x,y,1/2-z
1/2-x,y,1/2+z
1/2+x,-y,1/2+z
1/2+x,1/2+y,z
1/2-x,1/2-y,z
1/2+x,1/2-y,-z
1/2-x,1/2+y,-z
1/2-x,1/2-y,-z
1/2+x,1/2+y,-z
1/2-x,1/2+y,z
1/2+x,1/2-y,z
loop_
_atom_site_type_symbol
_atom_site_label
_atom_site_fract_x
_atom_site_fract_y
_atom_site_fract_z
Si Si1 0.500000 0.559026 0.088407
Si Si2 0.441788 0.141335 0.916912
Si Si3 0.615126 0.057630 0.158208
Si Si4 0.058781 0.193981 0.264155
Si Si5 0.591268 0.098630 0.682184
Si Si6 0.773226 0.940799 0.327979
Si Si7 0.678055 0.058272 0.587304
O O1 0.500000 0.500000 0.094881
O O2 0.547238 0.580427 0.130113
O O3 0.500000 0.570972 0.000000
O O4 0.500000 0.133854 0.913838
O O5 0.415113 0.090492 0.898842
O O6 0.429335 0.177578 0.848801
O O7 0.429333 0.159087 0.000000
O O8 0.593758 0.067628 0.240921
O O9 0.671491 0.075251 0.159420
O O10 0.613309 0.000000 0.141378
O O11 0.072887 0.250000 0.250000
O O12 0.082632 0.154354 0.208757
O O13 0.000000 0.190068 0.255037
O O14 0.640929 0.088542 0.637809
O O15 0.750000 0.923212 0.250000
O O16 0.733761 0.929709 0.391530
O O17 0.776403 0.000000 0.322551
O O18 0.668722 0.065515 0.500000
O O19 0.670828 0.000000 0.604131
#
# Coordination Sequence:
#
# PCOD9511486 Si02
#       7
#    16  32  32  32  32  32  32
#     4  11  22  32  43  66 107 145 166 193 236 292
#     4   9  19  34  49  71 101 129 158 195 247 300
#     4  10  19  29  48  72  97 133 170 204 236 282
#     4   9  18  35  56  72  92 124 165 211 251 289
#     4  11  19  32  48  71  96 129 169 202 241 297
#     4   9  16  29  45  65  94 130 172 206 237 278
#     4  10  19  30  46  69 102 138 165 198 244 291
#
# _framework density 15.518186
#
# number of rings (size 3 to 8) (size 9 to 14) (size 15 to 20)
#    0.000    2.231    2.308    1.846    1.077    2.462 
#    0.000    3.846    0.000    0.000    0.000    8.615 
#    0.000    6.154    0.000    0.000    0.000    0.000 
#
# Total GULP energy -289831.576656 kJ/mol
# GULP energy per Si atom -5573.684166 kJ/mol
# Density = 1.548287 g / cm^3
# Si number density = 15.518186 Si / 1000 Ang^3
#
#
#
# Elastic Constant Matrix: (Units=GPa)
#
#
# Indices 1 2 3 4 5 6 
#
# 1 53.1700 29.7953 39.0035 0.0000 0.0000 0.0000
# 2 29.7953 91.5093 48.6297 0.0000 0.0000 0.0000
# 3 39.0035 48.6297 99.0668 0.0000 0.0000 0.0000
# 4 0.0000 0.0000 0.0000 10.9130 0.0000 0.0000
# 5 0.0000 0.0000 0.0000 0.0000 24.0567 0.0000
# 6 0.0000 0.0000 0.0000 0.0000 0.0000 -0.6320
#
#
#
# Elastic Compliance Matrix: (Units=1/GPa)
#
#
# Indices 1 2 3 4 5 6 
#
# 1 0.027672 -0.004357 -0.008756 0.000000 0.000000 0.000000
# 2 -0.004357 0.015471 -0.005879 0.000000 0.000000 0.000000
# 3 -0.008756 -0.005879 0.016427 0.000000 0.000000 0.000000
# 4 0.000000 0.000000 0.000000 0.091634 0.000000 0.000000
# 5 0.000000 0.000000 0.000000 0.000000 0.041568 0.000000
# 6 0.000000 0.000000 0.000000 0.000000 0.000000 -1.582374
#
#
# Mechanical properties :
#
#
# Convention : Reuss Voigt Hill
#
# Bulk Modulus (GPa) = 46.32518 53.17810 49.75164
# Shear Modulus (GPa) = -3.71907 15.28873 5.78483
#
# Velocity S-wave (km/s) = -1.54977 3.14222 1.93284
# Velocity P-wave (km/s) = 5.16862 6.89256 6.09188
#
# Compressibility (1/GPa) = 0.02158653
#
# Stress axis : x y z
#
# Youngs Moduli (GPa) = 36.13728 64.63893 60.87418
#
# Poissons Ratio (x) = 0.28162 0.53302
# Poissons Ratio (y) = 0.15745 0.35787
# Poissons Ratio (z) = 0.31642 0.38000
#
# Static dielectric constant tensor:
#      x y z
#    x 1.521690 0.000000 0.000000 
#    y 0.000000 1.487220 0.000000 
#    z 0.000000 0.000000 1.527490 
# 
# From -- ./inp_files/27061.got.cif
#   From: 2010.05.17/outbox.cif.g08.bks.cpg/sg69_14_cif.got.tgz:27061.got - 2010.06.03 19:29:58.
