data_PCOD9511470
_publ_section_title
;
Structure prediction by ZEFSAII (Michael W. Deem and Ramdas Pophale) SiO2 
 PCOD9511470
Probable space group: F M M M
;
_chemical_formula_sum "Si O2"
_cell_formula_units_Z 64
_cell_length_a 25.122786
_cell_length_b 14.109620
_cell_length_c 8.218210
_cell_angle_alpha 90.000000
_cell_angle_beta 90.000000
_cell_angle_gamma 90.000000
_cell_volume 2913.133256
_symmetry_space_group_name_H-M "F M M M"
_symmetry_group_IT_number 69
_symmetry_cell_setting 'orthorhombic'
loop_
_space_group_symop_operation_xyz
x,y,z
-x,-y,z
x,-y,-z
-x,y,-z
-x,-y,-z
x,y,-z
-x,y,z
x,-y,z
x,1/2+y,1/2+z
-x,1/2-y,1/2+z
x,1/2-y,1/2-z
-x,1/2+y,1/2-z
-x,1/2-y,1/2-z
x,1/2+y,1/2-z
-x,1/2+y,1/2+z
x,1/2-y,1/2+z
1/2+x,y,1/2+z
1/2-x,-y,1/2+z
1/2+x,-y,1/2-z
1/2-x,y,1/2-z
1/2-x,-y,1/2-z
1/2+x,y,1/2-z
1/2-x,y,1/2+z
1/2+x,-y,1/2+z
1/2+x,1/2+y,z
1/2-x,1/2-y,z
1/2+x,1/2-y,-z
1/2-x,1/2+y,-z
1/2-x,1/2-y,-z
1/2+x,1/2+y,-z
1/2-x,1/2+y,z
1/2+x,1/2-y,z
loop_
_atom_site_type_symbol
_atom_site_label
_atom_site_fract_x
_atom_site_fract_y
_atom_site_fract_z
Si Si1 0.410842 0.500000 0.193847
Si Si2 0.725953 0.107952 0.500000
Si Si3 0.831423 0.500000 0.000000
Si Si4 0.750000 0.250000 0.250000
Si Si5 0.000000 0.142447 0.304505
O O1 0.364874 0.500000 0.332751
O O2 0.448320 0.589718 0.233717
O O3 0.399380 0.500000 0.000000
O O4 0.790037 0.088601 0.500000
O O5 0.714324 0.176654 0.351280
O O6 0.706512 0.000000 0.500000
O O7 0.000000 0.250000 0.250000
O O8 0.000000 0.132403 0.500000
#
# Coordination Sequence:
#
# PCOD9511470 Si02
#       5
#    16  16   8   8  16
#     4  11  21  41  58  83 123 157 197 247 304 354
#     4   9  21  38  64  89 123 155 205 248 310 363
#     4  10  22  43  52  92 128 154 192 260 318 355
#     4  10  18  42  64  88 116 164 206 250 284 388
#     4  11  20  37  62  84 112 162 211 245 287 358
#
# _framework density 21.969473000000001
#
# number of rings (size 3 to 8) (size 9 to 14) (size 15 to 20)
#    0.750    1.000    2.500    4.500    0.000    0.000 
#   13.500    0.000    0.000    0.000    0.000    0.000 
#    0.000    0.000    0.000    0.000    0.000    0.000 
#
# Total GULP energy -89196.431383 kJ/mol
# GULP energy per Si atom -5574.776961 kJ/mol
# Density = 2.191947 g / cm^3
# Si number density = 21.969473 Si / 1000 Ang^3
#
#
#
# Elastic Constant Matrix: (Units=GPa)
#
#
# Indices 1 2 3 4 5 6 
#
# 1 122.1649 41.4544 61.7592 0.0000 0.0000 0.0000
# 2 41.4544 222.9400 74.6761 0.0000 0.0000 0.0000
# 3 61.7592 74.6761 219.4705 0.0000 0.0000 0.0000
# 4 0.0000 0.0000 0.0000 45.8465 0.0000 0.0000
# 5 0.0000 0.0000 0.0000 0.0000 35.0977 0.0000
# 6 0.0000 0.0000 0.0000 0.0000 0.0000 -8.7974
#
#
#
# Elastic Compliance Matrix: (Units=1/GPa)
#
#
# Indices 1 2 3 4 5 6 
#
# 1 0.009740 -0.001008 -0.002398 0.000000 0.000000 0.000000
# 2 -0.001008 0.005167 -0.001474 0.000000 0.000000 0.000000
# 3 -0.002398 -0.001474 0.005733 0.000000 0.000000 0.000000
# 4 0.000000 0.000000 0.000000 0.021812 0.000000 0.000000
# 5 0.000000 0.000000 0.000000 0.000000 0.028492 0.000000
# 6 0.000000 0.000000 0.000000 0.000000 0.000000 -0.113670
#
#
# Mechanical properties :
#
#
# Convention : Reuss Voigt Hill
#
# Bulk Modulus (GPa) = 91.91850 102.26164 97.09007
# Shear Modulus (GPa) = -170.41568 40.20841 -65.10364
#
# Velocity S-wave (km/s) = -8.81690 4.28272 -5.44959
# Velocity P-wave (km/s) = 7.85622 8.43231 2.16605
#
# Compressibility (1/GPa) = 0.01087920
#
# Stress axis : x y z
#
# Youngs Moduli (GPa) = 102.67058 193.54375 174.43295
#
# Poissons Ratio (x) = 0.19507 0.41827
# Poissons Ratio (y) = 0.10348 0.25719
# Poissons Ratio (z) = 0.24619 0.28536
#
# Static dielectric constant tensor:
#      x y z
#    x 1.796860 0.000000 0.000000 
#    y 0.000000 1.786810 0.000000 
#    z 0.000000 0.000000 1.908870 
# 
# From -- ./inp_files/1735.got.cif
#   From: 2010.05.17/outbox.cif.g08.bks.cpg/sg69_1_cif.got.tgz:1735.got - 2010.06.03 19:29:58.
