data_PCOD9511115
_publ_section_title
;
Structure prediction by ZEFSAII (Michael W. Deem and Ramdas Pophale) SiO2 
 PCOD9511115
Probable space group: F M M M
;
_chemical_formula_sum "Si O2"
_cell_formula_units_Z 192
_cell_length_a 30.587700
_cell_length_b 23.267234
_cell_length_c 14.680045
_cell_angle_alpha 90.000000
_cell_angle_beta 90.000000
_cell_angle_gamma 90.000000
_cell_volume 10447.658452
_symmetry_space_group_name_H-M "F M M M"
_symmetry_group_IT_number 69
_symmetry_cell_setting 'orthorhombic'
loop_
_space_group_symop_operation_xyz
x,y,z
-x,-y,z
x,-y,-z
-x,y,-z
-x,-y,-z
x,y,-z
-x,y,z
x,-y,z
x,1/2+y,1/2+z
-x,1/2-y,1/2+z
x,1/2-y,1/2-z
-x,1/2+y,1/2-z
-x,1/2-y,1/2-z
x,1/2+y,1/2-z
-x,1/2+y,1/2+z
x,1/2-y,1/2+z
1/2+x,y,1/2+z
1/2-x,-y,1/2+z
1/2+x,-y,1/2-z
1/2-x,y,1/2-z
1/2-x,-y,1/2-z
1/2+x,y,1/2-z
1/2-x,y,1/2+z
1/2+x,-y,1/2+z
1/2+x,1/2+y,z
1/2-x,1/2-y,z
1/2+x,1/2-y,-z
1/2-x,1/2+y,-z
1/2-x,1/2-y,-z
1/2+x,1/2+y,-z
1/2-x,1/2+y,z
1/2+x,1/2-y,z
loop_
_atom_site_type_symbol
_atom_site_label
_atom_site_fract_x
_atom_site_fract_y
_atom_site_fract_z
Si Si1 0.000000 0.848110 0.100756
Si Si2 0.595101 0.656818 0.889030
Si Si3 0.404966 0.788576 0.108908
Si Si4 0.660160 0.390750 0.394156
Si Si5 0.754164 0.433548 0.603738
Si Si6 0.656513 0.935731 0.297993
Si Si7 0.500000 0.279224 0.347474
O O1 0.046547 0.861705 0.143471
O O2 0.000000 0.778549 0.091527
O O3 0.000000 0.874080 0.000000
O O4 0.601855 0.722984 0.858195
O O5 0.629544 0.613149 0.848744
O O6 0.595716 0.655838 0.000000
O O7 0.365420 0.831827 0.128237
O O8 0.453391 0.809441 0.138990
O O9 0.407248 0.784886 0.000000
O O10 0.649490 0.406695 0.500000
O O11 0.712996 0.391191 0.389834
O O12 0.648156 0.431570 0.309956
O O13 0.772092 0.428586 0.500000
O O14 0.738043 0.500000 0.612941
O O15 0.792613 0.425669 0.676022
O O16 0.645893 0.000000 0.330787
O O17 0.500000 0.250000 0.250000
#
# Coordination Sequence:
#
# PCOD9511115 Si02
#       7
#    16  32  32  32  32  32  16
#     4   8  16  32  51  73 103 139 173 210 267 329
#     4   9  18  34  56  80 109 139 170 218 276 329
#     4   9  19  35  53  78 109 142 175 215 266 322
#     4  10  21  35  53  77 108 141 178 219 264 318
#     4   9  18  35  57  79 103 135 180 232 279 323
#     4  11  22  34  54  80 107 139 182 228 271 317
#     4  10  18  26  52  82 105 136 174 219 258 310
#
# _framework density 18.377324000000002
#
# number of rings (size 3 to 8) (size 9 to 14) (size 15 to 20)
#    0.000    2.500    0.000    3.250    4.667    3.333 
#    0.000    1.250    0.000    7.500    0.000    1.750 
#    0.000   13.333    0.000    0.000    0.000    0.000 
#
# Total GULP energy -267233.790214 kJ/mol
# GULP energy per Si atom -5567.370629 kJ/mol
# Density = 1.833550 g / cm^3
# Si number density = 18.377324 Si / 1000 Ang^3
#
#
#
# Elastic Constant Matrix: (Units=GPa)
#
#
# Indices 1 2 3 4 5 6 
#
# 1 124.3373 73.9137 25.0539 0.0000 0.0000 0.0000
# 2 73.9137 79.4171 32.3783 0.0000 0.0000 0.0000
# 3 25.0539 32.3783 61.9773 0.0000 0.0000 0.0000
# 4 0.0000 0.0000 0.0000 21.7107 0.0000 0.0000
# 5 0.0000 0.0000 0.0000 0.0000 13.2496 0.0000
# 6 0.0000 0.0000 0.0000 0.0000 0.0000 -39.4610
#
#
#
# Elastic Compliance Matrix: (Units=1/GPa)
#
#
# Indices 1 2 3 4 5 6 
#
# 1 0.018176 -0.017689 0.001893 0.000000 0.000000 0.000000
# 2 -0.017689 0.033214 -0.010201 0.000000 0.000000 0.000000
# 3 0.001893 -0.010201 0.020699 0.000000 0.000000 0.000000
# 4 0.000000 0.000000 0.000000 0.046060 0.000000 0.000000
# 5 0.000000 0.000000 0.000000 0.000000 0.075474 0.000000
# 6 0.000000 0.000000 0.000000 0.000000 0.000000 -0.025341
#
#
# Mechanical properties :
#
#
# Convention : Reuss Voigt Hill
#
# Bulk Modulus (GPa) = 49.76115 58.71373 54.23744
# Shear Modulus (GPa) = 22.02905 8.05890 15.04397
#
# Velocity S-wave (km/s) = 3.46599 2.09637 2.86425
# Velocity P-wave (km/s) = 6.56915 6.15451 6.36521
#
# Compressibility (1/GPa) = 0.02009600
#
# Stress axis : x y z
#
# Youngs Moduli (GPa) = 55.01652 30.10823 48.31201
#
# Poissons Ratio (x) = 0.53257 -0.09147
# Poissons Ratio (y) = 0.97317 0.49283
# Poissons Ratio (z) = -0.10416 0.30713
#
# Static dielectric constant tensor:
#      x y z
#    x 1.651150 0.000000 0.000000 
#    y 0.000000 1.609350 0.000000 
#    z 0.000000 0.000000 1.742560 
# 
# From -- ./inp_files/19823.got.cif
#   From: 2010.05.17/outbox.cif.g08.bks.cpg/sg69_10_cif.got.tgz:19823.got - 2010.06.03 19:29:58.
