data_PCOD9511964
_publ_section_title
;
Structure prediction by ZEFSAII (Michael W. Deem and Ramdas Pophale) SiO2 
 PCOD9511964
Probable space group: F M M M
;
_chemical_formula_sum "Si O2"
_cell_formula_units_Z 128
_cell_length_a 14.818886
_cell_length_b 24.042401
_cell_length_c 19.711033
_cell_angle_alpha 90.000000
_cell_angle_beta 90.000000
_cell_angle_gamma 90.000000
_cell_volume 7022.678367
_symmetry_space_group_name_H-M "F M M M"
_symmetry_group_IT_number 69
_symmetry_cell_setting 'orthorhombic'
loop_
_space_group_symop_operation_xyz
x,y,z
-x,-y,z
x,-y,-z
-x,y,-z
-x,-y,-z
x,y,-z
-x,y,z
x,-y,z
x,1/2+y,1/2+z
-x,1/2-y,1/2+z
x,1/2-y,1/2-z
-x,1/2+y,1/2-z
-x,1/2-y,1/2-z
x,1/2+y,1/2-z
-x,1/2+y,1/2+z
x,1/2-y,1/2+z
1/2+x,y,1/2+z
1/2-x,-y,1/2+z
1/2+x,-y,1/2-z
1/2-x,y,1/2-z
1/2-x,-y,1/2-z
1/2+x,y,1/2-z
1/2-x,y,1/2+z
1/2+x,-y,1/2+z
1/2+x,1/2+y,z
1/2-x,1/2-y,z
1/2+x,1/2-y,-z
1/2-x,1/2+y,-z
1/2-x,1/2-y,-z
1/2+x,1/2+y,-z
1/2-x,1/2+y,z
1/2+x,1/2-y,z
loop_
_atom_site_type_symbol
_atom_site_label
_atom_site_fract_x
_atom_site_fract_y
_atom_site_fract_z
Si Si1 0.136960 0.116686 0.812780
Si Si2 0.500000 0.784534 0.321681
Si Si3 0.900081 0.500000 0.387242
Si Si4 0.156410 0.112118 0.653885
Si Si5 0.193258 0.500000 0.076461
Si Si6 0.000000 0.181668 0.581822
O O1 0.127724 0.107498 0.732130
O O2 0.238497 0.128458 0.838398
O O3 0.082606 0.172706 0.826696
O O4 0.105352 0.058353 0.845818
O O5 0.500000 0.750000 0.250000
O O6 0.500000 0.742070 0.383776
O O7 0.803213 0.500000 0.424812
O O8 0.000000 0.500000 0.420468
O O9 0.088798 0.151218 0.612388
O O10 0.159101 0.053352 0.616547
O O11 0.159640 0.500000 0.000000
O O12 0.000000 0.181524 0.500000
#
# Coordination Sequence:
#
# PCOD9511964 Si02
#       6
#    32  16  16  32  16  16
#     4  10  20  38  66  96 120 152 210 267 313 353
#     4  12  22  41  63  93 120 163 221 262 302 368
#     4  10  19  34  62  92 121 149 198 257 314 365
#     4  10  21  39  62  92 122 164 204 258 308 367
#     4  10  21  37  57  89 130 165 196 240 313 393
#     4  12  26  43  60  89 130 171 209 257 316 377
#
# _framework density 18.226664
#
# number of rings (size 3 to 8) (size 9 to 14) (size 15 to 20)
#    0.000    1.500    3.750    1.500    0.000    4.750 
#    0.000    8.750    0.000    0.000    0.000    0.000 
#    0.000    0.000    0.000    0.000    0.000    0.000 
#
# Total GULP energy -178329.584912 kJ/mol
# GULP energy per Si atom -5572.799528 kJ/mol
# Density = 1.818518 g / cm^3
# Si number density = 18.226664 Si / 1000 Ang^3
#
#
#
# Elastic Constant Matrix: (Units=GPa)
#
#
# Indices 1 2 3 4 5 6 
#
# 1 81.9635 70.5432 61.4017 0.0000 0.0000 0.0000
# 2 70.5432 165.0261 84.0962 0.0000 0.0000 0.0000
# 3 61.4017 84.0962 143.1441 0.0000 0.0000 0.0000
# 4 0.0000 0.0000 0.0000 -438.2146 0.0000 0.0000
# 5 0.0000 0.0000 0.0000 0.0000 9.0236 0.0000
# 6 0.0000 0.0000 0.0000 0.0000 0.0000 43.3150
#
#
#
# Elastic Compliance Matrix: (Units=1/GPa)
#
#
# Indices 1 2 3 4 5 6 
#
# 1 0.022051 -0.006574 -0.005597 0.000000 0.000000 0.000000
# 2 -0.006574 0.010609 -0.003413 0.000000 0.000000 0.000000
# 3 -0.005597 -0.003413 0.011392 0.000000 0.000000 0.000000
# 4 0.000000 0.000000 0.000000 -0.002282 0.000000 0.000000
# 5 0.000000 0.000000 0.000000 0.000000 0.110820 0.000000
# 6 0.000000 0.000000 0.000000 0.000000 0.000000 0.023087
#
#
# Mechanical properties :
#
#
# Convention : Reuss Voigt Hill
#
# Bulk Modulus (GPa) = 77.61049 91.35730 84.48389
# Shear Modulus (GPa) = 23.68111 -65.56901 -20.94395
#
# Velocity S-wave (km/s) = 3.60843 -6.00436 -3.39349
# Velocity P-wave (km/s) = 7.74817 1.47035 5.57656
#
# Compressibility (1/GPa) = 0.01288486
#
# Stress axis : x y z
#
# Youngs Moduli (GPa) = 45.34856 94.25959 87.78416
#
# Poissons Ratio (x) = 0.61969 0.49130
# Poissons Ratio (y) = 0.29813 0.29958
# Poissons Ratio (z) = 0.25380 0.32168
#
# Static dielectric constant tensor:
#      x y z
#    x 1.668980 0.000000 0.000000 
#    y 0.000000 1.585080 0.000000 
#    z 0.000000 0.000000 1.604510 
# 
# From -- ./inp_files/16417.got.cif
#   From: 2010.05.17/outbox.cif.g08.bks.cpg/sg69_9_cif.got.tgz:16417.got - 2010.06.03 19:29:58.
