data_PCOD9511814
_publ_section_title
;
Structure prediction by ZEFSAII (Michael W. Deem and Ramdas Pophale) SiO2 
 PCOD9511814
Probable space group: F M M M
;
_chemical_formula_sum "Si O2"
_cell_formula_units_Z 168
_cell_length_a 15.024590
_cell_length_b 26.058094
_cell_length_c 20.239591
_cell_angle_alpha 90.000000
_cell_angle_beta 90.000000
_cell_angle_gamma 90.000000
_cell_volume 7924.046365
_symmetry_space_group_name_H-M "F M M M"
_symmetry_group_IT_number 69
_symmetry_cell_setting 'orthorhombic'
loop_
_space_group_symop_operation_xyz
x,y,z
-x,-y,z
x,-y,-z
-x,y,-z
-x,-y,-z
x,y,-z
-x,y,z
x,-y,z
x,1/2+y,1/2+z
-x,1/2-y,1/2+z
x,1/2-y,1/2-z
-x,1/2+y,1/2-z
-x,1/2-y,1/2-z
x,1/2+y,1/2-z
-x,1/2+y,1/2+z
x,1/2-y,1/2+z
1/2+x,y,1/2+z
1/2-x,-y,1/2+z
1/2+x,-y,1/2-z
1/2-x,y,1/2-z
1/2-x,-y,1/2-z
1/2+x,y,1/2-z
1/2-x,y,1/2+z
1/2+x,-y,1/2+z
1/2+x,1/2+y,z
1/2-x,1/2-y,z
1/2+x,1/2-y,-z
1/2-x,1/2+y,-z
1/2-x,1/2-y,-z
1/2+x,1/2+y,-z
1/2-x,1/2+y,z
1/2+x,1/2-y,z
loop_
_atom_site_type_symbol
_atom_site_label
_atom_site_fract_x
_atom_site_fract_y
_atom_site_fract_z
Si Si1 0.394235 0.413658 0.749091
Si Si2 0.500000 0.101334 0.000000
Si Si3 0.136452 0.942393 0.400995
Si Si4 0.157002 0.556461 0.391386
Si Si5 0.108735 0.699527 0.287491
Si Si6 0.896086 0.168180 0.928767
O O1 0.500000 0.417815 0.762400
O O2 0.376159 0.435991 0.677363
O O3 0.346736 0.439621 0.811447
O O4 0.368911 0.353507 0.750834
O O5 0.422467 0.096631 0.942242
O O6 0.241114 0.938689 0.414110
O O7 0.106634 0.000000 0.420141
O O8 0.123087 0.500000 0.410670
O O9 0.107941 0.606767 0.417647
O O10 0.139545 0.750000 0.250000
O O11 0.142175 0.693900 0.362770
O O12 0.000000 0.701295 0.289844
O O13 0.000000 0.182675 0.930940
O O14 0.855433 0.180874 0.000000
#
# Coordination Sequence:
#
# PCOD9511814 Si02
#       6
#    32   8  32  32  32  32
#     4  10  19  33  55  81 110 144 183 237 285 326
#     4  12  25  40  56  76 104 156 196 224 284 344
#     4  11  22  36  54  75 108 147 189 231 276 334
#     4  10  21  33  51  79 110 147 190 230 272 326
#     4   8  15  30  54  78 104 137 179 223 269 329
#     4   9  18  32  51  78 112 148 182 223 279 340
#
# _framework density 21.201288999999999
#
# number of rings (size 3 to 8) (size 9 to 14) (size 15 to 20)
#    0.000    2.286    0.952    3.714    1.333    4.190 
#    0.000    0.952    2.095    9.143    0.000    1.333 
#    0.000    0.000    0.000    0.000    0.000    0.000 
#
# Total GULP energy -233954.056575 kJ/mol
# GULP energy per Si atom -5570.334680 kJ/mol
# Density = 2.115303 g / cm^3
# Si number density = 21.201289 Si / 1000 Ang^3
#
#
#
# Elastic Constant Matrix: (Units=GPa)
#
#
# Indices 1 2 3 4 5 6 
#
# 1 49.1613 -3.2904 0.8826 0.0000 0.0000 0.0000
# 2 -3.2904 85.5891 28.8212 0.0000 0.0000 0.0000
# 3 0.8826 28.8212 130.0919 0.0000 0.0000 0.0000
# 4 0.0000 0.0000 0.0000 -79.7913 0.0000 0.0000
# 5 0.0000 0.0000 0.0000 0.0000 -16.3828 0.0000
# 6 0.0000 0.0000 0.0000 0.0000 0.0000 10.4495
#
#
#
# Elastic Compliance Matrix: (Units=1/GPa)
#
#
# Indices 1 2 3 4 5 6 
#
# 1 0.020407 0.000898 -0.000337 0.000000 0.000000 0.000000
# 2 0.000898 0.012665 -0.002812 0.000000 0.000000 0.000000
# 3 -0.000337 -0.002812 0.008312 0.000000 0.000000 0.000000
# 4 0.000000 0.000000 0.000000 -0.012533 0.000000 0.000000
# 5 0.000000 0.000000 0.000000 0.000000 -0.061040 0.000000
# 6 0.000000 0.000000 0.000000 0.000000 0.000000 0.095698
#
#
# Mechanical properties :
#
#
# Convention : Reuss Voigt Hill
#
# Bulk Modulus (GPa) = 27.11338 35.29656 31.20497
# Shear Modulus (GPa) = 62.26091 -1.24965 30.50563
#
# Velocity S-wave (km/s) = 5.42497 -0.76857 3.79734
# Velocity P-wave (km/s) = 7.21504 3.98709 5.82896
#
# Compressibility (1/GPa) = 0.03688217
#
# Stress axis : x y z
#
# Youngs Moduli (GPa) = 49.00193 78.95669 120.30591
#
# Poissons Ratio (x) = -0.07092 0.04060
# Poissons Ratio (y) = -0.04401 0.33830
# Poissons Ratio (z) = 0.01654 0.22203
#
# Static dielectric constant tensor:
#      x y z
#    x 1.784290 0.000000 0.000000 
#    y 0.000000 1.761270 0.000000 
#    z 0.000000 0.000000 1.787600 
# 
# From -- ./inp_files/29996.got.cif
#   From: 2010.05.17/outbox.cif.g08.bks.cpg/sg69_15_cif.got.tgz:29996.got - 2010.06.03 19:29:58.
