data_PCOD9511740
_publ_section_title
;
Structure prediction by ZEFSAII (Michael W. Deem and Ramdas Pophale) SiO2 
 PCOD9511740
Probable space group: F M M M
;
_chemical_formula_sum "Si O2"
_cell_formula_units_Z 208
_cell_length_a 27.464220
_cell_length_b 18.251892
_cell_length_c 25.741708
_cell_angle_alpha 90.000000
_cell_angle_beta 90.000000
_cell_angle_gamma 90.000000
_cell_volume 12903.648352
_symmetry_space_group_name_H-M "F M M M"
_symmetry_group_IT_number 69
_symmetry_cell_setting 'orthorhombic'
loop_
_space_group_symop_operation_xyz
x,y,z
-x,-y,z
x,-y,-z
-x,y,-z
-x,-y,-z
x,y,-z
-x,y,z
x,-y,z
x,1/2+y,1/2+z
-x,1/2-y,1/2+z
x,1/2-y,1/2-z
-x,1/2+y,1/2-z
-x,1/2-y,1/2-z
x,1/2+y,1/2-z
-x,1/2+y,1/2+z
x,1/2-y,1/2+z
1/2+x,y,1/2+z
1/2-x,-y,1/2+z
1/2+x,-y,1/2-z
1/2-x,y,1/2-z
1/2-x,-y,1/2-z
1/2+x,y,1/2-z
1/2-x,y,1/2+z
1/2+x,-y,1/2+z
1/2+x,1/2+y,z
1/2-x,1/2-y,z
1/2+x,1/2-y,-z
1/2-x,1/2+y,-z
1/2-x,1/2-y,-z
1/2+x,1/2+y,-z
1/2-x,1/2+y,z
1/2+x,1/2-y,z
loop_
_atom_site_type_symbol
_atom_site_label
_atom_site_fract_x
_atom_site_fract_y
_atom_site_fract_z
Si Si1 0.625948 0.684933 0.713803
Si Si2 0.696662 0.781853 0.641903
Si Si3 0.941339 0.351778 0.880454
Si Si4 0.058849 0.500000 0.940633
Si Si5 0.385515 0.277841 0.062123
Si Si6 0.555968 0.580621 0.936889
Si Si7 0.698132 0.412879 0.219950
O O1 0.604976 0.750000 0.750000
O O2 0.666745 0.728550 0.680607
O O3 0.585292 0.654132 0.675004
O O4 0.654463 0.622195 0.745620
O O5 0.750000 0.750000 0.636089
O O6 0.667036 0.778136 0.588504
O O7 0.698897 0.862031 0.668502
O O8 0.927787 0.427430 0.909066
O O9 0.919000 0.286792 0.915343
O O10 0.000000 0.346466 0.876762
O O11 0.000000 0.500000 0.943637
O O12 0.077343 0.500000 0.000000
O O13 0.410579 0.353462 0.079864
O O14 0.383811 0.274077 0.000000
O O15 0.500000 0.591719 0.920809
O O16 0.571975 0.500000 0.919572
O O17 0.556008 0.580580 0.000000
O O18 0.691711 0.500000 0.211036
O O19 0.750000 0.402976 0.250000
#
# Coordination Sequence:
#
# PCOD9511740 Si02
#       7
#    32  32  32  16  32  32  32
#     4   9  19  33  53  78 103 134 165 211 266 317
#     4  10  19  34  51  72 104 133 165 216 266 308
#     4  10  20  33  51  76 107 140 178 217 257 307
#     4   9  18  32  50  72 101 140 182 222 258 293
#     4  10  20  32  50  75 101 140 184 215 253 305
#     4   8  14  26  45  69  96 127 165 209 252 293
#     4  10  19  32  56  80  96 124 166 212 260 313
#
# _framework density 16.119472999999999
#
# number of rings (size 3 to 8) (size 9 to 14) (size 15 to 20)
#    0.000    2.538    1.538    1.385    1.077    2.769 
#    0.000    0.000    0.000    0.000    0.000    0.000 
#    0.000    0.000    0.000    0.000    0.000    0.000 
#
# Total GULP energy -289694.242541 kJ/mol
# GULP energy per Si atom -5571.043126 kJ/mol
# Density = 1.608278 g / cm^3
# Si number density = 16.119473 Si / 1000 Ang^3
#
#
#
# Elastic Constant Matrix: (Units=GPa)
#
#
# Indices 1 2 3 4 5 6 
#
# 1 81.0955 59.9638 55.2335 0.0000 0.0000 0.0000
# 2 59.9638 133.2612 58.1498 0.0000 0.0000 0.0000
# 3 55.2335 58.1498 79.7495 0.0000 0.0000 0.0000
# 4 0.0000 0.0000 0.0000 22.5005 0.0000 0.0000
# 5 0.0000 0.0000 0.0000 0.0000 19.0629 0.0000
# 6 0.0000 0.0000 0.0000 0.0000 0.0000 5.9898
#
#
#
# Elastic Compliance Matrix: (Units=1/GPa)
#
#
# Indices 1 2 3 4 5 6 
#
# 1 0.025924 -0.005618 -0.013858 0.000000 0.000000 0.000000
# 2 -0.005618 0.012223 -0.005022 0.000000 0.000000 0.000000
# 3 -0.013858 -0.005022 0.025799 0.000000 0.000000 0.000000
# 4 0.000000 0.000000 0.000000 0.044444 0.000000 0.000000
# 5 0.000000 0.000000 0.000000 0.000000 0.052458 0.000000
# 6 0.000000 0.000000 0.000000 0.000000 0.000000 0.166950
#
#
# Mechanical properties :
#
#
# Convention : Reuss Voigt Hill
#
# Bulk Modulus (GPa) = 66.88830 71.20004 69.04417
# Shear Modulus (GPa) = 13.09665 17.56124 15.32894
#
# Velocity S-wave (km/s) = 2.85348 3.30425 3.08711
# Velocity P-wave (km/s) = 7.24168 7.66965 7.45873
#
# Compressibility (1/GPa) = 0.01495030
#
# Stress axis : x y z
#
# Youngs Moduli (GPa) = 38.57456 81.81133 38.76117
#
# Poissons Ratio (x) = 0.45960 0.53716
# Poissons Ratio (y) = 0.21670 0.19465
# Poissons Ratio (z) = 0.53458 0.41084
#
# Static dielectric constant tensor:
#      x y z
#    x 1.517290 0.000000 0.000000 
#    y 0.000000 1.540830 0.000000 
#    z 0.000000 0.000000 1.542280 
# 
# From -- ./inp_files/42219.got.cif
#   From: 2010.05.17/outbox.cif.g08.bks.cpg/sg69_22_cif.got.tgz:42219.got - 2010.06.03 19:29:58.
