data_PCOD9511604
_publ_section_title
;
Structure prediction by ZEFSAII (Michael W. Deem and Ramdas Pophale) SiO2 
 PCOD9511604
Probable space group: F M M M
;
_chemical_formula_sum "Si O2"
_cell_formula_units_Z 240
_cell_length_a 30.666555
_cell_length_b 21.903072
_cell_length_c 19.054257
_cell_angle_alpha 90.000000
_cell_angle_beta 90.000000
_cell_angle_gamma 90.000000
_cell_volume 12798.587461
_symmetry_space_group_name_H-M "F M M M"
_symmetry_group_IT_number 69
_symmetry_cell_setting 'orthorhombic'
loop_
_space_group_symop_operation_xyz
x,y,z
-x,-y,z
x,-y,-z
-x,y,-z
-x,-y,-z
x,y,-z
-x,y,z
x,-y,z
x,1/2+y,1/2+z
-x,1/2-y,1/2+z
x,1/2-y,1/2-z
-x,1/2+y,1/2-z
-x,1/2-y,1/2-z
x,1/2+y,1/2-z
-x,1/2+y,1/2+z
x,1/2-y,1/2+z
1/2+x,y,1/2+z
1/2-x,-y,1/2+z
1/2+x,-y,1/2-z
1/2-x,y,1/2-z
1/2-x,-y,1/2-z
1/2+x,y,1/2-z
1/2-x,y,1/2+z
1/2+x,-y,1/2+z
1/2+x,1/2+y,z
1/2-x,1/2-y,z
1/2+x,1/2-y,-z
1/2-x,1/2+y,-z
1/2-x,1/2-y,-z
1/2+x,1/2+y,-z
1/2-x,1/2+y,z
1/2+x,1/2-y,z
loop_
_atom_site_type_symbol
_atom_site_label
_atom_site_fract_x
_atom_site_fract_y
_atom_site_fract_z
Si Si1 0.584766 0.688080 0.919088
Si Si2 0.197867 0.134310 0.329467
Si Si3 0.386287 0.068738 0.661285
Si Si4 0.395980 0.095517 0.175021
Si Si5 0.048207 0.785596 0.677147
Si Si6 0.947918 0.500000 0.916390
Si Si7 0.318122 0.243916 0.581541
Si Si8 0.293716 0.126948 0.665643
O O1 0.589823 0.623988 0.878662
O O2 0.551997 0.734385 0.882249
O O3 0.631164 0.723689 0.914539
O O4 0.574656 0.677140 0.000000
O O5 0.155025 0.094689 0.344663
O O6 0.192492 0.196165 0.373720
O O7 0.244577 0.102322 0.341155
O O8 0.198104 0.148737 0.245941
O O9 0.397782 0.073924 0.743996
O O10 0.334442 0.082582 0.651327
O O11 0.396319 0.000000 0.637377
O O12 0.414531 0.163980 0.171992
O O13 0.425230 0.056714 0.122414
O O14 0.053583 0.750000 0.750000
O O15 0.000000 0.814494 0.675783
O O16 0.000000 0.500000 0.905463
O O17 0.939999 0.500000 0.000000
O O18 0.306920 0.252939 0.500000
O O19 0.294939 0.185389 0.615256
#
# Coordination Sequence:
#
# PCOD9511604 Si02
#       8
#    32  32  32  32  32  16  32  32
#     4  10  21  37  59  89 122 157 196 244 300 355
#     4  10  19  33  54  82 115 150 191 239 290 352
#     4  10  20  38  62  86 118 160 206 248 289 347
#     4  11  21  39  65  88 114 155 198 241 299 356
#     4  11  22  37  62  94 121 147 186 241 303 364
#     4  11  26  46  64  87 119 153 199 250 294 356
#     4  10  19  31  51  78 114 155 193 233 285 350
#     4   9  20  33  50  84 114 152 193 242 288 333
#
# _framework density 18.752068999999999
#
# number of rings (size 3 to 8) (size 9 to 14) (size 15 to 20)
#    0.000    1.800    3.333    1.200    0.000    3.733 
#    1.200    1.333    0.000    0.000    0.000    0.933 
#    0.000    0.000    0.000    0.000    0.000    0.000 
#
# Total GULP energy -334710.521024 kJ/mol
# GULP energy per Si atom -5578.508684 kJ/mol
# Density = 1.870939 g / cm^3
# Si number density = 18.752069 Si / 1000 Ang^3
#
#
#
# Elastic Constant Matrix: (Units=GPa)
#
#
# Indices 1 2 3 4 5 6 
#
# 1 83.8319 17.4648 36.2904 0.0000 0.0000 0.0000
# 2 17.4648 68.1296 27.3294 0.0000 0.0000 0.0000
# 3 36.2904 27.3294 76.8097 0.0000 0.0000 0.0000
# 4 0.0000 0.0000 0.0000 16.3283 0.0000 0.0000
# 5 0.0000 0.0000 0.0000 0.0000 12.3367 0.0000
# 6 0.0000 0.0000 0.0000 0.0000 0.0000 14.8485
#
#
#
# Elastic Compliance Matrix: (Units=1/GPa)
#
#
# Indices 1 2 3 4 5 6 
#
# 1 0.015076 -0.001175 -0.006705 0.000000 0.000000 0.000000
# 2 -0.001175 0.017213 -0.005569 0.000000 0.000000 0.000000
# 3 -0.006705 -0.005569 0.018169 0.000000 0.000000 0.000000
# 4 0.000000 0.000000 0.000000 0.061243 0.000000 0.000000
# 5 0.000000 0.000000 0.000000 0.000000 0.081059 0.000000
# 6 0.000000 0.000000 0.000000 0.000000 0.000000 0.067347
#
#
# Mechanical properties :
#
#
# Convention : Reuss Voigt Hill
#
# Bulk Modulus (GPa) = 42.44627 43.43780 42.94204
# Shear Modulus (GPa) = 16.95727 18.54848 17.75287
#
# Velocity S-wave (km/s) = 3.01040 3.14848 3.08021
# Velocity P-wave (km/s) = 5.89644 6.03587 5.96656
#
# Compressibility (1/GPa) = 0.02355919
#
# Stress axis : x y z
#
# Youngs Moduli (GPa) = 66.33085 58.09486 55.03989
#
# Poissons Ratio (x) = 0.06827 0.36903
# Poissons Ratio (y) = 0.07795 0.30654
# Poissons Ratio (z) = 0.44474 0.32355
#
# Static dielectric constant tensor:
#      x y z
#    x 1.685790 0.000000 0.000000 
#    y 0.000000 1.700070 0.000000 
#    z 0.000000 0.000000 1.627480 
# 
# From -- ./inp_files/34089.got.cif
#   From: 2010.05.17/outbox.cif.g08.bks.cpg/sg69_18_cif.got.tgz:34089.got - 2010.06.03 19:29:58.
