data_PCOD9511795
_publ_section_title
;
Structure prediction by ZEFSAII (Michael W. Deem and Ramdas Pophale) SiO2 
 PCOD9511795
Probable space group: F M M M
;
_chemical_formula_sum "Si O2"
_cell_formula_units_Z 224
_cell_length_a 18.123223
_cell_length_b 28.464377
_cell_length_c 22.619957
_cell_angle_alpha 90.000000
_cell_angle_beta 90.000000
_cell_angle_gamma 90.000000
_cell_volume 11668.872436
_symmetry_space_group_name_H-M "F M M M"
_symmetry_group_IT_number 69
_symmetry_cell_setting 'orthorhombic'
loop_
_space_group_symop_operation_xyz
x,y,z
-x,-y,z
x,-y,-z
-x,y,-z
-x,-y,-z
x,y,-z
-x,y,z
x,-y,z
x,1/2+y,1/2+z
-x,1/2-y,1/2+z
x,1/2-y,1/2-z
-x,1/2+y,1/2-z
-x,1/2-y,1/2-z
x,1/2+y,1/2-z
-x,1/2+y,1/2+z
x,1/2-y,1/2+z
1/2+x,y,1/2+z
1/2-x,-y,1/2+z
1/2+x,-y,1/2-z
1/2-x,y,1/2-z
1/2-x,-y,1/2-z
1/2+x,y,1/2-z
1/2-x,y,1/2+z
1/2+x,-y,1/2+z
1/2+x,1/2+y,z
1/2-x,1/2-y,z
1/2+x,1/2-y,-z
1/2-x,1/2+y,-z
1/2-x,1/2-y,-z
1/2+x,1/2+y,-z
1/2-x,1/2+y,z
1/2+x,1/2-y,z
loop_
_atom_site_type_symbol
_atom_site_label
_atom_site_fract_x
_atom_site_fract_y
_atom_site_fract_z
Si Si1 0.917547 0.579434 0.185472
Si Si2 0.172222 0.189933 0.860581
Si Si3 0.408983 0.000000 0.381415
Si Si4 0.845418 0.110305 0.433456
Si Si5 0.917080 0.818323 0.258449
Si Si6 0.163062 0.000000 0.751586
Si Si7 0.169939 0.094929 0.930407
Si Si8 0.342446 0.708216 0.377098
O O1 0.894184 0.588883 0.118399
O O2 0.915179 0.627208 0.222957
O O3 0.861891 0.544937 0.215668
O O4 0.000000 0.560291 0.188060
O O5 0.136660 0.191049 0.795860
O O6 0.149722 0.141671 0.892983
O O7 0.260515 0.194535 0.854173
O O8 0.153620 0.237670 0.896749
O O9 0.372677 0.952438 0.409836
O O10 0.500000 0.000000 0.384804
O O11 0.378861 0.000000 0.314239
O O12 0.866453 0.097593 0.500000
O O13 0.759889 0.093970 0.424426
O O14 0.854743 0.166778 0.424152
O O15 0.894756 0.794573 0.320090
O O16 0.000000 0.805762 0.240849
O O17 0.250000 0.000000 0.750000
O O18 0.154897 0.101970 0.000000
#
# Coordination Sequence:
#
# PCOD9511795 Si02
#       8
#    32  32  16  32  32  16  32  32
#     4  10  21  37  56  82 115 146 182 230 279 332
#     4  10  19  33  54  79 109 146 186 231 286 338
#     4  12  25  42  64  87 115 153 190 227 284 347
#     4   9  19  37  59  82 111 149 190 230 277 334
#     4  10  20  33  51  77 110 147 184 225 277 338
#     4  12  24  39  62  89 114 141 179 229 281 332
#     4  10  22  39  58  82 112 148 193 240 281 329
#     4   9  19  33  52  80 111 144 184 232 282 333
#
# _framework density 19.196370000000002
#
# number of rings (size 3 to 8) (size 9 to 14) (size 15 to 20)
#    0.000    2.000    0.000    3.429    0.000    7.714 
#    0.000    3.929    0.000    0.857    0.000    4.000 
#    0.000    0.000    0.000    0.000    0.000    0.000 
#
# Total GULP energy -312219.405504 kJ/mol
# GULP energy per Si atom -5575.346527 kJ/mol
# Density = 1.915268 g / cm^3
# Si number density = 19.196370 Si / 1000 Ang^3
#
#
#
# Elastic Constant Matrix: (Units=GPa)
#
#
# Indices 1 2 3 4 5 6 
#
# 1 68.2270 39.7993 23.0998 0.0000 0.0000 0.0000
# 2 39.7993 109.7192 19.6876 0.0000 0.0000 0.0000
# 3 23.0998 19.6876 58.7404 0.0000 0.0000 0.0000
# 4 0.0000 0.0000 0.0000 81.5364 0.0000 0.0000
# 5 0.0000 0.0000 0.0000 0.0000 1.2350 0.0000
# 6 0.0000 0.0000 0.0000 0.0000 0.0000 21.3791
#
#
#
# Elastic Compliance Matrix: (Units=1/GPa)
#
#
# Indices 1 2 3 4 5 6 
#
# 1 0.020335 -0.006321 -0.005878 0.000000 0.000000 0.000000
# 2 -0.006321 0.011663 -0.001423 0.000000 0.000000 0.000000
# 3 -0.005878 -0.001423 0.019812 0.000000 0.000000 0.000000
# 4 0.000000 0.000000 0.000000 0.012264 0.000000 0.000000
# 5 0.000000 0.000000 0.000000 0.000000 0.809737 0.000000
# 6 0.000000 0.000000 0.000000 0.000000 0.000000 0.046775
#
#
# Mechanical properties :
#
#
# Convention : Reuss Voigt Hill
#
# Bulk Modulus (GPa) = 40.70823 44.65110 42.67967
# Shear Modulus (GPa) = 5.23003 31.10342 18.16672
#
# Velocity S-wave (km/s) = 1.65239 4.02963 3.07964
# Velocity P-wave (km/s) = 4.98927 6.70532 5.90991
#
# Compressibility (1/GPa) = 0.02456505
#
# Stress axis : x y z
#
# Youngs Moduli (GPa) = 49.17743 85.74486 50.47325
#
# Poissons Ratio (x) = 0.54203 0.29668
# Poissons Ratio (y) = 0.31087 0.07182
# Poissons Ratio (z) = 0.28906 0.12201
#
# Static dielectric constant tensor:
#      x y z
#    x 1.668870 0.000000 0.000000 
#    y 0.000000 1.906400 0.000000 
#    z 0.000000 0.000000 1.629390 
# 
# From -- ./inp_files/31233.got.cif
#   From: 2010.05.17/outbox.cif.g08.bks.cpg/sg69_16_cif.got.tgz:31233.got - 2010.06.03 19:29:58.
