data_PCOD9511730
_publ_section_title
;
Structure prediction by ZEFSAII (Michael W. Deem and Ramdas Pophale) SiO2 
 PCOD9511730
Probable space group: F M M M
;
_chemical_formula_sum "Si O2"
_cell_formula_units_Z 208
_cell_length_a 19.051861
_cell_length_b 32.917295
_cell_length_c 18.621284
_cell_angle_alpha 90.000000
_cell_angle_beta 90.000000
_cell_angle_gamma 90.000000
_cell_volume 11678.072513
_symmetry_space_group_name_H-M "F M M M"
_symmetry_group_IT_number 69
_symmetry_cell_setting 'orthorhombic'
loop_
_space_group_symop_operation_xyz
x,y,z
-x,-y,z
x,-y,-z
-x,y,-z
-x,-y,-z
x,y,-z
-x,y,z
x,-y,z
x,1/2+y,1/2+z
-x,1/2-y,1/2+z
x,1/2-y,1/2-z
-x,1/2+y,1/2-z
-x,1/2-y,1/2-z
x,1/2+y,1/2-z
-x,1/2+y,1/2+z
x,1/2-y,1/2+z
1/2+x,y,1/2+z
1/2-x,-y,1/2+z
1/2+x,-y,1/2-z
1/2-x,y,1/2-z
1/2-x,-y,1/2-z
1/2+x,y,1/2-z
1/2-x,y,1/2+z
1/2+x,-y,1/2+z
1/2+x,1/2+y,z
1/2-x,1/2-y,z
1/2+x,1/2-y,-z
1/2-x,1/2+y,-z
1/2-x,1/2-y,-z
1/2+x,1/2+y,-z
1/2-x,1/2+y,z
1/2+x,1/2-y,z
loop_
_atom_site_type_symbol
_atom_site_label
_atom_site_fract_x
_atom_site_fract_y
_atom_site_fract_z
Si Si1 0.585245 0.500000 0.081444
Si Si2 0.845955 0.351201 0.415260
Si Si3 0.083735 0.078447 0.826352
Si Si4 0.829739 0.258637 0.587385
Si Si5 0.178692 0.452745 0.203564
Si Si6 0.919602 0.818626 0.587580
Si Si7 0.190104 0.387501 0.915902
O O1 0.500000 0.500000 0.079336
O O2 0.606653 0.459698 0.123665
O O3 0.611307 0.500000 0.000000
O O4 0.865262 0.355526 0.500000
O O5 0.890289 0.381049 0.365532
O O6 0.852510 0.304153 0.393636
O O7 0.764445 0.364332 0.408875
O O8 0.119879 0.069923 0.750539
O O9 0.000000 0.078112 0.820572
O O10 0.828208 0.257642 0.500000
O O11 0.750000 0.250000 0.611489
O O12 0.881811 0.222999 0.611179
O O13 0.160408 0.500000 0.192339
O O14 0.250000 0.451209 0.250000
O O15 0.190226 0.427860 0.131059
O O16 0.919893 0.818000 0.500000
O O17 0.871226 0.856699 0.608182
O O18 0.000000 0.821605 0.611754
O O19 0.180125 0.396506 0.000000
#
# Coordination Sequence:
#
# PCOD9511730 Si02
#       7
#    16  32  32  32  32  32  32
#     4   9  18  34  55  80 115 155 187 222 277 343
#     4  10  19  32  54  86 120 153 189 233 284 340
#     4  11  22  37  56  82 115 152 190 233 286 344
#     4   9  15  27  50  79 115 153 186 227 283 341
#     4  11  23  40  60  83 112 150 193 236 283 345
#     4   9  17  30  51  82 116 149 189 236 284 334
#     4  10  20  36  59  86 116 149 190 240 290 336
#
# _framework density 17.811159
#
# number of rings (size 3 to 8) (size 9 to 14) (size 15 to 20)
#    0.000    2.077    3.846    0.462    0.000    2.462 
#    0.000    1.538    0.000    0.923    0.000    5.385 
#    0.000    0.000    0.000    0.000    0.000    0.000 
#
# Total GULP energy -290158.204182 kJ/mol
# GULP energy per Si atom -5579.965465 kJ/mol
# Density = 1.777062 g / cm^3
# Si number density = 17.811159 Si / 1000 Ang^3
#
#
#
# Elastic Constant Matrix: (Units=GPa)
#
#
# Indices 1 2 3 4 5 6 
#
# 1 83.8602 38.0550 19.8261 0.0000 0.0000 0.0000
# 2 38.0550 130.3174 43.4603 0.0000 0.0000 0.0000
# 3 19.8261 43.4603 47.2990 0.0000 0.0000 0.0000
# 4 0.0000 0.0000 0.0000 2.4498 0.0000 0.0000
# 5 0.0000 0.0000 0.0000 0.0000 19.5212 0.0000
# 6 0.0000 0.0000 0.0000 0.0000 0.0000 24.7786
#
#
#
# Elastic Compliance Matrix: (Units=1/GPa)
#
#
# Indices 1 2 3 4 5 6 
#
# 1 0.014046 -0.003083 -0.003055 0.000000 0.000000 0.000000
# 2 -0.003083 0.011741 -0.009495 0.000000 0.000000 0.000000
# 3 -0.003055 -0.009495 0.031147 0.000000 0.000000 0.000000
# 4 0.000000 0.000000 0.000000 0.408194 0.000000 0.000000
# 5 0.000000 0.000000 0.000000 0.000000 0.051226 0.000000
# 6 0.000000 0.000000 0.000000 0.000000 0.000000 0.040357
#
#
# Mechanical properties :
#
#
# Convention : Reuss Voigt Hill
#
# Bulk Modulus (GPa) = 38.95991 51.57326 45.26659
# Shear Modulus (GPa) = 8.38175 20.02558 14.20367
#
# Velocity S-wave (km/s) = 2.17166 3.35674 2.82699
# Velocity P-wave (km/s) = 5.31126 6.63642 6.01047
#
# Compressibility (1/GPa) = 0.02566741
#
# Stress axis : x y z
#
# Youngs Moduli (GPa) = 71.19562 85.17516 32.10534
#
# Poissons Ratio (x) = 0.26258 0.09808
# Poissons Ratio (y) = 0.21948 0.30486
# Poissons Ratio (z) = 0.21749 0.80878
#
# Static dielectric constant tensor:
#      x y z
#    x 1.601940 0.000000 0.000000 
#    y 0.000000 1.595190 0.000000 
#    z 0.000000 0.000000 1.604850 
# 
# From -- ./inp_files/25156.got.cif
#   From: 2010.05.17/outbox.cif.g08.bks.cpg/sg69_13_cif.got.tgz:25156.got - 2010.06.03 19:29:58.
