data_PCOD9511445
_publ_section_title
;
Structure prediction by ZEFSAII (Michael W. Deem and Ramdas Pophale) SiO2 
 PCOD9511445
Probable space group: F M M M
;
_chemical_formula_sum "Si O2"
_cell_formula_units_Z 192
_cell_length_a 24.346525
_cell_length_b 15.024175
_cell_length_c 27.995535
_cell_angle_alpha 90.000000
_cell_angle_beta 90.000000
_cell_angle_gamma 90.000000
_cell_volume 10240.387426
_symmetry_space_group_name_H-M "F M M M"
_symmetry_group_IT_number 69
_symmetry_cell_setting 'orthorhombic'
loop_
_space_group_symop_operation_xyz
x,y,z
-x,-y,z
x,-y,-z
-x,y,-z
-x,-y,-z
x,y,-z
-x,y,z
x,-y,z
x,1/2+y,1/2+z
-x,1/2-y,1/2+z
x,1/2-y,1/2-z
-x,1/2+y,1/2-z
-x,1/2-y,1/2-z
x,1/2+y,1/2-z
-x,1/2+y,1/2+z
x,1/2-y,1/2+z
1/2+x,y,1/2+z
1/2-x,-y,1/2+z
1/2+x,-y,1/2-z
1/2-x,y,1/2-z
1/2-x,-y,1/2-z
1/2+x,y,1/2-z
1/2-x,y,1/2+z
1/2+x,-y,1/2+z
1/2+x,1/2+y,z
1/2-x,1/2-y,z
1/2+x,1/2-y,-z
1/2-x,1/2+y,-z
1/2-x,1/2-y,-z
1/2+x,1/2+y,-z
1/2-x,1/2+y,z
1/2+x,1/2-y,z
loop_
_atom_site_type_symbol
_atom_site_label
_atom_site_fract_x
_atom_site_fract_y
_atom_site_fract_z
Si Si1 0.853048 0.895407 0.363183
Si Si2 0.063852 0.251791 0.607482
Si Si3 0.686886 0.143534 0.243634
Si Si4 0.937675 0.315859 0.500000
Si Si5 0.260380 0.391727 0.095297
Si Si6 0.138609 0.602452 0.658397
Si Si7 0.819062 0.894196 0.000000
O O1 0.905149 0.836574 0.375965
O O2 0.834753 0.882086 0.308405
O O3 0.801126 0.861808 0.394536
O O4 0.861849 0.000000 0.371962
O O5 0.067222 0.262922 0.549950
O O6 0.094353 0.333392 0.634214
O O7 0.000000 0.251084 0.620429
O O8 0.687368 0.250000 0.250000
O O9 0.750000 0.111502 0.250000
O O10 0.646609 0.108139 0.284934
O O11 0.884076 0.377913 0.500000
O O12 0.000000 0.355593 0.500000
O O13 0.257927 0.500000 0.094100
O O14 0.301878 0.368753 0.137847
O O15 0.288929 0.358939 0.047104
O O16 0.128492 0.500000 0.644061
O O17 0.810977 0.000000 0.000000
#
# Coordination Sequence:
#
# PCOD9511445 Si02
#       7
#    32  32  32  16  32  32  16
#     4  11  23  41  64  90 123 165 207 253 309 361
#     4  11  25  44  63  88 122 161 214 261 299 359
#     4  11  21  35  62  96 128 163 203 246 303 375
#     4  10  22  40  60  85 121 165 209 256 297 353
#     4   9  19  33  56  89 125 157 193 245 305 370
#     4  11  21  37  61  91 128 162 195 246 309 368
#     4  10  18  34  57  90 129 163 201 250 308 375
#
# _framework density 18.749290999999999
#
# number of rings (size 3 to 8) (size 9 to 14) (size 15 to 20)
#    0.000    1.500    5.000    0.500    0.000    2.833 
#    0.000    5.417    0.000    3.500    0.000    0.000 
#    0.000    0.000    0.000    0.000    0.000    0.000 
#
# Total GULP energy -268002.992622 kJ/mol
# GULP energy per Si atom -5583.395680 kJ/mol
# Density = 1.870662 g / cm^3
# Si number density = 18.749291 Si / 1000 Ang^3
#
#
#
# Elastic Constant Matrix: (Units=GPa)
#
#
# Indices 1 2 3 4 5 6 
#
# 1 124.8729 57.4112 41.6912 0.0000 0.0000 0.0000
# 2 57.4112 88.3940 15.7355 0.0000 0.0000 0.0000
# 3 41.6912 15.7355 98.8056 0.0000 0.0000 0.0000
# 4 0.0000 0.0000 0.0000 12.5364 0.0000 0.0000
# 5 0.0000 0.0000 0.0000 0.0000 27.3009 0.0000
# 6 0.0000 0.0000 0.0000 0.0000 0.0000 20.9753
#
#
#
# Elastic Compliance Matrix: (Units=1/GPa)
#
#
# Indices 1 2 3 4 5 6 
#
# 1 0.012942 -0.007650 -0.004242 0.000000 0.000000 0.000000
# 2 -0.007650 0.016166 0.000654 0.000000 0.000000 0.000000
# 3 -0.004242 0.000654 0.011807 0.000000 0.000000 0.000000
# 4 0.000000 0.000000 0.000000 0.079768 0.000000 0.000000
# 5 0.000000 0.000000 0.000000 0.000000 0.036629 0.000000
# 6 0.000000 0.000000 0.000000 0.000000 0.000000 0.047675
#
#
# Mechanical properties :
#
#
# Convention : Reuss Voigt Hill
#
# Bulk Modulus (GPa) = 54.24232 60.19427 57.21830
# Shear Modulus (GPa) = 21.40322 25.31149 23.35736
#
# Velocity S-wave (km/s) = 3.38235 3.67822 3.53338
# Velocity P-wave (km/s) = 6.65183 7.08615 6.87242
#
# Compressibility (1/GPa) = 0.01843579
#
# Stress axis : x y z
#
# Youngs Moduli (GPa) = 77.26824 61.85998 84.69615
#
# Poissons Ratio (x) = 0.47326 0.35932
# Poissons Ratio (y) = 0.59114 -0.05536
# Poissons Ratio (z) = 0.32781 -0.04043
#
# Static dielectric constant tensor:
#      x y z
#    x 1.615820 0.000000 0.000000 
#    y 0.000000 1.670460 0.000000 
#    z 0.000000 0.000000 1.672430 
# 
# From -- ./inp_files/38373.got.cif
#   From: 2010.05.17/outbox.cif.g08.bks.cpg/sg69_20_cif.got.tgz:38373.got - 2010.06.03 19:29:58.
