data_PCOD9511928
_publ_section_title
;
Structure prediction by ZEFSAII (Michael W. Deem and Ramdas Pophale) SiO2 
 PCOD9511928
Probable space group: F M M M
;
_chemical_formula_sum "Si O2"
_cell_formula_units_Z 224
_cell_length_a 28.173546
_cell_length_b 21.652195
_cell_length_c 18.903593
_cell_angle_alpha 90.000000
_cell_angle_beta 90.000000
_cell_angle_gamma 90.000000
_cell_volume 11531.553012
_symmetry_space_group_name_H-M "F M M M"
_symmetry_group_IT_number 69
_symmetry_cell_setting 'orthorhombic'
loop_
_space_group_symop_operation_xyz
x,y,z
-x,-y,z
x,-y,-z
-x,y,-z
-x,-y,-z
x,y,-z
-x,y,z
x,-y,z
x,1/2+y,1/2+z
-x,1/2-y,1/2+z
x,1/2-y,1/2-z
-x,1/2+y,1/2-z
-x,1/2-y,1/2-z
x,1/2+y,1/2-z
-x,1/2+y,1/2+z
x,1/2-y,1/2+z
1/2+x,y,1/2+z
1/2-x,-y,1/2+z
1/2+x,-y,1/2-z
1/2-x,y,1/2-z
1/2-x,-y,1/2-z
1/2+x,y,1/2-z
1/2-x,y,1/2+z
1/2+x,-y,1/2+z
1/2+x,1/2+y,z
1/2-x,1/2-y,z
1/2+x,1/2-y,-z
1/2-x,1/2+y,-z
1/2-x,1/2-y,-z
1/2+x,1/2+y,-z
1/2-x,1/2+y,z
1/2+x,1/2-y,z
loop_
_atom_site_type_symbol
_atom_site_label
_atom_site_fract_x
_atom_site_fract_y
_atom_site_fract_z
Si Si1 0.383461 0.156398 0.755853
Si Si2 0.949651 0.430053 0.158411
Si Si3 0.732425 0.570821 0.581448
Si Si4 0.109266 0.234598 0.131881
Si Si5 0.285897 0.802667 0.584339
Si Si6 0.441754 0.705188 0.500000
Si Si7 0.305147 0.931085 0.228528
Si Si8 0.413516 0.430904 0.500000
O O1 0.410982 0.103662 0.796614
O O2 0.408434 0.181312 0.685335
O O3 0.379619 0.209760 0.814095
O O4 0.333118 0.125521 0.738475
O O5 0.951590 0.500000 0.183023
O O6 0.000000 0.397734 0.169028
O O7 0.940367 0.433010 0.074753
O O8 0.715540 0.578577 0.500000
O O9 0.751797 0.500000 0.586746
O O10 0.767774 0.627346 0.597975
O O11 0.692959 0.574458 0.642666
O O12 0.160099 0.212023 0.103561
O O13 0.074166 0.256950 0.070120
O O14 0.283348 0.797253 0.500000
O O15 0.250000 0.750000 0.614610
O O16 0.500000 0.692920 0.500000
O O17 0.406154 0.644498 0.500000
O O18 0.250000 0.928976 0.250000
O O19 0.322579 0.000000 0.247796
O O20 0.387056 0.500000 0.500000
#
# Coordination Sequence:
#
# PCOD9511928 Si02
#       8
#    32  32  32  32  32  16  32  16
#     4  11  23  37  56  84 121 155 195 243 288 350
#     4  10  20  36  59  87 118 151 190 238 296 363
#     4   9  18  33  53  81 116 153 201 251 299 360
#     4  11  24  39  56  85 118 155 203 243 284 355
#     4  10  19  34  58  83 113 155 198 247 300 346
#     4  12  24  43  65  87 121 159 194 246 305 357
#     4  10  20  36  57  81 116 159 196 238 295 354
#     4  10  20  37  64  93 120 154 191 231 296 378
#
# _framework density 19.424963999999999
#
# number of rings (size 3 to 8) (size 9 to 14) (size 15 to 20)
#    0.000    1.714    2.143    2.786    0.000    2.143 
#    2.571    3.571    0.000    0.000    0.000    0.000 
#    0.000    4.000    0.000    0.000    0.000    0.000 
#
# Total GULP energy -311763.923260 kJ/mol
# GULP energy per Si atom -5567.212915 kJ/mol
# Density = 1.938075 g / cm^3
# Si number density = 19.424964 Si / 1000 Ang^3
#
#
#
# Elastic Constant Matrix: (Units=GPa)
#
#
# Indices 1 2 3 4 5 6 
#
# 1 39.3836 27.5219 19.3131 0.0000 0.0000 0.0000
# 2 27.5219 94.8080 48.1469 0.0000 0.0000 0.0000
# 3 19.3131 48.1469 82.1903 0.0000 0.0000 0.0000
# 4 0.0000 0.0000 0.0000 75.1518 0.0000 0.0000
# 5 0.0000 0.0000 0.0000 0.0000 8.2918 0.0000
# 6 0.0000 0.0000 0.0000 0.0000 0.0000 20.8204
#
#
#
# Elastic Compliance Matrix: (Units=1/GPa)
#
#
# Indices 1 2 3 4 5 6 
#
# 1 0.032361 -0.007875 -0.002991 0.000000 0.000000 0.000000
# 2 -0.007875 0.016931 -0.008067 0.000000 0.000000 0.000000
# 3 -0.002991 -0.008067 0.017596 0.000000 0.000000 0.000000
# 4 0.000000 0.000000 0.000000 0.013306 0.000000 0.000000
# 5 0.000000 0.000000 0.000000 0.000000 0.120602 0.000000
# 6 0.000000 0.000000 0.000000 0.000000 0.000000 0.048030
#
#
# Mechanical properties :
#
#
# Convention : Reuss Voigt Hill
#
# Bulk Modulus (GPa) = 34.45864 45.14951 39.80408
# Shear Modulus (GPa) = 16.87101 28.94613 22.90857
#
# Velocity S-wave (km/s) = 2.95027 3.86444 3.43787
# Velocity P-wave (km/s) = 5.42064 6.57307 6.02448
#
# Compressibility (1/GPa) = 0.02902030
#
# Stress axis : x y z
#
# Youngs Moduli (GPa) = 30.90106 59.06432 56.83249
#
# Poissons Ratio (x) = 0.46515 0.16998
# Poissons Ratio (y) = 0.24336 0.45849
# Poissons Ratio (z) = 0.09242 0.47650
#
# Static dielectric constant tensor:
#      x y z
#    x 1.729500 0.000000 0.000000 
#    y 0.000000 1.757520 0.000000 
#    z 0.000000 0.000000 1.693420 
# 
# From -- ./inp_files/27984.got.cif
#   From: 2010.05.17/outbox.cif.g08.bks.cpg/sg69_14_cif.got.tgz:27984.got - 2010.06.03 19:29:58.
