data_PCOD9511523
_publ_section_title
;
Structure prediction by ZEFSAII (Michael W. Deem and Ramdas Pophale) SiO2 
 PCOD9511523
Probable space group: F M M M
;
_chemical_formula_sum "Si O2"
_cell_formula_units_Z 144
_cell_length_a 33.122884
_cell_length_b 28.479807
_cell_length_c 7.631741
_cell_angle_alpha 90.000000
_cell_angle_beta 90.000000
_cell_angle_gamma 90.000000
_cell_volume 7199.275755
_symmetry_space_group_name_H-M "F M M M"
_symmetry_group_IT_number 69
_symmetry_cell_setting 'orthorhombic'
loop_
_space_group_symop_operation_xyz
x,y,z
-x,-y,z
x,-y,-z
-x,y,-z
-x,-y,-z
x,y,-z
-x,y,z
x,-y,z
x,1/2+y,1/2+z
-x,1/2-y,1/2+z
x,1/2-y,1/2-z
-x,1/2+y,1/2-z
-x,1/2-y,1/2-z
x,1/2+y,1/2-z
-x,1/2+y,1/2+z
x,1/2-y,1/2+z
1/2+x,y,1/2+z
1/2-x,-y,1/2+z
1/2+x,-y,1/2-z
1/2-x,y,1/2-z
1/2-x,-y,1/2-z
1/2+x,y,1/2-z
1/2-x,y,1/2+z
1/2+x,-y,1/2+z
1/2+x,1/2+y,z
1/2-x,1/2-y,z
1/2+x,1/2-y,-z
1/2-x,1/2+y,-z
1/2-x,1/2-y,-z
1/2+x,1/2+y,-z
1/2-x,1/2+y,z
1/2+x,1/2-y,z
loop_
_atom_site_type_symbol
_atom_site_label
_atom_site_fract_x
_atom_site_fract_y
_atom_site_fract_z
Si Si1 0.544254 0.444495 0.712971
Si Si2 0.794610 0.946248 0.710498
Si Si3 0.500000 0.305739 0.209963
Si Si4 0.912346 0.304776 0.708523
Si Si5 0.625548 0.603856 0.293876
O O1 0.543810 0.440790 0.500000
O O2 0.500000 0.427132 0.774970
O O3 0.546948 0.500000 0.753493
O O4 0.584310 0.418841 0.780637
O O5 0.797400 0.948041 0.500000
O O6 0.750000 0.927200 0.750000
O O7 0.832897 0.917126 0.778067
O O8 0.796640 0.000000 0.776588
O O9 0.500000 0.250000 0.250000
O O10 0.456471 0.321431 0.280091
O O11 0.500000 0.312224 0.000000
O O12 0.913696 0.308721 0.500000
O O13 0.906538 0.250000 0.750000
O O14 0.878921 0.340417 0.775316
O O15 0.625151 0.592283 0.500000
#
# Coordination Sequence:
#
# PCOD9511523 Si02
#       5
#    32  32  16  32  32
#     4   8  14  25  42  67  99 132 165 199 236 285
#     4   9  18  33  53  77 105 134 166 207 252 299
#     4   8  16  30  46  64  89 124 165 207 246 285
#     4  10  20  34  50  70  98 133 171 212 254 297
#     4  10  19  30  49  76 102 130 166 209 253 297
#
# _framework density 20.002013000000002
#
# number of rings (size 3 to 8) (size 9 to 14) (size 15 to 20)
#    0.000    2.889    0.000    2.000    1.556    4.444 
#    0.000    0.000    0.000    2.667    0.000    6.222 
#    0.000    0.000    0.000    0.000    0.000    0.000 
#
# Total GULP energy -200762.531092 kJ/mol
# GULP energy per Si atom -5576.736975 kJ/mol
# Density = 1.995649 g / cm^3
# Si number density = 20.002013 Si / 1000 Ang^3
#
#
#
# Elastic Constant Matrix: (Units=GPa)
#
#
# Indices 1 2 3 4 5 6 
#
# 1 192.5822 89.6275 9.5340 0.0097 -0.0099 -0.0084
# 2 89.6275 76.6234 -5.7048 0.0809 -0.0379 -0.0427
# 3 9.5340 -5.7048 45.9731 0.1563 -0.0629 -0.0652
# 4 0.0097 0.0809 0.1563 8.6071 -0.0503 -0.0547
# 5 -0.0099 -0.0379 -0.0629 -0.0503 14.2138 0.0200
# 6 -0.0084 -0.0427 -0.0652 -0.0547 0.0200 30.8886
#
#
#
# Elastic Compliance Matrix: (Units=1/GPa)
#
#
# Indices 1 2 3 4 5 6 
#
# 1 0.012199 -0.014593 -0.004341 0.000202 -0.000049 -0.000026
# 2 -0.014593 0.030629 0.006829 -0.000394 0.000100 0.000052
# 3 -0.004341 0.006829 0.023501 -0.000485 0.000117 0.000057
# 4 0.000202 -0.000394 -0.000485 0.116198 0.000408 0.000204
# 5 -0.000049 0.000100 0.000117 0.000408 0.070356 -0.000044
# 6 -0.000026 0.000052 0.000057 0.000204 -0.000044 0.032375
#
#
# Mechanical properties :
#
#
# Convention : Reuss Voigt Hill
#
# Bulk Modulus (GPa) = 23.74270 55.78802 39.76536
# Shear Modulus (GPa) = 15.45547 25.52337 20.48942
#
# Velocity S-wave (km/s) = 2.78276 3.57605 3.20405
# Velocity P-wave (km/s) = 4.71391 6.70839 5.79756
#
# Compressibility (1/GPa) = 0.04211821
#
# Stress axis : x y z
#
# Youngs Moduli (GPa) = 81.97414 32.64866 42.55060
#
# Poissons Ratio (x) = 0.47644 0.18473
# Poissons Ratio (y) = 1.19623 -0.29056
# Poissons Ratio (z) = 0.35589 -0.22294
#
# Static dielectric constant tensor:
#      x y z
#    x 1.739070 0.000000 0.000010 
#    y 0.000000 1.701510 0.000020 
#    z 0.000010 0.000020 1.753380 
# 
# From -- ./inp_files/5578.got.cif
#   From: 2010.05.17/outbox.cif.g08.bks.cpg/sg69_3_cif.got.tgz:5578.got - 2010.06.03 19:29:58.
