data_PCOD9511275
_publ_section_title
;
Structure prediction by ZEFSAII (Michael W. Deem and Ramdas Pophale) SiO2 
 PCOD9511275
Probable space group: F M M M
;
_chemical_formula_sum "Si O2"
_cell_formula_units_Z 160
_cell_length_a 25.821773
_cell_length_b 21.328611
_cell_length_c 17.063057
_cell_angle_alpha 90.000000
_cell_angle_beta 90.000000
_cell_angle_gamma 90.000000
_cell_volume 9397.351551
_symmetry_space_group_name_H-M "F M M M"
_symmetry_group_IT_number 69
_symmetry_cell_setting 'orthorhombic'
loop_
_space_group_symop_operation_xyz
x,y,z
-x,-y,z
x,-y,-z
-x,y,-z
-x,-y,-z
x,y,-z
-x,y,z
x,-y,z
x,1/2+y,1/2+z
-x,1/2-y,1/2+z
x,1/2-y,1/2-z
-x,1/2+y,1/2-z
-x,1/2-y,1/2-z
x,1/2+y,1/2-z
-x,1/2+y,1/2+z
x,1/2-y,1/2+z
1/2+x,y,1/2+z
1/2-x,-y,1/2+z
1/2+x,-y,1/2-z
1/2-x,y,1/2-z
1/2-x,-y,1/2-z
1/2+x,y,1/2-z
1/2-x,y,1/2+z
1/2+x,-y,1/2+z
1/2+x,1/2+y,z
1/2-x,1/2-y,z
1/2+x,1/2-y,-z
1/2-x,1/2+y,-z
1/2-x,1/2-y,-z
1/2+x,1/2+y,-z
1/2-x,1/2+y,z
1/2+x,1/2-y,z
loop_
_atom_site_type_symbol
_atom_site_label
_atom_site_fract_x
_atom_site_fract_y
_atom_site_fract_z
Si Si1 0.276535 0.931113 0.904403
Si Si2 0.000000 0.740749 0.590690
Si Si3 0.388180 0.884906 0.094902
Si Si4 0.286030 0.190911 0.594813
Si Si5 0.500000 0.893595 0.909046
Si Si6 0.890272 0.743302 0.342754
O O1 0.336158 0.919889 0.880328
O O2 0.241244 0.873192 0.878669
O O3 0.258860 0.000000 0.879376
O O4 0.276369 0.929752 0.000000
O O5 0.053033 0.719968 0.631256
O O6 0.000000 0.722397 0.500000
O O7 0.000000 0.817253 0.592630
O O8 0.443665 0.911075 0.124432
O O9 0.383116 0.812293 0.119254
O O10 0.390380 0.886585 0.000000
O O11 0.288728 0.190981 0.500000
O O12 0.250000 0.250000 0.617756
O O13 0.343138 0.200976 0.627971
O O14 0.500000 0.914064 0.000000
O O15 0.888750 0.750000 0.250000
#
# Coordination Sequence:
#
# PCOD9511275 Si02
#       6
#    32  16  32  32  16  32
#     4   9  17  29  47  69  93 124 169 217 249 283
#     4   9  17  31  49  70  99 130 160 194 246 298
#     4   9  15  28  45  64  92 128 165 199 246 297
#     4  10  18  31  50  70  94 131 172 204 243 292
#     4   7  12  21  40  63  85 116 151 189 229 284
#     4  11  20  29  46  74 103 127 160 204 247 292
#
# _framework density 17.026073
#
# number of rings (size 3 to 8) (size 9 to 14) (size 15 to 20)
#    0.000    2.600    2.000    3.300    0.000    0.400 
#    0.000    0.500    0.000    5.400    0.000    0.700 
#    0.000    7.200    0.000    0.000    0.000    0.000 
#
# Total GULP energy -222868.984067 kJ/mol
# GULP energy per Si atom -5571.724602 kJ/mol
# Density = 1.698732 g / cm^3
# Si number density = 17.026073 Si / 1000 Ang^3
#
#
#
# Elastic Constant Matrix: (Units=GPa)
#
#
# Indices 1 2 3 4 5 6 
#
# 1 157.3753 70.2204 32.1461 0.0000 0.0000 0.0000
# 2 70.2204 92.5082 12.2029 0.0000 0.0000 0.0000
# 3 32.1461 12.2029 23.0359 0.0000 0.0000 0.0000
# 4 0.0000 0.0000 0.0000 1.2085 0.0000 0.0000
# 5 0.0000 0.0000 0.0000 0.0000 -11.9831 0.0000
# 6 0.0000 0.0000 0.0000 0.0000 0.0000 12.8229
#
#
#
# Elastic Compliance Matrix: (Units=1/GPa)
#
#
# Indices 1 2 3 4 5 6 
#
# 1 0.012558 -0.007763 -0.013411 0.000000 0.000000 0.000000
# 2 -0.007763 0.016421 0.002134 0.000000 0.000000 0.000000
# 3 -0.013411 0.002134 0.060995 0.000000 0.000000 0.000000
# 4 0.000000 0.000000 0.000000 0.827474 0.000000 0.000000
# 5 0.000000 0.000000 0.000000 0.000000 -0.083451 0.000000
# 6 0.000000 0.000000 0.000000 0.000000 0.000000 0.077986
#
#
# Mechanical properties :
#
#
# Convention : Reuss Voigt Hill
#
# Bulk Modulus (GPa) = 19.27018 55.78424 37.52721
# Shear Modulus (GPa) = 5.16870 10.96631 8.06750
#
# Velocity S-wave (km/s) = 1.74423 2.54064 2.17913
# Velocity P-wave (km/s) = 3.92416 6.43752 5.33107
#
# Compressibility (1/GPa) = 0.05189366
#
# Stress axis : x y z
#
# Youngs Moduli (GPa) = 79.63355 60.89782 16.39467
#
# Poissons Ratio (x) = 0.47275 0.21988
# Poissons Ratio (y) = 0.61819 -0.03499
# Poissons Ratio (z) = 1.06800 -0.12997
#
# Static dielectric constant tensor:
#      x y z
#    x 1.612640 0.000000 0.000000 
#    y 0.000000 1.579830 0.000000 
#    z 0.000000 0.000000 1.552300 
# 
# From -- ./inp_files/25841.got.cif
#   From: 2010.05.17/outbox.cif.g08.bks.cpg/sg69_13_cif.got.tgz:25841.got - 2010.06.03 19:29:58.
