data_PCOD9511551
_publ_section_title
;
Structure prediction by ZEFSAII (Michael W. Deem and Ramdas Pophale) SiO2 
 PCOD9511551
Probable space group: F M M M
;
_chemical_formula_sum "Si O2"
_cell_formula_units_Z 192
_cell_length_a 29.926455
_cell_length_b 27.066787
_cell_length_c 14.028483
_cell_angle_alpha 90.000000
_cell_angle_beta 90.000000
_cell_angle_gamma 90.000000
_cell_volume 11363.253364
_symmetry_space_group_name_H-M "F M M M"
_symmetry_group_IT_number 69
_symmetry_cell_setting 'orthorhombic'
loop_
_space_group_symop_operation_xyz
x,y,z
-x,-y,z
x,-y,-z
-x,y,-z
-x,-y,-z
x,y,-z
-x,y,z
x,-y,z
x,1/2+y,1/2+z
-x,1/2-y,1/2+z
x,1/2-y,1/2-z
-x,1/2+y,1/2-z
-x,1/2-y,1/2-z
x,1/2+y,1/2-z
-x,1/2+y,1/2+z
x,1/2-y,1/2+z
1/2+x,y,1/2+z
1/2-x,-y,1/2+z
1/2+x,-y,1/2-z
1/2-x,y,1/2-z
1/2-x,-y,1/2-z
1/2+x,y,1/2-z
1/2-x,y,1/2+z
1/2+x,-y,1/2+z
1/2+x,1/2+y,z
1/2-x,1/2-y,z
1/2+x,1/2-y,-z
1/2-x,1/2+y,-z
1/2-x,1/2-y,-z
1/2+x,1/2+y,-z
1/2-x,1/2+y,z
1/2+x,1/2-y,z
loop_
_atom_site_type_symbol
_atom_site_label
_atom_site_fract_x
_atom_site_fract_y
_atom_site_fract_z
Si Si1 0.133807 0.500000 0.614017
Si Si2 0.310273 0.398362 0.885893
Si Si3 0.049804 0.597000 0.886244
Si Si4 0.803703 0.807668 0.749167
Si Si5 0.784242 0.555224 0.884334
Si Si6 0.356405 0.129952 0.113202
Si Si7 0.050596 0.500000 0.756279
O O1 0.124465 0.500000 0.500000
O O2 0.161274 0.448762 0.632371
O O3 0.089254 0.500000 0.677654
O O4 0.320697 0.347820 0.828335
O O5 0.259302 0.413190 0.860049
O O6 0.312653 0.389301 0.000000
O O7 0.091977 0.630307 0.857800
O O8 0.054018 0.547395 0.825079
O O9 0.000000 0.617805 0.870637
O O10 0.053518 0.586065 0.000000
O O11 0.816041 0.750000 0.750000
O O12 0.750000 0.809925 0.750000
O O13 0.825677 0.827457 0.653033
O O14 0.780519 0.500000 0.847271
O O15 0.830453 0.580369 0.854536
O O16 0.784334 0.552870 0.000000
O O17 0.355383 0.130659 0.000000
O O18 0.000000 0.500000 0.715038
#
# Coordination Sequence:
#
# PCOD9511551 Si02
#       7
#    16  32  32  32  32  32  16
#     4  10  20  34  55  78 103 138 180 222 260 304
#     4  10  19  35  53  72 102 138 174 216 260 302
#     4   9  18  32  51  75 103 135 169 210 260 315
#     4  11  23  36  50  73 104 138 179 217 254 314
#     4   9  16  28  46  70 101 133 165 204 248 295
#     4  10  20  34  52  74 102 133 172 215 258 306
#     4  10  19  31  47  72 109 144 173 206 253 311
#
# _framework density 16.896569
#
# number of rings (size 3 to 8) (size 9 to 14) (size 15 to 20)
#    0.000    2.167    2.500    1.250    1.167    1.833 
#    1.500    2.917    0.000    0.500    0.000    0.000 
#    0.000    2.667    0.000    0.000    0.000    0.000 
#
# Total GULP energy -267428.559252 kJ/mol
# GULP energy per Si atom -5571.428318 kJ/mol
# Density = 1.685811 g / cm^3
# Si number density = 16.896569 Si / 1000 Ang^3
#
#
#
# Elastic Constant Matrix: (Units=GPa)
#
#
# Indices 1 2 3 4 5 6 
#
# 1 116.5514 27.4137 24.6661 0.0000 0.0000 0.0000
# 2 27.4137 99.4548 18.8114 0.0000 0.0000 0.0000
# 3 24.6661 18.8114 40.9959 0.0000 0.0000 0.0000
# 4 0.0000 0.0000 0.0000 11.5519 0.0000 0.0000
# 5 0.0000 0.0000 0.0000 0.0000 24.2441 0.0000
# 6 0.0000 0.0000 0.0000 0.0000 0.0000 5.1690
#
#
#
# Elastic Compliance Matrix: (Units=1/GPa)
#
#
# Indices 1 2 3 4 5 6 
#
# 1 0.010116 -0.001793 -0.005264 0.000000 0.000000 0.000000
# 2 -0.001793 0.011328 -0.004119 0.000000 0.000000 0.000000
# 3 -0.005264 -0.004119 0.029450 0.000000 0.000000 0.000000
# 4 0.000000 0.000000 0.000000 0.086566 0.000000 0.000000
# 5 0.000000 0.000000 0.000000 0.000000 0.041247 0.000000
# 6 0.000000 0.000000 0.000000 0.000000 0.000000 0.193462
#
#
# Mechanical properties :
#
#
# Convention : Reuss Voigt Hill
#
# Bulk Modulus (GPa) = 35.03600 44.30940 39.67270
# Shear Modulus (GPa) = 12.37519 20.60039 16.48779
#
# Velocity S-wave (km/s) = 2.70924 3.49550 3.12718
# Velocity P-wave (km/s) = 5.52876 6.52474 6.04729
#
# Compressibility (1/GPa) = 0.02854207
#
# Stress axis : x y z
#
# Youngs Moduli (GPa) = 98.85815 88.27592 33.95597
#
# Poissons Ratio (x) = 0.15825 0.17873
# Poissons Ratio (y) = 0.17722 0.13988
# Poissons Ratio (z) = 0.52035 0.36365
#
# Static dielectric constant tensor:
#      x y z
#    x 1.581740 0.000000 0.000000 
#    y 0.000000 1.583470 0.000000 
#    z 0.000000 0.000000 1.606000 
# 
# From -- ./inp_files/19815.got.cif
#   From: 2010.05.17/outbox.cif.g08.bks.cpg/sg69_10_cif.got.tgz:19815.got - 2010.06.03 19:29:58.
