data_PCOD9511688
_publ_section_title
;
Structure prediction by ZEFSAII (Michael W. Deem and Ramdas Pophale) SiO2 
 PCOD9511688
Probable space group: F M M M
;
_chemical_formula_sum "Si O2"
_cell_formula_units_Z 176
_cell_length_a 27.283427
_cell_length_b 17.215025
_cell_length_c 19.316186
_cell_angle_alpha 90.000000
_cell_angle_beta 90.000000
_cell_angle_gamma 90.000000
_cell_volume 9072.520463
_symmetry_space_group_name_H-M "F M M M"
_symmetry_group_IT_number 69
_symmetry_cell_setting 'orthorhombic'
loop_
_space_group_symop_operation_xyz
x,y,z
-x,-y,z
x,-y,-z
-x,y,-z
-x,-y,-z
x,y,-z
-x,y,z
x,-y,z
x,1/2+y,1/2+z
-x,1/2-y,1/2+z
x,1/2-y,1/2-z
-x,1/2+y,1/2-z
-x,1/2-y,1/2-z
x,1/2+y,1/2-z
-x,1/2+y,1/2+z
x,1/2-y,1/2+z
1/2+x,y,1/2+z
1/2-x,-y,1/2+z
1/2+x,-y,1/2-z
1/2-x,y,1/2-z
1/2-x,-y,1/2-z
1/2+x,y,1/2-z
1/2-x,y,1/2+z
1/2+x,-y,1/2+z
1/2+x,1/2+y,z
1/2-x,1/2-y,z
1/2+x,1/2-y,-z
1/2-x,1/2+y,-z
1/2-x,1/2-y,-z
1/2+x,1/2+y,-z
1/2-x,1/2+y,z
1/2+x,1/2-y,z
loop_
_atom_site_type_symbol
_atom_site_label
_atom_site_fract_x
_atom_site_fract_y
_atom_site_fract_z
Si Si1 0.193576 0.268579 0.832128
Si Si2 0.058388 0.592053 0.500000
Si Si3 0.661990 0.089997 0.077395
Si Si4 0.443853 0.586804 0.767886
Si Si5 0.945213 0.864657 0.391142
Si Si6 0.902174 0.194309 0.123324
O O1 0.185829 0.250000 0.750000
O O2 0.250000 0.250000 0.846799
O O3 0.181208 0.355016 0.860675
O O4 0.154604 0.217374 0.874885
O O5 0.065990 0.500000 0.500000
O O6 0.082438 0.632598 0.433895
O O7 0.000000 0.606502 0.500000
O O8 0.602836 0.098364 0.075399
O O9 0.674490 0.000000 0.088878
O O10 0.679818 0.113547 0.000000
O O11 0.500000 0.590202 0.793961
O O12 0.424846 0.500000 0.782096
O O13 0.445172 0.601850 0.686517
O O14 0.414522 0.654793 0.803916
O O15 0.933580 0.772622 0.387904
O O16 0.000000 0.877863 0.419521
#
# Coordination Sequence:
#
# PCOD9511688 Si02
#       6
#    32  16  32  32  32  32
#     4  10  23  44  68  94 119 155 209 267 322 371
#     4  11  24  40  57  86 129 167 202 245 296 360
#     4  10  22  40  61  88 124 165 202 247 314 379
#     4  10  19  32  52  81 119 158 196 246 305 360
#     4  10  20  32  53  84 117 156 204 248 290 358
#     4  11  21  36  58  83 114 160 203 248 303 364
#
# _framework density 19.399241
#
# number of rings (size 3 to 8) (size 9 to 14) (size 15 to 20)
#    0.000    1.727    0.000    5.455    5.091    4.727 
#    0.000    5.455    0.000    0.000    0.000    0.000 
#    0.000    0.000    0.000    0.000    0.000    0.000 
#
# Total GULP energy -245567.843270 kJ/mol
# GULP energy per Si atom -5581.087347 kJ/mol
# Density = 1.935509 g / cm^3
# Si number density = 19.399241 Si / 1000 Ang^3
#
#
#
# Elastic Constant Matrix: (Units=GPa)
#
#
# Indices 1 2 3 4 5 6 
#
# 1 104.4149 33.6537 22.8542 0.0000 0.0000 0.0000
# 2 33.6537 104.7040 35.3695 0.0000 0.0000 0.0000
# 3 22.8542 35.3695 76.5563 0.0000 0.0000 0.0000
# 4 0.0000 0.0000 0.0000 43.0769 0.0000 0.0000
# 5 0.0000 0.0000 0.0000 0.0000 55.2439 0.0000
# 6 0.0000 0.0000 0.0000 0.0000 0.0000 11.8529
#
#
#
# Elastic Compliance Matrix: (Units=1/GPa)
#
#
# Indices 1 2 3 4 5 6 
#
# 1 0.010922 -0.002855 -0.001942 0.000000 0.000000 0.000000
# 2 -0.002855 0.012063 -0.004721 0.000000 0.000000 0.000000
# 3 -0.001942 -0.004721 0.015823 0.000000 0.000000 0.000000
# 4 0.000000 0.000000 0.000000 0.023214 0.000000 0.000000
# 5 0.000000 0.000000 0.000000 0.000000 0.018102 0.000000
# 6 0.000000 0.000000 0.000000 0.000000 0.000000 0.084368
#
#
# Mechanical properties :
#
#
# Convention : Reuss Voigt Hill
#
# Bulk Modulus (GPa) = 50.57253 52.15887 51.36570
# Shear Modulus (GPa) = 26.29947 34.95458 30.62702
#
# Velocity S-wave (km/s) = 3.68597 4.24943 3.97769
# Velocity P-wave (km/s) = 6.65140 7.14299 6.90157
#
# Compressibility (1/GPa) = 0.01977358
#
# Stress axis : x y z
#
# Youngs Moduli (GPa) = 91.55609 82.89775 63.19886
#
# Poissons Ratio (x) = 0.23665 0.12271
# Poissons Ratio (y) = 0.26136 0.29836
# Poissons Ratio (z) = 0.17778 0.39136
#
# Static dielectric constant tensor:
#      x y z
#    x 1.661640 0.000000 0.000000 
#    y 0.000000 1.671260 0.000000 
#    z 0.000000 0.000000 1.757470 
# 
# From -- ./inp_files/26744.got.cif
#   From: 2010.05.17/outbox.cif.g08.bks.cpg/sg69_14_cif.got.tgz:26744.got - 2010.06.03 19:29:58.
