data_PCOD9511052
_publ_section_title
;
Structure prediction by ZEFSAII (Michael W. Deem and Ramdas Pophale) SiO2 
 PCOD9511052
Probable space group: F M M M
;
_chemical_formula_sum "Si O2"
_cell_formula_units_Z 112
_cell_length_a 8.685405
_cell_length_b 31.330127
_cell_length_c 25.521308
_cell_angle_alpha 90.000000
_cell_angle_beta 90.000000
_cell_angle_gamma 90.000000
_cell_volume 6944.726686
_symmetry_space_group_name_H-M "F M M M"
_symmetry_group_IT_number 69
_symmetry_cell_setting 'orthorhombic'
loop_
_space_group_symop_operation_xyz
x,y,z
-x,-y,z
x,-y,-z
-x,y,-z
-x,-y,-z
x,y,-z
-x,y,z
x,-y,z
x,1/2+y,1/2+z
-x,1/2-y,1/2+z
x,1/2-y,1/2-z
-x,1/2+y,1/2-z
-x,1/2-y,1/2-z
x,1/2+y,1/2-z
-x,1/2+y,1/2+z
x,1/2-y,1/2+z
1/2+x,y,1/2+z
1/2-x,-y,1/2+z
1/2+x,-y,1/2-z
1/2-x,y,1/2-z
1/2-x,-y,1/2-z
1/2+x,y,1/2-z
1/2-x,y,1/2+z
1/2+x,-y,1/2+z
1/2+x,1/2+y,z
1/2-x,1/2-y,z
1/2+x,1/2-y,-z
1/2-x,1/2+y,-z
1/2-x,1/2-y,-z
1/2+x,1/2+y,-z
1/2-x,1/2+y,z
1/2+x,1/2-y,z
loop_
_atom_site_type_symbol
_atom_site_label
_atom_site_fract_x
_atom_site_fract_y
_atom_site_fract_z
Si Si1 0.683378 0.050519 0.388540
Si Si2 0.684207 0.706287 0.190530
Si Si3 0.316663 0.617540 0.691389
Si Si4 0.322789 0.551763 0.500000
O O1 0.500000 0.055900 0.383775
O O2 0.768327 0.078418 0.345104
O O3 0.738323 0.064265 0.446476
O O4 0.718082 0.000000 0.382569
O O5 0.500000 0.707435 0.191759
O O6 0.750000 0.705728 0.250000
O O7 0.750000 0.750000 0.166179
O O8 0.744680 0.661450 0.168516
O O9 0.500000 0.621946 0.694721
O O10 0.250000 0.611433 0.750000
O O11 0.322897 0.500000 0.500000
O O12 0.500000 0.566136 0.500000
#
# Coordination Sequence:
#
# PCOD9511052 Si02
#       4
#    32  32  32  16
#     4  10  20  34  51  71  96 127 162 200 241 284
#     4  10  17  28  45  66  92 122 157 195 236 280
#     4  11  21  33  48  69  98 130 163 198 239 288
#     4   9  17  31  51  73  94 119 156 201 243 281
#
# _framework density 16.127345999999999
#
# number of rings (size 3 to 8) (size 9 to 14) (size 15 to 20)
#    0.000    1.857    0.000    9.000    0.000    4.000 
#    0.000    0.000    0.000    0.000    0.000    1.000 
#    0.000    0.000    0.000    0.000    0.000    0.000 
#
# Total GULP energy -156156.928997 kJ/mol
# GULP energy per Si atom -5577.033178 kJ/mol
# Density = 1.609064 g / cm^3
# Si number density = 16.127346 Si / 1000 Ang^3
#
#
#
# Elastic Constant Matrix: (Units=GPa)
#
#
# Indices 1 2 3 4 5 6 
#
# 1 156.7497 60.4810 39.9189 0.0000 0.0000 0.0000
# 2 60.4810 85.2882 43.1105 0.0000 0.0000 0.0000
# 3 39.9189 43.1105 68.4365 0.0000 0.0000 0.0000
# 4 0.0000 0.0000 0.0000 -2.4461 0.0000 0.0000
# 5 0.0000 0.0000 0.0000 0.0000 25.4676 0.0000
# 6 0.0000 0.0000 0.0000 0.0000 0.0000 36.9285
#
#
#
# Elastic Compliance Matrix: (Units=1/GPa)
#
#
# Indices 1 2 3 4 5 6 
#
# 1 0.008930 -0.005428 -0.001789 0.000000 0.000000 0.000000
# 2 -0.005428 0.020502 -0.009749 0.000000 0.000000 0.000000
# 3 -0.001789 -0.009749 0.021797 0.000000 0.000000 0.000000
# 4 0.000000 0.000000 0.000000 -0.408814 0.000000 0.000000
# 5 0.000000 0.000000 0.000000 0.000000 0.039266 0.000000
# 6 0.000000 0.000000 0.000000 0.000000 0.000000 0.027079
#
#
# Mechanical properties :
#
#
# Convention : Reuss Voigt Hill
#
# Bulk Modulus (GPa) = 57.81587 66.38835 62.10211
# Shear Modulus (GPa) = -19.87725 23.12093 1.62184
#
# Velocity S-wave (km/s) = -3.51453 3.79046 1.00391
# Velocity P-wave (km/s) = 4.41114 7.77247 6.31939
#
# Compressibility (1/GPa) = 0.01729629
#
# Stress axis : x y z
#
# Youngs Moduli (GPa) = 111.98707 48.77662 45.87817
#
# Poissons Ratio (x) = 0.26475 0.08210
# Poissons Ratio (y) = 0.60784 0.44725
# Poissons Ratio (z) = 0.20040 0.47551
#
# Static dielectric constant tensor:
#      x y z
#    x 1.538390 0.000000 0.000000 
#    y 0.000000 1.585080 0.000000 
#    z 0.000000 0.000000 1.517150 
# 
# From -- ./inp_files/3723.got.cif
#   From: 2010.05.17/outbox.cif.g08.bks.cpg/sg69_2_cif.got.tgz:3723.got - 2010.06.03 19:29:58.
