data_PCOD9511003
_publ_section_title
;
Structure prediction by ZEFSAII (Michael W. Deem and Ramdas Pophale) SiO2 
 PCOD9511003
Probable space group: F M M M
;
_chemical_formula_sum "Si O2"
_cell_formula_units_Z 160
_cell_length_a 15.110816
_cell_length_b 21.357336
_cell_length_c 23.611721
_cell_angle_alpha 90.000000
_cell_angle_beta 90.000000
_cell_angle_gamma 90.000000
_cell_volume 7620.134560
_symmetry_space_group_name_H-M "F M M M"
_symmetry_group_IT_number 69
_symmetry_cell_setting 'orthorhombic'
loop_
_space_group_symop_operation_xyz
x,y,z
-x,-y,z
x,-y,-z
-x,y,-z
-x,-y,-z
x,y,-z
-x,y,z
x,-y,z
x,1/2+y,1/2+z
-x,1/2-y,1/2+z
x,1/2-y,1/2-z
-x,1/2+y,1/2-z
-x,1/2-y,1/2-z
x,1/2+y,1/2-z
-x,1/2+y,1/2+z
x,1/2-y,1/2+z
1/2+x,y,1/2+z
1/2-x,-y,1/2+z
1/2+x,-y,1/2-z
1/2-x,y,1/2-z
1/2-x,-y,1/2-z
1/2+x,y,1/2-z
1/2-x,y,1/2+z
1/2+x,-y,1/2+z
1/2+x,1/2+y,z
1/2-x,1/2-y,z
1/2+x,1/2-y,-z
1/2-x,1/2+y,-z
1/2-x,1/2-y,-z
1/2+x,1/2+y,-z
1/2-x,1/2+y,z
1/2+x,1/2-y,z
loop_
_atom_site_type_symbol
_atom_site_label
_atom_site_fract_x
_atom_site_fract_y
_atom_site_fract_z
Si Si1 0.168004 0.298202 0.000000
Si Si2 0.149451 0.127970 0.118932
Si Si3 0.849153 0.370432 0.116648
Si Si4 0.858001 0.500000 0.932882
Si Si5 0.357758 0.750122 0.183553
Si Si6 0.902822 0.325110 0.500000
Si Si7 0.639844 0.500000 0.932061
O O1 0.250000 0.250000 0.000000
O O2 0.162704 0.339174 0.944593
O O3 0.089371 0.248893 0.000000
O O4 0.249702 0.117874 0.140312
O O5 0.109708 0.184897 0.155634
O O6 0.148531 0.155192 0.055564
O O7 0.110161 0.060111 0.104569
O O8 0.888138 0.438184 0.101369
O O9 0.890026 0.314831 0.154691
O O10 0.748798 0.500000 0.933466
O O11 0.883581 0.500000 0.000000
O O12 0.375740 0.750000 0.250000
O O13 0.250000 0.750000 0.174671
O O14 0.000000 0.354366 0.500000
O O15 0.614680 0.500000 0.000000
#
# Coordination Sequence:
#
# PCOD9511003 Si02
#       7
#    16  32  32  16  32  16  16
#     4  12  16  27  49  71  89 124 162 186 235 286
#     4  10  17  30  44  66  96 127 155 192 234 283
#     4  10  16  26  47  69  94 121 158 195 235 282
#     4   9  16  22  37  73 101 115 146 199 236 283
#     4   9  17  28  45  67  91 125 168 204 233 270
#     4  12  22  29  44  75 104 121 151 199 243 284
#     4   9  16  24  43  65  95 125 156 185 230 287
#
# _framework density 20.997005000000001
#
# number of rings (size 3 to 8) (size 9 to 14) (size 15 to 20)
#    0.000    2.000    6.000    0.600    0.000    0.000 
#    0.000    2.000    0.000    6.600    0.000    1.400 
#    0.000    0.000    0.000    0.000    0.000    0.000 
#
# Total GULP energy -222672.230337 kJ/mol
# GULP energy per Si atom -5566.805758 kJ/mol
# Density = 2.094921 g / cm^3
# Si number density = 20.997005 Si / 1000 Ang^3
#
#
#
# Elastic Constant Matrix: (Units=GPa)
#
#
# Indices 1 2 3 4 5 6 
#
# 1 53.1943 7.0787 -2.8349 0.0000 0.0000 0.0000
# 2 7.0787 242.7631 84.0977 0.0000 0.0000 0.0000
# 3 -2.8349 84.0977 112.2059 0.0000 0.0000 0.0000
# 4 0.0000 0.0000 0.0000 3.1704 0.0000 0.0000
# 5 0.0000 0.0000 0.0000 0.0000 -15.1402 0.0000
# 6 0.0000 0.0000 0.0000 0.0000 0.0000 -7.9611
#
#
#
# Elastic Compliance Matrix: (Units=1/GPa)
#
#
# Indices 1 2 3 4 5 6 
#
# 1 0.018993 -0.000973 0.001209 0.000000 0.000000 0.000000
# 2 -0.000973 0.005614 -0.004232 0.000000 0.000000 0.000000
# 3 0.001209 -0.004232 0.012115 0.000000 0.000000 0.000000
# 4 0.000000 0.000000 0.000000 0.315421 0.000000 0.000000
# 5 0.000000 0.000000 0.000000 0.000000 -0.066049 0.000000
# 6 0.000000 0.000000 0.000000 0.000000 0.000000 -0.125611
#
#
# Mechanical properties :
#
#
# Convention : Reuss Voigt Hill
#
# Bulk Modulus (GPa) = 34.80730 64.98291 49.89511
# Shear Modulus (GPa) = 28.08197 17.33527 22.70862
#
# Velocity S-wave (km/s) = 3.66105 2.87645 3.29221
# Velocity P-wave (km/s) = 5.87234 6.48443 6.18596
#
# Compressibility (1/GPa) = 0.02872960
#
# Stress axis : x y z
#
# Youngs Moduli (GPa) = 52.65136 178.13776 82.54530
#
# Poissons Ratio (x) = 0.17325 -0.09978
# Poissons Ratio (y) = 0.05121 0.34933
# Poissons Ratio (z) = -0.06364 0.75387
#
# Static dielectric constant tensor:
#      x y z
#    x 1.832530 0.000000 0.000000 
#    y 0.000000 1.865540 0.000000 
#    z 0.000000 0.000000 1.689840 
# 
# From -- ./inp_files/25870.got.cif
#   From: 2010.05.17/outbox.cif.g08.bks.cpg/sg69_13_cif.got.tgz:25870.got - 2010.06.03 19:29:58.
