data_PCOD9511655
_publ_section_title
;
Structure prediction by ZEFSAII (Michael W. Deem and Ramdas Pophale) SiO2 
 PCOD9511655
Probable space group: F M M M
;
_chemical_formula_sum "Si O2"
_cell_formula_units_Z 136
_cell_length_a 25.389295
_cell_length_b 9.525512
_cell_length_c 28.001740
_cell_angle_alpha 90.000000
_cell_angle_beta 90.000000
_cell_angle_gamma 90.000000
_cell_volume 6772.109770
_symmetry_space_group_name_H-M "F M M M"
_symmetry_group_IT_number 69
_symmetry_cell_setting 'orthorhombic'
loop_
_space_group_symop_operation_xyz
x,y,z
-x,-y,z
x,-y,-z
-x,y,-z
-x,-y,-z
x,y,-z
-x,y,z
x,-y,z
x,1/2+y,1/2+z
-x,1/2-y,1/2+z
x,1/2-y,1/2-z
-x,1/2+y,1/2-z
-x,1/2-y,1/2-z
x,1/2+y,1/2-z
-x,1/2+y,1/2+z
x,1/2-y,1/2+z
1/2+x,y,1/2+z
1/2-x,-y,1/2+z
1/2+x,-y,1/2-z
1/2-x,y,1/2-z
1/2-x,-y,1/2-z
1/2+x,y,1/2-z
1/2-x,y,1/2+z
1/2+x,-y,1/2+z
1/2+x,1/2+y,z
1/2-x,1/2-y,z
1/2+x,1/2-y,-z
1/2-x,1/2+y,-z
1/2-x,1/2-y,-z
1/2+x,1/2+y,-z
1/2-x,1/2+y,z
1/2+x,1/2-y,z
loop_
_atom_site_type_symbol
_atom_site_label
_atom_site_fract_x
_atom_site_fract_y
_atom_site_fract_z
Si Si1 0.056975 0.167276 0.851556
Si Si2 0.250000 0.750000 0.750000
Si Si3 0.672259 0.840442 0.329735
Si Si4 0.701854 0.163737 0.078684
Si Si5 0.081923 0.334726 0.947266
O O1 0.110427 0.195387 0.821858
O O2 0.062266 0.245747 0.902384
O O3 0.000000 0.206217 0.830075
O O4 0.056574 0.000000 0.859811
O O5 0.289831 0.833047 0.715598
O O6 0.692196 0.730792 0.369078
O O7 0.674252 0.000000 0.349023
O O8 0.750000 0.250000 0.056842
O O9 0.645494 0.177100 0.053550
O O10 0.715061 0.000000 0.081729
O O11 0.069249 0.500000 0.940537
O O12 0.063179 0.291608 0.000000
#
# Coordination Sequence:
#
# PCOD9511655 Si02
#       5
#    32   8  32  32  32
#     4   9  19  37  58  78 105 144 185 223 266 317
#     4  12  22  32  58  90 112 132 174 226 266 328
#     4  10  21  36  55  80 110 141 175 218 271 323
#     4  10  19  32  51  74 106 145 182 219 265 320
#     4   9  19  34  51  76 109 144 183 225 268 313
#
# _framework density 20.082367000000001
#
# number of rings (size 3 to 8) (size 9 to 14) (size 15 to 20)
#    0.000    2.353    1.176    1.059    0.000    3.765 
#    0.000    2.941    0.000    0.000    0.000    0.000 
#    0.000    0.000    0.000    0.000    0.000    0.000 
#
# Total GULP energy -189544.556532 kJ/mol
# GULP energy per Si atom -5574.839898 kJ/mol
# Density = 2.003666 g / cm^3
# Si number density = 20.082367 Si / 1000 Ang^3
#
#
#
# Elastic Constant Matrix: (Units=GPa)
#
#
# Indices 1 2 3 4 5 6 
#
# 1 175.7023 35.0468 33.5656 0.0000 0.0000 0.0000
# 2 35.0468 64.4808 11.0865 0.0000 0.0000 0.0000
# 3 33.5656 11.0865 64.3401 0.0000 0.0000 0.0000
# 4 0.0000 0.0000 0.0000 13.2802 0.0000 0.0000
# 5 0.0000 0.0000 0.0000 0.0000 -26.6849 0.0000
# 6 0.0000 0.0000 0.0000 0.0000 0.0000 22.3427
#
#
#
# Elastic Compliance Matrix: (Units=1/GPa)
#
#
# Indices 1 2 3 4 5 6 
#
# 1 0.006920 -0.003236 -0.003052 0.000000 0.000000 0.000000
# 2 -0.003236 0.017496 -0.001326 0.000000 0.000000 0.000000
# 3 -0.003052 -0.001326 0.017363 0.000000 0.000000 0.000000
# 4 0.000000 0.000000 0.000000 0.075300 0.000000 0.000000
# 5 0.000000 0.000000 0.000000 0.000000 -0.037474 0.000000
# 6 0.000000 0.000000 0.000000 0.000000 0.000000 0.044757
#
#
# Mechanical properties :
#
#
# Convention : Reuss Voigt Hill
#
# Bulk Modulus (GPa) = 37.66658 51.54678 44.60668
# Shear Modulus (GPa) = 33.68311 16.77588 25.22949
#
# Velocity S-wave (km/s) = 4.09986 2.89338 3.54828
# Velocity P-wave (km/s) = 6.41939 6.07335 6.24877
#
# Compressibility (1/GPa) = 0.02654874
#
# Stress axis : x y z
#
# Youngs Moduli (GPa) = 144.50567 57.15727 57.59244
#
# Poissons Ratio (x) = 0.18499 0.17580
# Poissons Ratio (y) = 0.46768 0.07638
# Poissons Ratio (z) = 0.44110 0.07581
#
# Static dielectric constant tensor:
#      x y z
#    x 1.787060 0.000000 0.000000 
#    y 0.000000 1.680380 0.000000 
#    z 0.000000 0.000000 1.688730 
# 
# From -- ./inp_files/47137.got.cif
#   From: 2010.05.17/outbox.cif.g08.bks.cpg/sg69_24_cif.got.tgz:47137.got - 2010.06.03 19:29:58.
