data_PCOD9511240
_publ_section_title
;
Structure prediction by ZEFSAII (Michael W. Deem and Ramdas Pophale) SiO2 
 PCOD9511240
Probable space group: F M M M
;
_chemical_formula_sum "Si O2"
_cell_formula_units_Z 192
_cell_length_a 20.119700
_cell_length_b 19.609049
_cell_length_c 30.841770
_cell_angle_alpha 90.000000
_cell_angle_beta 90.000000
_cell_angle_gamma 90.000000
_cell_volume 12167.947484
_symmetry_space_group_name_H-M "F M M M"
_symmetry_group_IT_number 69
_symmetry_cell_setting 'orthorhombic'
loop_
_space_group_symop_operation_xyz
x,y,z
-x,-y,z
x,-y,-z
-x,y,-z
-x,-y,-z
x,y,-z
-x,y,z
x,-y,z
x,1/2+y,1/2+z
-x,1/2-y,1/2+z
x,1/2-y,1/2-z
-x,1/2+y,1/2-z
-x,1/2-y,1/2-z
x,1/2+y,1/2-z
-x,1/2+y,1/2+z
x,1/2-y,1/2+z
1/2+x,y,1/2+z
1/2-x,-y,1/2+z
1/2+x,-y,1/2-z
1/2-x,y,1/2-z
1/2-x,-y,1/2-z
1/2+x,y,1/2-z
1/2-x,y,1/2+z
1/2+x,-y,1/2+z
1/2+x,1/2+y,z
1/2-x,1/2-y,z
1/2+x,1/2-y,-z
1/2-x,1/2+y,-z
1/2-x,1/2-y,-z
1/2+x,1/2+y,-z
1/2-x,1/2+y,z
1/2+x,1/2-y,z
loop_
_atom_site_type_symbol
_atom_site_label
_atom_site_fract_x
_atom_site_fract_y
_atom_site_fract_z
Si Si1 0.758824 0.636911 0.451069
Si Si2 0.776577 0.576362 0.200950
Si Si3 0.324267 0.224211 0.799460
Si Si4 0.333863 0.576622 0.872667
Si Si5 0.577289 0.791532 0.632127
Si Si6 0.639934 0.765939 0.950876
O O1 0.758976 0.608832 0.500000
O O2 0.786697 0.587916 0.414394
O O3 0.686270 0.668440 0.441614
O O4 0.808890 0.701838 0.450920
O O5 0.804349 0.500000 0.192733
O O6 0.750000 0.577993 0.250000
O O7 0.823146 0.642240 0.196788
O O8 0.714098 0.585707 0.168801
O O9 0.333623 0.250000 0.750000
O O10 0.250000 0.250000 0.812502
O O11 0.378762 0.255647 0.830931
O O12 0.360557 0.500000 0.872298
O O13 0.390774 0.633409 0.873247
O O14 0.500000 0.794438 0.642821
O O15 0.589170 0.750617 0.587217
O O16 0.613162 0.771487 0.000000
#
# Coordination Sequence:
#
# PCOD9511240 Si02
#       6
#    32  32  32  32  32  32
#     4   8  14  26  46  70  90 117 158 207 252 289
#     4  10  18  30  51  78 100 122 159 205 252 298
#     4  11  19  34  55  76  99 131 168 210 253 301
#     4  10  19  30  45  67  99 134 164 202 250 301
#     4  11  22  32  48  72 100 136 173 209 247 296
#     4   8  15  28  47  68  92 121 159 207 254 293
#
# _framework density 15.779161999999999
#
# number of rings (size 3 to 8) (size 9 to 14) (size 15 to 20)
#    0.000    2.333    3.333    2.000    2.333    1.333 
#    0.000    0.000    0.000    0.500    0.000    4.667 
#    0.000    0.000    0.000   14.333    0.000    1.333 
#
# Total GULP energy -267399.190631 kJ/mol
# GULP energy per Si atom -5570.816471 kJ/mol
# Density = 1.574325 g / cm^3
# Si number density = 15.779162 Si / 1000 Ang^3
#
#
#
# Elastic Constant Matrix: (Units=GPa)
#
#
# Indices 1 2 3 4 5 6 
#
# 1 81.3571 51.3664 63.4760 0.0000 0.0000 0.0000
# 2 51.3664 100.3266 34.9218 0.0000 0.0000 0.0000
# 3 63.4760 34.9218 86.9647 0.0000 0.0000 0.0000
# 4 0.0000 0.0000 0.0000 -568.9884 0.0000 0.0000
# 5 0.0000 0.0000 0.0000 0.0000 8.6161 0.0000
# 6 0.0000 0.0000 0.0000 0.0000 0.0000 11.1403
#
#
#
# Elastic Compliance Matrix: (Units=1/GPa)
#
#
# Indices 1 2 3 4 5 6 
#
# 1 0.036675 -0.010996 -0.022353 0.000000 0.000000 0.000000
# 2 -0.010996 0.014884 0.002049 0.000000 0.000000 0.000000
# 3 -0.022353 0.002049 0.026992 0.000000 0.000000 0.000000
# 4 0.000000 0.000000 0.000000 -0.001758 0.000000 0.000000
# 5 0.000000 0.000000 0.000000 0.000000 0.116062 0.000000
# 6 0.000000 0.000000 0.000000 0.000000 0.000000 0.089764
#
#
# Mechanical properties :
#
#
# Convention : Reuss Voigt Hill
#
# Bulk Modulus (GPa) = 62.69592 63.13076 62.91334
# Shear Modulus (GPa) = 14.26384 -101.92080 -43.82848
#
# Velocity S-wave (km/s) = 3.00987 -8.04564 -5.27603
# Velocity P-wave (km/s) = 7.20407 6.79808 1.68594
#
# Compressibility (1/GPa) = 0.01595000
#
# Stress axis : x y z
#
# Youngs Moduli (GPa) = 27.26680 67.18559 37.04832
#
# Poissons Ratio (x) = 0.73880 0.82815
# Poissons Ratio (y) = 0.29984 -0.07593
# Poissons Ratio (z) = 0.60950 -0.13769
#
# Static dielectric constant tensor:
#      x y z
#    x 1.489120 0.000000 0.000000 
#    y 0.000000 1.553330 0.000000 
#    z 0.000000 0.000000 1.548270 
# 
# From -- ./inp_files/42776.got.cif
#   From: 2010.05.17/outbox.cif.g08.bks.cpg/sg69_22_cif.got.tgz:42776.got - 2010.06.03 19:29:58.
