data_PCOD9511734
_publ_section_title
;
Structure prediction by ZEFSAII (Michael W. Deem and Ramdas Pophale) SiO2 
 PCOD9511734
Probable space group: F M M M
;
_chemical_formula_sum "Si O2"
_cell_formula_units_Z 176
_cell_length_a 13.853572
_cell_length_b 24.849553
_cell_length_c 25.136297
_cell_angle_alpha 90.000000
_cell_angle_beta 90.000000
_cell_angle_gamma 90.000000
_cell_volume 8653.297725
_symmetry_space_group_name_H-M "F M M M"
_symmetry_group_IT_number 69
_symmetry_cell_setting 'orthorhombic'
loop_
_space_group_symop_operation_xyz
x,y,z
-x,-y,z
x,-y,-z
-x,y,-z
-x,-y,-z
x,y,-z
-x,y,z
x,-y,z
x,1/2+y,1/2+z
-x,1/2-y,1/2+z
x,1/2-y,1/2-z
-x,1/2+y,1/2-z
-x,1/2-y,1/2-z
x,1/2+y,1/2-z
-x,1/2+y,1/2+z
x,1/2-y,1/2+z
1/2+x,y,1/2+z
1/2-x,-y,1/2+z
1/2+x,-y,1/2-z
1/2-x,y,1/2-z
1/2-x,-y,1/2-z
1/2+x,y,1/2-z
1/2-x,y,1/2+z
1/2+x,-y,1/2+z
1/2+x,1/2+y,z
1/2-x,1/2-y,z
1/2+x,1/2-y,-z
1/2-x,1/2+y,-z
1/2-x,1/2-y,-z
1/2+x,1/2+y,-z
1/2-x,1/2+y,z
1/2+x,1/2-y,z
loop_
_atom_site_type_symbol
_atom_site_label
_atom_site_fract_x
_atom_site_fract_y
_atom_site_fract_z
Si Si1 0.385861 0.327966 0.221671
Si Si2 0.618402 0.718631 0.667796
Si Si3 0.725240 0.561838 0.419103
Si Si4 0.384195 0.667679 0.558142
Si Si5 0.391148 0.064739 0.500000
Si Si6 0.190551 0.558499 0.695466
O O1 0.500000 0.319801 0.225484
O O2 0.350173 0.319254 0.282511
O O3 0.351672 0.278843 0.184604
O O4 0.368838 0.386892 0.199138
O O5 0.500000 0.717127 0.665745
O O6 0.652358 0.699062 0.610236
O O7 0.702577 0.500000 0.434394
O O8 0.647457 0.605722 0.435422
O O9 0.825301 0.577757 0.448811
O O10 0.741933 0.562707 0.356102
O O11 0.349560 0.686953 0.500000
O O12 0.500000 0.671090 0.558241
O O13 0.500000 0.087126 0.500000
O O14 0.399806 0.000000 0.500000
O O15 0.139135 0.500000 0.690568
O O16 0.250000 0.556967 0.750000
#
# Coordination Sequence:
#
# PCOD9511734 Si02
#       6
#    32  32  32  32  16  32
#     4   9  17  33  57  79 105 144 189 232 271 329
#     4   8  16  32  54  81 111 145 184 227 278 333
#     4  10  20  35  53  77 114 151 190 237 281 339
#     4  10  19  32  55  84 113 146 183 228 286 344
#     4   9  18  34  55  75 100 147 204 246 280 323
#     4  10  21  35  52  79 114 146 178 229 292 341
#
# _framework density 20.339065999999999
#
# number of rings (size 3 to 8) (size 9 to 14) (size 15 to 20)
#    0.000    2.636    0.909    2.182    0.000    1.455 
#    0.000    9.091    2.000    7.636    0.000    0.000 
#    0.000    0.000    0.000    0.000    0.000    0.000 
#
# Total GULP energy -245364.328490 kJ/mol
# GULP energy per Si atom -5576.462011 kJ/mol
# Density = 2.029277 g / cm^3
# Si number density = 20.339066 Si / 1000 Ang^3
#
#
#
# Elastic Constant Matrix: (Units=GPa)
#
#
# Indices 1 2 3 4 5 6 
#
# 1 14.3385 3.0057 8.9370 0.0000 0.0000 0.0000
# 2 3.0057 120.9537 52.8410 0.0000 0.0000 0.0000
# 3 8.9370 52.8410 166.6719 0.0000 0.0000 0.0000
# 4 0.0000 0.0000 0.0000 29.6483 0.0000 0.0000
# 5 0.0000 0.0000 0.0000 0.0000 20.0871 0.0000
# 6 0.0000 0.0000 0.0000 0.0000 0.0000 31.6923
#
#
#
# Elastic Compliance Matrix: (Units=1/GPa)
#
#
# Indices 1 2 3 4 5 6 
#
# 1 0.072155 -0.000119 -0.003831 0.000000 0.000000 0.000000
# 2 -0.000119 0.009597 -0.003036 0.000000 0.000000 0.000000
# 3 -0.003831 -0.003036 0.007168 0.000000 0.000000 0.000000
# 4 0.000000 0.000000 0.000000 0.033729 0.000000 0.000000
# 5 0.000000 0.000000 0.000000 0.000000 0.049783 0.000000
# 6 0.000000 0.000000 0.000000 0.000000 0.000000 0.031553
#
#
# Mechanical properties :
#
#
# Convention : Reuss Voigt Hill
#
# Bulk Modulus (GPa) = 13.34282 47.94795 30.64539
# Shear Modulus (GPa) = 20.58113 32.09756 26.33935
#
# Velocity S-wave (km/s) = 3.18449 3.97687 3.60253
# Velocity P-wave (km/s) = 4.48283 6.68676 5.69248
#
# Compressibility (1/GPa) = 0.07494669
#
# Stress axis : x y z
#
# Youngs Moduli (GPa) = 13.85901 104.19902 139.51225
#
# Poissons Ratio (x) = 0.01243 0.53450
# Poissons Ratio (y) = 0.00165 0.42359
# Poissons Ratio (z) = 0.05310 0.31637
#
# Static dielectric constant tensor:
#      x y z
#    x 1.744730 0.000000 0.000000 
#    y 0.000000 1.727970 0.000000 
#    z 0.000000 0.000000 1.741440 
# 
# From -- ./inp_files/17925.got.cif
#   From: 2010.05.17/outbox.cif.g08.bks.cpg/sg69_9_cif.got.tgz:17925.got - 2010.06.03 19:29:58.
