data_PCOD9511657
_publ_section_title
;
Structure prediction by ZEFSAII (Michael W. Deem and Ramdas Pophale) SiO2 
 PCOD9511657
Probable space group: F M M M
;
_chemical_formula_sum "Si O2"
_cell_formula_units_Z 208
_cell_length_a 18.834349
_cell_length_b 19.518754
_cell_length_c 33.102146
_cell_angle_alpha 90.000000
_cell_angle_beta 90.000000
_cell_angle_gamma 90.000000
_cell_volume 12169.111043
_symmetry_space_group_name_H-M "F M M M"
_symmetry_group_IT_number 69
_symmetry_cell_setting 'orthorhombic'
loop_
_space_group_symop_operation_xyz
x,y,z
-x,-y,z
x,-y,-z
-x,y,-z
-x,-y,-z
x,y,-z
-x,y,z
x,-y,z
x,1/2+y,1/2+z
-x,1/2-y,1/2+z
x,1/2-y,1/2-z
-x,1/2+y,1/2-z
-x,1/2-y,1/2-z
x,1/2+y,1/2-z
-x,1/2+y,1/2+z
x,1/2-y,1/2+z
1/2+x,y,1/2+z
1/2-x,-y,1/2+z
1/2+x,-y,1/2-z
1/2-x,y,1/2-z
1/2-x,-y,1/2-z
1/2+x,y,1/2-z
1/2-x,y,1/2+z
1/2+x,-y,1/2+z
1/2+x,1/2+y,z
1/2-x,1/2-y,z
1/2+x,1/2-y,-z
1/2-x,1/2+y,-z
1/2-x,1/2-y,-z
1/2+x,1/2+y,-z
1/2-x,1/2+y,z
1/2+x,1/2-y,z
loop_
_atom_site_type_symbol
_atom_site_label
_atom_site_fract_x
_atom_site_fract_y
_atom_site_fract_z
Si Si1 0.180018 0.169645 0.367093
Si Si2 0.830508 0.722485 0.955583
Si Si3 0.084958 0.081160 0.781445
Si Si4 0.583578 0.852461 0.428658
Si Si5 0.580207 0.081721 0.812918
Si Si6 0.081121 0.500000 0.548031
Si Si7 0.157038 0.174991 0.153024
O O1 0.161252 0.178633 0.414587
O O2 0.134012 0.114082 0.344185
O O3 0.162460 0.242493 0.345280
O O4 0.263776 0.155075 0.361834
O O5 0.750000 0.750000 0.953993
O O6 0.879288 0.789786 0.951321
O O7 0.842269 0.690471 0.000000
O O8 0.098050 0.095458 0.734039
O O9 0.131554 0.132253 0.808423
O O10 0.000000 0.090577 0.788668
O O11 0.100111 0.000000 0.789253
O O12 0.500000 0.851896 0.437705
O O13 0.613611 0.927614 0.439334
O O14 0.600254 0.841213 0.381798
O O15 0.500000 0.107420 0.820235
O O16 0.579629 0.000000 0.816968
O O17 0.077237 0.500000 0.500000
O O18 0.000000 0.500000 0.564750
#
# Coordination Sequence:
#
# PCOD9511657 Si02
#       7
#    32  32  32  32  32  16  32
#     4  10  20  37  54  79 107 140 180 221 276 324
#     4  10  19  36  57  75 106 143 177 221 270 316
#     4   9  19  35  55  80 110 144 180 217 264 322
#     4  10  19  32  51  77 107 142 178 216 265 319
#     4   9  20  39  59  78 103 140 185 231 275 318
#     4   9  18  30  44  70 108 139 169 211 261 318
#     4  10  20  34  50  79 113 140 178 219 266 317
#
# _framework density 17.092455999999999
#
# number of rings (size 3 to 8) (size 9 to 14) (size 15 to 20)
#    0.000    2.385    3.077    1.846    1.077    5.846 
#    0.000    4.615    0.000    0.462    0.000    1.077 
#    0.000    0.000    0.000    0.000    0.000    0.000 
#
# Total GULP energy -289648.199186 kJ/mol
# GULP energy per Si atom -5570.157677 kJ/mol
# Density = 1.705355 g / cm^3
# Si number density = 17.092456 Si / 1000 Ang^3
#
#
#
# Elastic Constant Matrix: (Units=GPa)
#
#
# Indices 1 2 3 4 5 6 
#
# 1 53.1766 29.6431 37.1858 0.0000 0.0000 0.0000
# 2 29.6431 35.5133 44.4819 0.0000 0.0000 0.0000
# 3 37.1858 44.4819 101.9750 0.0000 0.0000 0.0000
# 4 0.0000 0.0000 0.0000 8.4055 0.0000 0.0000
# 5 0.0000 0.0000 0.0000 0.0000 208.2532 0.0000
# 6 0.0000 0.0000 0.0000 0.0000 0.0000 25.5909
#
#
#
# Elastic Compliance Matrix: (Units=1/GPa)
#
#
# Indices 1 2 3 4 5 6 
#
# 1 0.035170 -0.029303 -0.000043 0.000000 0.000000 0.000000
# 2 -0.029303 0.086487 -0.027041 0.000000 0.000000 0.000000
# 3 -0.000043 -0.027041 0.021617 0.000000 0.000000 0.000000
# 4 0.000000 0.000000 0.000000 0.118970 0.000000 0.000000
# 5 0.000000 0.000000 0.000000 0.000000 0.004802 0.000000
# 6 0.000000 0.000000 0.000000 0.000000 0.000000 0.039076
#
#
# Mechanical properties :
#
#
# Convention : Reuss Voigt Hill
#
# Bulk Modulus (GPa) = 32.78506 45.92074 39.35290
# Shear Modulus (GPa) = 11.65330 53.74018 32.69674
#
# Velocity S-wave (km/s) = 2.61392 5.61330 4.37845
# Velocity P-wave (km/s) = 5.32286 8.30281 6.97386
#
# Compressibility (1/GPa) = 0.03050170
#
# Stress axis : x y z
#
# Youngs Moduli (GPa) = 28.43332 11.56239 46.25933
#
# Poissons Ratio (x) = 0.33881 0.00199
# Poissons Ratio (y) = 0.83317 1.25088
# Poissons Ratio (z) = 0.00122 0.31266
#
# Static dielectric constant tensor:
#      x y z
#    x 1.583350 0.000000 0.000000 
#    y 0.000000 1.584330 0.000000 
#    z 0.000000 0.000000 1.591180 
# 
# From -- ./inp_files/46512.got.cif
#   From: 2010.05.17/outbox.cif.g08.bks.cpg/sg69_24_cif.got.tgz:46512.got - 2010.06.03 19:29:58.
