data_PCOD9511010
_publ_section_title
;
Structure prediction by ZEFSAII (Michael W. Deem and Ramdas Pophale) SiO2 
 PCOD9511010
Probable space group: F M M M
;
_chemical_formula_sum "Si O2"
_cell_formula_units_Z 120
_cell_length_a 15.406599
_cell_length_b 18.980171
_cell_length_c 25.520636
_cell_angle_alpha 90.000000
_cell_angle_beta 90.000000
_cell_angle_gamma 90.000000
_cell_volume 7462.741407
_symmetry_space_group_name_H-M "F M M M"
_symmetry_group_IT_number 69
_symmetry_cell_setting 'orthorhombic'
loop_
_space_group_symop_operation_xyz
x,y,z
-x,-y,z
x,-y,-z
-x,y,-z
-x,-y,-z
x,y,-z
-x,y,z
x,-y,z
x,1/2+y,1/2+z
-x,1/2-y,1/2+z
x,1/2-y,1/2-z
-x,1/2+y,1/2-z
-x,1/2-y,1/2-z
x,1/2+y,1/2-z
-x,1/2+y,1/2+z
x,1/2-y,1/2+z
1/2+x,y,1/2+z
1/2-x,-y,1/2+z
1/2+x,-y,1/2-z
1/2-x,y,1/2-z
1/2-x,-y,1/2-z
1/2+x,y,1/2-z
1/2-x,y,1/2+z
1/2+x,-y,1/2+z
1/2+x,1/2+y,z
1/2-x,1/2-y,z
1/2+x,1/2-y,-z
1/2-x,1/2+y,-z
1/2-x,1/2-y,-z
1/2+x,1/2+y,-z
1/2-x,1/2+y,z
1/2+x,1/2-y,z
loop_
_atom_site_type_symbol
_atom_site_label
_atom_site_fract_x
_atom_site_fract_y
_atom_site_fract_z
Si Si1 0.847788 0.170237 0.269873
Si Si2 0.000000 0.327892 0.500000
Si Si3 0.345686 0.283993 0.385205
Si Si4 0.345120 0.784753 0.000000
Si Si5 0.000000 0.169814 0.113593
Si Si6 0.000000 0.416421 0.282167
O O1 0.868998 0.250000 0.250000
O O2 0.750000 0.156391 0.250000
O O3 0.854034 0.170216 0.332891
O O4 0.915788 0.116704 0.245570
O O5 0.083536 0.276946 0.500000
O O6 0.000000 0.365024 0.444065
O O7 0.250000 0.250000 0.383017
O O8 0.355684 0.320058 0.442674
O O9 0.416960 0.221709 0.381895
O O10 0.250000 0.750000 0.000000
O O11 0.000000 0.113165 0.158930
O O12 0.000000 0.500000 0.280104
#
# Coordination Sequence:
#
# PCOD9511010 Si02
#       6
#    32   8  32  16  16  16
#     4  11  19  33  54  75  96 128 167 201 244 292
#     4   8  16  26  43  64  88 126 157 192 232 284
#     4  10  16  28  48  73  97 122 155 198 244 286
#     4   8  16  24  40  71 101 117 143 195 248 284
#     4  10  17  30  46  66  97 125 160 196 238 287
#     4  12  24  34  47  72 103 134 164 201 245 290
#
# _framework density 16.079882000000001
#
# number of rings (size 3 to 8) (size 9 to 14) (size 15 to 20)
#    0.000    1.867    5.333    1.200    0.000    0.533 
#    0.000    0.333    0.000    0.000    0.000    1.867 
#    0.000    0.000    0.000    0.000    0.000    0.000 
#
# Total GULP energy -167062.152328 kJ/mol
# GULP energy per Si atom -5568.738411 kJ/mol
# Density = 1.604328 g / cm^3
# Si number density = 16.079882 Si / 1000 Ang^3
#
#
#
# Elastic Constant Matrix: (Units=GPa)
#
#
# Indices 1 2 3 4 5 6 
#
# 1 107.5388 61.5620 36.5302 0.0000 0.0000 0.0000
# 2 61.5620 61.5120 49.4126 0.0000 0.0000 0.0000
# 3 36.5302 49.4126 216.4354 0.0000 0.0000 0.0000
# 4 0.0000 0.0000 0.0000 8.7114 0.0000 0.0000
# 5 0.0000 0.0000 0.0000 0.0000 23.9347 0.0000
# 6 0.0000 0.0000 0.0000 0.0000 0.0000 0.4694
#
#
#
# Elastic Compliance Matrix: (Units=1/GPa)
#
#
# Indices 1 2 3 4 5 6 
#
# 1 0.022231 -0.023555 0.001625 0.000000 0.000000 0.000000
# 2 -0.023555 0.044866 -0.006267 0.000000 0.000000 0.000000
# 3 0.001625 -0.006267 0.005777 0.000000 0.000000 0.000000
# 4 0.000000 0.000000 0.000000 0.114792 0.000000 0.000000
# 5 0.000000 0.000000 0.000000 0.000000 0.041780 0.000000
# 6 0.000000 0.000000 0.000000 0.000000 0.000000 2.130601
#
#
# Mechanical properties :
#
#
# Convention : Reuss Voigt Hill
#
# Bulk Modulus (GPa) = 60.67964 75.61065 68.14515
# Shear Modulus (GPa) = 2.06447 22.48853 12.27650
#
# Velocity S-wave (km/s) = 1.13431 3.74378 2.76609
# Velocity P-wave (km/s) = 6.28760 8.11245 7.25760
#
# Compressibility (1/GPa) = 0.01647999
#
# Stress axis : x y z
#
# Youngs Moduli (GPa) = 44.98200 22.28884 173.10620
#
# Poissons Ratio (x) = 0.52501 -0.28137
# Poissons Ratio (y) = 1.05955 1.08490
# Poissons Ratio (z) = -0.07312 0.13969
#
# Static dielectric constant tensor:
#      x y z
#    x 1.542390 0.000000 0.000000 
#    y 0.000000 1.466810 0.000000 
#    z 0.000000 0.000000 1.624730 
# 
# From -- ./inp_files/22803.got.cif
#   From: 2010.05.17/outbox.cif.g08.bks.cpg/sg69_12_cif.got.tgz:22803.got - 2010.06.03 19:29:58.
