data_PCOD9511335
_publ_section_title
;
Structure prediction by ZEFSAII (Michael W. Deem and Ramdas Pophale) SiO2 
 PCOD9511335
Probable space group: F M M M
;
_chemical_formula_sum "Si O2"
_cell_formula_units_Z 192
_cell_length_a 30.108210
_cell_length_b 16.614671
_cell_length_c 22.166454
_cell_angle_alpha 90.000000
_cell_angle_beta 90.000000
_cell_angle_gamma 90.000000
_cell_volume 11088.502695
_symmetry_space_group_name_H-M "F M M M"
_symmetry_group_IT_number 69
_symmetry_cell_setting 'orthorhombic'
loop_
_space_group_symop_operation_xyz
x,y,z
-x,-y,z
x,-y,-z
-x,y,-z
-x,-y,-z
x,y,-z
-x,y,z
x,-y,z
x,1/2+y,1/2+z
-x,1/2-y,1/2+z
x,1/2-y,1/2-z
-x,1/2+y,1/2-z
-x,1/2-y,1/2-z
x,1/2+y,1/2-z
-x,1/2+y,1/2+z
x,1/2-y,1/2+z
1/2+x,y,1/2+z
1/2-x,-y,1/2+z
1/2+x,-y,1/2-z
1/2-x,y,1/2-z
1/2-x,-y,1/2-z
1/2+x,y,1/2-z
1/2-x,y,1/2+z
1/2+x,-y,1/2+z
1/2+x,1/2+y,z
1/2-x,1/2-y,z
1/2+x,1/2-y,-z
1/2-x,1/2+y,-z
1/2-x,1/2-y,-z
1/2+x,1/2+y,-z
1/2-x,1/2+y,z
1/2+x,1/2-y,z
loop_
_atom_site_type_symbol
_atom_site_label
_atom_site_fract_x
_atom_site_fract_y
_atom_site_fract_z
Si Si1 0.000000 0.197409 0.069506
Si Si2 0.828406 0.402062 0.568473
Si Si3 0.421911 0.596349 0.123077
Si Si4 0.919386 0.595724 0.764373
Si Si5 0.319680 0.343338 0.732733
Si Si6 0.242254 0.904805 0.839505
Si Si7 0.000000 0.805428 0.310609
O O1 0.042984 0.141969 0.081907
O O2 0.000000 0.260424 0.125154
O O3 0.000000 0.226730 0.000000
O O4 0.832049 0.374731 0.500000
O O5 0.828115 0.500000 0.568951
O O6 0.872022 0.378349 0.605777
O O7 0.783174 0.377171 0.600799
O O8 0.425837 0.500000 0.114614
O O9 0.429727 0.613477 0.193699
O O10 0.922349 0.500000 0.772250
O O11 0.869089 0.624025 0.776099
O O12 0.955693 0.641141 0.803989
O O13 0.321171 0.250000 0.750000
O O14 0.286781 0.357491 0.676658
O O15 0.294010 0.390413 0.786401
O O16 0.252068 0.000000 0.842075
O O17 0.000000 0.750000 0.250000
#
# Coordination Sequence:
#
# PCOD9511335 Si02
#       7
#    16  32  32  32  32  32  16
#     4  12  25  38  55  82 119 158 192 231 283 345
#     4   9  17  29  48  75 109 147 185 227 271 323
#     4  10  19  33  54  84 118 154 193 230 283 351
#     4  11  21  37  60  86 113 146 189 239 290 345
#     4  11  21  32  52  80 111 139 178 235 289 333
#     4  10  18  32  51  75 108 147 190 224 269 332
#     4  12  23  39  59  85 119 150 182 230 292 341
#
# _framework density 17.315232999999999
#
# number of rings (size 3 to 8) (size 9 to 14) (size 15 to 20)
#    0.000    1.500    3.333    4.500    0.000    2.667 
#    0.000    0.000    0.000    4.000    0.000    0.000 
#    0.000    0.000    0.000    0.000    0.000    0.000 
#
# Total GULP energy -267934.557655 kJ/mol
# GULP energy per Si atom -5581.969951 kJ/mol
# Density = 1.727582 g / cm^3
# Si number density = 17.315233 Si / 1000 Ang^3
#
#
#
# Elastic Constant Matrix: (Units=GPa)
#
#
# Indices 1 2 3 4 5 6 
#
# 1 114.3373 40.1569 38.6171 0.0000 0.0000 0.0000
# 2 40.1569 58.7203 33.1080 0.0000 0.0000 0.0000
# 3 38.6171 33.1080 94.7593 0.0000 0.0000 0.0000
# 4 0.0000 0.0000 0.0000 16.7549 0.0000 0.0000
# 5 0.0000 0.0000 0.0000 0.0000 16.2387 0.0000
# 6 0.0000 0.0000 0.0000 0.0000 0.0000 14.8432
#
#
#
# Elastic Compliance Matrix: (Units=1/GPa)
#
#
# Indices 1 2 3 4 5 6 
#
# 1 0.011973 -0.006771 -0.002514 0.000000 0.000000 0.000000
# 2 -0.006771 0.025036 -0.005988 0.000000 0.000000 0.000000
# 3 -0.002514 -0.005988 0.013670 0.000000 0.000000 0.000000
# 4 0.000000 0.000000 0.000000 0.059684 0.000000 0.000000
# 5 0.000000 0.000000 0.000000 0.000000 0.061581 0.000000
# 6 0.000000 0.000000 0.000000 0.000000 0.000000 0.067371
#
#
# Mechanical properties :
#
#
# Convention : Reuss Voigt Hill
#
# Bulk Modulus (GPa) = 49.66757 54.62012 52.14384
# Shear Modulus (GPa) = 18.07848 19.96303 19.02075
#
# Velocity S-wave (km/s) = 3.23473 3.39915 3.31796
# Velocity P-wave (km/s) = 6.53436 6.85701 6.69763
#
# Compressibility (1/GPa) = 0.02013386
#
# Stress axis : x y z
#
# Youngs Moduli (GPa) = 83.52122 39.94176 73.15439
#
# Poissons Ratio (x) = 0.27043 0.18389
# Poissons Ratio (y) = 0.56549 0.43807
# Poissons Ratio (z) = 0.20995 0.23918
#
# Static dielectric constant tensor:
#      x y z
#    x 1.588780 0.000000 0.000000 
#    y 0.000000 1.587760 0.000000 
#    z 0.000000 0.000000 1.600200 
# 
# From -- ./inp_files/38384.got.cif
#   From: 2010.05.17/outbox.cif.g08.bks.cpg/sg69_20_cif.got.tgz:38384.got - 2010.06.03 19:29:58.
