data_PCOD9511481
_publ_section_title
;
Structure prediction by ZEFSAII (Michael W. Deem and Ramdas Pophale) SiO2 
 PCOD9511481
Probable space group: F M M M
;
_chemical_formula_sum "Si O2"
_cell_formula_units_Z 112
_cell_length_a 17.609321
_cell_length_b 25.904432
_cell_length_c 13.539740
_cell_angle_alpha 90.000000
_cell_angle_beta 90.000000
_cell_angle_gamma 90.000000
_cell_volume 6176.280465
_symmetry_space_group_name_H-M "F M M M"
_symmetry_group_IT_number 69
_symmetry_cell_setting 'orthorhombic'
loop_
_space_group_symop_operation_xyz
x,y,z
-x,-y,z
x,-y,-z
-x,y,-z
-x,-y,-z
x,y,-z
-x,y,z
x,-y,z
x,1/2+y,1/2+z
-x,1/2-y,1/2+z
x,1/2-y,1/2-z
-x,1/2+y,1/2-z
-x,1/2-y,1/2-z
x,1/2+y,1/2-z
-x,1/2+y,1/2+z
x,1/2-y,1/2+z
1/2+x,y,1/2+z
1/2-x,-y,1/2+z
1/2+x,-y,1/2-z
1/2-x,y,1/2-z
1/2-x,-y,1/2-z
1/2+x,y,1/2-z
1/2-x,y,1/2+z
1/2+x,-y,1/2+z
1/2+x,1/2+y,z
1/2-x,1/2-y,z
1/2+x,1/2-y,-z
1/2-x,1/2+y,-z
1/2-x,1/2-y,-z
1/2+x,1/2+y,-z
1/2-x,1/2+y,z
1/2+x,1/2-y,z
loop_
_atom_site_type_symbol
_atom_site_label
_atom_site_fract_x
_atom_site_fract_y
_atom_site_fract_z
Si Si1 0.411301 0.764938 0.500000
Si Si2 0.590426 0.805430 0.709497
Si Si3 0.590016 0.561848 0.500000
Si Si4 0.189380 0.384224 0.170283
Si Si5 0.783428 0.808190 0.500000
O O1 0.500000 0.754242 0.500000
O O2 0.393827 0.799551 0.405715
O O3 0.371828 0.709177 0.500000
O O4 0.500000 0.809240 0.725412
O O5 0.616733 0.750000 0.750000
O O6 0.632008 0.851131 0.763458
O O7 0.588993 0.500000 0.500000
O O8 0.500000 0.578990 0.500000
O O9 0.638612 0.581030 0.404120
O O10 0.250000 0.407067 0.250000
O O11 0.229937 0.342833 0.096538
O O12 0.750000 0.750000 0.500000
#
# Coordination Sequence:
#
# PCOD9511481 Si02
#       5
#    16  32  16  32  16
#     4  10  19  29  44  70 108 161 213 249 271 323
#     4  10  19  31  49  76 116 168 213 245 287 351
#     4  10  24  48  72  90 111 150 212 274 318 366
#     4  11  23  35  57  88 119 157 196 251 312 365
#     4  11  21  31  46  73 117 162 197 227 269 352
#
# _framework density 18.133890999999998
#
# number of rings (size 3 to 8) (size 9 to 14) (size 15 to 20)
#    0.000    1.571    2.857    2.571    0.000    4.000 
#    0.000    0.000    0.000    0.000    0.000    0.000 
#    0.000   17.143    0.000    0.000    0.000    0.000 
#
# Total GULP energy -156068.505560 kJ/mol
# GULP energy per Si atom -5573.875199 kJ/mol
# Density = 1.809262 g / cm^3
# Si number density = 18.133891 Si / 1000 Ang^3
#
#
#
# Elastic Constant Matrix: (Units=GPa)
#
#
# Indices 1 2 3 4 5 6 
#
# 1 94.8066 35.6221 43.7723 0.0000 0.0000 0.0000
# 2 35.6221 57.7829 35.6540 0.0000 0.0000 0.0000
# 3 43.7723 35.6540 144.4615 0.0000 0.0000 0.0000
# 4 0.0000 0.0000 0.0000 19.2558 0.0000 0.0000
# 5 0.0000 0.0000 0.0000 0.0000 33.9826 0.0000
# 6 0.0000 0.0000 0.0000 0.0000 0.0000 27.2898
#
#
#
# Elastic Compliance Matrix: (Units=1/GPa)
#
#
# Indices 1 2 3 4 5 6 
#
# 1 0.014499 -0.007347 -0.002580 0.000000 0.000000 0.000000
# 2 -0.007347 0.024137 -0.003731 0.000000 0.000000 0.000000
# 3 -0.002580 -0.003731 0.008625 0.000000 0.000000 0.000000
# 4 0.000000 0.000000 0.000000 0.051932 0.000000 0.000000
# 5 0.000000 0.000000 0.000000 0.000000 0.029427 0.000000
# 6 0.000000 0.000000 0.000000 0.000000 0.000000 0.036644
#
#
# Mechanical properties :
#
#
# Convention : Reuss Voigt Hill
#
# Bulk Modulus (GPa) = 50.13571 58.57196 54.35383
# Shear Modulus (GPa) = 25.09670 28.23915 26.66793
#
# Velocity S-wave (km/s) = 3.72421 3.95049 3.83902
# Velocity P-wave (km/s) = 6.79709 7.29235 7.04907
#
# Compressibility (1/GPa) = 0.01994586
#
# Stress axis : x y z
#
# Youngs Moduli (GPa) = 68.96828 41.42934 115.94245
#
# Poissons Ratio (x) = 0.30436 0.29915
# Poissons Ratio (y) = 0.50668 0.43261
# Poissons Ratio (z) = 0.17795 0.15458
#
# Static dielectric constant tensor:
#      x y z
#    x 1.744550 0.000000 0.000000 
#    y 0.000000 1.581100 0.000000 
#    z 0.000000 0.000000 1.597600 
# 
# From -- ./inp_files/11006.got.cif
#   From: 2010.05.17/outbox.cif.g08.bks.cpg/sg69_6_cif.got.tgz:11006.got - 2010.06.03 19:29:58.
