data_PCOD9511442
_publ_section_title
;
Structure prediction by ZEFSAII (Michael W. Deem and Ramdas Pophale) SiO2 
 PCOD9511442
Probable space group: F M M M
;
_chemical_formula_sum "Si O2"
_cell_formula_units_Z 192
_cell_length_a 29.545334
_cell_length_b 23.423896
_cell_length_c 14.952846
_cell_angle_alpha 90.000000
_cell_angle_beta 90.000000
_cell_angle_gamma 90.000000
_cell_volume 10348.368744
_symmetry_space_group_name_H-M "F M M M"
_symmetry_group_IT_number 69
_symmetry_cell_setting 'orthorhombic'
loop_
_space_group_symop_operation_xyz
x,y,z
-x,-y,z
x,-y,-z
-x,y,-z
-x,-y,-z
x,y,-z
-x,y,z
x,-y,z
x,1/2+y,1/2+z
-x,1/2-y,1/2+z
x,1/2-y,1/2-z
-x,1/2+y,1/2-z
-x,1/2-y,1/2-z
x,1/2+y,1/2-z
-x,1/2+y,1/2+z
x,1/2-y,1/2+z
1/2+x,y,1/2+z
1/2-x,-y,1/2+z
1/2+x,-y,1/2-z
1/2-x,y,1/2-z
1/2-x,-y,1/2-z
1/2+x,y,1/2-z
1/2-x,y,1/2+z
1/2+x,-y,1/2+z
1/2+x,1/2+y,z
1/2-x,1/2-y,z
1/2+x,1/2-y,-z
1/2-x,1/2+y,-z
1/2-x,1/2-y,-z
1/2+x,1/2+y,-z
1/2-x,1/2+y,z
1/2+x,1/2-y,z
loop_
_atom_site_type_symbol
_atom_site_label
_atom_site_fract_x
_atom_site_fract_y
_atom_site_fract_z
Si Si1 0.385806 0.000000 0.602102
Si Si2 0.050277 0.740950 0.356548
Si Si3 0.322809 0.626703 0.753839
Si Si4 0.855542 0.791077 0.598355
Si Si5 0.283533 0.697007 0.898240
Si Si6 0.596341 0.623971 0.896539
Si Si7 0.195255 0.000000 0.248345
O O1 0.415805 0.943003 0.613148
O O2 0.369191 0.000000 0.500000
O O3 0.339676 0.000000 0.662050
O O4 0.051428 0.750000 0.250000
O O5 0.091223 0.779429 0.392825
O O6 0.061274 0.674862 0.379149
O O7 0.000000 0.755614 0.388803
O O8 0.334391 0.670458 0.675351
O O9 0.283780 0.649344 0.821914
O O10 0.365349 0.627553 0.821145
O O11 0.315877 0.563346 0.715092
O O12 0.844826 0.814381 0.500000
O O13 0.831704 0.729401 0.604523
O O14 0.250000 0.750000 0.880696
O O15 0.275385 0.676371 0.000000
O O16 0.612210 0.630723 0.000000
O O17 0.250000 0.000000 0.250000
#
# Coordination Sequence:
#
# PCOD9511442 Si02
#       7
#    16  32  32  32  32  32  16
#     4   8  18  36  59  80 106 146 190 232 284 343
#     4  11  21  35  57  87 121 154 186 231 295 350
#     4  11  21  38  57  77 113 151 188 239 284 329
#     4  11  22  37  56  82 114 152 193 232 284 339
#     4  10  21  35  57  87 114 147 188 229 282 347
#     4  10  18  34  57  81 108 144 184 226 279 341
#     4  10  24  38  54  83 109 148 200 238 287 344
#
# _framework density 18.553650000000001
#
# number of rings (size 3 to 8) (size 9 to 14) (size 15 to 20)
#    0.000    1.667    3.333    1.500    2.333    2.667 
#    0.000    1.667    0.000    1.500    0.000    0.583 
#    0.000    1.333    0.000    0.000    0.000    0.000 
#
# Total GULP energy -267316.851966 kJ/mol
# GULP energy per Si atom -5569.101083 kJ/mol
# Density = 1.851142 g / cm^3
# Si number density = 18.553650 Si / 1000 Ang^3
#
#
#
# Elastic Constant Matrix: (Units=GPa)
#
#
# Indices 1 2 3 4 5 6 
#
# 1 64.2145 11.9424 5.9728 0.0000 0.0000 0.0000
# 2 11.9424 113.5969 49.1068 0.0000 0.0000 0.0000
# 3 5.9728 49.1068 96.6791 0.0000 0.0000 0.0000
# 4 0.0000 0.0000 0.0000 17.1170 0.0000 0.0000
# 5 0.0000 0.0000 0.0000 0.0000 11.5891 0.0000
# 6 0.0000 0.0000 0.0000 0.0000 0.0000 21.6618
#
#
#
# Elastic Compliance Matrix: (Units=1/GPa)
#
#
# Indices 1 2 3 4 5 6 
#
# 1 0.015886 -0.001596 -0.000171 0.000000 0.000000 0.000000
# 2 -0.001596 0.011440 -0.005712 0.000000 0.000000 0.000000
# 3 -0.000171 -0.005712 0.013256 0.000000 0.000000 0.000000
# 4 0.000000 0.000000 0.000000 0.058421 0.000000 0.000000
# 5 0.000000 0.000000 0.000000 0.000000 0.086288 0.000000
# 6 0.000000 0.000000 0.000000 0.000000 0.000000 0.046164
#
#
# Mechanical properties :
#
#
# Convention : Reuss Voigt Hill
#
# Bulk Modulus (GPa) = 39.02754 45.39275 42.21014
# Shear Modulus (GPa) = 19.61136 23.90481 21.75809
#
# Velocity S-wave (km/s) = 3.25469 3.59334 3.42820
# Velocity P-wave (km/s) = 5.93335 6.46026 6.20240
#
# Compressibility (1/GPa) = 0.02562293
#
# Stress axis : x y z
#
# Youngs Moduli (GPa) = 62.95034 87.41072 75.44027
#
# Poissons Ratio (x) = 0.13953 0.01287
# Poissons Ratio (y) = 0.10049 0.43094
# Poissons Ratio (z) = 0.01074 0.49932
#
# Static dielectric constant tensor:
#      x y z
#    x 1.692250 0.000000 0.000000 
#    y 0.000000 1.682610 0.000000 
#    z 0.000000 0.000000 1.643920 
# 
# From -- ./inp_files/19816.got.cif
#   From: 2010.05.17/outbox.cif.g08.bks.cpg/sg69_10_cif.got.tgz:19816.got - 2010.06.03 19:29:58.
