data_PCOD9511653
_publ_section_title
;
Structure prediction by ZEFSAII (Michael W. Deem and Ramdas Pophale) SiO2 
 PCOD9511653
Probable space group: F M M M
;
_chemical_formula_sum "Si O2"
_cell_formula_units_Z 232
_cell_length_a 29.467517
_cell_length_b 18.595073
_cell_length_c 27.501307
_cell_angle_alpha 90.000000
_cell_angle_beta 90.000000
_cell_angle_gamma 90.000000
_cell_volume 15069.358489
_symmetry_space_group_name_H-M "F M M M"
_symmetry_group_IT_number 69
_symmetry_cell_setting 'orthorhombic'
loop_
_space_group_symop_operation_xyz
x,y,z
-x,-y,z
x,-y,-z
-x,y,-z
-x,-y,-z
x,y,-z
-x,y,z
x,-y,z
x,1/2+y,1/2+z
-x,1/2-y,1/2+z
x,1/2-y,1/2-z
-x,1/2+y,1/2-z
-x,1/2-y,1/2-z
x,1/2+y,1/2-z
-x,1/2+y,1/2+z
x,1/2-y,1/2+z
1/2+x,y,1/2+z
1/2-x,-y,1/2+z
1/2+x,-y,1/2-z
1/2-x,y,1/2-z
1/2-x,-y,1/2-z
1/2+x,y,1/2-z
1/2-x,y,1/2+z
1/2+x,-y,1/2+z
1/2+x,1/2+y,z
1/2-x,1/2-y,z
1/2+x,1/2-y,-z
1/2-x,1/2+y,-z
1/2-x,1/2-y,-z
1/2+x,1/2+y,-z
1/2-x,1/2+y,z
1/2+x,1/2-y,z
loop_
_atom_site_type_symbol
_atom_site_label
_atom_site_fract_x
_atom_site_fract_y
_atom_site_fract_z
Si Si1 0.291138 0.801671 0.128089
Si Si2 0.785596 0.920467 0.293622
Si Si3 0.947642 0.161761 0.691368
Si Si4 0.881031 0.417587 0.737898
Si Si5 0.830571 0.418534 0.941958
Si Si6 0.133887 0.771308 0.195049
Si Si7 0.435109 0.083906 0.911355
Si Si8 0.500000 0.622700 0.500000
O O1 0.250000 0.750000 0.115136
O O2 0.275810 0.857184 0.169716
O O3 0.305457 0.853012 0.083995
O O4 0.332422 0.757607 0.153594
O O5 0.750000 0.916450 0.250000
O O6 0.836768 0.914572 0.273030
O O7 0.781420 0.000000 0.315974
O O8 0.923970 0.108827 0.730520
O O9 0.914458 0.230890 0.690337
O O10 0.945398 0.123930 0.638809
O O11 0.000000 0.177757 0.703099
O O12 0.885707 0.500000 0.721537
O O13 0.872433 0.357124 0.697074
O O14 0.813445 0.500000 0.931125
O O15 0.881652 0.414858 0.921612
O O16 0.831018 0.410871 0.000000
O O17 0.150847 0.750000 0.250000
O O18 0.461037 0.117445 0.956998
O O19 0.448450 0.000000 0.908114
#
# Coordination Sequence:
#
# PCOD9511653 Si02
#       8
#    32  32  32  32  32  32  32   8
#     4  12  22  32  54  77 102 137 175 223 264 309
#     4  10  19  32  51  74 100 131 170 218 268 311
#     4  11  21  32  50  71 102 142 173 210 254 315
#     4  10  20  34  49  69 100 138 178 216 252 305
#     4  10  21  38  56  74 104 143 175 211 263 321
#     4  10  20  35  49  73 105 136 176 219 263 309
#     4  11  19  30  48  74 105 135 169 211 258 309
#     4  12  21  28  48  84 108 128 173 222 265 316
#
# _framework density 15.395479999999999
#
# number of rings (size 3 to 8) (size 9 to 14) (size 15 to 20)
#    0.000    1.379    5.517    2.276    0.000    5.793 
#    0.000    0.690    0.000    0.000    0.000    0.000 
#    0.000    0.000    0.000    0.621    0.000    0.000 
#
# Total GULP energy -322988.380086 kJ/mol
# GULP energy per Si atom -5568.765174 kJ/mol
# Density = 1.536044 g / cm^3
# Si number density = 15.395480 Si / 1000 Ang^3
#
#
#
# Elastic Constant Matrix: (Units=GPa)
#
#
# Indices 1 2 3 4 5 6 
#
# 1 81.9797 42.5194 13.0488 0.0000 0.0000 0.0000
# 2 42.5194 119.3945 31.5270 0.0000 0.0000 0.0000
# 3 13.0488 31.5270 48.1523 0.0000 0.0000 0.0000
# 4 0.0000 0.0000 0.0000 13.4008 0.0000 0.0000
# 5 0.0000 0.0000 0.0000 0.0000 22.9292 0.0000
# 6 0.0000 0.0000 0.0000 0.0000 0.0000 6.8331
#
#
#
# Elastic Compliance Matrix: (Units=1/GPa)
#
#
# Indices 1 2 3 4 5 6 
#
# 1 0.014980 -0.005154 -0.000685 0.000000 0.000000 0.000000
# 2 -0.005154 0.011900 -0.006394 0.000000 0.000000 0.000000
# 3 -0.000685 -0.006394 0.025140 0.000000 0.000000 0.000000
# 4 0.000000 0.000000 0.000000 0.074622 0.000000 0.000000
# 5 0.000000 0.000000 0.000000 0.000000 0.043613 0.000000
# 6 0.000000 0.000000 0.000000 0.000000 0.000000 0.146347
#
#
# Mechanical properties :
#
#
# Convention : Reuss Voigt Hill
#
# Bulk Modulus (GPa) = 36.29392 47.07965 41.68679
# Shear Modulus (GPa) = 14.27544 19.46137 16.86841
#
# Velocity S-wave (km/s) = 3.04838 3.55927 3.31369
# Velocity P-wave (km/s) = 6.00131 6.89476 6.46349
#
# Compressibility (1/GPa) = 0.02755282
#
# Stress axis : x y z
#
# Youngs Moduli (GPa) = 66.75412 84.03687 39.77771
#
# Poissons Ratio (x) = 0.43313 0.02725
# Poissons Ratio (y) = 0.34405 0.25435
# Poissons Ratio (z) = 0.04573 0.53736
#
# Static dielectric constant tensor:
#      x y z
#    x 1.527690 0.000000 0.000000 
#    y 0.000000 1.536380 0.000000 
#    z 0.000000 0.000000 1.494100 
# 
# From -- ./inp_files/43687.got.cif
#   From: 2010.05.17/outbox.cif.g08.bks.cpg/sg69_22_cif.got.tgz:43687.got - 2010.06.03 19:29:58.
