data_PCOD9511396
_publ_section_title
;
Structure prediction by ZEFSAII (Michael W. Deem and Ramdas Pophale) SiO2 
 PCOD9511396
Probable space group: F M M M
;
_chemical_formula_sum "Si O2"
_cell_formula_units_Z 160
_cell_length_a 17.124793
_cell_length_b 23.545566
_cell_length_c 20.037628
_cell_angle_alpha 90.000000
_cell_angle_beta 90.000000
_cell_angle_gamma 90.000000
_cell_volume 8079.430973
_symmetry_space_group_name_H-M "F M M M"
_symmetry_group_IT_number 69
_symmetry_cell_setting 'orthorhombic'
loop_
_space_group_symop_operation_xyz
x,y,z
-x,-y,z
x,-y,-z
-x,y,-z
-x,-y,-z
x,y,-z
-x,y,z
x,-y,z
x,1/2+y,1/2+z
-x,1/2-y,1/2+z
x,1/2-y,1/2-z
-x,1/2+y,1/2-z
-x,1/2-y,1/2-z
x,1/2+y,1/2-z
-x,1/2+y,1/2+z
x,1/2-y,1/2+z
1/2+x,y,1/2+z
1/2-x,-y,1/2+z
1/2+x,-y,1/2-z
1/2-x,y,1/2-z
1/2-x,-y,1/2-z
1/2+x,y,1/2-z
1/2-x,y,1/2+z
1/2+x,-y,1/2+z
1/2+x,1/2+y,z
1/2-x,1/2-y,z
1/2+x,1/2-y,-z
1/2-x,1/2+y,-z
1/2-x,1/2-y,-z
1/2+x,1/2+y,-z
1/2-x,1/2+y,z
1/2+x,1/2-y,z
loop_
_atom_site_type_symbol
_atom_site_label
_atom_site_fract_x
_atom_site_fract_y
_atom_site_fract_z
Si Si1 0.861559 0.301614 0.500000
Si Si2 0.584752 0.316828 0.262898
Si Si3 0.621866 0.623960 0.874164
Si Si4 0.325900 0.826995 0.000000
Si Si5 0.189953 0.379387 0.138744
Si Si6 0.635094 0.000000 0.580797
Si Si7 0.786443 0.500000 0.175430
O O1 0.894318 0.332717 0.434590
O O2 0.767681 0.313712 0.500000
O O3 0.869029 0.233722 0.500000
O O4 0.500000 0.328185 0.295000
O O5 0.590149 0.250000 0.250000
O O6 0.588449 0.351937 0.194204
O O7 0.655253 0.335255 0.309415
O O8 0.716025 0.623115 0.863737
O O9 0.598391 0.559821 0.895208
O O10 0.340836 0.863084 0.066060
O O11 0.167698 0.441955 0.164001
O O12 0.641996 0.000000 0.500000
O O13 0.719123 0.000000 0.618266
O O14 0.750000 0.500000 0.250000
#
# Coordination Sequence:
#
# PCOD9511396 Si02
#       7
#    16  32  32  16  32  16  16
#     4   9  16  29  50  82 115 137 182 231 274 338
#     4  11  24  40  56  78 111 153 197 241 289 338
#     4  10  19  34  59  85 116 150 186 234 285 347
#     4   9  18  29  50  84 109 141 180 231 286 322
#     4  10  20  35  57  83 114 143 188 233 281 344
#     4  10  18  32  58  92 125 151 180 235 292 343
#     4  10  20  32  54  87 118 150 186 224 280 338
#
# _framework density 19.803374999999999
#
# number of rings (size 3 to 8) (size 9 to 14) (size 15 to 20)
#    0.000    2.000    1.000    4.200    4.200    3.200 
#    0.000    3.000    0.000    4.200    0.000    1.400 
#    0.000    0.000    0.000    0.000    0.000    0.000 
#
# Total GULP energy -223249.924914 kJ/mol
# GULP energy per Si atom -5581.248123 kJ/mol
# Density = 1.975830 g / cm^3
# Si number density = 19.803375 Si / 1000 Ang^3
#
#
#
# Elastic Constant Matrix: (Units=GPa)
#
#
# Indices 1 2 3 4 5 6 
#
# 1 37.5869 26.6843 17.6164 0.0000 0.0000 0.0000
# 2 26.6843 143.2861 56.2994 0.0000 0.0000 0.0000
# 3 17.6164 56.2994 132.7676 0.0000 0.0000 0.0000
# 4 0.0000 0.0000 0.0000 29.5092 0.0000 0.0000
# 5 0.0000 0.0000 0.0000 0.0000 -17.4425 0.0000
# 6 0.0000 0.0000 0.0000 0.0000 0.0000 95.7940
#
#
#
# Elastic Compliance Matrix: (Units=1/GPa)
#
#
# Indices 1 2 3 4 5 6 
#
# 1 0.031097 -0.005004 -0.002004 0.000000 0.000000 0.000000
# 2 -0.005004 0.009179 -0.003229 0.000000 0.000000 0.000000
# 3 -0.002004 -0.003229 0.009167 0.000000 0.000000 0.000000
# 4 0.000000 0.000000 0.000000 0.033888 0.000000 0.000000
# 5 0.000000 0.000000 0.000000 0.000000 -0.057331 0.000000
# 6 0.000000 0.000000 0.000000 0.000000 0.000000 0.010439
#
#
# Mechanical properties :
#
#
# Convention : Reuss Voigt Hill
#
# Bulk Modulus (GPa) = 34.51848 57.20453 45.86150
# Shear Modulus (GPa) = 75.11076 35.77485 55.44280
#
# Velocity S-wave (km/s) = 6.16527 4.25491 5.29693
# Velocity P-wave (km/s) = 8.25526 7.28615 7.78579
#
# Compressibility (1/GPa) = 0.02896999
#
# Stress axis : x y z
#
# Youngs Moduli (GPa) = 32.15781 108.93912 109.08731
#
# Poissons Ratio (x) = 0.54509 0.21865
# Poissons Ratio (y) = 0.16091 0.35220
# Poissons Ratio (z) = 0.06445 0.35172
#
# Static dielectric constant tensor:
#      x y z
#    x 1.700220 0.000000 0.000000 
#    y 0.000000 1.719080 0.000000 
#    z 0.000000 0.000000 1.686440 
# 
# From -- ./inp_files/30875.got.cif
#   From: 2010.05.17/outbox.cif.g08.bks.cpg/sg69_16_cif.got.tgz:30875.got - 2010.06.03 19:29:58.
