data_PCOD9511716
_publ_section_title
;
Structure prediction by ZEFSAII (Michael W. Deem and Ramdas Pophale) SiO2 
 PCOD9511716
Probable space group: F M M M
;
_chemical_formula_sum "Si O2"
_cell_formula_units_Z 224
_cell_length_a 18.109094
_cell_length_b 30.248221
_cell_length_c 18.762261
_cell_angle_alpha 90.000000
_cell_angle_beta 90.000000
_cell_angle_gamma 90.000000
_cell_volume 10277.363884
_symmetry_space_group_name_H-M "F M M M"
_symmetry_group_IT_number 69
_symmetry_cell_setting 'orthorhombic'
loop_
_space_group_symop_operation_xyz
x,y,z
-x,-y,z
x,-y,-z
-x,y,-z
-x,-y,-z
x,y,-z
-x,y,z
x,-y,z
x,1/2+y,1/2+z
-x,1/2-y,1/2+z
x,1/2-y,1/2-z
-x,1/2+y,1/2-z
-x,1/2-y,1/2-z
x,1/2+y,1/2-z
-x,1/2+y,1/2+z
x,1/2-y,1/2+z
1/2+x,y,1/2+z
1/2-x,-y,1/2+z
1/2+x,-y,1/2-z
1/2-x,y,1/2-z
1/2-x,-y,1/2-z
1/2+x,y,1/2-z
1/2-x,y,1/2+z
1/2+x,-y,1/2+z
1/2+x,1/2+y,z
1/2-x,1/2-y,z
1/2+x,1/2-y,-z
1/2-x,1/2+y,-z
1/2-x,1/2-y,-z
1/2+x,1/2+y,-z
1/2-x,1/2+y,z
1/2+x,1/2-y,z
loop_
_atom_site_type_symbol
_atom_site_label
_atom_site_fract_x
_atom_site_fract_y
_atom_site_fract_z
Si Si1 0.366543 0.280168 0.179753
Si Si2 0.766491 0.337757 0.165953
Si Si3 0.000000 0.617156 0.415484
Si Si4 0.383192 0.452635 0.913229
Si Si5 0.585869 0.549262 0.679775
Si Si6 0.000000 0.223493 0.916797
Si Si7 0.224480 0.426733 0.084862
Si Si8 0.083402 0.352759 0.781503
O O1 0.356275 0.250000 0.250000
O O2 0.287439 0.296825 0.151035
O O3 0.425750 0.261609 0.124234
O O4 0.403772 0.325148 0.210229
O O5 0.750000 0.349589 0.250000
O O6 0.755779 0.377492 0.111799
O O7 0.854784 0.332856 0.166095
O O8 0.070519 0.589566 0.388100
O O9 0.000000 0.609020 0.500000
O O10 0.000000 0.669747 0.411604
O O11 0.416222 0.500000 0.892567
O O12 0.298026 0.451920 0.891163
O O13 0.381961 0.451197 0.000000
O O14 0.500000 0.550656 0.654114
O O15 0.595927 0.500000 0.711824
O O16 0.649374 0.555838 0.620514
O O17 0.594881 0.594417 0.725014
O O18 0.000000 0.235487 0.000000
O O19 0.217234 0.428619 0.000000
O O20 0.000000 0.345559 0.805968
#
# Coordination Sequence:
#
# PCOD9511716 Si02
#       8
#    32  32  16  32  32  16  32  32
#     4  11  22  39  65  95 125 162 212 259 322 394
#     4   9  20  36  58  87 118 160 205 257 316 381
#     4   9  17  29  46  69 104 147 189 238 296 352
#     4   9  16  26  43  68 101 146 196 242 291 351
#     4   9  18  33  55  86 125 167 211 266 320 368
#     4  11  23  38  61  94 126 159 202 260 322 386
#     4  10  19  32  53  83 120 160 205 260 318 374
#     4   9  18  35  60  91 124 159 213 268 316 376
#
# _framework density 21.795473000000001
#
# number of rings (size 3 to 8) (size 9 to 14) (size 15 to 20)
#    0.000    2.429    0.714    1.714    0.000    6.286 
#    0.000    0.714    0.000   50.143    0.000   18.000 
#    0.000    0.000    0.000    0.000    0.000    0.000 
#
# Total GULP energy -312061.184806 kJ/mol
# GULP energy per Si atom -5572.521157 kJ/mol
# Density = 2.174587 g / cm^3
# Si number density = 21.795473 Si / 1000 Ang^3
#
#
#
# Elastic Constant Matrix: (Units=GPa)
#
#
# Indices 1 2 3 4 5 6 
#
# 1 148.3936 43.7587 34.9050 0.0000 0.0000 0.0000
# 2 43.7587 109.9791 18.2572 0.0000 0.0000 0.0000
# 3 34.9050 18.2572 48.0941 0.0000 0.0000 0.0000
# 4 0.0000 0.0000 0.0000 18.1754 0.0000 0.0000
# 5 0.0000 0.0000 0.0000 0.0000 15.0402 0.0000
# 6 0.0000 0.0000 0.0000 0.0000 0.0000 21.7486
#
#
#
# Elastic Compliance Matrix: (Units=1/GPa)
#
#
# Indices 1 2 3 4 5 6 
#
# 1 0.008770 -0.002596 -0.005379 0.000000 0.000000 0.000000
# 2 -0.002596 0.010473 -0.002091 0.000000 0.000000 0.000000
# 3 -0.005379 -0.002091 0.025490 0.000000 0.000000 0.000000
# 4 0.000000 0.000000 0.000000 0.055019 0.000000 0.000000
# 5 0.000000 0.000000 0.000000 0.000000 0.066488 0.000000
# 6 0.000000 0.000000 0.000000 0.000000 0.000000 0.045980
#
#
# Mechanical properties :
#
#
# Convention : Reuss Voigt Hill
#
# Bulk Modulus (GPa) = 40.65137 55.58987 48.12062
# Shear Modulus (GPa) = 20.78535 24.96259 22.87397
#
# Velocity S-wave (km/s) = 3.09148 3.38792 3.24309
# Velocity P-wave (km/s) = 5.60667 6.39254 6.01246
#
# Compressibility (1/GPa) = 0.02459941
#
# Stress axis : x y z
#
# Youngs Moduli (GPa) = 114.02858 95.48503 39.23040
#
# Poissons Ratio (x) = 0.24791 0.21103
# Poissons Ratio (y) = 0.29606 0.08204
# Poissons Ratio (z) = 0.61338 0.19969
#
# Static dielectric constant tensor:
#      x y z
#    x 1.850350 0.000000 0.000000 
#    y 0.000000 1.861760 0.000000 
#    z 0.000000 0.000000 1.757390 
# 
# From -- ./inp_files/31242.got.cif
#   From: 2010.05.17/outbox.cif.g08.bks.cpg/sg69_16_cif.got.tgz:31242.got - 2010.06.03 19:29:58.
