data_PCOD9511474
_publ_section_title
;
Structure prediction by ZEFSAII (Michael W. Deem and Ramdas Pophale) SiO2 
 PCOD9511474
Probable space group: F M M M
;
_chemical_formula_sum "Si O2"
_cell_formula_units_Z 208
_cell_length_a 28.689513
_cell_length_b 27.264627
_cell_length_c 17.788441
_cell_angle_alpha 90.000000
_cell_angle_beta 90.000000
_cell_angle_gamma 90.000000
_cell_volume 13914.276347
_symmetry_space_group_name_H-M "F M M M"
_symmetry_group_IT_number 69
_symmetry_cell_setting 'orthorhombic'
loop_
_space_group_symop_operation_xyz
x,y,z
-x,-y,z
x,-y,-z
-x,y,-z
-x,-y,-z
x,y,-z
-x,y,z
x,-y,z
x,1/2+y,1/2+z
-x,1/2-y,1/2+z
x,1/2-y,1/2-z
-x,1/2+y,1/2-z
-x,1/2-y,1/2-z
x,1/2+y,1/2-z
-x,1/2+y,1/2+z
x,1/2-y,1/2+z
1/2+x,y,1/2+z
1/2-x,-y,1/2+z
1/2+x,-y,1/2-z
1/2-x,y,1/2-z
1/2-x,-y,1/2-z
1/2+x,y,1/2-z
1/2-x,y,1/2+z
1/2+x,-y,1/2+z
1/2+x,1/2+y,z
1/2-x,1/2-y,z
1/2+x,1/2-y,-z
1/2-x,1/2+y,-z
1/2-x,1/2-y,-z
1/2+x,1/2+y,-z
1/2-x,1/2+y,z
1/2+x,1/2-y,z
loop_
_atom_site_type_symbol
_atom_site_label
_atom_site_fract_x
_atom_site_fract_y
_atom_site_fract_z
Si Si1 0.000000 0.559369 0.586970
Si Si2 0.646192 0.649491 0.155906
Si Si3 0.948236 0.689244 0.413038
Si Si4 0.604710 0.442232 0.909072
Si Si5 0.946842 0.692172 0.914565
Si Si6 0.304583 0.738573 0.086288
Si Si7 0.869697 0.797489 0.699604
O O1 0.051643 0.572113 0.616351
O O2 0.000000 0.500000 0.586843
O O3 0.000000 0.575010 0.500000
O O4 0.595280 0.670666 0.133144
O O5 0.641693 0.593353 0.130777
O O6 0.682768 0.683108 0.110719
O O7 0.651766 0.663127 0.243126
O O8 0.942488 0.674097 0.500000
O O9 0.947364 0.748332 0.413053
O O10 0.000000 0.673778 0.387444
O O11 0.611439 0.500000 0.893797
O O12 0.606859 0.436067 0.000000
O O13 0.911244 0.679223 0.848861
O O14 0.000000 0.675747 0.901368
O O15 0.933342 0.677816 0.000000
O O16 0.250000 0.750000 0.091930
O O17 0.332969 0.774296 0.141352
O O18 0.319901 0.745523 0.000000
O O19 0.885010 0.750000 0.750000
#
# Coordination Sequence:
#
# PCOD9511474 Si02
#       7
#    16  32  32  32  32  32  32
#     4   7  12  24  40  58  81 114 155 193 224 251
#     4  11  20  28  42  67  92 118 147 184 228 270
#     4   9  16  24  37  57  82 118 156 183 208 247
#     4   9  17  29  44  62  88 123 161 194 222 260
#     4   9  16  27  40  53  79 119 155 184 211 247
#     4  10  20  34  50  65  84 114 150 186 221 269
#     4  10  19  28  40  61  88 115 142 178 222 264
#
# _framework density 14.948675
#
# number of rings (size 3 to 8) (size 9 to 14) (size 15 to 20)
#    0.000    2.538    3.077    3.692    1.077    3.692 
#    0.000    0.000    0.000    0.000    0.000    2.154 
#    0.000    3.692    0.000    1.692    0.000    0.000 
#
# Total GULP energy -289575.009457 kJ/mol
# GULP energy per Si atom -5568.750182 kJ/mol
# Density = 1.491465 g / cm^3
# Si number density = 14.948675 Si / 1000 Ang^3
#
#
#
# Elastic Constant Matrix: (Units=GPa)
#
#
# Indices 1 2 3 4 5 6 
#
# 1 47.8468 21.1601 30.4406 0.0000 0.0000 0.0000
# 2 21.1601 71.1307 24.2871 0.0000 0.0000 0.0000
# 3 30.4406 24.2871 83.1026 0.0000 0.0000 0.0000
# 4 0.0000 0.0000 0.0000 13.9168 0.0000 0.0000
# 5 0.0000 0.0000 0.0000 0.0000 -11.4445 0.0000
# 6 0.0000 0.0000 0.0000 0.0000 0.0000 17.7919
#
#
#
# Elastic Compliance Matrix: (Units=1/GPa)
#
#
# Indices 1 2 3 4 5 6 
#
# 1 0.029114 -0.005576 -0.009035 0.000000 0.000000 0.000000
# 2 -0.005576 0.016685 -0.002834 0.000000 0.000000 0.000000
# 3 -0.009035 -0.002834 0.016171 0.000000 0.000000 0.000000
# 4 0.000000 0.000000 0.000000 0.071856 0.000000 0.000000
# 5 0.000000 0.000000 0.000000 0.000000 -0.087378 0.000000
# 6 0.000000 0.000000 0.000000 0.000000 0.000000 0.056205
#
#
# Mechanical properties :
#
#
# Convention : Reuss Voigt Hill
#
# Bulk Modulus (GPa) = 36.92664 39.31727 38.12196
# Shear Modulus (GPa) = 34.11366 12.46567 23.28967
#
# Velocity S-wave (km/s) = 4.78227 2.89086 3.95140
# Velocity P-wave (km/s) = 7.43299 6.12384 6.80995
#
# Compressibility (1/GPa) = 0.02708072
#
# Stress axis : x y z
#
# Youngs Moduli (GPa) = 34.34758 59.93427 61.83907
#
# Poissons Ratio (x) = 0.33419 0.55871
# Poissons Ratio (y) = 0.19152 0.17524
# Poissons Ratio (z) = 0.31033 0.16984
#
# Static dielectric constant tensor:
#      x y z
#    x 1.515510 0.000000 0.000000 
#    y 0.000000 1.521350 0.000000 
#    z 0.000000 0.000000 1.521240 
# 
# From -- ./inp_files/28057.got.cif
#   From: 2010.05.17/outbox.cif.g08.bks.cpg/sg69_15_cif.got.tgz:28057.got - 2010.06.03 19:29:58.
