data_PCOD9511773
_publ_section_title
;
Structure prediction by ZEFSAII (Michael W. Deem and Ramdas Pophale) SiO2 
 PCOD9511773
Probable space group: F M M M
;
_chemical_formula_sum "Si O2"
_cell_formula_units_Z 160
_cell_length_a 24.078543
_cell_length_b 22.406578
_cell_length_c 14.722452
_cell_angle_alpha 90.000000
_cell_angle_beta 90.000000
_cell_angle_gamma 90.000000
_cell_volume 7943.024205
_symmetry_space_group_name_H-M "F M M M"
_symmetry_group_IT_number 69
_symmetry_cell_setting 'orthorhombic'
loop_
_space_group_symop_operation_xyz
x,y,z
-x,-y,z
x,-y,-z
-x,y,-z
-x,-y,-z
x,y,-z
-x,y,z
x,-y,z
x,1/2+y,1/2+z
-x,1/2-y,1/2+z
x,1/2-y,1/2-z
-x,1/2+y,1/2-z
-x,1/2-y,1/2-z
x,1/2+y,1/2-z
-x,1/2+y,1/2+z
x,1/2-y,1/2+z
1/2+x,y,1/2+z
1/2-x,-y,1/2+z
1/2+x,-y,1/2-z
1/2-x,y,1/2-z
1/2-x,-y,1/2-z
1/2+x,y,1/2-z
1/2-x,y,1/2+z
1/2+x,-y,1/2+z
1/2+x,1/2+y,z
1/2-x,1/2-y,z
1/2+x,1/2-y,-z
1/2-x,1/2+y,-z
1/2-x,1/2-y,-z
1/2+x,1/2+y,-z
1/2-x,1/2+y,z
1/2+x,1/2-y,z
loop_
_atom_site_type_symbol
_atom_site_label
_atom_site_fract_x
_atom_site_fract_y
_atom_site_fract_z
Si Si1 0.809820 0.280945 0.601654
Si Si2 0.500000 0.217902 0.847199
Si Si3 0.314020 0.890687 0.736225
Si Si4 0.096442 0.565859 0.607168
Si Si5 0.500000 0.851049 0.602412
Si Si6 0.116547 0.663972 0.105652
O O1 0.816143 0.307764 0.500000
O O2 0.750000 0.250000 0.605111
O O3 0.813282 0.328088 0.681404
O O4 0.854550 0.228967 0.611156
O O5 0.500000 0.250000 0.750000
O O6 0.500000 0.279862 0.903577
O O7 0.446221 0.177443 0.863891
O O8 0.250000 0.908707 0.750000
O O9 0.349191 0.931855 0.669030
O O10 0.347967 0.879047 0.829065
O O11 0.109425 0.574205 0.500000
O O12 0.070238 0.500000 0.615876
O O13 0.055633 0.618846 0.641194
O O14 0.500000 0.875314 0.500000
O O15 0.118148 0.645174 0.000000
#
# Coordination Sequence:
#
# PCOD9511773 Si02
#       6
#    32  16  32  32  16  32
#     4  10  19  33  53  79 112 148 188 230 271 325
#     4  12  22  35  57  85 120 157 190 231 279 334
#     4  12  23  35  57  81 115 155 198 231 273 337
#     4  10  22  40  62  86 109 137 183 246 305 346
#     4  10  19  36  60  84 111 141 175 223 287 349
#     4  11  23  36  52  81 121 159 192 229 277 336
#
# _framework density 20.143460000000001
#
# number of rings (size 3 to 8) (size 9 to 14) (size 15 to 20)
#    0.000    1.200    2.000    6.000    0.000    5.600 
#    0.000    0.000    0.000    0.600    0.000    0.000 
#    0.000    4.800    0.000    0.000    0.000    0.000 
#
# Total GULP energy -223353.319065 kJ/mol
# GULP energy per Si atom -5583.832977 kJ/mol
# Density = 2.009761 g / cm^3
# Si number density = 20.143460 Si / 1000 Ang^3
#
#
#
# Elastic Constant Matrix: (Units=GPa)
#
#
# Indices 1 2 3 4 5 6 
#
# 1 159.4221 18.3632 44.5856 0.0000 0.0000 0.0000
# 2 18.3632 41.8574 13.7613 0.0000 0.0000 0.0000
# 3 44.5856 13.7613 125.1095 0.0000 0.0000 0.0000
# 4 0.0000 0.0000 0.0000 -333.5984 0.0000 0.0000
# 5 0.0000 0.0000 0.0000 0.0000 30.4366 0.0000
# 6 0.0000 0.0000 0.0000 0.0000 0.0000 9.3858
#
#
#
# Elastic Compliance Matrix: (Units=1/GPa)
#
#
# Indices 1 2 3 4 5 6 
#
# 1 0.007192 -0.002399 -0.002299 0.000000 0.000000 0.000000
# 2 -0.002399 0.025587 -0.001959 0.000000 0.000000 0.000000
# 3 -0.002299 -0.001959 0.009028 0.000000 0.000000 0.000000
# 4 0.000000 0.000000 0.000000 -0.002998 0.000000 0.000000
# 5 0.000000 0.000000 0.000000 0.000000 0.032855 0.000000
# 6 0.000000 0.000000 0.000000 0.000000 0.000000 0.106543
#
#
# Mechanical properties :
#
#
# Convention : Reuss Voigt Hill
#
# Bulk Modulus (GPa) = 35.09808 53.31214 44.20511
# Shear Modulus (GPa) = 24.87299 -42.10994 -8.61847
#
# Velocity S-wave (km/s) = 3.51777 -4.57716 -2.07071
# Velocity P-wave (km/s) = 5.82765 1.18751 4.03431
#
# Compressibility (1/GPa) = 0.02849159
#
# Stress axis : x y z
#
# Youngs Moduli (GPa) = 139.04294 39.08168 110.76815
#
# Poissons Ratio (x) = 0.09377 0.25467
# Poissons Ratio (y) = 0.33361 0.21704
# Poissons Ratio (z) = 0.31968 0.07658
#
# Static dielectric constant tensor:
#      x y z
#    x 1.755760 0.000000 0.000000 
#    y 0.000000 1.701670 0.000000 
#    z 0.000000 0.000000 2.158910 
# 
# From -- ./inp_files/17755.got.cif
#   From: 2010.05.17/outbox.cif.g08.bks.cpg/sg69_9_cif.got.tgz:17755.got - 2010.06.03 19:29:58.
