data_PCOD9511142
_publ_section_title
;
Structure prediction by ZEFSAII (Michael W. Deem and Ramdas Pophale) SiO2 
 PCOD9511142
Probable space group: F M M M
;
_chemical_formula_sum "Si O2"
_cell_formula_units_Z 160
_cell_length_a 21.444174
_cell_length_b 14.921156
_cell_length_c 26.018315
_cell_angle_alpha 90.000000
_cell_angle_beta 90.000000
_cell_angle_gamma 90.000000
_cell_volume 8325.128789
_symmetry_space_group_name_H-M "F M M M"
_symmetry_group_IT_number 69
_symmetry_cell_setting 'orthorhombic'
loop_
_space_group_symop_operation_xyz
x,y,z
-x,-y,z
x,-y,-z
-x,y,-z
-x,-y,-z
x,y,-z
-x,y,z
x,-y,z
x,1/2+y,1/2+z
-x,1/2-y,1/2+z
x,1/2-y,1/2-z
-x,1/2+y,1/2-z
-x,1/2-y,1/2-z
x,1/2+y,1/2-z
-x,1/2+y,1/2+z
x,1/2-y,1/2+z
1/2+x,y,1/2+z
1/2-x,-y,1/2+z
1/2+x,-y,1/2-z
1/2-x,y,1/2-z
1/2-x,-y,1/2-z
1/2+x,y,1/2-z
1/2-x,y,1/2+z
1/2+x,-y,1/2+z
1/2+x,1/2+y,z
1/2-x,1/2-y,z
1/2+x,1/2-y,-z
1/2-x,1/2+y,-z
1/2-x,1/2-y,-z
1/2+x,1/2+y,-z
1/2-x,1/2+y,z
1/2+x,1/2-y,z
loop_
_atom_site_type_symbol
_atom_site_label
_atom_site_fract_x
_atom_site_fract_y
_atom_site_fract_z
Si Si1 0.391814 0.895121 0.611883
Si Si2 0.931372 0.389998 0.723315
Si Si3 0.245194 0.357012 0.111131
Si Si4 0.748410 0.141454 0.000000
Si Si5 0.895258 0.104389 0.000000
Si Si6 0.309649 0.893907 0.219181
O O1 0.420099 0.858730 0.664568
O O2 0.316503 0.890420 0.617288
O O3 0.411860 0.856009 0.556139
O O4 0.408735 0.000000 0.609672
O O5 0.929991 0.500000 0.722134
O O6 0.874700 0.358602 0.758998
O O7 0.000000 0.363564 0.741165
O O8 0.250000 0.250000 0.110964
O O9 0.203258 0.383102 0.159087
O O10 0.221193 0.386687 0.054913
O O11 0.750000 0.250000 0.000000
O O12 0.819828 0.108059 0.000000
O O13 0.914753 0.000000 0.000000
O O14 0.250000 0.856333 0.250000
O O15 0.310780 0.000000 0.230057
#
# Coordination Sequence:
#
# PCOD9511142 Si02
#       6
#    32  32  32  16  16  32
#     4   9  15  27  43  62  88 117 149 182 222 265
#     4   9  17  29  45  63  87 120 152 181 220 269
#     4  10  18  28  45  68  92 117 147 183 224 266
#     4   8  16  28  40  61  92 118 140 176 224 268
#     4   8  14  22  39  62  84 112 145 183 217 258
#     4  10  18  30  47  67  90 118 152 185 218 259
#
# _framework density 19.218921000000002
#
# number of rings (size 3 to 8) (size 9 to 14) (size 15 to 20)
#    0.000    2.800    2.000    0.600    0.000    1.200 
#    0.000    0.500    0.000    5.400    0.000    0.700 
#    0.000    8.000    0.000    0.000    0.000    0.000 
#
# Total GULP energy -222793.636579 kJ/mol
# GULP energy per Si atom -5569.840914 kJ/mol
# Density = 1.917518 g / cm^3
# Si number density = 19.218921 Si / 1000 Ang^3
#
#
#
# Elastic Constant Matrix: (Units=GPa)
#
#
# Indices 1 2 3 4 5 6 
#
# 1 109.2504 3.3136 83.7749 0.0000 0.0000 0.0000
# 2 3.3136 33.1579 -12.9108 0.0000 0.0000 0.0000
# 3 83.7749 -12.9108 143.2417 0.0000 0.0000 0.0000
# 4 0.0000 0.0000 0.0000 16.9544 0.0000 0.0000
# 5 0.0000 0.0000 0.0000 0.0000 13.8591 0.0000
# 6 0.0000 0.0000 0.0000 0.0000 0.0000 -29.9713
#
#
#
# Elastic Compliance Matrix: (Units=1/GPa)
#
#
# Indices 1 2 3 4 5 6 
#
# 1 0.017679 -0.006003 -0.010880 0.000000 0.000000 0.000000
# 2 -0.006003 0.033294 0.006512 0.000000 0.000000 0.000000
# 3 -0.010880 0.006512 0.013932 0.000000 0.000000 0.000000
# 4 0.000000 0.000000 0.000000 0.058982 0.000000 0.000000
# 5 0.000000 0.000000 0.000000 0.000000 0.072155 0.000000
# 6 0.000000 0.000000 0.000000 0.000000 0.000000 -0.033365
#
#
# Mechanical properties :
#
#
# Convention : Reuss Voigt Hill
#
# Bulk Modulus (GPa) = 22.64450 48.22281 35.43366
# Shear Modulus (GPa) = 25.23469 14.26658 19.75063
#
# Velocity S-wave (km/s) = 3.62748 2.72751 3.20920
# Velocity P-wave (km/s) = 5.41782 5.92156 5.67528
#
# Compressibility (1/GPa) = 0.04416084
#
# Stress axis : x y z
#
# Youngs Moduli (GPa) = 56.56529 30.03528 71.77926
#
# Poissons Ratio (x) = 0.18031 0.78099
# Poissons Ratio (y) = 0.33958 -0.46742
# Poissons Ratio (z) = 0.61546 -0.19559
#
# Static dielectric constant tensor:
#      x y z
#    x 1.666120 0.000000 0.000000 
#    y 0.000000 1.661850 0.000000 
#    z 0.000000 0.000000 1.744310 
# 
# From -- ./inp_files/24902.got.cif
#   From: 2010.05.17/outbox.cif.g08.bks.cpg/sg69_13_cif.got.tgz:24902.got - 2010.06.03 19:29:58.
