data_PCOD9511430
_publ_section_title
;
Structure prediction by ZEFSAII (Michael W. Deem and Ramdas Pophale) SiO2 
 PCOD9511430
Probable space group: F M M M
;
_chemical_formula_sum "Si O2"
_cell_formula_units_Z 176
_cell_length_a 27.958364
_cell_length_b 19.006383
_cell_length_c 14.270431
_cell_angle_alpha 90.000000
_cell_angle_beta 90.000000
_cell_angle_gamma 90.000000
_cell_volume 7583.126858
_symmetry_space_group_name_H-M "F M M M"
_symmetry_group_IT_number 69
_symmetry_cell_setting 'orthorhombic'
loop_
_space_group_symop_operation_xyz
x,y,z
-x,-y,z
x,-y,-z
-x,y,-z
-x,-y,-z
x,y,-z
-x,y,z
x,-y,z
x,1/2+y,1/2+z
-x,1/2-y,1/2+z
x,1/2-y,1/2-z
-x,1/2+y,1/2-z
-x,1/2-y,1/2-z
x,1/2+y,1/2-z
-x,1/2+y,1/2+z
x,1/2-y,1/2+z
1/2+x,y,1/2+z
1/2-x,-y,1/2+z
1/2+x,-y,1/2-z
1/2-x,y,1/2-z
1/2-x,-y,1/2-z
1/2+x,y,1/2-z
1/2-x,y,1/2+z
1/2+x,-y,1/2+z
1/2+x,1/2+y,z
1/2-x,1/2-y,z
1/2+x,1/2-y,-z
1/2-x,1/2+y,-z
1/2-x,1/2-y,-z
1/2+x,1/2+y,-z
1/2-x,1/2+y,z
1/2+x,1/2-y,z
loop_
_atom_site_type_symbol
_atom_site_label
_atom_site_fract_x
_atom_site_fract_y
_atom_site_fract_z
Si Si1 0.157936 0.217938 0.106490
Si Si2 0.443944 0.579772 0.500000
Si Si3 0.290815 0.921460 0.386407
Si Si4 0.446659 0.694177 0.165703
Si Si5 0.817289 0.874372 0.614294
Si Si6 0.087449 0.419874 0.805136
O O1 0.178693 0.145531 0.147571
O O2 0.100463 0.214438 0.108017
O O3 0.175921 0.292699 0.144449
O O4 0.175725 0.219216 0.000000
O O5 0.422035 0.500000 0.500000
O O6 0.500000 0.572141 0.500000
O O7 0.431225 0.615072 0.402202
O O8 0.296714 0.924231 0.500000
O O9 0.235480 0.903248 0.368510
O O10 0.303061 0.000000 0.351845
O O11 0.500000 0.691201 0.122876
O O12 0.448484 0.750000 0.250000
O O13 0.432536 0.621368 0.216844
O O14 0.826212 0.879801 0.500000
O O15 0.856436 0.916746 0.672841
O O16 0.070541 0.500000 0.800652
#
# Coordination Sequence:
#
# PCOD9511430 Si02
#       6
#    32  16  32  32  32  32
#     4  10  21  39  63  89 118 159 206 248 294 354
#     4   9  18  32  52  84 121 152 189 239 295 358
#     4   9  18  33  58  91 124 157 197 246 295 347
#     4  11  24  42  60  82 118 160 201 249 304 355
#     4  10  18  33  59  92 124 157 194 239 298 364
#     4  11  21  35  58  88 120 157 198 244 301 362
#
# _framework density 23.209422
#
# number of rings (size 3 to 8) (size 9 to 14) (size 15 to 20)
#    0.000    1.909    2.727    1.636    0.000    5.091 
#    0.000    0.909    0.000    2.182    0.000    3.818 
#    0.000    0.000    0.000    0.000    0.000    0.000 
#
# Total GULP energy -245776.370112 kJ/mol
# GULP energy per Si atom -5585.826593 kJ/mol
# Density = 2.315660 g / cm^3
# Si number density = 23.209422 Si / 1000 Ang^3
#
#
#
# Elastic Constant Matrix: (Units=GPa)
#
#
# Indices 1 2 3 4 5 6 
#
# 1 77.7717 16.5308 -7.2741 0.0000 0.0000 0.0000
# 2 16.5308 136.4724 12.3535 0.0000 0.0000 0.0000
# 3 -7.2741 12.3535 49.4675 0.0000 0.0000 0.0000
# 4 0.0000 0.0000 0.0000 1268.8196 0.0000 0.0000
# 5 0.0000 0.0000 0.0000 0.0000 26.2482 0.0000
# 6 0.0000 0.0000 0.0000 0.0000 0.0000 22.8507
#
#
#
# Elastic Compliance Matrix: (Units=1/GPa)
#
#
# Indices 1 2 3 4 5 6 
#
# 1 0.013481 -0.001854 0.002445 0.000000 0.000000 0.000000
# 2 -0.001854 0.007752 -0.002209 0.000000 0.000000 0.000000
# 3 0.002445 -0.002209 0.021126 0.000000 0.000000 0.000000
# 4 0.000000 0.000000 0.000000 0.000788 0.000000 0.000000
# 5 0.000000 0.000000 0.000000 0.000000 0.038098 0.000000
# 6 0.000000 0.000000 0.000000 0.000000 0.000000 0.043762
#
#
# Mechanical properties :
#
#
# Convention : Reuss Voigt Hill
#
# Bulk Modulus (GPa) = 25.55938 34.10356 29.83147
# Shear Modulus (GPa) = 35.38967 279.72379 157.55673
#
# Velocity S-wave (km/s) = 3.90910 10.99015 8.24816
# Velocity P-wave (km/s) = 5.60457 13.25783 10.17795
#
# Compressibility (1/GPa) = 0.03912458
#
# Stress axis : x y z
#
# Youngs Moduli (GPa) = 74.17835 128.99858 47.33401
#
# Poissons Ratio (x) = 0.23920 -0.11575
# Poissons Ratio (y) = 0.13755 0.10454
# Poissons Ratio (z) = -0.18140 0.28491
#
# Static dielectric constant tensor:
#      x y z
#    x 1.871410 0.000000 0.000000 
#    y 0.000000 1.894560 0.000000 
#    z 0.000000 0.000000 1.923110 
# 
# From -- ./inp_files/23524.got.cif
#   From: 2010.05.17/outbox.cif.g08.bks.cpg/sg69_12_cif.got.tgz:23524.got - 2010.06.03 19:29:58.
