data_PCOD9511489
_publ_section_title
;
Structure prediction by ZEFSAII (Michael W. Deem and Ramdas Pophale) SiO2 
 PCOD9511489
Probable space group: F M M M
;
_chemical_formula_sum "Si O2"
_cell_formula_units_Z 160
_cell_length_a 18.246307
_cell_length_b 20.353207
_cell_length_c 19.526942
_cell_angle_alpha 90.000000
_cell_angle_beta 90.000000
_cell_angle_gamma 90.000000
_cell_volume 7251.737309
_symmetry_space_group_name_H-M "F M M M"
_symmetry_group_IT_number 69
_symmetry_cell_setting 'orthorhombic'
loop_
_space_group_symop_operation_xyz
x,y,z
-x,-y,z
x,-y,-z
-x,y,-z
-x,-y,-z
x,y,-z
-x,y,z
x,-y,z
x,1/2+y,1/2+z
-x,1/2-y,1/2+z
x,1/2-y,1/2-z
-x,1/2+y,1/2-z
-x,1/2-y,1/2-z
x,1/2+y,1/2-z
-x,1/2+y,1/2+z
x,1/2-y,1/2+z
1/2+x,y,1/2+z
1/2-x,-y,1/2+z
1/2+x,-y,1/2-z
1/2-x,y,1/2-z
1/2-x,-y,1/2-z
1/2+x,y,1/2-z
1/2-x,y,1/2+z
1/2+x,-y,1/2+z
1/2+x,1/2+y,z
1/2-x,1/2-y,z
1/2+x,1/2-y,-z
1/2-x,1/2+y,-z
1/2-x,1/2-y,-z
1/2+x,1/2+y,-z
1/2-x,1/2+y,z
1/2+x,1/2-y,z
loop_
_atom_site_type_symbol
_atom_site_label
_atom_site_fract_x
_atom_site_fract_y
_atom_site_fract_z
Si Si1 0.000000 0.078651 0.617624
Si Si2 0.875469 0.752169 0.422216
Si Si3 0.500000 0.707824 0.318019
Si Si4 0.631373 0.000000 0.684804
Si Si5 0.586843 0.389749 0.921935
Si Si6 0.338027 0.889876 0.074474
Si Si7 0.193670 0.500000 0.181711
O O1 0.000000 0.128110 0.683664
O O2 0.926393 0.099930 0.577426
O O3 0.000000 0.000000 0.625079
O O4 0.906293 0.758070 0.500000
O O5 0.930973 0.770077 0.362475
O O6 0.862793 0.674798 0.415074
O O7 0.819019 0.812651 0.418493
O O8 0.500000 0.750000 0.250000
O O9 0.604396 0.939007 0.639624
O O10 0.718898 0.000000 0.694195
O O11 0.622201 0.000000 0.767047
O O12 0.500000 0.371627 0.917609
O O13 0.597231 0.416302 0.000000
O O14 0.312922 0.934725 0.135966
O O15 0.311274 0.912556 0.000000
#
# Coordination Sequence:
#
# PCOD9511489 Si02
#       7
#    16  32  16  16  32  32  16
#     4  10  19  32  51  85 124 150 185 244 297 344
#     4   9  18  35  57  85 120 153 184 239 308 360
#     4  10  19  29  48  78 119 163 194 226 284 366
#     4  11  26  44  60  81 121 165 203 255 309 357
#     4  10  20  39  68  96 120 151 199 259 317 364
#     4  10  20  36  60  87 119 158 198 240 289 359
#     4  11  25  44  58  80 123 169 205 245 300 361
#
# _framework density 22.063679
#
# number of rings (size 3 to 8) (size 9 to 14) (size 15 to 20)
#    0.000    2.000    2.000    1.500    0.000    8.400 
#    3.600    1.000    0.000    6.000    0.000    0.000 
#    0.000    0.000    0.000    0.000    0.000    0.000 
#
# Total GULP energy -222669.168923 kJ/mol
# GULP energy per Si atom -5566.729223 kJ/mol
# Density = 2.201346 g / cm^3
# Si number density = 22.063679 Si / 1000 Ang^3
#
#
#
# Elastic Constant Matrix: (Units=GPa)
#
#
# Indices 1 2 3 4 5 6 
#
# 1 37.7577 -14.6515 -19.8126 0.0000 0.0000 0.0000
# 2 -14.6515 165.0428 46.0703 0.0000 0.0000 0.0000
# 3 -19.8126 46.0703 67.4440 0.0000 0.0000 0.0000
# 4 0.0000 0.0000 0.0000 62.6563 0.0000 0.0000
# 5 0.0000 0.0000 0.0000 0.0000 85.6425 0.0000
# 6 0.0000 0.0000 0.0000 0.0000 0.0000 -6.4920
#
#
#
# Elastic Compliance Matrix: (Units=1/GPa)
#
#
# Indices 1 2 3 4 5 6 
#
# 1 0.031320 0.000262 0.009022 0.000000 0.000000 0.000000
# 2 0.000262 0.007489 -0.005039 0.000000 0.000000 0.000000
# 3 0.009022 -0.005039 0.020919 0.000000 0.000000 0.000000
# 4 0.000000 0.000000 0.000000 0.015960 0.000000 0.000000
# 5 0.000000 0.000000 0.000000 0.000000 0.011676 0.000000
# 6 0.000000 0.000000 0.000000 0.000000 0.000000 -0.154035
#
#
# Mechanical properties :
#
#
# Convention : Reuss Voigt Hill
#
# Bulk Modulus (GPa) = 14.65868 32.60631 23.63249
# Shear Modulus (GPa) = -95.38044 45.60391 -24.88827
#
# Velocity S-wave (km/s) = -6.58206 4.55127 -3.36224
# Velocity P-wave (km/s) = 7.14887 6.51377 2.08294
#
# Compressibility (1/GPa) = 0.06821898
#
# Stress axis : x y z
#
# Youngs Moduli (GPa) = 31.92810 133.53348 47.80309
#
# Poissons Ratio (x) = -0.03500 -0.43127
# Poissons Ratio (y) = -0.00837 0.24086
# Poissons Ratio (z) = -0.28805 0.67281
#
# Static dielectric constant tensor:
#      x y z
#    x 1.773760 0.000000 0.000000 
#    y 0.000000 1.852130 0.000000 
#    z 0.000000 0.000000 0.859760 
# 
# From -- ./inp_files/24682.got.cif
#   From: 2010.05.17/outbox.cif.g08.bks.cpg/sg69_13_cif.got.tgz:24682.got - 2010.06.03 19:29:58.
