data_PCOD9511616
_publ_section_title
;
Structure prediction by ZEFSAII (Michael W. Deem and Ramdas Pophale) SiO2 
 PCOD9511616
Probable space group: F M M M
;
_chemical_formula_sum "Si O2"
_cell_formula_units_Z 224
_cell_length_a 18.545981
_cell_length_b 30.900256
_cell_length_c 22.226439
_cell_angle_alpha 90.000000
_cell_angle_beta 90.000000
_cell_angle_gamma 90.000000
_cell_volume 12737.428992
_symmetry_space_group_name_H-M "F M M M"
_symmetry_group_IT_number 69
_symmetry_cell_setting 'orthorhombic'
loop_
_space_group_symop_operation_xyz
x,y,z
-x,-y,z
x,-y,-z
-x,y,-z
-x,-y,-z
x,y,-z
-x,y,z
x,-y,z
x,1/2+y,1/2+z
-x,1/2-y,1/2+z
x,1/2-y,1/2-z
-x,1/2+y,1/2-z
-x,1/2-y,1/2-z
x,1/2+y,1/2-z
-x,1/2+y,1/2+z
x,1/2-y,1/2+z
1/2+x,y,1/2+z
1/2-x,-y,1/2+z
1/2+x,-y,1/2-z
1/2-x,y,1/2-z
1/2-x,-y,1/2-z
1/2+x,y,1/2-z
1/2-x,y,1/2+z
1/2+x,-y,1/2+z
1/2+x,1/2+y,z
1/2-x,1/2-y,z
1/2+x,1/2-y,-z
1/2-x,1/2+y,-z
1/2-x,1/2-y,-z
1/2+x,1/2+y,-z
1/2-x,1/2+y,z
1/2+x,1/2-y,z
loop_
_atom_site_type_symbol
_atom_site_label
_atom_site_fract_x
_atom_site_fract_y
_atom_site_fract_z
Si Si1 0.417127 0.889565 0.767473
Si Si2 0.680489 0.953063 0.291399
Si Si3 0.915315 0.384200 0.000000
Si Si4 0.707061 0.889827 0.600611
Si Si5 0.851711 0.657600 0.119225
Si Si6 0.084362 0.163704 0.857848
Si Si7 0.162879 0.749286 0.821763
Si Si8 0.780082 0.052474 0.500000
O O1 0.500000 0.891748 0.785180
O O2 0.386279 0.935610 0.746994
O O3 0.372685 0.871920 0.823728
O O4 0.411571 0.858449 0.708828
O O5 0.750000 0.956470 0.250000
O O6 0.699797 0.916226 0.338216
O O7 0.665440 0.000000 0.318968
O O8 0.896040 0.356557 0.939947
O O9 0.860060 0.425385 0.000000
O O10 0.000000 0.395617 0.000000
O O11 0.768469 0.853147 0.604259
O O12 0.629935 0.866045 0.595761
O O13 0.736237 0.925870 0.554919
O O14 0.861845 0.706110 0.143430
O O15 0.124595 0.209334 0.850949
O O16 0.000000 0.167616 0.873050
O O17 0.145298 0.750000 0.750000
O O18 0.250000 0.750000 0.825955
O O19 0.781997 0.000000 0.500000
#
# Coordination Sequence:
#
# PCOD9511616 Si02
#       8
#    32  32  16  32  32  32  32  16
#     4  10  20  33  52  78 113 150 185 235 293 347
#     4  10  19  31  53  80 108 142 181 228 289 358
#     4  10  24  41  58  85 120 159 196 240 301 348
#     4  10  20  37  59  83 115 151 193 239 289 350
#     4  11  20  37  59  81 113 158 202 240 283 349
#     4  10  21  35  54  87 122 151 187 239 299 345
#     4  11  21  33  59  91 121 153 200 247 287 344
#     4  10  22  41  68  91 110 149 205 250 284 345
#
# _framework density 17.585967
#
# number of rings (size 3 to 8) (size 9 to 14) (size 15 to 20)
#    0.000    1.714    4.286    0.857    0.000    1.857 
#    0.000    1.429    0.000    3.429    0.000    0.000 
#    0.000    0.000    0.000    0.000    0.000    0.000 
#
# Total GULP energy -311957.233103 kJ/mol
# GULP energy per Si atom -5570.664877 kJ/mol
# Density = 1.754594 g / cm^3
# Si number density = 17.585967 Si / 1000 Ang^3
#
#
#
# Elastic Constant Matrix: (Units=GPa)
#
#
# Indices 1 2 3 4 5 6 
#
# 1 121.9346 47.6627 32.0828 0.0000 0.0000 0.0000
# 2 47.6627 116.6060 25.0152 0.0000 0.0000 0.0000
# 3 32.0828 25.0152 47.9352 0.0000 0.0000 0.0000
# 4 0.0000 0.0000 0.0000 42.8742 0.0000 0.0000
# 5 0.0000 0.0000 0.0000 0.0000 14.8995 0.0000
# 6 0.0000 0.0000 0.0000 0.0000 0.0000 41.1954
#
#
#
# Elastic Compliance Matrix: (Units=1/GPa)
#
#
# Indices 1 2 3 4 5 6 
#
# 1 0.010961 -0.003273 -0.005628 0.000000 0.000000 0.000000
# 2 -0.003273 0.010634 -0.003359 0.000000 0.000000 0.000000
# 3 -0.005628 -0.003359 0.026381 0.000000 0.000000 0.000000
# 4 0.000000 0.000000 0.000000 0.023324 0.000000 0.000000
# 5 0.000000 0.000000 0.000000 0.000000 0.067117 0.000000
# 6 0.000000 0.000000 0.000000 0.000000 0.000000 0.024275
#
#
# Mechanical properties :
#
#
# Convention : Reuss Voigt Hill
#
# Bulk Modulus (GPa) = 42.63219 55.11079 48.87149
# Shear Modulus (GPa) = 25.63685 31.90816 28.77251
#
# Velocity S-wave (km/s) = 3.82226 4.26421 4.04927
# Velocity P-wave (km/s) = 6.61622 7.45993 7.05071
#
# Compressibility (1/GPa) = 0.02345646
#
# Stress axis : x y z
#
# Youngs Moduli (GPa) = 91.22913 94.03514 37.90550
#
# Poissons Ratio (x) = 0.30778 0.21335
# Poissons Ratio (y) = 0.29860 0.12732
# Poissons Ratio (z) = 0.51347 0.31586
#
# Static dielectric constant tensor:
#      x y z
#    x 1.600230 0.000000 0.000000 
#    y 0.000000 1.616420 0.000000 
#    z 0.000000 0.000000 1.552090 
# 
# From -- ./inp_files/31223.got.cif
#   From: 2010.05.17/outbox.cif.g08.bks.cpg/sg69_16_cif.got.tgz:31223.got - 2010.06.03 19:29:58.
