data_PCOD9511460
_publ_section_title
;
Structure prediction by ZEFSAII (Michael W. Deem and Ramdas Pophale) SiO2 
 PCOD9511460
Probable space group: F M M M
;
_chemical_formula_sum "Si O2"
_cell_formula_units_Z 160
_cell_length_a 18.353406
_cell_length_b 25.783829
_cell_length_c 19.454785
_cell_angle_alpha 90.000000
_cell_angle_beta 90.000000
_cell_angle_gamma 90.000000
_cell_volume 9206.414405
_symmetry_space_group_name_H-M "F M M M"
_symmetry_group_IT_number 69
_symmetry_cell_setting 'orthorhombic'
loop_
_space_group_symop_operation_xyz
x,y,z
-x,-y,z
x,-y,-z
-x,y,-z
-x,-y,-z
x,y,-z
-x,y,z
x,-y,z
x,1/2+y,1/2+z
-x,1/2-y,1/2+z
x,1/2-y,1/2-z
-x,1/2+y,1/2-z
-x,1/2-y,1/2-z
x,1/2+y,1/2-z
-x,1/2+y,1/2+z
x,1/2-y,1/2+z
1/2+x,y,1/2+z
1/2-x,-y,1/2+z
1/2+x,-y,1/2-z
1/2-x,y,1/2-z
1/2-x,-y,1/2-z
1/2+x,y,1/2-z
1/2-x,y,1/2+z
1/2+x,-y,1/2+z
1/2+x,1/2+y,z
1/2-x,1/2-y,z
1/2+x,1/2-y,-z
1/2-x,1/2+y,-z
1/2-x,1/2-y,-z
1/2+x,1/2+y,-z
1/2-x,1/2+y,z
1/2+x,1/2-y,z
loop_
_atom_site_type_symbol
_atom_site_label
_atom_site_fract_x
_atom_site_fract_y
_atom_site_fract_z
Si Si1 0.583625 0.806544 0.158135
Si Si2 0.913453 0.000000 0.384012
Si Si3 0.915671 0.187529 0.175751
Si Si4 0.201861 0.103630 0.819340
Si Si5 0.162442 0.000000 0.763190
Si Si6 0.831565 0.103471 0.579154
O O1 0.500000 0.815610 0.137051
O O2 0.587113 0.813458 0.240688
O O3 0.599931 0.745580 0.148756
O O4 0.632898 0.847548 0.118476
O O5 0.882881 0.000000 0.306279
O O6 0.882769 0.947190 0.416743
O O7 0.000000 0.000000 0.385538
O O8 0.851267 0.149001 0.156164
O O9 0.000000 0.174667 0.157161
O O10 0.250000 0.116390 0.750000
O O11 0.259228 0.089984 0.878226
O O12 0.152001 0.053988 0.801772
O O13 0.250000 0.000000 0.750000
O O14 0.817476 0.116054 0.500000
#
# Coordination Sequence:
#
# PCOD9511460 Si02
#       6
#    32  16  32  32  16  32
#     4   9  18  34  53  79 112 146 185 235 288 339
#     4  12  23  37  60  90 118 154 197 230 275 352
#     4   9  18  34  58  82 104 139 196 246 282 328
#     4  11  19  36  59  80 113 154 190 237 285 336
#     4  10  18  36  58  81 115 149 188 235 279 324
#     4  12  24  37  54  84 122 158 189 228 289 358
#
# _framework density 17.379187999999999
#
# number of rings (size 3 to 8) (size 9 to 14) (size 15 to 20)
#    0.000    1.600    6.000    2.100    0.000    5.200 
#    0.000    2.000    0.000    1.800    0.000    0.000 
#    0.000    4.000    0.000    0.000    0.000    0.000 
#
# Total GULP energy -223014.055017 kJ/mol
# GULP energy per Si atom -5575.351375 kJ/mol
# Density = 1.733963 g / cm^3
# Si number density = 17.379188 Si / 1000 Ang^3
#
#
#
# Elastic Constant Matrix: (Units=GPa)
#
#
# Indices 1 2 3 4 5 6 
#
# 1 60.1225 27.4467 18.4453 0.0000 0.0000 0.0000
# 2 27.4467 69.4158 21.1017 0.0000 0.0000 0.0000
# 3 18.4453 21.1017 73.2122 0.0000 0.0000 0.0000
# 4 0.0000 0.0000 0.0000 7.3442 0.0000 0.0000
# 5 0.0000 0.0000 0.0000 0.0000 7.2830 0.0000
# 6 0.0000 0.0000 0.0000 0.0000 0.0000 36.3139
#
#
#
# Elastic Compliance Matrix: (Units=1/GPa)
#
#
# Indices 1 2 3 4 5 6 
#
# 1 0.020946 -0.007319 -0.003168 0.000000 0.000000 0.000000
# 2 -0.007319 0.018347 -0.003444 0.000000 0.000000 0.000000
# 3 -0.003168 -0.003444 0.015450 0.000000 0.000000 0.000000
# 4 0.000000 0.000000 0.000000 0.136163 0.000000 0.000000
# 5 0.000000 0.000000 0.000000 0.000000 0.137306 0.000000
# 6 0.000000 0.000000 0.000000 0.000000 0.000000 0.027538
#
#
# Mechanical properties :
#
#
# Convention : Reuss Voigt Hill
#
# Bulk Modulus (GPa) = 37.20109 37.41529 37.30819
# Shear Modulus (GPa) = 12.73658 19.23866 15.98762
#
# Velocity S-wave (km/s) = 2.71008 3.33076 3.03632
# Velocity P-wave (km/s) = 5.58970 6.03055 5.81430
#
# Compressibility (1/GPa) = 0.02688094
#
# Stress axis : x y z
#
# Youngs Moduli (GPa) = 47.74254 54.50551 64.72634
#
# Poissons Ratio (x) = 0.39892 0.20503
# Poissons Ratio (y) = 0.34942 0.22292
# Poissons Ratio (z) = 0.15123 0.18772
#
# Static dielectric constant tensor:
#      x y z
#    x 1.586780 0.000000 0.000000 
#    y 0.000000 1.632610 0.000000 
#    z 0.000000 0.000000 1.574430 
# 
# From -- ./inp_files/23211.got.cif
#   From: 2010.05.17/outbox.cif.g08.bks.cpg/sg69_12_cif.got.tgz:23211.got - 2010.06.03 19:29:58.
