data_PCOD9511147
_publ_section_title
;
Structure prediction by ZEFSAII (Michael W. Deem and Ramdas Pophale) SiO2 
 PCOD9511147
Probable space group: F M M M
;
_chemical_formula_sum "Si O2"
_cell_formula_units_Z 168
_cell_length_a 26.468722
_cell_length_b 14.234783
_cell_length_c 18.468868
_cell_angle_alpha 90.000000
_cell_angle_beta 90.000000
_cell_angle_gamma 90.000000
_cell_volume 6958.635702
_symmetry_space_group_name_H-M "F M M M"
_symmetry_group_IT_number 69
_symmetry_cell_setting 'orthorhombic'
loop_
_space_group_symop_operation_xyz
x,y,z
-x,-y,z
x,-y,-z
-x,y,-z
-x,-y,-z
x,y,-z
-x,y,z
x,-y,z
x,1/2+y,1/2+z
-x,1/2-y,1/2+z
x,1/2-y,1/2-z
-x,1/2+y,1/2-z
-x,1/2-y,1/2-z
x,1/2+y,1/2-z
-x,1/2+y,1/2+z
x,1/2-y,1/2+z
1/2+x,y,1/2+z
1/2-x,-y,1/2+z
1/2+x,-y,1/2-z
1/2-x,y,1/2-z
1/2-x,-y,1/2-z
1/2+x,y,1/2-z
1/2-x,y,1/2+z
1/2+x,-y,1/2+z
1/2+x,1/2+y,z
1/2-x,1/2-y,z
1/2+x,1/2-y,-z
1/2-x,1/2+y,-z
1/2-x,1/2-y,-z
1/2+x,1/2+y,-z
1/2-x,1/2+y,z
1/2+x,1/2-y,z
loop_
_atom_site_type_symbol
_atom_site_label
_atom_site_fract_x
_atom_site_fract_y
_atom_site_fract_z
Si Si1 0.941544 0.755744 0.084068
Si Si2 0.500000 0.000000 0.220570
Si Si3 0.742760 0.886368 0.419209
Si Si4 0.912108 0.104910 0.211942
Si Si5 0.854347 0.106317 0.412814
Si Si6 0.304016 0.887132 0.277767
O O1 0.931867 0.832269 0.146278
O O2 0.901419 0.673468 0.097279
O O3 0.000000 0.724190 0.087956
O O4 0.933863 0.789135 0.000000
O O5 0.455771 0.918583 0.231070
O O6 0.733243 0.851613 0.500000
O O7 0.798482 0.858745 0.390474
O O8 0.699180 0.863611 0.363099
O O9 0.745611 0.000000 0.421713
O O10 0.859844 0.141350 0.246505
O O11 0.900747 0.000000 0.180595
O O12 0.848442 0.098715 0.500000
O O13 0.862670 0.000000 0.384964
O O14 0.250000 0.852015 0.250000
O O15 0.301644 0.000000 0.266686
#
# Coordination Sequence:
#
# PCOD9511147 Si02
#       6
#    32   8  32  32  32  32
#     4  10  18  28  45  72 103 140 187 226 264 321
#     4   8  16  32  47  68  98 144 181 210 262 316
#     4   8  14  27  47  71 100 133 168 209 271 338
#     4   9  17  31  47  68 103 140 178 214 264 318
#     4   8  15  28  46  69  97 132 172 224 279 322
#     4   9  17  29  50  80 105 136 179 229 274 319
#
# _framework density 24.142662000000001
#
# number of rings (size 3 to 8) (size 9 to 14) (size 15 to 20)
#    0.571    2.667    0.952    1.143    0.000    1.524 
#    0.000    6.190    0.000    5.714    2.476    1.333 
#    0.000    0.000    0.000    0.000    0.000    0.000 
#
# Total GULP energy -233923.591110 kJ/mol
# GULP energy per Si atom -5569.609312 kJ/mol
# Density = 2.408771 g / cm^3
# Si number density = 24.142662 Si / 1000 Ang^3
#
#
#
# Elastic Constant Matrix: (Units=GPa)
#
#
# Indices 1 2 3 4 5 6 
#
# 1 169.0271 -7.6262 36.5894 0.0000 0.0000 0.0000
# 2 -7.6262 70.7523 2.2291 0.0000 0.0000 0.0000
# 3 36.5894 2.2291 76.2577 0.0000 0.0000 0.0000
# 4 0.0000 0.0000 0.0000 3.7933 0.0000 0.0000
# 5 0.0000 0.0000 0.0000 0.0000 39.1168 0.0000
# 6 0.0000 0.0000 0.0000 0.0000 0.0000 -1.7361
#
#
#
# Elastic Compliance Matrix: (Units=1/GPa)
#
#
# Indices 1 2 3 4 5 6 
#
# 1 0.006649 0.000818 -0.003214 0.000000 0.000000 0.000000
# 2 0.000818 0.014247 -0.000809 0.000000 0.000000 0.000000
# 3 -0.003214 -0.000809 0.014679 0.000000 0.000000 0.000000
# 4 0.000000 0.000000 0.000000 0.263622 0.000000 0.000000
# 5 0.000000 0.000000 0.000000 0.000000 0.025564 0.000000
# 6 0.000000 0.000000 0.000000 0.000000 0.000000 -0.576004
#
#
# Mechanical properties :
#
#
# Convention : Reuss Voigt Hill
#
# Bulk Modulus (GPa) = 34.28723 42.04684 38.16704
# Shear Modulus (GPa) = -21.26661 27.22445 2.97892
#
# Velocity S-wave (km/s) = -2.97117 3.36169 1.11201
# Velocity P-wave (km/s) = 1.56917 5.70279 4.18235
#
# Compressibility (1/GPa) = 0.02916537
#
# Stress axis : x y z
#
# Youngs Moduli (GPa) = 150.40130 70.18790 68.12334
#
# Poissons Ratio (x) = -0.05741 0.21896
# Poissons Ratio (y) = -0.12302 0.05511
# Poissons Ratio (z) = 0.48341 0.05678
#
# Static dielectric constant tensor:
#      x y z
#    x 1.899890 0.000000 0.000000 
#    y 0.000000 1.944970 0.000000 
#    z 0.000000 0.000000 1.979190 
# 
# From -- ./inp_files/33894.got.cif
#   From: 2010.05.17/outbox.cif.g08.bks.cpg/sg69_17_cif.got.tgz:33894.got - 2010.06.03 19:29:58.
