data_PCOD9511251
_publ_section_title
;
Structure prediction by ZEFSAII (Michael W. Deem and Ramdas Pophale) SiO2 
 PCOD9511251
Probable space group: F M M M
;
_chemical_formula_sum "Si O2"
_cell_formula_units_Z 96
_cell_length_a 8.873193
_cell_length_b 24.890143
_cell_length_c 20.474092
_cell_angle_alpha 90.000000
_cell_angle_beta 90.000000
_cell_angle_gamma 90.000000
_cell_volume 4521.806462
_symmetry_space_group_name_H-M "F M M M"
_symmetry_group_IT_number 69
_symmetry_cell_setting 'orthorhombic'
loop_
_space_group_symop_operation_xyz
x,y,z
-x,-y,z
x,-y,-z
-x,y,-z
-x,-y,-z
x,y,-z
-x,y,z
x,-y,z
x,1/2+y,1/2+z
-x,1/2-y,1/2+z
x,1/2-y,1/2-z
-x,1/2+y,1/2-z
-x,1/2-y,1/2-z
x,1/2+y,1/2-z
-x,1/2+y,1/2+z
x,1/2-y,1/2+z
1/2+x,y,1/2+z
1/2-x,-y,1/2+z
1/2+x,-y,1/2-z
1/2-x,y,1/2-z
1/2-x,-y,1/2-z
1/2+x,y,1/2-z
1/2-x,y,1/2+z
1/2+x,-y,1/2+z
1/2+x,1/2+y,z
1/2-x,1/2-y,z
1/2+x,1/2-y,-z
1/2-x,1/2+y,-z
1/2-x,1/2-y,-z
1/2+x,1/2+y,-z
1/2-x,1/2+y,z
1/2+x,1/2-y,z
loop_
_atom_site_type_symbol
_atom_site_label
_atom_site_fract_x
_atom_site_fract_y
_atom_site_fract_z
Si Si1 0.823617 0.307495 0.632214
Si Si2 0.681567 0.000000 0.922589
Si Si3 0.822818 0.577897 0.317780
Si Si4 0.179205 0.190546 0.500000
O O1 0.750000 0.250000 0.650216
O O2 0.810095 0.357252 0.680499
O O3 0.744309 0.330741 0.567183
O O4 0.000000 0.297172 0.618940
O O5 0.744412 0.050106 0.880170
O O6 0.500000 0.000000 0.920758
O O7 0.725753 0.000000 0.000000
O O8 0.750000 0.559479 0.250000
O O9 0.000000 0.565080 0.319901
O O10 0.250000 0.250000 0.500000
O O11 0.000000 0.190362 0.500000
#
# Coordination Sequence:
#
# PCOD9511251 Si02
#       4
#    32  16  32  16
#     4  10  21  37  59  91 129 172 216 262 318 379
#     4  11  26  47  72 101 129 163 214 271 328 387
#     4  11  25  44  68  96 132 175 217 266 324 387
#     4  10  18  30  52  81 118 163 208 260 312 366
#
# _framework density 21.230454000000002
#
# number of rings (size 3 to 8) (size 9 to 14) (size 15 to 20)
#    0.000    1.500    0.000    6.500    2.333    7.333 
#    0.000    3.333    0.000    0.000    0.000    0.000 
#    0.000    0.000    0.000    0.000    0.000    0.000 
#
# Total GULP energy -133936.507404 kJ/mol
# GULP energy per Si atom -5580.687808 kJ/mol
# Density = 2.118213 g / cm^3
# Si number density = 21.230454 Si / 1000 Ang^3
#
#
#
# Elastic Constant Matrix: (Units=GPa)
#
#
# Indices 1 2 3 4 5 6 
#
# 1 176.4708 58.1496 88.2771 0.0000 0.0000 0.0000
# 2 58.1496 142.9726 46.0147 0.0000 0.0000 0.0000
# 3 88.2771 46.0147 149.9626 0.0000 0.0000 0.0000
# 4 0.0000 0.0000 0.0000 211.3293 0.0000 0.0000
# 5 0.0000 0.0000 0.0000 0.0000 27.5616 0.0000
# 6 0.0000 0.0000 0.0000 0.0000 0.0000 28.4000
#
#
#
# Elastic Compliance Matrix: (Units=1/GPa)
#
#
# Indices 1 2 3 4 5 6 
#
# 1 0.008546 -0.002060 -0.004398 0.000000 0.000000 0.000000
# 2 -0.002060 0.008257 -0.001321 0.000000 0.000000 0.000000
# 3 -0.004398 -0.001321 0.009663 0.000000 0.000000 0.000000
# 4 0.000000 0.000000 0.000000 0.004732 0.000000 0.000000
# 5 0.000000 0.000000 0.000000 0.000000 0.036282 0.000000
# 6 0.000000 0.000000 0.000000 0.000000 0.000000 0.035211
#
#
# Mechanical properties :
#
#
# Convention : Reuss Voigt Hill
#
# Bulk Modulus (GPa) = 91.68493 94.92096 93.30294
# Shear Modulus (GPa) = 41.02187 71.92250 56.47219
#
# Velocity S-wave (km/s) = 4.40047 5.82671 5.16308
# Velocity P-wave (km/s) = 8.31253 9.49075 8.92111
#
# Compressibility (1/GPa) = 0.01090692
#
# Stress axis : x y z
#
# Youngs Moduli (GPa) = 117.01734 121.10365 103.48926
#
# Poissons Ratio (x) = 0.24949 0.45519
# Poissons Ratio (y) = 0.24107 0.13671
# Poissons Ratio (z) = 0.51469 0.15998
#
# Static dielectric constant tensor:
#      x y z
#    x 1.717560 0.000000 0.000000 
#    y 0.000000 1.773730 0.000000 
#    z 0.000000 0.000000 1.843870 
# 
# From -- ./inp_files/28451.got.cif
#   From: 2010.05.17/outbox.cif.g08.bks.cpg/sg69_15_cif.got.tgz:28451.got - 2010.06.03 19:29:58.
