data_PCOD9511348
_publ_section_title
;
Structure prediction by ZEFSAII (Michael W. Deem and Ramdas Pophale) SiO2 
 PCOD9511348
Probable space group: F M M M
;
_chemical_formula_sum "Si O2"
_cell_formula_units_Z 160
_cell_length_a 16.988426
_cell_length_b 31.084124
_cell_length_c 17.506168
_cell_angle_alpha 90.000000
_cell_angle_beta 90.000000
_cell_angle_gamma 90.000000
_cell_volume 9244.488094
_symmetry_space_group_name_H-M "F M M M"
_symmetry_group_IT_number 69
_symmetry_cell_setting 'orthorhombic'
loop_
_space_group_symop_operation_xyz
x,y,z
-x,-y,z
x,-y,-z
-x,y,-z
-x,-y,-z
x,y,-z
-x,y,z
x,-y,z
x,1/2+y,1/2+z
-x,1/2-y,1/2+z
x,1/2-y,1/2-z
-x,1/2+y,1/2-z
-x,1/2-y,1/2-z
x,1/2+y,1/2-z
-x,1/2+y,1/2+z
x,1/2-y,1/2+z
1/2+x,y,1/2+z
1/2-x,-y,1/2+z
1/2+x,-y,1/2-z
1/2-x,y,1/2-z
1/2-x,-y,1/2-z
1/2+x,y,1/2-z
1/2-x,y,1/2+z
1/2+x,-y,1/2+z
1/2+x,1/2+y,z
1/2-x,1/2-y,z
1/2+x,1/2-y,-z
1/2-x,1/2+y,-z
1/2-x,1/2-y,-z
1/2+x,1/2+y,-z
1/2-x,1/2+y,z
1/2+x,1/2-y,z
loop_
_atom_site_type_symbol
_atom_site_label
_atom_site_fract_x
_atom_site_fract_y
_atom_site_fract_z
Si Si1 0.909119 0.500000 0.337098
Si Si2 0.682847 0.587531 0.586982
Si Si3 0.642787 0.906949 0.375876
Si Si4 0.500000 0.199355 0.262383
Si Si5 0.340068 0.352191 0.273740
Si Si6 0.322356 0.000000 0.187150
Si Si7 0.500000 0.652830 0.918949
O O1 0.874224 0.542841 0.372884
O O2 0.894757 0.500000 0.245997
O O3 0.000000 0.500000 0.353369
O O4 0.651162 0.585272 0.500000
O O5 0.775023 0.598541 0.583290
O O6 0.653387 0.625165 0.643637
O O7 0.677299 0.542239 0.633457
O O8 0.649539 0.890002 0.288904
O O9 0.574456 0.878528 0.411337
O O10 0.500000 0.250000 0.250000
O O11 0.416217 0.179035 0.233423
O O12 0.500000 0.186449 0.351112
O O13 0.250000 0.335699 0.250000
O O14 0.250000 0.000000 0.250000
O O15 0.500000 0.675161 0.000000
#
# Coordination Sequence:
#
# PCOD9511348 Si02
#       7
#    16  32  32  16  32  16  16
#     4  12  20  30  51  75 102 149 198 239 277 323
#     4  11  20  32  51  78 108 148 195 239 276 321
#     4  10  18  32  52  75 106 151 187 223 277 337
#     4  10  22  40  65  89 110 142 182 218 280 365
#     4   9  19  36  59  82 110 148 188 226 277 342
#     4  12  19  32  51  69 107 150 199 238 273 318
#     4  10  20  35  54  82 112 134 168 228 285 332
#
# _framework density 17.307611000000001
#
# number of rings (size 3 to 8) (size 9 to 14) (size 15 to 20)
#    0.000    1.600    5.000    1.500    0.000    0.400 
#    0.000    3.500    0.000    0.600    0.000    8.400 
#    0.000    0.000    0.000    0.000    0.000    0.000 
#
# Total GULP energy -222694.440638 kJ/mol
# GULP energy per Si atom -5567.361016 kJ/mol
# Density = 1.726822 g / cm^3
# Si number density = 17.307611 Si / 1000 Ang^3
#
#
#
# Elastic Constant Matrix: (Units=GPa)
#
#
# Indices 1 2 3 4 5 6 
#
# 1 77.6259 47.7309 21.9267 0.0000 0.0000 0.0000
# 2 47.7309 118.6236 50.1434 0.0000 0.0000 0.0000
# 3 21.9267 50.1434 134.9862 0.0000 0.0000 0.0000
# 4 0.0000 0.0000 0.0000 1.6342 0.0000 0.0000
# 5 0.0000 0.0000 0.0000 0.0000 6.4979 0.0000
# 6 0.0000 0.0000 0.0000 0.0000 0.0000 -385.2753
#
#
#
# Elastic Compliance Matrix: (Units=1/GPa)
#
#
# Indices 1 2 3 4 5 6 
#
# 1 0.017125 -0.006779 -0.000263 0.000000 0.000000 0.000000
# 2 -0.006779 0.012684 -0.003611 0.000000 0.000000 0.000000
# 3 -0.000263 -0.003611 0.008792 0.000000 0.000000 0.000000
# 4 0.000000 0.000000 0.000000 0.611923 0.000000 0.000000
# 5 0.000000 0.000000 0.000000 0.000000 0.153895 0.000000
# 6 0.000000 0.000000 0.000000 0.000000 0.000000 -0.002596
#
#
# Mechanical properties :
#
#
# Convention : Reuss Voigt Hill
#
# Bulk Modulus (GPa) = 57.82089 63.42640 60.62364
# Shear Modulus (GPa) = 6.03212 -61.33298 -27.65043
#
# Velocity S-wave (km/s) = 1.86891 -5.95936 -4.00132
# Velocity P-wave (km/s) = 6.17555 3.25973 3.70888
#
# Compressibility (1/GPa) = 0.01729479
#
# Stress axis : x y z
#
# Youngs Moduli (GPa) = 58.39339 78.83904 113.73764
#
# Poissons Ratio (x) = 0.53448 0.02996
# Poissons Ratio (y) = 0.39587 0.41065
# Poissons Ratio (z) = 0.01538 0.28465
#
# Static dielectric constant tensor:
#      x y z
#    x 1.635660 0.000000 0.000000 
#    y 0.000000 1.538640 0.000000 
#    z 0.000000 0.000000 1.671580 
# 
# From -- ./inp_files/23258.got.cif
#   From: 2010.05.17/outbox.cif.g08.bks.cpg/sg69_12_cif.got.tgz:23258.got - 2010.06.03 19:29:58.
