data_PCOD9511050
_publ_section_title
;
Structure prediction by ZEFSAII (Michael W. Deem and Ramdas Pophale) SiO2 
 PCOD9511050
Probable space group: F M M M
;
_chemical_formula_sum "Si O2"
_cell_formula_units_Z 144
_cell_length_a 36.256774
_cell_length_b 31.236688
_cell_length_c 8.771801
_cell_angle_alpha 90.000000
_cell_angle_beta 90.000000
_cell_angle_gamma 90.000000
_cell_volume 9934.428990
_symmetry_space_group_name_H-M "F M M M"
_symmetry_group_IT_number 69
_symmetry_cell_setting 'orthorhombic'
loop_
_space_group_symop_operation_xyz
x,y,z
-x,-y,z
x,-y,-z
-x,y,-z
-x,-y,-z
x,y,-z
-x,y,z
x,-y,z
x,1/2+y,1/2+z
-x,1/2-y,1/2+z
x,1/2-y,1/2-z
-x,1/2+y,1/2-z
-x,1/2-y,1/2-z
x,1/2+y,1/2-z
-x,1/2+y,1/2+z
x,1/2-y,1/2+z
1/2+x,y,1/2+z
1/2-x,-y,1/2+z
1/2+x,-y,1/2-z
1/2-x,y,1/2-z
1/2-x,-y,1/2-z
1/2+x,y,1/2-z
1/2-x,y,1/2+z
1/2+x,-y,1/2+z
1/2+x,1/2+y,z
1/2-x,1/2-y,z
1/2+x,1/2-y,-z
1/2-x,1/2+y,-z
1/2-x,1/2-y,-z
1/2+x,1/2+y,-z
1/2-x,1/2+y,z
1/2+x,1/2-y,z
loop_
_atom_site_type_symbol
_atom_site_label
_atom_site_fract_x
_atom_site_fract_y
_atom_site_fract_z
Si Si1 0.654078 0.449186 0.819857
Si Si2 0.576634 0.448006 0.325386
Si Si3 0.500000 0.552188 0.823411
Si Si4 0.791721 0.706367 0.682899
Si Si5 0.290997 0.617977 0.318494
O O1 0.658197 0.500000 0.788661
O O2 0.612576 0.436434 0.771800
O O3 0.683284 0.421505 0.726723
O O4 0.659433 0.442485 0.000000
O O5 0.580997 0.434085 0.500000
O O6 0.575332 0.500000 0.324960
O O7 0.537640 0.433354 0.257190
O O8 0.500000 0.500000 0.817830
O O9 0.500000 0.564475 0.000000
O O10 0.790736 0.707651 0.500000
O O11 0.808872 0.750000 0.750000
O O12 0.750000 0.705694 0.750000
O O13 0.807275 0.661490 0.743731
O O14 0.288247 0.623209 0.500000
O O15 0.250000 0.611480 0.250000
#
# Coordination Sequence:
#
# PCOD9511050 Si02
#       5
#    32  32  16  32  32
#     4  10  20  33  46  60  81 111 146 182 218 254
#     4   9  16  26  40  58  79 104 135 171 210 251
#     4   9  15  23  37  57  79 103 132 167 206 249
#     4  10  17  28  45  65  86 106 131 165 209 257
#     4  11  21  33  47  63  83 109 143 180 217 255
#
# _framework density 14.495044999999999
#
# number of rings (size 3 to 8) (size 9 to 14) (size 15 to 20)
#    0.000    2.111    0.000    7.667    0.000    5.778 
#    0.000    0.000    0.000    0.000    0.000    0.000 
#    0.000    0.000    0.000    1.000    0.000   14.111 
#
# Total GULP energy -200635.468456 kJ/mol
# GULP energy per Si atom -5573.207457 kJ/mol
# Density = 1.446205 g / cm^3
# Si number density = 14.495045 Si / 1000 Ang^3
#
#
#
# Elastic Constant Matrix: (Units=GPa)
#
#
# Indices 1 2 3 4 5 6 
#
# 1 63.5215 27.6380 30.5736 -0.0763 -0.0043 -0.0029
# 2 27.6380 47.4991 37.4960 -0.0691 -0.0106 -0.0108
# 3 30.5736 37.4960 126.2938 -0.0717 -0.0082 -0.0113
# 4 -0.0763 -0.0691 -0.0717 -85.3303 0.0791 0.1397
# 5 -0.0043 -0.0106 -0.0082 0.0791 25.1581 0.0025
# 6 -0.0029 -0.0108 -0.0113 0.1397 0.0025 -0.9297
#
#
#
# Elastic Compliance Matrix: (Units=1/GPa)
#
#
# Indices 1 2 3 4 5 6 
#
# 1 0.021438 -0.010941 -0.001941 -0.000009 -0.000002 0.000081
# 2 -0.010941 0.033082 -0.007173 -0.000011 0.000010 -0.000263
# 3 -0.001941 -0.007173 0.010518 -0.000001 0.000000 -0.000039
# 4 -0.000009 -0.000011 -0.000001 -0.011722 0.000037 -0.001761
# 5 -0.000002 0.000010 0.000000 0.000037 0.039748 0.000110
# 6 0.000081 -0.000263 -0.000039 -0.001761 0.000110 -1.075857
#
#
# Mechanical properties :
#
#
# Convention : Reuss Voigt Hill
#
# Bulk Modulus (GPa) = 40.11938 47.63665 43.87801
# Shear Modulus (GPa) = -5.35118 -2.77992 -4.06555
#
# Velocity S-wave (km/s) = -1.92347 -1.38636 -1.67657
# Velocity P-wave (km/s) = 4.77547 5.51115 5.15644
#
# Compressibility (1/GPa) = 0.02492561
#
# Stress axis : x y z
#
# Youngs Moduli (GPa) = 46.64701 30.22809 95.07820
#
# Poissons Ratio (x) = 0.33074 0.18457
# Poissons Ratio (y) = 0.51038 0.68201
# Poissons Ratio (z) = 0.09055 0.21683
#
# Static dielectric constant tensor:
#      x y z
#    x 1.468320 0.000000 0.000000 
#    y 0.000000 1.501900 0.000000 
#    z 0.000000 0.000000 1.487550 
# 
# From -- ./inp_files/5631.got.cif
#   From: 2010.05.17/outbox.cif.g08.bks.cpg/sg69_3_cif.got.tgz:5631.got - 2010.06.03 19:29:58.
