data_PCOD9511930
_publ_section_title
;
Structure prediction by ZEFSAII (Michael W. Deem and Ramdas Pophale) SiO2 
 PCOD9511930
Probable space group: F M M M
;
_chemical_formula_sum "Si O2"
_cell_formula_units_Z 176
_cell_length_a 29.032851
_cell_length_b 16.668996
_cell_length_c 19.571641
_cell_angle_alpha 90.000000
_cell_angle_beta 90.000000
_cell_angle_gamma 90.000000
_cell_volume 9471.665858
_symmetry_space_group_name_H-M "F M M M"
_symmetry_group_IT_number 69
_symmetry_cell_setting 'orthorhombic'
loop_
_space_group_symop_operation_xyz
x,y,z
-x,-y,z
x,-y,-z
-x,y,-z
-x,-y,-z
x,y,-z
-x,y,z
x,-y,z
x,1/2+y,1/2+z
-x,1/2-y,1/2+z
x,1/2-y,1/2-z
-x,1/2+y,1/2-z
-x,1/2-y,1/2-z
x,1/2+y,1/2-z
-x,1/2+y,1/2+z
x,1/2-y,1/2+z
1/2+x,y,1/2+z
1/2-x,-y,1/2+z
1/2+x,-y,1/2-z
1/2-x,y,1/2-z
1/2-x,-y,1/2-z
1/2+x,y,1/2-z
1/2-x,y,1/2+z
1/2+x,-y,1/2+z
1/2+x,1/2+y,z
1/2-x,1/2-y,z
1/2+x,1/2-y,-z
1/2-x,1/2+y,-z
1/2-x,1/2-y,-z
1/2+x,1/2+y,-z
1/2-x,1/2+y,z
1/2+x,1/2-y,z
loop_
_atom_site_type_symbol
_atom_site_label
_atom_site_fract_x
_atom_site_fract_y
_atom_site_fract_z
Si Si1 0.136497 0.409677 0.704792
Si Si2 0.750000 0.750000 0.883782
Si Si3 0.197461 0.407402 0.838333
Si Si4 0.845792 0.689424 0.570999
Si Si5 0.608576 0.359490 0.577588
Si Si6 0.945702 0.660137 0.217591
O O1 0.142746 0.500000 0.682768
O O2 0.172069 0.393839 0.766171
O O3 0.145228 0.355223 0.640522
O O4 0.086034 0.395697 0.735635
O O5 0.767702 0.667633 0.846879
O O6 0.793995 0.778030 0.925757
O O7 0.215687 0.500000 0.840518
O O8 0.155756 0.400527 0.894058
O O9 0.852742 0.643304 0.500000
O O10 0.878315 0.766431 0.571102
O O11 0.596411 0.387882 0.500000
O O12 0.571764 0.358360 0.639889
O O13 0.937088 0.750000 0.250000
O O14 0.000000 0.646010 0.221770
#
# Coordination Sequence:
#
# PCOD9511930 Si02
#       6
#    32  16  32  32  32  32
#     4  10  21  37  56  79 109 147 187 229 282 338
#     4  10  21  35  58  82 113 151 188 238 291 331
#     4   9  20  36  55  82 113 148 192 234 280 338
#     4  10  20  35  53  77 108 146 189 229 275 332
#     4   9  18  33  55  81 112 147 181 222 277 335
#     4  10  19  34  58  84 108 141 183 228 279 332
#
# _framework density 18.581737
#
# number of rings (size 3 to 8) (size 9 to 14) (size 15 to 20)
#    0.000    2.364    1.818    0.273    0.000    4.364 
#    0.000    1.818    0.000    0.545    0.000    6.364 
#    0.000    0.000    0.000    0.000    0.000    0.000 
#
# Total GULP energy -244948.812470 kJ/mol
# GULP energy per Si atom -5567.018465 kJ/mol
# Density = 1.853944 g / cm^3
# Si number density = 18.581737 Si / 1000 Ang^3
#
#
#
# Elastic Constant Matrix: (Units=GPa)
#
#
# Indices 1 2 3 4 5 6 
#
# 1 63.1231 18.4677 24.5062 0.0000 0.0000 0.0000
# 2 18.4677 77.4204 45.5722 0.0000 0.0000 0.0000
# 3 24.5062 45.5722 132.7634 0.0000 0.0000 0.0000
# 4 0.0000 0.0000 0.0000 17.6386 0.0000 0.0000
# 5 0.0000 0.0000 0.0000 0.0000 37.4531 0.0000
# 6 0.0000 0.0000 0.0000 0.0000 0.0000 19.7706
#
#
#
# Elastic Compliance Matrix: (Units=1/GPa)
#
#
# Indices 1 2 3 4 5 6 
#
# 1 0.017555 -0.002858 -0.002260 0.000000 0.000000 0.000000
# 2 -0.002858 0.016652 -0.005189 0.000000 0.000000 0.000000
# 3 -0.002260 -0.005189 0.009730 0.000000 0.000000 0.000000
# 4 0.000000 0.000000 0.000000 0.056694 0.000000 0.000000
# 5 0.000000 0.000000 0.000000 0.000000 0.026700 0.000000
# 6 0.000000 0.000000 0.000000 0.000000 0.000000 0.050580
#
#
# Mechanical properties :
#
#
# Convention : Reuss Voigt Hill
#
# Bulk Modulus (GPa) = 42.86970 50.04436 46.45703
# Shear Modulus (GPa) = 24.23669 27.28985 25.76327
#
# Velocity S-wave (km/s) = 3.61547 3.83644 3.72759
# Velocity P-wave (km/s) = 6.36787 6.82751 6.60169
#
# Compressibility (1/GPa) = 0.02332650
#
# Stress axis : x y z
#
# Youngs Moduli (GPa) = 56.96284 60.05180 102.77166
#
# Poissons Ratio (x) = 0.17160 0.23222
# Poissons Ratio (y) = 0.16277 0.53324
# Poissons Ratio (z) = 0.12871 0.31158
#
# Static dielectric constant tensor:
#      x y z
#    x 1.625550 0.000000 0.000000 
#    y 0.000000 1.673330 0.000000 
#    z 0.000000 0.000000 1.713360 
# 
# From -- ./inp_files/27698.got.cif
#   From: 2010.05.17/outbox.cif.g08.bks.cpg/sg69_14_cif.got.tgz:27698.got - 2010.06.03 19:29:58.
