data_PCOD9511553
_publ_section_title
;
Structure prediction by ZEFSAII (Michael W. Deem and Ramdas Pophale) SiO2 
 PCOD9511553
Probable space group: F M M M
;
_chemical_formula_sum "Si O2"
_cell_formula_units_Z 208
_cell_length_a 24.717157
_cell_length_b 26.503413
_cell_length_c 19.472904
_cell_angle_alpha 90.000000
_cell_angle_beta 90.000000
_cell_angle_gamma 90.000000
_cell_volume 12756.485601
_symmetry_space_group_name_H-M "F M M M"
_symmetry_group_IT_number 69
_symmetry_cell_setting 'orthorhombic'
loop_
_space_group_symop_operation_xyz
x,y,z
-x,-y,z
x,-y,-z
-x,y,-z
-x,-y,-z
x,y,-z
-x,y,z
x,-y,z
x,1/2+y,1/2+z
-x,1/2-y,1/2+z
x,1/2-y,1/2-z
-x,1/2+y,1/2-z
-x,1/2-y,1/2-z
x,1/2+y,1/2-z
-x,1/2+y,1/2+z
x,1/2-y,1/2+z
1/2+x,y,1/2+z
1/2-x,-y,1/2+z
1/2+x,-y,1/2-z
1/2-x,y,1/2-z
1/2-x,-y,1/2-z
1/2+x,y,1/2-z
1/2-x,y,1/2+z
1/2+x,-y,1/2+z
1/2+x,1/2+y,z
1/2-x,1/2-y,z
1/2+x,1/2-y,-z
1/2-x,1/2+y,-z
1/2-x,1/2-y,-z
1/2+x,1/2+y,-z
1/2-x,1/2+y,z
1/2+x,1/2-y,z
loop_
_atom_site_type_symbol
_atom_site_label
_atom_site_fract_x
_atom_site_fract_y
_atom_site_fract_z
Si Si1 0.748314 0.688722 0.670975
Si Si2 0.065685 0.056797 0.285991
Si Si3 0.065197 0.105987 0.851555
Si Si4 0.646720 0.816762 0.418260
Si Si5 0.852072 0.802361 0.578884
Si Si6 0.564505 0.889545 0.923304
Si Si7 0.565460 0.500000 0.077624
O O1 0.750000 0.671187 0.750000
O O2 0.750000 0.750000 0.672208
O O3 0.799272 0.671370 0.625461
O O4 0.692879 0.677351 0.631217
O O5 0.080479 0.097579 0.228201
O O6 0.081704 0.074006 0.361805
O O7 0.000000 0.054770 0.283845
O O8 0.084713 0.000000 0.270200
O O9 0.097882 0.150115 0.888372
O O10 0.079889 0.052155 0.885785
O O11 0.000000 0.113086 0.857250
O O12 0.653705 0.825661 0.500000
O O13 0.636674 0.756745 0.408749
O O14 0.831468 0.806008 0.500000
O O15 0.905041 0.836553 0.584259
O O16 0.500000 0.882592 0.918281
O O17 0.576443 0.909296 0.000000
O O18 0.500000 0.500000 0.076595
O O19 0.585754 0.500000 0.000000
#
# Coordination Sequence:
#
# PCOD9511553 Si02
#       7
#    32  32  32  32  32  32  16
#     4   9  18  32  50  71  94 124 167 211 244 281
#     4   9  17  31  49  69  97 131 166 205 246 288
#     4  10  19  31  47  73 104 135 167 201 246 293
#     4  10  20  32  49  74 101 131 169 207 240 286
#     4   9  18  33  51  71 101 135 162 197 247 295
#     4   9  18  31  49  75 102 129 162 198 244 302
#     4   9  16  28  46  66  94 131 169 203 236 283
#
# _framework density 16.305432
#
# number of rings (size 3 to 8) (size 9 to 14) (size 15 to 20)
#    0.000    2.692    0.769    0.923    2.154    3.692 
#    0.000    3.077    0.000    2.769    2.000    1.615 
#    0.000    0.000    0.000    0.000    0.000    0.000 
#
# Total GULP energy -289539.661030 kJ/mol
# GULP energy per Si atom -5568.070404 kJ/mol
# Density = 1.626832 g / cm^3
# Si number density = 16.305432 Si / 1000 Ang^3
#
#
#
# Elastic Constant Matrix: (Units=GPa)
#
#
# Indices 1 2 3 4 5 6 
#
# 1 45.9946 27.1803 43.0061 0.0000 0.0000 0.0000
# 2 27.1803 47.4815 42.5108 0.0000 0.0000 0.0000
# 3 43.0061 42.5108 129.9473 0.0000 0.0000 0.0000
# 4 0.0000 0.0000 0.0000 25.6281 0.0000 0.0000
# 5 0.0000 0.0000 0.0000 0.0000 22.7362 0.0000
# 6 0.0000 0.0000 0.0000 0.0000 0.0000 -2.5072
#
#
#
# Elastic Compliance Matrix: (Units=1/GPa)
#
#
# Indices 1 2 3 4 5 6 
#
# 1 0.037535 -0.014658 -0.007627 0.000000 0.000000 0.000000
# 2 -0.014658 0.035509 -0.006765 0.000000 0.000000 0.000000
# 3 -0.007627 -0.006765 0.012433 0.000000 0.000000 0.000000
# 4 0.000000 0.000000 0.000000 0.039020 0.000000 0.000000
# 5 0.000000 0.000000 0.000000 0.000000 0.043983 0.000000
# 6 0.000000 0.000000 0.000000 0.000000 0.000000 -0.398855
#
#
# Mechanical properties :
#
#
# Convention : Reuss Voigt Hill
#
# Bulk Modulus (GPa) = 36.52830 49.86866 43.19848
# Shear Modulus (GPa) = -30.64661 16.55318 -7.04672
#
# Velocity S-wave (km/s) = -4.34006 3.18967 -2.08113
# Velocity P-wave (km/s) = 1.63208 6.64949 4.55807
#
# Compressibility (1/GPa) = 0.02737604
#
# Stress axis : x y z
#
# Youngs Moduli (GPa) = 26.64153 28.16214 80.43260
#
# Poissons Ratio (x) = 0.41280 0.61347
# Poissons Ratio (y) = 0.39052 0.54414
# Poissons Ratio (z) = 0.20320 0.19052
#
# Static dielectric constant tensor:
#      x y z
#    x 1.527870 0.000000 0.000000 
#    y 0.000000 1.524670 0.000000 
#    z 0.000000 0.000000 1.590780 
# 
# From -- ./inp_files/26997.got.cif
#   From: 2010.05.17/outbox.cif.g08.bks.cpg/sg69_14_cif.got.tgz:26997.got - 2010.06.03 19:29:58.
