data_PCOD9511537
_publ_section_title
;
Structure prediction by ZEFSAII (Michael W. Deem and Ramdas Pophale) SiO2 
 PCOD9511537
Probable space group: F M M M
;
_chemical_formula_sum "Si O2"
_cell_formula_units_Z 208
_cell_length_a 25.225443
_cell_length_b 19.227248
_cell_length_c 24.855971
_cell_angle_alpha 90.000000
_cell_angle_beta 90.000000
_cell_angle_gamma 90.000000
_cell_volume 12055.539864
_symmetry_space_group_name_H-M "F M M M"
_symmetry_group_IT_number 69
_symmetry_cell_setting 'orthorhombic'
loop_
_space_group_symop_operation_xyz
x,y,z
-x,-y,z
x,-y,-z
-x,y,-z
-x,-y,-z
x,y,-z
-x,y,z
x,-y,z
x,1/2+y,1/2+z
-x,1/2-y,1/2+z
x,1/2-y,1/2-z
-x,1/2+y,1/2-z
-x,1/2-y,1/2-z
x,1/2+y,1/2-z
-x,1/2+y,1/2+z
x,1/2-y,1/2+z
1/2+x,y,1/2+z
1/2-x,-y,1/2+z
1/2+x,-y,1/2-z
1/2-x,y,1/2-z
1/2-x,-y,1/2-z
1/2+x,y,1/2-z
1/2-x,y,1/2+z
1/2+x,-y,1/2+z
1/2+x,1/2+y,z
1/2-x,1/2-y,z
1/2+x,1/2-y,-z
1/2-x,1/2+y,-z
1/2-x,1/2-y,-z
1/2+x,1/2+y,-z
1/2-x,1/2+y,z
1/2+x,1/2-y,z
loop_
_atom_site_type_symbol
_atom_site_label
_atom_site_fract_x
_atom_site_fract_y
_atom_site_fract_z
Si Si1 0.811100 0.277045 0.937303
Si Si2 0.346285 0.420338 0.616162
Si Si3 0.562424 0.377558 0.304553
Si Si4 0.116140 0.750000 0.750000
Si Si5 0.654008 0.172006 0.650199
Si Si6 0.754973 0.579681 0.689462
Si Si7 0.939516 0.579275 0.315502
O O1 0.750000 0.250000 0.929679
O O2 0.825865 0.356980 0.921657
O O3 0.843555 0.227241 0.897311
O O4 0.823417 0.266847 0.000000
O O5 0.347675 0.500000 0.593821
O O6 0.401562 0.402475 0.645955
O O7 0.302643 0.420541 0.663430
O O8 0.500000 0.382500 0.316212
O O9 0.579736 0.300395 0.286031
O O10 0.573409 0.418496 0.248512
O O11 0.152162 0.789799 0.792363
O O12 0.705333 0.123196 0.652651
O O13 0.601260 0.125804 0.651889
O O14 0.774881 0.500000 0.692913
O O15 0.750000 0.607010 0.750000
O O16 0.936837 0.500000 0.333529
O O17 0.000000 0.604877 0.320135
#
# Coordination Sequence:
#
# PCOD9511537 Si02
#       7
#    32  32  32  16  32  32  32
#     4  11  24  43  61  80 109 147 191 239 287 338
#     4  11  22  38  57  82 111 145 190 237 284 333
#     4  10  19  32  52  82 120 157 191 226 272 333
#     4  10  19  30  53  86 118 152 184 232 274 328
#     4  11  20  34  56  81 113 146 185 227 280 336
#     4  10  20  32  51  82 119 149 176 219 281 348
#     4   9  18  32  53  84 121 156 185 216 265 333
#
# _framework density 17.253478999999999
#
# number of rings (size 3 to 8) (size 9 to 14) (size 15 to 20)
#    0.000    1.692    3.077    3.000    0.000    3.077 
#    0.000    0.000    0.000    3.692    0.000    2.154 
#    0.000    0.000    0.000    0.000    0.000    0.000 
#
# Total GULP energy -289862.909532 kJ/mol
# GULP energy per Si atom -5574.286722 kJ/mol
# Density = 1.721421 g / cm^3
# Si number density = 17.253479 Si / 1000 Ang^3
#
#
#
# Elastic Constant Matrix: (Units=GPa)
#
#
# Indices 1 2 3 4 5 6 
#
# 1 82.4790 40.4445 32.7395 0.0000 0.0000 0.0000
# 2 40.4445 96.6533 31.4368 0.0000 0.0000 0.0000
# 3 32.7395 31.4368 62.2917 0.0000 0.0000 0.0000
# 4 0.0000 0.0000 0.0000 16.4398 0.0000 0.0000
# 5 0.0000 0.0000 0.0000 0.0000 15.5027 0.0000
# 6 0.0000 0.0000 0.0000 0.0000 0.0000 16.4319
#
#
#
# Elastic Compliance Matrix: (Units=1/GPa)
#
#
# Indices 1 2 3 4 5 6 
#
# 1 0.017186 -0.005089 -0.006464 0.000000 0.000000 0.000000
# 2 -0.005089 0.013885 -0.004333 0.000000 0.000000 0.000000
# 3 -0.006464 -0.004333 0.021638 0.000000 0.000000 0.000000
# 4 0.000000 0.000000 0.000000 0.060828 0.000000 0.000000
# 5 0.000000 0.000000 0.000000 0.000000 0.064505 0.000000
# 6 0.000000 0.000000 0.000000 0.000000 0.000000 0.060857
#
#
# Mechanical properties :
#
#
# Convention : Reuss Voigt Hill
#
# Bulk Modulus (GPa) = 47.76344 50.07395 48.91870
# Shear Modulus (GPa) = 18.00835 18.79507 18.40171
#
# Velocity S-wave (km/s) = 3.23422 3.30411 3.26935
# Velocity P-wave (km/s) = 6.45681 6.60619 6.53193
#
# Compressibility (1/GPa) = 0.02093652
#
# Stress axis : x y z
#
# Youngs Moduli (GPa) = 58.18822 72.02076 46.21575
#
# Poissons Ratio (x) = 0.36650 0.29875
# Poissons Ratio (y) = 0.29611 0.20024
# Poissons Ratio (z) = 0.37615 0.31205
#
# Static dielectric constant tensor:
#      x y z
#    x 1.594080 0.000000 0.000000 
#    y 0.000000 1.659050 0.000000 
#    z 0.000000 0.000000 1.543090 
# 
# From -- ./inp_files/43302.got.cif
#   From: 2010.05.17/outbox.cif.g08.bks.cpg/sg69_22_cif.got.tgz:43302.got - 2010.06.03 19:29:58.
