data_PCOD9511917
_publ_section_title
;
Structure prediction by ZEFSAII (Michael W. Deem and Ramdas Pophale) SiO2 
 PCOD9511917
Probable space group: F M M M
;
_chemical_formula_sum "Si O2"
_cell_formula_units_Z 208
_cell_length_a 19.128157
_cell_length_b 32.964725
_cell_length_c 18.291084
_cell_angle_alpha 90.000000
_cell_angle_beta 90.000000
_cell_angle_gamma 90.000000
_cell_volume 11533.524142
_symmetry_space_group_name_H-M "F M M M"
_symmetry_group_IT_number 69
_symmetry_cell_setting 'orthorhombic'
loop_
_space_group_symop_operation_xyz
x,y,z
-x,-y,z
x,-y,-z
-x,y,-z
-x,-y,-z
x,y,-z
-x,y,z
x,-y,z
x,1/2+y,1/2+z
-x,1/2-y,1/2+z
x,1/2-y,1/2-z
-x,1/2+y,1/2-z
-x,1/2-y,1/2-z
x,1/2+y,1/2-z
-x,1/2+y,1/2+z
x,1/2-y,1/2+z
1/2+x,y,1/2+z
1/2-x,-y,1/2+z
1/2+x,-y,1/2-z
1/2-x,y,1/2-z
1/2-x,-y,1/2-z
1/2+x,y,1/2-z
1/2-x,y,1/2+z
1/2+x,-y,1/2+z
1/2+x,1/2+y,z
1/2-x,1/2-y,z
1/2+x,1/2-y,-z
1/2-x,1/2+y,-z
1/2-x,1/2-y,-z
1/2+x,1/2+y,-z
1/2-x,1/2+y,z
1/2+x,1/2-y,z
loop_
_atom_site_type_symbol
_atom_site_label
_atom_site_fract_x
_atom_site_fract_y
_atom_site_fract_z
Si Si1 0.000000 0.454649 0.088327
Si Si2 0.824151 0.545983 0.786643
Si Si3 0.640119 0.408664 0.417151
Si Si4 0.418193 0.113555 0.712895
Si Si5 0.416646 0.169606 0.144620
Si Si6 0.167304 0.748691 0.338575
Si Si7 0.416186 0.674618 0.912758
O O1 0.931986 0.430016 0.108512
O O2 0.000000 0.500000 0.116490
O O3 0.000000 0.456326 0.000000
O O4 0.851480 0.500000 0.799738
O O5 0.750000 0.541911 0.750000
O O6 0.808312 0.571216 0.860613
O O7 0.873189 0.574933 0.737394
O O8 0.655335 0.419191 0.500000
O O9 0.623287 0.361708 0.408032
O O10 0.500000 0.102646 0.713448
O O11 0.408938 0.148732 0.775064
O O12 0.401220 0.134138 0.634949
O O13 0.500000 0.172352 0.129248
O O14 0.377566 0.212046 0.138813
O O15 0.163688 0.750000 0.250000
O O16 0.250000 0.750000 0.358068
O O17 0.129678 0.710135 0.375691
O O18 0.500000 0.682971 0.903497
O O19 0.402843 0.671094 0.000000
#
# Coordination Sequence:
#
# PCOD9511917 Si02
#       7
#    16  32  32  32  32  32  32
#     4   9  16  28  50  82 119 150 175 213 272 347
#     4  10  22  38  56  82 117 154 194 233 273 336
#     4  10  20  35  56  86 120 151 183 224 284 346
#     4   9  19  36  58  82 107 143 190 238 284 336
#     4  10  19  34  57  81 113 152 190 232 278 341
#     4  11  23  37  56  83 116 154 193 236 286 339
#     4  10  21  38  60  84 109 144 194 244 292 341
#
# _framework density 18.034382999999998
#
# number of rings (size 3 to 8) (size 9 to 14) (size 15 to 20)
#    0.000    2.077    2.308    0.923    1.077    5.231 
#    0.000    2.308    0.000    1.385    0.000    2.154 
#    0.000    0.000    0.000    0.000    0.000    0.000 
#
# Total GULP energy -289804.101930 kJ/mol
# GULP energy per Si atom -5573.155806 kJ/mol
# Density = 1.799334 g / cm^3
# Si number density = 18.034383 Si / 1000 Ang^3
#
#
#
# Elastic Constant Matrix: (Units=GPa)
#
#
# Indices 1 2 3 4 5 6 
#
# 1 61.1216 49.1985 42.1552 0.0000 0.0000 0.0000
# 2 49.1985 126.5029 39.8046 0.0000 0.0000 0.0000
# 3 42.1552 39.8046 108.2632 0.0000 0.0000 0.0000
# 4 0.0000 0.0000 0.0000 5.3630 0.0000 0.0000
# 5 0.0000 0.0000 0.0000 0.0000 13.9087 0.0000
# 6 0.0000 0.0000 0.0000 0.0000 0.0000 8.4509
#
#
#
# Elastic Compliance Matrix: (Units=1/GPa)
#
#
# Indices 1 2 3 4 5 6 
#
# 1 0.028939 -0.008718 -0.008063 0.000000 0.000000 0.000000
# 2 -0.008718 0.011565 -0.000858 0.000000 0.000000 0.000000
# 3 -0.008063 -0.000858 0.012692 0.000000 0.000000 0.000000
# 4 0.000000 0.000000 0.000000 0.186464 0.000000 0.000000
# 5 0.000000 0.000000 0.000000 0.000000 0.071898 0.000000
# 6 0.000000 0.000000 0.000000 0.000000 0.000000 0.118330
#
#
# Mechanical properties :
#
#
# Convention : Reuss Voigt Hill
#
# Bulk Modulus (GPa) = 55.80619 62.02269 58.91444
# Shear Modulus (GPa) = 10.61263 16.52648 13.56955
#
# Velocity S-wave (km/s) = 2.42846 3.03047 2.74602
# Velocity P-wave (km/s) = 6.23496 6.83455 6.54163
#
# Compressibility (1/GPa) = 0.01791916
#
# Stress axis : x y z
#
# Youngs Moduli (GPa) = 34.55561 86.46614 78.79212
#
# Poissons Ratio (x) = 0.75378 0.63530
# Poissons Ratio (y) = 0.30124 0.06758
# Poissons Ratio (z) = 0.27862 0.07416
#
# Static dielectric constant tensor:
#      x y z
#    x 1.586620 0.000000 0.000000 
#    y 0.000000 1.634790 0.000000 
#    z 0.000000 0.000000 1.643880 
# 
# From -- ./inp_files/25172.got.cif
#   From: 2010.05.17/outbox.cif.g08.bks.cpg/sg69_13_cif.got.tgz:25172.got - 2010.06.03 19:29:58.
