data_PCOD9511126
_publ_section_title
;
Structure prediction by ZEFSAII (Michael W. Deem and Ramdas Pophale) SiO2 
 PCOD9511126
Probable space group: F M M M
;
_chemical_formula_sum "Si O2"
_cell_formula_units_Z 112
_cell_length_a 7.691474
_cell_length_b 26.776359
_cell_length_c 29.821503
_cell_angle_alpha 90.000000
_cell_angle_beta 90.000000
_cell_angle_gamma 90.000000
_cell_volume 6141.728674
_symmetry_space_group_name_H-M "F M M M"
_symmetry_group_IT_number 69
_symmetry_cell_setting 'orthorhombic'
loop_
_space_group_symop_operation_xyz
x,y,z
-x,-y,z
x,-y,-z
-x,y,-z
-x,-y,-z
x,y,-z
-x,y,z
x,-y,z
x,1/2+y,1/2+z
-x,1/2-y,1/2+z
x,1/2-y,1/2-z
-x,1/2+y,1/2-z
-x,1/2-y,1/2-z
x,1/2+y,1/2-z
-x,1/2+y,1/2+z
x,1/2-y,1/2+z
1/2+x,y,1/2+z
1/2-x,-y,1/2+z
1/2+x,-y,1/2-z
1/2-x,y,1/2-z
1/2-x,-y,1/2-z
1/2+x,y,1/2-z
1/2-x,y,1/2+z
1/2+x,-y,1/2+z
1/2+x,1/2+y,z
1/2-x,1/2-y,z
1/2+x,1/2-y,-z
1/2-x,1/2+y,-z
1/2-x,1/2-y,-z
1/2+x,1/2+y,-z
1/2-x,1/2+y,z
1/2+x,1/2-y,z
loop_
_atom_site_type_symbol
_atom_site_label
_atom_site_fract_x
_atom_site_fract_y
_atom_site_fract_z
Si Si1 0.794759 0.306733 0.197738
Si Si2 0.788213 0.941859 0.450189
Si Si3 0.286276 0.401707 0.643801
Si Si4 0.208435 0.000000 0.302460
O O1 0.750000 0.314252 0.250000
O O2 0.750000 0.250000 0.185083
O O3 0.722356 0.350850 0.166787
O O4 0.000000 0.310551 0.194686
O O5 0.730452 0.926216 0.500000
O O6 0.730860 0.910059 0.407533
O O7 0.000000 0.941045 0.450391
O O8 0.738912 0.000000 0.443579
O O9 0.500000 0.401551 0.643979
O O10 0.229813 0.449763 0.672868
O O11 0.250000 0.000000 0.250000
O O12 0.000000 0.000000 0.307002
#
# Coordination Sequence:
#
# PCOD9511126 Si02
#       4
#    32  32  32  16
#     4  10  19  31  46  63  85 115 150 184 214 250
#     4   8  12  20  37  61  88 114 139 170 212 259
#     4   9  16  26  41  62  88 115 140 173 218 259
#     4  10  18  28  41  61  91 117 138 168 211 262
#
# _framework density 18.235908999999999
#
# number of rings (size 3 to 8) (size 9 to 14) (size 15 to 20)
#    0.000    2.857    1.429    3.429    0.000    0.000 
#    0.000    1.429    0.000    0.857    0.000    0.000 
#    0.000   10.286    0.000    0.000    0.000    1.143 
#
# Total GULP energy -156109.279418 kJ/mol
# GULP energy per Si atom -5575.331408 kJ/mol
# Density = 1.819440 g / cm^3
# Si number density = 18.235909 Si / 1000 Ang^3
#
#
#
# Elastic Constant Matrix: (Units=GPa)
#
#
# Indices 1 2 3 4 5 6 
#
# 1 30.2521 9.6566 3.4191 0.0000 0.0000 0.0000
# 2 9.6566 162.5647 123.1348 0.0000 0.0000 0.0000
# 3 3.4191 123.1348 179.9013 0.0000 0.0000 0.0000
# 4 0.0000 0.0000 0.0000 27.0414 0.0000 0.0000
# 5 0.0000 0.0000 0.0000 0.0000 7.0146 0.0000
# 6 0.0000 0.0000 0.0000 0.0000 0.0000 -7.2591
#
#
#
# Elastic Compliance Matrix: (Units=1/GPa)
#
#
# Indices 1 2 3 4 5 6 
#
# 1 0.033894 -0.003168 0.001524 0.000000 0.000000 0.000000
# 2 -0.003168 0.013070 -0.008886 0.000000 0.000000 0.000000
# 3 0.001524 -0.008886 0.011612 0.000000 0.000000 0.000000
# 4 0.000000 0.000000 0.000000 0.036980 0.000000 0.000000
# 5 0.000000 0.000000 0.000000 0.000000 0.142559 0.000000
# 6 0.000000 0.000000 0.000000 0.000000 0.000000 -0.137758
#
#
# Mechanical properties :
#
#
# Convention : Reuss Voigt Hill
#
# Bulk Modulus (GPa) = 26.65445 71.68212 49.16829
# Shear Modulus (GPa) = 37.33500 21.12656 29.23078
#
# Velocity S-wave (km/s) = 4.52966 3.40739 4.00800
# Velocity P-wave (km/s) = 6.48115 7.40770 6.95986
#
# Compressibility (1/GPa) = 0.03751718
#
# Stress axis : x y z
#
# Youngs Moduli (GPa) = 29.50335 76.51092 86.12145
#
# Poissons Ratio (x) = 0.24237 -0.13125
# Poissons Ratio (y) = 0.09346 0.76525
# Poissons Ratio (z) = -0.04496 0.67985
#
# Static dielectric constant tensor:
#      x y z
#    x 1.679280 0.000000 0.000000 
#    y 0.000000 1.643150 0.000000 
#    z 0.000000 0.000000 1.652950 
# 
# From -- ./inp_files/3742.got.cif
#   From: 2010.05.17/outbox.cif.g08.bks.cpg/sg69_2_cif.got.tgz:3742.got - 2010.06.03 19:29:58.
