data_PCOD9511376
_publ_section_title
;
Structure prediction by ZEFSAII (Michael W. Deem and Ramdas Pophale) SiO2 
 PCOD9511376
Probable space group: F M M M
;
_chemical_formula_sum "Si O2"
_cell_formula_units_Z 160
_cell_length_a 20.357370
_cell_length_b 14.448654
_cell_length_c 28.632117
_cell_angle_alpha 90.000000
_cell_angle_beta 90.000000
_cell_angle_gamma 90.000000
_cell_volume 8421.753416
_symmetry_space_group_name_H-M "F M M M"
_symmetry_group_IT_number 69
_symmetry_cell_setting 'orthorhombic'
loop_
_space_group_symop_operation_xyz
x,y,z
-x,-y,z
x,-y,-z
-x,y,-z
-x,-y,-z
x,y,-z
-x,y,z
x,-y,z
x,1/2+y,1/2+z
-x,1/2-y,1/2+z
x,1/2-y,1/2-z
-x,1/2+y,1/2-z
-x,1/2-y,1/2-z
x,1/2+y,1/2-z
-x,1/2+y,1/2+z
x,1/2-y,1/2+z
1/2+x,y,1/2+z
1/2-x,-y,1/2+z
1/2+x,-y,1/2-z
1/2-x,y,1/2-z
1/2-x,-y,1/2-z
1/2+x,y,1/2-z
1/2-x,y,1/2+z
1/2+x,-y,1/2+z
1/2+x,1/2+y,z
1/2-x,1/2-y,z
1/2+x,1/2-y,-z
1/2-x,1/2+y,-z
1/2-x,1/2-y,-z
1/2+x,1/2+y,-z
1/2-x,1/2+y,z
1/2+x,1/2-y,z
loop_
_atom_site_type_symbol
_atom_site_label
_atom_site_fract_x
_atom_site_fract_y
_atom_site_fract_z
Si Si1 0.221994 0.395134 0.154764
Si Si2 0.841524 0.727082 0.304217
Si Si3 0.792757 0.344337 0.051642
Si Si4 0.422995 0.766076 0.553233
Si Si5 0.422167 0.896701 0.637566
O O1 0.215210 0.500000 0.172011
O O2 0.163702 0.324427 0.168542
O O3 0.283472 0.341204 0.177785
O O4 0.227183 0.395908 0.098728
O O5 0.835639 0.750000 0.250000
O O6 0.904365 0.668663 0.319225
O O7 0.750000 0.250000 0.052292
O O8 0.869682 0.315726 0.055771
O O9 0.782673 0.386403 0.000000
O O10 0.419542 0.802084 0.500000
O O11 0.500000 0.740850 0.561835
O O12 0.401451 0.842860 0.590684
O O13 0.500000 0.905065 0.634478
O O14 0.393362 0.000000 0.641148
#
# Coordination Sequence:
#
# PCOD9511376 Si02
#       5
#    32  32  32  32  32
#     4  11  21  36  58  83 109 141 184 231 281 337
#     4  11  23  39  57  79 110 145 186 235 288 339
#     4  10  18  32  55  81 113 150 185 225 279 341
#     4   9  17  31  54  83 116 153 189 226 274 336
#     4  10  20  35  58  86 115 148 186 230 282 339
#
# _framework density 18.998418999999998
#
# number of rings (size 3 to 8) (size 9 to 14) (size 15 to 20)
#    0.000    1.800    4.000    1.800    0.000    3.600 
#    0.000    2.000    0.000    8.400    0.000    2.800 
#    0.000    0.000    0.000    0.000    0.000    0.000 
#
# Total GULP energy -222892.616586 kJ/mol
# GULP energy per Si atom -5572.315415 kJ/mol
# Density = 1.895518 g / cm^3
# Si number density = 18.998419 Si / 1000 Ang^3
#
#
#
# Elastic Constant Matrix: (Units=GPa)
#
#
# Indices 1 2 3 4 5 6 
#
# 1 32.0611 0.4261 7.6102 0.0000 0.0000 0.0000
# 2 0.4261 101.4584 37.5823 0.0000 0.0000 0.0000
# 3 7.6102 37.5823 145.4251 0.0000 0.0000 0.0000
# 4 0.0000 0.0000 0.0000 -1.5819 0.0000 0.0000
# 5 0.0000 0.0000 0.0000 0.0000 24.6400 0.0000
# 6 0.0000 0.0000 0.0000 0.0000 0.0000 9.9029
#
#
#
# Elastic Compliance Matrix: (Units=1/GPa)
#
#
# Indices 1 2 3 4 5 6 
#
# 1 0.031609 0.000531 -0.001791 0.000000 0.000000 0.000000
# 2 0.000531 0.010909 -0.002847 0.000000 0.000000 0.000000
# 3 -0.001791 -0.002847 0.007706 0.000000 0.000000 0.000000
# 4 0.000000 0.000000 0.000000 -0.632155 0.000000 0.000000
# 5 0.000000 0.000000 0.000000 0.000000 0.040584 0.000000
# 6 0.000000 0.000000 0.000000 0.000000 0.000000 0.100981
#
#
# Mechanical properties :
#
#
# Convention : Reuss Voigt Hill
#
# Bulk Modulus (GPa) = 23.80485 41.13132 32.46808
# Shear Modulus (GPa) = -11.95744 22.14726 5.09491
#
# Velocity S-wave (km/s) = -2.51149 3.41800 1.63938
# Velocity P-wave (km/s) = 2.03642 6.10523 4.55087
#
# Compressibility (1/GPa) = 0.04200825
#
# Stress axis : x y z
#
# Youngs Moduli (GPa) = 31.63695 91.67106 129.77153
#
# Poissons Ratio (x) = -0.04866 0.23246
# Poissons Ratio (y) = -0.01679 0.36944
# Poissons Ratio (z) = 0.05667 0.26098
#
# Static dielectric constant tensor:
#      x y z
#    x 1.748600 0.000000 0.000000 
#    y 0.000000 1.683260 0.000000 
#    z 0.000000 0.000000 1.673820 
# 
# From -- ./inp_files/17970.got.cif
#   From: 2010.05.17/outbox.cif.g08.bks.cpg/sg69_9_cif.got.tgz:17970.got - 2010.06.03 19:29:58.
