data_PCOD9511189
_publ_section_title
;
Structure prediction by ZEFSAII (Michael W. Deem and Ramdas Pophale) SiO2 
 PCOD9511189
Probable space group: F M M M
;
_chemical_formula_sum "Si O2"
_cell_formula_units_Z 176
_cell_length_a 20.774763
_cell_length_b 17.118122
_cell_length_c 29.044867
_cell_angle_alpha 90.000000
_cell_angle_beta 90.000000
_cell_angle_gamma 90.000000
_cell_volume 10329.078723
_symmetry_space_group_name_H-M "F M M M"
_symmetry_group_IT_number 69
_symmetry_cell_setting 'orthorhombic'
loop_
_space_group_symop_operation_xyz
x,y,z
-x,-y,z
x,-y,-z
-x,y,-z
-x,-y,-z
x,y,-z
-x,y,z
x,-y,z
x,1/2+y,1/2+z
-x,1/2-y,1/2+z
x,1/2-y,1/2-z
-x,1/2+y,1/2-z
-x,1/2-y,1/2-z
x,1/2+y,1/2-z
-x,1/2+y,1/2+z
x,1/2-y,1/2+z
1/2+x,y,1/2+z
1/2-x,-y,1/2+z
1/2+x,-y,1/2-z
1/2-x,y,1/2-z
1/2-x,-y,1/2-z
1/2+x,y,1/2-z
1/2-x,y,1/2+z
1/2+x,-y,1/2+z
1/2+x,1/2+y,z
1/2-x,1/2-y,z
1/2+x,1/2-y,-z
1/2-x,1/2+y,-z
1/2-x,1/2-y,-z
1/2+x,1/2+y,-z
1/2-x,1/2+y,z
1/2+x,1/2-y,z
loop_
_atom_site_type_symbol
_atom_site_label
_atom_site_fract_x
_atom_site_fract_y
_atom_site_fract_z
Si Si1 0.684461 0.405012 0.275252
Si Si2 0.323196 0.283746 0.447277
Si Si3 0.636031 0.141454 0.610861
Si Si4 0.425195 0.406032 0.795850
Si Si5 0.424034 0.500000 0.054745
Si Si6 0.284408 0.593291 0.622904
O O1 0.686336 0.500000 0.275760
O O2 0.750000 0.378713 0.250000
O O3 0.622533 0.382784 0.245390
O O4 0.685553 0.380197 0.328362
O O5 0.345481 0.290082 0.500000
O O6 0.250000 0.250000 0.448680
O O7 0.362771 0.222499 0.416577
O O8 0.317973 0.364601 0.419908
O O9 0.595752 0.137728 0.657765
O O10 0.608307 0.075435 0.577201
O O11 0.709513 0.118404 0.623212
O O12 0.500000 0.393568 0.785204
O O13 0.416131 0.500000 0.804229
O O14 0.500000 0.500000 0.065255
O O15 0.415283 0.500000 0.000000
O O16 0.287747 0.500000 0.619507
#
# Coordination Sequence:
#
# PCOD9511189 Si02
#       6
#    32  32  32  32  16  32
#     4   9  16  28  49  76 106 139 178 221 266 323
#     4   9  20  34  48  71 104 138 176 224 275 317
#     4  11  18  32  50  73 108 145 180 219 269 319
#     4  10  18  29  50  80 111 143 176 214 262 325
#     4  11  22  32  48  77 110 146 187 220 260 332
#     4  10  18  32  54  77 101 139 187 225 268 317
#
# _framework density 17.039273999999999
#
# number of rings (size 3 to 8) (size 9 to 14) (size 15 to 20)
#    0.000    2.091    3.636    1.091    0.000    1.091 
#    0.000    0.909    0.000    3.273    0.000    0.000 
#    0.000    0.000    0.000   16.000    0.000    0.000 
#
# Total GULP energy -245436.167073 kJ/mol
# GULP energy per Si atom -5578.094706 kJ/mol
# Density = 1.700049 g / cm^3
# Si number density = 17.039274 Si / 1000 Ang^3
#
#
#
# Elastic Constant Matrix: (Units=GPa)
#
#
# Indices 1 2 3 4 5 6 
#
# 1 91.0869 20.4111 61.4046 0.0000 0.0000 0.0000
# 2 20.4111 33.7417 38.7216 0.0000 0.0000 0.0000
# 3 61.4046 38.7216 139.7905 0.0000 0.0000 0.0000
# 4 0.0000 0.0000 0.0000 20.3595 0.0000 0.0000
# 5 0.0000 0.0000 0.0000 0.0000 20.0900 0.0000
# 6 0.0000 0.0000 0.0000 0.0000 0.0000 7.6621
#
#
#
# Elastic Compliance Matrix: (Units=1/GPa)
#
#
# Indices 1 2 3 4 5 6 
#
# 1 0.015720 -0.002324 -0.006262 0.000000 0.000000 0.000000
# 2 -0.002324 0.043792 -0.011109 0.000000 0.000000 0.000000
# 3 -0.006262 -0.011109 0.012981 0.000000 0.000000 0.000000
# 4 0.000000 0.000000 0.000000 0.049117 0.000000 0.000000
# 5 0.000000 0.000000 0.000000 0.000000 0.049776 0.000000
# 6 0.000000 0.000000 0.000000 0.000000 0.000000 0.130513
#
#
# Mechanical properties :
#
#
# Convention : Reuss Voigt Hill
#
# Bulk Modulus (GPa) = 30.20815 56.18820 43.19818
# Shear Modulus (GPa) = 14.19149 19.22777 16.70963
#
# Velocity S-wave (km/s) = 2.88908 3.36287 3.13494
# Velocity P-wave (km/s) = 5.37551 6.93728 6.20572
#
# Compressibility (1/GPa) = 0.03310364
#
# Stress axis : x y z
#
# Youngs Moduli (GPa) = 63.61128 22.83538 77.03344
#
# Poissons Ratio (x) = 0.05307 0.48236
# Poissons Ratio (y) = 0.14782 0.85580
# Poissons Ratio (z) = 0.39832 0.25369
#
# Static dielectric constant tensor:
#      x y z
#    x 1.560930 0.000000 0.000000 
#    y 0.000000 1.015020 0.000000 
#    z 0.000000 0.000000 1.578220 
# 
# From -- ./inp_files/27684.got.cif
#   From: 2010.05.17/outbox.cif.g08.bks.cpg/sg69_14_cif.got.tgz:27684.got - 2010.06.03 19:29:58.
