data_PCOD9511215
_publ_section_title
;
Structure prediction by ZEFSAII (Michael W. Deem and Ramdas Pophale) SiO2 
 PCOD9511215
Probable space group: F M M M
;
_chemical_formula_sum "Si O2"
_cell_formula_units_Z 160
_cell_length_a 15.542052
_cell_length_b 23.987654
_cell_length_c 23.399772
_cell_angle_alpha 90.000000
_cell_angle_beta 90.000000
_cell_angle_gamma 90.000000
_cell_volume 8723.841358
_symmetry_space_group_name_H-M "F M M M"
_symmetry_group_IT_number 69
_symmetry_cell_setting 'orthorhombic'
loop_
_space_group_symop_operation_xyz
x,y,z
-x,-y,z
x,-y,-z
-x,y,-z
-x,-y,-z
x,y,-z
-x,y,z
x,-y,z
x,1/2+y,1/2+z
-x,1/2-y,1/2+z
x,1/2-y,1/2-z
-x,1/2+y,1/2-z
-x,1/2-y,1/2-z
x,1/2+y,1/2-z
-x,1/2+y,1/2+z
x,1/2-y,1/2+z
1/2+x,y,1/2+z
1/2-x,-y,1/2+z
1/2+x,-y,1/2-z
1/2-x,y,1/2-z
1/2-x,-y,1/2-z
1/2+x,y,1/2-z
1/2-x,y,1/2+z
1/2+x,-y,1/2+z
1/2+x,1/2+y,z
1/2-x,1/2-y,z
1/2+x,1/2-y,-z
1/2-x,1/2+y,-z
1/2-x,1/2-y,-z
1/2+x,1/2+y,-z
1/2-x,1/2+y,z
1/2+x,1/2-y,z
loop_
_atom_site_type_symbol
_atom_site_label
_atom_site_fract_x
_atom_site_fract_y
_atom_site_fract_z
Si Si1 0.902998 0.301918 0.217821
Si Si2 0.104046 0.000000 0.217786
Si Si3 0.825515 0.616954 0.298271
Si Si4 0.398393 0.600322 0.435826
Si Si5 0.103661 0.000000 0.648201
Si Si6 0.722649 0.813375 0.887027
O O1 0.860937 0.250000 0.250000
O O2 0.899716 0.352053 0.262497
O O3 0.849600 0.311120 0.161905
O O4 0.000000 0.287978 0.202427
O O5 0.144108 0.945146 0.189735
O O6 0.130432 0.000000 0.285562
O O7 0.000000 0.000000 0.215077
O O8 0.750000 0.616368 0.250000
O O9 0.797619 0.651982 0.354046
O O10 0.396879 0.575947 0.500000
O O11 0.500000 0.616368 0.425419
O O12 0.372327 0.555214 0.387498
O O13 0.328688 0.649971 0.433204
O O14 0.000000 0.000000 0.648737
O O15 0.750000 0.750000 0.902226
#
# Coordination Sequence:
#
# PCOD9511215 Si02
#       6
#    32  16  32  32  16  32
#     4  10  18  30  49  71  99 137 177 209 241 297
#     4  11  21  34  50  76 112 146 173 202 243 305
#     4  10  20  31  48  72 107 137 174 208 254 302
#     4  10  21  37  57  78  99 129 172 221 270 316
#     4   9  17  33  55  77  99 126 163 209 259 306
#     4  11  21  34  50  75 108 140 175 213 254 304
#
# _framework density 18.340544000000001
#
# number of rings (size 3 to 8) (size 9 to 14) (size 15 to 20)
#    0.000    1.800    2.000    4.200    0.000    4.000 
#    0.000    0.000    0.000    0.000    0.000    0.000 
#    0.000    0.800    0.000    0.000    0.000    0.000 
#
# Total GULP energy -222942.997254 kJ/mol
# GULP energy per Si atom -5573.574931 kJ/mol
# Density = 1.829880 g / cm^3
# Si number density = 18.340544 Si / 1000 Ang^3
#
#
#
# Elastic Constant Matrix: (Units=GPa)
#
#
# Indices 1 2 3 4 5 6 
#
# 1 53.4219 19.0245 13.0713 0.0000 0.0000 0.0000
# 2 19.0245 115.9680 14.8937 0.0000 0.0000 0.0000
# 3 13.0713 14.8937 48.3360 0.0000 0.0000 0.0000
# 4 0.0000 0.0000 0.0000 13.8373 0.0000 0.0000
# 5 0.0000 0.0000 0.0000 0.0000 -7.6138 0.0000
# 6 0.0000 0.0000 0.0000 0.0000 0.0000 27.9285
#
#
#
# Elastic Compliance Matrix: (Units=1/GPa)
#
#
# Indices 1 2 3 4 5 6 
#
# 1 0.020891 -0.002813 -0.004783 0.000000 0.000000 0.000000
# 2 -0.002813 0.009357 -0.002123 0.000000 0.000000 0.000000
# 3 -0.004783 -0.002123 0.022636 0.000000 0.000000 0.000000
# 4 0.000000 0.000000 0.000000 0.072269 0.000000 0.000000
# 5 0.000000 0.000000 0.000000 0.000000 -0.131340 0.000000
# 6 0.000000 0.000000 0.000000 0.000000 0.000000 0.035806
#
#
# Mechanical properties :
#
#
# Convention : Reuss Voigt Hill
#
# Bulk Modulus (GPa) = 29.89748 34.63390 32.26569
# Shear Modulus (GPa) = 83.05191 18.21281 50.63236
#
# Velocity S-wave (km/s) = 6.73658 3.15467 5.25992
# Velocity P-wave (km/s) = 8.76615 5.67398 7.38375
#
# Compressibility (1/GPa) = 0.03344763
#
# Stress axis : x y z
#
# Youngs Moduli (GPa) = 47.86779 106.87046 44.17765
#
# Poissons Ratio (x) = 0.30062 0.21129
# Poissons Ratio (y) = 0.13465 0.09377
# Poissons Ratio (z) = 0.22894 0.22683
#
# Static dielectric constant tensor:
#      x y z
#    x 1.652420 0.000000 0.000000 
#    y 0.000000 1.716590 0.000000 
#    z 0.000000 0.000000 1.647750 
# 
# From -- ./inp_files/18037.got.cif
#   From: 2010.05.17/outbox.cif.g08.bks.cpg/sg69_10_cif.got.tgz:18037.got - 2010.06.03 19:29:58.
