data_PCOD9511770
_publ_section_title
;
Structure prediction by ZEFSAII (Michael W. Deem and Ramdas Pophale) SiO2 
 PCOD9511770
Probable space group: F M M M
;
_chemical_formula_sum "Si O2"
_cell_formula_units_Z 160
_cell_length_a 29.069224
_cell_length_b 17.727346
_cell_length_c 16.775932
_cell_angle_alpha 90.000000
_cell_angle_beta 90.000000
_cell_angle_gamma 90.000000
_cell_volume 8644.976496
_symmetry_space_group_name_H-M "F M M M"
_symmetry_group_IT_number 69
_symmetry_cell_setting 'orthorhombic'
loop_
_space_group_symop_operation_xyz
x,y,z
-x,-y,z
x,-y,-z
-x,y,-z
-x,-y,-z
x,y,-z
-x,y,z
x,-y,z
x,1/2+y,1/2+z
-x,1/2-y,1/2+z
x,1/2-y,1/2-z
-x,1/2+y,1/2-z
-x,1/2-y,1/2-z
x,1/2+y,1/2-z
-x,1/2+y,1/2+z
x,1/2-y,1/2+z
1/2+x,y,1/2+z
1/2-x,-y,1/2+z
1/2+x,-y,1/2-z
1/2-x,y,1/2-z
1/2-x,-y,1/2-z
1/2+x,y,1/2-z
1/2-x,y,1/2+z
1/2+x,-y,1/2+z
1/2+x,1/2+y,z
1/2-x,1/2-y,z
1/2+x,1/2-y,-z
1/2-x,1/2+y,-z
1/2-x,1/2-y,-z
1/2+x,1/2+y,-z
1/2-x,1/2+y,z
1/2+x,1/2-y,z
loop_
_atom_site_type_symbol
_atom_site_label
_atom_site_fract_x
_atom_site_fract_y
_atom_site_fract_z
Si Si1 0.054537 0.085608 0.761595
Si Si2 0.392335 0.351800 0.089554
Si Si3 0.798305 0.912780 0.146051
Si Si4 0.194069 0.412219 0.839043
Si Si5 0.115637 0.798170 0.670743
O O1 0.079924 0.100291 0.845389
O O2 0.075999 0.146187 0.701614
O O3 0.000000 0.094895 0.769763
O O4 0.064550 0.000000 0.735581
O O5 0.338045 0.365335 0.105014
O O6 0.401080 0.264226 0.109011
O O7 0.404391 0.372044 0.000000
O O8 0.804906 0.909933 0.242002
O O9 0.745249 0.892134 0.131115
O O10 0.804321 0.000000 0.121978
O O11 0.184502 0.500000 0.860716
O O12 0.156263 0.350924 0.861821
O O13 0.130704 0.750000 0.750000
#
# Coordination Sequence:
#
# PCOD9511770 Si02
#       5
#    32  32  32  32  32
#     4  10  21  38  61  85 104 132 182 236 276 314
#     4  11  23  36  51  79 119 153 175 210 273 339
#     4   9  17  30  50  77 105 137 180 225 265 308
#     4   9  16  30  53  76  99 134 185 232 263 300
#     4  10  19  33  53  79 108 142 179 222 269 319
#
# _framework density 18.507857999999999
#
# number of rings (size 3 to 8) (size 9 to 14) (size 15 to 20)
#    0.000    2.200    4.000    2.400    0.000    6.400 
#    0.000    3.000    0.000    3.600    0.000    1.400 
#    0.000    0.000    0.000    0.000    0.000    0.000 
#
# Total GULP energy -223130.899165 kJ/mol
# GULP energy per Si atom -5578.272479 kJ/mol
# Density = 1.846573 g / cm^3
# Si number density = 18.507858 Si / 1000 Ang^3
#
#
#
# Elastic Constant Matrix: (Units=GPa)
#
#
# Indices 1 2 3 4 5 6 
#
# 1 79.6016 48.9819 13.0736 0.0000 0.0000 0.0000
# 2 48.9819 83.9029 3.1890 0.0000 0.0000 0.0000
# 3 13.0736 3.1890 23.2271 0.0000 0.0000 0.0000
# 4 0.0000 0.0000 0.0000 4.0472 0.0000 0.0000
# 5 0.0000 0.0000 0.0000 0.0000 4.4167 0.0000
# 6 0.0000 0.0000 0.0000 0.0000 0.0000 -22.0119
#
#
#
# Elastic Compliance Matrix: (Units=1/GPa)
#
#
# Indices 1 2 3 4 5 6 
#
# 1 0.021946 -0.012407 -0.010649 0.000000 0.000000 0.000000
# 2 -0.012407 0.018996 0.004376 0.000000 0.000000 0.000000
# 3 -0.010649 0.004376 0.048446 0.000000 0.000000 0.000000
# 4 0.000000 0.000000 0.000000 0.247086 0.000000 0.000000
# 5 0.000000 0.000000 0.000000 0.000000 0.226413 0.000000
# 6 0.000000 0.000000 0.000000 0.000000 0.000000 -0.045430
#
#
# Mechanical properties :
#
#
# Convention : Reuss Voigt Hill
#
# Bulk Modulus (GPa) = 19.22105 35.24672 27.23388
# Shear Modulus (GPa) = 8.73880 5.38954 7.06417
#
# Velocity S-wave (km/s) = 2.17530 1.70832 1.95580
# Velocity P-wave (km/s) = 4.08866 4.79340 4.45499
#
# Compressibility (1/GPa) = 0.05202630
#
# Stress axis : x y z
#
# Youngs Moduli (GPa) = 45.56592 52.64400 20.64137
#
# Poissons Ratio (x) = 0.65317 0.21981
# Poissons Ratio (y) = 0.56535 -0.09032
# Poissons Ratio (z) = 0.48524 -0.23034
#
# Static dielectric constant tensor:
#      x y z
#    x 1.638570 0.000000 0.000000 
#    y 0.000000 1.645590 0.000000 
#    z 0.000000 0.000000 1.629900 
# 
# From -- ./inp_files/23167.got.cif
#   From: 2010.05.17/outbox.cif.g08.bks.cpg/sg69_12_cif.got.tgz:23167.got - 2010.06.03 19:29:58.
