data_PCOD9511118
_publ_section_title
;
Structure prediction by ZEFSAII (Michael W. Deem and Ramdas Pophale) SiO2 
 PCOD9511118
Probable space group: F M M M
;
_chemical_formula_sum "Si O2"
_cell_formula_units_Z 144
_cell_length_a 15.344205
_cell_length_b 15.052260
_cell_length_c 33.719580
_cell_angle_alpha 90.000000
_cell_angle_beta 90.000000
_cell_angle_gamma 90.000000
_cell_volume 7788.041552
_symmetry_space_group_name_H-M "F M M M"
_symmetry_group_IT_number 69
_symmetry_cell_setting 'orthorhombic'
loop_
_space_group_symop_operation_xyz
x,y,z
-x,-y,z
x,-y,-z
-x,y,-z
-x,-y,-z
x,y,-z
-x,y,z
x,-y,z
x,1/2+y,1/2+z
-x,1/2-y,1/2+z
x,1/2-y,1/2-z
-x,1/2+y,1/2-z
-x,1/2-y,1/2-z
x,1/2+y,1/2-z
-x,1/2+y,1/2+z
x,1/2-y,1/2+z
1/2+x,y,1/2+z
1/2-x,-y,1/2+z
1/2+x,-y,1/2-z
1/2-x,y,1/2-z
1/2-x,-y,1/2-z
1/2+x,y,1/2-z
1/2-x,y,1/2+z
1/2+x,-y,1/2+z
1/2+x,1/2+y,z
1/2-x,1/2-y,z
1/2+x,1/2-y,-z
1/2-x,1/2+y,-z
1/2-x,1/2-y,-z
1/2+x,1/2+y,-z
1/2-x,1/2+y,z
1/2+x,1/2-y,z
loop_
_atom_site_type_symbol
_atom_site_label
_atom_site_fract_x
_atom_site_fract_y
_atom_site_fract_z
Si Si1 0.717816 0.108068 0.160425
Si Si2 0.100714 0.391271 0.913386
Si Si3 0.904361 0.101239 0.822752
Si Si4 0.402093 0.850441 0.765624
Si Si5 0.606014 0.397633 0.500000
O O1 0.662208 0.136420 0.122463
O O2 0.816783 0.143676 0.160242
O O3 0.668317 0.133170 0.200792
O O4 0.722022 0.000000 0.160158
O O5 0.101218 0.500000 0.914695
O O6 0.130183 0.358993 0.957115
O O7 0.000000 0.365199 0.906656
O O8 0.890784 0.096793 0.775271
O O9 0.000000 0.143606 0.829370
O O10 0.908990 0.000000 0.837671
O O11 0.500000 0.869119 0.781190
O O12 0.398364 0.750000 0.750000
O O13 0.636528 0.500000 0.500000
O O14 0.500000 0.399811 0.500000
#
# Coordination Sequence:
#
# PCOD9511118 Si02
#       5
#    32  32  32  32  16
#     4  10  18  27  42  62  81 107 143 175 201 235
#     4   8  13  21  35  57  83 107 130 158 195 241
#     4   9  18  31  43  55  75 105 140 176 211 242
#     4  10  20  31  42  58  82 109 135 167 208 249
#     4   7  10  18  32  52  81 110 127 147 191 245
#
# _framework density 18.489885999999998
#
# number of rings (size 3 to 8) (size 9 to 14) (size 15 to 20)
#    0.000    3.000    0.000    3.333    0.000    5.778 
#    0.000    0.000    0.000    0.000    0.000    0.778 
#    0.000    9.778    0.000    8.556    0.000   12.333 
#
# Total GULP energy -200536.834775 kJ/mol
# GULP energy per Si atom -5570.467633 kJ/mol
# Density = 1.844780 g / cm^3
# Si number density = 18.489886 Si / 1000 Ang^3
#
#
#
# Elastic Constant Matrix: (Units=GPa)
#
#
# Indices 1 2 3 4 5 6 
#
# 1 159.5189 1.6293 83.6272 0.0000 0.0000 0.0000
# 2 1.6293 22.6772 -2.3484 0.0000 0.0000 0.0000
# 3 83.6272 -2.3484 97.8533 0.0000 0.0000 0.0000
# 4 0.0000 0.0000 0.0000 0.6813 0.0000 0.0000
# 5 0.0000 0.0000 0.0000 0.0000 10.0585 0.0000
# 6 0.0000 0.0000 0.0000 0.0000 0.0000 8.0926
#
#
#
# Elastic Compliance Matrix: (Units=1/GPa)
#
#
# Indices 1 2 3 4 5 6 
#
# 1 0.011433 -0.001838 -0.009815 0.000000 0.000000 0.000000
# 2 -0.001838 0.044502 0.002639 0.000000 0.000000 0.000000
# 3 -0.009815 0.002639 0.018671 0.000000 0.000000 0.000000
# 4 0.000000 0.000000 0.000000 1.467686 0.000000 0.000000
# 5 0.000000 0.000000 0.000000 0.000000 0.099419 0.000000
# 6 0.000000 0.000000 0.000000 0.000000 0.000000 0.123570
#
#
# Mechanical properties :
#
#
# Convention : Reuss Voigt Hill
#
# Bulk Modulus (GPa) = 17.67474 49.54062 33.60768
# Shear Modulus (GPa) = 2.77443 16.90923 9.84183
#
# Velocity S-wave (km/s) = 1.22628 3.02737 2.30963
# Velocity P-wave (km/s) = 3.40366 6.25072 5.03271
#
# Compressibility (1/GPa) = 0.05657791
#
# Stress axis : x y z
#
# Youngs Moduli (GPa) = 87.46505 22.47068 53.55945
#
# Poissons Ratio (x) = 0.04130 0.52569
# Poissons Ratio (y) = 0.16075 -0.14133
# Poissons Ratio (z) = 0.85848 -0.05929
#
# Static dielectric constant tensor:
#      x y z
#    x 1.678270 0.000000 0.000000 
#    y 0.000000 1.738460 0.000000 
#    z 0.000000 0.000000 1.633260 
# 
# From -- ./inp_files/45626.got.cif
#   From: 2010.05.17/outbox.cif.g08.bks.cpg/sg69_23_cif.got.tgz:45626.got - 2010.06.03 19:29:58.
