data_PCOD9511437
_publ_section_title
;
Structure prediction by ZEFSAII (Michael W. Deem and Ramdas Pophale) SiO2 
 PCOD9511437
Probable space group: F M M M
;
_chemical_formula_sum "Si O2"
_cell_formula_units_Z 160
_cell_length_a 20.477181
_cell_length_b 16.487292
_cell_length_c 25.528167
_cell_angle_alpha 90.000000
_cell_angle_beta 90.000000
_cell_angle_gamma 90.000000
_cell_volume 8618.647746
_symmetry_space_group_name_H-M "F M M M"
_symmetry_group_IT_number 69
_symmetry_cell_setting 'orthorhombic'
loop_
_space_group_symop_operation_xyz
x,y,z
-x,-y,z
x,-y,-z
-x,y,-z
-x,-y,-z
x,y,-z
-x,y,z
x,-y,z
x,1/2+y,1/2+z
-x,1/2-y,1/2+z
x,1/2-y,1/2-z
-x,1/2+y,1/2-z
-x,1/2-y,1/2-z
x,1/2+y,1/2-z
-x,1/2+y,1/2+z
x,1/2-y,1/2+z
1/2+x,y,1/2+z
1/2-x,-y,1/2+z
1/2+x,-y,1/2-z
1/2-x,y,1/2-z
1/2-x,-y,1/2-z
1/2+x,y,1/2-z
1/2-x,y,1/2+z
1/2+x,-y,1/2+z
1/2+x,1/2+y,z
1/2-x,1/2-y,z
1/2+x,1/2-y,-z
1/2-x,1/2+y,-z
1/2-x,1/2-y,-z
1/2+x,1/2+y,-z
1/2-x,1/2+y,z
1/2+x,1/2-y,z
loop_
_atom_site_type_symbol
_atom_site_label
_atom_site_fract_x
_atom_site_fract_y
_atom_site_fract_z
Si Si1 0.924242 0.161409 0.723932
Si Si2 0.124864 0.401806 0.000000
Si Si3 0.378270 0.403946 0.615729
Si Si4 0.809170 0.093867 0.213528
Si Si5 0.777381 0.596676 0.500000
Si Si6 0.231314 0.343164 0.607838
O O1 0.913280 0.250000 0.750000
O O2 0.906408 0.150053 0.662684
O O3 0.875257 0.102833 0.754450
O O4 0.000000 0.141148 0.730826
O O5 0.097746 0.378889 0.942799
O O6 0.201002 0.376106 0.000000
O O7 0.124558 0.500000 0.000000
O O8 0.392748 0.500000 0.623981
O O9 0.299378 0.392921 0.614924
O O10 0.750000 0.125092 0.250000
O O11 0.810225 0.141942 0.159574
O O12 0.795454 0.000000 0.201676
O O13 0.779123 0.500000 0.500000
O O14 0.803894 0.629040 0.554741
O O15 0.250000 0.250000 0.603154
#
# Coordination Sequence:
#
# PCOD9511437 Si02
#       6
#    32  16  32  32  16  32
#     4  11  24  39  55  78 110 148 189 234 284 334
#     4   7  14  27  50  79 105 136 174 217 262 321
#     4  10  18  34  56  79 110 147 183 223 276 338
#     4  11  22  35  55  82 109 143 188 229 271 330
#     4   9  17  31  49  74 111 146 181 224 274 330
#     4  11  20  31  52  81 113 144 180 228 283 331
#
# _framework density 18.564397
#
# number of rings (size 3 to 8) (size 9 to 14) (size 15 to 20)
#    0.000    1.800    2.000    5.100    0.000    1.600 
#    0.000    0.500    0.000    1.800    0.000    2.100 
#    0.000    2.400    0.000    0.000    0.000    0.600 
#
# Total GULP energy -223137.587167 kJ/mol
# GULP energy per Si atom -5578.439679 kJ/mol
# Density = 1.852214 g / cm^3
# Si number density = 18.564397 Si / 1000 Ang^3
#
#
#
# Elastic Constant Matrix: (Units=GPa)
#
#
# Indices 1 2 3 4 5 6 
#
# 1 41.8014 -0.2173 25.9484 0.0000 0.0000 0.0000
# 2 -0.2173 50.5854 41.5194 0.0000 0.0000 0.0000
# 3 25.9484 41.5194 188.0787 0.0000 0.0000 0.0000
# 4 0.0000 0.0000 0.0000 18.1411 0.0000 0.0000
# 5 0.0000 0.0000 0.0000 0.0000 10.7709 0.0000
# 6 0.0000 0.0000 0.0000 0.0000 0.0000 7.9934
#
#
#
# Elastic Compliance Matrix: (Units=1/GPa)
#
#
# Indices 1 2 3 4 5 6 
#
# 1 0.026761 0.003841 -0.004540 0.000000 0.000000 0.000000
# 2 0.003841 0.024694 -0.005981 0.000000 0.000000 0.000000
# 3 -0.004540 -0.005981 0.007264 0.000000 0.000000 0.000000
# 4 0.000000 0.000000 0.000000 0.055123 0.000000 0.000000
# 5 0.000000 0.000000 0.000000 0.000000 0.092843 0.000000
# 6 0.000000 0.000000 0.000000 0.000000 0.000000 0.125104
#
#
# Mechanical properties :
#
#
# Convention : Reuss Voigt Hill
#
# Bulk Modulus (GPa) = 22.04641 46.10738 34.07690
# Shear Modulus (GPa) = 13.87852 21.59541 17.73697
#
# Velocity S-wave (km/s) = 2.73717 3.41438 3.09436
# Velocity P-wave (km/s) = 4.67877 6.35880 5.58235
#
# Compressibility (1/GPa) = 0.04535885
#
# Stress axis : x y z
#
# Youngs Moduli (GPa) = 37.36791 40.49495 137.67038
#
# Poissons Ratio (x) = -0.15556 0.62504
# Poissons Ratio (y) = -0.14354 0.82346
# Poissons Ratio (z) = 0.16965 0.24222
#
# Static dielectric constant tensor:
#      x y z
#    x 1.624630 0.000000 0.000000 
#    y 0.000000 1.643180 0.000000 
#    z 0.000000 0.000000 1.693820 
# 
# From -- ./inp_files/37225.got.cif
#   From: 2010.05.17/outbox.cif.g08.bks.cpg/sg69_19_cif.got.tgz:37225.got - 2010.06.03 19:29:58.
