data_PCOD9511324
_publ_section_title
;
Structure prediction by ZEFSAII (Michael W. Deem and Ramdas Pophale) SiO2 
 PCOD9511324
Probable space group: F M M M
;
_chemical_formula_sum "Si O2"
_cell_formula_units_Z 192
_cell_length_a 16.556153
_cell_length_b 17.346841
_cell_length_c 32.688858
_cell_angle_alpha 90.000000
_cell_angle_beta 90.000000
_cell_angle_gamma 90.000000
_cell_volume 9388.140436
_symmetry_space_group_name_H-M "F M M M"
_symmetry_group_IT_number 69
_symmetry_cell_setting 'orthorhombic'
loop_
_space_group_symop_operation_xyz
x,y,z
-x,-y,z
x,-y,-z
-x,y,-z
-x,-y,-z
x,y,-z
-x,y,z
x,-y,z
x,1/2+y,1/2+z
-x,1/2-y,1/2+z
x,1/2-y,1/2-z
-x,1/2+y,1/2-z
-x,1/2-y,1/2-z
x,1/2+y,1/2-z
-x,1/2+y,1/2+z
x,1/2-y,1/2+z
1/2+x,y,1/2+z
1/2-x,-y,1/2+z
1/2+x,-y,1/2-z
1/2-x,y,1/2-z
1/2-x,-y,1/2-z
1/2+x,y,1/2-z
1/2-x,y,1/2+z
1/2+x,-y,1/2+z
1/2+x,1/2+y,z
1/2-x,1/2-y,z
1/2+x,1/2-y,-z
1/2-x,1/2+y,-z
1/2-x,1/2-y,-z
1/2+x,1/2+y,-z
1/2-x,1/2+y,z
1/2+x,1/2-y,z
loop_
_atom_site_type_symbol
_atom_site_label
_atom_site_fract_x
_atom_site_fract_y
_atom_site_fract_z
Si Si1 0.093901 0.091174 0.186777
Si Si2 0.642461 0.333000 0.896852
Si Si3 0.902726 0.331724 0.139241
Si Si4 0.000000 0.906833 0.049198
Si Si5 0.696239 0.410960 0.577856
Si Si6 0.591251 0.593438 0.500000
Si Si7 0.593042 0.835861 0.767819
O O1 0.136709 0.125834 0.147443
O O2 0.129421 0.114385 0.230900
O O3 0.000000 0.120271 0.185232
O O4 0.092303 0.000000 0.183213
O O5 0.625279 0.244362 0.885499
O O6 0.576005 0.368713 0.927516
O O7 0.728209 0.355378 0.915610
O O8 0.862415 0.403275 0.116639
O O9 0.873833 0.331744 0.186383
O O10 0.000000 0.333000 0.138332
O O11 0.000000 0.000000 0.055436
O O12 0.000000 0.893149 0.000000
O O13 0.722654 0.500000 0.572138
O O14 0.642114 0.385489 0.539643
O O15 0.585876 0.500000 0.500000
O O16 0.500000 0.624205 0.500000
O O17 0.500000 0.863507 0.772469
O O18 0.591933 0.750000 0.750000
#
# Coordination Sequence:
#
# PCOD9511324 Si02
#       7
#    32  32  32  16  32  16  32
#     4  10  18  31  57  90 123 167 218 263 314 384
#     4  12  22  41  62  95 133 171 213 261 327 393
#     4  11  22  41  66  93 128 170 215 268 326 384
#     4  11  24  40  64  95 133 177 217 262 320 390
#     4  11  25  42  65  95 128 166 213 269 324 383
#     4   9  20  44  71  93 121 167 220 264 314 382
#     4   9  17  32  57  87 119 158 211 264 306 368
#
# _framework density 20.451333999999999
#
# number of rings (size 3 to 8) (size 9 to 14) (size 15 to 20)
#    0.000    1.500    3.333    2.500    1.167    1.667 
#    1.500    3.333    0.000    2.000    0.000    0.000 
#    0.000    0.000    0.000    0.000    0.000    0.000 
#
# Total GULP energy -267974.423607 kJ/mol
# GULP energy per Si atom -5582.800492 kJ/mol
# Density = 2.040479 g / cm^3
# Si number density = 20.451334 Si / 1000 Ang^3
#
#
#
# Elastic Constant Matrix: (Units=GPa)
#
#
# Indices 1 2 3 4 5 6 
#
# 1 102.7555 14.8222 51.6396 0.0000 0.0000 0.0000
# 2 14.8222 35.2966 14.4344 0.0000 0.0000 0.0000
# 3 51.6396 14.4344 149.3588 0.0000 0.0000 0.0000
# 4 0.0000 0.0000 0.0000 33.3383 0.0000 0.0000
# 5 0.0000 0.0000 0.0000 0.0000 34.8720 0.0000
# 6 0.0000 0.0000 0.0000 0.0000 0.0000 19.9207
#
#
#
# Elastic Compliance Matrix: (Units=1/GPa)
#
#
# Indices 1 2 3 4 5 6 
#
# 1 0.012188 -0.003534 -0.003872 0.000000 0.000000 0.000000
# 2 -0.003534 0.030522 -0.001728 0.000000 0.000000 0.000000
# 3 -0.003872 -0.001728 0.008201 0.000000 0.000000 0.000000
# 4 0.000000 0.000000 0.000000 0.029996 0.000000 0.000000
# 5 0.000000 0.000000 0.000000 0.000000 0.028676 0.000000
# 6 0.000000 0.000000 0.000000 0.000000 0.000000 0.050199
#
#
# Mechanical properties :
#
#
# Convention : Reuss Voigt Hill
#
# Bulk Modulus (GPa) = 30.63536 49.91147 40.27341
# Shear Modulus (GPa) = 26.46467 31.39385 28.92926
#
# Velocity S-wave (km/s) = 3.60117 3.92222 3.76512
# Velocity P-wave (km/s) = 5.68361 6.70595 6.21583
#
# Compressibility (1/GPa) = 0.03264202
#
# Stress axis : x y z
#
# Youngs Moduli (GPa) = 82.05027 32.76314 121.93574
#
# Poissons Ratio (x) = 0.11580 0.47216
# Poissons Ratio (y) = 0.29000 0.21067
# Poissons Ratio (z) = 0.31772 0.05661
#
# Static dielectric constant tensor:
#      x y z
#    x 1.751260 0.000000 0.000000 
#    y 0.000000 1.720200 0.000000 
#    z 0.000000 0.000000 1.806880 
# 
# From -- ./inp_files/46440.got.cif
#   From: 2010.05.17/outbox.cif.g08.bks.cpg/sg69_24_cif.got.tgz:46440.got - 2010.06.03 19:29:58.
