data_PCOD9511650
_publ_section_title
;
Structure prediction by ZEFSAII (Michael W. Deem and Ramdas Pophale) SiO2 
 PCOD9511650
Probable space group: F M M M
;
_chemical_formula_sum "Si O2"
_cell_formula_units_Z 176
_cell_length_a 24.572396
_cell_length_b 25.335520
_cell_length_c 13.783997
_cell_angle_alpha 90.000000
_cell_angle_beta 90.000000
_cell_angle_gamma 90.000000
_cell_volume 8581.288400
_symmetry_space_group_name_H-M "F M M M"
_symmetry_group_IT_number 69
_symmetry_cell_setting 'orthorhombic'
loop_
_space_group_symop_operation_xyz
x,y,z
-x,-y,z
x,-y,-z
-x,y,-z
-x,-y,-z
x,y,-z
-x,y,z
x,-y,z
x,1/2+y,1/2+z
-x,1/2-y,1/2+z
x,1/2-y,1/2-z
-x,1/2+y,1/2-z
-x,1/2-y,1/2-z
x,1/2+y,1/2-z
-x,1/2+y,1/2+z
x,1/2-y,1/2+z
1/2+x,y,1/2+z
1/2-x,-y,1/2+z
1/2+x,-y,1/2-z
1/2-x,y,1/2-z
1/2-x,-y,1/2-z
1/2+x,y,1/2-z
1/2-x,y,1/2+z
1/2+x,-y,1/2+z
1/2+x,1/2+y,z
1/2-x,1/2-y,z
1/2+x,1/2-y,-z
1/2-x,1/2+y,-z
1/2-x,1/2-y,-z
1/2+x,1/2+y,-z
1/2-x,1/2+y,z
1/2+x,1/2-y,z
loop_
_atom_site_type_symbol
_atom_site_label
_atom_site_fract_x
_atom_site_fract_y
_atom_site_fract_z
Si Si1 0.941365 0.194745 0.609090
Si Si2 0.565481 0.500000 0.610873
Si Si3 0.282568 0.360574 0.608029
Si Si4 0.828185 0.745845 0.390031
Si Si5 0.062153 0.596625 0.252933
Si Si6 0.169329 0.867511 0.189378
O O1 0.939840 0.171029 0.500000
O O2 0.888832 0.230514 0.616663
O O3 0.939328 0.149839 0.689097
O O4 0.000000 0.222887 0.618009
O O5 0.500000 0.500000 0.601178
O O6 0.587516 0.500000 0.500000
O O7 0.577853 0.550506 0.677647
O O8 0.302728 0.372657 0.500000
O O9 0.287968 0.296314 0.618484
O O10 0.221263 0.381085 0.623398
O O11 0.316170 0.381367 0.699328
O O12 0.820788 0.724966 0.500000
O O13 0.829124 0.696239 0.319214
O O14 0.110545 0.607268 0.329717
O O15 0.000000 0.586976 0.288631
#
# Coordination Sequence:
#
# PCOD9511650 Si02
#       6
#    32  16  32  32  32  32
#     4   9  17  29  46  72 108 144 177 215 261 320
#     4   9  18  34  58  85 111 139 175 225 283 342
#     4  10  21  35  51  73 106 146 190 230 262 303
#     4  10  19  32  50  76 110 149 191 226 263 315
#     4  10  20  33  52  80 110 140 175 218 277 338
#     4  11  21  33  52  78 108 144 183 228 272 317
#
# _framework density 20.509740000000001
#
# number of rings (size 3 to 8) (size 9 to 14) (size 15 to 20)
#    0.000    2.091    1.818    2.182    0.000    6.545 
#    0.000    1.818    0.000    3.818    0.000    3.818 
#    0.000    8.727    0.000    0.000    0.000    0.000 
#
# Total GULP energy -245244.416152 kJ/mol
# GULP energy per Si atom -5573.736731 kJ/mol
# Density = 2.046306 g / cm^3
# Si number density = 20.509740 Si / 1000 Ang^3
#
#
#
# Elastic Constant Matrix: (Units=GPa)
#
#
# Indices 1 2 3 4 5 6 
#
# 1 142.4018 25.7355 23.3025 0.0000 0.0000 0.0000
# 2 25.7355 21.8188 7.5417 0.0000 0.0000 0.0000
# 3 23.3025 7.5417 70.0489 0.0000 0.0000 0.0000
# 4 0.0000 0.0000 0.0000 -0.8158 0.0000 0.0000
# 5 0.0000 0.0000 0.0000 0.0000 25.5226 0.0000
# 6 0.0000 0.0000 0.0000 0.0000 0.0000 16.0277
#
#
#
# Elastic Compliance Matrix: (Units=1/GPa)
#
#
# Indices 1 2 3 4 5 6 
#
# 1 0.009177 -0.010147 -0.001960 0.000000 0.000000 0.000000
# 2 -0.010147 0.058822 -0.002958 0.000000 0.000000 0.000000
# 3 -0.001960 -0.002958 0.015246 0.000000 0.000000 0.000000
# 4 0.000000 0.000000 0.000000 -1.225786 0.000000 0.000000
# 5 0.000000 0.000000 0.000000 0.000000 0.039181 0.000000
# 6 0.000000 0.000000 0.000000 0.000000 0.000000 0.062392
#
#
# Mechanical properties :
#
#
# Convention : Reuss Voigt Hill
#
# Bulk Modulus (GPa) = 18.82660 38.60319 28.71490
# Shear Modulus (GPa) = -5.03457 19.99290 7.47916
#
# Velocity S-wave (km/s) = -1.56846 3.12557 1.91169
# Velocity P-wave (km/s) = 2.43294 5.64697 4.34784
#
# Compressibility (1/GPa) = 0.05311634
#
# Stress axis : x y z
#
# Youngs Moduli (GPa) = 108.96890 17.00033 65.58967
#
# Poissons Ratio (x) = 0.17250 0.12858
# Poissons Ratio (y) = 1.10567 0.19399
# Poissons Ratio (z) = 0.21362 0.05028
#
# Static dielectric constant tensor:
#      x y z
#    x 1.823090 0.000000 0.000000 
#    y 0.000000 1.707160 0.000000 
#    z 0.000000 0.000000 1.751500 
# 
# From -- ./inp_files/19023.got.cif
#   From: 2010.05.17/outbox.cif.g08.bks.cpg/sg69_10_cif.got.tgz:19023.got - 2010.06.03 19:29:58.
