data_PCOD9511950
_publ_section_title
;
Structure prediction by ZEFSAII (Michael W. Deem and Ramdas Pophale) SiO2 
 PCOD9511950
Probable space group: F M M M
;
_chemical_formula_sum "Si O2"
_cell_formula_units_Z 128
_cell_length_a 24.470350
_cell_length_b 29.634562
_cell_length_c 9.285503
_cell_angle_alpha 90.000000
_cell_angle_beta 90.000000
_cell_angle_gamma 90.000000
_cell_volume 6733.550607
_symmetry_space_group_name_H-M "F M M M"
_symmetry_group_IT_number 69
_symmetry_cell_setting 'orthorhombic'
loop_
_space_group_symop_operation_xyz
x,y,z
-x,-y,z
x,-y,-z
-x,y,-z
-x,-y,-z
x,y,-z
-x,y,z
x,-y,z
x,1/2+y,1/2+z
-x,1/2-y,1/2+z
x,1/2-y,1/2-z
-x,1/2+y,1/2-z
-x,1/2-y,1/2-z
x,1/2+y,1/2-z
-x,1/2+y,1/2+z
x,1/2-y,1/2+z
1/2+x,y,1/2+z
1/2-x,-y,1/2+z
1/2+x,-y,1/2-z
1/2-x,y,1/2-z
1/2-x,-y,1/2-z
1/2+x,y,1/2-z
1/2-x,y,1/2+z
1/2+x,-y,1/2+z
1/2+x,1/2+y,z
1/2-x,1/2-y,z
1/2+x,1/2-y,-z
1/2-x,1/2+y,-z
1/2-x,1/2-y,-z
1/2+x,1/2+y,-z
1/2-x,1/2+y,z
1/2+x,1/2-y,z
loop_
_atom_site_type_symbol
_atom_site_label
_atom_site_fract_x
_atom_site_fract_y
_atom_site_fract_z
Si Si1 0.500000 0.050800 0.268523
Si Si2 0.307651 0.634492 0.327881
Si Si3 0.500000 0.152409 0.662317
Si Si4 0.096266 0.798061 0.327779
Si Si5 0.623063 0.048912 0.830351
O O1 0.500000 0.098291 0.349772
O O2 0.442398 0.053085 0.184918
O O3 0.500000 0.000000 0.335543
O O4 0.299532 0.630028 0.500000
O O5 0.250000 0.636900 0.250000
O O6 0.345125 0.678432 0.305774
O O7 0.343092 0.591393 0.273562
O O8 0.500000 0.171506 0.500000
O O9 0.448198 0.169833 0.752262
O O10 0.086140 0.794767 0.500000
O O11 0.093197 0.750000 0.250000
O O12 0.638628 0.000000 0.766539
O O13 0.634425 0.047701 0.000000
#
# Coordination Sequence:
#
# PCOD9511950 Si02
#       5
#    16  32  16  32  32
#     4  10  19  34  59  91 126 158 196 240 294 356
#     4  10  22  39  60  86 118 157 202 251 297 351
#     4  12  24  39  63  94 128 162 194 240 298 358
#     4  11  24  43  65  90 120 156 200 249 303 362
#     4   9  17  32  57  88 120 156 198 243 295 356
#
# _framework density 19.009288000000002
#
# number of rings (size 3 to 8) (size 9 to 14) (size 15 to 20)
#    0.000    1.750    2.500    1.875    0.000    5.750 
#    0.000    2.500    0.000    0.000    0.000    0.000 
#    0.000    0.000    0.000    0.000    0.000    0.000 
#
# Total GULP energy -178362.075711 kJ/mol
# GULP energy per Si atom -5573.814866 kJ/mol
# Density = 1.896602 g / cm^3
# Si number density = 19.009288 Si / 1000 Ang^3
#
#
#
# Elastic Constant Matrix: (Units=GPa)
#
#
# Indices 1 2 3 4 5 6 
#
# 1 123.9566 52.9934 45.6503 -0.0001 0.0004 0.0001
# 2 52.9934 149.8826 53.7792 -0.0004 0.0010 0.0003
# 3 45.6503 53.7792 68.0885 0.0003 0.0025 0.0002
# 4 -0.0001 -0.0004 0.0003 17.3489 0.0015 0.0000
# 5 0.0004 0.0010 0.0025 0.0015 -16.1142 -0.0003
# 6 0.0001 0.0003 0.0002 0.0000 -0.0003 10.1832
#
#
#
# Elastic Compliance Matrix: (Units=1/GPa)
#
#
# Indices 1 2 3 4 5 6 
#
# 1 0.011028 -0.001739 -0.006020 0.000000 -0.000001 0.000000
# 2 -0.001739 0.009585 -0.006405 0.000000 0.000000 0.000000
# 3 -0.006020 -0.006405 0.023782 -0.000001 0.000003 0.000000
# 4 0.000000 0.000000 -0.000001 0.057640 0.000005 0.000000
# 5 -0.000001 0.000000 0.000003 0.000005 -0.062057 -0.000002
# 6 0.000000 0.000000 0.000000 0.000000 -0.000002 0.098201
#
#
# Mechanical properties :
#
#
# Convention : Reuss Voigt Hill
#
# Bulk Modulus (GPa) = 62.23998 71.86373 67.05185
# Shear Modulus (GPa) = 29.09322 14.91723 22.00523
#
# Velocity S-wave (km/s) = 3.91637 2.80435 3.40605
# Velocity P-wave (km/s) = 7.29819 6.95503 7.12868
#
# Compressibility (1/GPa) = 0.01606684
#
# Stress axis : x y z
#
# Youngs Moduli (GPa) = 90.67926 104.33254 42.04930
#
# Poissons Ratio (x) = 0.18143 0.25314
# Poissons Ratio (y) = 0.15769 0.26931
# Poissons Ratio (z) = 0.54591 0.66820
#
# Static dielectric constant tensor:
#      x y z
#    x 1.625890 0.000000 0.000000 
#    y 0.000000 1.701170 0.000000 
#    z 0.000000 0.000000 1.645440 
# 
# From -- ./inp_files/4790.got.cif
#   From: 2010.05.17/outbox.cif.g08.bks.cpg/sg69_3_cif.got.tgz:4790.got - 2010.06.03 19:29:58.
