data_PCOD9511322
_publ_section_title
;
Structure prediction by ZEFSAII (Michael W. Deem and Ramdas Pophale) SiO2 
 PCOD9511322
Probable space group: F M M M
;
_chemical_formula_sum "Si O2"
_cell_formula_units_Z 160
_cell_length_a 16.420228
_cell_length_b 30.646319
_cell_length_c 14.519631
_cell_angle_alpha 90.000000
_cell_angle_beta 90.000000
_cell_angle_gamma 90.000000
_cell_volume 7306.562110
_symmetry_space_group_name_H-M "F M M M"
_symmetry_group_IT_number 69
_symmetry_cell_setting 'orthorhombic'
loop_
_space_group_symop_operation_xyz
x,y,z
-x,-y,z
x,-y,-z
-x,y,-z
-x,-y,-z
x,y,-z
-x,y,z
x,-y,z
x,1/2+y,1/2+z
-x,1/2-y,1/2+z
x,1/2-y,1/2-z
-x,1/2+y,1/2-z
-x,1/2-y,1/2-z
x,1/2+y,1/2-z
-x,1/2+y,1/2+z
x,1/2-y,1/2+z
1/2+x,y,1/2+z
1/2-x,-y,1/2+z
1/2+x,-y,1/2-z
1/2-x,y,1/2-z
1/2-x,-y,1/2-z
1/2+x,y,1/2-z
1/2-x,y,1/2+z
1/2+x,-y,1/2+z
1/2+x,1/2+y,z
1/2-x,1/2-y,z
1/2+x,1/2-y,-z
1/2-x,1/2+y,-z
1/2-x,1/2-y,-z
1/2+x,1/2+y,-z
1/2-x,1/2+y,z
1/2+x,1/2-y,z
loop_
_atom_site_type_symbol
_atom_site_label
_atom_site_fract_x
_atom_site_fract_y
_atom_site_fract_z
Si Si1 0.832581 0.139700 0.889040
Si Si2 0.500000 0.142751 0.104237
Si Si3 0.841223 0.048356 0.206861
Si Si4 0.090822 0.728488 0.387987
Si Si5 0.500000 0.047320 0.161644
Si Si6 0.665486 0.315857 0.612624
O O1 0.850782 0.091691 0.853233
O O2 0.891085 0.179256 0.859037
O O3 0.744002 0.157239 0.858619
O O4 0.834138 0.138051 0.000000
O O5 0.500000 0.090819 0.102779
O O6 0.415964 0.159773 0.144851
O O7 0.500000 0.160503 0.000000
O O8 0.750000 0.050686 0.250000
O O9 0.916926 0.049101 0.278060
O O10 0.845742 0.000000 0.161052
O O11 0.093661 0.728185 0.500000
O O12 0.154614 0.765551 0.358767
O O13 0.000000 0.742081 0.361028
O O14 0.500000 0.000000 0.114370
O O15 0.669009 0.315866 0.500000
#
# Coordination Sequence:
#
# PCOD9511322 Si02
#       6
#    32  16  32  32  16  32
#     4  10  20  32  55  85 109 140 188 233 265 307
#     4  10  18  31  57  84 108 135 178 234 276 314
#     4  10  22  41  60  78 108 148 184 224 281 342
#     4   9  16  28  48  78 115 147 176 216 266 321
#     4  10  22  39  58  79 107 148 186 218 276 345
#     4   9  16  29  49  80 113 142 175 220 275 324
#
# _framework density 21.898123999999999
#
# number of rings (size 3 to 8) (size 9 to 14) (size 15 to 20)
#    0.000    2.400    1.000    1.800    1.400    3.000 
#    0.000    0.000    0.000   18.600    0.000    0.000 
#    0.000    0.000    0.000    0.000    0.000    0.000 
#
# Total GULP energy -223276.343236 kJ/mol
# GULP energy per Si atom -5581.908581 kJ/mol
# Density = 2.184828 g / cm^3
# Si number density = 21.898124 Si / 1000 Ang^3
#
#
#
# Elastic Constant Matrix: (Units=GPa)
#
#
# Indices 1 2 3 4 5 6 
#
# 1 87.9052 8.7131 8.9404 0.0000 0.0000 0.0000
# 2 8.7131 180.6844 27.5743 0.0000 0.0000 0.0000
# 3 8.9404 27.5743 57.1373 0.0000 0.0000 0.0000
# 4 0.0000 0.0000 0.0000 69.2356 0.0000 0.0000
# 5 0.0000 0.0000 0.0000 0.0000 -3.2805 0.0000
# 6 0.0000 0.0000 0.0000 0.0000 0.0000 1.3777
#
#
#
# Elastic Compliance Matrix: (Units=1/GPa)
#
#
# Indices 1 2 3 4 5 6 
#
# 1 0.011575 -0.000304 -0.001664 0.000000 0.000000 0.000000
# 2 -0.000304 0.005983 -0.002840 0.000000 0.000000 0.000000
# 3 -0.001664 -0.002840 0.019132 0.000000 0.000000 0.000000
# 4 0.000000 0.000000 0.000000 0.014443 0.000000 0.000000
# 5 0.000000 0.000000 0.000000 0.000000 -0.304833 0.000000
# 6 0.000000 0.000000 0.000000 0.000000 0.000000 0.725857
#
#
# Mechanical properties :
#
#
# Convention : Reuss Voigt Hill
#
# Bulk Modulus (GPa) = 36.93573 46.24247 41.58910
# Shear Modulus (GPa) = 10.18748 32.16650 21.17699
#
# Velocity S-wave (km/s) = 2.15924 3.83680 3.11315
# Velocity P-wave (km/s) = 4.80834 6.38678 5.65292
#
# Compressibility (1/GPa) = 0.02707405
#
# Stress axis : x y z
#
# Youngs Moduli (GPa) = 86.39068 167.15351 52.26709
#
# Poissons Ratio (x) = 0.05085 0.08699
# Poissons Ratio (y) = 0.02628 0.14842
# Poissons Ratio (z) = 0.14379 0.47464
#
# Static dielectric constant tensor:
#      x y z
#    x 1.831240 0.000000 0.000000 
#    y 0.000000 1.782800 0.000000 
#    z 0.000000 0.000000 1.834050 
# 
# From -- ./inp_files/21836.got.cif
#   From: 2010.05.17/outbox.cif.g08.bks.cpg/sg69_11_cif.got.tgz:21836.got - 2010.06.03 19:29:58.
