data_PCOD9511065
_publ_section_title
;
Structure prediction by ZEFSAII (Michael W. Deem and Ramdas Pophale) SiO2 
 PCOD9511065
Probable space group: F M M M
;
_chemical_formula_sum "Si O2"
_cell_formula_units_Z 160
_cell_length_a 15.678662
_cell_length_b 23.326679
_cell_length_c 21.160497
_cell_angle_alpha 90.000000
_cell_angle_beta 90.000000
_cell_angle_gamma 90.000000
_cell_volume 7739.052175
_symmetry_space_group_name_H-M "F M M M"
_symmetry_group_IT_number 69
_symmetry_cell_setting 'orthorhombic'
loop_
_space_group_symop_operation_xyz
x,y,z
-x,-y,z
x,-y,-z
-x,y,-z
-x,-y,-z
x,y,-z
-x,y,z
x,-y,z
x,1/2+y,1/2+z
-x,1/2-y,1/2+z
x,1/2-y,1/2-z
-x,1/2+y,1/2-z
-x,1/2-y,1/2-z
x,1/2+y,1/2-z
-x,1/2+y,1/2+z
x,1/2-y,1/2+z
1/2+x,y,1/2+z
1/2-x,-y,1/2+z
1/2+x,-y,1/2-z
1/2-x,y,1/2-z
1/2-x,-y,1/2-z
1/2+x,y,1/2-z
1/2-x,y,1/2+z
1/2+x,-y,1/2+z
1/2+x,1/2+y,z
1/2-x,1/2-y,z
1/2+x,1/2-y,-z
1/2-x,1/2+y,-z
1/2-x,1/2-y,-z
1/2+x,1/2+y,-z
1/2-x,1/2+y,z
1/2+x,1/2-y,z
loop_
_atom_site_type_symbol
_atom_site_label
_atom_site_fract_x
_atom_site_fract_y
_atom_site_fract_z
Si Si1 0.356983 0.191388 0.000000
Si Si2 0.354553 0.683770 0.249341
Si Si3 0.146663 0.625723 0.876136
Si Si4 0.596189 0.500000 0.345559
Si Si5 0.338816 0.000000 0.708006
Si Si6 0.351247 0.173821 0.500000
Si Si7 0.152325 0.881850 0.869500
O O1 0.387754 0.158552 0.937181
O O2 0.379322 0.259096 0.000000
O O3 0.252969 0.182213 0.000000
O O4 0.374463 0.750000 0.250000
O O5 0.250000 0.678020 0.250000
O O6 0.387950 0.651522 0.310949
O O7 0.387699 0.656609 0.185145
O O8 0.136233 0.557654 0.873112
O O9 0.248104 0.634845 0.874404
O O10 0.500000 0.500000 0.366592
O O11 0.599509 0.500000 0.268825
O O12 0.250000 0.000000 0.750000
O O13 0.348652 0.945310 0.661832
O O14 0.379479 0.137049 0.438518
#
# Coordination Sequence:
#
# PCOD9511065 Si02
#       7
#    16  32  32  16  16  16  32
#     4   9  18  31  49  73 119 146 169 216 276 317
#     4   9  15  24  45  75 102 135 177 218 267 325
#     4  10  18  32  49  74 106 147 178 219 270 321
#     4  12  24  37  54  79 108 141 191 237 269 322
#     4  12  18  35  55  79 107 144 184 226 281 330
#     4   9  18  29  45  87 116 136 169 224 273 322
#     4  10  17  28  51  76 113 142 173 217 275 332
#
# _framework density 20.674365999999999
#
# number of rings (size 3 to 8) (size 9 to 14) (size 15 to 20)
#    0.000    2.000    4.000    1.800    0.000    5.600 
#    0.000    4.000    0.000    0.600    0.000    2.800 
#    0.000    0.000    0.000    0.000    0.000    0.000 
#
# Total GULP energy -222866.855508 kJ/mol
# GULP energy per Si atom -5571.671388 kJ/mol
# Density = 2.062731 g / cm^3
# Si number density = 20.674366 Si / 1000 Ang^3
#
#
#
# Elastic Constant Matrix: (Units=GPa)
#
#
# Indices 1 2 3 4 5 6 
#
# 1 20.6808 -7.9937 2.5524 0.0000 0.0000 0.0000
# 2 -7.9937 168.8073 128.7107 0.0000 0.0000 0.0000
# 3 2.5524 128.7107 221.2392 0.0000 0.0000 0.0000
# 4 0.0000 0.0000 0.0000 26.6182 0.0000 0.0000
# 5 0.0000 0.0000 0.0000 0.0000 -3.9028 0.0000
# 6 0.0000 0.0000 0.0000 0.0000 0.0000 -14.0552
#
#
#
# Elastic Compliance Matrix: (Units=1/GPa)
#
#
# Indices 1 2 3 4 5 6 
#
# 1 0.050775 0.005124 -0.003567 0.000000 0.000000 0.000000
# 2 0.005124 0.011164 -0.006554 0.000000 0.000000 0.000000
# 3 -0.003567 -0.006554 0.008374 0.000000 0.000000 0.000000
# 4 0.000000 0.000000 0.000000 0.037568 0.000000 0.000000
# 5 0.000000 0.000000 0.000000 0.000000 -0.256226 0.000000
# 6 0.000000 0.000000 0.000000 0.000000 0.000000 -0.071148
#
#
# Mechanical properties :
#
#
# Convention : Reuss Voigt Hill
#
# Bulk Modulus (GPa) = 16.57853 73.02956 44.80404
# Shear Modulus (GPa) = -26.40002 20.89589 -2.75206
#
# Velocity S-wave (km/s) = -3.57731 3.18262 -1.15501
# Velocity P-wave (km/s) = 3.00443 6.99327 4.46538
#
# Compressibility (1/GPa) = 0.06031900
#
# Stress axis : x y z
#
# Youngs Moduli (GPa) = 19.69487 89.57658 119.41783
#
# Poissons Ratio (x) = -0.45898 0.42593
# Poissons Ratio (y) = -0.10091 0.78264
# Poissons Ratio (z) = 0.07025 0.58707
#
# Static dielectric constant tensor:
#      x y z
#    x 1.783980 0.000000 0.000000 
#    y 0.000000 1.721470 0.000000 
#    z 0.000000 0.000000 1.754490 
# 
# From -- ./inp_files/30873.got.cif
#   From: 2010.05.17/outbox.cif.g08.bks.cpg/sg69_16_cif.got.tgz:30873.got - 2010.06.03 19:29:58.
