data_PCOD9511030
_publ_section_title
;
Structure prediction by ZEFSAII (Michael W. Deem and Ramdas Pophale) SiO2 
 PCOD9511030
Probable space group: F M M M
;
_chemical_formula_sum "Si O2"
_cell_formula_units_Z 168
_cell_length_a 18.167835
_cell_length_b 27.572144
_cell_length_c 14.458683
_cell_angle_alpha 90.000000
_cell_angle_beta 90.000000
_cell_angle_gamma 90.000000
_cell_volume 7242.732594
_symmetry_space_group_name_H-M "F M M M"
_symmetry_group_IT_number 69
_symmetry_cell_setting 'orthorhombic'
loop_
_space_group_symop_operation_xyz
x,y,z
-x,-y,z
x,-y,-z
-x,y,-z
-x,-y,-z
x,y,-z
-x,y,z
x,-y,z
x,1/2+y,1/2+z
-x,1/2-y,1/2+z
x,1/2-y,1/2-z
-x,1/2+y,1/2-z
-x,1/2-y,1/2-z
x,1/2+y,1/2-z
-x,1/2+y,1/2+z
x,1/2-y,1/2+z
1/2+x,y,1/2+z
1/2-x,-y,1/2+z
1/2+x,-y,1/2-z
1/2-x,y,1/2-z
1/2-x,-y,1/2-z
1/2+x,y,1/2-z
1/2-x,y,1/2+z
1/2+x,-y,1/2+z
1/2+x,1/2+y,z
1/2-x,1/2-y,z
1/2+x,1/2-y,-z
1/2-x,1/2+y,-z
1/2-x,1/2-y,-z
1/2+x,1/2+y,-z
1/2-x,1/2+y,z
1/2+x,1/2-y,z
loop_
_atom_site_type_symbol
_atom_site_label
_atom_site_fract_x
_atom_site_fract_y
_atom_site_fract_z
Si Si1 0.500000 0.389374 0.115796
Si Si2 0.417847 0.875069 0.110889
Si Si3 0.824853 0.500000 0.391636
Si Si4 0.582635 0.762140 0.142441
Si Si5 0.734810 0.407085 0.386509
Si Si6 0.852702 0.665030 0.606248
Si Si7 0.000000 0.000000 0.856852
O O1 0.572190 0.358776 0.144342
O O2 0.500000 0.441751 0.163482
O O3 0.500000 0.396187 0.000000
O O4 0.500000 0.884933 0.147222
O O5 0.400390 0.818196 0.126378
O O6 0.349345 0.906152 0.146768
O O7 0.421468 0.881921 0.000000
O O8 0.807285 0.500000 0.500000
O O9 0.784834 0.451920 0.355179
O O10 0.913003 0.500000 0.387892
O O11 0.500000 0.753425 0.103771
O O12 0.579135 0.750000 0.250000
O O13 0.639875 0.722674 0.106899
O O14 0.730105 0.407746 0.500000
O O15 0.778778 0.358828 0.356426
O O16 0.854357 0.649318 0.500000
#
# Coordination Sequence:
#
# PCOD9511030 Si02
#       7
#    16  32  16  32  32  32   8
#     4  10  17  24  41  71 105 136 162 185 233 302
#     4   9  18  34  53  70  94 131 171 210 254 301
#     4  10  17  26  43  72 109 135 157 200 252 301
#     4  10  20  33  50  73 100 130 171 210 249 295
#     4   9  18  30  46  72 102 130 163 205 251 297
#     4  10  18  29  47  73 105 135 163 199 244 300
#     4  12  17  24  44  76 112 142 160 190 251 310
#
# _framework density 23.195665999999999
#
# number of rings (size 3 to 8) (size 9 to 14) (size 15 to 20)
#    0.000    2.286    2.857    1.429    0.000    1.524 
#    0.000    5.238    0.000    2.857    0.000    4.000 
#    0.000    0.000    0.000    0.000    0.000    0.000 
#
# Total GULP energy -234119.886683 kJ/mol
# GULP energy per Si atom -5574.283016 kJ/mol
# Density = 2.314287 g / cm^3
# Si number density = 23.195666 Si / 1000 Ang^3
#
#
#
# Elastic Constant Matrix: (Units=GPa)
#
#
# Indices 1 2 3 4 5 6 
#
# 1 162.2982 52.9145 16.5259 0.0000 0.0000 0.0000
# 2 52.9145 74.5198 0.1486 0.0000 0.0000 0.0000
# 3 16.5259 0.1486 56.0178 0.0000 0.0000 0.0000
# 4 0.0000 0.0000 0.0000 -19.3414 0.0000 0.0000
# 5 0.0000 0.0000 0.0000 0.0000 7.8286 0.0000
# 6 0.0000 0.0000 0.0000 0.0000 0.0000 22.9609
#
#
#
# Elastic Compliance Matrix: (Units=1/GPa)
#
#
# Indices 1 2 3 4 5 6 
#
# 1 0.008339 -0.005917 -0.002445 0.000000 0.000000 0.000000
# 2 -0.005917 0.017617 0.001699 0.000000 0.000000 0.000000
# 3 -0.002445 0.001699 0.018568 0.000000 0.000000 0.000000
# 4 0.000000 0.000000 0.000000 -0.051703 0.000000 0.000000
# 5 0.000000 0.000000 0.000000 0.000000 0.127738 0.000000
# 6 0.000000 0.000000 0.000000 0.000000 0.000000 0.043552
#
#
# Mechanical properties :
#
#
# Convention : Reuss Voigt Hill
#
# Bulk Modulus (GPa) = 32.05157 48.00154 40.02655
# Shear Modulus (GPa) = 26.61883 17.17273 21.89578
#
# Velocity S-wave (km/s) = 3.39127 2.72388 3.07573
# Velocity P-wave (km/s) = 5.40205 5.53460 5.46873
#
# Compressibility (1/GPa) = 0.03119972
#
# Stress axis : x y z
#
# Youngs Moduli (GPa) = 119.91171 56.76276 53.85576
#
# Poissons Ratio (x) = 0.33585 0.13165
# Poissons Ratio (y) = 0.70949 -0.09149
# Poissons Ratio (z) = 0.29313 -0.09643
#
# Static dielectric constant tensor:
#      x y z
#    x 1.868240 0.000000 0.000000 
#    y 0.000000 1.841100 0.000000 
#    z 0.000000 0.000000 2.012890 
# 
# From -- ./inp_files/30150.got.cif
#   From: 2010.05.17/outbox.cif.g08.bks.cpg/sg69_16_cif.got.tgz:30150.got - 2010.06.03 19:29:58.
