data_PCOD9511424
_publ_section_title
;
Structure prediction by ZEFSAII (Michael W. Deem and Ramdas Pophale) SiO2 
 PCOD9511424
Probable space group: F M M M
;
_chemical_formula_sum "Si O2"
_cell_formula_units_Z 164
_cell_length_a 25.483958
_cell_length_b 14.576339
_cell_length_c 20.779018
_cell_angle_alpha 90.000000
_cell_angle_beta 90.000000
_cell_angle_gamma 90.000000
_cell_volume 7718.632433
_symmetry_space_group_name_H-M "F M M M"
_symmetry_group_IT_number 69
_symmetry_cell_setting 'orthorhombic'
loop_
_space_group_symop_operation_xyz
x,y,z
-x,-y,z
x,-y,-z
-x,y,-z
-x,-y,-z
x,y,-z
-x,y,z
x,-y,z
x,1/2+y,1/2+z
-x,1/2-y,1/2+z
x,1/2-y,1/2-z
-x,1/2+y,1/2-z
-x,1/2-y,1/2-z
x,1/2+y,1/2-z
-x,1/2+y,1/2+z
x,1/2-y,1/2+z
1/2+x,y,1/2+z
1/2-x,-y,1/2+z
1/2+x,-y,1/2-z
1/2-x,y,1/2-z
1/2-x,-y,1/2-z
1/2+x,y,1/2-z
1/2-x,y,1/2+z
1/2+x,-y,1/2+z
1/2+x,1/2+y,z
1/2-x,1/2-y,z
1/2+x,1/2-y,-z
1/2-x,1/2+y,-z
1/2-x,1/2-y,-z
1/2+x,1/2+y,-z
1/2-x,1/2+y,z
1/2+x,1/2-y,z
loop_
_atom_site_type_symbol
_atom_site_label
_atom_site_fract_x
_atom_site_fract_y
_atom_site_fract_z
Si Si1 0.000000 0.000000 0.500000
Si Si2 0.702241 0.106855 0.572001
Si Si3 0.605170 0.611719 0.701580
Si Si4 0.500000 0.397621 0.365857
Si Si5 0.397855 0.111977 0.650160
Si Si6 0.274476 0.149211 0.183921
Si Si7 0.500000 0.111769 0.572812
O O1 0.000000 0.078982 0.441668
O O2 0.707930 0.146456 0.500000
O O3 0.654245 0.146232 0.614021
O O4 0.752894 0.109200 0.617311
O O5 0.689042 0.000000 0.563953
O O6 0.608971 0.500000 0.696991
O O7 0.555207 0.642807 0.659117
O O8 0.597358 0.639049 0.775854
O O9 0.663024 0.646982 0.684324
O O10 0.500000 0.500000 0.333461
O O11 0.448237 0.140382 0.609978
O O12 0.396265 0.000000 0.651233
O O13 0.250000 0.105901 0.250000
O O14 0.250000 0.250000 0.183883
O O15 0.500000 0.144636 0.500000
O O16 0.500000 0.000000 0.571517
#
# Coordination Sequence:
#
# PCOD9511424 Si02
#       7
#     4  32  32  16  32  32  16
#     4   8  16  36  52  88 136 144 178 252 298 366
#     4  10  20  35  54  80 109 143 186 240 300 360
#     4  10  18  33  58  86 112 150 197 245 293 351
#     4   8  17  32  55  86 119 147 187 241 303 352
#     4   9  16  26  46  73 107 138 178 228 279 339
#     4  11  23  38  56  79 115 157 203 244 295 353
#     4   9  15  23  38  69 107 144 172 211 284 356
#
# _framework density 21.247287
#
# number of rings (size 3 to 8) (size 9 to 14) (size 15 to 20)
#    0.293    2.049    1.951    1.756    0.000    5.854 
#    1.756    0.000    0.000    3.512    0.000    0.000 
#    0.000    0.000    0.000    0.000    0.000    0.000 
#
# Total GULP energy -228410.737036 kJ/mol
# GULP energy per Si atom -5570.993586 kJ/mol
# Density = 2.119893 g / cm^3
# Si number density = 21.247287 Si / 1000 Ang^3
#
#
#
# Elastic Constant Matrix: (Units=GPa)
#
#
# Indices 1 2 3 4 5 6 
#
# 1 219.7548 11.7519 121.8122 0.0000 0.0000 0.0000
# 2 11.7519 48.1865 18.2067 0.0000 0.0000 0.0000
# 3 121.8122 18.2067 218.1025 0.0000 0.0000 0.0000
# 4 0.0000 0.0000 0.0000 1.6398 0.0000 0.0000
# 5 0.0000 0.0000 0.0000 0.0000 -17.0448 0.0000
# 6 0.0000 0.0000 0.0000 0.0000 0.0000 -4.4117
#
#
#
# Elastic Compliance Matrix: (Units=1/GPa)
#
#
# Indices 1 2 3 4 5 6 
#
# 1 0.006593 -0.000224 -0.003664 0.000000 0.000000 0.000000
# 2 -0.000224 0.021436 -0.001665 0.000000 0.000000 0.000000
# 3 -0.003664 -0.001665 0.006770 0.000000 0.000000 0.000000
# 4 0.000000 0.000000 0.000000 0.609820 0.000000 0.000000
# 5 0.000000 0.000000 0.000000 0.000000 -0.058669 0.000000
# 6 0.000000 0.000000 0.000000 0.000000 0.000000 -0.226671
#
#
# Mechanical properties :
#
#
# Convention : Reuss Voigt Hill
#
# Bulk Modulus (GPa) = 42.20165 87.73171 64.96668
# Shear Modulus (GPa) = 13.21766 18.32155 15.76960
#
# Velocity S-wave (km/s) = 2.49687 2.93968 2.72728
# Velocity P-wave (km/s) = 5.31204 7.27343 6.36869
#
# Compressibility (1/GPa) = 0.02369576
#
# Stress axis : x y z
#
# Youngs Moduli (GPa) = 151.66791 46.65017 147.70618
#
# Poissons Ratio (x) = 0.01044 0.54116
# Poissons Ratio (y) = 0.03393 0.24586
# Poissons Ratio (z) = 0.55568 0.07765
#
# Static dielectric constant tensor:
#      x y z
#    x 1.761870 0.000000 0.000000 
#    y 0.000000 1.896740 0.000000 
#    z 0.000000 0.000000 1.775190 
# 
# From -- ./inp_files/32687.got.cif
#   From: 2010.05.17/outbox.cif.g08.bks.cpg/sg69_17_cif.got.tgz:32687.got - 2010.06.03 19:29:58.
