data_PCOD9511566
_publ_section_title
;
Structure prediction by ZEFSAII (Michael W. Deem and Ramdas Pophale) SiO2 
 PCOD9511566
Probable space group: F M M M
;
_chemical_formula_sum "Si O2"
_cell_formula_units_Z 144
_cell_length_a 26.475950
_cell_length_b 18.080073
_cell_length_c 17.145231
_cell_angle_alpha 90.000000
_cell_angle_beta 90.000000
_cell_angle_gamma 90.000000
_cell_volume 8207.201056
_symmetry_space_group_name_H-M "F M M M"
_symmetry_group_IT_number 69
_symmetry_cell_setting 'orthorhombic'
loop_
_space_group_symop_operation_xyz
x,y,z
-x,-y,z
x,-y,-z
-x,y,-z
-x,-y,-z
x,y,-z
-x,y,z
x,-y,z
x,1/2+y,1/2+z
-x,1/2-y,1/2+z
x,1/2-y,1/2-z
-x,1/2+y,1/2-z
-x,1/2-y,1/2-z
x,1/2+y,1/2-z
-x,1/2+y,1/2+z
x,1/2-y,1/2+z
1/2+x,y,1/2+z
1/2-x,-y,1/2+z
1/2+x,-y,1/2-z
1/2-x,y,1/2-z
1/2-x,-y,1/2-z
1/2+x,y,1/2-z
1/2-x,y,1/2+z
1/2+x,-y,1/2+z
1/2+x,1/2+y,z
1/2-x,1/2-y,z
1/2+x,1/2-y,-z
1/2-x,1/2+y,-z
1/2-x,1/2-y,-z
1/2+x,1/2+y,-z
1/2-x,1/2+y,z
1/2+x,1/2-y,z
loop_
_atom_site_type_symbol
_atom_site_label
_atom_site_fract_x
_atom_site_fract_y
_atom_site_fract_z
Si Si1 0.408271 0.086346 0.305047
Si Si2 0.307919 0.775271 0.000000
Si Si3 0.146421 0.274404 0.665969
Si Si4 0.940336 0.843218 0.645163
Si Si5 0.500000 0.089360 0.585229
Si Si6 0.120140 0.588622 0.000000
O O1 0.361541 0.138588 0.323520
O O2 0.431632 0.106880 0.221558
O O3 0.450313 0.107850 0.367947
O O4 0.397243 0.000000 0.309412
O O5 0.250000 0.750000 0.000000
O O6 0.328568 0.744095 0.083047
O O7 0.328749 0.860727 0.000000
O O8 0.169782 0.250000 0.750000
O O9 0.092417 0.230897 0.660989
O O10 0.913327 0.885528 0.573977
O O11 0.000000 0.830015 0.632618
O O12 0.500000 0.122971 0.500000
O O13 0.500000 0.000000 0.579921
O O14 0.128614 0.500000 0.000000
#
# Coordination Sequence:
#
# PCOD9511566 Si02
#       6
#    32  16  32  32  16  16
#     4  10  19  31  48  73 109 146 183 217 254 304
#     4  10  22  43  63  80 102 134 177 225 287 341
#     4   9  21  36  54  80 108 141 180 224 269 319
#     4  10  19  32  50  77 114 155 185 211 253 309
#     4   9  18  28  39  63  99 145 180 208 244 284
#     4  10  21  36  56  83 110 136 178 228 265 311
#
# _framework density 17.545566999999998
#
# number of rings (size 3 to 8) (size 9 to 14) (size 15 to 20)
#    0.000    2.333    1.111    1.000    3.111    3.556 
#    0.000    1.111    0.000    0.000    0.000    9.333 
#    0.000    0.000    0.000    0.000    0.000    0.000 
#
# Total GULP energy -200430.391464 kJ/mol
# GULP energy per Si atom -5567.510874 kJ/mol
# Density = 1.750563 g / cm^3
# Si number density = 17.545567 Si / 1000 Ang^3
#
#
#
# Elastic Constant Matrix: (Units=GPa)
#
#
# Indices 1 2 3 4 5 6 
#
# 1 82.0608 38.6531 47.1765 0.0000 0.0000 0.0000
# 2 38.6531 101.5791 45.5003 0.0000 0.0000 0.0000
# 3 47.1765 45.5003 165.1460 0.0000 0.0000 0.0000
# 4 0.0000 0.0000 0.0000 24.1011 0.0000 0.0000
# 5 0.0000 0.0000 0.0000 0.0000 16.0089 0.0000
# 6 0.0000 0.0000 0.0000 0.0000 0.0000 8.1189
#
#
#
# Elastic Compliance Matrix: (Units=1/GPa)
#
#
# Indices 1 2 3 4 5 6 
#
# 1 0.016342 -0.004708 -0.003371 0.000000 0.000000 0.000000
# 2 -0.004708 0.012587 -0.002123 0.000000 0.000000 0.000000
# 3 -0.003371 -0.002123 0.007603 0.000000 0.000000 0.000000
# 4 0.000000 0.000000 0.000000 0.041492 0.000000 0.000000
# 5 0.000000 0.000000 0.000000 0.000000 0.062465 0.000000
# 6 0.000000 0.000000 0.000000 0.000000 0.000000 0.123169
#
#
# Mechanical properties :
#
#
# Convention : Reuss Voigt Hill
#
# Bulk Modulus (GPa) = 62.00657 67.93841 64.97249
# Shear Modulus (GPa) = 17.27482 24.14285 20.70883
#
# Velocity S-wave (km/s) = 3.14119 3.71348 3.43926
# Velocity P-wave (km/s) = 6.96944 7.56253 7.27203
#
# Compressibility (1/GPa) = 0.01612732
#
# Stress axis : x y z
#
# Youngs Moduli (GPa) = 61.19221 79.44620 131.52456
#
# Poissons Ratio (x) = 0.37407 0.44338
# Poissons Ratio (y) = 0.28812 0.27921
# Poissons Ratio (z) = 0.20628 0.16866
#
# Static dielectric constant tensor:
#      x y z
#    x 1.586060 0.000000 0.000000 
#    y 0.000000 1.602330 0.000000 
#    z 0.000000 0.000000 1.641240 
# 
# From -- ./inp_files/19512.got.cif
#   From: 2010.05.17/outbox.cif.g08.bks.cpg/sg69_10_cif.got.tgz:19512.got - 2010.06.03 19:29:58.
