data_PCOD9511692
_publ_section_title
;
Structure prediction by ZEFSAII (Michael W. Deem and Ramdas Pophale) SiO2 
 PCOD9511692
Probable space group: F M M M
;
_chemical_formula_sum "Si O2"
_cell_formula_units_Z 192
_cell_length_a 29.672176
_cell_length_b 21.029202
_cell_length_c 18.308006
_cell_angle_alpha 90.000000
_cell_angle_beta 90.000000
_cell_angle_gamma 90.000000
_cell_volume 11423.869548
_symmetry_space_group_name_H-M "F M M M"
_symmetry_group_IT_number 69
_symmetry_cell_setting 'orthorhombic'
loop_
_space_group_symop_operation_xyz
x,y,z
-x,-y,z
x,-y,-z
-x,y,-z
-x,-y,-z
x,y,-z
-x,y,z
x,-y,z
x,1/2+y,1/2+z
-x,1/2-y,1/2+z
x,1/2-y,1/2-z
-x,1/2+y,1/2-z
-x,1/2-y,1/2-z
x,1/2+y,1/2-z
-x,1/2+y,1/2+z
x,1/2-y,1/2+z
1/2+x,y,1/2+z
1/2-x,-y,1/2+z
1/2+x,-y,1/2-z
1/2-x,y,1/2-z
1/2-x,-y,1/2-z
1/2+x,y,1/2-z
1/2-x,y,1/2+z
1/2+x,-y,1/2+z
1/2+x,1/2+y,z
1/2-x,1/2-y,z
1/2+x,1/2-y,-z
1/2-x,1/2+y,-z
1/2-x,1/2-y,-z
1/2+x,1/2+y,-z
1/2-x,1/2+y,z
1/2+x,1/2-y,z
loop_
_atom_site_type_symbol
_atom_site_label
_atom_site_fract_x
_atom_site_fract_y
_atom_site_fract_z
Si Si1 0.552319 0.138004 0.582862
Si Si2 0.864941 0.283914 0.634684
Si Si3 0.052169 0.925710 0.236577
Si Si4 0.231062 0.184165 0.083818
Si Si5 0.276782 0.572642 0.326194
Si Si6 0.865752 0.849132 0.706551
O O1 0.559298 0.113461 0.500000
O O2 0.500000 0.159159 0.587296
O O3 0.588370 0.192831 0.599751
O O4 0.558993 0.089110 0.649996
O O5 0.822581 0.308166 0.588626
O O6 0.865201 0.208555 0.648953
O O7 0.858398 0.317033 0.713932
O O8 0.086571 0.884257 0.283798
O O9 0.000000 0.910361 0.252724
O O10 0.059828 0.000000 0.249252
O O11 0.250000 0.250000 0.118075
O O12 0.249985 0.122350 0.123530
O O13 0.246008 0.181642 0.000000
O O14 0.278833 0.500000 0.354083
O O15 0.250000 0.571445 0.250000
O O16 0.326223 0.601587 0.311698
#
# Coordination Sequence:
#
# PCOD9511692 Si02
#       6
#    32  32  32  32  32  32
#     4   9  18  32  49  72 104 138 172 214 262 314
#     4  10  19  32  53  76 101 134 174 221 264 314
#     4   9  18  32  50  74 105 138 173 215 262 315
#     4  11  22  36  55  78 106 141 179 222 266 314
#     4  11  22  36  56  80 107 140 178 222 267 317
#     4  10  19  32  53  77 100 134 175 218 267 314
#
# _framework density 16.806913999999999
#
# number of rings (size 3 to 8) (size 9 to 14) (size 15 to 20)
#    0.000    2.000    3.333    1.000    0.000    1.667 
#    0.000    5.000    0.000    2.000    0.000    0.000 
#    0.000    0.000    0.000   11.000    0.000    0.333 
#
# Total GULP energy -267499.423270 kJ/mol
# GULP energy per Si atom -5572.904651 kJ/mol
# Density = 1.676866 g / cm^3
# Si number density = 16.806914 Si / 1000 Ang^3
#
#
#
# Elastic Constant Matrix: (Units=GPa)
#
#
# Indices 1 2 3 4 5 6 
#
# 1 93.7834 62.1700 21.2523 0.0000 0.0000 0.0000
# 2 62.1700 133.8013 33.3261 0.0000 0.0000 0.0000
# 3 21.2523 33.3261 42.7148 0.0000 0.0000 0.0000
# 4 0.0000 0.0000 0.0000 10.9690 0.0000 0.0000
# 5 0.0000 0.0000 0.0000 0.0000 14.0501 0.0000
# 6 0.0000 0.0000 0.0000 0.0000 0.0000 25.5311
#
#
#
# Elastic Compliance Matrix: (Units=1/GPa)
#
#
# Indices 1 2 3 4 5 6 
#
# 1 0.015642 -0.006615 -0.002622 0.000000 0.000000 0.000000
# 2 -0.006615 0.012074 -0.006129 0.000000 0.000000 0.000000
# 3 -0.002622 -0.006129 0.029497 0.000000 0.000000 0.000000
# 4 0.000000 0.000000 0.000000 0.091166 0.000000 0.000000
# 5 0.000000 0.000000 0.000000 0.000000 0.071174 0.000000
# 6 0.000000 0.000000 0.000000 0.000000 0.000000 0.039168
#
#
# Mechanical properties :
#
#
# Convention : Reuss Voigt Hill
#
# Bulk Modulus (GPa) = 37.76101 55.97738 46.86919
# Shear Modulus (GPa) = 16.76283 20.34679 18.55481
#
# Velocity S-wave (km/s) = 3.16155 3.48317 3.32625
# Velocity P-wave (km/s) = 5.98695 7.03954 6.53447
#
# Compressibility (1/GPa) = 0.02648234
#
# Stress axis : x y z
#
# Youngs Moduli (GPa) = 63.92988 82.82300 33.90168
#
# Poissons Ratio (x) = 0.54788 0.08887
# Poissons Ratio (y) = 0.42290 0.20778
# Poissons Ratio (z) = 0.16759 0.50761
#
# Static dielectric constant tensor:
#      x y z
#    x 1.566810 0.000000 0.000000 
#    y 0.000000 1.559930 0.000000 
#    z 0.000000 0.000000 1.568440 
# 
# From -- ./inp_files/32153.got.cif
#   From: 2010.05.17/outbox.cif.g08.bks.cpg/sg69_17_cif.got.tgz:32153.got - 2010.06.03 19:29:58.
