data_PCOD9511422
_publ_section_title
;
Structure prediction by ZEFSAII (Michael W. Deem and Ramdas Pophale) SiO2 
 PCOD9511422
Probable space group: F M M M
;
_chemical_formula_sum "Si O2"
_cell_formula_units_Z 160
_cell_length_a 31.167446
_cell_length_b 20.245954
_cell_length_c 14.017277
_cell_angle_alpha 90.000000
_cell_angle_beta 90.000000
_cell_angle_gamma 90.000000
_cell_volume 8845.107533
_symmetry_space_group_name_H-M "F M M M"
_symmetry_group_IT_number 69
_symmetry_cell_setting 'orthorhombic'
loop_
_space_group_symop_operation_xyz
x,y,z
-x,-y,z
x,-y,-z
-x,y,-z
-x,-y,-z
x,y,-z
-x,y,z
x,-y,z
x,1/2+y,1/2+z
-x,1/2-y,1/2+z
x,1/2-y,1/2-z
-x,1/2+y,1/2-z
-x,1/2-y,1/2-z
x,1/2+y,1/2-z
-x,1/2+y,1/2+z
x,1/2-y,1/2+z
1/2+x,y,1/2+z
1/2-x,-y,1/2+z
1/2+x,-y,1/2-z
1/2-x,y,1/2-z
1/2-x,-y,1/2-z
1/2+x,y,1/2-z
1/2-x,y,1/2+z
1/2+x,-y,1/2+z
1/2+x,1/2+y,z
1/2-x,1/2-y,z
1/2+x,1/2-y,-z
1/2-x,1/2+y,-z
1/2-x,1/2-y,-z
1/2+x,1/2+y,-z
1/2-x,1/2+y,z
1/2+x,1/2-y,z
loop_
_atom_site_type_symbol
_atom_site_label
_atom_site_fract_x
_atom_site_fract_y
_atom_site_fract_z
Si Si1 0.136758 0.923901 0.308583
Si Si2 0.730349 0.322524 0.000000
Si Si3 0.047976 0.141731 0.293438
Si Si4 0.190920 0.576798 0.000000
Si Si5 0.831512 0.806185 0.176347
Si Si6 0.073162 0.778233 0.889388
O O1 0.086299 0.907941 0.316852
O O2 0.161412 0.912354 0.407577
O O3 0.155543 0.871318 0.234477
O O4 0.143140 0.000000 0.280161
O O5 0.750000 0.250000 0.000000
O O6 0.768250 0.375725 0.000000
O O7 0.701258 0.325712 0.094231
O O8 0.054194 0.168546 0.184898
O O9 0.055029 0.207207 0.357840
O O10 0.000000 0.116183 0.306284
O O11 0.204625 0.500000 0.000000
O O12 0.815371 0.750000 0.250000
O O13 0.875602 0.777841 0.130495
O O14 0.064668 0.791932 0.000000
#
# Coordination Sequence:
#
# PCOD9511422 Si02
#       6
#    32  16  32  16  32  32
#     4  10  22  41  62  81 115 161 194 237 297 351
#     4  12  26  36  62  94 120 144 195 251 294 334
#     4  10  21  34  55  88 117 149 197 241 283 346
#     4  10  24  44  61  81 116 158 197 239 296 359
#     4  11  21  38  60  90 119 153 191 237 291 350
#     4  10  18  33  58  83 121 155 187 226 294 351
#
# _framework density 18.089096000000001
#
# number of rings (size 3 to 8) (size 9 to 14) (size 15 to 20)
#    0.000    1.600    5.000    2.400    1.400    5.600 
#    0.000    2.000    0.000    1.800    0.000    2.800 
#    0.000    0.000    0.000    0.000    0.000    0.000 
#
# Total GULP energy -223408.602179 kJ/mol
# GULP energy per Si atom -5585.215054 kJ/mol
# Density = 1.804792 g / cm^3
# Si number density = 18.089096 Si / 1000 Ang^3
#
#
#
# Elastic Constant Matrix: (Units=GPa)
#
#
# Indices 1 2 3 4 5 6 
#
# 1 126.4784 66.4817 79.1572 0.0000 0.0000 0.0000
# 2 66.4817 89.8759 53.3109 0.0000 0.0000 0.0000
# 3 79.1572 53.3109 102.6041 0.0000 0.0000 0.0000
# 4 0.0000 0.0000 0.0000 17.6261 0.0000 0.0000
# 5 0.0000 0.0000 0.0000 0.0000 -3.7487 0.0000
# 6 0.0000 0.0000 0.0000 0.0000 0.0000 16.3925
#
#
#
# Elastic Compliance Matrix: (Units=1/GPa)
#
#
# Indices 1 2 3 4 5 6 
#
# 1 0.018158 -0.007404 -0.010162 0.000000 0.000000 0.000000
# 2 -0.007404 0.019102 -0.004213 0.000000 0.000000 0.000000
# 3 -0.010162 -0.004213 0.019775 0.000000 0.000000 0.000000
# 4 0.000000 0.000000 0.000000 0.056734 0.000000 0.000000
# 5 0.000000 0.000000 0.000000 0.000000 -0.266756 0.000000
# 6 0.000000 0.000000 0.000000 0.000000 0.000000 0.061004
#
#
# Mechanical properties :
#
#
# Convention : Reuss Voigt Hill
#
# Bulk Modulus (GPa) = 74.19719 79.65089 76.92404
# Shear Modulus (GPa) = -113.80889 14.05455 -49.87717
#
# Velocity S-wave (km/s) = -7.94055 2.79043 -5.25670
# Velocity P-wave (km/s) = 6.55462 7.38310 2.40281
#
# Compressibility (1/GPa) = 0.01347760
#
# Stress axis : x y z
#
# Youngs Moduli (GPa) = 55.07195 52.34958 50.56989
#
# Poissons Ratio (x) = 0.38761 0.51387
# Poissons Ratio (y) = 0.40776 0.21305
# Poissons Ratio (z) = 0.55962 0.22055
#
# Static dielectric constant tensor:
#      x y z
#    x 1.635940 0.000000 0.000000 
#    y 0.000000 1.599850 0.000000 
#    z 0.000000 0.000000 1.624620 
# 
# From -- ./inp_files/19597.got.cif
#   From: 2010.05.17/outbox.cif.g08.bks.cpg/sg69_10_cif.got.tgz:19597.got - 2010.06.03 19:29:58.
