data_PCOD9511533
_publ_section_title
;
Structure prediction by ZEFSAII (Michael W. Deem and Ramdas Pophale) SiO2 
 PCOD9511533
Probable space group: F M M M
;
_chemical_formula_sum "Si O2"
_cell_formula_units_Z 160
_cell_length_a 15.173105
_cell_length_b 20.350521
_cell_length_c 26.369032
_cell_angle_alpha 90.000000
_cell_angle_beta 90.000000
_cell_angle_gamma 90.000000
_cell_volume 8142.245310
_symmetry_space_group_name_H-M "F M M M"
_symmetry_group_IT_number 69
_symmetry_cell_setting 'orthorhombic'
loop_
_space_group_symop_operation_xyz
x,y,z
-x,-y,z
x,-y,-z
-x,y,-z
-x,-y,-z
x,y,-z
-x,y,z
x,-y,z
x,1/2+y,1/2+z
-x,1/2-y,1/2+z
x,1/2-y,1/2-z
-x,1/2+y,1/2-z
-x,1/2-y,1/2-z
x,1/2+y,1/2-z
-x,1/2+y,1/2+z
x,1/2-y,1/2+z
1/2+x,y,1/2+z
1/2-x,-y,1/2+z
1/2+x,-y,1/2-z
1/2-x,y,1/2-z
1/2-x,-y,1/2-z
1/2+x,y,1/2-z
1/2-x,y,1/2+z
1/2+x,-y,1/2+z
1/2+x,1/2+y,z
1/2-x,1/2-y,z
1/2+x,1/2-y,-z
1/2-x,1/2+y,-z
1/2-x,1/2-y,-z
1/2+x,1/2+y,-z
1/2-x,1/2+y,z
1/2+x,1/2-y,z
loop_
_atom_site_type_symbol
_atom_site_label
_atom_site_fract_x
_atom_site_fract_y
_atom_site_fract_z
Si Si1 0.606321 0.310600 0.215599
Si Si2 0.657390 0.649347 0.500000
Si Si3 0.318612 0.311762 0.104677
Si Si4 0.323233 0.078550 0.102469
Si Si5 0.636351 0.701162 0.000000
Si Si6 0.605758 0.926383 0.786747
O O1 0.500000 0.311907 0.215012
O O2 0.635150 0.250000 0.250000
O O3 0.638714 0.301125 0.158880
O O4 0.638393 0.375901 0.244459
O O5 0.636435 0.608418 0.449372
O O6 0.616675 0.721247 0.500000
O O7 0.762138 0.670939 0.500000
O O8 0.250000 0.250000 0.095128
O O9 0.266281 0.380154 0.107358
O O10 0.386510 0.317398 0.057664
O O11 0.373561 0.092596 0.155083
O O12 0.313204 0.000000 0.097522
O O13 0.500000 0.927997 0.782476
O O14 0.640276 0.000000 0.778621
#
# Coordination Sequence:
#
# PCOD9511533 Si02
#       6
#    32  16  32  32  16  32
#     4  10  22  36  52  74 100 132 172 209 244 296
#     4   9  15  30  49  72 103 134 163 200 250 302
#     4  11  19  34  55  74 101 135 163 203 256 296
#     4  10  19  30  51  80 102 127 170 213 243 290
#     4   9  16  32  53  73  99 136 163 191 252 312
#     4   9  19  36  52  69 103 142 166 198 254 304
#
# _framework density 19.650599
#
# number of rings (size 3 to 8) (size 9 to 14) (size 15 to 20)
#    0.000    2.200    4.000    1.500    0.000    3.600 
#    0.000    3.000    0.000    3.600    0.000    0.000 
#    0.000    8.000    0.000    0.000    0.000    0.000 
#
# Total GULP energy -222735.436727 kJ/mol
# GULP energy per Si atom -5568.385918 kJ/mol
# Density = 1.960587 g / cm^3
# Si number density = 19.650599 Si / 1000 Ang^3
#
#
#
# Elastic Constant Matrix: (Units=GPa)
#
#
# Indices 1 2 3 4 5 6 
#
# 1 19.7333 8.8739 14.4868 0.0000 0.0000 0.0000
# 2 8.8739 76.8937 49.5127 0.0000 0.0000 0.0000
# 3 14.4868 49.5127 191.8633 0.0000 0.0000 0.0000
# 4 0.0000 0.0000 0.0000 37.5191 0.0000 0.0000
# 5 0.0000 0.0000 0.0000 0.0000 1526.1478 0.0000
# 6 0.0000 0.0000 0.0000 0.0000 0.0000 2.5918
#
#
#
# Elastic Compliance Matrix: (Units=1/GPa)
#
#
# Indices 1 2 3 4 5 6 
#
# 1 0.054860 -0.004394 -0.003008 0.000000 0.000000 0.000000
# 2 -0.004394 0.015949 -0.003784 0.000000 0.000000 0.000000
# 3 -0.003008 -0.003784 0.006416 0.000000 0.000000 0.000000
# 4 0.000000 0.000000 0.000000 0.026653 0.000000 0.000000
# 5 0.000000 0.000000 0.000000 0.000000 0.000655 0.000000
# 6 0.000000 0.000000 0.000000 0.000000 0.000000 0.385826
#
#
# Mechanical properties :
#
#
# Convention : Reuss Voigt Hill
#
# Bulk Modulus (GPa) = 18.23094 48.24857 33.23975
# Shear Modulus (GPa) = 9.41592 327.62622 168.52107
#
# Velocity S-wave (km/s) = 2.19136 12.92624 9.27065
# Velocity P-wave (km/s) = 3.96238 15.72864 11.46932
#
# Compressibility (1/GPa) = 0.05485182
#
# Stress axis : x y z
#
# Youngs Moduli (GPa) = 18.22817 62.70145 155.86794
#
# Poissons Ratio (x) = 0.27551 0.46890
# Poissons Ratio (y) = 0.08009 0.58980
# Poissons Ratio (z) = 0.05484 0.23726
#
# Static dielectric constant tensor:
#      x y z
#    x 1.729830 0.000000 0.000000 
#    y 0.000000 1.692340 0.000000 
#    z 0.000000 0.000000 1.724480 
# 
# From -- ./inp_files/37202.got.cif
#   From: 2010.05.17/outbox.cif.g08.bks.cpg/sg69_19_cif.got.tgz:37202.got - 2010.06.03 19:29:58.
