data_PCOD9511559
_publ_section_title
;
Structure prediction by ZEFSAII (Michael W. Deem and Ramdas Pophale) SiO2 
 PCOD9511559
Probable space group: F M M M
;
_chemical_formula_sum "Si O2"
_cell_formula_units_Z 192
_cell_length_a 35.332686
_cell_length_b 18.351894
_cell_length_c 16.777402
_cell_angle_alpha 90.000000
_cell_angle_beta 90.000000
_cell_angle_gamma 90.000000
_cell_volume 10878.831664
_symmetry_space_group_name_H-M "F M M M"
_symmetry_group_IT_number 69
_symmetry_cell_setting 'orthorhombic'
loop_
_space_group_symop_operation_xyz
x,y,z
-x,-y,z
x,-y,-z
-x,y,-z
-x,-y,-z
x,y,-z
-x,y,z
x,-y,z
x,1/2+y,1/2+z
-x,1/2-y,1/2+z
x,1/2-y,1/2-z
-x,1/2+y,1/2-z
-x,1/2-y,1/2-z
x,1/2+y,1/2-z
-x,1/2+y,1/2+z
x,1/2-y,1/2+z
1/2+x,y,1/2+z
1/2-x,-y,1/2+z
1/2+x,-y,1/2-z
1/2-x,y,1/2-z
1/2-x,-y,1/2-z
1/2+x,y,1/2-z
1/2-x,y,1/2+z
1/2+x,-y,1/2+z
1/2+x,1/2+y,z
1/2-x,1/2-y,z
1/2+x,1/2-y,-z
1/2-x,1/2+y,-z
1/2-x,1/2-y,-z
1/2+x,1/2+y,-z
1/2-x,1/2+y,z
1/2+x,1/2-y,z
loop_
_atom_site_type_symbol
_atom_site_label
_atom_site_fract_x
_atom_site_fract_y
_atom_site_fract_z
Si Si1 0.895448 0.585066 0.000000
Si Si2 0.419557 0.772847 0.662243
Si Si3 0.798439 0.586942 0.590729
Si Si4 0.271879 0.326081 0.405568
Si Si5 0.355278 0.347652 0.349073
Si Si6 0.374845 0.914171 0.682344
Si Si7 0.544764 0.287953 0.500000
O O1 0.870674 0.608105 0.924322
O O2 0.904194 0.500000 0.000000
O O3 0.932687 0.635565 0.000000
O O4 0.436047 0.750000 0.750000
O O5 0.380781 0.725188 0.657488
O O6 0.408321 0.857893 0.661822
O O7 0.442637 0.752095 0.582497
O O8 0.800223 0.615238 0.500000
O O9 0.796980 0.500000 0.589513
O O10 0.759104 0.616222 0.624845
O O11 0.837318 0.606993 0.633018
O O12 0.279974 0.339006 0.500000
O O13 0.250000 0.250000 0.398727
O O14 0.311394 0.328799 0.359980
O O15 0.363650 0.397007 0.272830
O O16 0.383113 0.000000 0.670083
O O17 0.500000 0.297366 0.500000
#
# Coordination Sequence:
#
# PCOD9511559 Si02
#       7
#    16  32  32  32  32  32  16
#     4  10  20  35  57  84 115 143 174 222 275 334
#     4   9  20  37  58  83 114 142 179 225 270 324
#     4   9  19  32  44  65  97 135 179 226 276 321
#     4  10  19  31  48  70  99 141 190 236 280 324
#     4  10  19  34  52  79 106 144 187 232 278 327
#     4  10  20  34  53  77 105 142 188 234 279 324
#     4  10  22  39  63  91 114 146 181 209 263 341
#
# _framework density 17.648955000000001
#
# number of rings (size 3 to 8) (size 9 to 14) (size 15 to 20)
#    0.000    2.333    0.833    1.500    1.167    2.500 
#    0.000    2.500    0.000    1.000    0.000    0.000 
#    0.000    0.000    0.000    0.000    0.000    0.000 
#
# Total GULP energy -267620.992887 kJ/mol
# GULP energy per Si atom -5575.437352 kJ/mol
# Density = 1.760879 g / cm^3
# Si number density = 17.648955 Si / 1000 Ang^3
#
#
#
# Elastic Constant Matrix: (Units=GPa)
#
#
# Indices 1 2 3 4 5 6 
#
# 1 90.8299 32.3607 38.8356 0.0000 0.0000 0.0000
# 2 32.3607 76.1941 29.4349 0.0000 0.0000 0.0000
# 3 38.8356 29.4349 88.9377 0.0000 0.0000 0.0000
# 4 0.0000 0.0000 0.0000 21.2310 0.0000 0.0000
# 5 0.0000 0.0000 0.0000 0.0000 16.9075 0.0000
# 6 0.0000 0.0000 0.0000 0.0000 0.0000 7.3072
#
#
#
# Elastic Compliance Matrix: (Units=1/GPa)
#
#
# Indices 1 2 3 4 5 6 
#
# 1 0.014675 -0.004308 -0.004982 0.000000 0.000000 0.000000
# 2 -0.004308 0.016313 -0.003518 0.000000 0.000000 0.000000
# 3 -0.004982 -0.003518 0.014584 0.000000 0.000000 0.000000
# 4 0.000000 0.000000 0.000000 0.047101 0.000000 0.000000
# 5 0.000000 0.000000 0.000000 0.000000 0.059145 0.000000
# 6 0.000000 0.000000 0.000000 0.000000 0.000000 0.136852
#
#
# Mechanical properties :
#
#
# Convention : Reuss Voigt Hill
#
# Bulk Modulus (GPa) = 50.11148 50.80268 50.45708
# Shear Modulus (GPa) = 15.57939 19.44449 17.51194
#
# Velocity S-wave (km/s) = 2.97431 3.32284 3.15340
# Velocity P-wave (km/s) = 6.34433 6.60070 6.47378
#
# Compressibility (1/GPa) = 0.01995551
#
# Stress axis : x y z
#
# Youngs Moduli (GPa) = 68.14533 61.30080 68.57029
#
# Poissons Ratio (x) = 0.26407 0.34162
# Poissons Ratio (y) = 0.29356 0.24122
# Poissons Ratio (z) = 0.33950 0.21565
#
# Static dielectric constant tensor:
#      x y z
#    x 1.566320 0.000000 0.000000 
#    y 0.000000 1.625410 0.000000 
#    z 0.000000 0.000000 1.680300 
# 
# From -- ./inp_files/27795.got.cif
#   From: 2010.05.17/outbox.cif.g08.bks.cpg/sg69_14_cif.got.tgz:27795.got - 2010.06.03 19:29:58.
