data_PCOD9511900
_publ_section_title
;
Structure prediction by ZEFSAII (Michael W. Deem and Ramdas Pophale) SiO2 
 PCOD9511900
Probable space group: F M M M
;
_chemical_formula_sum "Si O2"
_cell_formula_units_Z 192
_cell_length_a 17.279335
_cell_length_b 34.435331
_cell_length_c 18.332180
_cell_angle_alpha 90.000000
_cell_angle_beta 90.000000
_cell_angle_gamma 90.000000
_cell_volume 10908.006781
_symmetry_space_group_name_H-M "F M M M"
_symmetry_group_IT_number 69
_symmetry_cell_setting 'orthorhombic'
loop_
_space_group_symop_operation_xyz
x,y,z
-x,-y,z
x,-y,-z
-x,y,-z
-x,-y,-z
x,y,-z
-x,y,z
x,-y,z
x,1/2+y,1/2+z
-x,1/2-y,1/2+z
x,1/2-y,1/2-z
-x,1/2+y,1/2-z
-x,1/2-y,1/2-z
x,1/2+y,1/2-z
-x,1/2+y,1/2+z
x,1/2-y,1/2+z
1/2+x,y,1/2+z
1/2-x,-y,1/2+z
1/2+x,-y,1/2-z
1/2-x,y,1/2-z
1/2-x,-y,1/2-z
1/2+x,y,1/2-z
1/2-x,y,1/2+z
1/2+x,-y,1/2+z
1/2+x,1/2+y,z
1/2-x,1/2-y,z
1/2+x,1/2-y,-z
1/2-x,1/2+y,-z
1/2-x,1/2-y,-z
1/2+x,1/2+y,-z
1/2-x,1/2+y,z
1/2+x,1/2-y,z
loop_
_atom_site_type_symbol
_atom_site_label
_atom_site_fract_x
_atom_site_fract_y
_atom_site_fract_z
Si Si1 0.500000 0.454014 0.212425
Si Si2 0.347749 0.355375 0.852393
Si Si3 0.165555 0.736394 0.666638
Si Si4 0.000000 0.392804 0.585272
Si Si5 0.662927 0.919719 0.229500
Si Si6 0.686712 0.623032 0.584871
Si Si7 0.085380 0.302731 0.086999
O O1 0.500000 0.500000 0.203752
O O2 0.500000 0.431084 0.135694
O O3 0.417452 0.441814 0.250454
O O4 0.343501 0.309554 0.838910
O O5 0.425851 0.367861 0.891693
O O6 0.340784 0.379912 0.777369
O O7 0.276927 0.368898 0.902783
O O8 0.159684 0.750000 0.750000
O O9 0.250000 0.750000 0.639442
O O10 0.104974 0.761583 0.621672
O O11 0.000000 0.401667 0.500000
O O12 0.750000 0.936315 0.250000
O O13 0.663090 0.909204 0.143955
O O14 0.669546 0.614337 0.500000
O O15 0.644461 0.663203 0.606428
O O16 0.000000 0.315482 0.109845
O O17 0.087735 0.298814 0.000000
#
# Coordination Sequence:
#
# PCOD9511900 Si02
#       7
#    16  32  32  16  32  32  32
#     4  10  22  41  65  95 120 146 181 217 279 355
#     4  10  20  36  55  79 110 151 193 241 288 336
#     4  11  22  35  52  72 102 148 197 246 288 331
#     4  10  22  39  61  90 117 143 182 234 287 342
#     4   9  20  37  60  85 115 149 187 230 277 339
#     4  10  19  34  56  78 106 149 196 238 278 328
#     4  10  22  35  46  69 103 141 189 239 285 327
#
# _framework density 17.601749999999999
#
# number of rings (size 3 to 8) (size 9 to 14) (size 15 to 20)
#    0.000    2.000    1.667    1.500    7.000    2.500 
#    3.000    0.000    0.000    1.000    0.000    0.000 
#    0.000    0.000    0.000    0.000    0.000    0.000 
#
# Total GULP energy -267619.872695 kJ/mol
# GULP energy per Si atom -5575.414014 kJ/mol
# Density = 1.756169 g / cm^3
# Si number density = 17.601750 Si / 1000 Ang^3
#
#
#
# Elastic Constant Matrix: (Units=GPa)
#
#
# Indices 1 2 3 4 5 6 
#
# 1 140.5042 52.1581 34.1847 0.0000 0.0000 0.0000
# 2 52.1581 102.1218 33.9537 0.0000 0.0000 0.0000
# 3 34.1847 33.9537 79.3988 0.0000 0.0000 0.0000
# 4 0.0000 0.0000 0.0000 4.3891 0.0000 0.0000
# 5 0.0000 0.0000 0.0000 0.0000 25.9963 0.0000
# 6 0.0000 0.0000 0.0000 0.0000 0.0000 9.2692
#
#
#
# Elastic Compliance Matrix: (Units=1/GPa)
#
#
# Indices 1 2 3 4 5 6 
#
# 1 0.009116 -0.003906 -0.002254 0.000000 0.000000 0.000000
# 2 -0.003906 0.013089 -0.003916 0.000000 0.000000 0.000000
# 3 -0.002254 -0.003916 0.015240 0.000000 0.000000 0.000000
# 4 0.000000 0.000000 0.000000 0.227838 0.000000 0.000000
# 5 0.000000 0.000000 0.000000 0.000000 0.038467 0.000000
# 6 0.000000 0.000000 0.000000 0.000000 0.000000 0.107884
#
#
# Mechanical properties :
#
#
# Convention : Reuss Voigt Hill
#
# Bulk Modulus (GPa) = 57.82912 62.51311 60.17112
# Shear Modulus (GPa) = 11.42725 21.37947 16.40336
#
# Velocity S-wave (km/s) = 2.55073 3.48892 3.05604
# Velocity P-wave (km/s) = 6.44984 7.19878 6.83458
#
# Compressibility (1/GPa) = 0.01729233
#
# Stress axis : x y z
#
# Youngs Moduli (GPa) = 109.69957 76.39875 65.61837
#
# Poissons Ratio (x) = 0.29844 0.14792
# Poissons Ratio (y) = 0.42852 0.25693
# Poissons Ratio (z) = 0.24729 0.29914
#
# Static dielectric constant tensor:
#      x y z
#    x 1.654200 0.000000 0.000000 
#    y 0.000000 1.558490 0.000000 
#    z 0.000000 0.000000 1.620520 
# 
# From -- ./inp_files/23705.got.cif
#   From: 2010.05.17/outbox.cif.g08.bks.cpg/sg69_12_cif.got.tgz:23705.got - 2010.06.03 19:29:58.
