data_PCOD9511102
_publ_section_title
;
Structure prediction by ZEFSAII (Michael W. Deem and Ramdas Pophale) SiO2 
 PCOD9511102
Probable space group: F M M M
;
_chemical_formula_sum "Si O2"
_cell_formula_units_Z 160
_cell_length_a 17.766011
_cell_length_b 14.821954
_cell_length_c 27.893246
_cell_angle_alpha 90.000000
_cell_angle_beta 90.000000
_cell_angle_gamma 90.000000
_cell_volume 7345.044728
_symmetry_space_group_name_H-M "F M M M"
_symmetry_group_IT_number 69
_symmetry_cell_setting 'orthorhombic'
loop_
_space_group_symop_operation_xyz
x,y,z
-x,-y,z
x,-y,-z
-x,y,-z
-x,-y,-z
x,y,-z
-x,y,z
x,-y,z
x,1/2+y,1/2+z
-x,1/2-y,1/2+z
x,1/2-y,1/2-z
-x,1/2+y,1/2-z
-x,1/2-y,1/2-z
x,1/2+y,1/2-z
-x,1/2+y,1/2+z
x,1/2-y,1/2+z
1/2+x,y,1/2+z
1/2-x,-y,1/2+z
1/2+x,-y,1/2-z
1/2-x,y,1/2-z
1/2-x,-y,1/2-z
1/2+x,y,1/2-z
1/2-x,y,1/2+z
1/2+x,-y,1/2+z
1/2+x,1/2+y,z
1/2-x,1/2-y,z
1/2+x,1/2-y,-z
1/2-x,1/2+y,-z
1/2-x,1/2-y,-z
1/2+x,1/2+y,-z
1/2-x,1/2+y,z
1/2+x,1/2-y,z
loop_
_atom_site_type_symbol
_atom_site_label
_atom_site_fract_x
_atom_site_fract_y
_atom_site_fract_z
Si Si1 0.084922 0.355768 0.697960
Si Si2 0.383659 0.638937 0.694160
Si Si3 0.266875 0.857295 0.644262
Si Si4 0.147928 0.395908 0.444379
Si Si5 0.000000 0.216972 0.057671
Si Si6 0.500000 0.903266 0.113014
O O1 0.093680 0.389596 0.752532
O O2 0.098875 0.246940 0.696253
O O3 0.154310 0.388817 0.666841
O O4 0.000000 0.374323 0.681543
O O5 0.299118 0.613204 0.679899
O O6 0.431017 0.602879 0.649877
O O7 0.250000 0.750000 0.643000
O O8 0.278788 0.884798 0.589131
O O9 0.164461 0.374117 0.500000
O O10 0.123269 0.500000 0.442438
O O11 0.077429 0.333933 0.428013
O O12 0.000000 0.316516 0.079452
O O13 0.000000 0.218454 0.000000
O O14 0.500000 0.000000 0.087736
#
# Coordination Sequence:
#
# PCOD9511102 Si02
#       6
#    32  32  32  32  16  16
#     4  10  17  33  62  89 122 167 218 260 309 371
#     4  10  19  36  55  88 125 168 214 260 310 366
#     4  10  21  33  59  94 129 165 209 259 319 379
#     4  10  22  41  66  95 126 164 212 271 336 393
#     4  10  21  41  67  93 126 162 209 271 331 390
#     4  12  24  39  64  90 127 177 222 262 315 390
#
# _framework density 21.783394000000001
#
# number of rings (size 3 to 8) (size 9 to 14) (size 15 to 20)
#    0.000    1.800    2.000    3.900    1.400    5.000 
#    0.000    2.000    0.000    2.400    0.000    0.000 
#    0.000    0.000    0.000    0.000    0.000    0.000 
#
# Total GULP energy -223230.375771 kJ/mol
# GULP energy per Si atom -5580.759394 kJ/mol
# Density = 2.173381 g / cm^3
# Si number density = 21.783394 Si / 1000 Ang^3
#
#
#
# Elastic Constant Matrix: (Units=GPa)
#
#
# Indices 1 2 3 4 5 6 
#
# 1 147.5419 10.1537 49.5167 0.0000 0.0000 0.0000
# 2 10.1537 89.6437 3.9340 0.0000 0.0000 0.0000
# 3 49.5167 3.9340 58.2271 0.0000 0.0000 0.0000
# 4 0.0000 0.0000 0.0000 3.4975 0.0000 0.0000
# 5 0.0000 0.0000 0.0000 0.0000 59.0193 0.0000
# 6 0.0000 0.0000 0.0000 0.0000 0.0000 9.9921
#
#
#
# Elastic Compliance Matrix: (Units=1/GPa)
#
#
# Indices 1 2 3 4 5 6 
#
# 1 0.009532 -0.000726 -0.008057 0.000000 0.000000 0.000000
# 2 -0.000726 0.011244 -0.000142 0.000000 0.000000 0.000000
# 3 -0.008057 -0.000142 0.024035 0.000000 0.000000 0.000000
# 4 0.000000 0.000000 0.000000 0.285914 0.000000 0.000000
# 5 0.000000 0.000000 0.000000 0.000000 0.016944 0.000000
# 6 0.000000 0.000000 0.000000 0.000000 0.000000 0.100079
#
#
# Mechanical properties :
#
#
# Convention : Reuss Voigt Hill
#
# Bulk Modulus (GPa) = 37.09108 46.95793 42.02451
# Shear Modulus (GPa) = 10.53553 29.95568 20.24560
#
# Velocity S-wave (km/s) = 2.20159 3.71234 3.05192
# Velocity P-wave (km/s) = 4.85045 6.32288 5.63497
#
# Compressibility (1/GPa) = 0.02696066
#
# Stress axis : x y z
#
# Youngs Moduli (GPa) = 104.91395 88.93829 41.60560
#
# Poissons Ratio (x) = 0.06457 0.33520
# Poissons Ratio (y) = 0.07617 0.00592
# Poissons Ratio (z) = 0.84526 0.01265
#
# Static dielectric constant tensor:
#      x y z
#    x 1.889860 0.000000 0.000000 
#    y 0.000000 1.848120 0.000000 
#    z 0.000000 0.000000 1.784950 
# 
# From -- ./inp_files/46271.got.cif
#   From: 2010.05.17/outbox.cif.g08.bks.cpg/sg69_24_cif.got.tgz:46271.got - 2010.06.03 19:29:58.
