data_PCOD9511955
_publ_section_title
;
Structure prediction by ZEFSAII (Michael W. Deem and Ramdas Pophale) SiO2 
 PCOD9511955
Probable space group: F M M M
;
_chemical_formula_sum "Si O2"
_cell_formula_units_Z 160
_cell_length_a 19.117306
_cell_length_b 14.945583
_cell_length_c 24.365559
_cell_angle_alpha 90.000000
_cell_angle_beta 90.000000
_cell_angle_gamma 90.000000
_cell_volume 6961.710061
_symmetry_space_group_name_H-M "F M M M"
_symmetry_group_IT_number 69
_symmetry_cell_setting 'orthorhombic'
loop_
_space_group_symop_operation_xyz
x,y,z
-x,-y,z
x,-y,-z
-x,y,-z
-x,-y,-z
x,y,-z
-x,y,z
x,-y,z
x,1/2+y,1/2+z
-x,1/2-y,1/2+z
x,1/2-y,1/2-z
-x,1/2+y,1/2-z
-x,1/2-y,1/2-z
x,1/2+y,1/2-z
-x,1/2+y,1/2+z
x,1/2-y,1/2+z
1/2+x,y,1/2+z
1/2-x,-y,1/2+z
1/2+x,-y,1/2-z
1/2-x,y,1/2-z
1/2-x,-y,1/2-z
1/2+x,y,1/2-z
1/2-x,y,1/2+z
1/2+x,-y,1/2+z
1/2+x,1/2+y,z
1/2-x,1/2-y,z
1/2+x,1/2-y,-z
1/2-x,1/2+y,-z
1/2-x,1/2-y,-z
1/2+x,1/2+y,-z
1/2-x,1/2+y,z
1/2+x,1/2-y,z
loop_
_atom_site_type_symbol
_atom_site_label
_atom_site_fract_x
_atom_site_fract_y
_atom_site_fract_z
Si Si1 0.916273 0.605886 0.059673
Si Si2 0.577833 0.105488 0.434715
Si Si3 0.080070 0.190522 0.319662
Si Si4 0.418453 0.500000 0.692338
Si Si5 0.242746 0.000000 0.315041
Si Si6 0.687775 0.182911 0.645110
O O1 0.898494 0.500000 0.062530
O O2 0.902676 0.653298 0.118037
O O3 0.000000 0.611480 0.055673
O O4 0.888463 0.639842 0.000000
O O5 0.582414 0.113317 0.500000
O O6 0.500000 0.136365 0.418207
O O7 0.637627 0.159325 0.405250
O O8 0.583333 0.000000 0.421114
O O9 0.137456 0.266339 0.311539
O O10 0.000000 0.223101 0.317687
O O11 0.082350 0.100096 0.282897
O O12 0.500000 0.500000 0.666897
O O13 0.338898 0.500000 0.669272
O O14 0.250000 0.000000 0.250000
O O15 0.279392 0.910129 0.335739
O O16 0.750000 0.250000 0.631079
#
# Coordination Sequence:
#
# PCOD9511955 Si02
#       6
#    32  32  32  16  16  32
#     4   8  13  23  44  79 125 175 221 265 314 368
#     4   9  19  39  67  99 140 189 233 274 326 398
#     4  10  19  34  60  94 131 173 219 274 332 398
#     4  10  20  42  69  96 130 168 209 266 341 404
#     4  12  28  52  73  96 131 177 220 285 366 428
#     4  12  24  41  68  99 134 175 231 280 345 417
#
# _framework density 22.982859000000001
#
# number of rings (size 3 to 8) (size 9 to 14) (size 15 to 20)
#    0.000    2.000    4.000    1.800    0.000    1.600 
#    0.000    4.000    0.000    6.000    0.000    0.000 
#    0.000    0.000    0.000    0.000    0.000    0.000 
#
# Total GULP energy -223032.479052 kJ/mol
# GULP energy per Si atom -5575.811976 kJ/mol
# Density = 2.293055 g / cm^3
# Si number density = 22.982859 Si / 1000 Ang^3
#
#
#
# Elastic Constant Matrix: (Units=GPa)
#
#
# Indices 1 2 3 4 5 6 
#
# 1 188.2028 95.8083 26.0802 0.0000 0.0000 0.0000
# 2 95.8083 154.3141 30.2897 0.0000 0.0000 0.0000
# 3 26.0802 30.2897 71.2138 0.0000 0.0000 0.0000
# 4 0.0000 0.0000 0.0000 17.9634 0.0000 0.0000
# 5 0.0000 0.0000 0.0000 0.0000 45.0363 0.0000
# 6 0.0000 0.0000 0.0000 0.0000 0.0000 -32.5253
#
#
#
# Elastic Compliance Matrix: (Units=1/GPa)
#
#
# Indices 1 2 3 4 5 6 
#
# 1 0.007818 -0.004683 -0.000871 0.000000 0.000000 0.000000
# 2 -0.004683 0.009876 -0.002485 0.000000 0.000000 0.000000
# 3 -0.000871 -0.002485 0.015418 0.000000 0.000000 0.000000
# 4 0.000000 0.000000 0.000000 0.055669 0.000000 0.000000
# 5 0.000000 0.000000 0.000000 0.000000 0.022204 0.000000
# 6 0.000000 0.000000 0.000000 0.000000 0.000000 -0.030745
#
#
# Mechanical properties :
#
#
# Convention : Reuss Voigt Hill
#
# Bulk Modulus (GPa) = 58.71056 79.78749 69.24902
# Shear Modulus (GPa) = 49.02105 23.53171 36.27638
#
# Velocity S-wave (km/s) = 4.62339 3.20329 3.97723
# Velocity P-wave (km/s) = 7.35539 6.96224 7.16152
#
# Compressibility (1/GPa) = 0.01703271
#
# Stress axis : x y z
#
# Youngs Moduli (GPa) = 127.90797 101.25926 64.85726
#
# Poissons Ratio (x) = 0.47419 0.05651
# Poissons Ratio (y) = 0.59899 0.16120
# Poissons Ratio (z) = 0.11145 0.25167
#
# Static dielectric constant tensor:
#      x y z
#    x 1.831380 0.000000 0.000000 
#    y 0.000000 1.977810 0.000000 
#    z 0.000000 0.000000 1.979130 
# 
# From -- ./inp_files/46245.got.cif
#   From: 2010.05.17/outbox.cif.g08.bks.cpg/sg69_24_cif.got.tgz:46245.got - 2010.06.03 19:29:58.
