data_PCOD9511972
_publ_section_title
;
Structure prediction by ZEFSAII (Michael W. Deem and Ramdas Pophale) SiO2 
 PCOD9511972
Probable space group: F M M M
;
_chemical_formula_sum "Si O2"
_cell_formula_units_Z 144
_cell_length_a 16.380001
_cell_length_b 16.472479
_cell_length_c 28.463908
_cell_angle_alpha 90.000000
_cell_angle_beta 90.000000
_cell_angle_gamma 90.000000
_cell_volume 7680.109526
_symmetry_space_group_name_H-M "F M M M"
_symmetry_group_IT_number 69
_symmetry_cell_setting 'orthorhombic'
loop_
_space_group_symop_operation_xyz
x,y,z
-x,-y,z
x,-y,-z
-x,y,-z
-x,-y,-z
x,y,-z
-x,y,z
x,-y,z
x,1/2+y,1/2+z
-x,1/2-y,1/2+z
x,1/2-y,1/2-z
-x,1/2+y,1/2-z
-x,1/2-y,1/2-z
x,1/2+y,1/2-z
-x,1/2+y,1/2+z
x,1/2-y,1/2+z
1/2+x,y,1/2+z
1/2-x,-y,1/2+z
1/2+x,-y,1/2-z
1/2-x,y,1/2-z
1/2-x,-y,1/2-z
1/2+x,y,1/2-z
1/2-x,y,1/2+z
1/2+x,-y,1/2+z
1/2+x,1/2+y,z
1/2-x,1/2-y,z
1/2+x,1/2-y,-z
1/2-x,1/2+y,-z
1/2-x,1/2-y,-z
1/2+x,1/2+y,-z
1/2-x,1/2+y,z
1/2+x,1/2-y,z
loop_
_atom_site_type_symbol
_atom_site_label
_atom_site_fract_x
_atom_site_fract_y
_atom_site_fract_z
Si Si1 0.701506 0.406010 0.554513
Si Si2 0.904826 0.654774 0.868054
Si Si3 0.000000 0.595581 0.553140
Si Si4 0.244015 0.651014 0.196679
Si Si5 0.848741 0.661313 0.389086
O O1 0.689214 0.387355 0.500000
O O2 0.729160 0.500000 0.558439
O O3 0.620706 0.394177 0.585448
O O4 0.769679 0.348247 0.577623
O O5 0.842465 0.628646 0.826903
O O6 0.880398 0.748052 0.879130
O O7 0.000000 0.647997 0.856754
O O8 0.921217 0.619045 0.583199
O O9 0.000000 0.500000 0.547892
O O10 0.000000 0.631781 0.500000
O O11 0.250000 0.621901 0.250000
O O12 0.250000 0.750000 0.197534
O O13 0.315875 0.625724 0.160604
#
# Coordination Sequence:
#
# PCOD9511972 Si02
#       5
#    32  32  16  32  32
#     4  10  21  36  54  75 104 148 191 222 264 322
#     4  10  20  35  54  82 114 139 175 227 274 321
#     4  11  22  34  52  79 111 145 181 222 271 325
#     4   8  16  33  55  80 107 138 179 219 269 323
#     4  10  19  35  55  79 109 139 181 227 270 319
#
# _framework density 18.749732000000002
#
# number of rings (size 3 to 8) (size 9 to 14) (size 15 to 20)
#    0.000    2.333    1.111    3.333    0.000    5.333 
#    2.000    3.333    0.000   16.667    0.000    0.000 
#    0.000    0.000    0.000    0.000    0.000    0.000 
#
# Total GULP energy -200656.387731 kJ/mol
# GULP energy per Si atom -5573.788548 kJ/mol
# Density = 1.870706 g / cm^3
# Si number density = 18.749732 Si / 1000 Ang^3
#
#
#
# Elastic Constant Matrix: (Units=GPa)
#
#
# Indices 1 2 3 4 5 6 
#
# 1 140.7499 10.9544 75.1950 0.0000 0.0000 0.0000
# 2 10.9544 15.1070 19.3446 0.0000 0.0000 0.0000
# 3 75.1950 19.3446 186.8822 0.0000 0.0000 0.0000
# 4 0.0000 0.0000 0.0000 60.5053 0.0000 0.0000
# 5 0.0000 0.0000 0.0000 0.0000 24.4914 0.0000
# 6 0.0000 0.0000 0.0000 0.0000 0.0000 13.6479
#
#
#
# Elastic Compliance Matrix: (Units=1/GPa)
#
#
# Indices 1 2 3 4 5 6 
#
# 1 0.009114 -0.002205 -0.003439 0.000000 0.000000 0.000000
# 2 -0.002205 0.076843 -0.007067 0.000000 0.000000 0.000000
# 3 -0.003439 -0.007067 0.007466 0.000000 0.000000 0.000000
# 4 0.000000 0.000000 0.000000 0.016527 0.000000 0.000000
# 5 0.000000 0.000000 0.000000 0.000000 0.040831 0.000000
# 6 0.000000 0.000000 0.000000 0.000000 0.000000 0.073271
#
#
# Mechanical properties :
#
#
# Convention : Reuss Voigt Hill
#
# Bulk Modulus (GPa) = 14.70566 61.52523 38.11545
# Shear Modulus (GPa) = 18.37286 35.54527 26.95906
#
# Velocity S-wave (km/s) = 3.13373 4.35877 3.79600
# Velocity P-wave (km/s) = 4.57754 7.63001 6.29170
#
# Compressibility (1/GPa) = 0.06800101
#
# Stress axis : x y z
#
# Youngs Moduli (GPa) = 109.72687 13.01356 133.93869
#
# Poissons Ratio (x) = 0.02870 0.46058
# Poissons Ratio (y) = 0.24196 0.94654
# Poissons Ratio (z) = 0.37732 0.09197
#
# Static dielectric constant tensor:
#      x y z
#    x 1.656790 0.000000 0.000000 
#    y 0.000000 1.673930 0.000000 
#    z 0.000000 0.000000 1.657240 
# 
# From -- ./inp_files/21772.got.cif
#   From: 2010.05.17/outbox.cif.g08.bks.cpg/sg69_11_cif.got.tgz:21772.got - 2010.06.03 19:29:58.
