data_PCOD9511842
_publ_section_title
;
Structure prediction by ZEFSAII (Michael W. Deem and Ramdas Pophale) SiO2 
 PCOD9511842
Probable space group: F M M M
;
_chemical_formula_sum "Si O2"
_cell_formula_units_Z 160
_cell_length_a 22.526751
_cell_length_b 18.818121
_cell_length_c 19.033651
_cell_angle_alpha 90.000000
_cell_angle_beta 90.000000
_cell_angle_gamma 90.000000
_cell_volume 8068.576428
_symmetry_space_group_name_H-M "F M M M"
_symmetry_group_IT_number 69
_symmetry_cell_setting 'orthorhombic'
loop_
_space_group_symop_operation_xyz
x,y,z
-x,-y,z
x,-y,-z
-x,y,-z
-x,-y,-z
x,y,-z
-x,y,z
x,-y,z
x,1/2+y,1/2+z
-x,1/2-y,1/2+z
x,1/2-y,1/2-z
-x,1/2+y,1/2-z
-x,1/2-y,1/2-z
x,1/2+y,1/2-z
-x,1/2+y,1/2+z
x,1/2-y,1/2+z
1/2+x,y,1/2+z
1/2-x,-y,1/2+z
1/2+x,-y,1/2-z
1/2-x,y,1/2-z
1/2-x,-y,1/2-z
1/2+x,y,1/2-z
1/2-x,y,1/2+z
1/2+x,-y,1/2+z
1/2+x,1/2+y,z
1/2-x,1/2-y,z
1/2+x,1/2-y,-z
1/2-x,1/2+y,-z
1/2-x,1/2-y,-z
1/2+x,1/2+y,-z
1/2-x,1/2+y,z
1/2+x,1/2-y,z
loop_
_atom_site_type_symbol
_atom_site_label
_atom_site_fract_x
_atom_site_fract_y
_atom_site_fract_z
Si Si1 0.068344 0.302054 0.816192
Si Si2 0.500000 0.919460 0.414525
Si Si3 0.391127 0.679570 0.084349
Si Si4 0.645561 0.084455 0.138510
Si Si5 0.066837 0.915104 0.500000
Si Si6 0.242646 0.834386 0.083715
O O1 0.068786 0.250000 0.750000
O O2 0.095657 0.253957 0.878331
O O3 0.109359 0.370558 0.804170
O O4 0.000000 0.321805 0.831224
O O5 0.500000 0.921801 0.500000
O O6 0.442179 0.875153 0.393713
O O7 0.500000 0.000000 0.388626
O O8 0.325824 0.650454 0.100964
O O9 0.393644 0.689763 0.000000
O O10 0.709785 0.118817 0.125020
O O11 0.648510 0.000000 0.149703
O O12 0.605662 0.099555 0.068825
O O13 0.000000 0.883610 0.500000
O O14 0.059862 0.000000 0.500000
O O15 0.250000 0.750000 0.096586
O O16 0.251979 0.846168 0.000000
#
# Coordination Sequence:
#
# PCOD9511842 Si02
#       6
#    32  16  32  32  16  32
#     4  11  24  41  62  89 125 163 209 258 317 377
#     4   9  18  34  55  84 113 141 197 270 316 348
#     4  10  20  36  62  90 116 157 208 254 309 371
#     4  11  22  38  60  92 129 162 202 253 315 378
#     4   9  18  32  53  88 128 159 190 241 306 370
#     4  10  19  33  56  91 127 163 203 248 302 365
#
# _framework density 19.830016000000001
#
# number of rings (size 3 to 8) (size 9 to 14) (size 15 to 20)
#    0.000    1.800    4.000    0.600    1.400    2.000 
#    0.000    5.000    0.000    1.200    0.000    0.000 
#    0.000    0.000    0.000    0.000    0.000    0.000 
#
# Total GULP energy -223342.277461 kJ/mol
# GULP energy per Si atom -5583.556937 kJ/mol
# Density = 1.978488 g / cm^3
# Si number density = 19.830016 Si / 1000 Ang^3
#
#
#
# Elastic Constant Matrix: (Units=GPa)
#
#
# Indices 1 2 3 4 5 6 
#
# 1 189.6761 81.0670 25.3004 0.0000 0.0000 0.0000
# 2 81.0670 145.4390 19.3923 0.0000 0.0000 0.0000
# 3 25.3004 19.3923 16.9062 0.0000 0.0000 0.0000
# 4 0.0000 0.0000 0.0000 17.0198 0.0000 0.0000
# 5 0.0000 0.0000 0.0000 0.0000 17.3106 0.0000
# 6 0.0000 0.0000 0.0000 0.0000 0.0000 28.8250
#
#
#
# Elastic Compliance Matrix: (Units=1/GPa)
#
#
# Indices 1 2 3 4 5 6 
#
# 1 0.007703 -0.003254 -0.007794 0.000000 0.000000 0.000000
# 2 -0.003254 0.009492 -0.006018 0.000000 0.000000 0.000000
# 3 -0.007794 -0.006018 0.077717 0.000000 0.000000 0.000000
# 4 0.000000 0.000000 0.000000 0.058755 0.000000 0.000000
# 5 0.000000 0.000000 0.000000 0.000000 0.057768 0.000000
# 6 0.000000 0.000000 0.000000 0.000000 0.000000 0.034692
#
#
# Mechanical properties :
#
#
# Convention : Reuss Voigt Hill
#
# Bulk Modulus (GPa) = 16.45305 67.06008 41.75657
# Shear Modulus (GPa) = 16.63782 27.71519 22.17650
#
# Velocity S-wave (km/s) = 2.89973 3.74256 3.34777
# Velocity P-wave (km/s) = 4.41886 7.25028 6.00387
#
# Compressibility (1/GPa) = 0.06077899
#
# Stress axis : x y z
#
# Youngs Moduli (GPa) = 129.82569 105.35217 12.86712
#
# Poissons Ratio (x) = 0.34283 0.10029
# Poissons Ratio (y) = 0.42247 0.07743
# Poissons Ratio (z) = 1.01193 0.63400
#
# Static dielectric constant tensor:
#      x y z
#    x 1.695410 0.000000 0.000000 
#    y 0.000000 1.688870 0.000000 
#    z 0.000000 0.000000 1.776940 
# 
# From -- ./inp_files/31744.got.cif
#   From: 2010.05.17/outbox.cif.g08.bks.cpg/sg69_16_cif.got.tgz:31744.got - 2010.06.03 19:29:58.
