data_PCOD9511939
_publ_section_title
;
Structure prediction by ZEFSAII (Michael W. Deem and Ramdas Pophale) SiO2 
 PCOD9511939
Probable space group: F M M M
;
_chemical_formula_sum "Si O2"
_cell_formula_units_Z 176
_cell_length_a 15.865095
_cell_length_b 17.400925
_cell_length_c 28.488502
_cell_angle_alpha 90.000000
_cell_angle_beta 90.000000
_cell_angle_gamma 90.000000
_cell_volume 7864.744632
_symmetry_space_group_name_H-M "F M M M"
_symmetry_group_IT_number 69
_symmetry_cell_setting 'orthorhombic'
loop_
_space_group_symop_operation_xyz
x,y,z
-x,-y,z
x,-y,-z
-x,y,-z
-x,-y,-z
x,y,-z
-x,y,z
x,-y,z
x,1/2+y,1/2+z
-x,1/2-y,1/2+z
x,1/2-y,1/2-z
-x,1/2+y,1/2-z
-x,1/2-y,1/2-z
x,1/2+y,1/2-z
-x,1/2+y,1/2+z
x,1/2-y,1/2+z
1/2+x,y,1/2+z
1/2-x,-y,1/2+z
1/2+x,-y,1/2-z
1/2-x,y,1/2-z
1/2-x,-y,1/2-z
1/2+x,y,1/2-z
1/2-x,y,1/2+z
1/2+x,-y,1/2+z
1/2+x,1/2+y,z
1/2-x,1/2-y,z
1/2+x,1/2-y,-z
1/2-x,1/2+y,-z
1/2-x,1/2-y,-z
1/2+x,1/2+y,-z
1/2-x,1/2+y,z
1/2+x,1/2-y,z
loop_
_atom_site_type_symbol
_atom_site_label
_atom_site_fract_x
_atom_site_fract_y
_atom_site_fract_z
Si Si1 0.098129 0.334239 0.735431
Si Si2 0.602690 0.324545 0.945748
Si Si3 0.651095 0.912777 0.355270
Si Si4 0.843783 0.585825 0.821894
Si Si5 0.098426 0.000000 0.555691
Si Si6 0.901410 0.839357 0.591879
O O1 0.129442 0.250000 0.750000
O O2 0.106808 0.354977 0.681019
O O3 0.147321 0.395077 0.767427
O O4 0.000000 0.339197 0.748419
O O5 0.500000 0.327057 0.942583
O O6 0.638677 0.384060 0.908118
O O7 0.632365 0.239506 0.929215
O O8 0.625461 0.338012 0.000000
O O9 0.748172 0.911975 0.339351
O O10 0.619080 0.000000 0.349968
O O11 0.878313 0.500000 0.830960
O O12 0.891605 0.650267 0.852398
O O13 0.136633 0.080700 0.572524
O O14 0.098817 0.000000 0.500000
O O15 0.000000 0.000000 0.571529
O O16 0.000000 0.839439 0.578845
#
# Coordination Sequence:
#
# PCOD9511939 Si02
#       6
#    32  32  32  32  16  32
#     4  11  24  41  64  95 125 158 203 254 308 371
#     4  10  22  41  65  91 120 159 211 268 316 362
#     4  11  25  43  62  88 126 165 210 259 309 365
#     4  11  23  39  60  89 127 165 204 247 305 372
#     4   9  16  28  50  80 115 152 189 237 297 356
#     4  10  19  34  58  89 122 157 202 252 304 368
#
# _framework density 22.378349
#
# number of rings (size 3 to 8) (size 9 to 14) (size 15 to 20)
#    0.000    1.545    0.909    3.818    0.000   13.818 
#    0.000    3.636    0.000    0.000    0.000    0.000 
#    0.000    0.000    0.000    0.000    0.000    0.000 
#
# Total GULP energy -245952.570552 kJ/mol
# GULP energy per Si atom -5589.831149 kJ/mol
# Density = 2.232742 g / cm^3
# Si number density = 22.378349 Si / 1000 Ang^3
#
#
#
# Elastic Constant Matrix: (Units=GPa)
#
#
# Indices 1 2 3 4 5 6 
#
# 1 35.8237 13.2065 12.5685 0.0000 0.0000 0.0000
# 2 13.2065 110.9136 43.5172 0.0000 0.0000 0.0000
# 3 12.5685 43.5172 133.1868 0.0000 0.0000 0.0000
# 4 0.0000 0.0000 0.0000 33.8332 0.0000 0.0000
# 5 0.0000 0.0000 0.0000 0.0000 31.0906 0.0000
# 6 0.0000 0.0000 0.0000 0.0000 0.0000 15.0507
#
#
#
# Elastic Compliance Matrix: (Units=1/GPa)
#
#
# Indices 1 2 3 4 5 6 
#
# 1 0.029602 -0.002786 -0.001883 0.000000 0.000000 0.000000
# 2 -0.002786 0.010604 -0.003202 0.000000 0.000000 0.000000
# 3 -0.001883 -0.003202 0.008732 0.000000 0.000000 0.000000
# 4 0.000000 0.000000 0.000000 0.029557 0.000000 0.000000
# 5 0.000000 0.000000 0.000000 0.000000 0.032164 0.000000
# 6 0.000000 0.000000 0.000000 0.000000 0.000000 0.066442
#
#
# Mechanical properties :
#
#
# Convention : Reuss Voigt Hill
#
# Bulk Modulus (GPa) = 30.12367 46.50097 38.31232
# Shear Modulus (GPa) = 24.52077 30.03701 27.27889
#
# Velocity S-wave (km/s) = 3.31378 3.66763 3.49519
# Velocity P-wave (km/s) = 5.30395 6.22574 5.78324
#
# Compressibility (1/GPa) = 0.03319649
#
# Stress axis : x y z
#
# Youngs Moduli (GPa) = 33.78120 94.30421 114.51964
#
# Poissons Ratio (x) = 0.26272 0.21567
# Poissons Ratio (y) = 0.09411 0.36667
# Poissons Ratio (z) = 0.06362 0.30195
#
# Static dielectric constant tensor:
#      x y z
#    x 1.832180 0.000000 0.000000 
#    y 0.000000 1.837810 0.000000 
#    z 0.000000 0.000000 1.842640 
# 
# From -- ./inp_files/41853.got.cif
#   From: 2010.05.17/outbox.cif.g08.bks.cpg/sg69_21_cif.got.tgz:41853.got - 2010.06.03 19:29:58.
