data_PCOD9511266
_publ_section_title
;
Structure prediction by ZEFSAII (Michael W. Deem and Ramdas Pophale) SiO2 
 PCOD9511266
Probable space group: F M M M
;
_chemical_formula_sum "Si O2"
_cell_formula_units_Z 132
_cell_length_a 26.367342
_cell_length_b 15.988517
_cell_length_c 14.725912
_cell_angle_alpha 90.000000
_cell_angle_beta 90.000000
_cell_angle_gamma 90.000000
_cell_volume 6208.071872
_symmetry_space_group_name_H-M "F M M M"
_symmetry_group_IT_number 69
_symmetry_cell_setting 'orthorhombic'
loop_
_space_group_symop_operation_xyz
x,y,z
-x,-y,z
x,-y,-z
-x,y,-z
-x,-y,-z
x,y,-z
-x,y,z
x,-y,z
x,1/2+y,1/2+z
-x,1/2-y,1/2+z
x,1/2-y,1/2-z
-x,1/2+y,1/2-z
-x,1/2-y,1/2-z
x,1/2+y,1/2-z
-x,1/2+y,1/2+z
x,1/2-y,1/2+z
1/2+x,y,1/2+z
1/2-x,-y,1/2+z
1/2+x,-y,1/2-z
1/2-x,y,1/2-z
1/2-x,-y,1/2-z
1/2+x,y,1/2-z
1/2-x,y,1/2+z
1/2+x,-y,1/2+z
1/2+x,1/2+y,z
1/2-x,1/2-y,z
1/2+x,1/2-y,-z
1/2-x,1/2+y,-z
1/2-x,1/2-y,-z
1/2+x,1/2+y,-z
1/2-x,1/2+y,z
1/2+x,1/2-y,z
loop_
_atom_site_type_symbol
_atom_site_label
_atom_site_fract_x
_atom_site_fract_y
_atom_site_fract_z
Si Si1 0.906813 0.500000 0.631979
Si Si2 0.561517 0.000000 0.844721
Si Si3 0.252889 0.405388 0.639568
Si Si4 0.000000 0.500000 0.500000
Si Si5 0.350237 0.832623 0.640111
Si Si6 0.865035 0.649606 0.859246
O O1 0.922416 0.500000 0.738377
O O2 0.957118 0.500000 0.577375
O O3 0.876296 0.416807 0.607778
O O4 0.590663 0.916680 0.880698
O O5 0.500000 0.000000 0.856416
O O6 0.240714 0.500000 0.610032
O O7 0.250000 0.406786 0.750000
O O8 0.208981 0.340310 0.614973
O O9 0.309747 0.383086 0.610710
O O10 0.372887 0.744618 0.608805
O O11 0.357959 0.840392 0.749662
#
# Coordination Sequence:
#
# PCOD9511266 Si02
#       6
#    16  16  32   4  32  32
#     4  10  20  35  48  62  86 117 171 208 244 274
#     4  10  18  31  43  64  98 136 160 188 223 278
#     4   9  13  21  39  64  99 131 152 176 211 269
#     4  12  24  40  52  60  76 122 168 232 258 266
#     4   9  16  27  43  67  94 125 152 190 230 285
#     4   9  16  25  41  67 100 131 155 171 219 285
#
# _framework density 21.262640999999999
#
# number of rings (size 3 to 8) (size 9 to 14) (size 15 to 20)
#    0.000    2.667    3.030    0.727    0.000    2.909 
#    2.182    2.424    0.000    0.000    0.000    3.394 
#    0.000    1.939    0.000    0.242    0.000    0.000 
#
# Total GULP energy -183805.491539 kJ/mol
# GULP energy per Si atom -5569.863380 kJ/mol
# Density = 2.121425 g / cm^3
# Si number density = 21.262641 Si / 1000 Ang^3
#
#
#
# Elastic Constant Matrix: (Units=GPa)
#
#
# Indices 1 2 3 4 5 6 
#
# 1 178.4690 101.6479 1.0657 0.0000 0.0000 0.0000
# 2 101.6479 209.7326 7.4821 0.0000 0.0000 0.0000
# 3 1.0657 7.4821 60.2183 0.0000 0.0000 0.0000
# 4 0.0000 0.0000 0.0000 -21.2341 0.0000 0.0000
# 5 0.0000 0.0000 0.0000 0.0000 4.0028 0.0000
# 6 0.0000 0.0000 0.0000 0.0000 0.0000 20.1125
#
#
#
# Elastic Compliance Matrix: (Units=1/GPa)
#
#
# Indices 1 2 3 4 5 6 
#
# 1 0.007746 -0.003766 0.000331 0.000000 0.000000 0.000000
# 2 -0.003766 0.006620 -0.000756 0.000000 0.000000 0.000000
# 3 0.000331 -0.000756 0.016694 0.000000 0.000000 0.000000
# 4 0.000000 0.000000 0.000000 -0.047094 0.000000 0.000000
# 5 0.000000 0.000000 0.000000 0.000000 0.249825 0.000000
# 6 0.000000 0.000000 0.000000 0.000000 0.000000 0.049720
#
#
# Mechanical properties :
#
#
# Convention : Reuss Voigt Hill
#
# Bulk Modulus (GPa) = 44.09463 74.31235 59.20349
# Shear Modulus (GPa) = 16.69707 23.12451 19.91079
#
# Velocity S-wave (km/s) = 2.80532 3.30140 3.06342
# Velocity P-wave (km/s) = 5.59251 7.03974 6.35744
#
# Compressibility (1/GPa) = 0.02267850
#
# Stress axis : x y z
#
# Youngs Moduli (GPa) = 129.09553 151.05352 59.90059
#
# Poissons Ratio (x) = 0.56887 -0.01982
# Poissons Ratio (y) = 0.48618 0.04528
# Poissons Ratio (z) = -0.04271 0.11418
#
# Static dielectric constant tensor:
#      x y z
#    x 1.706510 0.000000 0.000000 
#    y 0.000000 1.730240 0.000000 
#    z 0.000000 0.000000 1.812050 
# 
# From -- ./inp_files/26523.got.cif
#   From: 2010.05.17/outbox.cif.g08.bks.cpg/sg69_14_cif.got.tgz:26523.got - 2010.06.03 19:29:58.
