data_PCOD9511001
_publ_section_title
;
Structure prediction by ZEFSAII (Michael W. Deem and Ramdas Pophale) SiO2 
 PCOD9511001
Probable space group: F M M M
;
_chemical_formula_sum "Si O2"
_cell_formula_units_Z 160
_cell_length_a 19.784827
_cell_length_b 17.827977
_cell_length_c 25.636096
_cell_angle_alpha 90.000000
_cell_angle_beta 90.000000
_cell_angle_gamma 90.000000
_cell_volume 9042.451987
_symmetry_space_group_name_H-M "F M M M"
_symmetry_group_IT_number 69
_symmetry_cell_setting 'orthorhombic'
loop_
_space_group_symop_operation_xyz
x,y,z
-x,-y,z
x,-y,-z
-x,y,-z
-x,-y,-z
x,y,-z
-x,y,z
x,-y,z
x,1/2+y,1/2+z
-x,1/2-y,1/2+z
x,1/2-y,1/2-z
-x,1/2+y,1/2-z
-x,1/2-y,1/2-z
x,1/2+y,1/2-z
-x,1/2+y,1/2+z
x,1/2-y,1/2+z
1/2+x,y,1/2+z
1/2-x,-y,1/2+z
1/2+x,-y,1/2-z
1/2-x,y,1/2-z
1/2-x,-y,1/2-z
1/2+x,y,1/2-z
1/2-x,y,1/2+z
1/2+x,-y,1/2+z
1/2+x,1/2+y,z
1/2-x,1/2-y,z
1/2+x,1/2-y,-z
1/2-x,1/2+y,-z
1/2-x,1/2-y,-z
1/2+x,1/2+y,-z
1/2-x,1/2+y,z
1/2+x,1/2-y,z
loop_
_atom_site_type_symbol
_atom_site_label
_atom_site_fract_x
_atom_site_fract_y
_atom_site_fract_z
Si Si1 0.154030 0.416279 0.940938
Si Si2 0.422597 0.701359 0.803788
Si Si3 0.186371 0.304196 0.150568
Si Si4 0.863309 0.913205 0.733257
Si Si5 0.500000 0.414646 0.335632
Si Si6 0.500000 0.870572 0.056825
O O1 0.172042 0.500000 0.922850
O O2 0.179388 0.354647 0.900755
O O3 0.072340 0.411786 0.944228
O O4 0.179215 0.405071 0.000000
O O5 0.500000 0.686612 0.818865
O O6 0.424217 0.750000 0.750000
O O7 0.378786 0.750543 0.843060
O O8 0.382663 0.626168 0.787506
O O9 0.250000 0.250000 0.150422
O O10 0.186914 0.361055 0.199964
O O11 0.933347 0.909501 0.699545
O O12 0.843399 0.000000 0.737376
O O13 0.500000 0.500000 0.357589
O O14 0.500000 0.352057 0.380934
O O15 0.500000 0.827758 0.000000
#
# Coordination Sequence:
#
# PCOD9511001 Si02
#       6
#    32  32  32  32  16  16
#     4  10  20  34  55  81 107 135 173 218 263 320
#     4   9  19  33  51  75 105 140 179 219 264 316
#     4  11  23  35  49  74 112 147 177 213 266 327
#     4  10  19  33  56  77 100 136 183 225 260 306
#     4  10  16  25  48  79 102 128 164 211 264 310
#     4  10  18  27  47  84 113 124 155 219 277 314
#
# _framework density 17.694316000000001
#
# number of rings (size 3 to 8) (size 9 to 14) (size 15 to 20)
#    0.000    2.000    3.000    1.500    2.800    6.200 
#    0.000    3.000    0.000    0.000    0.000    0.000 
#    0.000    0.000    0.000    4.000    0.000    0.000 
#
# Total GULP energy -222849.607984 kJ/mol
# GULP energy per Si atom -5571.240200 kJ/mol
# Density = 1.765404 g / cm^3
# Si number density = 17.694316 Si / 1000 Ang^3
#
#
#
# Elastic Constant Matrix: (Units=GPa)
#
#
# Indices 1 2 3 4 5 6 
#
# 1 68.9198 57.9935 24.9650 0.0000 0.0000 0.0000
# 2 57.9935 146.2029 59.1068 0.0000 0.0000 0.0000
# 3 24.9650 59.1068 59.4853 0.0000 0.0000 0.0000
# 4 0.0000 0.0000 0.0000 31.2451 0.0000 0.0000
# 5 0.0000 0.0000 0.0000 0.0000 11.6713 0.0000
# 6 0.0000 0.0000 0.0000 0.0000 0.0000 12.4920
#
#
#
# Elastic Compliance Matrix: (Units=1/GPa)
#
#
# Indices 1 2 3 4 5 6 
#
# 1 0.021810 -0.008275 -0.000931 0.000000 0.000000 0.000000
# 2 -0.008275 0.014572 -0.011006 0.000000 0.000000 0.000000
# 3 -0.000931 -0.011006 0.028138 0.000000 0.000000 0.000000
# 4 0.000000 0.000000 0.000000 0.032005 0.000000 0.000000
# 5 0.000000 0.000000 0.000000 0.000000 0.085680 0.000000
# 6 0.000000 0.000000 0.000000 0.000000 0.000000 0.080051
#
#
# Mechanical properties :
#
#
# Convention : Reuss Voigt Hill
#
# Bulk Modulus (GPa) = 41.50208 62.08206 51.79207
# Shear Modulus (GPa) = 16.09210 19.91787 18.00499
#
# Velocity S-wave (km/s) = 3.01898 3.35873 3.19338
# Velocity P-wave (km/s) = 5.97146 7.08544 6.55217
#
# Compressibility (1/GPa) = 0.02409518
#
# Stress axis : x y z
#
# Youngs Moduli (GPa) = 45.85099 68.62628 35.53940
#
# Poissons Ratio (x) = 0.56786 0.03309
# Poissons Ratio (y) = 0.37940 0.39115
# Poissons Ratio (z) = 0.04269 0.75531
#
# Static dielectric constant tensor:
#      x y z
#    x 1.630330 0.000000 0.000000 
#    y 0.000000 1.628460 0.000000 
#    z 0.000000 0.000000 1.655900 
# 
# From -- ./inp_files/26885.got.cif
#   From: 2010.05.17/outbox.cif.g08.bks.cpg/sg69_14_cif.got.tgz:26885.got - 2010.06.03 19:29:58.
