data_PCOD9511164
_publ_section_title
;
Structure prediction by ZEFSAII (Michael W. Deem and Ramdas Pophale) SiO2 
 PCOD9511164
Probable space group: F M M M
;
_chemical_formula_sum "Si O2"
_cell_formula_units_Z 208
_cell_length_a 16.584756
_cell_length_b 28.654520
_cell_length_c 25.963354
_cell_angle_alpha 90.000000
_cell_angle_beta 90.000000
_cell_angle_gamma 90.000000
_cell_volume 12338.518571
_symmetry_space_group_name_H-M "F M M M"
_symmetry_group_IT_number 69
_symmetry_cell_setting 'orthorhombic'
loop_
_space_group_symop_operation_xyz
x,y,z
-x,-y,z
x,-y,-z
-x,y,-z
-x,-y,-z
x,y,-z
-x,y,z
x,-y,z
x,1/2+y,1/2+z
-x,1/2-y,1/2+z
x,1/2-y,1/2-z
-x,1/2+y,1/2-z
-x,1/2-y,1/2-z
x,1/2+y,1/2-z
-x,1/2+y,1/2+z
x,1/2-y,1/2+z
1/2+x,y,1/2+z
1/2-x,-y,1/2+z
1/2+x,-y,1/2-z
1/2-x,y,1/2-z
1/2-x,-y,1/2-z
1/2+x,y,1/2-z
1/2-x,y,1/2+z
1/2+x,-y,1/2+z
1/2+x,1/2+y,z
1/2-x,1/2-y,z
1/2+x,1/2-y,-z
1/2-x,1/2+y,-z
1/2-x,1/2-y,-z
1/2+x,1/2+y,-z
1/2-x,1/2+y,z
1/2+x,1/2-y,z
loop_
_atom_site_type_symbol
_atom_site_label
_atom_site_fract_x
_atom_site_fract_y
_atom_site_fract_z
Si Si1 0.594339 0.552563 0.201686
Si Si2 0.097902 0.124368 0.407276
Si Si3 0.096037 0.449026 0.824903
Si Si4 0.813105 0.361149 0.703073
Si Si5 0.412844 0.299299 0.722356
Si Si6 0.596998 0.446391 0.500000
Si Si7 0.210323 0.700907 0.871248
O O1 0.500000 0.562452 0.191944
O O2 0.611435 0.500000 0.184687
O O3 0.606194 0.554157 0.263754
O O4 0.654253 0.590807 0.180497
O O5 0.121956 0.097501 0.354221
O O6 0.116361 0.085496 0.450569
O O7 0.155465 0.169769 0.409974
O O8 0.000000 0.133873 0.409189
O O9 0.129067 0.500000 0.841851
O O10 0.000000 0.450917 0.835002
O O11 0.750000 0.368627 0.750000
O O12 0.884056 0.335135 0.734166
O O13 0.778741 0.329738 0.657226
O O14 0.500000 0.314352 0.701946
O O15 0.418376 0.250000 0.750000
O O16 0.351005 0.291447 0.676345
O O17 0.628255 0.500000 0.500000
O O18 0.500000 0.450554 0.500000
O O19 0.250000 0.750000 0.888663
#
# Coordination Sequence:
#
# PCOD9511164 Si02
#       7
#    32  32  32  32  32  16  32
#     4   9  17  29  42  58  84 121 164 198 226 268
#     4  10  19  32  51  72  93 118 151 185 232 295
#     4   8  13  23  41  64  87 110 140 181 226 273
#     4  10  19  28  42  60  89 123 155 204 240 272
#     4  10  18  29  46  64  86 125 175 210 237 268
#     4   9  18  34  57  82 100 112 136 183 238 295
#     4  11  21  33  43  63  97 128 160 203 242 270
#
# _framework density 16.857776999999999
#
# number of rings (size 3 to 8) (size 9 to 14) (size 15 to 20)
#    0.000    2.385    1.538    4.154    0.000    3.385 
#    0.000    1.923    0.000    0.000    0.000    0.000 
#    0.000    0.000    0.000    0.000    0.000   14.308 
#
# Total GULP energy -289602.813055 kJ/mol
# GULP energy per Si atom -5569.284866 kJ/mol
# Density = 1.681941 g / cm^3
# Si number density = 16.857777 Si / 1000 Ang^3
#
#
#
# Elastic Constant Matrix: (Units=GPa)
#
#
# Indices 1 2 3 4 5 6 
#
# 1 44.3954 53.9845 8.4375 0.0000 0.0000 0.0000
# 2 53.9845 128.1351 18.9651 0.0000 0.0000 0.0000
# 3 8.4375 18.9651 24.2806 0.0000 0.0000 0.0000
# 4 0.0000 0.0000 0.0000 12.9569 0.0000 0.0000
# 5 0.0000 0.0000 0.0000 0.0000 9.1447 0.0000
# 6 0.0000 0.0000 0.0000 0.0000 0.0000 35.9553
#
#
#
# Elastic Compliance Matrix: (Units=1/GPa)
#
#
# Indices 1 2 3 4 5 6 
#
# 1 0.046207 -0.019325 -0.000962 0.000000 0.000000 0.000000
# 2 -0.019325 0.016907 -0.006490 0.000000 0.000000 0.000000
# 3 -0.000962 -0.006490 0.046589 0.000000 0.000000 0.000000
# 4 0.000000 0.000000 0.000000 0.077179 0.000000 0.000000
# 5 0.000000 0.000000 0.000000 0.000000 0.109353 0.000000
# 6 0.000000 0.000000 0.000000 0.000000 0.000000 0.027812
#
#
# Mechanical properties :
#
#
# Convention : Reuss Voigt Hill
#
# Bulk Modulus (GPa) = 17.81030 39.95393 28.88212
# Shear Modulus (GPa) = 12.61619 19.30633 15.96126
#
# Velocity S-wave (km/s) = 2.73864 3.38782 3.08038
# Velocity P-wave (km/s) = 4.53742 6.24941 5.46092
#
# Compressibility (1/GPa) = 0.05614729
#
# Stress axis : x y z
#
# Youngs Moduli (GPa) = 21.64190 59.14856 21.46440
#
# Poissons Ratio (x) = 1.14304 0.02066
# Poissons Ratio (y) = 0.41823 0.13930
# Poissons Ratio (z) = 0.02083 0.38388
#
# Static dielectric constant tensor:
#      x y z
#    x 1.616080 0.000000 0.000000 
#    y 0.000000 1.640760 0.000000 
#    z 0.000000 0.000000 1.557780 
# 
# From -- ./inp_files/42202.got.cif
#   From: 2010.05.17/outbox.cif.g08.bks.cpg/sg69_22_cif.got.tgz:42202.got - 2010.06.03 19:29:58.
