data_PCOD9511134
_publ_section_title
;
Structure prediction by ZEFSAII (Michael W. Deem and Ramdas Pophale) SiO2 
 PCOD9511134
Probable space group: F M M M
;
_chemical_formula_sum "Si O2"
_cell_formula_units_Z 160
_cell_length_a 20.015882
_cell_length_b 26.974431
_cell_length_c 14.771591
_cell_angle_alpha 90.000000
_cell_angle_beta 90.000000
_cell_angle_gamma 90.000000
_cell_volume 7975.433510
_symmetry_space_group_name_H-M "F M M M"
_symmetry_group_IT_number 69
_symmetry_cell_setting 'orthorhombic'
loop_
_space_group_symop_operation_xyz
x,y,z
-x,-y,z
x,-y,-z
-x,y,-z
-x,-y,-z
x,y,-z
-x,y,z
x,-y,z
x,1/2+y,1/2+z
-x,1/2-y,1/2+z
x,1/2-y,1/2-z
-x,1/2+y,1/2-z
-x,1/2-y,1/2-z
x,1/2+y,1/2-z
-x,1/2+y,1/2+z
x,1/2-y,1/2+z
1/2+x,y,1/2+z
1/2-x,-y,1/2+z
1/2+x,-y,1/2-z
1/2-x,y,1/2-z
1/2-x,-y,1/2-z
1/2+x,y,1/2-z
1/2-x,y,1/2+z
1/2+x,-y,1/2+z
1/2+x,1/2+y,z
1/2-x,1/2-y,z
1/2+x,1/2-y,-z
1/2-x,1/2+y,-z
1/2-x,1/2-y,-z
1/2+x,1/2+y,-z
1/2-x,1/2+y,z
1/2+x,1/2-y,z
loop_
_atom_site_type_symbol
_atom_site_label
_atom_site_fract_x
_atom_site_fract_y
_atom_site_fract_z
Si Si1 0.163837 0.391963 0.389308
Si Si2 0.851022 0.500000 0.400174
Si Si3 0.181386 0.604771 0.109427
Si Si4 0.922968 0.812496 0.610450
Si Si5 0.293052 0.000000 0.841460
Si Si6 0.576918 0.200978 0.389790
O O1 0.162108 0.393781 0.500000
O O2 0.135933 0.445781 0.358248
O O3 0.241453 0.386167 0.363236
O O4 0.122119 0.344515 0.359197
O O5 0.882389 0.500000 0.500000
O O6 0.770067 0.500000 0.409521
O O7 0.129629 0.646313 0.140552
O O8 0.166056 0.549782 0.144544
O O9 0.179800 0.604012 0.000000
O O10 0.922693 0.812895 0.500000
O O11 0.903414 0.756610 0.638430
O O12 0.000000 0.821544 0.637771
O O13 0.250000 0.000000 0.750000
O O14 0.579005 0.200777 0.500000
O O15 0.500000 0.193483 0.363316
#
# Coordination Sequence:
#
# PCOD9511134 Si02
#       6
#    32  16  32  32  16  32
#     4   8  13  21  35  55  80 111 141 170 209 254
#     4   8  14  26  41  59  85 110 133 169 213 251
#     4   9  16  27  43  63  88 115 143 176 213 255
#     4   8  14  24  38  59  89 119 143 173 215 258
#     4  10  18  28  43  63  83 107 139 173 214 259
#     4   8  13  21  33  54  86 116 141 176 220 258
#
# _framework density 20.061606000000001
#
# number of rings (size 3 to 8) (size 9 to 14) (size 15 to 20)
#    0.000    3.600    0.000    3.300    0.000    0.800 
#    0.000    5.000    0.000    5.400    0.000   22.400 
#    0.000   12.800    0.000    0.000    0.000    0.000 
#
# Total GULP energy -222852.530625 kJ/mol
# GULP energy per Si atom -5571.313266 kJ/mol
# Density = 2.001594 g / cm^3
# Si number density = 20.061606 Si / 1000 Ang^3
#
#
#
# Elastic Constant Matrix: (Units=GPa)
#
#
# Indices 1 2 3 4 5 6 
#
# 1 80.7172 122.0825 3.4605 0.0000 0.0000 0.0000
# 2 122.0825 261.5833 7.5931 0.0000 0.0000 0.0000
# 3 3.4605 7.5931 64.6876 0.0000 0.0000 0.0000
# 4 0.0000 0.0000 0.0000 -19.3072 0.0000 0.0000
# 5 0.0000 0.0000 0.0000 0.0000 -0.7415 0.0000
# 6 0.0000 0.0000 0.0000 0.0000 0.0000 -21.8356
#
#
#
# Elastic Compliance Matrix: (Units=1/GPa)
#
#
# Indices 1 2 3 4 5 6 
#
# 1 0.042122 -0.019660 0.000054 0.000000 0.000000 0.000000
# 2 -0.019660 0.013012 -0.000476 0.000000 0.000000 0.000000
# 3 0.000054 -0.000476 0.015512 0.000000 0.000000 0.000000
# 4 0.000000 0.000000 0.000000 -0.051794 0.000000 0.000000
# 5 0.000000 0.000000 0.000000 0.000000 -1.348705 0.000000
# 6 0.000000 0.000000 0.000000 0.000000 0.000000 -0.045797
#
#
# Mechanical properties :
#
#
# Convention : Reuss Voigt Hill
#
# Bulk Modulus (GPa) = 32.80490 74.80670 53.80580
# Shear Modulus (GPa) = -3.77266 9.87995 3.05364
#
# Velocity S-wave (km/s) = -1.37281 2.22160 1.23509
# Velocity P-wave (km/s) = 3.72488 6.62949 5.37703
#
# Compressibility (1/GPa) = 0.03048325
#
# Stress axis : x y z
#
# Youngs Moduli (GPa) = 23.74045 76.85065 64.46688
#
# Poissons Ratio (x) = 1.51090 -0.00351
# Poissons Ratio (y) = 0.46674 0.03066
# Poissons Ratio (z) = -0.00129 0.03656
#
# Static dielectric constant tensor:
#      x y z
#    x 1.657430 0.000000 0.000000 
#    y 0.000000 1.734590 0.000000 
#    z 0.000000 0.000000 1.780410 
# 
# From -- ./inp_files/24921.got.cif
#   From: 2010.05.17/outbox.cif.g08.bks.cpg/sg69_13_cif.got.tgz:24921.got - 2010.06.03 19:29:58.
