data_PCOD9511299
_publ_section_title
;
Structure prediction by ZEFSAII (Michael W. Deem and Ramdas Pophale) SiO2 
 PCOD9511299
Probable space group: F M M M
;
_chemical_formula_sum "Si O2"
_cell_formula_units_Z 168
_cell_length_a 17.138775
_cell_length_b 24.076965
_cell_length_c 20.180682
_cell_angle_alpha 90.000000
_cell_angle_beta 90.000000
_cell_angle_gamma 90.000000
_cell_volume 8327.552087
_symmetry_space_group_name_H-M "F M M M"
_symmetry_group_IT_number 69
_symmetry_cell_setting 'orthorhombic'
loop_
_space_group_symop_operation_xyz
x,y,z
-x,-y,z
x,-y,-z
-x,y,-z
-x,-y,-z
x,y,-z
-x,y,z
x,-y,z
x,1/2+y,1/2+z
-x,1/2-y,1/2+z
x,1/2-y,1/2-z
-x,1/2+y,1/2-z
-x,1/2-y,1/2-z
x,1/2+y,1/2-z
-x,1/2+y,1/2+z
x,1/2-y,1/2+z
1/2+x,y,1/2+z
1/2-x,-y,1/2+z
1/2+x,-y,1/2-z
1/2-x,y,1/2-z
1/2-x,-y,1/2-z
1/2+x,y,1/2-z
1/2-x,y,1/2+z
1/2+x,-y,1/2+z
1/2+x,1/2+y,z
1/2-x,1/2-y,z
1/2+x,1/2-y,-z
1/2-x,1/2+y,-z
1/2-x,1/2-y,-z
1/2+x,1/2+y,-z
1/2-x,1/2+y,z
1/2+x,1/2-y,z
loop_
_atom_site_type_symbol
_atom_site_label
_atom_site_fract_x
_atom_site_fract_y
_atom_site_fract_z
Si Si1 0.324215 0.000000 0.800499
Si Si2 0.000000 0.901677 0.574663
Si Si3 0.592426 0.309153 0.220729
Si Si4 0.906247 0.692173 0.573186
Si Si5 0.809946 0.122353 0.310340
Si Si6 0.000000 0.000000 0.681943
Si Si7 0.852314 0.180777 0.427947
O O1 0.250000 0.000000 0.750000
O O2 0.314634 0.059317 0.835883
O O3 0.416513 0.000000 0.779060
O O4 0.924647 0.861705 0.578224
O O5 0.000000 0.926608 0.500000
O O6 0.000000 0.947232 0.632053
O O7 0.500000 0.301874 0.215912
O O8 0.624213 0.250000 0.250000
O O9 0.618854 0.327309 0.146805
O O10 0.611992 0.356006 0.274260
O O11 0.878177 0.671703 0.500000
O O12 0.885380 0.757475 0.576403
O O13 0.000000 0.685915 0.571365
O O14 0.750000 0.125842 0.250000
O O15 0.795015 0.164707 0.369423
O O16 0.815755 0.174207 0.500000
#
# Coordination Sequence:
#
# PCOD9511299 Si02
#       7
#    16  16  32  32  32   8  32
#     4  10  24  39  55  82 113 158 201 242 286 344
#     4  10  19  28  48  84 115 143 180 220 275 363
#     4  10  20  32  54  81 109 141 187 230 270 337
#     4   9  16  29  49  77 110 143 175 222 278 331
#     4  11  23  39  54  75 113 150 189 236 281 333
#     4  12  19  32  60  76 116 156 179 240 288 348
#     4  10  18  31  52  80 113 146 180 218 274 351
#
# _framework density 20.173997
#
# number of rings (size 3 to 8) (size 9 to 14) (size 15 to 20)
#    0.000    1.905    4.762    0.143    2.667    0.381 
#    0.000    1.429    0.000    2.286    0.000    2.000 
#    0.000    3.048    0.000    1.905    0.000    0.000 
#
# Total GULP energy -233844.264053 kJ/mol
# GULP energy per Si atom -5567.720573 kJ/mol
# Density = 2.012808 g / cm^3
# Si number density = 20.173997 Si / 1000 Ang^3
#
#
#
# Elastic Constant Matrix: (Units=GPa)
#
#
# Indices 1 2 3 4 5 6 
#
# 1 69.1925 -21.9939 4.1132 0.0000 0.0000 0.0000
# 2 -21.9939 22.0767 5.0444 0.0000 0.0000 0.0000
# 3 4.1132 5.0444 134.5922 0.0000 0.0000 0.0000
# 4 0.0000 0.0000 0.0000 12.7831 0.0000 0.0000
# 5 0.0000 0.0000 0.0000 0.0000 16.4450 0.0000
# 6 0.0000 0.0000 0.0000 0.0000 0.0000 15.3406
#
#
#
# Elastic Compliance Matrix: (Units=1/GPa)
#
#
# Indices 1 2 3 4 5 6 
#
# 1 0.021434 0.021689 -0.001468 0.000000 0.000000 0.000000
# 2 0.021689 0.067635 -0.003198 0.000000 0.000000 0.000000
# 3 -0.001468 -0.003198 0.007595 0.000000 0.000000 0.000000
# 4 0.000000 0.000000 0.000000 0.078229 0.000000 0.000000
# 5 0.000000 0.000000 0.000000 0.000000 0.060809 0.000000
# 6 0.000000 0.000000 0.000000 0.000000 0.000000 0.065186
#
#
# Mechanical properties :
#
#
# Convention : Reuss Voigt Hill
#
# Bulk Modulus (GPa) = 7.65055 22.24320 14.94688
# Shear Modulus (GPa) = 16.10771 24.82691 20.46731
#
# Velocity S-wave (km/s) = 2.82873 3.51185 3.18864
# Velocity P-wave (km/s) = 3.80388 5.24345 4.58057
#
# Compressibility (1/GPa) = 0.13070953
#
# Stress axis : x y z
#
# Youngs Moduli (GPa) = 46.65523 14.78531 131.67323
#
# Poissons Ratio (x) = -0.32068 0.19328
# Poissons Ratio (y) = -1.01190 0.42105
# Poissons Ratio (z) = 0.06849 0.04728
#
# Static dielectric constant tensor:
#      x y z
#    x 1.776950 0.000000 0.000000 
#    y 0.000000 1.692750 0.000000 
#    z 0.000000 0.000000 1.790380 
# 
# From -- ./inp_files/30014.got.cif
#   From: 2010.05.17/outbox.cif.g08.bks.cpg/sg69_16_cif.got.tgz:30014.got - 2010.06.03 19:29:58.
