data_PCOD9511807
_publ_section_title
;
Structure prediction by ZEFSAII (Michael W. Deem and Ramdas Pophale) SiO2 
 PCOD9511807
Probable space group: F M M M
;
_chemical_formula_sum "Si O2"
_cell_formula_units_Z 96
_cell_length_a 14.316509
_cell_length_b 27.542299
_cell_length_c 10.562778
_cell_angle_alpha 90.000000
_cell_angle_beta 90.000000
_cell_angle_gamma 90.000000
_cell_volume 4165.004467
_symmetry_space_group_name_H-M "F M M M"
_symmetry_group_IT_number 69
_symmetry_cell_setting 'orthorhombic'
loop_
_space_group_symop_operation_xyz
x,y,z
-x,-y,z
x,-y,-z
-x,y,-z
-x,-y,-z
x,y,-z
-x,y,z
x,-y,z
x,1/2+y,1/2+z
-x,1/2-y,1/2+z
x,1/2-y,1/2-z
-x,1/2+y,1/2-z
-x,1/2-y,1/2-z
x,1/2+y,1/2-z
-x,1/2+y,1/2+z
x,1/2-y,1/2+z
1/2+x,y,1/2+z
1/2-x,-y,1/2+z
1/2+x,-y,1/2-z
1/2-x,y,1/2-z
1/2-x,-y,1/2-z
1/2+x,y,1/2-z
1/2-x,y,1/2+z
1/2+x,-y,1/2+z
1/2+x,1/2+y,z
1/2-x,1/2-y,z
1/2+x,1/2-y,-z
1/2-x,1/2+y,-z
1/2-x,1/2-y,-z
1/2+x,1/2+y,-z
1/2-x,1/2+y,z
1/2+x,1/2-y,z
loop_
_atom_site_type_symbol
_atom_site_label
_atom_site_fract_x
_atom_site_fract_y
_atom_site_fract_z
Si Si1 0.347639 0.719656 0.142819
Si Si2 0.386526 0.557490 0.500000
Si Si3 0.113339 0.114810 0.244662
Si Si4 0.887147 0.946079 0.000000
O O1 0.400570 0.750000 0.250000
O O2 0.250000 0.750000 0.129371
O O3 0.344435 0.666379 0.203877
O O4 0.385833 0.716138 0.000000
O O5 0.359460 0.500000 0.500000
O O6 0.500000 0.556564 0.500000
O O7 0.358984 0.588616 0.624376
O O8 0.138851 0.080276 0.128322
O O9 0.000000 0.120763 0.248187
O O10 0.000000 0.947448 0.000000
O O11 0.850633 0.000000 0.000000
#
# Coordination Sequence:
#
# PCOD9511807 Si02
#       4
#    32  16  32  16
#     4  10  22  39  57  80 108 148 196 243 297 347
#     4   9  18  32  52  84 126 162 187 222 279 343
#     4  10  19  33  54  84 119 151 190 236 281 337
#     4   9  16  28  50  80 114 148 181 224 279 341
#
# _framework density 23.049194
#
# number of rings (size 3 to 8) (size 9 to 14) (size 15 to 20)
#    0.000    2.333    1.667    1.000    2.333    4.667 
#    0.000    0.000    0.000    0.000    0.000   28.000 
#    0.000    0.000    0.000    0.000    0.000    2.000 
#
# Total GULP energy -133875.336877 kJ/mol
# GULP energy per Si atom -5578.139037 kJ/mol
# Density = 2.299673 g / cm^3
# Si number density = 23.049194 Si / 1000 Ang^3
#
#
#
# Elastic Constant Matrix: (Units=GPa)
#
#
# Indices 1 2 3 4 5 6 
#
# 1 126.3148 28.7568 27.1375 0.0000 0.0000 0.0000
# 2 28.7568 266.3398 151.4693 0.0000 0.0000 0.0000
# 3 27.1375 151.4693 302.1416 0.0000 0.0000 0.0000
# 4 0.0000 0.0000 0.0000 47.6109 0.0000 0.0000
# 5 0.0000 0.0000 0.0000 0.0000 -18.7181 0.0000
# 6 0.0000 0.0000 0.0000 0.0000 0.0000 25.8878
#
#
#
# Elastic Compliance Matrix: (Units=1/GPa)
#
#
# Indices 1 2 3 4 5 6 
#
# 1 0.008152 -0.000649 -0.000407 0.000000 0.000000 0.000000
# 2 -0.000649 0.005304 -0.002601 0.000000 0.000000 0.000000
# 3 -0.000407 -0.002601 0.004650 0.000000 0.000000 0.000000
# 4 0.000000 0.000000 0.000000 0.021004 0.000000 0.000000
# 5 0.000000 0.000000 0.000000 0.000000 -0.053424 0.000000
# 6 0.000000 0.000000 0.000000 0.000000 0.000000 0.038628
#
#
# Mechanical properties :
#
#
# Convention : Reuss Voigt Hill
#
# Bulk Modulus (GPa) = 92.65282 123.28039 107.96660
# Shear Modulus (GPa) = 141.95314 43.45164 92.70239
#
# Velocity S-wave (km/s) = 7.85625 4.34656 6.34875
# Velocity P-wave (km/s) = 11.07156 8.87649 10.03423
#
# Compressibility (1/GPa) = 0.01079298
#
# Stress axis : x y z
#
# Youngs Moduli (GPa) = 122.67162 188.55201 215.05622
#
# Poissons Ratio (x) = 0.12232 0.08752
# Poissons Ratio (y) = 0.07958 0.55926
# Poissons Ratio (z) = 0.04992 0.49033
#
# Static dielectric constant tensor:
#      x y z
#    x 2.000200 0.000000 0.000000 
#    y 0.000000 2.037800 0.000000 
#    z 0.000000 0.000000 1.842890 
# 
# From -- ./inp_files/8923.got.cif
#   From: 2010.05.17/outbox.cif.g08.bks.cpg/sg69_5_cif.got.tgz:8923.got - 2010.06.03 19:29:58.
