data_PCOD9511041
_publ_section_title
;
Structure prediction by ZEFSAII (Michael W. Deem and Ramdas Pophale) SiO2 
 PCOD9511041
Probable space group: F M M M
;
_chemical_formula_sum "Si O2"
_cell_formula_units_Z 144
_cell_length_a 14.319023
_cell_length_b 32.543062
_cell_length_c 17.836867
_cell_angle_alpha 90.000000
_cell_angle_beta 90.000000
_cell_angle_gamma 90.000000
_cell_volume 8311.709852
_symmetry_space_group_name_H-M "F M M M"
_symmetry_group_IT_number 69
_symmetry_cell_setting 'orthorhombic'
loop_
_space_group_symop_operation_xyz
x,y,z
-x,-y,z
x,-y,-z
-x,y,-z
-x,-y,-z
x,y,-z
-x,y,z
x,-y,z
x,1/2+y,1/2+z
-x,1/2-y,1/2+z
x,1/2-y,1/2-z
-x,1/2+y,1/2-z
-x,1/2-y,1/2-z
x,1/2+y,1/2-z
-x,1/2+y,1/2+z
x,1/2-y,1/2+z
1/2+x,y,1/2+z
1/2-x,-y,1/2+z
1/2+x,-y,1/2-z
1/2-x,y,1/2-z
1/2-x,-y,1/2-z
1/2+x,y,1/2-z
1/2-x,y,1/2+z
1/2+x,-y,1/2+z
1/2+x,1/2+y,z
1/2-x,1/2-y,z
1/2+x,1/2-y,-z
1/2-x,1/2+y,-z
1/2-x,1/2-y,-z
1/2+x,1/2+y,-z
1/2-x,1/2+y,z
1/2+x,1/2-y,z
loop_
_atom_site_type_symbol
_atom_site_label
_atom_site_fract_x
_atom_site_fract_y
_atom_site_fract_z
Si Si1 0.790055 0.378690 0.335820
Si Si2 0.000000 0.123561 0.793224
Si Si3 0.809620 0.953962 0.588820
Si Si4 0.500000 0.791543 0.799176
Si Si5 0.000000 0.453792 0.182054
Si Si6 0.788265 0.207387 0.662854
O O1 0.750000 0.382370 0.250000
O O2 0.754734 0.418010 0.380335
O O3 0.749752 0.335760 0.367450
O O4 0.901788 0.377120 0.335685
O O5 0.000000 0.166497 0.748280
O O6 0.000000 0.083649 0.739753
O O7 0.822832 0.950301 0.500000
O O8 0.908557 0.950506 0.630652
O O9 0.772364 0.000000 0.604680
O O10 0.500000 0.750000 0.750000
O O11 0.400343 0.791812 0.840307
O O12 0.000000 0.500000 0.216222
O O13 0.750000 0.207166 0.750000
O O14 0.750000 0.250000 0.629812
#
# Coordination Sequence:
#
# PCOD9511041 Si02
#       6
#    32  16  32  16  16  32
#     4  11  20  33  52  76 106 135 168 214 257 306
#     4  12  20  31  49  81 108 130 168 214 262 303
#     4  10  21  37  55  75 102 137 174 211 256 310
#     4  12  16  24  43  68 104 138 166 202 252 306
#     4  10  19  32  54  79 103 129 164 215 265 309
#     4  10  17  27  43  71 104 136 167 206 254 302
#
# _framework density 17.324954999999999
#
# number of rings (size 3 to 8) (size 9 to 14) (size 15 to 20)
#    0.000    1.333    8.889    0.333    0.000    2.667 
#    0.000    0.556    0.000    2.000    0.000    0.000 
#    0.000    0.000    0.000    0.000    0.000    0.000 
#
# Total GULP energy -200678.893879 kJ/mol
# GULP energy per Si atom -5574.413719 kJ/mol
# Density = 1.728552 g / cm^3
# Si number density = 17.324955 Si / 1000 Ang^3
#
#
#
# Elastic Constant Matrix: (Units=GPa)
#
#
# Indices 1 2 3 4 5 6 
#
# 1 174.0233 83.4286 14.8192 0.0000 0.0000 0.0000
# 2 83.4286 205.7933 36.7323 0.0000 0.0000 0.0000
# 3 14.8192 36.7323 10.2487 0.0000 0.0000 0.0000
# 4 0.0000 0.0000 0.0000 8.5259 0.0000 0.0000
# 5 0.0000 0.0000 0.0000 0.0000 4.9665 0.0000
# 6 0.0000 0.0000 0.0000 0.0000 0.0000 34.9375
#
#
#
# Elastic Compliance Matrix: (Units=1/GPa)
#
#
# Indices 1 2 3 4 5 6 
#
# 1 0.007133 -0.002916 0.000139 0.000000 0.000000 0.000000
# 2 -0.002916 0.014680 -0.048398 0.000000 0.000000 0.000000
# 3 0.000139 -0.048398 0.270833 0.000000 0.000000 0.000000
# 4 0.000000 0.000000 0.000000 0.117290 0.000000 0.000000
# 5 0.000000 0.000000 0.000000 0.000000 0.201348 0.000000
# 6 0.000000 0.000000 0.000000 0.000000 0.000000 0.028623
#
#
# Mechanical properties :
#
#
# Convention : Reuss Voigt Hill
#
# Bulk Modulus (GPa) = 5.25498 73.33616 39.29557
# Shear Modulus (GPa) = 6.20587 26.69167 16.44877
#
# Velocity S-wave (km/s) = 1.89468 3.92937 3.08462
# Velocity P-wave (km/s) = 2.79753 7.93777 5.95124
#
# Compressibility (1/GPa) = 0.19029582
#
# Stress axis : x y z
#
# Youngs Moduli (GPa) = 140.19995 68.11923 3.69231
#
# Poissons Ratio (x) = 0.19867 -0.00051
# Poissons Ratio (y) = 0.40889 0.17870
# Poissons Ratio (z) = -0.01953 3.29682
#
# Static dielectric constant tensor:
#      x y z
#    x 1.834840 0.000000 0.000000 
#    y 0.000000 1.620810 0.000000 
#    z 0.000000 0.000000 1.564040 
# 
# From -- ./inp_files/15615.got.cif
#   From: 2010.05.17/outbox.cif.g08.bks.cpg/sg69_8_cif.got.tgz:15615.got - 2010.06.03 19:29:58.
