data_PCOD9511774
_publ_section_title
;
Structure prediction by ZEFSAII (Michael W. Deem and Ramdas Pophale) SiO2 
 PCOD9511774
Probable space group: F M M M
;
_chemical_formula_sum "Si O2"
_cell_formula_units_Z 144
_cell_length_a 16.907340
_cell_length_b 31.116322
_cell_length_c 13.135654
_cell_angle_alpha 90.000000
_cell_angle_beta 90.000000
_cell_angle_gamma 90.000000
_cell_volume 6910.591850
_symmetry_space_group_name_H-M "F M M M"
_symmetry_group_IT_number 69
_symmetry_cell_setting 'orthorhombic'
loop_
_space_group_symop_operation_xyz
x,y,z
-x,-y,z
x,-y,-z
-x,y,-z
-x,-y,-z
x,y,-z
-x,y,z
x,-y,z
x,1/2+y,1/2+z
-x,1/2-y,1/2+z
x,1/2-y,1/2-z
-x,1/2+y,1/2-z
-x,1/2-y,1/2-z
x,1/2+y,1/2-z
-x,1/2+y,1/2+z
x,1/2-y,1/2+z
1/2+x,y,1/2+z
1/2-x,-y,1/2+z
1/2+x,-y,1/2-z
1/2-x,y,1/2-z
1/2-x,-y,1/2-z
1/2+x,y,1/2-z
1/2-x,y,1/2+z
1/2+x,-y,1/2+z
1/2+x,1/2+y,z
1/2-x,1/2-y,z
1/2+x,1/2-y,-z
1/2-x,1/2+y,-z
1/2-x,1/2-y,-z
1/2+x,1/2+y,-z
1/2-x,1/2+y,z
1/2+x,1/2-y,z
loop_
_atom_site_type_symbol
_atom_site_label
_atom_site_fract_x
_atom_site_fract_y
_atom_site_fract_z
Si Si1 0.647420 0.679069 0.379097
Si Si2 0.589252 0.597525 0.706430
Si Si3 0.404210 0.050056 0.000000
Si Si4 0.091429 0.728565 0.377161
Si Si5 0.679789 0.139339 0.379355
O O1 0.638662 0.680050 0.500000
O O2 0.584767 0.646169 0.334932
O O3 0.636423 0.727965 0.343412
O O4 0.731224 0.655824 0.359665
O O5 0.500000 0.582428 0.732018
O O6 0.621191 0.571538 0.607331
O O7 0.645574 0.602308 0.805426
O O8 0.500000 0.054441 0.000000
O O9 0.383609 0.000000 0.000000
O O10 0.092979 0.730884 0.500000
O O11 0.130012 0.682617 0.356459
O O12 0.000000 0.729420 0.346594
O O13 0.672704 0.128907 0.500000
#
# Coordination Sequence:
#
# PCOD9511774 Si02
#       5
#    32  32  16  32  32
#     4  10  19  33  53  79 112 154 199 246 286 331
#     4  11  21  35  59  86 111 142 187 237 290 345
#     4   9  20  40  66  94 115 134 175 241 304 349
#     4   9  17  30  49  75 113 157 207 254 286 318
#     4  10  21  35  52  80 119 164 195 233 281 348
#
# _framework density 20.837578000000001
#
# number of rings (size 3 to 8) (size 9 to 14) (size 15 to 20)
#    0.000    2.111    1.111    2.667    0.000    5.778 
#    0.000    4.444    0.000    3.333    0.000    3.111 
#    0.000    0.000    0.000    0.000    0.000    0.889 
#
# Total GULP energy -200843.972341 kJ/mol
# GULP energy per Si atom -5578.999232 kJ/mol
# Density = 2.079015 g / cm^3
# Si number density = 20.837578 Si / 1000 Ang^3
#
#
#
# Elastic Constant Matrix: (Units=GPa)
#
#
# Indices 1 2 3 4 5 6 
#
# 1 86.4874 23.1677 42.2231 0.0000 0.0000 0.0000
# 2 23.1677 74.2677 45.2862 0.0000 0.0000 0.0000
# 3 42.2231 45.2862 114.9026 0.0000 0.0000 0.0000
# 4 0.0000 0.0000 0.0000 27.1555 0.0000 0.0000
# 5 0.0000 0.0000 0.0000 0.0000 13.7788 0.0000
# 6 0.0000 0.0000 0.0000 0.0000 0.0000 14.0547
#
#
#
# Elastic Compliance Matrix: (Units=1/GPa)
#
#
# Indices 1 2 3 4 5 6 
#
# 1 0.014242 -0.001647 -0.004584 0.000000 0.000000 0.000000
# 2 -0.001647 0.017915 -0.006455 0.000000 0.000000 0.000000
# 3 -0.004584 -0.006455 0.012932 0.000000 0.000000 0.000000
# 4 0.000000 0.000000 0.000000 0.036825 0.000000 0.000000
# 5 0.000000 0.000000 0.000000 0.000000 0.072575 0.000000
# 6 0.000000 0.000000 0.000000 0.000000 0.000000 0.071150
#
#
# Mechanical properties :
#
#
# Convention : Reuss Voigt Hill
#
# Bulk Modulus (GPa) = 50.72377 55.22350 52.97363
# Shear Modulus (GPa) = 19.41113 21.99654 20.70383
#
# Velocity S-wave (km/s) = 3.05543 3.25255 3.15553
# Velocity P-wave (km/s) = 6.06983 6.37690 6.22526
#
# Compressibility (1/GPa) = 0.01971462
#
# Stress axis : x y z
#
# Youngs Moduli (GPa) = 70.21682 55.81903 77.32900
#
# Poissons Ratio (x) = 0.09196 0.35448
# Poissons Ratio (y) = 0.11568 0.49919
# Poissons Ratio (z) = 0.32188 0.36033
#
# Static dielectric constant tensor:
#      x y z
#    x 1.782390 0.000000 0.000000 
#    y 0.000000 1.710420 0.000000 
#    z 0.000000 0.000000 1.861400 
# 
# From -- ./inp_files/15574.got.cif
#   From: 2010.05.17/outbox.cif.g08.bks.cpg/sg69_8_cif.got.tgz:15574.got - 2010.06.03 19:29:58.
