data_PCOD9511672
_publ_section_title
;
Structure prediction by ZEFSAII (Michael W. Deem and Ramdas Pophale) SiO2 
 PCOD9511672
Probable space group: F M M M
;
_chemical_formula_sum "Si O2"
_cell_formula_units_Z 96
_cell_length_a 14.307942
_cell_length_b 22.004634
_cell_length_c 13.868099
_cell_angle_alpha 90.000000
_cell_angle_beta 90.000000
_cell_angle_gamma 90.000000
_cell_volume 4366.246532
_symmetry_space_group_name_H-M "F M M M"
_symmetry_group_IT_number 69
_symmetry_cell_setting 'orthorhombic'
loop_
_space_group_symop_operation_xyz
x,y,z
-x,-y,z
x,-y,-z
-x,y,-z
-x,-y,-z
x,y,-z
-x,y,z
x,-y,z
x,1/2+y,1/2+z
-x,1/2-y,1/2+z
x,1/2-y,1/2-z
-x,1/2+y,1/2-z
-x,1/2-y,1/2-z
x,1/2+y,1/2-z
-x,1/2+y,1/2+z
x,1/2-y,1/2+z
1/2+x,y,1/2+z
1/2-x,-y,1/2+z
1/2+x,-y,1/2-z
1/2-x,y,1/2-z
1/2-x,-y,1/2-z
1/2+x,y,1/2-z
1/2-x,y,1/2+z
1/2+x,-y,1/2+z
1/2+x,1/2+y,z
1/2-x,1/2-y,z
1/2+x,1/2-y,-z
1/2-x,1/2+y,-z
1/2-x,1/2-y,-z
1/2+x,1/2+y,-z
1/2-x,1/2+y,z
1/2+x,1/2-y,z
loop_
_atom_site_type_symbol
_atom_site_label
_atom_site_fract_x
_atom_site_fract_y
_atom_site_fract_z
Si Si1 0.114110 0.570206 0.189282
Si Si2 0.856145 0.229749 0.000000
Si Si3 0.888957 0.388116 0.396571
Si Si4 0.604541 0.133460 0.000000
O O1 0.134804 0.500000 0.169963
O O2 0.148950 0.588469 0.295655
O O3 0.148904 0.610891 0.099976
O O4 0.000000 0.576860 0.193766
O O5 0.750000 0.250000 0.000000
O O6 0.878073 0.184760 0.910854
O O7 0.904421 0.294354 0.000000
O O8 0.852136 0.412957 0.500000
O O9 0.000000 0.401370 0.396431
O O10 0.500000 0.106047 0.000000
#
# Coordination Sequence:
#
# PCOD9511672 Si02
#       4
#    32  16  32  16
#     4   9  17  30  52  80 104 130 165 206 251 301
#     4  10  20  35  52  72 100 135 171 212 253 302
#     4   8  16  32  52  77 102 126 164 209 253 296
#     4  10  19  32  52  76 105 134 164 206 252 302
#
# _framework density 21.986848999999999
#
# number of rings (size 3 to 8) (size 9 to 14) (size 15 to 20)
#    1.000    2.000    0.000    1.500    0.000    4.000 
#    0.000   11.667    0.000    6.000    0.000    0.000 
#    0.000    0.000    0.000    0.000    0.000    0.000 
#
# Total GULP energy -133667.390046 kJ/mol
# GULP energy per Si atom -5569.474585 kJ/mol
# Density = 2.193681 g / cm^3
# Si number density = 21.986849 Si / 1000 Ang^3
#
#
#
# Elastic Constant Matrix: (Units=GPa)
#
#
# Indices 1 2 3 4 5 6 
#
# 1 56.0325 -21.5271 9.6584 0.0000 0.0000 0.0000
# 2 -21.5271 64.6725 29.9469 0.0000 0.0000 0.0000
# 3 9.6584 29.9469 128.8980 0.0000 0.0000 0.0000
# 4 0.0000 0.0000 0.0000 31.9430 0.0000 0.0000
# 5 0.0000 0.0000 0.0000 0.0000 22.5340 0.0000
# 6 0.0000 0.0000 0.0000 0.0000 0.0000 -4.2233
#
#
#
# Elastic Compliance Matrix: (Units=1/GPa)
#
#
# Indices 1 2 3 4 5 6 
#
# 1 0.021969 0.009048 -0.003748 0.000000 0.000000 0.000000
# 2 0.009048 0.021053 -0.005569 0.000000 0.000000 0.000000
# 3 -0.003748 -0.005569 0.009333 0.000000 0.000000 0.000000
# 4 0.000000 0.000000 0.000000 0.031306 0.000000 0.000000
# 5 0.000000 0.000000 0.000000 0.000000 0.044377 0.000000
# 6 0.000000 0.000000 0.000000 0.000000 0.000000 -0.236780
#
#
# Mechanical properties :
#
#
# Convention : Reuss Voigt Hill
#
# Bulk Modulus (GPa) = 19.29876 31.75107 25.52491
# Shear Modulus (GPa) = -54.98719 25.48571 -14.75074
#
# Velocity S-wave (km/s) = -5.00634 3.40830 -2.59296
# Velocity P-wave (km/s) = 4.96200 5.47366 1.63394
#
# Compressibility (1/GPa) = 0.05181681
#
# Stress axis : x y z
#
# Youngs Moduli (GPa) = 45.51823 47.49848 107.14813
#
# Poissons Ratio (x) = -0.42979 0.40163
# Poissons Ratio (y) = -0.41187 0.59674
# Poissons Ratio (z) = 0.17062 0.26453
#
# Static dielectric constant tensor:
#      x y z
#    x -0.108990 0.000000 0.000000 
#    y 0.000000 1.766840 0.000000 
#    z 0.000000 0.000000 1.819830 
# 
# From -- ./inp_files/9032.got.cif
#   From: 2010.05.17/outbox.cif.g08.bks.cpg/sg69_5_cif.got.tgz:9032.got - 2010.06.03 19:29:58.
