data_PCOD9511145
_publ_section_title
;
Structure prediction by ZEFSAII (Michael W. Deem and Ramdas Pophale) SiO2 
 PCOD9511145
Probable space group: F M M M
;
_chemical_formula_sum "Si O2"
_cell_formula_units_Z 144
_cell_length_a 27.967251
_cell_length_b 33.134835
_cell_length_c 7.503804
_cell_angle_alpha 90.000000
_cell_angle_beta 90.000000
_cell_angle_gamma 90.000000
_cell_volume 6953.701984
_symmetry_space_group_name_H-M "F M M M"
_symmetry_group_IT_number 69
_symmetry_cell_setting 'orthorhombic'
loop_
_space_group_symop_operation_xyz
x,y,z
-x,-y,z
x,-y,-z
-x,y,-z
-x,-y,-z
x,y,-z
-x,y,z
x,-y,z
x,1/2+y,1/2+z
-x,1/2-y,1/2+z
x,1/2-y,1/2-z
-x,1/2+y,1/2-z
-x,1/2-y,1/2-z
x,1/2+y,1/2-z
-x,1/2+y,1/2+z
x,1/2-y,1/2+z
1/2+x,y,1/2+z
1/2-x,-y,1/2+z
1/2+x,-y,1/2-z
1/2-x,y,1/2-z
1/2-x,-y,1/2-z
1/2+x,y,1/2-z
1/2-x,y,1/2+z
1/2+x,-y,1/2+z
1/2+x,1/2+y,z
1/2-x,1/2-y,z
1/2+x,1/2-y,-z
1/2-x,1/2+y,-z
1/2-x,1/2-y,-z
1/2+x,1/2+y,-z
1/2-x,1/2+y,z
1/2+x,1/2-y,z
loop_
_atom_site_type_symbol
_atom_site_label
_atom_site_fract_x
_atom_site_fract_y
_atom_site_fract_z
Si Si1 0.806150 0.500000 0.786561
Si Si2 0.804015 0.668350 0.212829
Si Si3 0.052834 0.377876 0.217522
Si Si4 0.401638 0.204859 0.787203
Si Si5 0.152037 0.915473 0.717752
O O1 0.750000 0.500000 0.750000
O O2 0.829224 0.458486 0.718624
O O3 0.812910 0.500000 0.000000
O O4 0.750000 0.680928 0.250000
O O5 0.847421 0.696402 0.279785
O O6 0.815487 0.622634 0.275740
O O7 0.808242 0.667407 0.000000
O O8 0.065647 0.332178 0.275470
O O9 0.097675 0.405339 0.271300
O O10 0.000000 0.389764 0.277625
O O11 0.052445 0.378262 0.000000
O O12 0.417799 0.250000 0.750000
O O13 0.400466 0.201113 0.000000
O O14 0.153227 0.915753 0.500000
#
# Coordination Sequence:
#
# PCOD9511145 Si02
#       5
#    16  32  32  32  32
#     4  10  18  28  45  69  95 119 144 176 211 246
#     4   9  17  29  43  59  83 115 146 174 210 255
#     4   8  14  27  46  64  85 115 144 171 213 263
#     4   9  18  30  43  62  86 110 140 179 217 254
#     4   8  15  27  42  63  90 115 141 176 213 250
#
# _framework density 20.708393999999998
#
# number of rings (size 3 to 8) (size 9 to 14) (size 15 to 20)
#    0.000    3.333    0.000    3.333    0.000    1.778 
#    0.000    2.778    0.000    4.667    0.000    0.000 
#    0.000    0.889    0.000    0.000    0.000    0.000 
#
# Total GULP energy -200736.055462 kJ/mol
# GULP energy per Si atom -5576.001541 kJ/mol
# Density = 2.066126 g / cm^3
# Si number density = 20.708394 Si / 1000 Ang^3
#
#
#
# Elastic Constant Matrix: (Units=GPa)
#
#
# Indices 1 2 3 4 5 6 
#
# 1 112.4828 26.3594 -5.6446 -0.0077 -0.0154 0.0011
# 2 26.3594 100.8681 -2.1609 -0.0160 0.0069 0.0180
# 3 -5.6446 -2.1609 51.4429 0.0163 -0.0443 -0.0118
# 4 -0.0077 -0.0160 0.0163 6.4080 -0.0116 0.0048
# 5 -0.0154 0.0069 -0.0443 -0.0116 6.1390 0.0082
# 6 0.0011 0.0180 -0.0118 0.0048 0.0082 10.2343
#
#
#
# Elastic Compliance Matrix: (Units=1/GPa)
#
#
# Indices 1 2 3 4 5 6 
#
# 1 0.009515 -0.002466 0.000941 0.000003 0.000033 0.000004
# 2 -0.002466 0.010562 0.000173 0.000023 -0.000017 -0.000018
# 3 0.000941 0.000173 0.019550 -0.000048 0.000143 0.000022
# 4 0.000003 0.000023 -0.000048 0.156056 0.000294 -0.000074
# 5 0.000033 -0.000017 0.000143 0.000294 0.162896 -0.000131
# 6 0.000004 -0.000018 0.000022 -0.000074 -0.000131 0.097711
#
#
# Mechanical properties :
#
#
# Convention : Reuss Voigt Hill
#
# Bulk Modulus (GPa) = 27.08455 33.54461 30.31458
# Shear Modulus (GPa) = 10.60887 20.97224 15.79055
#
# Velocity S-wave (km/s) = 2.26586 3.18581 2.76437
# Velocity P-wave (km/s) = 4.46687 5.45585 4.98594
#
# Compressibility (1/GPa) = 0.03692141
#
# Stress axis : x y z
#
# Youngs Moduli (GPa) = 105.09227 94.67713 51.15179
#
# Poissons Ratio (x) = 0.23352 -0.04811
# Poissons Ratio (y) = 0.25921 -0.00885
# Poissons Ratio (z) = -0.09884 -0.01638
#
# Static dielectric constant tensor:
#      x y z
#    x 1.732020 0.000010 0.001230 
#    y 0.000010 1.727450 -0.000260 
#    z 0.001230 -0.000260 2.386360 
# 
# From -- ./inp_files/5574.got.cif
#   From: 2010.05.17/outbox.cif.g08.bks.cpg/sg69_3_cif.got.tgz:5574.got - 2010.06.03 19:29:58.
