data_PCOD9511942
_publ_section_title
;
Structure prediction by ZEFSAII (Michael W. Deem and Ramdas Pophale) SiO2 
 PCOD9511942
Probable space group: F M M M
;
_chemical_formula_sum "Si O2"
_cell_formula_units_Z 160
_cell_length_a 20.467094
_cell_length_b 23.553422
_cell_length_c 15.998525
_cell_angle_alpha 90.000000
_cell_angle_beta 90.000000
_cell_angle_gamma 90.000000
_cell_volume 7712.410580
_symmetry_space_group_name_H-M "F M M M"
_symmetry_group_IT_number 69
_symmetry_cell_setting 'orthorhombic'
loop_
_space_group_symop_operation_xyz
x,y,z
-x,-y,z
x,-y,-z
-x,y,-z
-x,-y,-z
x,y,-z
-x,y,z
x,-y,z
x,1/2+y,1/2+z
-x,1/2-y,1/2+z
x,1/2-y,1/2-z
-x,1/2+y,1/2-z
-x,1/2-y,1/2-z
x,1/2+y,1/2-z
-x,1/2+y,1/2+z
x,1/2-y,1/2+z
1/2+x,y,1/2+z
1/2-x,-y,1/2+z
1/2+x,-y,1/2-z
1/2-x,y,1/2-z
1/2-x,-y,1/2-z
1/2+x,y,1/2-z
1/2-x,y,1/2+z
1/2+x,-y,1/2+z
1/2+x,1/2+y,z
1/2-x,1/2-y,z
1/2+x,1/2-y,-z
1/2-x,1/2+y,-z
1/2-x,1/2-y,-z
1/2+x,1/2+y,-z
1/2-x,1/2+y,z
1/2+x,1/2-y,z
loop_
_atom_site_type_symbol
_atom_site_label
_atom_site_fract_x
_atom_site_fract_y
_atom_site_fract_z
Si Si1 0.603874 0.694713 0.858509
Si Si2 0.570637 0.892597 0.500000
Si Si3 0.578506 0.439474 0.595820
Si Si4 0.247020 0.854818 0.844645
Si Si5 0.280936 0.566173 0.000000
Si Si6 0.888734 0.183218 0.334950
O O1 0.681546 0.681252 0.859855
O O2 0.587126 0.759824 0.880516
O O3 0.588019 0.686924 0.760837
O O4 0.573494 0.648782 0.919685
O O5 0.500000 0.922973 0.500000
O O6 0.639287 0.926606 0.500000
O O7 0.601301 0.438145 0.500000
O O8 0.500000 0.441668 0.595078
O O9 0.601548 0.500000 0.633706
O O10 0.595312 0.379722 0.635497
O O11 0.250000 0.879881 0.750000
O O12 0.246312 0.901798 0.917604
O O13 0.310370 0.815129 0.844856
O O14 0.264746 0.500000 0.000000
#
# Coordination Sequence:
#
# PCOD9511942 Si02
#       6
#    32  16  32  32  16  32
#     4   9  20  36  55  84 115 143 186 233 281 338
#     4  10  22  40  57  75 108 152 194 238 285 334
#     4   9  20  37  53  75 111 148 184 226 272 333
#     4   9  19  36  56  82 117 148 179 229 287 345
#     4  10  22  38  57  83 112 146 192 242 283 332
#     4  10  19  34  59  85 112 148 183 228 286 345
#
# _framework density 20.745784
#
# number of rings (size 3 to 8) (size 9 to 14) (size 15 to 20)
#    0.000    2.600    0.000    1.200    2.800    5.400 
#    0.000   13.000    0.000    0.000    0.000    0.000 
#    0.000    0.000    0.000    0.000    0.000    0.000 
#
# Total GULP energy -222922.333358 kJ/mol
# GULP energy per Si atom -5573.058334 kJ/mol
# Density = 2.069857 g / cm^3
# Si number density = 20.745784 Si / 1000 Ang^3
#
#
#
# Elastic Constant Matrix: (Units=GPa)
#
#
# Indices 1 2 3 4 5 6 
#
# 1 58.0491 -7.4894 9.3067 0.0000 0.0000 0.0000
# 2 -7.4894 147.5374 51.8881 0.0000 0.0000 0.0000
# 3 9.3067 51.8881 77.4753 0.0000 0.0000 0.0000
# 4 0.0000 0.0000 0.0000 19.2738 0.0000 0.0000
# 5 0.0000 0.0000 0.0000 0.0000 25.8434 0.0000
# 6 0.0000 0.0000 0.0000 0.0000 0.0000 -10.4084
#
#
#
# Elastic Compliance Matrix: (Units=1/GPa)
#
#
# Indices 1 2 3 4 5 6 
#
# 1 0.018096 0.002202 -0.003648 0.000000 0.000000 0.000000
# 2 0.002202 0.009134 -0.006382 0.000000 0.000000 0.000000
# 3 -0.003648 -0.006382 0.017620 0.000000 0.000000 0.000000
# 4 0.000000 0.000000 0.000000 0.051884 0.000000 0.000000
# 5 0.000000 0.000000 0.000000 0.000000 0.038695 0.000000
# 6 0.000000 0.000000 0.000000 0.000000 0.000000 -0.096077
#
#
# Mechanical properties :
#
#
# Convention : Reuss Voigt Hill
#
# Bulk Modulus (GPa) = 34.25527 43.38587 38.82057
# Shear Modulus (GPa) = 77.23202 22.23218 49.73210
#
# Velocity S-wave (km/s) = 6.10808 3.27716 4.90145
# Velocity P-wave (km/s) = 8.14203 5.93954 7.12639
#
# Compressibility (1/GPa) = 0.02919259
#
# Stress axis : x y z
#
# Youngs Moduli (GPa) = 55.26151 109.47842 56.75417
#
# Poissons Ratio (x) = -0.24104 0.20706
# Poissons Ratio (y) = -0.12167 0.36221
# Poissons Ratio (z) = 0.20161 0.69869
#
# Static dielectric constant tensor:
#      x y z
#    x 1.807780 0.000000 0.000000 
#    y 0.000000 1.752080 0.000000 
#    z 0.000000 0.000000 1.737950 
# 
# From -- ./inp_files/24615.got.cif
#   From: 2010.05.17/outbox.cif.g08.bks.cpg/sg69_13_cif.got.tgz:24615.got - 2010.06.03 19:29:58.
