data_PCOD9511144
_publ_section_title
;
Structure prediction by ZEFSAII (Michael W. Deem and Ramdas Pophale) SiO2 
 PCOD9511144
Probable space group: F M M M
;
_chemical_formula_sum "Si O2"
_cell_formula_units_Z 128
_cell_length_a 13.945899
_cell_length_b 18.776372
_cell_length_c 20.825228
_cell_angle_alpha 90.000000
_cell_angle_beta 90.000000
_cell_angle_gamma 90.000000
_cell_volume 5453.156497
_symmetry_space_group_name_H-M "F M M M"
_symmetry_group_IT_number 69
_symmetry_cell_setting 'orthorhombic'
loop_
_space_group_symop_operation_xyz
x,y,z
-x,-y,z
x,-y,-z
-x,y,-z
-x,-y,-z
x,y,-z
-x,y,z
x,-y,z
x,1/2+y,1/2+z
-x,1/2-y,1/2+z
x,1/2-y,1/2-z
-x,1/2+y,1/2-z
-x,1/2-y,1/2-z
x,1/2+y,1/2-z
-x,1/2+y,1/2+z
x,1/2-y,1/2+z
1/2+x,y,1/2+z
1/2-x,-y,1/2+z
1/2+x,-y,1/2-z
1/2-x,y,1/2-z
1/2-x,-y,1/2-z
1/2+x,y,1/2-z
1/2-x,y,1/2+z
1/2+x,-y,1/2+z
1/2+x,1/2+y,z
1/2-x,1/2-y,z
1/2+x,1/2-y,-z
1/2-x,1/2+y,-z
1/2-x,1/2-y,-z
1/2+x,1/2+y,-z
1/2-x,1/2+y,z
1/2+x,1/2-y,z
loop_
_atom_site_type_symbol
_atom_site_label
_atom_site_fract_x
_atom_site_fract_y
_atom_site_fract_z
Si Si1 0.606497 0.607359 0.500000
Si Si2 0.111329 0.209941 0.859027
Si Si3 0.140073 0.728369 0.500000
Si Si4 0.116888 0.077482 0.222364
Si Si5 0.617700 0.126583 0.862389
O O1 0.500000 0.575758 0.500000
O O2 0.594279 0.693266 0.500000
O O3 0.652814 0.594215 0.430312
O O4 0.151990 0.146537 0.816239
O O5 0.150099 0.290722 0.855607
O O6 0.000000 0.217458 0.839347
O O7 0.115491 0.189913 0.934117
O O8 0.250000 0.750000 0.500000
O O9 0.141172 0.086264 0.297299
O O10 0.000000 0.078463 0.218391
O O11 0.148385 0.000000 0.198557
O O12 0.500000 0.127191 0.867461
#
# Coordination Sequence:
#
# PCOD9511144 Si02
#       5
#    16  32  16  32  32
#     4   8  14  26  45  67  89 114 145 183 229 275
#     4   9  16  28  46  67  93 123 151 185 235 283
#     4  10  18  28  45  69  89 109 145 197 236 269
#     4   9  16  25  40  67  99 125 153 189 225 270
#     4   8  13  23  41  64  89 118 151 186 226 269
#
# _framework density 23.472643000000001
#
# number of rings (size 3 to 8) (size 9 to 14) (size 15 to 20)
#    0.000    3.250    0.000    3.375    0.000    3.000 
#    0.000    1.250    0.000   18.750    0.000   21.000 
#    0.000    0.000    0.000    0.000    0.000    0.000 
#
# Total GULP energy -178623.660279 kJ/mol
# GULP energy per Si atom -5581.989384 kJ/mol
# Density = 2.341922 g / cm^3
# Si number density = 23.472643 Si / 1000 Ang^3
#
#
#
# Elastic Constant Matrix: (Units=GPa)
#
#
# Indices 1 2 3 4 5 6 
#
# 1 71.2361 14.4474 -20.3015 0.0000 0.0000 0.0000
# 2 14.4474 107.6295 60.2557 0.0000 0.0000 0.0000
# 3 -20.3015 60.2557 128.1585 0.0000 0.0000 0.0000
# 4 0.0000 0.0000 0.0000 -25.1949 0.0000 0.0000
# 5 0.0000 0.0000 0.0000 0.0000 -0.7455 0.0000
# 6 0.0000 0.0000 0.0000 0.0000 0.0000 9.6077
#
#
#
# Elastic Compliance Matrix: (Units=1/GPa)
#
#
# Indices 1 2 3 4 5 6 
#
# 1 0.016458 -0.004979 0.004948 0.000000 0.000000 0.000000
# 2 -0.004979 0.014117 -0.007426 0.000000 0.000000 0.000000
# 3 0.004948 -0.007426 0.012078 0.000000 0.000000 0.000000
# 4 0.000000 0.000000 0.000000 -0.039691 0.000000 0.000000
# 5 0.000000 0.000000 0.000000 0.000000 -1.341325 0.000000
# 6 0.000000 0.000000 0.000000 0.000000 0.000000 0.104084
#
#
# Mechanical properties :
#
#
# Convention : Reuss Voigt Hill
#
# Bulk Modulus (GPa) = 36.05100 46.20304 41.12702
# Shear Modulus (GPa) = -4.13183 13.57493 4.72155
#
# Velocity S-wave (km/s) = -1.32819 2.40746 1.41982
# Velocity P-wave (km/s) = 3.61109 5.23969 4.49968
#
# Compressibility (1/GPa) = 0.02773848
#
# Stress axis : x y z
#
# Youngs Moduli (GPa) = 60.76109 70.83656 82.79381
#
# Poissons Ratio (x) = 0.35273 -0.40968
# Poissons Ratio (y) = 0.30256 0.61484
# Poissons Ratio (z) = -0.30066 0.52604
#
# Static dielectric constant tensor:
#      x y z
#    x 1.818540 0.000000 0.000000 
#    y 0.000000 1.842690 0.000000 
#    z 0.000000 0.000000 1.901500 
# 
# From -- ./inp_files/22795.got.cif
#   From: 2010.05.17/outbox.cif.g08.bks.cpg/sg69_12_cif.got.tgz:22795.got - 2010.06.03 19:29:58.
