data_PCOD9511399
_publ_section_title
;
Structure prediction by ZEFSAII (Michael W. Deem and Ramdas Pophale) SiO2 
 PCOD9511399
Probable space group: F M M M
;
_chemical_formula_sum "Si O2"
_cell_formula_units_Z 192
_cell_length_a 17.035520
_cell_length_b 35.067075
_cell_length_c 17.863944
_cell_angle_alpha 90.000000
_cell_angle_beta 90.000000
_cell_angle_gamma 90.000000
_cell_volume 10671.667505
_symmetry_space_group_name_H-M "F M M M"
_symmetry_group_IT_number 69
_symmetry_cell_setting 'orthorhombic'
loop_
_space_group_symop_operation_xyz
x,y,z
-x,-y,z
x,-y,-z
-x,y,-z
-x,-y,-z
x,y,-z
-x,y,z
x,-y,z
x,1/2+y,1/2+z
-x,1/2-y,1/2+z
x,1/2-y,1/2-z
-x,1/2+y,1/2-z
-x,1/2-y,1/2-z
x,1/2+y,1/2-z
-x,1/2+y,1/2+z
x,1/2-y,1/2+z
1/2+x,y,1/2+z
1/2-x,-y,1/2+z
1/2+x,-y,1/2-z
1/2-x,y,1/2-z
1/2-x,-y,1/2-z
1/2+x,y,1/2-z
1/2-x,y,1/2+z
1/2+x,-y,1/2+z
1/2+x,1/2+y,z
1/2-x,1/2-y,z
1/2+x,1/2-y,-z
1/2-x,1/2+y,-z
1/2-x,1/2-y,-z
1/2+x,1/2+y,-z
1/2-x,1/2+y,z
1/2+x,1/2-y,z
loop_
_atom_site_type_symbol
_atom_site_label
_atom_site_fract_x
_atom_site_fract_y
_atom_site_fract_z
Si Si1 0.816331 0.862931 0.085823
Si Si2 0.853136 0.857555 0.639317
Si Si3 0.090583 0.775324 0.680759
Si Si4 0.000000 0.097441 0.583160
Si Si5 0.823117 0.723240 0.588444
Si Si6 0.000000 0.045356 0.728111
Si Si7 0.163526 0.583624 0.274206
O O1 0.722280 0.861744 0.087811
O O2 0.835553 0.820147 0.116090
O O3 0.837588 0.896445 0.144022
O O4 0.844694 0.868042 0.000000
O O5 0.865854 0.814384 0.664215
O O6 0.842452 0.882278 0.714089
O O7 0.926236 0.875289 0.596649
O O8 0.121253 0.750000 0.750000
O O9 0.101805 0.748100 0.609635
O O10 0.000000 0.784435 0.695858
O O11 0.000000 0.065042 0.646364
O O12 0.000000 0.081331 0.500000
O O13 0.688646 0.781032 0.500000
O O14 0.750000 0.750000 0.615807
O O15 0.916752 0.059185 0.764820
O O16 0.000000 0.000000 0.724484
O O17 0.250000 0.565958 0.250000
#
# Coordination Sequence:
#
# PCOD9511399 Si02
#       7
#    32  32  32  16  32  16  32
#     4  10  19  34  54  75 105 146 193 243 288 333
#     4  10  18  33  52  77 105 145 186 233 286 342
#     4  11  22  33  46  68 100 143 192 239 284 331
#     4  10  20  33  55  88 117 139 172 220 283 356
#     4  10  20  33  47  69 101 140 187 236 285 330
#     4  10  22  41  65  91 120 150 181 225 281 353
#     4   9  20  37  60  86 114 147 189 228 278 346
#
# _framework density 17.991565000000001
#
# number of rings (size 3 to 8) (size 9 to 14) (size 15 to 20)
#    0.000    2.000    2.500    1.500    0.000    1.833 
#    1.500    0.417    0.000    1.000    0.000    0.000 
#    0.000    0.000    0.000    0.000    0.000    0.000 
#
# Total GULP energy -267255.703600 kJ/mol
# GULP energy per Si atom -5567.827158 kJ/mol
# Density = 1.795062 g / cm^3
# Si number density = 17.991565 Si / 1000 Ang^3
#
#
#
# Elastic Constant Matrix: (Units=GPa)
#
#
# Indices 1 2 3 4 5 6 
#
# 1 76.4055 41.3998 19.7234 0.0000 0.0000 0.0000
# 2 41.3998 102.4828 28.0150 0.0000 0.0000 0.0000
# 3 19.7234 28.0150 64.5449 0.0000 0.0000 0.0000
# 4 0.0000 0.0000 0.0000 2.7048 0.0000 0.0000
# 5 0.0000 0.0000 0.0000 0.0000 15.0643 0.0000
# 6 0.0000 0.0000 0.0000 0.0000 0.0000 8.3441
#
#
#
# Elastic Compliance Matrix: (Units=1/GPa)
#
#
# Indices 1 2 3 4 5 6 
#
# 1 0.017112 -0.006221 -0.002529 0.000000 0.000000 0.000000
# 2 -0.006221 0.013333 -0.003886 0.000000 0.000000 0.000000
# 3 -0.002529 -0.003886 0.017952 0.000000 0.000000 0.000000
# 4 0.000000 0.000000 0.000000 0.369714 0.000000 0.000000
# 5 0.000000 0.000000 0.000000 0.000000 0.066382 0.000000
# 6 0.000000 0.000000 0.000000 0.000000 0.000000 0.119845
#
#
# Mechanical properties :
#
#
# Convention : Reuss Voigt Hill
#
# Bulk Modulus (GPa) = 43.24246 46.85662 45.04954
# Shear Modulus (GPa) = 7.84536 15.50897 11.67716
#
# Velocity S-wave (km/s) = 2.09046 2.93919 2.55038
# Velocity P-wave (km/s) = 5.46935 6.13340 5.81087
#
# Compressibility (1/GPa) = 0.02312542
#
# Stress axis : x y z
#
# Youngs Moduli (GPa) = 58.43913 75.00028 55.70259
#
# Poissons Ratio (x) = 0.46661 0.14085
# Poissons Ratio (y) = 0.36357 0.21646
# Poissons Ratio (z) = 0.14777 0.29146
#
# Static dielectric constant tensor:
#      x y z
#    x 1.690330 0.000000 0.000000 
#    y 0.000000 1.585080 0.000000 
#    z 0.000000 0.000000 1.648770 
# 
# From -- ./inp_files/23756.got.cif
#   From: 2010.05.17/outbox.cif.g08.bks.cpg/sg69_12_cif.got.tgz:23756.got - 2010.06.03 19:29:58.
