data_PCOD9511658
_publ_section_title
;
Structure prediction by ZEFSAII (Michael W. Deem and Ramdas Pophale) SiO2 
 PCOD9511658
Probable space group: F M M M
;
_chemical_formula_sum "Si O2"
_cell_formula_units_Z 160
_cell_length_a 14.891033
_cell_length_b 17.632522
_cell_length_c 27.549215
_cell_angle_alpha 90.000000
_cell_angle_beta 90.000000
_cell_angle_gamma 90.000000
_cell_volume 7233.500050
_symmetry_space_group_name_H-M "F M M M"
_symmetry_group_IT_number 69
_symmetry_cell_setting 'orthorhombic'
loop_
_space_group_symop_operation_xyz
x,y,z
-x,-y,z
x,-y,-z
-x,y,-z
-x,-y,-z
x,y,-z
-x,y,z
x,-y,z
x,1/2+y,1/2+z
-x,1/2-y,1/2+z
x,1/2-y,1/2-z
-x,1/2+y,1/2-z
-x,1/2-y,1/2-z
x,1/2+y,1/2-z
-x,1/2+y,1/2+z
x,1/2-y,1/2+z
1/2+x,y,1/2+z
1/2-x,-y,1/2+z
1/2+x,-y,1/2-z
1/2-x,y,1/2-z
1/2-x,-y,1/2-z
1/2+x,y,1/2-z
1/2-x,y,1/2+z
1/2+x,-y,1/2+z
1/2+x,1/2+y,z
1/2-x,1/2-y,z
1/2+x,1/2-y,-z
1/2-x,1/2+y,-z
1/2-x,1/2-y,-z
1/2+x,1/2+y,-z
1/2-x,1/2+y,z
1/2+x,1/2-y,z
loop_
_atom_site_type_symbol
_atom_site_label
_atom_site_fract_x
_atom_site_fract_y
_atom_site_fract_z
Si Si1 0.898398 0.584698 0.176088
Si Si2 0.110026 0.188405 0.591932
Si Si3 0.655336 0.088266 0.277822
Si Si4 0.890497 0.854666 0.881506
Si Si5 0.609622 0.912024 0.000000
Si Si6 0.390337 0.500000 0.056017
O O1 0.856301 0.500000 0.174085
O O2 0.856955 0.645811 0.140495
O O3 0.904834 0.609434 0.231769
O O4 0.000000 0.576133 0.158019
O O5 0.138518 0.275638 0.594430
O O6 0.137611 0.136175 0.546972
O O7 0.000000 0.191840 0.590779
O O8 0.750000 0.093547 0.250000
O O9 0.643697 0.135325 0.326434
O O10 0.636919 0.000000 0.290488
O O11 0.000000 0.855964 0.878718
O O12 0.861901 0.925497 0.914497
O O13 0.500000 0.914045 0.000000
O O14 0.638940 0.000000 0.000000
O O15 0.500000 0.500000 0.055583
O O16 0.361166 0.500000 0.000000
#
# Coordination Sequence:
#
# PCOD9511658 Si02
#       6
#    32  32  32  32  16  16
#     4   9  17  31  51  73 100 133 171 212 264 323
#     4   9  18  29  46  75 105 135 170 217 266 317
#     4  10  20  34  52  75 100 139 181 222 268 324
#     4  10  19  32  51  77 110 141 179 225 273 323
#     4   9  16  28  48  75 110 143 177 220 274 327
#     4   9  18  30  49  76 106 142 180 220 264 317
#
# _framework density 22.119305000000001
#
# number of rings (size 3 to 8) (size 9 to 14) (size 15 to 20)
#    0.000    2.600    1.000    1.200    1.400    4.000 
#    0.000    5.000    0.000    0.000    2.600    1.400 
#    0.000    0.000    0.000    0.000    0.000    0.200 
#
# Total GULP energy -223180.036510 kJ/mol
# GULP energy per Si atom -5579.500913 kJ/mol
# Density = 2.206896 g / cm^3
# Si number density = 22.119305 Si / 1000 Ang^3
#
#
#
# Elastic Constant Matrix: (Units=GPa)
#
#
# Indices 1 2 3 4 5 6 
#
# 1 34.9186 12.1591 10.8244 0.0000 0.0000 0.0000
# 2 12.1591 205.1131 129.4831 0.0000 0.0000 0.0000
# 3 10.8244 129.4831 168.8887 0.0000 0.0000 0.0000
# 4 0.0000 0.0000 0.0000 36.1021 0.0000 0.0000
# 5 0.0000 0.0000 0.0000 0.0000 -64.3362 0.0000
# 6 0.0000 0.0000 0.0000 0.0000 0.0000 3.8415
#
#
#
# Elastic Compliance Matrix: (Units=1/GPa)
#
#
# Indices 1 2 3 4 5 6 
#
# 1 0.029339 -0.001070 -0.001060 0.000000 0.000000 0.000000
# 2 -0.001070 0.009487 -0.007205 0.000000 0.000000 0.000000
# 3 -0.001060 -0.007205 0.011513 0.000000 0.000000 0.000000
# 4 0.000000 0.000000 0.000000 0.027699 0.000000 0.000000
# 5 0.000000 0.000000 0.000000 0.000000 -0.015543 0.000000
# 6 0.000000 0.000000 0.000000 0.000000 0.000000 0.260315
#
#
# Mechanical properties :
#
#
# Convention : Reuss Voigt Hill
#
# Bulk Modulus (GPa) = 31.57648 79.31707 55.44677
# Shear Modulus (GPa) = 14.20308 12.21839 13.21073
#
# Velocity S-wave (km/s) = 2.53674 2.35284 2.44652
# Velocity P-wave (km/s) = 4.78399 6.58162 5.75345
#
# Compressibility (1/GPa) = 0.03166914
#
# Stress axis : x y z
#
# Youngs Moduli (GPa) = 34.08403 105.40590 86.85909
#
# Poissons Ratio (x) = 0.11279 0.09207
# Poissons Ratio (y) = 0.03647 0.62582
# Poissons Ratio (z) = 0.03613 0.75945
#
# Static dielectric constant tensor:
#      x y z
#    x 2.141740 0.000000 0.000000 
#    y 0.000000 1.796180 0.000000 
#    z 0.000000 0.000000 1.775400 
# 
# From -- ./inp_files/32643.got.cif
#   From: 2010.05.17/outbox.cif.g08.bks.cpg/sg69_17_cif.got.tgz:32643.got - 2010.06.03 19:29:58.
