data_PCOD9511389
_publ_section_title
;
Structure prediction by ZEFSAII (Michael W. Deem and Ramdas Pophale) SiO2 
 PCOD9511389
Probable space group: F M M M
;
_chemical_formula_sum "Si O2"
_cell_formula_units_Z 136
_cell_length_a 18.298763
_cell_length_b 17.315535
_cell_length_c 22.949816
_cell_angle_alpha 90.000000
_cell_angle_beta 90.000000
_cell_angle_gamma 90.000000
_cell_volume 7271.715093
_symmetry_space_group_name_H-M "F M M M"
_symmetry_group_IT_number 69
_symmetry_cell_setting 'orthorhombic'
loop_
_space_group_symop_operation_xyz
x,y,z
-x,-y,z
x,-y,-z
-x,y,-z
-x,-y,-z
x,y,-z
-x,y,z
x,-y,z
x,1/2+y,1/2+z
-x,1/2-y,1/2+z
x,1/2-y,1/2-z
-x,1/2+y,1/2-z
-x,1/2-y,1/2-z
x,1/2+y,1/2-z
-x,1/2+y,1/2+z
x,1/2-y,1/2+z
1/2+x,y,1/2+z
1/2-x,-y,1/2+z
1/2+x,-y,1/2-z
1/2-x,y,1/2-z
1/2-x,-y,1/2-z
1/2+x,y,1/2-z
1/2-x,y,1/2+z
1/2+x,-y,1/2+z
1/2+x,1/2+y,z
1/2-x,1/2-y,z
1/2+x,1/2-y,-z
1/2-x,1/2+y,-z
1/2-x,1/2-y,-z
1/2+x,1/2+y,-z
1/2-x,1/2+y,z
1/2+x,1/2-y,z
loop_
_atom_site_type_symbol
_atom_site_label
_atom_site_fract_x
_atom_site_fract_y
_atom_site_fract_z
Si Si1 0.585112 0.620648 0.343545
Si Si2 0.181854 0.813718 0.000000
Si Si3 0.411286 0.087544 0.286755
Si Si4 0.085692 0.205201 0.885526
Si Si5 0.645112 0.500000 0.567031
Si Si6 0.283119 0.500000 0.000000
O O1 0.500000 0.596418 0.343411
O O2 0.614993 0.604162 0.278900
O O3 0.588289 0.710633 0.356908
O O4 0.622046 0.573309 0.395265
O O5 0.250000 0.750000 0.000000
O O6 0.134679 0.796304 0.942598
O O7 0.188973 0.909484 0.000000
O O8 0.500000 0.095345 0.284581
O O9 0.386856 0.145255 0.336887
O O10 0.393468 0.000000 0.302300
O O11 0.000000 0.188243 0.899469
O O12 0.614997 0.500000 0.500000
O O13 0.731215 0.500000 0.556610
#
# Coordination Sequence:
#
# PCOD9511389 Si02
#       6
#    32  16  32  32  16   8
#     4  10  18  32  57  91 125 153 187 243 308 364
#     4  12  25  45  64  85 120 163 207 256 306 366
#     4   9  17  32  55  89 125 156 188 238 300 359
#     4  10  22  37  61  91 121 155 201 249 299 357
#     4  10  21  36  55  84 114 157 201 244 300 371
#     4  10  26  42  58  76 112 164 208 242 306 358
#
# _framework density 18.702603
#
# number of rings (size 3 to 8) (size 9 to 14) (size 15 to 20)
#    0.353    1.647    1.176    2.824    3.294    3.765 
#    0.000    0.588    0.000   11.294    0.000    0.000 
#    0.000    0.000    0.000    0.000    0.000    0.000 
#
# Total GULP energy -189317.205696 kJ/mol
# GULP energy per Si atom -5568.153109 kJ/mol
# Density = 1.866003 g / cm^3
# Si number density = 18.702603 Si / 1000 Ang^3
#
#
#
# Elastic Constant Matrix: (Units=GPa)
#
#
# Indices 1 2 3 4 5 6 
#
# 1 29.6100 26.1000 32.8380 0.0000 0.0000 0.0000
# 2 26.1000 105.9070 64.9828 0.0000 0.0000 0.0000
# 3 32.8380 64.9828 151.9113 0.0000 0.0000 0.0000
# 4 0.0000 0.0000 0.0000 27.6768 0.0000 0.0000
# 5 0.0000 0.0000 0.0000 0.0000 -20.8611 0.0000
# 6 0.0000 0.0000 0.0000 0.0000 0.0000 40.3451
#
#
#
# Elastic Compliance Matrix: (Units=1/GPa)
#
#
# Indices 1 2 3 4 5 6 
#
# 1 0.048422 -0.007472 -0.007271 0.000000 0.000000 0.000000
# 2 -0.007472 0.013956 -0.004355 0.000000 0.000000 0.000000
# 3 -0.007271 -0.004355 0.010017 0.000000 0.000000 0.000000
# 4 0.000000 0.000000 0.000000 0.036131 0.000000 0.000000
# 5 0.000000 0.000000 0.000000 0.000000 -0.047936 0.000000
# 6 0.000000 0.000000 0.000000 0.000000 0.000000 0.024786
#
#
# Mechanical properties :
#
#
# Convention : Reuss Voigt Hill
#
# Bulk Modulus (GPa) = 29.23969 59.47443 44.35706
# Shear Modulus (GPa) = 37.04488 20.33265 28.68877
#
# Velocity S-wave (km/s) = 4.45537 3.30078 3.92081
# Velocity P-wave (km/s) = 6.49115 6.81146 6.65324
#
# Compressibility (1/GPa) = 0.03420008
#
# Stress axis : x y z
#
# Youngs Moduli (GPa) = 20.65169 71.65611 99.82773
#
# Poissons Ratio (x) = 0.53541 0.72584
# Poissons Ratio (y) = 0.15431 0.43471
# Poissons Ratio (z) = 0.15016 0.31203
#
# Static dielectric constant tensor:
#      x y z
#    x 1.659960 0.000000 0.000000 
#    y 0.000000 1.696850 0.000000 
#    z 0.000000 0.000000 1.621390 
# 
# From -- ./inp_files/22628.got.cif
#   From: 2010.05.17/outbox.cif.g08.bks.cpg/sg69_12_cif.got.tgz:22628.got - 2010.06.03 19:29:58.
