data_PCOD9511384
_publ_section_title
;
Structure prediction by ZEFSAII (Michael W. Deem and Ramdas Pophale) SiO2 
 PCOD9511384
Probable space group: F M M M
;
_chemical_formula_sum "Si O2"
_cell_formula_units_Z 128
_cell_length_a 29.976343
_cell_length_b 17.553672
_cell_length_c 14.257815
_cell_angle_alpha 90.000000
_cell_angle_beta 90.000000
_cell_angle_gamma 90.000000
_cell_volume 7502.389435
_symmetry_space_group_name_H-M "F M M M"
_symmetry_group_IT_number 69
_symmetry_cell_setting 'orthorhombic'
loop_
_space_group_symop_operation_xyz
x,y,z
-x,-y,z
x,-y,-z
-x,y,-z
-x,-y,-z
x,y,-z
-x,y,z
x,-y,z
x,1/2+y,1/2+z
-x,1/2-y,1/2+z
x,1/2-y,1/2-z
-x,1/2+y,1/2-z
-x,1/2-y,1/2-z
x,1/2+y,1/2-z
-x,1/2+y,1/2+z
x,1/2-y,1/2+z
1/2+x,y,1/2+z
1/2-x,-y,1/2+z
1/2+x,-y,1/2-z
1/2-x,y,1/2-z
1/2-x,-y,1/2-z
1/2+x,y,1/2-z
1/2-x,y,1/2+z
1/2+x,-y,1/2+z
1/2+x,1/2+y,z
1/2-x,1/2-y,z
1/2+x,1/2-y,-z
1/2-x,1/2+y,-z
1/2-x,1/2-y,-z
1/2+x,1/2+y,-z
1/2-x,1/2+y,z
1/2+x,1/2-y,z
loop_
_atom_site_type_symbol
_atom_site_label
_atom_site_fract_x
_atom_site_fract_y
_atom_site_fract_z
Si Si1 0.552327 0.758231 0.500000
Si Si2 0.851818 0.414264 0.811525
Si Si3 0.912270 0.086740 0.500000
Si Si4 0.114751 0.308365 0.334032
Si Si5 0.298460 0.781102 0.109684
O O1 0.500000 0.772967 0.500000
O O2 0.560105 0.665851 0.500000
O O3 0.577264 0.795683 0.411245
O O4 0.835636 0.500000 0.803085
O O5 0.878766 0.388072 0.719182
O O6 0.813080 0.352944 0.828537
O O7 0.882409 0.409118 0.905345
O O8 0.932628 0.000000 0.500000
O O9 0.104560 0.250000 0.250000
O O10 0.162217 0.280669 0.376267
O O11 0.250000 0.750000 0.134290
O O12 0.297858 0.803090 0.000000
#
# Coordination Sequence:
#
# PCOD9511384 Si02
#       5
#    16  32  16  32  32
#     4  12  22  37  59  84 114 151 190 233 286 348
#     4  10  19  34  59  82 114 150 184 232 288 335
#     4  10  18  35  56  85 115 140 178 238 297 332
#     4  10  19  36  55  81 112 144 192 234 277 340
#     4  10  18  32  57  83 110 148 187 230 280 341
#
# _framework density 17.061230999999999
#
# number of rings (size 3 to 8) (size 9 to 14) (size 15 to 20)
#    0.000    1.750    7.500    0.000    0.000    5.250 
#    0.000    3.125    0.000    3.000    0.000    0.000 
#    0.000    0.000    0.000    0.000    0.000    0.000 
#
# Total GULP energy -178310.350167 kJ/mol
# GULP energy per Si atom -5572.198443 kJ/mol
# Density = 1.702240 g / cm^3
# Si number density = 17.061231 Si / 1000 Ang^3
#
#
#
# Elastic Constant Matrix: (Units=GPa)
#
#
# Indices 1 2 3 4 5 6 
#
# 1 128.7181 40.5380 55.4835 0.0000 0.0000 0.0000
# 2 40.5380 84.4539 33.0194 0.0000 0.0000 0.0000
# 3 55.4835 33.0194 93.6919 0.0000 0.0000 0.0000
# 4 0.0000 0.0000 0.0000 16.9510 0.0000 0.0000
# 5 0.0000 0.0000 0.0000 0.0000 -5.6984 0.0000
# 6 0.0000 0.0000 0.0000 0.0000 0.0000 17.3686
#
#
#
# Elastic Compliance Matrix: (Units=1/GPa)
#
#
# Indices 1 2 3 4 5 6 
#
# 1 0.011134 -0.003209 -0.005463 0.000000 0.000000 0.000000
# 2 -0.003209 0.014658 -0.003266 0.000000 0.000000 0.000000
# 3 -0.005463 -0.003266 0.015059 0.000000 0.000000 0.000000
# 4 0.000000 0.000000 0.000000 0.058994 0.000000 0.000000
# 5 0.000000 0.000000 0.000000 0.000000 -0.175487 0.000000
# 6 0.000000 0.000000 0.000000 0.000000 0.000000 0.057575
#
#
# Mechanical properties :
#
#
# Convention : Reuss Voigt Hill
#
# Bulk Modulus (GPa) = 58.90315 62.77175 60.83745
# Shear Modulus (GPa) = 436.08880 17.57910 226.83395
#
# Velocity S-wave (km/s) = 16.00491 3.21339 11.54303
# Velocity P-wave (km/s) = 19.39439 7.11616 14.60791
#
# Compressibility (1/GPa) = 0.01697702
#
# Stress axis : x y z
#
# Youngs Moduli (GPa) = 89.81413 68.22353 66.40485
#
# Poissons Ratio (x) = 0.21890 0.36275
# Poissons Ratio (y) = 0.28818 0.21685
# Poissons Ratio (z) = 0.49063 0.22279
#
# Static dielectric constant tensor:
#      x y z
#    x 1.563860 0.000000 0.000000 
#    y 0.000000 1.593320 0.000000 
#    z 0.000000 0.000000 1.611180 
# 
# From -- ./inp_files/18628.got.cif
#   From: 2010.05.17/outbox.cif.g08.bks.cpg/sg69_10_cif.got.tgz:18628.got - 2010.06.03 19:29:58.
