data_PCOD9511733
_publ_section_title
;
Structure prediction by ZEFSAII (Michael W. Deem and Ramdas Pophale) SiO2 
 PCOD9511733
Probable space group: F M M M
;
_chemical_formula_sum "Si O2"
_cell_formula_units_Z 176
_cell_length_a 17.726440
_cell_length_b 14.064494
_cell_length_c 29.341843
_cell_angle_alpha 90.000000
_cell_angle_beta 90.000000
_cell_angle_gamma 90.000000
_cell_volume 7315.314905
_symmetry_space_group_name_H-M "F M M M"
_symmetry_group_IT_number 69
_symmetry_cell_setting 'orthorhombic'
loop_
_space_group_symop_operation_xyz
x,y,z
-x,-y,z
x,-y,-z
-x,y,-z
-x,-y,-z
x,y,-z
-x,y,z
x,-y,z
x,1/2+y,1/2+z
-x,1/2-y,1/2+z
x,1/2-y,1/2-z
-x,1/2+y,1/2-z
-x,1/2-y,1/2-z
x,1/2+y,1/2-z
-x,1/2+y,1/2+z
x,1/2-y,1/2+z
1/2+x,y,1/2+z
1/2-x,-y,1/2+z
1/2+x,-y,1/2-z
1/2-x,y,1/2-z
1/2-x,-y,1/2-z
1/2+x,y,1/2-z
1/2-x,y,1/2+z
1/2+x,-y,1/2+z
1/2+x,1/2+y,z
1/2-x,1/2-y,z
1/2+x,1/2-y,-z
1/2-x,1/2+y,-z
1/2-x,1/2-y,-z
1/2+x,1/2+y,-z
1/2-x,1/2+y,z
1/2+x,1/2-y,z
loop_
_atom_site_type_symbol
_atom_site_label
_atom_site_fract_x
_atom_site_fract_y
_atom_site_fract_z
Si Si1 0.335213 0.178644 0.947833
Si Si2 0.776967 0.358524 0.147397
Si Si3 0.414689 0.295011 0.701275
Si Si4 0.393044 0.600141 0.848945
Si Si5 0.000000 0.107774 0.554365
Si Si6 0.365509 0.605715 0.049526
O O1 0.299283 0.124248 0.905091
O O2 0.424050 0.165011 0.936227
O O3 0.178508 0.206812 0.948231
O O4 0.321964 0.143863 0.000000
O O5 0.750000 0.250000 0.149919
O O6 0.850275 0.363302 0.179959
O O7 0.697607 0.405728 0.157938
O O8 0.500000 0.335504 0.704218
O O9 0.392172 0.250000 0.750000
O O10 0.418263 0.199884 0.670790
O O11 0.422221 0.500000 0.830110
O O12 0.408843 0.604081 0.903019
O O13 0.000000 0.096861 0.500000
O O14 0.000000 0.000000 0.574049
O O15 0.327921 0.500000 0.048804
O O16 0.405019 0.611817 0.000000
#
# Coordination Sequence:
#
# PCOD9511733 Si02
#       6
#    32  32  32  32  16  32
#     4  10  19  32  55  82 119 167 208 248 301 358
#     4  10  20  35  55  88 120 153 197 243 297 365
#     4  10  22  41  64  86 110 150 200 254 311 376
#     4  10  21  38  61  91 126 161 200 249 307 371
#     4   9  20  36  51  73 108 157 216 260 293 347
#     4   9  17  31  52  85 127 163 200 245 291 352
#
# _framework density 24.059114000000001
#
# number of rings (size 3 to 8) (size 9 to 14) (size 15 to 20)
#    0.000    2.273    3.636    0.000    1.273    5.455 
#    0.000    2.273    0.000    3.818    0.000    0.000 
#    0.000    0.000    0.000    0.000    0.000    0.000 
#
# Total GULP energy -245082.695540 kJ/mol
# GULP energy per Si atom -5570.061262 kJ/mol
# Density = 2.400435 g / cm^3
# Si number density = 24.059114 Si / 1000 Ang^3
#
#
#
# Elastic Constant Matrix: (Units=GPa)
#
#
# Indices 1 2 3 4 5 6 
#
# 1 156.6463 6.2829 38.4144 0.0000 0.0000 0.0000
# 2 6.2829 87.1757 -1.0898 0.0000 0.0000 0.0000
# 3 38.4144 -1.0898 116.3001 0.0000 0.0000 0.0000
# 4 0.0000 0.0000 0.0000 -63.8665 0.0000 0.0000
# 5 0.0000 0.0000 0.0000 0.0000 34.9955 0.0000
# 6 0.0000 0.0000 0.0000 0.0000 0.0000 -6.8378
#
#
#
# Elastic Compliance Matrix: (Units=1/GPa)
#
#
# Indices 1 2 3 4 5 6 
#
# 1 0.006971 -0.000531 -0.002308 0.000000 0.000000 0.000000
# 2 -0.000531 0.011513 0.000283 0.000000 0.000000 0.000000
# 3 -0.002308 0.000283 0.009363 0.000000 0.000000 0.000000
# 4 0.000000 0.000000 0.000000 -0.015658 0.000000 0.000000
# 5 0.000000 0.000000 0.000000 0.000000 0.028575 0.000000
# 6 0.000000 0.000000 0.000000 0.000000 0.000000 -0.146246
#
#
# Mechanical properties :
#
#
# Convention : Reuss Voigt Hill
#
# Bulk Modulus (GPa) = 43.98243 49.70411 46.84327
# Shear Modulus (GPa) = -53.88424 13.95923 -19.96251
#
# Velocity S-wave (km/s) = -4.73764 2.41136 -2.88362
# Velocity P-wave (km/s) = 3.40680 5.33450 2.90264
#
# Compressibility (1/GPa) = 0.02273635
#
# Stress axis : x y z
#
# Youngs Moduli (GPa) = 143.45164 86.85897 106.80017
#
# Poissons Ratio (x) = 0.04614 0.24644
# Poissons Ratio (y) = 0.07621 -0.03026
# Poissons Ratio (z) = 0.33102 -0.02461
#
# Static dielectric constant tensor:
#      x y z
#    x 2.048170 0.000000 0.000000 
#    y 0.000000 1.941590 0.000000 
#    z 0.000000 0.000000 1.920210 
# 
# From -- ./inp_files/41820.got.cif
#   From: 2010.05.17/outbox.cif.g08.bks.cpg/sg69_21_cif.got.tgz:41820.got - 2010.06.03 19:29:58.
