data_PCOD9511103
_publ_section_title
;
Structure prediction by ZEFSAII (Michael W. Deem and Ramdas Pophale) SiO2 
 PCOD9511103
Probable space group: F M M M
;
_chemical_formula_sum "Si O2"
_cell_formula_units_Z 160
_cell_length_a 19.506971
_cell_length_b 24.854775
_cell_length_c 15.509942
_cell_angle_alpha 90.000000
_cell_angle_beta 90.000000
_cell_angle_gamma 90.000000
_cell_volume 7519.861608
_symmetry_space_group_name_H-M "F M M M"
_symmetry_group_IT_number 69
_symmetry_cell_setting 'orthorhombic'
loop_
_space_group_symop_operation_xyz
x,y,z
-x,-y,z
x,-y,-z
-x,y,-z
-x,-y,-z
x,y,-z
-x,y,z
x,-y,z
x,1/2+y,1/2+z
-x,1/2-y,1/2+z
x,1/2-y,1/2-z
-x,1/2+y,1/2-z
-x,1/2-y,1/2-z
x,1/2+y,1/2-z
-x,1/2+y,1/2+z
x,1/2-y,1/2+z
1/2+x,y,1/2+z
1/2-x,-y,1/2+z
1/2+x,-y,1/2-z
1/2-x,y,1/2-z
1/2-x,-y,1/2-z
1/2+x,y,1/2-z
1/2-x,y,1/2+z
1/2+x,-y,1/2+z
1/2+x,1/2+y,z
1/2-x,1/2-y,z
1/2+x,1/2-y,-z
1/2-x,1/2+y,-z
1/2-x,1/2-y,-z
1/2+x,1/2+y,-z
1/2-x,1/2+y,z
1/2+x,1/2-y,z
loop_
_atom_site_type_symbol
_atom_site_label
_atom_site_fract_x
_atom_site_fract_y
_atom_site_fract_z
Si Si1 0.576715 0.810818 0.099678
Si Si2 0.920559 0.500000 0.358438
Si Si3 0.177021 0.902433 0.146212
Si Si4 0.671416 0.405674 0.350776
Si Si5 0.422823 0.500000 0.353334
Si Si6 0.823659 0.273035 0.348402
O O1 0.500000 0.815362 0.138013
O O2 0.634861 0.848668 0.139377
O O3 0.609567 0.752180 0.107612
O O4 0.572058 0.825557 0.000000
O O5 0.879211 0.445652 0.386035
O O6 0.923202 0.500000 0.252484
O O7 0.000000 0.500000 0.386914
O O8 0.253380 0.912185 0.110278
O O9 0.178876 0.914177 0.248533
O O10 0.170027 0.837448 0.141975
O O11 0.617942 0.448502 0.384556
O O12 0.500000 0.500000 0.382831
O O13 0.825783 0.250000 0.250000
O O14 0.750000 0.250000 0.382436
#
# Coordination Sequence:
#
# PCOD9511103 Si02
#       6
#    32  16  32  32  16  32
#     4  11  24  38  52  78 116 151 183 229 285 335
#     4   9  19  31  47  83 120 139 175 234 290 337
#     4  10  18  32  57  81 108 147 185 232 284 329
#     4  10  17  34  52  77 109 143 186 232 272 329
#     4   9  17  27  48  76 106 146 184 219 275 336
#     4  11  19  37  59  85 112 142 190 237 279 335
#
# _framework density 21.276986999999998
#
# number of rings (size 3 to 8) (size 9 to 14) (size 15 to 20)
#    0.000    1.800    4.000    2.400    0.000    4.800 
#    0.000    0.500    0.000    1.800    0.000    0.700 
#    0.000    4.800    0.000    0.000    0.000    0.000 
#
# Total GULP energy -222917.575429 kJ/mol
# GULP energy per Si atom -5572.939386 kJ/mol
# Density = 2.122856 g / cm^3
# Si number density = 21.276987 Si / 1000 Ang^3
#
#
#
# Elastic Constant Matrix: (Units=GPa)
#
#
# Indices 1 2 3 4 5 6 
#
# 1 211.7853 94.8276 12.1861 0.0000 0.0000 0.0000
# 2 94.8276 165.2996 -9.0269 0.0000 0.0000 0.0000
# 3 12.1861 -9.0269 26.4682 0.0000 0.0000 0.0000
# 4 0.0000 0.0000 0.0000 -12.2275 0.0000 0.0000
# 5 0.0000 0.0000 0.0000 0.0000 -7.5642 0.0000
# 6 0.0000 0.0000 0.0000 0.0000 0.0000 27.9819
#
#
#
# Elastic Compliance Matrix: (Units=1/GPa)
#
#
# Indices 1 2 3 4 5 6 
#
# 1 0.006860 -0.004186 -0.004586 0.000000 0.000000 0.000000
# 2 -0.004186 0.008718 0.004901 0.000000 0.000000 0.000000
# 3 -0.004586 0.004901 0.041564 0.000000 0.000000 0.000000
# 4 0.000000 0.000000 0.000000 -0.081783 0.000000 0.000000
# 5 0.000000 0.000000 0.000000 0.000000 -0.132201 0.000000
# 6 0.000000 0.000000 0.000000 0.000000 0.000000 0.035737
#
#
# Mechanical properties :
#
#
# Convention : Reuss Voigt Hill
#
# Bulk Modulus (GPa) = 20.24285 66.61407 43.42846
# Shear Modulus (GPa) = -51.60189 22.00912 -14.79639
#
# Velocity S-wave (km/s) = -4.93002 3.21971 -2.63994
# Velocity P-wave (km/s) = 4.78249 6.72295 3.34110
#
# Compressibility (1/GPa) = 0.04940016
#
# Stress axis : x y z
#
# Youngs Moduli (GPa) = 145.77700 114.69925 24.05936
#
# Poissons Ratio (x) = 0.48010 0.11033
# Poissons Ratio (y) = 0.61018 -0.11790
# Poissons Ratio (z) = 0.66851 -0.56209
#
# Static dielectric constant tensor:
#      x y z
#    x 1.791100 0.000000 0.000000 
#    y 0.000000 1.946390 0.000000 
#    z 0.000000 0.000000 1.791010 
# 
# From -- ./inp_files/23229.got.cif
#   From: 2010.05.17/outbox.cif.g08.bks.cpg/sg69_12_cif.got.tgz:23229.got - 2010.06.03 19:29:58.
