data_PCOD9511249
_publ_section_title
;
Structure prediction by ZEFSAII (Michael W. Deem and Ramdas Pophale) SiO2 
 PCOD9511249
Probable space group: F M M M
;
_chemical_formula_sum "Si O2"
_cell_formula_units_Z 160
_cell_length_a 15.400069
_cell_length_b 23.413944
_cell_length_c 20.987461
_cell_angle_alpha 90.000000
_cell_angle_beta 90.000000
_cell_angle_gamma 90.000000
_cell_volume 7567.582150
_symmetry_space_group_name_H-M "F M M M"
_symmetry_group_IT_number 69
_symmetry_cell_setting 'orthorhombic'
loop_
_space_group_symop_operation_xyz
x,y,z
-x,-y,z
x,-y,-z
-x,y,-z
-x,-y,-z
x,y,-z
-x,y,z
x,-y,z
x,1/2+y,1/2+z
-x,1/2-y,1/2+z
x,1/2-y,1/2-z
-x,1/2+y,1/2-z
-x,1/2-y,1/2-z
x,1/2+y,1/2-z
-x,1/2+y,1/2+z
x,1/2-y,1/2+z
1/2+x,y,1/2+z
1/2-x,-y,1/2+z
1/2+x,-y,1/2-z
1/2-x,y,1/2-z
1/2-x,-y,1/2-z
1/2+x,y,1/2-z
1/2-x,y,1/2+z
1/2+x,-y,1/2+z
1/2+x,1/2+y,z
1/2-x,1/2-y,z
1/2+x,1/2-y,-z
1/2-x,1/2+y,-z
1/2-x,1/2-y,-z
1/2+x,1/2+y,-z
1/2-x,1/2+y,z
1/2+x,1/2-y,z
loop_
_atom_site_type_symbol
_atom_site_label
_atom_site_fract_x
_atom_site_fract_y
_atom_site_fract_z
Si Si1 0.140796 0.500000 0.574360
Si Si2 0.353551 0.118345 0.372038
Si Si3 0.848414 0.122051 0.621828
Si Si4 0.904386 0.321842 0.500000
Si Si5 0.143078 0.184284 0.251901
Si Si6 0.354515 0.500000 0.426282
Si Si7 0.165867 0.294196 0.000000
O O1 0.115622 0.500000 0.500000
O O2 0.109947 0.556750 0.609750
O O3 0.247592 0.500000 0.574231
O O4 0.251573 0.109917 0.359946
O O5 0.360293 0.156231 0.435695
O O6 0.388565 0.150580 0.310470
O O7 0.886222 0.153810 0.683177
O O8 0.884946 0.059704 0.604371
O O9 0.843238 0.164914 0.561380
O O10 0.907020 0.253923 0.500000
O O11 0.000000 0.347062 0.500000
O O12 0.115617 0.250000 0.250000
O O13 0.250000 0.185151 0.250000
O O14 0.380008 0.500000 0.500000
O O15 0.250000 0.250000 0.000000
#
# Coordination Sequence:
#
# PCOD9511249 Si02
#       7
#    16  32  32  16  32  16  16
#     4   9  16  27  49  71  99 143 183 222 265 322
#     4  10  18  33  49  72 108 141 182 226 274 318
#     4  10  18  30  52  80 104 143 177 227 277 325
#     4  12  24  35  52  79 112 146 185 230 272 323
#     4   9  18  28  45  73 107 138 180 224 268 325
#     4   9  16  27  43  77 115 131 168 222 280 322
#     4  12  20  31  57  79 103 141 191 227 274 322
#
# _framework density 21.142816
#
# number of rings (size 3 to 8) (size 9 to 14) (size 15 to 20)
#    0.000    2.000    4.000    1.200    2.800    0.800 
#    0.000    5.000    0.000    5.400    0.000    1.400 
#    0.000    0.000    0.000    0.000    0.000    0.000 
#
# Total GULP energy -223123.957727 kJ/mol
# GULP energy per Si atom -5578.098943 kJ/mol
# Density = 2.109469 g / cm^3
# Si number density = 21.142816 Si / 1000 Ang^3
#
#
#
# Elastic Constant Matrix: (Units=GPa)
#
#
# Indices 1 2 3 4 5 6 
#
# 1 35.6000 0.4410 -2.9223 0.0000 0.0000 0.0000
# 2 0.4410 246.1953 136.3605 0.0000 0.0000 0.0000
# 3 -2.9223 136.3605 211.7028 0.0000 0.0000 0.0000
# 4 0.0000 0.0000 0.0000 37.6591 0.0000 0.0000
# 5 0.0000 0.0000 0.0000 0.0000 -17.6356 0.0000
# 6 0.0000 0.0000 0.0000 0.0000 0.0000 -8.6636
#
#
#
# Elastic Compliance Matrix: (Units=1/GPa)
#
#
# Indices 1 2 3 4 5 6 
#
# 1 0.028149 -0.000413 0.000655 0.000000 0.000000 0.000000
# 2 -0.000413 0.006321 -0.004077 0.000000 0.000000 0.000000
# 3 0.000655 -0.004077 0.007359 0.000000 0.000000 0.000000
# 4 0.000000 0.000000 0.000000 0.026554 0.000000 0.000000
# 5 0.000000 0.000000 0.000000 0.000000 -0.056703 0.000000
# 6 0.000000 0.000000 0.000000 0.000000 0.000000 -0.115426
#
#
# Mechanical properties :
#
#
# Convention : Reuss Voigt Hill
#
# Bulk Modulus (GPa) = 29.27625 84.58403 56.93014
# Shear Modulus (GPa) = -59.03849 26.24657 -16.39596
#
# Velocity S-wave (km/s) = -5.29002 3.52716 -2.78778
# Velocity P-wave (km/s) = 4.84101 7.52866 4.07709
#
# Compressibility (1/GPa) = 0.03415738
#
# Stress axis : x y z
#
# Youngs Moduli (GPa) = 35.52558 158.21198 135.89495
#
# Poissons Ratio (x) = 0.06533 -0.08895
# Poissons Ratio (y) = 0.01467 0.55403
# Poissons Ratio (z) = -0.02325 0.64501
#
# Static dielectric constant tensor:
#      x y z
#    x 1.803640 0.000000 0.000000 
#    y 0.000000 1.758640 0.000000 
#    z 0.000000 0.000000 1.734150 
# 
# From -- ./inp_files/30863.got.cif
#   From: 2010.05.17/outbox.cif.g08.bks.cpg/sg69_16_cif.got.tgz:30863.got - 2010.06.03 19:29:58.
