data_PCOD9511871
_publ_section_title
;
Structure prediction by ZEFSAII (Michael W. Deem and Ramdas Pophale) SiO2 
 PCOD9511871
Probable space group: F M M M
;
_chemical_formula_sum "Si O2"
_cell_formula_units_Z 192
_cell_length_a 24.625018
_cell_length_b 13.965695
_cell_length_c 23.781124
_cell_angle_alpha 90.000000
_cell_angle_beta 90.000000
_cell_angle_gamma 90.000000
_cell_volume 8178.459120
_symmetry_space_group_name_H-M "F M M M"
_symmetry_group_IT_number 69
_symmetry_cell_setting 'orthorhombic'
loop_
_space_group_symop_operation_xyz
x,y,z
-x,-y,z
x,-y,-z
-x,y,-z
-x,-y,-z
x,y,-z
-x,y,z
x,-y,z
x,1/2+y,1/2+z
-x,1/2-y,1/2+z
x,1/2-y,1/2-z
-x,1/2+y,1/2-z
-x,1/2-y,1/2-z
x,1/2+y,1/2-z
-x,1/2+y,1/2+z
x,1/2-y,1/2+z
1/2+x,y,1/2+z
1/2-x,-y,1/2+z
1/2+x,-y,1/2-z
1/2-x,y,1/2-z
1/2-x,-y,1/2-z
1/2+x,y,1/2-z
1/2-x,y,1/2+z
1/2+x,-y,1/2+z
1/2+x,1/2+y,z
1/2-x,1/2-y,z
1/2+x,1/2-y,-z
1/2-x,1/2+y,-z
1/2-x,1/2-y,-z
1/2+x,1/2+y,-z
1/2-x,1/2+y,z
1/2+x,1/2-y,z
loop_
_atom_site_type_symbol
_atom_site_label
_atom_site_fract_x
_atom_site_fract_y
_atom_site_fract_z
Si Si1 0.000000 0.141206 0.732043
Si Si2 0.668227 0.382882 0.437181
Si Si3 0.309970 0.389989 0.224581
Si Si4 0.114909 0.887477 0.676584
Si Si5 0.710831 0.382711 0.099907
Si Si6 0.594801 0.616430 0.061495
Si Si7 0.000000 0.608323 0.361908
O O1 0.000000 0.250000 0.750000
O O2 0.052983 0.119609 0.695683
O O3 0.000000 0.099080 0.794976
O O4 0.652673 0.351766 0.500000
O O5 0.667233 0.500000 0.438359
O O6 0.630569 0.351019 0.385158
O O7 0.730323 0.354201 0.422886
O O8 0.329595 0.500000 0.214770
O O9 0.250000 0.393341 0.250000
O O10 0.349083 0.347601 0.271994
O O11 0.302144 0.347554 0.162983
O O12 0.129790 0.000000 0.674458
O O13 0.713511 0.500000 0.101286
O O14 0.657522 0.353533 0.065898
O O15 0.597981 0.500000 0.064910
O O16 0.554990 0.651200 0.111360
O O17 0.572323 0.641142 0.000000
O O18 0.000000 0.500000 0.384087
#
# Coordination Sequence:
#
# PCOD9511871 Si02
#       7
#    16  32  32  32  32  32  16
#     4  12  26  41  56  74 100 133 173 224 277 318
#     4   9  16  26  44  74 110 142 172 211 259 308
#     4   9  14  23  43  76 110 137 169 210 255 301
#     4  10  19  34  56  81 108 138 176 217 261 312
#     4   9  14  21  36  67 111 147 168 200 257 313
#     4   9  16  25  42  73 111 142 168 205 252 307
#     4  10  19  34  54  76 101 134 174 214 262 316
#
# _framework density 23.476303999999999
#
# number of rings (size 3 to 8) (size 9 to 14) (size 15 to 20)
#    0.000    2.500    1.667    2.500    0.000    5.667 
#    0.000    0.417    0.000    4.500    0.000    0.000 
#    0.000    4.333    0.000    0.000    0.000    0.000 
#
# Total GULP energy -268086.692205 kJ/mol
# GULP energy per Si atom -5585.139421 kJ/mol
# Density = 2.342287 g / cm^3
# Si number density = 23.476304 Si / 1000 Ang^3
#
#
#
# Elastic Constant Matrix: (Units=GPa)
#
#
# Indices 1 2 3 4 5 6 
#
# 1 140.7133 -12.4559 86.6518 0.0000 0.0000 0.0000
# 2 -12.4559 62.0882 8.4892 0.0000 0.0000 0.0000
# 3 86.6518 8.4892 197.1715 0.0000 0.0000 0.0000
# 4 0.0000 0.0000 0.0000 5.4942 0.0000 0.0000
# 5 0.0000 0.0000 0.0000 0.0000 24.8044 0.0000
# 6 0.0000 0.0000 0.0000 0.0000 0.0000 130.6733
#
#
#
# Elastic Compliance Matrix: (Units=1/GPa)
#
#
# Indices 1 2 3 4 5 6 
#
# 1 0.010164 0.002665 -0.004582 0.000000 0.000000 0.000000
# 2 0.002665 0.016901 -0.001899 0.000000 0.000000 0.000000
# 3 -0.004582 -0.001899 0.007167 0.000000 0.000000 0.000000
# 4 0.000000 0.000000 0.000000 0.182011 0.000000 0.000000
# 5 0.000000 0.000000 0.000000 0.000000 0.040315 0.000000
# 6 0.000000 0.000000 0.000000 0.000000 0.000000 0.007653
#
#
# Mechanical properties :
#
#
# Convention : Reuss Voigt Hill
#
# Bulk Modulus (GPa) = 37.59239 62.81592 50.20416
# Shear Modulus (GPa) = 17.81215 53.34690 35.57952
#
# Velocity S-wave (km/s) = 2.75749 4.77211 3.89723
# Velocity P-wave (km/s) = 5.11723 7.56170 6.45621
#
# Compressibility (1/GPa) = 0.02660113
#
# Stress axis : x y z
#
# Youngs Moduli (GPa) = 98.38710 59.16984 139.52905
#
# Poissons Ratio (x) = -0.15772 0.63926
# Poissons Ratio (y) = -0.26225 0.26497
# Poissons Ratio (z) = 0.45077 0.11237
#
# Static dielectric constant tensor:
#      x y z
#    x 1.844800 0.000000 0.000000 
#    y 0.000000 1.947150 0.000000 
#    z 0.000000 0.000000 1.863050 
# 
# From -- ./inp_files/38376.got.cif
#   From: 2010.05.17/outbox.cif.g08.bks.cpg/sg69_20_cif.got.tgz:38376.got - 2010.06.03 19:29:58.
