data_PCOD9511106
_publ_section_title
;
Structure prediction by ZEFSAII (Michael W. Deem and Ramdas Pophale) SiO2 
 PCOD9511106
Probable space group: F M M M
;
_chemical_formula_sum "Si O2"
_cell_formula_units_Z 104
_cell_length_a 21.253430
_cell_length_b 13.790489
_cell_length_c 16.188012
_cell_angle_alpha 90.000000
_cell_angle_beta 90.000000
_cell_angle_gamma 90.000000
_cell_volume 4744.628495
_symmetry_space_group_name_H-M "F M M M"
_symmetry_group_IT_number 69
_symmetry_cell_setting 'orthorhombic'
loop_
_space_group_symop_operation_xyz
x,y,z
-x,-y,z
x,-y,-z
-x,y,-z
-x,-y,-z
x,y,-z
-x,y,z
x,-y,z
x,1/2+y,1/2+z
-x,1/2-y,1/2+z
x,1/2-y,1/2-z
-x,1/2+y,1/2-z
-x,1/2-y,1/2-z
x,1/2+y,1/2-z
-x,1/2+y,1/2+z
x,1/2-y,1/2+z
1/2+x,y,1/2+z
1/2-x,-y,1/2+z
1/2+x,-y,1/2-z
1/2-x,y,1/2-z
1/2-x,-y,1/2-z
1/2+x,y,1/2-z
1/2-x,y,1/2+z
1/2+x,-y,1/2+z
1/2+x,1/2+y,z
1/2-x,1/2-y,z
1/2+x,1/2-y,-z
1/2-x,1/2+y,-z
1/2-x,1/2-y,-z
1/2+x,1/2+y,-z
1/2-x,1/2+y,z
1/2+x,1/2-y,z
loop_
_atom_site_type_symbol
_atom_site_label
_atom_site_fract_x
_atom_site_fract_y
_atom_site_fract_z
Si Si1 0.139082 0.175057 0.324964
Si Si2 0.174697 0.225352 0.000000
Si Si3 0.500000 0.667942 0.500000
Si Si4 0.000000 0.323777 0.824329
Si Si5 0.187946 0.500000 0.500000
Si Si6 0.897542 0.000000 0.500000
Si Si7 0.708720 0.000000 0.139548
O O1 0.141514 0.250000 0.250000
O O2 0.149485 0.226907 0.414391
O O3 0.194270 0.097530 0.312398
O O4 0.068640 0.127336 0.320608
O O5 0.250000 0.250000 0.000000
O O6 0.159592 0.109577 0.000000
O O7 0.500000 0.725525 0.415100
O O8 0.442019 0.593015 0.500000
O O9 0.000000 0.250000 0.750000
O O10 0.230258 0.500000 0.583219
O O11 0.849726 0.000000 0.424686
#
# Coordination Sequence:
#
# PCOD9511106 Si02
#       7
#    32  16   8  16   8   8  16
#     4  11  24  40  65  96 133 169 212 264 323 391
#     4  12  23  45  65  93 131 165 212 271 317 381
#     4  11  16  28  54  90 116 159 198 255 314 368
#     4  10  21  37  58  96 135 169 206 262 326 382
#     4  11  24  41  68  90 126 169 208 275 326 362
#     4  10  18  25  56  90 116 147 208 260 318 360
#     4  11  19  39  62  95 125 163 216 272 329 369
#
# _framework density 21.919525
#
# number of rings (size 3 to 8) (size 9 to 14) (size 15 to 20)
#    0.000    1.077    6.154    1.846    0.000    2.462 
#    0.000    1.538    0.000    3.692    0.000    0.000 
#    0.000    0.000    0.000    0.000    0.000    0.000 
#
# Total GULP energy -144935.912916 kJ/mol
# GULP energy per Si atom -5574.458189 kJ/mol
# Density = 2.186964 g / cm^3
# Si number density = 21.919525 Si / 1000 Ang^3
#
#
#
# Elastic Constant Matrix: (Units=GPa)
#
#
# Indices 1 2 3 4 5 6 
#
# 1 84.7889 19.2116 29.0564 0.0000 0.0000 0.0000
# 2 19.2116 117.0232 38.0733 0.0000 0.0000 0.0000
# 3 29.0564 38.0733 137.1681 0.0000 0.0000 0.0000
# 4 0.0000 0.0000 0.0000 29.8327 0.0000 0.0000
# 5 0.0000 0.0000 0.0000 0.0000 36.2702 0.0000
# 6 0.0000 0.0000 0.0000 0.0000 0.0000 21.8203
#
#
#
# Elastic Compliance Matrix: (Units=1/GPa)
#
#
# Indices 1 2 3 4 5 6 
#
# 1 0.012909 -0.001352 -0.002359 0.000000 0.000000 0.000000
# 2 -0.001352 0.009535 -0.002360 0.000000 0.000000 0.000000
# 3 -0.002359 -0.002360 0.008445 0.000000 0.000000 0.000000
# 4 0.000000 0.000000 0.000000 0.033520 0.000000 0.000000
# 5 0.000000 0.000000 0.000000 0.000000 0.027571 0.000000
# 6 0.000000 0.000000 0.000000 0.000000 0.000000 0.045829
#
#
# Mechanical properties :
#
#
# Convention : Reuss Voigt Hill
#
# Bulk Modulus (GPa) = 53.34288 56.85142 55.09715
# Shear Modulus (GPa) = 32.01013 34.42723 33.21868
#
# Velocity S-wave (km/s) = 3.82560 3.96740 3.89714
# Velocity P-wave (km/s) = 6.62587 6.85418 6.74099
#
# Compressibility (1/GPa) = 0.01874664
#
# Stress axis : x y z
#
# Youngs Moduli (GPa) = 77.46676 104.87524 118.40989
#
# Poissons Ratio (x) = 0.14175 0.27936
# Poissons Ratio (y) = 0.10471 0.27949
# Poissons Ratio (z) = 0.18277 0.24754
#
# Static dielectric constant tensor:
#      x y z
#    x 1.870260 0.000000 0.000000 
#    y 0.000000 1.846320 0.000000 
#    z 0.000000 0.000000 1.830340 
# 
# From -- ./inp_files/25406.got.cif
#   From: 2010.05.17/outbox.cif.g08.bks.cpg/sg69_13_cif.got.tgz:25406.got - 2010.06.03 19:29:58.
