data_PCOD9511135
_publ_section_title
;
Structure prediction by ZEFSAII (Michael W. Deem and Ramdas Pophale) SiO2 
 PCOD9511135
Probable space group: F M M M
;
_chemical_formula_sum "Si O2"
_cell_formula_units_Z 192
_cell_length_a 29.293194
_cell_length_b 13.760078
_cell_length_c 28.037141
_cell_angle_alpha 90.000000
_cell_angle_beta 90.000000
_cell_angle_gamma 90.000000
_cell_volume 11301.116430
_symmetry_space_group_name_H-M "F M M M"
_symmetry_group_IT_number 69
_symmetry_cell_setting 'orthorhombic'
loop_
_space_group_symop_operation_xyz
x,y,z
-x,-y,z
x,-y,-z
-x,y,-z
-x,-y,-z
x,y,-z
-x,y,z
x,-y,z
x,1/2+y,1/2+z
-x,1/2-y,1/2+z
x,1/2-y,1/2-z
-x,1/2+y,1/2-z
-x,1/2-y,1/2-z
x,1/2+y,1/2-z
-x,1/2+y,1/2+z
x,1/2-y,1/2+z
1/2+x,y,1/2+z
1/2-x,-y,1/2+z
1/2+x,-y,1/2-z
1/2-x,y,1/2-z
1/2-x,-y,1/2-z
1/2+x,y,1/2-z
1/2-x,y,1/2+z
1/2+x,-y,1/2+z
1/2+x,1/2+y,z
1/2-x,1/2-y,z
1/2+x,1/2-y,-z
1/2-x,1/2+y,-z
1/2-x,1/2-y,-z
1/2+x,1/2+y,-z
1/2-x,1/2+y,z
1/2+x,1/2-y,z
loop_
_atom_site_type_symbol
_atom_site_label
_atom_site_fract_x
_atom_site_fract_y
_atom_site_fract_z
Si Si1 0.552972 0.382616 0.500000
Si Si2 0.119974 0.383353 0.912411
Si Si3 0.206585 0.890911 0.720338
Si Si4 0.549004 0.386549 0.670288
Si Si5 0.696129 0.757038 0.129176
Si Si6 0.140238 0.888544 0.809738
Si Si7 0.923182 0.750000 0.250000
O O1 0.549590 0.500000 0.500000
O O2 0.500000 0.346831 0.500000
O O3 0.584351 0.357670 0.454375
O O4 0.130730 0.500000 0.915791
O O5 0.091393 0.366687 0.864003
O O6 0.164513 0.315044 0.908570
O O7 0.250000 0.857189 0.750000
O O8 0.195641 0.822731 0.676881
O O9 0.168303 0.894978 0.760291
O O10 0.215845 0.000000 0.702276
O O11 0.500000 0.368545 0.645506
O O12 0.551575 0.500000 0.681479
O O13 0.550775 0.328345 0.718885
O O14 0.750000 0.750000 0.115764
O O15 0.671706 0.657955 0.148204
O O16 0.102943 0.811066 0.791676
O O17 0.125989 0.000000 0.821336
#
# Coordination Sequence:
#
# PCOD9511135 Si02
#       7
#    16  32  32  32  32  32  16
#     4   9  18  36  65  94 113 129 158 215 288 354
#     4  10  20  36  57  83 111 137 171 219 279 341
#     4  10  18  28  43  64  95 140 193 237 263 291
#     4  10  20  33  51  76 106 139 174 217 271 331
#     4  12  21  31  47  71 106 145 184 225 266 314
#     4  11  21  30  43  64  97 142 191 233 259 294
#     4  12  19  32  47  68 102 146 185 214 263 316
#
# _framework density 16.989471999999999
#
# number of rings (size 3 to 8) (size 9 to 14) (size 15 to 20)
#    0.000    1.417    5.000    1.750    0.000    5.333 
#    0.000    0.417    0.000    0.000    0.000    0.583 
#    0.000    0.667    0.000    0.000    0.000    0.000 
#
# Total GULP energy -267313.262796 kJ/mol
# GULP energy per Si atom -5569.026308 kJ/mol
# Density = 1.695080 g / cm^3
# Si number density = 16.989472 Si / 1000 Ang^3
#
#
#
# Elastic Constant Matrix: (Units=GPa)
#
#
# Indices 1 2 3 4 5 6 
#
# 1 108.4737 38.8014 31.0143 0.0000 0.0000 0.0000
# 2 38.8014 72.6278 19.4296 0.0000 0.0000 0.0000
# 3 31.0143 19.4296 53.2130 0.0000 0.0000 0.0000
# 4 0.0000 0.0000 0.0000 16.5018 0.0000 0.0000
# 5 0.0000 0.0000 0.0000 0.0000 -3.7498 0.0000
# 6 0.0000 0.0000 0.0000 0.0000 0.0000 16.9814
#
#
#
# Elastic Compliance Matrix: (Units=1/GPa)
#
#
# Indices 1 2 3 4 5 6 
#
# 1 0.012678 -0.005316 -0.005448 0.000000 0.000000 0.000000
# 2 -0.005316 0.017488 -0.003287 0.000000 0.000000 0.000000
# 3 -0.005448 -0.003287 0.023168 0.000000 0.000000 0.000000
# 4 0.000000 0.000000 0.000000 0.060600 0.000000 0.000000
# 5 0.000000 0.000000 0.000000 0.000000 -0.266679 0.000000
# 6 0.000000 0.000000 0.000000 0.000000 0.000000 0.058888
#
#
# Mechanical properties :
#
#
# Convention : Reuss Voigt Hill
#
# Bulk Modulus (GPa) = 39.63245 45.86723 42.74984
# Shear Modulus (GPa) = -87.19322 15.61794 -35.78764
#
# Velocity S-wave (km/s) = -7.17170 3.03524 -4.59460
# Velocity P-wave (km/s) = 6.72306 6.27213 1.71170
#
# Compressibility (1/GPa) = 0.02523185
#
# Stress axis : x y z
#
# Youngs Moduli (GPa) = 78.87673 57.18157 43.16277
#
# Poissons Ratio (x) = 0.30396 0.23516
# Poissons Ratio (y) = 0.41928 0.14189
# Poissons Ratio (z) = 0.42974 0.18797
#
# Static dielectric constant tensor:
#      x y z
#    x 1.602020 0.000000 0.000000 
#    y 0.000000 1.627800 0.000000 
#    z 0.000000 0.000000 1.542300 
# 
# From -- ./inp_files/43993.got.cif
#   From: 2010.05.17/outbox.cif.g08.bks.cpg/sg69_22_cif.got.tgz:43993.got - 2010.06.03 19:29:58.
