data_PCOD9511446
_publ_section_title
;
Structure prediction by ZEFSAII (Michael W. Deem and Ramdas Pophale) SiO2 
 PCOD9511446
Probable space group: F M M M
;
_chemical_formula_sum "Si O2"
_cell_formula_units_Z 176
_cell_length_a 15.711221
_cell_length_b 29.222860
_cell_length_c 18.609074
_cell_angle_alpha 90.000000
_cell_angle_beta 90.000000
_cell_angle_gamma 90.000000
_cell_volume 8543.924815
_symmetry_space_group_name_H-M "F M M M"
_symmetry_group_IT_number 69
_symmetry_cell_setting 'orthorhombic'
loop_
_space_group_symop_operation_xyz
x,y,z
-x,-y,z
x,-y,-z
-x,y,-z
-x,-y,-z
x,y,-z
-x,y,z
x,-y,z
x,1/2+y,1/2+z
-x,1/2-y,1/2+z
x,1/2-y,1/2-z
-x,1/2+y,1/2-z
-x,1/2-y,1/2-z
x,1/2+y,1/2-z
-x,1/2+y,1/2+z
x,1/2-y,1/2+z
1/2+x,y,1/2+z
1/2-x,-y,1/2+z
1/2+x,-y,1/2-z
1/2-x,y,1/2-z
1/2-x,-y,1/2-z
1/2+x,y,1/2-z
1/2-x,y,1/2+z
1/2+x,-y,1/2+z
1/2+x,1/2+y,z
1/2-x,1/2-y,z
1/2+x,1/2-y,-z
1/2-x,1/2+y,-z
1/2-x,1/2-y,-z
1/2+x,1/2+y,-z
1/2-x,1/2+y,z
1/2+x,1/2-y,z
loop_
_atom_site_type_symbol
_atom_site_label
_atom_site_fract_x
_atom_site_fract_y
_atom_site_fract_z
Si Si1 0.897099 0.946175 0.580905
Si Si2 0.658103 0.388392 0.717311
Si Si3 0.601443 0.286993 0.686346
Si Si4 0.598346 0.114101 0.630771
Si Si5 0.395248 0.552229 0.000000
Si Si6 0.396414 0.211489 0.583426
O O1 0.870429 0.931933 0.500000
O O2 0.859813 0.916913 0.645884
O O3 0.000000 0.941938 0.583805
O O4 0.876811 0.000000 0.589258
O O5 0.750000 0.397031 0.750000
O O6 0.645755 0.334882 0.700099
O O7 0.600733 0.400564 0.786619
O O8 0.500000 0.297048 0.680997
O O9 0.611506 0.250000 0.750000
O O10 0.633478 0.258983 0.617371
O O11 0.500000 0.118997 0.609458
O O12 0.633974 0.079246 0.571520
O O13 0.635112 0.165455 0.622818
O O14 0.365558 0.500000 0.000000
O O15 0.500000 0.550604 0.000000
O O16 0.377110 0.207158 0.500000
O O17 0.500000 0.213318 0.591914
#
# Coordination Sequence:
#
# PCOD9511446 Si02
#       6
#    32  32  32  32  16  32
#     4   9  20  43  73  97 119 156 212 273 318 356
#     4  12  25  38  57  91 131 164 199 248 313 387
#     4  10  19  34  57  82 111 154 209 256 297 348
#     4  10  18  34  58  82 115 158 205 251 297 358
#     4   9  18  32  56  90 119 144 185 243 301 362
#     4   9  16  29  53  82 108 147 199 252 305 353
#
# _framework density 20.599432
#
# number of rings (size 3 to 8) (size 9 to 14) (size 15 to 20)
#    0.000    2.091    2.727    2.182    0.000    2.182 
#    1.636    3.636    0.000    1.091    0.000    0.000 
#    0.000    0.000    0.000    0.000    0.000    0.000 
#
# Total GULP energy -245523.288275 kJ/mol
# GULP energy per Si atom -5580.074734 kJ/mol
# Density = 2.055255 g / cm^3
# Si number density = 20.599432 Si / 1000 Ang^3
#
#
#
# Elastic Constant Matrix: (Units=GPa)
#
#
# Indices 1 2 3 4 5 6 
#
# 1 21.0894 22.5359 21.1000 0.0000 0.0000 0.0000
# 2 22.5359 122.3779 97.3152 0.0000 0.0000 0.0000
# 3 21.1000 97.3152 170.4463 0.0000 0.0000 0.0000
# 4 0.0000 0.0000 0.0000 36.8427 0.0000 0.0000
# 5 0.0000 0.0000 0.0000 0.0000 14.0473 0.0000
# 6 0.0000 0.0000 0.0000 0.0000 0.0000 4370.7908
#
#
#
# Elastic Compliance Matrix: (Units=1/GPa)
#
#
# Indices 1 2 3 4 5 6 
#
# 1 0.059415 -0.009327 -0.002030 0.000000 0.000000 0.000000
# 2 -0.009327 0.016431 -0.008226 0.000000 0.000000 0.000000
# 3 -0.002030 -0.008226 0.010815 0.000000 0.000000 0.000000
# 4 0.000000 0.000000 0.000000 0.027142 0.000000 0.000000
# 5 0.000000 0.000000 0.000000 0.000000 0.071188 0.000000
# 6 0.000000 0.000000 0.000000 0.000000 0.000000 0.000229
#
#
# Mechanical properties :
#
#
# Convention : Reuss Voigt Hill
#
# Bulk Modulus (GPa) = 21.05529 66.20176 43.62853
# Shear Modulus (GPa) = 20.81443 895.86698 458.34070
#
# Velocity S-wave (km/s) = 3.18219 20.87685 14.93267
# Velocity P-wave (km/s) = 4.87291 24.76553 17.84764
#
# Compressibility (1/GPa) = 0.04749400
#
# Stress axis : x y z
#
# Youngs Moduli (GPa) = 16.83074 60.86212 92.46426
#
# Poissons Ratio (x) = 0.56767 0.18769
# Poissons Ratio (y) = 0.15698 0.76064
# Poissons Ratio (z) = 0.03416 0.50067
#
# Static dielectric constant tensor:
#      x y z
#    x 1.668010 0.000000 0.000000 
#    y 0.000000 1.721340 0.000000 
#    z 0.000000 0.000000 1.755040 
# 
# From -- ./inp_files/23605.got.cif
#   From: 2010.05.17/outbox.cif.g08.bks.cpg/sg69_12_cif.got.tgz:23605.got - 2010.06.03 19:29:58.
