data_PCOD9511244
_publ_section_title
;
Structure prediction by ZEFSAII (Michael W. Deem and Ramdas Pophale) SiO2 
 PCOD9511244
Probable space group: F M M M
;
_chemical_formula_sum "Si O2"
_cell_formula_units_Z 240
_cell_length_a 26.755259
_cell_length_b 20.063996
_cell_length_c 25.870661
_cell_angle_alpha 90.000000
_cell_angle_beta 90.000000
_cell_angle_gamma 90.000000
_cell_volume 13887.821221
_symmetry_space_group_name_H-M "F M M M"
_symmetry_group_IT_number 69
_symmetry_cell_setting 'orthorhombic'
loop_
_space_group_symop_operation_xyz
x,y,z
-x,-y,z
x,-y,-z
-x,y,-z
-x,-y,-z
x,y,-z
-x,y,z
x,-y,z
x,1/2+y,1/2+z
-x,1/2-y,1/2+z
x,1/2-y,1/2-z
-x,1/2+y,1/2-z
-x,1/2-y,1/2-z
x,1/2+y,1/2-z
-x,1/2+y,1/2+z
x,1/2-y,1/2+z
1/2+x,y,1/2+z
1/2-x,-y,1/2+z
1/2+x,-y,1/2-z
1/2-x,y,1/2-z
1/2-x,-y,1/2-z
1/2+x,y,1/2-z
1/2-x,y,1/2+z
1/2+x,-y,1/2+z
1/2+x,1/2+y,z
1/2-x,1/2-y,z
1/2+x,1/2-y,-z
1/2-x,1/2+y,-z
1/2-x,1/2-y,-z
1/2+x,1/2+y,-z
1/2-x,1/2+y,z
1/2+x,1/2-y,z
loop_
_atom_site_type_symbol
_atom_site_label
_atom_site_fract_x
_atom_site_fract_y
_atom_site_fract_z
Si Si1 0.440393 0.789815 0.441704
Si Si2 0.133640 0.924570 0.680304
Si Si3 0.852535 0.117032 0.209495
Si Si4 0.106277 0.923829 0.902564
Si Si5 0.441145 0.186362 0.147560
Si Si6 0.252342 0.581249 0.334105
Si Si7 0.783051 0.421745 0.444458
Si Si8 0.100106 0.750000 0.250000
O O1 0.420524 0.778369 0.500000
O O2 0.500000 0.783624 0.443856
O O3 0.427774 0.864518 0.423319
O O4 0.424169 0.736478 0.398196
O O5 0.125253 0.923128 0.741982
O O6 0.094590 0.877818 0.651157
O O7 0.190897 0.899311 0.677055
O O8 0.131703 0.000000 0.660788
O O9 0.877891 0.092681 0.156396
O O10 0.793167 0.106118 0.201462
O O11 0.866217 0.192582 0.224107
O O12 0.157563 0.920215 0.935323
O O13 0.087216 0.000000 0.905986
O O14 0.500000 0.170804 0.140863
O O15 0.432842 0.221124 0.203274
O O16 0.249444 0.500000 0.331546
O O17 0.240857 0.605472 0.392312
O O18 0.770001 0.391686 0.500000
O O19 0.768991 0.500000 0.445722
#
# Coordination Sequence:
#
# PCOD9511244 Si02
#       8
#    32  32  32  32  32  32  32  16
#     4  10  21  37  56  76 104 144 183 222 274 331
#     4  10  20  34  54  80 107 139 181 229 280 328
#     4  10  18  31  52  80 112 147 178 214 263 323
#     4  10  18  30  51  79 110 142 179 220 260 317
#     4  10  21  38  57  76 102 139 183 228 277 325
#     4   9  17  30  49  75 111 145 171 213 271 326
#     4   8  14  25  44  70  99 135 172 203 244 304
#     4  10  19  34  57  78 106 144 186 224 260 318
#
# _framework density 17.281327999999998
#
# number of rings (size 3 to 8) (size 9 to 14) (size 15 to 20)
#    0.000    2.400    1.333    3.000    0.000    2.400 
#    0.000    6.667    0.000    2.800    0.000    4.667 
#    0.000    0.000    0.000    0.000    0.000    0.000 
#
# Total GULP energy -334127.879117 kJ/mol
# GULP energy per Si atom -5568.797985 kJ/mol
# Density = 1.724199 g / cm^3
# Si number density = 17.281328 Si / 1000 Ang^3
#
#
#
# Elastic Constant Matrix: (Units=GPa)
#
#
# Indices 1 2 3 4 5 6 
#
# 1 55.6257 38.9452 27.8090 0.0000 0.0000 0.0000
# 2 38.9452 82.5120 37.2405 0.0000 0.0000 0.0000
# 3 27.8090 37.2405 104.6913 0.0000 0.0000 0.0000
# 4 0.0000 0.0000 0.0000 20.2036 0.0000 0.0000
# 5 0.0000 0.0000 0.0000 0.0000 12.4911 0.0000
# 6 0.0000 0.0000 0.0000 0.0000 0.0000 23.4852
#
#
#
# Elastic Compliance Matrix: (Units=1/GPa)
#
#
# Indices 1 2 3 4 5 6 
#
# 1 0.027737 -0.011634 -0.003229 0.000000 0.000000 0.000000
# 2 -0.011634 0.019317 -0.003781 0.000000 0.000000 0.000000
# 3 -0.003229 -0.003781 0.011755 0.000000 0.000000 0.000000
# 4 0.000000 0.000000 0.000000 0.049496 0.000000 0.000000
# 5 0.000000 0.000000 0.000000 0.000000 0.080057 0.000000
# 6 0.000000 0.000000 0.000000 0.000000 0.000000 0.042580
#
#
# Mechanical properties :
#
#
# Convention : Reuss Voigt Hill
#
# Bulk Modulus (GPa) = 46.46873 50.09092 48.27982
# Shear Modulus (GPa) = 18.15508 20.49160 19.32334
#
# Velocity S-wave (km/s) = 3.24475 3.44723 3.34752
# Velocity P-wave (km/s) = 6.40202 6.70023 6.55282
#
# Compressibility (1/GPa) = 0.02151985
#
# Stress axis : x y z
#
# Youngs Moduli (GPa) = 36.05262 51.76702 85.07245
#
# Poissons Ratio (x) = 0.60227 0.27472
# Poissons Ratio (y) = 0.41945 0.32167
# Poissons Ratio (z) = 0.11642 0.19574
#
# Static dielectric constant tensor:
#      x y z
#    x 1.578750 0.000000 0.000000 
#    y 0.000000 1.591300 0.000000 
#    z 0.000000 0.000000 1.626590 
# 
# From -- ./inp_files/38588.got.cif
#   From: 2010.05.17/outbox.cif.g08.bks.cpg/sg69_20_cif.got.tgz:38588.got - 2010.06.03 19:29:58.
