data_PCOD9511059
_publ_section_title
;
Structure prediction by ZEFSAII (Michael W. Deem and Ramdas Pophale) SiO2 
 PCOD9511059
Probable space group: F M M M
;
_chemical_formula_sum "Si O2"
_cell_formula_units_Z 208
_cell_length_a 24.914327
_cell_length_b 28.622373
_cell_length_c 16.813506
_cell_angle_alpha 90.000000
_cell_angle_beta 90.000000
_cell_angle_gamma 90.000000
_cell_volume 11989.831521
_symmetry_space_group_name_H-M "F M M M"
_symmetry_group_IT_number 69
_symmetry_cell_setting 'orthorhombic'
loop_
_space_group_symop_operation_xyz
x,y,z
-x,-y,z
x,-y,-z
-x,y,-z
-x,-y,-z
x,y,-z
-x,y,z
x,-y,z
x,1/2+y,1/2+z
-x,1/2-y,1/2+z
x,1/2-y,1/2-z
-x,1/2+y,1/2-z
-x,1/2-y,1/2-z
x,1/2+y,1/2-z
-x,1/2+y,1/2+z
x,1/2-y,1/2+z
1/2+x,y,1/2+z
1/2-x,-y,1/2+z
1/2+x,-y,1/2-z
1/2-x,y,1/2-z
1/2-x,-y,1/2-z
1/2+x,y,1/2-z
1/2-x,y,1/2+z
1/2+x,-y,1/2+z
1/2+x,1/2+y,z
1/2-x,1/2-y,z
1/2+x,1/2-y,-z
1/2-x,1/2+y,-z
1/2-x,1/2-y,-z
1/2+x,1/2+y,-z
1/2-x,1/2+y,z
1/2+x,1/2-y,z
loop_
_atom_site_type_symbol
_atom_site_label
_atom_site_fract_x
_atom_site_fract_y
_atom_site_fract_z
Si Si1 0.061985 0.500000 0.097098
Si Si2 0.870338 0.909585 0.595650
Si Si3 0.758656 0.446057 0.903301
Si Si4 0.136831 0.554721 0.403609
Si Si5 0.435243 0.234963 0.411560
Si Si6 0.937636 0.862454 0.850062
Si Si7 0.062280 0.328121 0.168616
O O1 0.093883 0.546184 0.123002
O O2 0.000000 0.500000 0.123195
O O3 0.061752 0.500000 0.000000
O O4 0.869287 0.911603 0.500000
O O5 0.809108 0.915747 0.624359
O O6 0.899204 0.862763 0.621902
O O7 0.769095 0.500000 0.880889
O O8 0.698243 0.433914 0.878705
O O9 0.758182 0.444946 0.000000
O O10 0.133282 0.558777 0.500000
O O11 0.126735 0.500000 0.384415
O O12 0.096432 0.591261 0.364733
O O13 0.420929 0.251612 0.500000
O O14 0.500000 0.230659 0.407099
O O15 0.415438 0.182374 0.398156
O O16 0.421093 0.274638 0.347910
O O17 0.936544 0.844173 0.759647
O O18 0.000000 0.871264 0.871928
O O19 0.000000 0.332754 0.141015
#
# Coordination Sequence:
#
# PCOD9511059 Si02
#       7
#    16  32  32  32  32  32  32
#     4   9  16  24  38  64  95 128 164 202 239 276
#     4  10  17  28  47  69  97 132 170 207 240 285
#     4   8  14  28  49  71  93 123 167 214 254 287
#     4   9  18  33  54  76  97 125 166 213 254 297
#     4   9  17  31  53  76  96 124 166 208 244 294
#     4  10  20  34  50  72 103 135 162 198 255 307
#     4  10  20  32  46  71 105 137 163 195 243 298
#
# _framework density 17.348033000000001
#
# number of rings (size 3 to 8) (size 9 to 14) (size 15 to 20)
#    0.000    2.692    0.769    2.769    0.000    4.615 
#    1.385    1.538    0.000    2.769    0.000    6.462 
#    0.000    0.000    0.000    0.000    0.000    0.000 
#
# Total GULP energy -289720.438043 kJ/mol
# GULP energy per Si atom -5571.546885 kJ/mol
# Density = 1.730855 g / cm^3
# Si number density = 17.348033 Si / 1000 Ang^3
#
#
#
# Elastic Constant Matrix: (Units=GPa)
#
#
# Indices 1 2 3 4 5 6 
#
# 1 96.7111 67.8169 23.5146 0.0000 0.0000 0.0000
# 2 67.8169 112.2367 25.4259 0.0000 0.0000 0.0000
# 3 23.5146 25.4259 19.5748 0.0000 0.0000 0.0000
# 4 0.0000 0.0000 0.0000 4.0549 0.0000 0.0000
# 5 0.0000 0.0000 0.0000 0.0000 11.3768 0.0000
# 6 0.0000 0.0000 0.0000 0.0000 0.0000 11.7764
#
#
#
# Elastic Compliance Matrix: (Units=1/GPa)
#
#
# Indices 1 2 3 4 5 6 
#
# 1 0.019637 -0.009240 -0.011587 0.000000 0.000000 0.000000
# 2 -0.009240 0.016973 -0.010946 0.000000 0.000000 0.000000
# 3 -0.011587 -0.010946 0.079223 0.000000 0.000000 0.000000
# 4 0.000000 0.000000 0.000000 0.246615 0.000000 0.000000
# 5 0.000000 0.000000 0.000000 0.000000 0.087898 0.000000
# 6 0.000000 0.000000 0.000000 0.000000 0.000000 0.084916
#
#
# Mechanical properties :
#
#
# Convention : Reuss Voigt Hill
#
# Bulk Modulus (GPa) = 19.12550 51.33749 35.23149
# Shear Modulus (GPa) = 8.11378 12.89264 10.50321
#
# Velocity S-wave (km/s) = 2.16500 2.72908 2.46324
# Velocity P-wave (km/s) = 4.15910 6.29186 5.33318
#
# Compressibility (1/GPa) = 0.05228623
#
# Stress axis : x y z
#
# Youngs Moduli (GPa) = 50.92429 58.91798 12.62266
#
# Poissons Ratio (x) = 0.54443 0.14626
# Poissons Ratio (y) = 0.47056 0.13817
# Poissons Ratio (z) = 0.59005 0.64491
#
# Static dielectric constant tensor:
#      x y z
#    x 1.583690 0.000000 0.000000 
#    y 0.000000 1.579330 0.000000 
#    z 0.000000 0.000000 1.631410 
# 
# From -- ./inp_files/26125.got.cif
#   From: 2010.05.17/outbox.cif.g08.bks.cpg/sg69_14_cif.got.tgz:26125.got - 2010.06.03 19:29:58.
