data_PCOD9511647
_publ_section_title
;
Structure prediction by ZEFSAII (Michael W. Deem and Ramdas Pophale) SiO2 
 PCOD9511647
Probable space group: F M M M
;
_chemical_formula_sum "Si O2"
_cell_formula_units_Z 160
_cell_length_a 32.719600
_cell_length_b 15.174475
_cell_length_c 14.501587
_cell_angle_alpha 90.000000
_cell_angle_beta 90.000000
_cell_angle_gamma 90.000000
_cell_volume 7200.077857
_symmetry_space_group_name_H-M "F M M M"
_symmetry_group_IT_number 69
_symmetry_cell_setting 'orthorhombic'
loop_
_space_group_symop_operation_xyz
x,y,z
-x,-y,z
x,-y,-z
-x,y,-z
-x,-y,-z
x,y,-z
-x,y,z
x,-y,z
x,1/2+y,1/2+z
-x,1/2-y,1/2+z
x,1/2-y,1/2-z
-x,1/2+y,1/2-z
-x,1/2-y,1/2-z
x,1/2+y,1/2-z
-x,1/2+y,1/2+z
x,1/2-y,1/2+z
1/2+x,y,1/2+z
1/2-x,-y,1/2+z
1/2+x,-y,1/2-z
1/2-x,y,1/2-z
1/2-x,-y,1/2-z
1/2+x,y,1/2-z
1/2-x,y,1/2+z
1/2+x,-y,1/2+z
1/2+x,1/2+y,z
1/2-x,1/2-y,z
1/2+x,1/2-y,-z
1/2-x,1/2+y,-z
1/2-x,1/2-y,-z
1/2+x,1/2+y,-z
1/2-x,1/2+y,z
1/2+x,1/2-y,z
loop_
_atom_site_type_symbol
_atom_site_label
_atom_site_fract_x
_atom_site_fract_y
_atom_site_fract_z
Si Si1 0.242651 0.000000 0.887085
Si Si2 0.864214 0.687539 0.107961
Si Si3 0.318145 0.853578 0.391271
Si Si4 0.112370 0.500000 0.603833
Si Si5 0.837983 0.000000 0.387752
Si Si6 0.955166 0.193031 0.343278
Si Si7 0.045189 0.000000 0.260412
O O1 0.218983 0.087575 0.853474
O O2 0.290149 0.000000 0.865872
O O3 0.239019 0.000000 0.000000
O O4 0.833135 0.760221 0.146722
O O5 0.857689 0.590162 0.148834
O O6 0.911599 0.715801 0.112512
O O7 0.854157 0.680260 0.000000
O O8 0.308493 0.839870 0.500000
O O9 0.357757 0.916417 0.387516
O O10 0.095035 0.500000 0.500000
O O11 0.078566 0.500000 0.681374
O O12 0.842708 0.000000 0.500000
O O13 0.955945 0.250000 0.250000
O O14 0.952477 0.088938 0.320278
O O15 0.000000 0.207995 0.388390
O O16 0.000000 0.000000 0.216930
#
# Coordination Sequence:
#
# PCOD9511647 Si02
#       7
#    16  32  32  16  16  32  16
#     4   8  14  27  45  71 105 132 155 196 254 299
#     4  10  19  32  50  74 101 130 167 208 246 286
#     4   8  15  27  46  71  98 126 158 201 251 296
#     4   9  16  29  49  74  99 123 160 208 253 297
#     4   9  18  29  45  73 105 132 165 204 237 284
#     4  10  21  36  52  72  99 131 168 206 246 298
#     4  10  20  33  49  70  98 132 167 203 246 297
#
# _framework density 22.221982000000001
#
# number of rings (size 3 to 8) (size 9 to 14) (size 15 to 20)
#    0.000    2.800    0.000    3.000    0.000    1.400 
#    0.000    4.000    0.000   10.800    0.000   32.200 
#    0.000    0.000    0.000    0.000    0.000    0.000 
#
# Total GULP energy -223164.608837 kJ/mol
# GULP energy per Si atom -5579.115221 kJ/mol
# Density = 2.217140 g / cm^3
# Si number density = 22.221982 Si / 1000 Ang^3
#
#
#
# Elastic Constant Matrix: (Units=GPa)
#
#
# Indices 1 2 3 4 5 6 
#
# 1 117.9068 26.6769 -2.8112 0.0000 0.0000 0.0000
# 2 26.6769 126.5047 2.8529 0.0000 0.0000 0.0000
# 3 -2.8112 2.8529 45.5558 0.0000 0.0000 0.0000
# 4 0.0000 0.0000 0.0000 2.2474 0.0000 0.0000
# 5 0.0000 0.0000 0.0000 0.0000 31.8955 0.0000
# 6 0.0000 0.0000 0.0000 0.0000 0.0000 22.7584
#
#
#
# Elastic Compliance Matrix: (Units=1/GPa)
#
#
# Indices 1 2 3 4 5 6 
#
# 1 0.008927 -0.001898 0.000670 0.000000 0.000000 0.000000
# 2 -0.001898 0.008319 -0.000638 0.000000 0.000000 0.000000
# 3 0.000670 -0.000638 0.022032 0.000000 0.000000 0.000000
# 4 0.000000 0.000000 0.000000 0.444952 0.000000 0.000000
# 5 0.000000 0.000000 0.000000 0.000000 0.031352 0.000000
# 6 0.000000 0.000000 0.000000 0.000000 0.000000 0.043940
#
#
# Mechanical properties :
#
#
# Convention : Reuss Voigt Hill
#
# Bulk Modulus (GPa) = 28.13218 38.15607 33.14413
# Shear Modulus (GPa) = 8.69409 28.93020 18.81215
#
# Velocity S-wave (km/s) = 1.98012 3.61206 2.91272
# Velocity P-wave (km/s) = 4.23260 5.88249 5.12438
#
# Compressibility (1/GPa) = 0.03554648
#
# Stress axis : x y z
#
# Youngs Moduli (GPa) = 112.02526 120.20137 45.38771
#
# Poissons Ratio (x) = 0.22808 -0.03039
# Poissons Ratio (y) = 0.21257 0.02896
# Poissons Ratio (z) = -0.07502 0.07670
#
# Static dielectric constant tensor:
#      x y z
#    x 1.798950 0.000000 0.000000 
#    y 0.000000 1.867800 0.000000 
#    z 0.000000 0.000000 1.834370 
# 
# From -- ./inp_files/27545.got.cif
#   From: 2010.05.17/outbox.cif.g08.bks.cpg/sg69_14_cif.got.tgz:27545.got - 2010.06.03 19:29:58.
