data_PCOD9511225
_publ_section_title
;
Structure prediction by ZEFSAII (Michael W. Deem and Ramdas Pophale) SiO2 
 PCOD9511225
Probable space group: F M M M
;
_chemical_formula_sum "Si O2"
_cell_formula_units_Z 240
_cell_length_a 21.126743
_cell_length_b 31.571791
_cell_length_c 23.842529
_cell_angle_alpha 90.000000
_cell_angle_beta 90.000000
_cell_angle_gamma 90.000000
_cell_volume 15903.184156
_symmetry_space_group_name_H-M "F M M M"
_symmetry_group_IT_number 69
_symmetry_cell_setting 'orthorhombic'
loop_
_space_group_symop_operation_xyz
x,y,z
-x,-y,z
x,-y,-z
-x,y,-z
-x,-y,-z
x,y,-z
-x,y,z
x,-y,z
x,1/2+y,1/2+z
-x,1/2-y,1/2+z
x,1/2-y,1/2-z
-x,1/2+y,1/2-z
-x,1/2-y,1/2-z
x,1/2+y,1/2-z
-x,1/2+y,1/2+z
x,1/2-y,1/2+z
1/2+x,y,1/2+z
1/2-x,-y,1/2+z
1/2+x,-y,1/2-z
1/2-x,y,1/2-z
1/2-x,-y,1/2-z
1/2+x,y,1/2-z
1/2-x,y,1/2+z
1/2+x,-y,1/2+z
1/2+x,1/2+y,z
1/2-x,1/2-y,z
1/2+x,1/2-y,-z
1/2-x,1/2+y,-z
1/2-x,1/2-y,-z
1/2+x,1/2+y,-z
1/2-x,1/2+y,z
1/2+x,1/2-y,z
loop_
_atom_site_type_symbol
_atom_site_label
_atom_site_fract_x
_atom_site_fract_y
_atom_site_fract_z
Si Si1 0.293369 0.207964 0.934374
Si Si2 0.768995 0.133880 0.345196
Si Si3 0.927555 0.186470 0.392795
Si Si4 0.074360 0.549595 0.774124
Si Si5 0.381603 0.910463 0.889287
Si Si6 0.847671 0.873091 0.229545
Si Si7 0.426847 0.204113 0.759738
Si Si8 0.928711 0.049948 0.500000
O O1 0.250000 0.250000 0.927476
O O2 0.271894 0.173627 0.887491
O O3 0.369462 0.211274 0.922433
O O4 0.286307 0.194481 0.000000
O O5 0.807814 0.096806 0.375803
O O6 0.809175 0.138167 0.287115
O O7 0.699423 0.124813 0.322645
O O8 0.911622 0.136408 0.397040
O O9 0.925050 0.195570 0.326237
O O10 0.000000 0.194708 0.412064
O O11 0.091564 0.500000 0.768181
O O12 0.085660 0.565241 0.837882
O O13 0.116170 0.582739 0.738917
O O14 0.000000 0.554144 0.760981
O O15 0.392961 0.935234 0.945370
O O16 0.894955 0.833777 0.226162
O O17 0.500000 0.206057 0.742239
O O18 0.396492 0.250000 0.750000
O O19 0.000000 0.068199 0.500000
O O20 0.933589 0.000000 0.500000
#
# Coordination Sequence:
#
# PCOD9511225 Si02
#       8
#    32  32  32  32  32  32  32  16
#     4  10  21  35  49  70  98 131 172 210 248 295
#     4   9  20  32  49  68  92 131 169 198 244 288
#     4  10  19  33  51  74 100 129 168 206 250 305
#     4  10  18  30  50  72  98 130 159 198 252 301
#     4  10  19  33  47  69 101 134 166 205 242 292
#     4  10  18  33  49  71  98 127 165 206 237 301
#     4  10  19  30  48  75 102 128 158 207 256 296
#     4  11  22  32  48  76 101 128 171 209 244 295
#
# _framework density 15.091317999999999
#
# number of rings (size 3 to 8) (size 9 to 14) (size 15 to 20)
#    0.000    2.067    4.000    2.000    5.600    1.333 
#    0.000    7.333    0.000    0.000    0.000    0.000 
#    0.000    0.000    0.000    1.467    0.000    0.000 
#
# Total GULP energy -334056.489855 kJ/mol
# GULP energy per Si atom -5567.608164 kJ/mol
# Density = 1.505697 g / cm^3
# Si number density = 15.091318 Si / 1000 Ang^3
#
#
#
# Elastic Constant Matrix: (Units=GPa)
#
#
# Indices 1 2 3 4 5 6 
#
# 1 107.6691 59.1274 48.7189 0.0000 0.0000 0.0000
# 2 59.1274 95.0037 30.7479 0.0000 0.0000 0.0000
# 3 48.7189 30.7479 65.9926 0.0000 0.0000 0.0000
# 4 0.0000 0.0000 0.0000 -2.6931 0.0000 0.0000
# 5 0.0000 0.0000 0.0000 0.0000 22.2636 0.0000
# 6 0.0000 0.0000 0.0000 0.0000 0.0000 43.3368
#
#
#
# Elastic Compliance Matrix: (Units=1/GPa)
#
#
# Indices 1 2 3 4 5 6 
#
# 1 0.018098 -0.008172 -0.009553 0.000000 0.000000 0.000000
# 2 -0.008172 0.016085 -0.001462 0.000000 0.000000 0.000000
# 3 -0.009553 -0.001462 0.022887 0.000000 0.000000 0.000000
# 4 0.000000 0.000000 0.000000 -0.371315 0.000000 0.000000
# 5 0.000000 0.000000 0.000000 0.000000 0.044916 0.000000
# 6 0.000000 0.000000 0.000000 0.000000 0.000000 0.023075
#
#
# Mechanical properties :
#
#
# Convention : Reuss Voigt Hill
#
# Bulk Modulus (GPa) = 53.48634 60.65041 57.06837
# Shear Modulus (GPa) = -24.79567 21.25287 -1.77140
#
# Velocity S-wave (km/s) = -4.05784 3.75678 -1.08459
# Velocity P-wave (km/s) = 3.68293 7.68727 6.02736
#
# Compressibility (1/GPa) = 0.01869636
#
# Stress axis : x y z
#
# Youngs Moduli (GPa) = 55.25429 62.17040 43.69287
#
# Poissons Ratio (x) = 0.50804 0.41742
# Poissons Ratio (y) = 0.45153 0.06386
# Poissons Ratio (z) = 0.52787 0.09087
#
# Static dielectric constant tensor:
#      x y z
#    x 1.532270 0.000000 0.000000 
#    y 0.000000 1.502490 0.000000 
#    z 0.000000 0.000000 1.507750 
# 
# From -- ./inp_files/37537.got.cif
#   From: 2010.05.17/outbox.cif.g08.bks.cpg/sg69_19_cif.got.tgz:37537.got - 2010.06.03 19:29:58.
