data_PCOD9511289
_publ_section_title
;
Structure prediction by ZEFSAII (Michael W. Deem and Ramdas Pophale) SiO2 
 PCOD9511289
Probable space group: F M M M
;
_chemical_formula_sum "Si O2"
_cell_formula_units_Z 132
_cell_length_a 34.139338
_cell_length_b 26.367002
_cell_length_c 7.968356
_cell_angle_alpha 90.000000
_cell_angle_beta 90.000000
_cell_angle_gamma 90.000000
_cell_volume 7172.731537
_symmetry_space_group_name_H-M "F M M M"
_symmetry_group_IT_number 69
_symmetry_cell_setting 'orthorhombic'
loop_
_space_group_symop_operation_xyz
x,y,z
-x,-y,z
x,-y,-z
-x,y,-z
-x,-y,-z
x,y,-z
-x,y,z
x,-y,z
x,1/2+y,1/2+z
-x,1/2-y,1/2+z
x,1/2-y,1/2-z
-x,1/2+y,1/2-z
-x,1/2-y,1/2-z
x,1/2+y,1/2-z
-x,1/2+y,1/2+z
x,1/2-y,1/2+z
1/2+x,y,1/2+z
1/2-x,-y,1/2+z
1/2+x,-y,1/2-z
1/2-x,y,1/2-z
1/2-x,-y,1/2-z
1/2+x,y,1/2-z
1/2-x,y,1/2+z
1/2+x,-y,1/2+z
1/2+x,1/2+y,z
1/2-x,1/2-y,z
1/2+x,1/2-y,-z
1/2-x,1/2+y,-z
1/2-x,1/2-y,-z
1/2+x,1/2+y,-z
1/2-x,1/2+y,z
1/2+x,1/2-y,z
loop_
_atom_site_type_symbol
_atom_site_label
_atom_site_fract_x
_atom_site_fract_y
_atom_site_fract_z
Si Si1 0.500000 0.309101 0.300663
Si Si2 0.567120 0.500000 0.304566
Si Si3 0.292161 0.441589 0.700502
Si Si4 0.584670 0.308597 0.196086
Si Si5 0.500000 0.000000 0.500000
Si Si6 0.377060 0.092129 0.699873
O O1 0.500000 0.313477 0.500000
O O2 0.500000 0.250000 0.250000
O O3 0.540586 0.328838 0.229237
O O4 0.552364 0.500000 0.500000
O O5 0.534673 0.500000 0.153731
O O6 0.595563 0.451007 0.281094
O O7 0.295024 0.441548 0.500000
O O8 0.292155 0.500000 0.761365
O O9 0.250000 0.419056 0.750000
O O10 0.331292 0.417266 0.771928
O O11 0.587936 0.250000 0.250000
O O12 0.612308 0.351963 0.268745
O O13 0.591429 0.306687 0.000000
O O14 0.385012 0.090180 0.500000
#
# Coordination Sequence:
#
# PCOD9511289 Si02
#       6
#    16  16  32  32   4  32
#     4  10  18  31  52  75 104 138 187 247 293 335
#     4  12  25  43  66  89 120 170 214 252 310 363
#     4  10  20  34  57  89 119 153 195 242 302 367
#     4  10  21  36  57  82 113 153 198 249 306 353
#     4  12  26  48  60  86 136 164 214 260 296 372
#     4  11  22  39  61  87 125 161 198 256 308 359
#
# _framework density 18.403032
#
# number of rings (size 3 to 8) (size 9 to 14) (size 15 to 20)
#    0.000    1.455    2.424    4.909    0.000    5.818 
#    0.000    0.000    0.000    0.727    0.000    5.091 
#    0.000    0.000    0.000    0.000    0.000    0.000 
#
# Total GULP energy -183718.714220 kJ/mol
# GULP energy per Si atom -5567.233764 kJ/mol
# Density = 1.836115 g / cm^3
# Si number density = 18.403032 Si / 1000 Ang^3
#
#
#
# Elastic Constant Matrix: (Units=GPa)
#
#
# Indices 1 2 3 4 5 6 
#
# 1 135.6196 66.3839 12.3046 -0.0033 0.0027 0.0001
# 2 66.3839 100.0318 25.8309 -0.0063 0.0028 0.0001
# 3 12.3046 25.8309 71.6208 -0.0042 0.0027 0.0007
# 4 -0.0033 -0.0063 -0.0042 11.3645 0.0033 0.0002
# 5 0.0027 0.0028 0.0027 0.0033 31.5266 0.0001
# 6 0.0001 0.0001 0.0007 0.0002 0.0001 30.4654
#
#
#
# Elastic Compliance Matrix: (Units=1/GPa)
#
#
# Indices 1 2 3 4 5 6 
#
# 1 0.010964 -0.007487 0.000817 -0.000001 0.000000 0.000000
# 2 -0.007487 0.016136 -0.004533 0.000005 0.000000 0.000000
# 3 0.000817 -0.004533 0.015457 0.000004 -0.000001 0.000000
# 4 -0.000001 0.000005 0.000004 0.087994 -0.000009 -0.000001
# 5 0.000000 0.000000 -0.000001 -0.000009 0.031719 0.000000
# 6 0.000000 0.000000 0.000000 -0.000001 0.000000 0.032824
#
#
# Mechanical properties :
#
#
# Convention : Reuss Voigt Hill
#
# Bulk Modulus (GPa) = 49.62817 57.36789 53.49803
# Shear Modulus (GPa) = 22.29964 28.18815 25.24389
#
# Velocity S-wave (km/s) = 3.48478 3.91796 3.70770
# Velocity P-wave (km/s) = 6.57400 7.19082 6.88932
#
# Compressibility (1/GPa) = 0.02014985
#
# Stress axis : x y z
#
# Youngs Moduli (GPa) = 91.20508 61.97282 64.69502
#
# Poissons Ratio (x) = 0.46400 -0.05283
# Poissons Ratio (y) = 0.68286 0.29329
# Poissons Ratio (z) = -0.07448 0.28095
#
# Static dielectric constant tensor:
#      x y z
#    x 1.644750 0.000000 0.000000 
#    y 0.000000 1.674520 0.000000 
#    z 0.000000 0.000000 1.648160 
# 
# From -- ./inp_files/5387.got.cif
#   From: 2010.05.17/outbox.cif.g08.bks.cpg/sg69_3_cif.got.tgz:5387.got - 2010.06.03 19:29:58.
