data_PCOD9511447
_publ_section_title
;
Structure prediction by ZEFSAII (Michael W. Deem and Ramdas Pophale) SiO2 
 PCOD9511447
Probable space group: F M M M
;
_chemical_formula_sum "Si O2"
_cell_formula_units_Z 144
_cell_length_a 18.454017
_cell_length_b 26.214052
_cell_length_c 14.604900
_cell_angle_alpha 90.000000
_cell_angle_beta 90.000000
_cell_angle_gamma 90.000000
_cell_volume 7065.186992
_symmetry_space_group_name_H-M "F M M M"
_symmetry_group_IT_number 69
_symmetry_cell_setting 'orthorhombic'
loop_
_space_group_symop_operation_xyz
x,y,z
-x,-y,z
x,-y,-z
-x,y,-z
-x,-y,-z
x,y,-z
-x,y,z
x,-y,z
x,1/2+y,1/2+z
-x,1/2-y,1/2+z
x,1/2-y,1/2-z
-x,1/2+y,1/2-z
-x,1/2-y,1/2-z
x,1/2+y,1/2-z
-x,1/2+y,1/2+z
x,1/2-y,1/2+z
1/2+x,y,1/2+z
1/2-x,-y,1/2+z
1/2+x,-y,1/2-z
1/2-x,y,1/2-z
1/2-x,-y,1/2-z
1/2+x,y,1/2-z
1/2-x,y,1/2+z
1/2+x,-y,1/2+z
1/2+x,1/2+y,z
1/2-x,1/2-y,z
1/2+x,1/2-y,-z
1/2-x,1/2+y,-z
1/2-x,1/2-y,-z
1/2+x,1/2+y,-z
1/2-x,1/2+y,z
1/2+x,1/2-y,z
loop_
_atom_site_type_symbol
_atom_site_label
_atom_site_fract_x
_atom_site_fract_y
_atom_site_fract_z
Si Si1 0.856973 0.836466 0.603202
Si Si2 0.000000 0.807683 0.717013
Si Si3 0.583634 0.555783 0.374450
Si Si4 0.000000 0.377849 0.599247
Si Si5 0.750000 0.132615 0.750000
Si Si6 0.370634 0.058483 0.667723
O O1 0.847137 0.815766 0.500000
O O2 0.929789 0.817952 0.654062
O O3 0.868693 0.897431 0.594693
O O4 0.792732 0.832768 0.676817
O O5 0.000000 0.750000 0.750000
O O6 0.000000 0.842746 0.809080
O O7 0.500000 0.563231 0.400429
O O8 0.608182 0.500000 0.404031
O O9 0.588214 0.555374 0.264981
O O10 0.071610 0.413158 0.604248
O O11 0.000000 0.350536 0.500000
O O12 0.697122 0.095053 0.691819
O O13 0.351885 0.000000 0.640839
#
# Coordination Sequence:
#
# PCOD9511447 Si02
#       6
#    32  16  32  16  16  32
#     4  11  22  41  68  96 129 170 212 257 319 384
#     4  12  25  48  73  93 119 152 215 292 341 378
#     4   9  15  28  55  88 124 162 204 256 306 358
#     4  12  23  39  64  93 126 168 217 274 331 383
#     4  10  21  38  61  96 140 178 205 258 309 374
#     4  10  18  34  58  90 132 179 219 250 300 374
#
# _framework density 20.381627000000002
#
# number of rings (size 3 to 8) (size 9 to 14) (size 15 to 20)
#    0.000    1.556    6.667    1.000    0.000    4.000 
#    0.000    1.667    0.000    1.333    0.000    0.000 
#    0.000    0.000    0.000    0.000    0.000    0.000 
#
# Total GULP energy -200722.453147 kJ/mol
# GULP energy per Si atom -5575.623699 kJ/mol
# Density = 2.033524 g / cm^3
# Si number density = 20.381627 Si / 1000 Ang^3
#
#
#
# Elastic Constant Matrix: (Units=GPa)
#
#
# Indices 1 2 3 4 5 6 
#
# 1 119.6916 16.9724 57.7014 0.0000 0.0000 0.0000
# 2 16.9724 49.8467 35.4239 0.0000 0.0000 0.0000
# 3 57.7014 35.4239 167.0081 0.0000 0.0000 0.0000
# 4 0.0000 0.0000 0.0000 -6.3964 0.0000 0.0000
# 5 0.0000 0.0000 0.0000 0.0000 92.2771 0.0000
# 6 0.0000 0.0000 0.0000 0.0000 0.0000 -6.0208
#
#
#
# Elastic Compliance Matrix: (Units=1/GPa)
#
#
# Indices 1 2 3 4 5 6 
#
# 1 0.010078 -0.001127 -0.003243 0.000000 0.000000 0.000000
# 2 -0.001127 0.023748 -0.004648 0.000000 0.000000 0.000000
# 3 -0.003243 -0.004648 0.008094 0.000000 0.000000 0.000000
# 4 0.000000 0.000000 0.000000 -0.156338 0.000000 0.000000
# 5 0.000000 0.000000 0.000000 0.000000 0.010837 0.000000
# 6 0.000000 0.000000 0.000000 0.000000 0.000000 -0.166091
#
#
# Mechanical properties :
#
#
# Convention : Reuss Voigt Hill
#
# Bulk Modulus (GPa) = 41.86745 61.86019 51.86382
# Shear Modulus (GPa) = -20.51914 31.06857 5.27472
#
# Velocity S-wave (km/s) = -3.17637 3.90852 1.61046
# Velocity P-wave (km/s) = 2.67094 7.12640 5.38142
#
# Compressibility (1/GPa) = 0.02388491
#
# Stress axis : x y z
#
# Youngs Moduli (GPa) = 99.22649 42.10838 123.54799
#
# Poissons Ratio (x) = 0.04745 0.40066
# Poissons Ratio (y) = 0.11181 0.57424
# Poissons Ratio (z) = 0.32178 0.19571
#
# Static dielectric constant tensor:
#      x y z
#    x 1.729540 0.000000 0.000000 
#    y 0.000000 1.721190 0.000000 
#    z 0.000000 0.000000 1.254250 
# 
# From -- ./inp_files/15621.got.cif
#   From: 2010.05.17/outbox.cif.g08.bks.cpg/sg69_8_cif.got.tgz:15621.got - 2010.06.03 19:29:58.
