data_PCOD9511816
_publ_section_title
;
Structure prediction by ZEFSAII (Michael W. Deem and Ramdas Pophale) SiO2 
 PCOD9511816
Probable space group: F M M M
;
_chemical_formula_sum "Si O2"
_cell_formula_units_Z 160
_cell_length_a 18.687323
_cell_length_b 18.952878
_cell_length_c 25.812628
_cell_angle_alpha 90.000000
_cell_angle_beta 90.000000
_cell_angle_gamma 90.000000
_cell_volume 9142.279233
_symmetry_space_group_name_H-M "F M M M"
_symmetry_group_IT_number 69
_symmetry_cell_setting 'orthorhombic'
loop_
_space_group_symop_operation_xyz
x,y,z
-x,-y,z
x,-y,-z
-x,y,-z
-x,-y,-z
x,y,-z
-x,y,z
x,-y,z
x,1/2+y,1/2+z
-x,1/2-y,1/2+z
x,1/2-y,1/2-z
-x,1/2+y,1/2-z
-x,1/2-y,1/2-z
x,1/2+y,1/2-z
-x,1/2+y,1/2+z
x,1/2-y,1/2+z
1/2+x,y,1/2+z
1/2-x,-y,1/2+z
1/2+x,-y,1/2-z
1/2-x,y,1/2-z
1/2-x,-y,1/2-z
1/2+x,y,1/2-z
1/2-x,y,1/2+z
1/2+x,-y,1/2+z
1/2+x,1/2+y,z
1/2-x,1/2-y,z
1/2+x,1/2-y,-z
1/2-x,1/2+y,-z
1/2-x,1/2-y,-z
1/2+x,1/2+y,-z
1/2-x,1/2+y,z
1/2+x,1/2-y,z
loop_
_atom_site_type_symbol
_atom_site_label
_atom_site_fract_x
_atom_site_fract_y
_atom_site_fract_z
Si Si1 0.084769 0.191272 0.350945
Si Si2 0.587113 0.579670 0.263466
Si Si3 0.301681 0.183459 0.059821
Si Si4 0.584742 0.856174 0.344730
Si Si5 0.171550 0.915893 0.059071
O O1 0.108278 0.137345 0.306045
O O2 0.132199 0.180422 0.401721
O O3 0.093997 0.272847 0.334692
O O4 0.000000 0.180453 0.360656
O O5 0.500000 0.580778 0.262466
O O6 0.609865 0.500000 0.276034
O O7 0.610648 0.601745 0.205872
O O8 0.250000 0.250000 0.072355
O O9 0.251341 0.115021 0.064235
O O10 0.324164 0.191877 0.000000
O O11 0.500000 0.869446 0.351031
O O12 0.624146 0.879882 0.396768
O O13 0.169559 0.000000 0.064747
O O14 0.147924 0.898053 0.000000
#
# Coordination Sequence:
#
# PCOD9511816 Si02
#       5
#    32  32  32  32  32
#     4  10  20  34  57  85 109 139 183 228 268 319
#     4   9  18  33  53  78 110 146 181 223 276 324
#     4  10  20  37  57  77 107 146 181 216 266 324
#     4  10  19  33  55  82 112 146 183 223 269 326
#     4  10  21  36  55  80 110 146 184 223 272 328
#
# _framework density 17.501106
#
# number of rings (size 3 to 8) (size 9 to 14) (size 15 to 20)
#    0.000    2.200    2.000    1.200    0.000    5.200 
#    0.000    4.000    0.000    2.400    0.000    5.600 
#    0.000    0.000    0.000    0.000    0.000    0.000 
#
# Total GULP energy -223106.376787 kJ/mol
# GULP energy per Si atom -5577.659420 kJ/mol
# Density = 1.746127 g / cm^3
# Si number density = 17.501106 Si / 1000 Ang^3
#
#
#
# Elastic Constant Matrix: (Units=GPa)
#
#
# Indices 1 2 3 4 5 6 
#
# 1 30.4954 31.7291 43.8415 0.0000 0.0000 0.0000
# 2 31.7291 102.5907 62.0702 0.0000 0.0000 0.0000
# 3 43.8415 62.0702 113.9931 0.0000 0.0000 0.0000
# 4 0.0000 0.0000 0.0000 26.9903 0.0000 0.0000
# 5 0.0000 0.0000 0.0000 0.0000 233.5553 0.0000
# 6 0.0000 0.0000 0.0000 0.0000 0.0000 18.9294
#
#
#
# Elastic Compliance Matrix: (Units=1/GPa)
#
#
# Indices 1 2 3 4 5 6 
#
# 1 0.078513 -0.008967 -0.025313 0.000000 0.000000 0.000000
# 2 -0.008967 0.015561 -0.005024 0.000000 0.000000 0.000000
# 3 -0.025313 -0.005024 0.021244 0.000000 0.000000 0.000000
# 4 0.000000 0.000000 0.000000 0.037050 0.000000 0.000000
# 5 0.000000 0.000000 0.000000 0.000000 0.004282 0.000000
# 6 0.000000 0.000000 0.000000 0.000000 0.000000 0.052828
#
#
# Mechanical properties :
#
#
# Convention : Reuss Voigt Hill
#
# Bulk Modulus (GPa) = 27.24188 58.04011 42.64099
# Shear Modulus (GPa) = 16.64874 63.19087 39.91981
#
# Velocity S-wave (km/s) = 3.08766 6.01541 4.78115
# Velocity P-wave (km/s) = 5.32082 9.02677 7.40924
#
# Compressibility (1/GPa) = 0.03670819
#
# Stress axis : x y z
#
# Youngs Moduli (GPa) = 12.73668 64.26507 47.07307
#
# Poissons Ratio (x) = 0.57628 1.19158
# Poissons Ratio (y) = 0.11421 0.23650
# Poissons Ratio (z) = 0.32241 0.32287
#
# Static dielectric constant tensor:
#      x y z
#    x 1.571340 0.000000 0.000000 
#    y 0.000000 1.609860 0.000000 
#    z 0.000000 0.000000 1.580430 
# 
# From -- ./inp_files/23108.got.cif
#   From: 2010.05.17/outbox.cif.g08.bks.cpg/sg69_12_cif.got.tgz:23108.got - 2010.06.03 19:29:58.
