data_PCOD9511183
_publ_section_title
;
Structure prediction by ZEFSAII (Michael W. Deem and Ramdas Pophale) SiO2 
 PCOD9511183
Probable space group: F M M M
;
_chemical_formula_sum "Si O2"
_cell_formula_units_Z 176
_cell_length_a 27.398213
_cell_length_b 17.588161
_cell_length_c 17.532254
_cell_angle_alpha 90.000000
_cell_angle_beta 90.000000
_cell_angle_gamma 90.000000
_cell_volume 8448.515866
_symmetry_space_group_name_H-M "F M M M"
_symmetry_group_IT_number 69
_symmetry_cell_setting 'orthorhombic'
loop_
_space_group_symop_operation_xyz
x,y,z
-x,-y,z
x,-y,-z
-x,y,-z
-x,-y,-z
x,y,-z
-x,y,z
x,-y,z
x,1/2+y,1/2+z
-x,1/2-y,1/2+z
x,1/2-y,1/2-z
-x,1/2+y,1/2-z
-x,1/2-y,1/2-z
x,1/2+y,1/2-z
-x,1/2+y,1/2+z
x,1/2-y,1/2+z
1/2+x,y,1/2+z
1/2-x,-y,1/2+z
1/2+x,-y,1/2-z
1/2-x,y,1/2-z
1/2-x,-y,1/2-z
1/2+x,y,1/2-z
1/2-x,y,1/2+z
1/2+x,-y,1/2+z
1/2+x,1/2+y,z
1/2-x,1/2-y,z
1/2+x,1/2-y,-z
1/2-x,1/2+y,-z
1/2-x,1/2-y,-z
1/2+x,1/2+y,-z
1/2-x,1/2+y,z
1/2+x,1/2-y,z
loop_
_atom_site_type_symbol
_atom_site_label
_atom_site_fract_x
_atom_site_fract_y
_atom_site_fract_z
Si Si1 0.844222 0.084105 0.153002
Si Si2 0.941558 0.916755 0.500000
Si Si3 0.195391 0.830074 0.717026
Si Si4 0.554253 0.414698 0.787829
Si Si5 0.154401 0.743660 0.409917
Si Si6 0.556843 0.191114 0.857958
O O1 0.832002 0.101000 0.242309
O O2 0.902771 0.085050 0.151180
O O3 0.825659 0.158692 0.108900
O O4 0.826475 0.000000 0.130928
O O5 0.931343 0.870422 0.423597
O O6 0.000000 0.924151 0.500000
O O7 0.918904 0.000000 0.500000
O O8 0.175276 0.750000 0.750000
O O9 0.250000 0.835650 0.750000
O O10 0.186781 0.811035 0.628773
O O11 0.500000 0.405499 0.820484
O O12 0.555852 0.500000 0.751590
O O13 0.560476 0.350489 0.723421
O O14 0.151343 0.753058 0.500000
O O15 0.100168 0.749879 0.372654
O O16 0.500000 0.216292 0.866750
#
# Coordination Sequence:
#
# PCOD9511183 Si02
#       6
#    32  16  32  32  32  32
#     4  10  21  37  58  83 113 154 199 240 282 336
#     4   9  16  26  42  70 113 160 193 223 280 348
#     4   9  19  39  63  87 110 141 186 238 296 352
#     4   9  17  30  50  79 114 151 196 243 282 325
#     4  11  22  37  58  87 122 154 191 237 288 350
#     4  10  18  29  49  80 117 158 197 234 279 336
#
# _framework density 20.832062000000001
#
# number of rings (size 3 to 8) (size 9 to 14) (size 15 to 20)
#    0.000    2.273    2.727    0.545    0.000    3.636 
#    0.000    9.091    0.000    0.000    0.000    3.818 
#    0.000    0.000    0.000    0.000    0.000    0.000 
#
# Total GULP energy -245017.503237 kJ/mol
# GULP energy per Si atom -5568.579619 kJ/mol
# Density = 2.078465 g / cm^3
# Si number density = 20.832062 Si / 1000 Ang^3
#
#
#
# Elastic Constant Matrix: (Units=GPa)
#
#
# Indices 1 2 3 4 5 6 
#
# 1 82.7024 21.6893 24.9203 0.0000 0.0000 0.0000
# 2 21.6893 83.9426 -4.0013 0.0000 0.0000 0.0000
# 3 24.9203 -4.0013 41.5327 0.0000 0.0000 0.0000
# 4 0.0000 0.0000 0.0000 218.5387 0.0000 0.0000
# 5 0.0000 0.0000 0.0000 0.0000 17.6998 0.0000
# 6 0.0000 0.0000 0.0000 0.0000 0.0000 10.5102
#
#
#
# Elastic Compliance Matrix: (Units=1/GPa)
#
#
# Indices 1 2 3 4 5 6 
#
# 1 0.016446 -0.004742 -0.010325 0.000000 0.000000 0.000000
# 2 -0.004742 0.013335 0.004130 0.000000 0.000000 0.000000
# 3 -0.010325 0.004130 0.030670 0.000000 0.000000 0.000000
# 4 0.000000 0.000000 0.000000 0.004576 0.000000 0.000000
# 5 0.000000 0.000000 0.000000 0.000000 0.056498 0.000000
# 6 0.000000 0.000000 0.000000 0.000000 0.000000 0.095145
#
#
# Mechanical properties :
#
#
# Convention : Reuss Voigt Hill
#
# Bulk Modulus (GPa) = 25.92144 32.59937 29.26041
# Shear Modulus (GPa) = 19.88841 60.38772 40.13806
#
# Velocity S-wave (km/s) = 3.09318 5.38988 4.39423
# Velocity P-wave (km/s) = 5.02265 7.37679 6.31047
#
# Compressibility (1/GPa) = 0.03857810
#
# Stress axis : x y z
#
# Youngs Moduli (GPa) = 60.80445 74.99133 32.60481
#
# Poissons Ratio (x) = 0.35557 0.33664
# Poissons Ratio (y) = 0.28831 -0.13465
# Poissons Ratio (z) = 0.62779 -0.30969
#
# Static dielectric constant tensor:
#      x y z
#    x 1.807900 0.000000 0.000000 
#    y 0.000000 1.824730 0.000000 
#    z 0.000000 0.000000 1.798650 
# 
# From -- ./inp_files/27709.got.cif
#   From: 2010.05.17/outbox.cif.g08.bks.cpg/sg69_14_cif.got.tgz:27709.got - 2010.06.03 19:29:58.
