data_PCOD9511046
_publ_section_title
;
Structure prediction by ZEFSAII (Michael W. Deem and Ramdas Pophale) SiO2 
 PCOD9511046
Probable space group: F M M M
;
_chemical_formula_sum "Si O2"
_cell_formula_units_Z 160
_cell_length_a 14.268492
_cell_length_b 28.148924
_cell_length_c 23.680474
_cell_angle_alpha 90.000000
_cell_angle_beta 90.000000
_cell_angle_gamma 90.000000
_cell_volume 9511.089441
_symmetry_space_group_name_H-M "F M M M"
_symmetry_group_IT_number 69
_symmetry_cell_setting 'orthorhombic'
loop_
_space_group_symop_operation_xyz
x,y,z
-x,-y,z
x,-y,-z
-x,y,-z
-x,-y,-z
x,y,-z
-x,y,z
x,-y,z
x,1/2+y,1/2+z
-x,1/2-y,1/2+z
x,1/2-y,1/2-z
-x,1/2+y,1/2-z
-x,1/2-y,1/2-z
x,1/2+y,1/2-z
-x,1/2+y,1/2+z
x,1/2-y,1/2+z
1/2+x,y,1/2+z
1/2-x,-y,1/2+z
1/2+x,-y,1/2-z
1/2-x,y,1/2-z
1/2-x,-y,1/2-z
1/2+x,y,1/2-z
1/2-x,y,1/2+z
1/2+x,-y,1/2+z
1/2+x,1/2+y,z
1/2-x,1/2-y,z
1/2+x,1/2-y,-z
1/2-x,1/2+y,-z
1/2-x,1/2-y,-z
1/2+x,1/2+y,-z
1/2-x,1/2+y,z
1/2+x,1/2-y,z
loop_
_atom_site_type_symbol
_atom_site_label
_atom_site_fract_x
_atom_site_fract_y
_atom_site_fract_z
Si Si1 0.387641 0.344576 0.435677
Si Si2 0.611670 0.948159 0.099868
Si Si3 0.779836 0.695502 0.830923
Si Si4 0.394861 0.655349 0.775292
Si Si5 0.640874 0.552494 0.265504
O O1 0.373113 0.328989 0.500000
O O2 0.500000 0.342575 0.423780
O O3 0.356574 0.399806 0.429324
O O4 0.330775 0.315125 0.389593
O O5 0.500000 0.950015 0.090387
O O6 0.627709 0.943002 0.167081
O O7 0.650316 0.000000 0.082408
O O8 0.750000 0.750000 0.824660
O O9 0.683791 0.665907 0.822161
O O10 0.850877 0.679487 0.781046
O O11 0.500000 0.673013 0.786997
O O12 0.399535 0.599153 0.763313
O O13 0.604999 0.500000 0.249419
O O14 0.750000 0.553256 0.250000
#
# Coordination Sequence:
#
# PCOD9511046 Si02
#       5
#    32  32  32  32  32
#     4  10  20  35  56  78 102 135 172 214 264 313
#     4   9  16  27  45  71 103 134 161 195 244 302
#     4  11  23  37  52  74 103 134 176 223 266 304
#     4  11  20  34  55  78 106 138 173 210 258 313
#     4  10  17  27  47  75 109 141 167 198 245 306
#
# _framework density 16.822469000000002
#
# number of rings (size 3 to 8) (size 9 to 14) (size 15 to 20)
#    0.000    1.800    4.000    2.400    0.000    4.400 
#    0.000    2.000    0.000    0.600    0.000    0.000 
#    0.000    0.000    0.000   11.200    0.000    0.200 
#
# Total GULP energy -222958.664435 kJ/mol
# GULP energy per Si atom -5573.966611 kJ/mol
# Density = 1.678418 g / cm^3
# Si number density = 16.822469 Si / 1000 Ang^3
#
#
#
# Elastic Constant Matrix: (Units=GPa)
#
#
# Indices 1 2 3 4 5 6 
#
# 1 96.0068 24.6628 31.5632 0.0000 0.0000 0.0000
# 2 24.6628 99.6301 32.1572 0.0000 0.0000 0.0000
# 3 31.5632 32.1572 60.4011 0.0000 0.0000 0.0000
# 4 0.0000 0.0000 0.0000 7.1533 0.0000 0.0000
# 5 0.0000 0.0000 0.0000 0.0000 30.4513 0.0000
# 6 0.0000 0.0000 0.0000 0.0000 0.0000 -2.6326
#
#
#
# Elastic Compliance Matrix: (Units=1/GPa)
#
#
# Indices 1 2 3 4 5 6 
#
# 1 0.012696 -0.001209 -0.005991 0.000000 0.000000 0.000000
# 2 -0.001209 0.012235 -0.005882 0.000000 0.000000 0.000000
# 3 -0.005991 -0.005882 0.022818 0.000000 0.000000 0.000000
# 4 0.000000 0.000000 0.000000 0.139796 0.000000 0.000000
# 5 0.000000 0.000000 0.000000 0.000000 0.032839 0.000000
# 6 0.000000 0.000000 0.000000 0.000000 0.000000 -0.379849
#
#
# Mechanical properties :
#
#
# Convention : Reuss Voigt Hill
#
# Bulk Modulus (GPa) = 46.32777 48.08940 47.20858
# Shear Modulus (GPa) = -39.64916 18.17139 -10.73888
#
# Velocity S-wave (km/s) = -4.86008 3.29018 -2.52933
# Velocity P-wave (km/s) = 1.97352 6.56370 4.42648
#
# Compressibility (1/GPa) = 0.02158533
#
# Stress axis : x y z
#
# Youngs Moduli (GPa) = 78.76464 81.73307 43.82511
#
# Poissons Ratio (x) = 0.09884 0.26254
# Poissons Ratio (y) = 0.09525 0.25778
# Poissons Ratio (z) = 0.47185 0.48075
#
# Static dielectric constant tensor:
#      x y z
#    x 1.538330 0.000000 0.000000 
#    y 0.000000 1.616570 0.000000 
#    z 0.000000 0.000000 1.555570 
# 
# From -- ./inp_files/18884.got.cif
#   From: 2010.05.17/outbox.cif.g08.bks.cpg/sg69_10_cif.got.tgz:18884.got - 2010.06.03 19:29:58.
