data_PCOD9511035
_publ_section_title
;
Structure prediction by ZEFSAII (Michael W. Deem and Ramdas Pophale) SiO2 
 PCOD9511035
Probable space group: F M M M
;
_chemical_formula_sum "Si O2"
_cell_formula_units_Z 168
_cell_length_a 28.535902
_cell_length_b 14.807462
_cell_length_c 17.428405
_cell_angle_alpha 90.000000
_cell_angle_beta 90.000000
_cell_angle_gamma 90.000000
_cell_volume 7364.272921
_symmetry_space_group_name_H-M "F M M M"
_symmetry_group_IT_number 69
_symmetry_cell_setting 'orthorhombic'
loop_
_space_group_symop_operation_xyz
x,y,z
-x,-y,z
x,-y,-z
-x,y,-z
-x,-y,-z
x,y,-z
-x,y,z
x,-y,z
x,1/2+y,1/2+z
-x,1/2-y,1/2+z
x,1/2-y,1/2-z
-x,1/2+y,1/2-z
-x,1/2-y,1/2-z
x,1/2+y,1/2-z
-x,1/2+y,1/2+z
x,1/2-y,1/2+z
1/2+x,y,1/2+z
1/2-x,-y,1/2+z
1/2+x,-y,1/2-z
1/2-x,y,1/2-z
1/2-x,-y,1/2-z
1/2+x,y,1/2-z
1/2-x,y,1/2+z
1/2+x,-y,1/2+z
1/2+x,1/2+y,z
1/2-x,1/2-y,z
1/2+x,1/2-y,-z
1/2-x,1/2+y,-z
1/2-x,1/2-y,-z
1/2+x,1/2+y,-z
1/2-x,1/2+y,z
1/2+x,1/2-y,z
loop_
_atom_site_type_symbol
_atom_site_label
_atom_site_fract_x
_atom_site_fract_y
_atom_site_fract_z
Si Si1 0.930658 0.610424 0.357995
Si Si2 0.500000 0.152902 0.500000
Si Si3 0.050670 0.889587 0.316053
Si Si4 0.240261 0.855771 0.665415
Si Si5 0.165867 0.394512 0.583089
Si Si6 0.140466 0.608961 0.088400
O O1 0.935811 0.500000 0.360905
O O2 0.959358 0.645748 0.431088
O O3 0.946790 0.637761 0.273056
O O4 0.875990 0.639026 0.363641
O O5 0.094748 0.857681 0.365712
O O6 0.000000 0.861908 0.348680
O O7 0.052129 0.000000 0.316588
O O8 0.250000 0.894251 0.750000
O O9 0.250000 0.750000 0.669448
O O10 0.281318 0.890290 0.611154
O O11 0.188553 0.870333 0.632979
O O12 0.162381 0.350575 0.500000
O O13 0.154967 0.500000 0.576122
O O14 0.137189 0.500000 0.086476
O O15 0.141782 0.639750 0.000000
#
# Coordination Sequence:
#
# PCOD9511035 Si02
#       6
#    32   8  32  32  32  32
#     4  10  17  26  44  75 114 149 178 218 272 326
#     4  12  17  24  44  76 116 148 182 226 271 326
#     4   9  17  29  48  77 112 148 183 222 273 328
#     4  11  24  40  57  79 105 143 184 229 282 338
#     4  10  20  33  52  81 112 142 178 220 270 327
#     4  10  21  37  58  85 114 145 186 234 280 326
#
# _framework density 22.812843000000001
#
# number of rings (size 3 to 8) (size 9 to 14) (size 15 to 20)
#    0.000    1.905    1.905    3.143    0.000    6.476 
#    0.000    1.905    0.000    0.000    2.476    2.667 
#    0.000    0.000    0.000    0.000    0.000    0.000 
#
# Total GULP energy -234101.462523 kJ/mol
# GULP energy per Si atom -5573.844346 kJ/mol
# Density = 2.276092 g / cm^3
# Si number density = 22.812843 Si / 1000 Ang^3
#
#
#
# Elastic Constant Matrix: (Units=GPa)
#
#
# Indices 1 2 3 4 5 6 
#
# 1 240.8833 1.3117 104.7107 0.0000 0.0000 0.0000
# 2 1.3117 52.2178 13.6778 0.0000 0.0000 0.0000
# 3 104.7107 13.6778 153.2761 0.0000 0.0000 0.0000
# 4 0.0000 0.0000 0.0000 34.3342 0.0000 0.0000
# 5 0.0000 0.0000 0.0000 0.0000 47.4928 0.0000
# 6 0.0000 0.0000 0.0000 0.0000 0.0000 757.7510
#
#
#
# Elastic Compliance Matrix: (Units=1/GPa)
#
#
# Indices 1 2 3 4 5 6 
#
# 1 0.005949 0.000937 -0.004148 0.000000 0.000000 0.000000
# 2 0.000937 0.019756 -0.002403 0.000000 0.000000 0.000000
# 3 -0.004148 -0.002403 0.009572 0.000000 0.000000 0.000000
# 4 0.000000 0.000000 0.000000 0.029125 0.000000 0.000000
# 5 0.000000 0.000000 0.000000 0.000000 0.021056 0.000000
# 6 0.000000 0.000000 0.000000 0.000000 0.000000 0.001320
#
#
# Mechanical properties :
#
#
# Convention : Reuss Voigt Hill
#
# Bulk Modulus (GPa) = 41.57988 76.19750 58.88869
# Shear Modulus (GPa) = 47.15920 189.69408 118.42664
#
# Velocity S-wave (km/s) = 4.55160 9.12868 7.21283
# Velocity P-wave (km/s) = 6.77413 12.02431 9.75892
#
# Compressibility (1/GPa) = 0.02405009
#
# Stress axis : x y z
#
# Youngs Moduli (GPa) = 168.08497 50.61629 104.46820
#
# Poissons Ratio (x) = -0.04743 0.43333
# Poissons Ratio (y) = -0.15750 0.25105
# Poissons Ratio (z) = 0.69721 0.12164
#
# Static dielectric constant tensor:
#      x y z
#    x 1.852000 0.000000 0.000000 
#    y 0.000000 1.826260 0.000000 
#    z 0.000000 0.000000 1.857830 
# 
# From -- ./inp_files/18828.got.cif
#   From: 2010.05.17/outbox.cif.g08.bks.cpg/sg69_10_cif.got.tgz:18828.got - 2010.06.03 19:29:58.
