data_PCOD9511921
_publ_section_title
;
Structure prediction by ZEFSAII (Michael W. Deem and Ramdas Pophale) SiO2 
 PCOD9511921
Probable space group: F M M M
;
_chemical_formula_sum "Si O2"
_cell_formula_units_Z 176
_cell_length_a 25.784296
_cell_length_b 20.410247
_cell_length_c 14.179947
_cell_angle_alpha 90.000000
_cell_angle_beta 90.000000
_cell_angle_gamma 90.000000
_cell_volume 7462.393502
_symmetry_space_group_name_H-M "F M M M"
_symmetry_group_IT_number 69
_symmetry_cell_setting 'orthorhombic'
loop_
_space_group_symop_operation_xyz
x,y,z
-x,-y,z
x,-y,-z
-x,y,-z
-x,-y,-z
x,y,-z
-x,y,z
x,-y,z
x,1/2+y,1/2+z
-x,1/2-y,1/2+z
x,1/2-y,1/2-z
-x,1/2+y,1/2-z
-x,1/2-y,1/2-z
x,1/2+y,1/2-z
-x,1/2+y,1/2+z
x,1/2-y,1/2+z
1/2+x,y,1/2+z
1/2-x,-y,1/2+z
1/2+x,-y,1/2-z
1/2-x,y,1/2-z
1/2-x,-y,1/2-z
1/2+x,y,1/2-z
1/2-x,y,1/2+z
1/2+x,-y,1/2+z
1/2+x,1/2+y,z
1/2-x,1/2-y,z
1/2+x,1/2-y,-z
1/2-x,1/2+y,-z
1/2-x,1/2-y,-z
1/2+x,1/2+y,-z
1/2-x,1/2+y,z
1/2+x,1/2-y,z
loop_
_atom_site_type_symbol
_atom_site_label
_atom_site_fract_x
_atom_site_fract_y
_atom_site_fract_z
Si Si1 0.865493 0.070667 0.614162
Si Si2 0.500000 0.075743 0.384288
Si Si3 0.418548 0.816878 0.610016
Si Si4 0.299280 0.209447 0.345642
Si Si5 0.243059 0.072406 0.886495
Si Si6 0.444480 0.175090 0.885037
O O1 0.871176 0.070488 0.500000
O O2 0.804481 0.074874 0.630455
O O3 0.896891 0.132262 0.651343
O O4 0.884574 0.000000 0.648954
O O5 0.500000 0.071540 0.500000
O O6 0.448878 0.118459 0.354174
O O7 0.500000 0.000000 0.351047
O O8 0.431352 0.819114 0.500000
O O9 0.356779 0.802119 0.613673
O O10 0.442081 0.749435 0.647604
O O11 0.306517 0.250000 0.250000
O O12 0.250000 0.250000 0.392060
O O13 0.281050 0.134784 0.337713
O O14 0.223795 0.000000 0.858174
O O15 0.234870 0.078562 0.000000
O O16 0.500000 0.144793 0.861721
O O17 0.440904 0.176635 0.000000
#
# Coordination Sequence:
#
# PCOD9511921 Si02
#       6
#    32  16  32  32  32  32
#     4   8  14  24  41  71 108 142 180 231 290 348
#     4   9  18  34  59  94 127 151 191 259 327 381
#     4  10  19  34  57  84 118 157 198 250 312 372
#     4  11  24  39  55  85 128 167 218 259 306 379
#     4   9  18  35  60  88 116 151 201 259 317 370
#     4   9  15  24  42  69 104 144 183 225 285 355
#
# _framework density 23.584925999999999
#
# number of rings (size 3 to 8) (size 9 to 14) (size 15 to 20)
#    0.000    2.636    0.909    2.727    0.000    4.000 
#    0.000    5.909    0.000    1.091    0.000    0.000 
#    0.000    0.000    0.000    0.000    0.000    0.545 
#
# Total GULP energy -245423.836066 kJ/mol
# GULP energy per Si atom -5577.814456 kJ/mol
# Density = 2.353125 g / cm^3
# Si number density = 23.584926 Si / 1000 Ang^3
#
#
#
# Elastic Constant Matrix: (Units=GPa)
#
#
# Indices 1 2 3 4 5 6 
#
# 1 95.4115 63.0214 3.1170 0.0000 0.0000 0.0000
# 2 63.0214 214.1737 26.3628 0.0000 0.0000 0.0000
# 3 3.1170 26.3628 82.8203 0.0000 0.0000 0.0000
# 4 0.0000 0.0000 0.0000 9.4298 0.0000 0.0000
# 5 0.0000 0.0000 0.0000 0.0000 11.5141 0.0000
# 6 0.0000 0.0000 0.0000 0.0000 0.0000 31.4383
#
#
#
# Elastic Compliance Matrix: (Units=1/GPa)
#
#
# Indices 1 2 3 4 5 6 
#
# 1 0.013055 -0.003935 0.000761 0.000000 0.000000 0.000000
# 2 -0.003935 0.006046 -0.001776 0.000000 0.000000 0.000000
# 3 0.000761 -0.001776 0.012611 0.000000 0.000000 0.000000
# 4 0.000000 0.000000 0.000000 0.106047 0.000000 0.000000
# 5 0.000000 0.000000 0.000000 0.000000 0.086850 0.000000
# 6 0.000000 0.000000 0.000000 0.000000 0.000000 0.031808
#
#
# Mechanical properties :
#
#
# Convention : Reuss Voigt Hill
#
# Bulk Modulus (GPa) = 45.84715 64.15643 55.00179
# Shear Modulus (GPa) = 18.27562 30.47006 24.37284
#
# Velocity S-wave (km/s) = 2.78670 3.59824 3.21815
# Velocity P-wave (km/s) = 5.46220 6.67267 6.09754
#
# Compressibility (1/GPa) = 0.02181161
#
# Stress axis : x y z
#
# Youngs Moduli (GPa) = 76.59660 165.40583 79.29513
#
# Poissons Ratio (x) = 0.65092 -0.06037
# Poissons Ratio (y) = 0.30143 0.14085
# Poissons Ratio (z) = -0.05831 0.29382
#
# Static dielectric constant tensor:
#      x y z
#    x 1.933680 0.000000 0.000000 
#    y 0.000000 1.871630 0.000000 
#    z 0.000000 0.000000 1.955180 
# 
# From -- ./inp_files/26742.got.cif
#   From: 2010.05.17/outbox.cif.g08.bks.cpg/sg69_14_cif.got.tgz:26742.got - 2010.06.03 19:29:58.
