data_PCOD9511697
_publ_section_title
;
Structure prediction by ZEFSAII (Michael W. Deem and Ramdas Pophale) SiO2 
 PCOD9511697
Probable space group: F M M M
;
_chemical_formula_sum "Si O2"
_cell_formula_units_Z 192
_cell_length_a 18.249093
_cell_length_b 21.590382
_cell_length_c 26.558557
_cell_angle_alpha 90.000000
_cell_angle_beta 90.000000
_cell_angle_gamma 90.000000
_cell_volume 10464.201303
_symmetry_space_group_name_H-M "F M M M"
_symmetry_group_IT_number 69
_symmetry_cell_setting 'orthorhombic'
loop_
_space_group_symop_operation_xyz
x,y,z
-x,-y,z
x,-y,-z
-x,y,-z
-x,-y,-z
x,y,-z
-x,y,z
x,-y,z
x,1/2+y,1/2+z
-x,1/2-y,1/2+z
x,1/2-y,1/2-z
-x,1/2+y,1/2-z
-x,1/2-y,1/2-z
x,1/2+y,1/2-z
-x,1/2+y,1/2+z
x,1/2-y,1/2+z
1/2+x,y,1/2+z
1/2-x,-y,1/2+z
1/2+x,-y,1/2-z
1/2-x,y,1/2-z
1/2-x,-y,1/2-z
1/2+x,y,1/2-z
1/2-x,y,1/2+z
1/2+x,-y,1/2+z
1/2+x,1/2+y,z
1/2-x,1/2-y,z
1/2+x,1/2-y,-z
1/2-x,1/2+y,-z
1/2-x,1/2-y,-z
1/2+x,1/2+y,-z
1/2-x,1/2+y,z
1/2+x,1/2-y,z
loop_
_atom_site_type_symbol
_atom_site_label
_atom_site_fract_x
_atom_site_fract_y
_atom_site_fract_z
Si Si1 0.628659 0.427621 0.442120
Si Si2 0.586558 0.738800 0.054059
Si Si3 0.774076 0.431312 0.618900
Si Si4 0.583710 0.590716 0.058066
Si Si5 0.228526 0.678400 0.807797
Si Si6 0.083984 0.170755 0.361937
O O1 0.616803 0.407356 0.500000
O O2 0.608508 0.500000 0.439262
O O3 0.713948 0.422374 0.425573
O O4 0.587645 0.387686 0.399886
O O5 0.500000 0.755116 0.052479
O O6 0.590113 0.665368 0.058838
O O7 0.614755 0.774362 0.102244
O O8 0.619722 0.756665 0.000000
O O9 0.758364 0.500000 0.641298
O O10 0.854023 0.432619 0.594639
O O11 0.765607 0.373626 0.656630
O O12 0.500000 0.574748 0.071629
O O13 0.595534 0.571678 0.000000
O O14 0.250000 0.668166 0.750000
O O15 0.250000 0.750000 0.819736
O O16 0.141768 0.667331 0.817063
O O17 0.000000 0.181502 0.346496
#
# Coordination Sequence:
#
# PCOD9511697 Si02
#       6
#    32  32  32  32  32  32
#     4   9  18  31  47  72 108 145 175 205 248 306
#     4   8  14  25  43  71 105 136 166 203 250 301
#     4  10  20  34  53  76 104 140 179 216 259 313
#     4   9  17  29  47  74 109 146 181 216 251 292
#     4  10  22  41  60  78 101 131 171 219 270 320
#     4  10  19  32  53  78 103 133 170 213 259 307
#
# _framework density 18.348271
#
# number of rings (size 3 to 8) (size 9 to 14) (size 15 to 20)
#    0.000    2.667    0.000    3.000    0.000    3.000 
#    0.000    4.167    0.000    8.000    0.000    0.000 
#    0.000    0.000    0.000    0.000    0.000    0.000 
#
# Total GULP energy -267450.598411 kJ/mol
# GULP energy per Si atom -5571.887467 kJ/mol
# Density = 1.830651 g / cm^3
# Si number density = 18.348271 Si / 1000 Ang^3
#
#
#
# Elastic Constant Matrix: (Units=GPa)
#
#
# Indices 1 2 3 4 5 6 
#
# 1 95.9421 22.5242 46.1306 0.0000 0.0000 0.0000
# 2 22.5242 92.2203 32.1592 0.0000 0.0000 0.0000
# 3 46.1306 32.1592 82.6760 0.0000 0.0000 0.0000
# 4 0.0000 0.0000 0.0000 9.8809 0.0000 0.0000
# 5 0.0000 0.0000 0.0000 0.0000 14.1828 0.0000
# 6 0.0000 0.0000 0.0000 0.0000 0.0000 12.6333
#
#
#
# Elastic Compliance Matrix: (Units=1/GPa)
#
#
# Indices 1 2 3 4 5 6 
#
# 1 0.014298 -0.000822 -0.007658 0.000000 0.000000 0.000000
# 2 -0.000822 0.012593 -0.004440 0.000000 0.000000 0.000000
# 3 -0.007658 -0.004440 0.018095 0.000000 0.000000 0.000000
# 4 0.000000 0.000000 0.000000 0.101206 0.000000 0.000000
# 5 0.000000 0.000000 0.000000 0.000000 0.070508 0.000000
# 6 0.000000 0.000000 0.000000 0.000000 0.000000 0.079156
#
#
# Mechanical properties :
#
#
# Convention : Reuss Voigt Hill
#
# Bulk Modulus (GPa) = 52.22831 52.49626 52.36229
# Shear Modulus (GPa) = 15.24030 18.67435 16.95732
#
# Velocity S-wave (km/s) = 2.88516 3.19371 3.04335
# Velocity P-wave (km/s) = 6.29489 6.50176 6.39916
#
# Compressibility (1/GPa) = 0.01914671
#
# Stress axis : x y z
#
# Youngs Moduli (GPa) = 69.93944 79.41229 55.26247
#
# Poissons Ratio (x) = 0.06525 0.42322
# Poissons Ratio (y) = 0.05746 0.24535
# Poissons Ratio (z) = 0.53562 0.35257
#
# Static dielectric constant tensor:
#      x y z
#    x 1.634480 0.000000 0.000000 
#    y 0.000000 1.672490 0.000000 
#    z 0.000000 0.000000 1.615260 
# 
# From -- ./inp_files/42766.got.cif
#   From: 2010.05.17/outbox.cif.g08.bks.cpg/sg69_22_cif.got.tgz:42766.got - 2010.06.03 19:29:58.
