data_PCOD9511105
_publ_section_title
;
Structure prediction by ZEFSAII (Michael W. Deem and Ramdas Pophale) SiO2 
 PCOD9511105
Probable space group: F M M M
;
_chemical_formula_sum "Si O2"
_cell_formula_units_Z 152
_cell_length_a 30.817083
_cell_length_b 20.341675
_cell_length_c 15.154593
_cell_angle_alpha 90.000000
_cell_angle_beta 90.000000
_cell_angle_gamma 90.000000
_cell_volume 9499.976184
_symmetry_space_group_name_H-M "F M M M"
_symmetry_group_IT_number 69
_symmetry_cell_setting 'orthorhombic'
loop_
_space_group_symop_operation_xyz
x,y,z
-x,-y,z
x,-y,-z
-x,y,-z
-x,-y,-z
x,y,-z
-x,y,z
x,-y,z
x,1/2+y,1/2+z
-x,1/2-y,1/2+z
x,1/2-y,1/2-z
-x,1/2+y,1/2-z
-x,1/2-y,1/2-z
x,1/2+y,1/2-z
-x,1/2+y,1/2+z
x,1/2-y,1/2+z
1/2+x,y,1/2+z
1/2-x,-y,1/2+z
1/2+x,-y,1/2-z
1/2-x,y,1/2-z
1/2-x,-y,1/2-z
1/2+x,y,1/2-z
1/2-x,y,1/2+z
1/2+x,-y,1/2+z
1/2+x,1/2+y,z
1/2-x,1/2-y,z
1/2+x,1/2-y,-z
1/2-x,1/2+y,-z
1/2-x,1/2-y,-z
1/2+x,1/2+y,-z
1/2-x,1/2+y,z
1/2+x,1/2-y,z
loop_
_atom_site_type_symbol
_atom_site_label
_atom_site_fract_x
_atom_site_fract_y
_atom_site_fract_z
Si Si1 0.000000 0.880184 0.000000
Si Si2 0.404607 0.925363 0.500000
Si Si3 0.428052 0.250000 0.750000
Si Si4 0.636429 0.165151 0.649076
Si Si5 0.500000 0.750837 0.397409
Si Si6 0.822429 0.252492 0.500000
Si Si7 0.782281 0.425371 0.668494
Si Si8 0.755766 0.641188 0.000000
O O1 0.043603 0.921072 0.000000
O O2 0.000000 0.829340 0.082634
O O3 0.387008 0.885706 0.583780
O O4 0.389360 0.000000 0.500000
O O5 0.396383 0.190640 0.722617
O O6 0.458627 0.264327 0.664741
O O7 0.650649 0.227040 0.587110
O O8 0.679077 0.126945 0.681539
O O9 0.500000 0.724146 0.500000
O O10 0.801093 0.180548 0.500000
O O11 0.782148 0.303574 0.500000
O O12 0.798877 0.500000 0.655667
O O13 0.750000 0.424584 0.750000
O O14 0.754215 0.402543 0.584769
#
# Coordination Sequence:
#
# PCOD9511105 Si02
#       8
#     8  16  16  32  16  16  32  16
#     4  10  17  36  48  78 112 132 175 204 264 328
#     4  11  20  34  56  79 111 143 173 223 279 336
#     4  11  20  32  57  78 106 146 171 218 272 329
#     4  10  20  33  51  79 105 141 179 218 275 321
#     4   9  19  37  54  74 114 141 171 213 260 344
#     4   8  18  31  47  73 106 126 174 224 257 308
#     4  10  21  35  50  71 101 138 181 223 263 310
#     4   9  17  34  50  67  95 144 174 211 264 310
#
# _framework density 16.000041
#
# number of rings (size 3 to 8) (size 9 to 14) (size 15 to 20)
#    0.316    1.895    2.105    1.737    4.421    0.000 
#    0.000    0.000    0.000    0.000    0.000    0.000 
#    0.000    3.368    0.000    0.000    0.000    0.000 
#
# Total GULP energy -211619.144326 kJ/mol
# GULP energy per Si atom -5568.924851 kJ/mol
# Density = 1.596362 g / cm^3
# Si number density = 16.000041 Si / 1000 Ang^3
#
#
#
# Elastic Constant Matrix: (Units=GPa)
#
#
# Indices 1 2 3 4 5 6 
#
# 1 92.5165 39.6124 43.8577 0.0000 0.0000 0.0000
# 2 39.6124 71.6272 45.9002 0.0000 0.0000 0.0000
# 3 43.8577 45.9002 105.4518 0.0000 0.0000 0.0000
# 4 0.0000 0.0000 0.0000 17.0764 0.0000 0.0000
# 5 0.0000 0.0000 0.0000 0.0000 19.8009 0.0000
# 6 0.0000 0.0000 0.0000 0.0000 0.0000 14.5220
#
#
#
# Elastic Compliance Matrix: (Units=1/GPa)
#
#
# Indices 1 2 3 4 5 6 
#
# 1 0.015124 -0.006009 -0.003674 0.000000 0.000000 0.000000
# 2 -0.006009 0.021750 -0.006968 0.000000 0.000000 0.000000
# 3 -0.003674 -0.006968 0.014044 0.000000 0.000000 0.000000
# 4 0.000000 0.000000 0.000000 0.058560 0.000000 0.000000
# 5 0.000000 0.000000 0.000000 0.000000 0.050503 0.000000
# 6 0.000000 0.000000 0.000000 0.000000 0.000000 0.068861
#
#
# Mechanical properties :
#
#
# Convention : Reuss Voigt Hill
#
# Bulk Modulus (GPa) = 56.77103 58.70400 57.73751
# Shear Modulus (GPa) = 18.65566 19.62823 19.14195
#
# Velocity S-wave (km/s) = 3.41834 3.50632 3.46261
# Velocity P-wave (km/s) = 7.15115 7.29122 7.22152
#
# Compressibility (1/GPa) = 0.01761462
#
# Stress axis : x y z
#
# Youngs Moduli (GPa) = 66.12148 45.97785 71.20488
#
# Poissons Ratio (x) = 0.27630 0.26163
# Poissons Ratio (y) = 0.39735 0.49613
# Poissons Ratio (z) = 0.24295 0.32036
#
# Static dielectric constant tensor:
#      x y z
#    x 1.552090 0.000000 0.000000 
#    y 0.000000 1.522770 0.000000 
#    z 0.000000 0.000000 1.553150 
# 
# From -- ./inp_files/18952.got.cif
#   From: 2010.05.17/outbox.cif.g08.bks.cpg/sg69_10_cif.got.tgz:18952.got - 2010.06.03 19:29:58.
