data_PCOD9511182
_publ_section_title
;
Structure prediction by ZEFSAII (Michael W. Deem and Ramdas Pophale) SiO2 
 PCOD9511182
Probable space group: F M M M
;
_chemical_formula_sum "Si O2"
_cell_formula_units_Z 192
_cell_length_a 30.707138
_cell_length_b 18.290206
_cell_length_c 20.902024
_cell_angle_alpha 90.000000
_cell_angle_beta 90.000000
_cell_angle_gamma 90.000000
_cell_volume 11739.410245
_symmetry_space_group_name_H-M "F M M M"
_symmetry_group_IT_number 69
_symmetry_cell_setting 'orthorhombic'
loop_
_space_group_symop_operation_xyz
x,y,z
-x,-y,z
x,-y,-z
-x,y,-z
-x,-y,-z
x,y,-z
-x,y,z
x,-y,z
x,1/2+y,1/2+z
-x,1/2-y,1/2+z
x,1/2-y,1/2-z
-x,1/2+y,1/2-z
-x,1/2-y,1/2-z
x,1/2+y,1/2-z
-x,1/2+y,1/2+z
x,1/2-y,1/2+z
1/2+x,y,1/2+z
1/2-x,-y,1/2+z
1/2+x,-y,1/2-z
1/2-x,y,1/2-z
1/2-x,-y,1/2-z
1/2+x,y,1/2-z
1/2-x,y,1/2+z
1/2+x,-y,1/2+z
1/2+x,1/2+y,z
1/2-x,1/2-y,z
1/2+x,1/2-y,-z
1/2-x,1/2+y,-z
1/2-x,1/2-y,-z
1/2+x,1/2+y,-z
1/2-x,1/2+y,z
1/2+x,1/2-y,z
loop_
_atom_site_type_symbol
_atom_site_label
_atom_site_fract_x
_atom_site_fract_y
_atom_site_fract_z
Si Si1 0.279983 0.089087 0.427878
Si Si2 0.949767 0.306145 0.574020
Si Si3 0.721061 0.410813 0.310867
Si Si4 0.375654 0.086447 0.620837
Si Si5 0.375367 0.913427 0.774269
Si Si6 0.050076 0.804699 0.689608
O O1 0.270653 0.113132 0.500000
O O2 0.244953 0.113607 0.375420
O O3 0.328874 0.109872 0.407171
O O4 0.279349 0.000000 0.426982
O O5 0.944655 0.283838 0.500000
O O6 0.915078 0.368362 0.591030
O O7 0.943405 0.240893 0.624580
O O8 0.000000 0.331675 0.582458
O O9 0.720893 0.500000 0.310411
O O10 0.750000 0.388111 0.250000
O O11 0.671186 0.388068 0.301973
O O12 0.374604 0.096300 0.697448
O O13 0.380897 0.000000 0.607784
O O14 0.415101 0.868383 0.802881
O O15 0.379924 0.000000 0.786557
O O16 0.055549 0.750000 0.750000
O O17 0.000000 0.831087 0.691393
#
# Coordination Sequence:
#
# PCOD9511182 Si02
#       6
#    32  32  32  32  32  32
#     4   9  16  26  43  69 102 137 169 203 245 297
#     4  10  21  36  53  73 101 139 175 208 253 308
#     4   9  15  27  46  69  99 133 167 204 245 293
#     4  10  18  29  49  79 110 137 167 205 253 306
#     4  10  19  31  53  82 106 131 168 215 258 293
#     4  10  20  36  55  74 100 136 175 211 247 299
#
# _framework density 16.355166000000001
#
# number of rings (size 3 to 8) (size 9 to 14) (size 15 to 20)
#    0.000    2.333    3.333    0.500    0.000    1.667 
#    0.000    3.333    0.000    5.000    0.000    4.667 
#    0.000    0.000    0.000    0.000    0.000    0.000 
#
# Total GULP energy -267599.593968 kJ/mol
# GULP energy per Si atom -5574.991541 kJ/mol
# Density = 1.631794 g / cm^3
# Si number density = 16.355166 Si / 1000 Ang^3
#
#
#
# Elastic Constant Matrix: (Units=GPa)
#
#
# Indices 1 2 3 4 5 6 
#
# 1 149.4368 56.6138 87.2195 0.0000 0.0000 0.0000
# 2 56.6138 27.2664 42.5774 0.0000 0.0000 0.0000
# 3 87.2195 42.5774 134.8168 0.0000 0.0000 0.0000
# 4 0.0000 0.0000 0.0000 14.0753 0.0000 0.0000
# 5 0.0000 0.0000 0.0000 0.0000 26.5565 0.0000
# 6 0.0000 0.0000 0.0000 0.0000 0.0000 -37.0858
#
#
#
# Elastic Compliance Matrix: (Units=1/GPa)
#
#
# Indices 1 2 3 4 5 6 
#
# 1 0.031380 -0.066004 0.000544 0.000000 0.000000 0.000000
# 2 -0.066004 0.211192 -0.023997 0.000000 0.000000 0.000000
# 3 0.000544 -0.023997 0.014644 0.000000 0.000000 0.000000
# 4 0.000000 0.000000 0.000000 0.071046 0.000000 0.000000
# 5 0.000000 0.000000 0.000000 0.000000 0.037656 0.000000
# 6 0.000000 0.000000 0.000000 0.000000 0.000000 -0.026964
#
#
# Mechanical properties :
#
#
# Convention : Reuss Voigt Hill
#
# Bulk Modulus (GPa) = 12.77097 76.03792 44.40445
# Shear Modulus (GPa) = 9.19174 9.04981 9.12078
#
# Velocity S-wave (km/s) = 2.37324 2.35485 2.36406
# Velocity P-wave (km/s) = 3.91602 7.34754 5.88734
#
# Compressibility (1/GPa) = 0.07830258
#
# Stress axis : x y z
#
# Youngs Moduli (GPa) = 31.86791 4.73503 68.28679
#
# Poissons Ratio (x) = 0.31253 -0.03715
# Poissons Ratio (y) = 2.10340 1.63867
# Poissons Ratio (z) = -0.01734 0.11363
#
# Static dielectric constant tensor:
#      x y z
#    x 1.540670 0.000000 0.000000 
#    y 0.000000 1.526120 0.000000 
#    z 0.000000 0.000000 1.551870 
# 
# From -- ./inp_files/32045.got.cif
#   From: 2010.05.17/outbox.cif.g08.bks.cpg/sg69_17_cif.got.tgz:32045.got - 2010.06.03 19:29:58.
