data_PCOD9511253
_publ_section_title
;
Structure prediction by ZEFSAII (Michael W. Deem and Ramdas Pophale) SiO2 
 PCOD9511253
Probable space group: F M M M
;
_chemical_formula_sum "Si O2"
_cell_formula_units_Z 160
_cell_length_a 28.434018
_cell_length_b 16.329923
_cell_length_c 17.502800
_cell_angle_alpha 90.000000
_cell_angle_beta 90.000000
_cell_angle_gamma 90.000000
_cell_volume 8126.993290
_symmetry_space_group_name_H-M "F M M M"
_symmetry_group_IT_number 69
_symmetry_cell_setting 'orthorhombic'
loop_
_space_group_symop_operation_xyz
x,y,z
-x,-y,z
x,-y,-z
-x,y,-z
-x,-y,-z
x,y,-z
-x,y,z
x,-y,z
x,1/2+y,1/2+z
-x,1/2-y,1/2+z
x,1/2-y,1/2-z
-x,1/2+y,1/2-z
-x,1/2-y,1/2-z
x,1/2+y,1/2-z
-x,1/2+y,1/2+z
x,1/2-y,1/2+z
1/2+x,y,1/2+z
1/2-x,-y,1/2+z
1/2+x,-y,1/2-z
1/2-x,y,1/2-z
1/2-x,-y,1/2-z
1/2+x,y,1/2-z
1/2-x,y,1/2+z
1/2+x,-y,1/2+z
1/2+x,1/2+y,z
1/2-x,1/2-y,z
1/2+x,1/2-y,-z
1/2-x,1/2+y,-z
1/2-x,1/2-y,-z
1/2+x,1/2+y,-z
1/2-x,1/2+y,z
1/2+x,1/2-y,z
loop_
_atom_site_type_symbol
_atom_site_label
_atom_site_fract_x
_atom_site_fract_y
_atom_site_fract_z
Si Si1 0.106194 0.337175 0.154717
Si Si2 0.945428 0.500000 0.849795
Si Si3 0.390070 0.841221 0.334563
Si Si4 0.555097 0.000000 0.662890
Si Si5 0.215368 0.402159 0.321010
Si Si6 0.803164 0.902995 0.412500
O O1 0.079058 0.416177 0.122223
O O2 0.097060 0.245101 0.126829
O O3 0.096264 0.336073 0.245006
O O4 0.161055 0.355383 0.141104
O O5 0.941499 0.500000 0.756526
O O6 0.000000 0.500000 0.869590
O O7 0.333969 0.857130 0.331401
O O8 0.417794 0.919433 0.365620
O O9 0.500000 0.000000 0.644033
O O10 0.205340 0.500000 0.312870
O O11 0.250000 0.380266 0.250000
O O12 0.249077 0.387146 0.393102
O O13 0.814117 0.884786 0.500000
O O14 0.810393 0.000000 0.398382
#
# Coordination Sequence:
#
# PCOD9511253 Si02
#       6
#    32  16  32  16  32  32
#     4  10  19  32  51  76 108 140 180 220 264 322
#     4   9  18  32  52  74 104 140 177 224 278 323
#     4  10  19  31  51  79 107 141 181 221 261 321
#     4   9  18  32  50  76 109 137 169 225 285 321
#     4  10  18  30  53  76 104 144 185 222 256 309
#     4  10  20  34  53  77 110 146 178 219 271 320
#
# _framework density 19.687477999999999
#
# number of rings (size 3 to 8) (size 9 to 14) (size 15 to 20)
#    0.000    2.200    4.000    0.000    0.000    1.600 
#    0.000    6.000    0.000    1.200    0.000    0.000 
#    0.000    5.600    0.000    0.000    0.000    0.000 
#
# Total GULP energy -222919.437832 kJ/mol
# GULP energy per Si atom -5572.985946 kJ/mol
# Density = 1.964267 g / cm^3
# Si number density = 19.687478 Si / 1000 Ang^3
#
#
#
# Elastic Constant Matrix: (Units=GPa)
#
#
# Indices 1 2 3 4 5 6 
#
# 1 104.5163 87.1171 -9.2713 0.0000 0.0000 0.0000
# 2 87.1171 163.4654 10.4800 0.0000 0.0000 0.0000
# 3 -9.2713 10.4800 7.9860 0.0000 0.0000 0.0000
# 4 0.0000 0.0000 0.0000 5.6323 0.0000 0.0000
# 5 0.0000 0.0000 0.0000 0.0000 2.8417 0.0000
# 6 0.0000 0.0000 0.0000 0.0000 0.0000 -4.0352
#
#
#
# Elastic Compliance Matrix: (Units=1/GPa)
#
#
# Indices 1 2 3 4 5 6 
#
# 1 0.035827 -0.023759 0.072773 0.000000 0.000000 0.000000
# 2 -0.023759 0.022436 -0.057026 0.000000 0.000000 0.000000
# 3 0.072773 -0.057026 0.284538 0.000000 0.000000 0.000000
# 4 0.000000 0.000000 0.000000 0.177547 0.000000 0.000000
# 5 0.000000 0.000000 0.000000 0.000000 0.351905 0.000000
# 6 0.000000 0.000000 0.000000 0.000000 0.000000 -0.247817
#
#
# Mechanical properties :
#
#
# Convention : Reuss Voigt Hill
#
# Bulk Modulus (GPa) = 3.06019 50.29103 26.67561
# Shear Modulus (GPa) = 6.67212 13.39721 10.03467
#
# Velocity S-wave (km/s) = 1.84293 2.61146 2.26010
# Velocity P-wave (km/s) = 2.46703 5.89008 4.51549
#
# Compressibility (1/GPa) = 0.32677683
#
# Stress axis : x y z
#
# Youngs Moduli (GPa) = 27.91163 44.57168 3.51447
#
# Poissons Ratio (x) = 1.05899 -0.25576
# Poissons Ratio (y) = 0.66316 0.20041
# Poissons Ratio (z) = -2.03120 2.54172
#
# Static dielectric constant tensor:
#      x y z
#    x 1.665580 0.000000 0.000000 
#    y 0.000000 1.747540 0.000000 
#    z 0.000000 0.000000 1.686980 
# 
# From -- ./inp_files/27511.got.cif
#   From: 2010.05.17/outbox.cif.g08.bks.cpg/sg69_14_cif.got.tgz:27511.got - 2010.06.03 19:29:58.
