data_PCOD9511186
_publ_section_title
;
Structure prediction by ZEFSAII (Michael W. Deem and Ramdas Pophale) SiO2 
 PCOD9511186
Probable space group: F M M M
;
_chemical_formula_sum "Si O2"
_cell_formula_units_Z 100
_cell_length_a 13.630089
_cell_length_b 19.430875
_cell_length_c 17.766694
_cell_angle_alpha 90.000000
_cell_angle_beta 90.000000
_cell_angle_gamma 90.000000
_cell_volume 4705.412177
_symmetry_space_group_name_H-M "F M M M"
_symmetry_group_IT_number 69
_symmetry_cell_setting 'orthorhombic'
loop_
_space_group_symop_operation_xyz
x,y,z
-x,-y,z
x,-y,-z
-x,y,-z
-x,-y,-z
x,y,-z
-x,y,z
x,-y,z
x,1/2+y,1/2+z
-x,1/2-y,1/2+z
x,1/2-y,1/2-z
-x,1/2+y,1/2-z
-x,1/2-y,1/2-z
x,1/2+y,1/2-z
-x,1/2+y,1/2+z
x,1/2-y,1/2+z
1/2+x,y,1/2+z
1/2-x,-y,1/2+z
1/2+x,-y,1/2-z
1/2-x,y,1/2-z
1/2-x,-y,1/2-z
1/2+x,y,1/2-z
1/2-x,y,1/2+z
1/2+x,-y,1/2+z
1/2+x,1/2+y,z
1/2-x,1/2-y,z
1/2+x,1/2-y,-z
1/2-x,1/2+y,-z
1/2-x,1/2-y,-z
1/2+x,1/2+y,-z
1/2-x,1/2+y,z
1/2+x,1/2-y,z
loop_
_atom_site_type_symbol
_atom_site_label
_atom_site_fract_x
_atom_site_fract_y
_atom_site_fract_z
Si Si1 0.798494 0.856173 0.128168
Si Si2 0.883269 0.743504 0.500000
Si Si3 0.189062 0.402119 0.000000
Si Si4 0.393392 0.829314 0.774945
Si Si5 0.000000 0.500000 0.000000
O O1 0.758205 0.914105 0.072135
O O2 0.697516 0.833993 0.169202
O O3 0.869618 0.870932 0.198320
O O4 0.849042 0.799538 0.073770
O O5 0.837475 0.819853 0.500000
O O6 0.000000 0.748572 0.500000
O O7 0.087765 0.441459 0.000000
O O8 0.500000 0.848692 0.807031
O O9 0.397051 0.750000 0.750000
#
# Coordination Sequence:
#
# PCOD9511186 Si02
#       5
#    32  16  16  32   4
#     4  10  20  33  53  85 117 147 185 236 294 351
#     4  11  19  32  55  83 121 152 182 237 295 349
#     4  11  22  38  53  77 111 151 206 244 277 338
#     4  10  18  29  49  83 123 152 175 218 295 368
#     4  12  28  40  56  80 106 168 208 240 292 320
#
# _framework density 21.252123999999998
#
# number of rings (size 3 to 8) (size 9 to 14) (size 15 to 20)
#    0.000    1.600    0.800    8.640    2.240    2.560 
#    0.000    0.000    0.000    3.840    0.000   19.040 
#    0.000    0.000    0.000    0.000    0.000    0.000 
#
# Total GULP energy -139215.009340 kJ/mol
# GULP energy per Si atom -5568.600374 kJ/mol
# Density = 2.120375 g / cm^3
# Si number density = 21.252124 Si / 1000 Ang^3
#
#
#
# Elastic Constant Matrix: (Units=GPa)
#
#
# Indices 1 2 3 4 5 6 
#
# 1 125.9723 1.6493 15.2279 0.0000 0.0000 0.0000
# 2 1.6493 37.7051 3.1107 0.0000 0.0000 0.0000
# 3 15.2279 3.1107 108.5495 0.0000 0.0000 0.0000
# 4 0.0000 0.0000 0.0000 -14.1292 0.0000 0.0000
# 5 0.0000 0.0000 0.0000 0.0000 19.5045 0.0000
# 6 0.0000 0.0000 0.0000 0.0000 0.0000 68.2040
#
#
#
# Elastic Compliance Matrix: (Units=1/GPa)
#
#
# Indices 1 2 3 4 5 6 
#
# 1 0.008078 -0.000260 -0.001126 0.000000 0.000000 0.000000
# 2 -0.000260 0.026593 -0.000726 0.000000 0.000000 0.000000
# 3 -0.001126 -0.000726 0.009391 0.000000 0.000000 0.000000
# 4 0.000000 0.000000 0.000000 -0.070775 0.000000 0.000000
# 5 0.000000 0.000000 0.000000 0.000000 0.051270 0.000000
# 6 0.000000 0.000000 0.000000 0.000000 0.000000 0.014662
#
#
# Mechanical properties :
#
#
# Convention : Reuss Voigt Hill
#
# Bulk Modulus (GPa) = 25.10150 34.68919 29.89535
# Shear Modulus (GPa) = 88.15035 31.53178 59.84107
#
# Velocity S-wave (km/s) = 6.44736 3.85606 5.31214
# Velocity P-wave (km/s) = 8.20131 6.01529 7.19184
#
# Compressibility (1/GPa) = 0.03983826
#
# Stress axis : x y z
#
# Youngs Moduli (GPa) = 123.79689 37.60406 106.48376
#
# Poissons Ratio (x) = 0.00979 0.11987
# Poissons Ratio (y) = 0.03225 0.07726
# Poissons Ratio (z) = 0.13936 0.02728
#
# Static dielectric constant tensor:
#      x y z
#    x 1.765050 0.000000 0.000000 
#    y 0.000000 1.770010 0.000000 
#    z 0.000000 0.000000 1.897910 
# 
# From -- ./inp_files/21397.got.cif
#   From: 2010.05.17/outbox.cif.g08.bks.cpg/sg69_11_cif.got.tgz:21397.got - 2010.06.03 19:29:58.
