data_PCOD9511573
_publ_section_title
;
Structure prediction by ZEFSAII (Michael W. Deem and Ramdas Pophale) SiO2 
 PCOD9511573
Probable space group: F M M M
;
_chemical_formula_sum "Si O2"
_cell_formula_units_Z 192
_cell_length_a 13.791424
_cell_length_b 28.185577
_cell_length_c 23.838283
_cell_angle_alpha 90.000000
_cell_angle_beta 90.000000
_cell_angle_gamma 90.000000
_cell_volume 9266.399324
_symmetry_space_group_name_H-M "F M M M"
_symmetry_group_IT_number 69
_symmetry_cell_setting 'orthorhombic'
loop_
_space_group_symop_operation_xyz
x,y,z
-x,-y,z
x,-y,-z
-x,y,-z
-x,-y,-z
x,y,-z
-x,y,z
x,-y,z
x,1/2+y,1/2+z
-x,1/2-y,1/2+z
x,1/2-y,1/2-z
-x,1/2+y,1/2-z
-x,1/2-y,1/2-z
x,1/2+y,1/2-z
-x,1/2+y,1/2+z
x,1/2-y,1/2+z
1/2+x,y,1/2+z
1/2-x,-y,1/2+z
1/2+x,-y,1/2-z
1/2-x,y,1/2-z
1/2-x,-y,1/2-z
1/2+x,y,1/2-z
1/2-x,y,1/2+z
1/2+x,-y,1/2+z
1/2+x,1/2+y,z
1/2-x,1/2-y,z
1/2+x,1/2-y,-z
1/2-x,1/2+y,-z
1/2-x,1/2-y,-z
1/2+x,1/2+y,-z
1/2-x,1/2+y,z
1/2+x,1/2-y,z
loop_
_atom_site_type_symbol
_atom_site_label
_atom_site_fract_x
_atom_site_fract_y
_atom_site_fract_z
Si Si1 0.615688 0.000000 0.231881
Si Si2 0.885056 0.256457 0.127474
Si Si3 0.383389 0.341544 0.296365
Si Si4 0.882940 0.000000 0.397295
Si Si5 0.884024 0.092826 0.802713
Si Si6 0.778901 0.906247 0.390164
Si Si7 0.734702 0.311748 0.938143
O O1 0.640845 0.952121 0.263619
O O2 0.500000 0.000000 0.228681
O O3 0.648298 0.000000 0.168361
O O4 0.859040 0.288010 0.182719
O O5 0.837204 0.287312 0.077356
O O6 0.835079 0.206363 0.112478
O O7 0.000000 0.252233 0.125556
O O8 0.500000 0.344598 0.298811
O O9 0.357372 0.360352 0.234186
O O10 0.343048 0.378764 0.342463
O O11 0.834711 0.049130 0.416085
O O12 0.000000 0.000000 0.403319
O O13 0.821274 0.084212 0.857668
O O14 0.000000 0.093757 0.812776
O O15 0.752508 0.866962 0.435150
O O16 0.699510 0.298654 0.000000
#
# Coordination Sequence:
#
# PCOD9511573 Si02
#       7
#    16  32  32  16  32  32  32
#     4   9  17  29  49  76 108 142 178 219 258 306
#     4   9  18  35  60  84 107 138 179 230 287 338
#     4   9  17  30  50  81 115 143 175 222 276 332
#     4  11  21  35  57  87 116 147 187 226 268 329
#     4  10  19  31  48  79 119 153 187 226 268 327
#     4  11  21  33  54  78 110 155 188 224 280 330
#     4  10  22  38  55  81 110 138 189 247 284 325
#
# _framework density 20.720020999999999
#
# number of rings (size 3 to 8) (size 9 to 14) (size 15 to 20)
#    0.000    2.167    1.667    2.500    0.000    3.333 
#    0.000    1.250    0.000    7.500    0.000    0.000 
#    0.000    6.000    0.000    0.000    0.000    0.000 
#
# Total GULP energy -267511.341256 kJ/mol
# GULP energy per Si atom -5573.152943 kJ/mol
# Density = 2.067286 g / cm^3
# Si number density = 20.720021 Si / 1000 Ang^3
#
#
#
# Elastic Constant Matrix: (Units=GPa)
#
#
# Indices 1 2 3 4 5 6 
#
# 1 109.3448 42.5731 12.4499 0.0000 0.0000 0.0000
# 2 42.5731 117.8917 25.0662 0.0000 0.0000 0.0000
# 3 12.4499 25.0662 36.1884 0.0000 0.0000 0.0000
# 4 0.0000 0.0000 0.0000 16.9015 0.0000 0.0000
# 5 0.0000 0.0000 0.0000 0.0000 8.6297 0.0000
# 6 0.0000 0.0000 0.0000 0.0000 0.0000 29.6985
#
#
#
# Elastic Compliance Matrix: (Units=1/GPa)
#
#
# Indices 1 2 3 4 5 6 
#
# 1 0.010684 -0.003608 -0.001176 0.000000 0.000000 0.000000
# 2 -0.003608 0.011166 -0.006493 0.000000 0.000000 0.000000
# 3 -0.001176 -0.006493 0.032535 0.000000 0.000000 0.000000
# 4 0.000000 0.000000 0.000000 0.059166 0.000000 0.000000
# 5 0.000000 0.000000 0.000000 0.000000 0.115879 0.000000
# 6 0.000000 0.000000 0.000000 0.000000 0.000000 0.033672
#
#
# Mechanical properties :
#
#
# Convention : Reuss Voigt Hill
#
# Bulk Modulus (GPa) = 31.41654 47.06703 39.24178
# Shear Modulus (GPa) = 16.87665 23.26831 20.07248
#
# Velocity S-wave (km/s) = 2.85706 3.35474 3.11585
# Velocity P-wave (km/s) = 5.10676 6.14579 5.65021
#
# Compressibility (1/GPa) = 0.03183037
#
# Stress axis : x y z
#
# Youngs Moduli (GPa) = 93.59655 89.55885 30.73598
#
# Poissons Ratio (x) = 0.32314 0.03616
# Poissons Ratio (y) = 0.33771 0.19956
# Poissons Ratio (z) = 0.11011 0.58149
#
# Static dielectric constant tensor:
#      x y z
#    x 1.747550 0.000000 0.000000 
#    y 0.000000 1.835160 0.000000 
#    z 0.000000 0.000000 1.724560 
# 
# From -- ./inp_files/36080.got.cif
#   From: 2010.05.17/outbox.cif.g08.bks.cpg/sg69_19_cif.got.tgz:36080.got - 2010.06.03 19:29:58.
