data_PCOD9511944
_publ_section_title
;
Structure prediction by ZEFSAII (Michael W. Deem and Ramdas Pophale) SiO2 
 PCOD9511944
Probable space group: F M M M
;
_chemical_formula_sum "Si O2"
_cell_formula_units_Z 224
_cell_length_a 18.073730
_cell_length_b 31.180833
_cell_length_c 22.597241
_cell_angle_alpha 90.000000
_cell_angle_beta 90.000000
_cell_angle_gamma 90.000000
_cell_volume 12734.764579
_symmetry_space_group_name_H-M "F M M M"
_symmetry_group_IT_number 69
_symmetry_cell_setting 'orthorhombic'
loop_
_space_group_symop_operation_xyz
x,y,z
-x,-y,z
x,-y,-z
-x,y,-z
-x,-y,-z
x,y,-z
-x,y,z
x,-y,z
x,1/2+y,1/2+z
-x,1/2-y,1/2+z
x,1/2-y,1/2-z
-x,1/2+y,1/2-z
-x,1/2-y,1/2-z
x,1/2+y,1/2-z
-x,1/2+y,1/2+z
x,1/2-y,1/2+z
1/2+x,y,1/2+z
1/2-x,-y,1/2+z
1/2+x,-y,1/2-z
1/2-x,y,1/2-z
1/2-x,-y,1/2-z
1/2+x,y,1/2-z
1/2-x,y,1/2+z
1/2+x,-y,1/2+z
1/2+x,1/2+y,z
1/2-x,1/2-y,z
1/2+x,1/2-y,-z
1/2-x,1/2+y,-z
1/2-x,1/2-y,-z
1/2+x,1/2+y,-z
1/2-x,1/2+y,z
1/2+x,1/2-y,z
loop_
_atom_site_type_symbol
_atom_site_label
_atom_site_fract_x
_atom_site_fract_y
_atom_site_fract_z
Si Si1 0.669401 0.951275 0.721029
Si Si2 0.087610 0.630736 0.238115
Si Si3 0.265726 0.450069 0.500000
Si Si4 0.700968 0.395634 0.893974
Si Si5 0.644845 0.346709 0.609807
Si Si6 0.413823 0.097131 0.000000
Si Si7 0.161030 0.249605 0.430769
Si Si8 0.411041 0.328804 0.864672
O O1 0.750000 0.953509 0.750000
O O2 0.620395 0.917217 0.756834
O O3 0.681937 0.927708 0.659036
O O4 0.640184 0.000000 0.716854
O O5 0.111431 0.649526 0.175229
O O6 0.109970 0.658794 0.296303
O O7 0.000000 0.628049 0.240635
O O8 0.251030 0.500000 0.500000
O O9 0.228763 0.425999 0.445464
O O10 0.353743 0.440929 0.500000
O O11 0.770222 0.363278 0.884047
O O12 0.629190 0.365935 0.902896
O O13 0.605479 0.375667 0.559374
O O14 0.638896 0.298384 0.586834
O O15 0.500000 0.085291 0.000000
O O16 0.143224 0.258310 0.500000
O O17 0.250000 0.250000 0.424898
O O18 0.122338 0.284331 0.388451
O O19 0.500000 0.329077 0.869493
#
# Coordination Sequence:
#
# PCOD9511944 Si02
#       8
#    32  32  16  32  32  16  32  32
#     4  10  19  34  59  86 112 147 196 240 283 347
#     4  10  22  39  58  84 121 156 192 242 301 350
#     4  10  22  37  60  87 114 153 197 240 292 349
#     4  10  20  37  61  85 117 154 192 242 289 351
#     4  11  20  38  61  85 115 158 200 243 288 348
#     4  10  22  37  56  85 118 157 198 238 295 348
#     4  11  23  39  62  87 118 151 202 251 286 343
#     4  10  23  40  59  88 120 154 193 242 303 350
#
# _framework density 17.589645999999998
#
# number of rings (size 3 to 8) (size 9 to 14) (size 15 to 20)
#    0.000    1.714    3.571    0.857    1.000    2.429 
#    0.000    2.143    0.000    3.429    0.000    0.000 
#    0.000    0.000    0.000    0.000    0.000    0.000 
#
# Total GULP energy -312207.985154 kJ/mol
# GULP energy per Si atom -5575.142592 kJ/mol
# Density = 1.754961 g / cm^3
# Si number density = 17.589646 Si / 1000 Ang^3
#
#
#
# Elastic Constant Matrix: (Units=GPa)
#
#
# Indices 1 2 3 4 5 6 
#
# 1 67.8620 21.8980 38.2245 0.0000 0.0000 0.0000
# 2 21.8980 99.8821 39.7789 0.0000 0.0000 0.0000
# 3 38.2245 39.7789 77.4374 0.0000 0.0000 0.0000
# 4 0.0000 0.0000 0.0000 18.7248 0.0000 0.0000
# 5 0.0000 0.0000 0.0000 0.0000 13.3036 0.0000
# 6 0.0000 0.0000 0.0000 0.0000 0.0000 21.9035
#
#
#
# Elastic Compliance Matrix: (Units=1/GPa)
#
#
# Indices 1 2 3 4 5 6 
#
# 1 0.020438 -0.000582 -0.009789 0.000000 0.000000 0.000000
# 2 -0.000582 0.012603 -0.006187 0.000000 0.000000 0.000000
# 3 -0.009789 -0.006187 0.020924 0.000000 0.000000 0.000000
# 4 0.000000 0.000000 0.000000 0.053405 0.000000 0.000000
# 5 0.000000 0.000000 0.000000 0.000000 0.075168 0.000000
# 6 0.000000 0.000000 0.000000 0.000000 0.000000 0.045655
#
#
# Mechanical properties :
#
#
# Convention : Reuss Voigt Hill
#
# Bulk Modulus (GPa) = 47.96539 49.44268 48.70404
# Shear Modulus (GPa) = 18.63869 20.47171 19.55520
#
# Velocity S-wave (km/s) = 3.25874 3.41523 3.33790
# Velocity P-wave (km/s) = 6.44108 6.61224 6.52722
#
# Compressibility (1/GPa) = 0.02084837
#
# Stress axis : x y z
#
# Youngs Moduli (GPa) = 48.92929 79.34350 47.79180
#
# Poissons Ratio (x) = 0.04618 0.46785
# Poissons Ratio (y) = 0.02848 0.29569
# Poissons Ratio (z) = 0.47899 0.49090
#
# Static dielectric constant tensor:
#      x y z
#    x 1.599440 0.000000 0.000000 
#    y 0.000000 1.584370 0.000000 
#    z 0.000000 0.000000 1.569430 
# 
# From -- ./inp_files/31216.got.cif
#   From: 2010.05.17/outbox.cif.g08.bks.cpg/sg69_16_cif.got.tgz:31216.got - 2010.06.03 19:29:58.
