data_PCOD9511332
_publ_section_title
;
Structure prediction by ZEFSAII (Michael W. Deem and Ramdas Pophale) SiO2 
 PCOD9511332
Probable space group: F M M M
;
_chemical_formula_sum "Si O2"
_cell_formula_units_Z 136
_cell_length_a 19.908984
_cell_length_b 19.995015
_cell_length_c 19.994822
_cell_angle_alpha 90.000000
_cell_angle_beta 90.000000
_cell_angle_gamma 90.000000
_cell_volume 7959.547414
_symmetry_space_group_name_H-M "F M M M"
_symmetry_group_IT_number 69
_symmetry_cell_setting 'orthorhombic'
loop_
_space_group_symop_operation_xyz
x,y,z
-x,-y,z
x,-y,-z
-x,y,-z
-x,-y,-z
x,y,-z
-x,y,z
x,-y,z
x,1/2+y,1/2+z
-x,1/2-y,1/2+z
x,1/2-y,1/2-z
-x,1/2+y,1/2-z
-x,1/2-y,1/2-z
x,1/2+y,1/2-z
-x,1/2+y,1/2+z
x,1/2-y,1/2+z
1/2+x,y,1/2+z
1/2-x,-y,1/2+z
1/2+x,-y,1/2-z
1/2-x,y,1/2-z
1/2-x,-y,1/2-z
1/2+x,y,1/2-z
1/2-x,y,1/2+z
1/2+x,-y,1/2+z
1/2+x,1/2+y,z
1/2-x,1/2-y,z
1/2+x,1/2-y,-z
1/2-x,1/2+y,-z
1/2-x,1/2-y,-z
1/2+x,1/2+y,-z
1/2-x,1/2+y,z
1/2+x,1/2-y,z
loop_
_atom_site_type_symbol
_atom_site_label
_atom_site_fract_x
_atom_site_fract_y
_atom_site_fract_z
Si Si1 0.374577 0.182921 0.817080
Si Si2 0.668898 0.921889 0.921889
Si Si3 0.750000 0.250000 0.750000
Si Si4 0.670849 0.421531 0.921530
Si Si5 0.576692 0.330624 0.169375
O O1 0.370332 0.126990 0.873010
O O2 0.299421 0.205249 0.794751
O O3 0.409499 0.251501 0.840795
O O4 0.409499 0.159208 0.748499
O O5 0.749164 0.912034 0.912033
O O6 0.654735 0.000000 0.908663
O O7 0.654735 0.908665 0.000000
O O8 0.656461 0.500000 0.908508
O O9 0.627907 0.374077 0.874077
O O10 0.656461 0.408511 0.000000
O O11 0.500000 0.346887 0.153111
#
# Coordination Sequence:
#
# PCOD9511332 Si02
#       5
#    32  32   8  32  32
#     4  10  18  32  51  73 101 130 164 210 250 291
#     4   9  18  33  53  77 103 129 159 202 257 305
#     4   8  16  28  46  76 100 124 160 202 256 304
#     4   9  19  35  53  76 105 131 159 200 249 302
#     4  10  21  35  51  72 100 137 174 203 238 287
#
# _framework density 17.086399
#
# number of rings (size 3 to 8) (size 9 to 14) (size 15 to 20)
#    0.000    2.824    0.000    5.647    0.000    2.824 
#    0.000    7.059    0.000    4.235    0.000    6.588 
#    0.000    0.000    0.000    0.000    0.000    0.000 
#
# Total GULP energy -189591.261147 kJ/mol
# GULP energy per Si atom -5576.213563 kJ/mol
# Density = 1.704751 g / cm^3
# Si number density = 17.086399 Si / 1000 Ang^3
#
#
#
# Elastic Constant Matrix: (Units=GPa)
#
#
# Indices 1 2 3 4 5 6 
#
# 1 28.0136 21.6713 21.6698 0.0000 0.0000 0.0000
# 2 21.6713 96.0312 91.6018 0.0000 0.0000 0.0000
# 3 21.6698 91.6018 96.0177 0.0000 0.0000 0.0000
# 4 0.0000 0.0000 0.0000 44.6539 0.0000 0.0000
# 5 0.0000 0.0000 0.0000 0.0000 -7.3088 0.0000
# 6 0.0000 0.0000 0.0000 0.0000 0.0000 -7.3077
#
#
#
# Elastic Compliance Matrix: (Units=1/GPa)
#
#
# Indices 1 2 3 4 5 6 
#
# 1 0.043464 -0.005020 -0.005020 0.000000 0.000000 0.000000
# 2 -0.005020 0.116290 -0.109808 0.000000 0.000000 0.000000
# 3 -0.005020 -0.109808 0.116306 0.000000 0.000000 0.000000
# 4 0.000000 0.000000 0.000000 0.022394 0.000000 0.000000
# 5 0.000000 0.000000 0.000000 0.000000 -0.136822 0.000000
# 6 0.000000 0.000000 0.000000 0.000000 0.000000 -0.136842
#
#
# Mechanical properties :
#
#
# Convention : Reuss Voigt Hill
#
# Bulk Modulus (GPa) = 27.50094 54.43869 40.96982
# Shear Modulus (GPa) = 18.07619 11.68212 14.87916
#
# Velocity S-wave (km/s) = 3.25611 2.61762 2.95417
# Velocity P-wave (km/s) = 5.50150 6.40827 5.97212
#
# Compressibility (1/GPa) = 0.03636239
#
# Stress axis : x y z
#
# Youngs Moduli (GPa) = 23.00774 8.59922 8.59803
#
# Poissons Ratio (x) = 0.04317 0.04316
# Poissons Ratio (y) = 0.11550 0.94413
# Poissons Ratio (z) = 0.11550 0.94427
#
# Static dielectric constant tensor:
#      x y z
#    x 1.571070 0.000000 0.000000 
#    y 0.000000 1.563850 0.000000 
#    z 0.000000 0.000000 1.563850 
# 
# From -- ./inp_files/25598.got.cif
#   From: 2010.05.17/outbox.cif.g08.bks.cpg/sg69_13_cif.got.tgz:25598.got - 2010.06.03 19:29:58.
