data_PCOD9511290
_publ_section_title
;
Structure prediction by ZEFSAII (Michael W. Deem and Ramdas Pophale) SiO2 
 PCOD9511290
Probable space group: F M M M
;
_chemical_formula_sum "Si O2"
_cell_formula_units_Z 200
_cell_length_a 14.145295
_cell_length_b 20.589122
_cell_length_c 31.112838
_cell_angle_alpha 90.000000
_cell_angle_beta 90.000000
_cell_angle_gamma 90.000000
_cell_volume 9061.278188
_symmetry_space_group_name_H-M "F M M M"
_symmetry_group_IT_number 69
_symmetry_cell_setting 'orthorhombic'
loop_
_space_group_symop_operation_xyz
x,y,z
-x,-y,z
x,-y,-z
-x,y,-z
-x,-y,-z
x,y,-z
-x,y,z
x,-y,z
x,1/2+y,1/2+z
-x,1/2-y,1/2+z
x,1/2-y,1/2-z
-x,1/2+y,1/2-z
-x,1/2-y,1/2-z
x,1/2+y,1/2-z
-x,1/2+y,1/2+z
x,1/2-y,1/2+z
1/2+x,y,1/2+z
1/2-x,-y,1/2+z
1/2+x,-y,1/2-z
1/2-x,y,1/2-z
1/2-x,-y,1/2-z
1/2+x,y,1/2-z
1/2-x,y,1/2+z
1/2+x,-y,1/2+z
1/2+x,1/2+y,z
1/2-x,1/2-y,z
1/2+x,1/2-y,-z
1/2-x,1/2+y,-z
1/2-x,1/2-y,-z
1/2+x,1/2+y,-z
1/2-x,1/2+y,z
1/2+x,1/2-y,z
loop_
_atom_site_type_symbol
_atom_site_label
_atom_site_fract_x
_atom_site_fract_y
_atom_site_fract_z
Si Si1 0.615199 0.640031 0.864919
Si Si2 0.886606 0.872001 0.545946
Si Si3 0.847804 0.073245 0.223754
Si Si4 0.385083 0.291497 0.628278
Si Si5 0.614734 0.424389 0.046225
Si Si6 0.605918 0.692853 0.278746
Si Si7 0.673189 0.500000 0.500000
O O1 0.500000 0.635934 0.860695
O O2 0.656346 0.601220 0.824444
O O3 0.640544 0.715804 0.867862
O O4 0.643913 0.608576 0.910065
O O5 0.875813 0.835316 0.500000
O O6 0.851979 0.830815 0.586524
O O7 0.839061 0.941588 0.536891
O O8 0.000000 0.884574 0.550698
O O9 0.900059 0.128498 0.250827
O O10 0.000000 0.217580 0.288365
O O11 0.886840 0.000000 0.222803
O O12 0.500000 0.294153 0.624331
O O13 0.353139 0.320402 0.674186
O O14 0.500000 0.422916 0.046331
O O15 0.642725 0.500000 0.045282
O O16 0.645302 0.395905 0.000000
O O17 0.650077 0.750000 0.250000
O O18 0.750000 0.570163 0.250000
#
# Coordination Sequence:
#
# PCOD9511290 Si02
#       7
#    32  32  32  32  32  32   8
#     4  10  18  31  52  76 107 146 182 226 287 340
#     4   8  13  23  39  62  97 139 178 212 258 320
#     4  11  24  39  54  76 105 140 188 237 280 338
#     4   9  17  28  45  71 101 132 171 218 264 323
#     4   8  14  24  40  68 104 138 175 216 259 318
#     4  10  19  36  57  78 106 137 174 227 286 344
#     4   8  13  24  40  60 100 152 182 214 268 332
#
# _framework density 22.071940999999999
#
# number of rings (size 3 to 8) (size 9 to 14) (size 15 to 20)
#    0.480    2.240    1.600    1.920    0.000    2.880 
#    1.440    3.200    0.000    0.000    0.000    1.120 
#    0.000    4.160    0.000    0.000    0.000    0.160 
#
# Total GULP energy -278345.254491 kJ/mol
# GULP energy per Si atom -5566.905090 kJ/mol
# Density = 2.202170 g / cm^3
# Si number density = 22.071941 Si / 1000 Ang^3
#
#
#
# Elastic Constant Matrix: (Units=GPa)
#
#
# Indices 1 2 3 4 5 6 
#
# 1 78.4392 16.2631 18.7779 0.0000 0.0000 0.0000
# 2 16.2631 152.0882 112.7104 0.0000 0.0000 0.0000
# 3 18.7779 112.7104 254.3310 0.0000 0.0000 0.0000
# 4 0.0000 0.0000 0.0000 49.5571 0.0000 0.0000
# 5 0.0000 0.0000 0.0000 0.0000 -0.9853 0.0000
# 6 0.0000 0.0000 0.0000 0.0000 0.0000 10.9661
#
#
#
# Elastic Compliance Matrix: (Units=1/GPa)
#
#
# Indices 1 2 3 4 5 6 
#
# 1 0.013083 -0.001017 -0.000515 0.000000 0.000000 0.000000
# 2 -0.001017 0.009870 -0.004299 0.000000 0.000000 0.000000
# 3 -0.000515 -0.004299 0.005875 0.000000 0.000000 0.000000
# 4 0.000000 0.000000 0.000000 0.020179 0.000000 0.000000
# 5 0.000000 0.000000 0.000000 0.000000 -1.014875 0.000000
# 6 0.000000 0.000000 0.000000 0.000000 0.000000 0.091190
#
#
# Mechanical properties :
#
#
# Convention : Reuss Voigt Hill
#
# Bulk Modulus (GPa) = 58.25702 86.70678 72.48190
# Shear Modulus (GPa) = -5.83230 34.38138 14.27454
#
# Velocity S-wave (km/s) = -1.62731 3.95105 2.54584
# Velocity P-wave (km/s) = 4.78755 7.75779 6.44608
#
# Compressibility (1/GPa) = 0.01716531
#
# Stress axis : x y z
#
# Youngs Moduli (GPa) = 76.43539 101.32048 170.21318
#
# Poissons Ratio (x) = 0.10306 0.08769
# Poissons Ratio (y) = 0.07775 0.73171
# Poissons Ratio (z) = 0.03938 0.43555
#
# Static dielectric constant tensor:
#      x y z
#    x 1.987740 0.000000 0.000000 
#    y 0.000000 1.759090 0.000000 
#    z 0.000000 0.000000 1.822770 
# 
# From -- ./inp_files/46488.got.cif
#   From: 2010.05.17/outbox.cif.g08.bks.cpg/sg69_24_cif.got.tgz:46488.got - 2010.06.03 19:29:58.
