data_PCOD9511304
_publ_section_title
;
Structure prediction by ZEFSAII (Michael W. Deem and Ramdas Pophale) SiO2 
 PCOD9511304
Probable space group: F M M M
;
_chemical_formula_sum "Si O2"
_cell_formula_units_Z 144
_cell_length_a 20.512081
_cell_length_b 21.914025
_cell_length_c 14.831453
_cell_angle_alpha 90.000000
_cell_angle_beta 90.000000
_cell_angle_gamma 90.000000
_cell_volume 6666.771581
_symmetry_space_group_name_H-M "F M M M"
_symmetry_group_IT_number 69
_symmetry_cell_setting 'orthorhombic'
loop_
_space_group_symop_operation_xyz
x,y,z
-x,-y,z
x,-y,-z
-x,y,-z
-x,-y,-z
x,y,-z
-x,y,z
x,-y,z
x,1/2+y,1/2+z
-x,1/2-y,1/2+z
x,1/2-y,1/2-z
-x,1/2+y,1/2-z
-x,1/2-y,1/2-z
x,1/2+y,1/2-z
-x,1/2+y,1/2+z
x,1/2-y,1/2+z
1/2+x,y,1/2+z
1/2-x,-y,1/2+z
1/2+x,-y,1/2-z
1/2-x,y,1/2-z
1/2-x,-y,1/2-z
1/2+x,y,1/2-z
1/2-x,y,1/2+z
1/2+x,-y,1/2+z
1/2+x,1/2+y,z
1/2-x,1/2-y,z
1/2+x,1/2-y,-z
1/2-x,1/2+y,-z
1/2-x,1/2-y,-z
1/2+x,1/2+y,-z
1/2-x,1/2+y,z
1/2+x,1/2-y,z
loop_
_atom_site_type_symbol
_atom_site_label
_atom_site_fract_x
_atom_site_fract_y
_atom_site_fract_z
Si Si1 0.574776 0.000000 0.110273
Si Si2 0.572173 0.871058 0.396649
Si Si3 0.703884 0.429118 0.110426
Si Si4 0.341784 0.382969 0.391399
Si Si5 0.072476 0.233071 0.645426
O O1 0.613447 0.939526 0.139190
O O2 0.500000 0.000000 0.140802
O O3 0.574173 0.000000 0.000000
O O4 0.567921 0.893184 0.500000
O O5 0.500000 0.880340 0.354673
O O6 0.635265 0.902828 0.354968
O O7 0.584397 0.798467 0.399817
O O8 0.711331 0.500000 0.133880
O O9 0.767812 0.392554 0.140728
O O10 0.702341 0.425542 0.000000
O O11 0.339711 0.386929 0.500000
O O12 0.374848 0.318872 0.369350
O O13 0.070565 0.250000 0.750000
O O14 0.000000 0.211103 0.617342
#
# Coordination Sequence:
#
# PCOD9511304 Si02
#       5
#    16  32  32  32  32
#     4   9  16  26  46  78 106 131 168 208 250 309
#     4   9  18  33  54  78 101 132 180 226 261 308
#     4   9  17  31  52  79 109 136 167 216 273 317
#     4  10  18  31  53  80 110 140 170 212 265 320
#     4  10  21  36  53  73 105 143 178 218 264 312
#
# _framework density 21.59966
#
# number of rings (size 3 to 8) (size 9 to 14) (size 15 to 20)
#    0.000    2.556    1.111    1.333    0.000    3.556 
#    0.000    7.778    2.444    1.333    0.000    0.000 
#    0.000    0.000    0.000    0.000    0.000    0.000 
#
# Total GULP energy -201007.187984 kJ/mol
# GULP energy per Si atom -5583.533000 kJ/mol
# Density = 2.155050 g / cm^3
# Si number density = 21.599660 Si / 1000 Ang^3
#
#
#
# Elastic Constant Matrix: (Units=GPa)
#
#
# Indices 1 2 3 4 5 6 
#
# 1 227.0758 97.1069 12.2482 0.0000 0.0000 0.0000
# 2 97.1069 67.8004 -1.9386 0.0000 0.0000 0.0000
# 3 12.2482 -1.9386 42.4975 0.0000 0.0000 0.0000
# 4 0.0000 0.0000 0.0000 -35.0267 0.0000 0.0000
# 5 0.0000 0.0000 0.0000 0.0000 7.3977 0.0000
# 6 0.0000 0.0000 0.0000 0.0000 0.0000 47.4338
#
#
#
# Elastic Compliance Matrix: (Units=1/GPa)
#
#
# Indices 1 2 3 4 5 6 
#
# 1 0.012095 -0.017446 -0.004282 0.000000 0.000000 0.000000
# 2 -0.017446 0.039932 0.006850 0.000000 0.000000 0.000000
# 3 -0.004282 0.006850 0.025077 0.000000 0.000000 0.000000
# 4 0.000000 0.000000 0.000000 -0.028550 0.000000 0.000000
# 5 0.000000 0.000000 0.000000 0.000000 0.135177 0.000000
# 6 0.000000 0.000000 0.000000 0.000000 0.000000 0.021082
#
#
# Mechanical properties :
#
#
# Convention : Reuss Voigt Hill
#
# Bulk Modulus (GPa) = 21.12003 61.35631 41.23817
# Shear Modulus (GPa) = 19.97178 19.29143 19.63161
#
# Velocity S-wave (km/s) = 3.04408 2.99178 3.01804
# Velocity P-wave (km/s) = 4.70684 6.35627 5.59270
#
# Compressibility (1/GPa) = 0.04734843
#
# Stress axis : x y z
#
# Youngs Moduli (GPa) = 82.67582 25.04248 39.87665
#
# Poissons Ratio (x) = 0.43689 0.17075
# Poissons Ratio (y) = 1.44237 -0.27314
# Poissons Ratio (z) = 0.35401 -0.17153
#
# Static dielectric constant tensor:
#      x y z
#    x 1.805080 0.000000 0.000000 
#    y 0.000000 1.737160 0.000000 
#    z 0.000000 0.000000 1.819080 
# 
# From -- ./inp_files/22862.got.cif
#   From: 2010.05.17/outbox.cif.g08.bks.cpg/sg69_12_cif.got.tgz:22862.got - 2010.06.03 19:29:58.
