data_PCOD9511155
_publ_section_title
;
Structure prediction by ZEFSAII (Michael W. Deem and Ramdas Pophale) SiO2 
 PCOD9511155
Probable space group: F M M M
;
_chemical_formula_sum "Si O2"
_cell_formula_units_Z 160
_cell_length_a 31.961770
_cell_length_b 15.512208
_cell_length_c 18.005907
_cell_angle_alpha 90.000000
_cell_angle_beta 90.000000
_cell_angle_gamma 90.000000
_cell_volume 8927.285914
_symmetry_space_group_name_H-M "F M M M"
_symmetry_group_IT_number 69
_symmetry_cell_setting 'orthorhombic'
loop_
_space_group_symop_operation_xyz
x,y,z
-x,-y,z
x,-y,-z
-x,y,-z
-x,-y,-z
x,y,-z
-x,y,z
x,-y,z
x,1/2+y,1/2+z
-x,1/2-y,1/2+z
x,1/2-y,1/2-z
-x,1/2+y,1/2-z
-x,1/2-y,1/2-z
x,1/2+y,1/2-z
-x,1/2+y,1/2+z
x,1/2-y,1/2+z
1/2+x,y,1/2+z
1/2-x,-y,1/2+z
1/2+x,-y,1/2-z
1/2-x,y,1/2-z
1/2-x,-y,1/2-z
1/2+x,y,1/2-z
1/2-x,y,1/2+z
1/2+x,-y,1/2+z
1/2+x,1/2+y,z
1/2-x,1/2-y,z
1/2+x,1/2-y,-z
1/2-x,1/2+y,-z
1/2-x,1/2-y,-z
1/2+x,1/2+y,-z
1/2-x,1/2+y,z
1/2+x,1/2-y,z
loop_
_atom_site_type_symbol
_atom_site_label
_atom_site_fract_x
_atom_site_fract_y
_atom_site_fract_z
Si Si1 0.951003 0.500000 0.272454
Si Si2 0.096811 0.000000 0.079909
Si Si3 0.752465 0.855468 0.336310
Si Si4 0.391598 0.346496 0.271446
Si Si5 0.838448 0.339713 0.086024
Si Si6 0.837369 0.140170 0.872939
O O1 0.938765 0.500000 0.358894
O O2 0.927336 0.584229 0.242347
O O3 0.000000 0.500000 0.258500
O O4 0.128078 0.080601 0.089834
O O5 0.077292 0.000000 0.000000
O O6 0.750000 0.882196 0.250000
O O7 0.750000 0.750000 0.336026
O O8 0.794999 0.875774 0.379801
O O9 0.710467 0.889936 0.374900
O O10 0.406323 0.250000 0.250000
O O11 0.374463 0.360192 0.354315
O O12 0.352696 0.357418 0.213435
O O13 0.837048 0.235389 0.092604
O O14 0.844247 0.364364 0.000000
#
# Coordination Sequence:
#
# PCOD9511155 Si02
#       6
#    16  16  32  32  32  32
#     4  10  22  39  60  83 100 129 173 206 258 335
#     4  10  20  33  50  75 106 131 158 212 271 312
#     4   9  15  26  45  68 101 141 179 218 254 290
#     4   9  18  35  56  77 105 140 172 211 258 311
#     4  10  18  28  49  76 101 137 183 222 252 288
#     4   9  17  30  48  70 103 143 178 207 252 310
#
# _framework density 17.92258
#
# number of rings (size 3 to 8) (size 9 to 14) (size 15 to 20)
#    0.000    2.600    2.000    0.600    0.000    5.000 
#    0.000    2.000    0.000    1.200    0.000    0.000 
#    0.000    0.000    0.000    0.000    0.000    0.000 
#
# Total GULP energy -222904.980068 kJ/mol
# GULP energy per Si atom -5572.624502 kJ/mol
# Density = 1.788179 g / cm^3
# Si number density = 17.922580 Si / 1000 Ang^3
#
#
#
# Elastic Constant Matrix: (Units=GPa)
#
#
# Indices 1 2 3 4 5 6 
#
# 1 113.6279 49.1654 49.6494 0.0000 0.0000 0.0000
# 2 49.1654 52.3705 20.7529 0.0000 0.0000 0.0000
# 3 49.6494 20.7529 152.6143 0.0000 0.0000 0.0000
# 4 0.0000 0.0000 0.0000 -1.0619 0.0000 0.0000
# 5 0.0000 0.0000 0.0000 0.0000 3.3611 0.0000
# 6 0.0000 0.0000 0.0000 0.0000 0.0000 12.2752
#
#
#
# Elastic Compliance Matrix: (Units=1/GPa)
#
#
# Indices 1 2 3 4 5 6 
#
# 1 0.016348 -0.013994 -0.003416 0.000000 0.000000 0.000000
# 2 -0.013994 0.032161 0.000179 0.000000 0.000000 0.000000
# 3 -0.003416 0.000179 0.007639 0.000000 0.000000 0.000000
# 4 0.000000 0.000000 0.000000 -0.941664 0.000000 0.000000
# 5 0.000000 0.000000 0.000000 0.000000 0.297518 0.000000
# 6 0.000000 0.000000 0.000000 0.000000 0.000000 0.081465
#
#
# Mechanical properties :
#
#
# Convention : Reuss Voigt Hill
#
# Bulk Modulus (GPa) = 46.10853 61.97203 54.04028
# Shear Modulus (GPa) = -10.75635 16.18453 2.71409
#
# Velocity S-wave (km/s) = -2.45247 3.00830 1.23192
# Velocity P-wave (km/s) = 4.21461 6.83514 5.67812
#
# Compressibility (1/GPa) = 0.02168796
#
# Stress axis : x y z
#
# Youngs Moduli (GPa) = 61.16892 31.09317 130.90297
#
# Poissons Ratio (x) = 0.43512 0.44710
# Poissons Ratio (y) = 0.85601 -0.02347
# Poissons Ratio (z) = 0.20892 -0.00557
#
# Static dielectric constant tensor:
#      x y z
#    x 1.561890 0.000000 0.000000 
#    y 0.000000 1.652850 0.000000 
#    z 0.000000 0.000000 1.642470 
# 
# From -- ./inp_files/23234.got.cif
#   From: 2010.05.17/outbox.cif.g08.bks.cpg/sg69_12_cif.got.tgz:23234.got - 2010.06.03 19:29:58.
