data_PCOD9511540
_publ_section_title
;
Structure prediction by ZEFSAII (Michael W. Deem and Ramdas Pophale) SiO2 
 PCOD9511540
Probable space group: F M M M
;
_chemical_formula_sum "Si O2"
_cell_formula_units_Z 160
_cell_length_a 25.795652
_cell_length_b 18.666090
_cell_length_c 18.386075
_cell_angle_alpha 90.000000
_cell_angle_beta 90.000000
_cell_angle_gamma 90.000000
_cell_volume 8852.967955
_symmetry_space_group_name_H-M "F M M M"
_symmetry_group_IT_number 69
_symmetry_cell_setting 'orthorhombic'
loop_
_space_group_symop_operation_xyz
x,y,z
-x,-y,z
x,-y,-z
-x,y,-z
-x,-y,-z
x,y,-z
-x,y,z
x,-y,z
x,1/2+y,1/2+z
-x,1/2-y,1/2+z
x,1/2-y,1/2-z
-x,1/2+y,1/2-z
-x,1/2-y,1/2-z
x,1/2+y,1/2-z
-x,1/2+y,1/2+z
x,1/2-y,1/2+z
1/2+x,y,1/2+z
1/2-x,-y,1/2+z
1/2+x,-y,1/2-z
1/2-x,y,1/2-z
1/2-x,-y,1/2-z
1/2+x,y,1/2-z
1/2-x,y,1/2+z
1/2+x,-y,1/2+z
1/2+x,1/2+y,z
1/2-x,1/2-y,z
1/2+x,1/2-y,-z
1/2-x,1/2+y,-z
1/2-x,1/2-y,-z
1/2+x,1/2+y,-z
1/2-x,1/2+y,z
1/2+x,1/2-y,z
loop_
_atom_site_type_symbol
_atom_site_label
_atom_site_fract_x
_atom_site_fract_y
_atom_site_fract_z
Si Si1 0.755273 0.918893 0.416389
Si Si2 0.692442 0.581841 0.781465
Si Si3 0.562532 0.082043 0.416250
Si Si4 0.808692 0.221328 0.414361
Si Si5 0.386079 0.304751 0.808405
O O1 0.741036 0.907761 0.500000
O O2 0.704418 0.910676 0.367536
O O3 0.800470 0.862993 0.399722
O O4 0.773447 0.000000 0.405394
O O5 0.677551 0.500000 0.764921
O O6 0.750000 0.594026 0.750000
O O7 0.651441 0.641819 0.763236
O O8 0.579397 0.096822 0.500000
O O9 0.500000 0.081439 0.416484
O O10 0.580694 0.141831 0.358984
O O11 0.579650 0.000000 0.397845
O O12 0.820685 0.232181 0.500000
O O13 0.750000 0.250000 0.401641
O O14 0.849608 0.258801 0.362540
O O15 0.411168 0.250000 0.750000
#
# Coordination Sequence:
#
# PCOD9511540 Si02
#       5
#    32  32  32  32  32
#     4   9  17  29  44  61  87 132 185 234 274 304
#     4  10  20  32  44  63  98 142 185 221 253 306
#     4   9  20  42  68  88 107 134 179 243 302 347
#     4  10  19  31  46  68 103 143 191 240 273 314
#     4  12  23  31  51  80 113 149 176 220 278 350
#
# _framework density 18.073034
#
# number of rings (size 3 to 8) (size 9 to 14) (size 15 to 20)
#    0.000    2.000    2.000    3.000    0.000    1.200 
#    0.000    3.000    0.000    0.000    0.000    0.000 
#    0.000    0.000    0.000   20.400    0.000    0.000 
#
# Total GULP energy -223064.175716 kJ/mol
# GULP energy per Si atom -5576.604393 kJ/mol
# Density = 1.803190 g / cm^3
# Si number density = 18.073034 Si / 1000 Ang^3
#
#
#
# Elastic Constant Matrix: (Units=GPa)
#
#
# Indices 1 2 3 4 5 6 
#
# 1 25.6796 24.3353 19.4961 0.0000 0.0000 0.0000
# 2 24.3353 120.3025 42.9856 0.0000 0.0000 0.0000
# 3 19.4961 42.9856 88.4348 0.0000 0.0000 0.0000
# 4 0.0000 0.0000 0.0000 30.4176 0.0000 0.0000
# 5 0.0000 0.0000 0.0000 0.0000 21.2827 0.0000
# 6 0.0000 0.0000 0.0000 0.0000 0.0000 25.1235
#
#
#
# Elastic Compliance Matrix: (Units=1/GPa)
#
#
# Indices 1 2 3 4 5 6 
#
# 1 0.052191 -0.007801 -0.007714 0.000000 0.000000 0.000000
# 2 -0.007801 0.011226 -0.003737 0.000000 0.000000 0.000000
# 3 -0.007714 -0.003737 0.014825 0.000000 0.000000 0.000000
# 4 0.000000 0.000000 0.000000 0.032876 0.000000 0.000000
# 5 0.000000 0.000000 0.000000 0.000000 0.046987 0.000000
# 6 0.000000 0.000000 0.000000 0.000000 0.000000 0.039803
#
#
# Mechanical properties :
#
#
# Convention : Reuss Voigt Hill
#
# Bulk Modulus (GPa) = 25.16511 45.33900 35.25206
# Shear Modulus (GPa) = 20.02761 25.20476 22.61618
#
# Velocity S-wave (km/s) = 3.33250 3.73849 3.54132
# Velocity P-wave (km/s) = 5.36300 6.61635 6.02237
#
# Compressibility (1/GPa) = 0.03973755
#
# Stress axis : x y z
#
# Youngs Moduli (GPa) = 19.16054 89.08251 67.45536
#
# Poissons Ratio (x) = 0.69494 0.52035
# Poissons Ratio (y) = 0.14947 0.25205
# Poissons Ratio (z) = 0.14780 0.33287
#
# Static dielectric constant tensor:
#      x y z
#    x 1.598370 0.000000 0.000000 
#    y 0.000000 1.694010 0.000000 
#    z 0.000000 0.000000 1.707110 
# 
# From -- ./inp_files/23409.got.cif
#   From: 2010.05.17/outbox.cif.g08.bks.cpg/sg69_12_cif.got.tgz:23409.got - 2010.06.03 19:29:58.
