data_PCOD9511979
_publ_section_title
;
Structure prediction by ZEFSAII (Michael W. Deem and Ramdas Pophale) SiO2 
 PCOD9511979
Probable space group: F M M M
;
_chemical_formula_sum "Si O2"
_cell_formula_units_Z 208
_cell_length_a 29.046489
_cell_length_b 21.721480
_cell_length_c 16.926779
_cell_angle_alpha 90.000000
_cell_angle_beta 90.000000
_cell_angle_gamma 90.000000
_cell_volume 10679.658883
_symmetry_space_group_name_H-M "F M M M"
_symmetry_group_IT_number 69
_symmetry_cell_setting 'orthorhombic'
loop_
_space_group_symop_operation_xyz
x,y,z
-x,-y,z
x,-y,-z
-x,y,-z
-x,-y,-z
x,y,-z
-x,y,z
x,-y,z
x,1/2+y,1/2+z
-x,1/2-y,1/2+z
x,1/2-y,1/2-z
-x,1/2+y,1/2-z
-x,1/2-y,1/2-z
x,1/2+y,1/2-z
-x,1/2+y,1/2+z
x,1/2-y,1/2+z
1/2+x,y,1/2+z
1/2-x,-y,1/2+z
1/2+x,-y,1/2-z
1/2-x,y,1/2-z
1/2-x,-y,1/2-z
1/2+x,y,1/2-z
1/2-x,y,1/2+z
1/2+x,-y,1/2+z
1/2+x,1/2+y,z
1/2-x,1/2-y,z
1/2+x,1/2-y,-z
1/2-x,1/2+y,-z
1/2-x,1/2-y,-z
1/2+x,1/2+y,-z
1/2-x,1/2+y,z
1/2+x,1/2-y,z
loop_
_atom_site_type_symbol
_atom_site_label
_atom_site_fract_x
_atom_site_fract_y
_atom_site_fract_z
Si Si1 0.444270 0.649360 0.656346
Si Si2 0.813639 0.930320 0.093603
Si Si3 0.898226 0.065904 0.783110
Si Si4 0.948970 0.388089 0.414456
Si Si5 0.607432 0.736236 0.907541
Si Si6 0.709923 0.794639 0.595591
Si Si7 0.555191 0.430471 0.500000
O O1 0.500000 0.648496 0.671636
O O2 0.412692 0.619586 0.724222
O O3 0.425187 0.717252 0.639018
O O4 0.434405 0.608313 0.578418
O O5 0.854535 0.927851 0.158235
O O6 0.784779 0.868075 0.110527
O O7 0.793384 0.000000 0.100326
O O8 0.828388 0.924958 0.000000
O O9 0.940193 0.065994 0.844518
O O10 0.894384 0.000000 0.741193
O O11 0.942389 0.417531 0.500000
O O12 0.914511 0.331291 0.406444
O O13 0.000000 0.361862 0.411066
O O14 0.659687 0.729087 0.877667
O O15 0.608532 0.755754 0.000000
O O16 0.709275 0.789389 0.500000
O O17 0.750000 0.750000 0.625841
O O18 0.574513 0.500000 0.500000
O O19 0.500000 0.436002 0.500000
#
# Coordination Sequence:
#
# PCOD9511979 Si02
#       7
#    32  32  32  32  32  32  16
#     4  11  22  35  54  78 108 149 192 241 294 342
#     4   9  17  33  58  85 117 159 196 227 280 353
#     4  11  22  35  52  78 114 150 193 239 277 326
#     4  10  20  33  51  76 111 151 186 224 273 330
#     4  10  19  35  56  80 111 144 185 232 284 346
#     4   9  17  32  59  92 117 142 183 240 294 343
#     4   9  18  34  54  74  97 138 195 239 282 343
#
# _framework density 19.476278000000001
#
# number of rings (size 3 to 8) (size 9 to 14) (size 15 to 20)
#    0.000    2.077    2.308    1.846    0.000    4.000 
#    0.000    2.308    0.000    3.692    0.000    2.154 
#    0.000    0.000    0.000    0.000    0.000    0.000 
#
# Total GULP energy -289535.896659 kJ/mol
# GULP energy per Si atom -5567.998013 kJ/mol
# Density = 1.943195 g / cm^3
# Si number density = 19.476278 Si / 1000 Ang^3
#
#
#
# Elastic Constant Matrix: (Units=GPa)
#
#
# Indices 1 2 3 4 5 6 
#
# 1 76.7443 36.3761 1.0452 0.0000 0.0000 0.0000
# 2 36.3761 121.2544 20.2200 0.0000 0.0000 0.0000
# 3 1.0452 20.2200 53.8492 0.0000 0.0000 0.0000
# 4 0.0000 0.0000 0.0000 74.3752 0.0000 0.0000
# 5 0.0000 0.0000 0.0000 0.0000 -3.3604 0.0000
# 6 0.0000 0.0000 0.0000 0.0000 0.0000 19.4631
#
#
#
# Elastic Compliance Matrix: (Units=1/GPa)
#
#
# Indices 1 2 3 4 5 6 
#
# 1 0.015306 -0.004846 0.001522 0.000000 0.000000 0.000000
# 2 -0.004846 0.010332 -0.003786 0.000000 0.000000 0.000000
# 3 0.001522 -0.003786 0.019962 0.000000 0.000000 0.000000
# 4 0.000000 0.000000 0.000000 0.013445 0.000000 0.000000
# 5 0.000000 0.000000 0.000000 0.000000 -0.297587 0.000000
# 6 0.000000 0.000000 0.000000 0.000000 0.000000 0.051379
#
#
# Mechanical properties :
#
#
# Convention : Reuss Voigt Hill
#
# Bulk Modulus (GPa) = 31.86436 40.79226 36.32831
# Shear Modulus (GPa) = -30.77243 31.04270 0.13514
#
# Velocity S-wave (km/s) = -3.97923 3.99666 0.26370
# Velocity P-wave (km/s) = 2.17169 6.50291 4.33426
#
# Compressibility (1/GPa) = 0.03138303
#
# Stress axis : x y z
#
# Youngs Moduli (GPa) = 65.33211 96.78558 50.09446
#
# Poissons Ratio (x) = 0.46900 -0.07627
# Poissons Ratio (y) = 0.31658 0.18964
# Poissons Ratio (z) = -0.09947 0.36639
#
# Static dielectric constant tensor:
#      x y z
#    x 1.683520 0.000000 0.000000 
#    y 0.000000 1.721890 0.000000 
#    z 0.000000 0.000000 1.720070 
# 
# From -- ./inp_files/27897.got.cif
#   From: 2010.05.17/outbox.cif.g08.bks.cpg/sg69_14_cif.got.tgz:27897.got - 2010.06.03 19:29:58.
