data_PCOD9511020
_publ_section_title
;
Structure prediction by ZEFSAII (Michael W. Deem and Ramdas Pophale) SiO2 
 PCOD9511020
Probable space group: F M M M
;
_chemical_formula_sum "Si O2"
_cell_formula_units_Z 100
_cell_length_a 22.826743
_cell_length_b 14.117596
_cell_length_c 15.592455
_cell_angle_alpha 90.000000
_cell_angle_beta 90.000000
_cell_angle_gamma 90.000000
_cell_volume 5024.804834
_symmetry_space_group_name_H-M "F M M M"
_symmetry_group_IT_number 69
_symmetry_cell_setting 'orthorhombic'
loop_
_space_group_symop_operation_xyz
x,y,z
-x,-y,z
x,-y,-z
-x,y,-z
-x,-y,-z
x,y,-z
-x,y,z
x,-y,z
x,1/2+y,1/2+z
-x,1/2-y,1/2+z
x,1/2-y,1/2-z
-x,1/2+y,1/2-z
-x,1/2-y,1/2-z
x,1/2+y,1/2-z
-x,1/2+y,1/2+z
x,1/2-y,1/2+z
1/2+x,y,1/2+z
1/2-x,-y,1/2+z
1/2+x,-y,1/2-z
1/2-x,y,1/2-z
1/2-x,-y,1/2-z
1/2+x,y,1/2-z
1/2-x,y,1/2+z
1/2+x,-y,1/2+z
1/2+x,1/2+y,z
1/2-x,1/2-y,z
1/2+x,1/2-y,-z
1/2-x,1/2+y,-z
1/2-x,1/2-y,-z
1/2+x,1/2+y,-z
1/2-x,1/2+y,z
1/2+x,1/2-y,z
loop_
_atom_site_type_symbol
_atom_site_label
_atom_site_fract_x
_atom_site_fract_y
_atom_site_fract_z
Si Si1 0.712414 0.000000 0.000000
Si Si2 0.130508 0.688841 0.329358
Si Si3 0.792239 0.500000 0.667265
Si Si4 0.371576 0.319706 0.500000
Si Si5 0.000000 0.166479 0.858507
Si Si6 0.000000 0.500000 0.500000
Si Si7 0.500000 0.327038 0.500000
O O1 0.752059 0.000000 0.083902
O O2 0.674918 0.903537 0.000000
O O3 0.153358 0.750000 0.250000
O O4 0.166984 0.592814 0.335966
O O5 0.133406 0.750991 0.416727
O O6 0.062076 0.664117 0.310936
O O7 0.750000 0.500000 0.750000
O O8 0.435555 0.370474 0.500000
O O9 0.000000 0.261519 0.915385
O O10 0.000000 0.081802 0.925940
#
# Coordination Sequence:
#
# PCOD9511020 Si02
#       7
#     8  32  16  16  16   4   8
#     4  12  26  42  62  89 122 165 218 248 296 382
#     4  11  23  41  65  91 125 161 202 261 317 368
#     4  12  27  42  60  90 121 163 216 254 299 371
#     4  10  22  41  65  92 122 161 202 258 318 368
#     4   9  18  34  61  94 121 152 196 245 310 374
#     4  10  16  30  60  94 132 158 184 246 304 360
#     4   7  16  34  58  89 118 146 190 240 302 364
#
# _framework density 19.901268999999999
#
# number of rings (size 3 to 8) (size 9 to 14) (size 15 to 20)
#    0.000    1.600    0.000    5.280    0.000    7.360 
#    0.000    0.000    0.000    7.680    0.000    0.000 
#    0.000    0.000    0.000    0.000    0.000    0.000 
#
# Total GULP energy -139321.359375 kJ/mol
# GULP energy per Si atom -5572.854375 kJ/mol
# Density = 1.985597 g / cm^3
# Si number density = 19.901269 Si / 1000 Ang^3
#
#
#
# Elastic Constant Matrix: (Units=GPa)
#
#
# Indices 1 2 3 4 5 6 
#
# 1 165.6083 91.0269 57.2066 0.0000 0.0000 0.0000
# 2 91.0269 147.1942 61.3144 0.0000 0.0000 0.0000
# 3 57.2066 61.3144 131.2399 0.0000 0.0000 0.0000
# 4 0.0000 0.0000 0.0000 35.3995 0.0000 0.0000
# 5 0.0000 0.0000 0.0000 0.0000 -19.8392 0.0000
# 6 0.0000 0.0000 0.0000 0.0000 0.0000 -896.4135
#
#
#
# Elastic Compliance Matrix: (Units=1/GPa)
#
#
# Indices 1 2 3 4 5 6 
#
# 1 0.009452 -0.005127 -0.001725 0.000000 0.000000 0.000000
# 2 -0.005127 0.011216 -0.003005 0.000000 0.000000 0.000000
# 3 -0.001725 -0.003005 0.009776 0.000000 0.000000 0.000000
# 4 0.000000 0.000000 0.000000 0.028249 0.000000 0.000000
# 5 0.000000 0.000000 0.000000 0.000000 -0.050405 0.000000
# 6 0.000000 0.000000 0.000000 0.000000 0.000000 -0.001116
#
#
# Mechanical properties :
#
#
# Convention : Reuss Voigt Hill
#
# Bulk Modulus (GPa) = 93.19925 95.90426 94.55175
# Shear Modulus (GPa) = 164.13493 -160.53767 1.79863
#
# Velocity S-wave (km/s) = 9.09141 -8.99123 0.95170
# Velocity P-wave (km/s) = 12.53544 7.71330 6.98722
#
# Compressibility (1/GPa) = 0.01072970
#
# Stress axis : x y z
#
# Youngs Moduli (GPa) = 105.79596 89.15728 102.29558
#
# Poissons Ratio (x) = 0.45709 0.17645
# Poissons Ratio (y) = 0.54240 0.30743
# Poissons Ratio (z) = 0.18249 0.26795
#
# Static dielectric constant tensor:
#      x y z
#    x 1.741390 0.000000 0.000000 
#    y 0.000000 1.651540 0.000000 
#    z 0.000000 0.000000 1.691510 
# 
# From -- ./inp_files/24050.got.cif
#   From: 2010.05.17/outbox.cif.g08.bks.cpg/sg69_13_cif.got.tgz:24050.got - 2010.06.03 19:29:58.
