data_PCOD9511467
_publ_section_title
;
Structure prediction by ZEFSAII (Michael W. Deem and Ramdas Pophale) SiO2 
 PCOD9511467
Probable space group: F M M M
;
_chemical_formula_sum "Si O2"
_cell_formula_units_Z 128
_cell_length_a 18.248140
_cell_length_b 18.514273
_cell_length_c 20.341201
_cell_angle_alpha 90.000000
_cell_angle_beta 90.000000
_cell_angle_gamma 90.000000
_cell_volume 6872.296029
_symmetry_space_group_name_H-M "F M M M"
_symmetry_group_IT_number 69
_symmetry_cell_setting 'orthorhombic'
loop_
_space_group_symop_operation_xyz
x,y,z
-x,-y,z
x,-y,-z
-x,y,-z
-x,-y,-z
x,y,-z
-x,y,z
x,-y,z
x,1/2+y,1/2+z
-x,1/2-y,1/2+z
x,1/2-y,1/2-z
-x,1/2+y,1/2-z
-x,1/2-y,1/2-z
x,1/2+y,1/2-z
-x,1/2+y,1/2+z
x,1/2-y,1/2+z
1/2+x,y,1/2+z
1/2-x,-y,1/2+z
1/2+x,-y,1/2-z
1/2-x,y,1/2-z
1/2-x,-y,1/2-z
1/2+x,y,1/2-z
1/2-x,y,1/2+z
1/2+x,-y,1/2+z
1/2+x,1/2+y,z
1/2-x,1/2-y,z
1/2+x,1/2-y,-z
1/2-x,1/2+y,-z
1/2-x,1/2-y,-z
1/2+x,1/2+y,-z
1/2-x,1/2+y,z
1/2+x,1/2-y,z
loop_
_atom_site_type_symbol
_atom_site_label
_atom_site_fract_x
_atom_site_fract_y
_atom_site_fract_z
Si Si1 0.201502 0.177163 0.500000
Si Si2 0.913185 0.137879 0.136300
Si Si3 0.157634 0.414383 0.500000
Si Si4 0.836785 0.920920 0.736997
Si Si5 0.667436 0.214552 0.857471
O O1 0.250000 0.250000 0.500000
O O2 0.258176 0.111266 0.500000
O O3 0.160429 0.182731 0.431121
O O4 0.878064 0.090328 0.194138
O O5 0.888050 0.219614 0.150838
O O6 0.000000 0.130125 0.134845
O O7 0.879432 0.116774 0.065745
O O8 0.151080 0.500000 0.500000
O O9 0.750000 0.921962 0.750000
O O10 0.847687 0.850913 0.691763
O O11 0.857028 0.000000 0.708859
O O12 0.750000 0.250000 0.849191
#
# Coordination Sequence:
#
# PCOD9511467 Si02
#       5
#    16  32  16  32  32
#     4  10  18  38  64  91 117 159 208 247 299 354
#     4  12  25  40  62  93 125 165 208 254 319 382
#     4  12  23  39  64  94 130 166 201 252 319 378
#     4  11  23  38  59  88 121 163 209 252 305 367
#     4  11  20  39  66  86 121 164 206 257 302 364
#
# _framework density 18.625506999999999
#
# number of rings (size 3 to 8) (size 9 to 14) (size 15 to 20)
#    0.000    0.750    7.500    1.875    0.000    7.500 
#    0.000    0.000    0.000    0.000    0.000    0.000 
#    0.000    7.000    0.000    0.000    0.000    0.000 
#
# Total GULP energy -178732.595512 kJ/mol
# GULP energy per Si atom -5585.393610 kJ/mol
# Density = 1.858311 g / cm^3
# Si number density = 18.625507 Si / 1000 Ang^3
#
#
#
# Elastic Constant Matrix: (Units=GPa)
#
#
# Indices 1 2 3 4 5 6 
#
# 1 29.6459 7.1727 -7.6191 0.0000 0.0000 0.0000
# 2 7.1727 150.0267 47.6905 0.0000 0.0000 0.0000
# 3 -7.6191 47.6905 95.2987 0.0000 0.0000 0.0000
# 4 0.0000 0.0000 0.0000 21.9486 0.0000 0.0000
# 5 0.0000 0.0000 0.0000 0.0000 8.8699 0.0000
# 6 0.0000 0.0000 0.0000 0.0000 0.0000 -109.7154
#
#
#
# Elastic Compliance Matrix: (Units=1/GPa)
#
#
# Indices 1 2 3 4 5 6 
#
# 1 0.035612 -0.003101 0.004399 0.000000 0.000000 0.000000
# 2 -0.003101 0.008196 -0.004350 0.000000 0.000000 0.000000
# 3 0.004399 -0.004350 0.013022 0.000000 0.000000 0.000000
# 4 0.000000 0.000000 0.000000 0.045561 0.000000 0.000000
# 5 0.000000 0.000000 0.000000 0.000000 0.112740 0.000000
# 6 0.000000 0.000000 0.000000 0.000000 0.000000 -0.009114
#
#
# Mechanical properties :
#
#
# Convention : Reuss Voigt Hill
#
# Bulk Modulus (GPa) = 19.71329 41.05105 30.38217
# Shear Modulus (GPa) = 21.83125 -0.59757 10.61684
#
# Velocity S-wave (km/s) = 3.42733 -0.56703 2.39009
# Velocity P-wave (km/s) = 5.12534 4.65396 4.89533
#
# Compressibility (1/GPa) = 0.05072720
#
# Stress axis : x y z
#
# Youngs Moduli (GPa) = 28.08019 122.00477 76.79471
#
# Poissons Ratio (x) = 0.37833 -0.33782
# Poissons Ratio (y) = 0.08708 0.33403
# Poissons Ratio (z) = -0.12352 0.53068
#
# Static dielectric constant tensor:
#      x y z
#    x 1.592880 0.000000 0.000000 
#    y 0.000000 1.654370 0.000000 
#    z 0.000000 0.000000 1.667540 
# 
# From -- ./inp_files/31617.got.cif
#   From: 2010.05.17/outbox.cif.g08.bks.cpg/sg69_16_cif.got.tgz:31617.got - 2010.06.03 19:29:58.
