data_PCOD9511516
_publ_section_title
;
Structure prediction by ZEFSAII (Michael W. Deem and Ramdas Pophale) SiO2 
 PCOD9511516
Probable space group: F M M M
;
_chemical_formula_sum "Si O2"
_cell_formula_units_Z 160
_cell_length_a 17.373982
_cell_length_b 23.699100
_cell_length_c 20.691400
_cell_angle_alpha 90.000000
_cell_angle_beta 90.000000
_cell_angle_gamma 90.000000
_cell_volume 8519.637122
_symmetry_space_group_name_H-M "F M M M"
_symmetry_group_IT_number 69
_symmetry_cell_setting 'orthorhombic'
loop_
_space_group_symop_operation_xyz
x,y,z
-x,-y,z
x,-y,-z
-x,y,-z
-x,-y,-z
x,y,-z
-x,y,z
x,-y,z
x,1/2+y,1/2+z
-x,1/2-y,1/2+z
x,1/2-y,1/2-z
-x,1/2+y,1/2-z
-x,1/2-y,1/2-z
x,1/2+y,1/2-z
-x,1/2+y,1/2+z
x,1/2-y,1/2+z
1/2+x,y,1/2+z
1/2-x,-y,1/2+z
1/2+x,-y,1/2-z
1/2-x,y,1/2-z
1/2-x,-y,1/2-z
1/2+x,y,1/2-z
1/2-x,y,1/2+z
1/2+x,-y,1/2+z
1/2+x,1/2+y,z
1/2-x,1/2-y,z
1/2+x,1/2-y,-z
1/2-x,1/2+y,-z
1/2-x,1/2-y,-z
1/2+x,1/2+y,-z
1/2-x,1/2+y,z
1/2+x,1/2-y,z
loop_
_atom_site_type_symbol
_atom_site_label
_atom_site_fract_x
_atom_site_fract_y
_atom_site_fract_z
Si Si1 0.304645 0.064026 0.882298
Si Si2 0.910475 0.253956 0.671806
Si Si3 0.692760 0.353429 0.811603
Si Si4 0.089529 0.656457 0.929652
Si Si5 0.088375 0.938435 0.256327
O O1 0.234322 0.103270 0.859809
O O2 0.356980 0.101814 0.928302
O O3 0.357337 0.059330 0.818249
O O4 0.285668 0.000000 0.902842
O O5 0.907740 0.250000 0.750000
O O6 0.842653 0.297963 0.656409
O O7 0.893935 0.196905 0.631542
O O8 0.000000 0.269309 0.655554
O O9 0.750000 0.341962 0.750000
O O10 0.618866 0.386979 0.784897
O O11 0.000000 0.639983 0.924156
O O12 0.098934 0.685362 0.000000
O O13 0.000000 0.930828 0.274973
O O14 0.095913 0.000000 0.223297
#
# Coordination Sequence:
#
# PCOD9511516 Si02
#       5
#    32  32  32  32  32
#     4  10  20  33  50  74 105 140 178 219 265 318
#     4  10  20  35  56  80 106 141 185 228 269 318
#     4  10  19  30  48  75 109 141 174 218 269 318
#     4  10  22  39  57  78 105 137 176 222 268 316
#     4   9  16  27  46  73 105 140 178 220 265 313
#
# _framework density 18.780142000000001
#
# number of rings (size 3 to 8) (size 9 to 14) (size 15 to 20)
#    0.000    2.200    0.000    4.200    0.000    8.400 
#    0.000    3.000    0.000    0.000    0.000    0.000 
#    0.000    0.000    0.000   18.000    0.000    6.000 
#
# Total GULP energy -222911.725011 kJ/mol
# GULP energy per Si atom -5572.793125 kJ/mol
# Density = 1.873740 g / cm^3
# Si number density = 18.780142 Si / 1000 Ang^3
#
#
#
# Elastic Constant Matrix: (Units=GPa)
#
#
# Indices 1 2 3 4 5 6 
#
# 1 64.1592 54.8085 3.2050 0.0000 0.0000 0.0000
# 2 54.8085 106.8583 35.3818 0.0000 0.0000 0.0000
# 3 3.2050 35.3818 61.9899 0.0000 0.0000 0.0000
# 4 0.0000 0.0000 0.0000 9.1800 0.0000 0.0000
# 5 0.0000 0.0000 0.0000 0.0000 4.0836 0.0000
# 6 0.0000 0.0000 0.0000 0.0000 0.0000 34.1681
#
#
#
# Elastic Compliance Matrix: (Units=1/GPa)
#
#
# Indices 1 2 3 4 5 6 
#
# 1 0.031639 -0.019342 0.009404 0.000000 0.000000 0.000000
# 2 -0.019342 0.023363 -0.012335 0.000000 0.000000 0.000000
# 3 0.009404 -0.012335 0.022686 0.000000 0.000000 0.000000
# 4 0.000000 0.000000 0.000000 0.108932 0.000000 0.000000
# 5 0.000000 0.000000 0.000000 0.000000 0.244883 0.000000
# 6 0.000000 0.000000 0.000000 0.000000 0.000000 0.029267
#
#
# Mechanical properties :
#
#
# Convention : Reuss Voigt Hill
#
# Bulk Modulus (GPa) = 30.17269 46.64421 38.40845
# Shear Modulus (GPa) = 9.68310 18.79381 14.23845
#
# Velocity S-wave (km/s) = 2.27315 3.16686 2.75647
# Velocity P-wave (km/s) = 4.79487 6.18570 5.53415
#
# Compressibility (1/GPa) = 0.03314256
#
# Stress axis : x y z
#
# Youngs Moduli (GPa) = 31.60628 42.80296 44.08053
#
# Poissons Ratio (x) = 0.82788 -0.41453
# Poissons Ratio (y) = 0.61132 0.54372
# Poissons Ratio (z) = -0.29722 0.52796
#
# Static dielectric constant tensor:
#      x y z
#    x 1.656180 0.000000 0.000000 
#    y 0.000000 1.708630 0.000000 
#    z 0.000000 0.000000 1.653980 
# 
# From -- ./inp_files/24576.got.cif
#   From: 2010.05.17/outbox.cif.g08.bks.cpg/sg69_13_cif.got.tgz:24576.got - 2010.06.03 19:29:58.
