data_PCOD9511321
_publ_section_title
;
Structure prediction by ZEFSAII (Michael W. Deem and Ramdas Pophale) SiO2 
 PCOD9511321
Probable space group: F M M M
;
_chemical_formula_sum "Si O2"
_cell_formula_units_Z 120
_cell_length_a 17.988250
_cell_length_b 26.848955
_cell_length_c 14.005991
_cell_angle_alpha 90.000000
_cell_angle_beta 90.000000
_cell_angle_gamma 90.000000
_cell_volume 6764.413454
_symmetry_space_group_name_H-M "F M M M"
_symmetry_group_IT_number 69
_symmetry_cell_setting 'orthorhombic'
loop_
_space_group_symop_operation_xyz
x,y,z
-x,-y,z
x,-y,-z
-x,y,-z
-x,-y,-z
x,y,-z
-x,y,z
x,-y,z
x,1/2+y,1/2+z
-x,1/2-y,1/2+z
x,1/2-y,1/2-z
-x,1/2+y,1/2-z
-x,1/2-y,1/2-z
x,1/2+y,1/2-z
-x,1/2+y,1/2+z
x,1/2-y,1/2+z
1/2+x,y,1/2+z
1/2-x,-y,1/2+z
1/2+x,-y,1/2-z
1/2-x,y,1/2-z
1/2-x,-y,1/2-z
1/2+x,y,1/2-z
1/2-x,y,1/2+z
1/2+x,-y,1/2+z
1/2+x,1/2+y,z
1/2-x,1/2-y,z
1/2+x,1/2-y,-z
1/2-x,1/2+y,-z
1/2-x,1/2-y,-z
1/2+x,1/2+y,-z
1/2-x,1/2+y,z
1/2+x,1/2-y,z
loop_
_atom_site_type_symbol
_atom_site_label
_atom_site_fract_x
_atom_site_fract_y
_atom_site_fract_z
Si Si1 0.335637 0.109512 0.786756
Si Si2 0.312771 0.792521 0.500000
Si Si3 0.414230 0.798848 0.315576
Si Si4 0.715713 0.390839 0.500000
Si Si5 0.213661 0.000000 0.500000
Si Si6 0.835365 0.500000 0.787176
O O1 0.250000 0.113318 0.750000
O O2 0.382298 0.153713 0.741207
O O3 0.365209 0.054267 0.758578
O O4 0.330880 0.113072 0.901976
O O5 0.250000 0.750000 0.500000
O O6 0.363474 0.789070 0.406964
O O7 0.273794 0.846348 0.500000
O O8 0.500000 0.807383 0.342249
O O9 0.410384 0.750000 0.250000
O O10 0.753185 0.446163 0.500000
O O11 0.167250 0.000000 0.597569
O O12 0.750000 0.500000 0.750000
#
# Coordination Sequence:
#
# PCOD9511321 Si02
#       6
#    32  16  32  16   8  16
#     4  10  18  34  57  84 114 147 192 233 280 335
#     4  12  23  37  62  86 109 145 194 234 276 342
#     4  11  25  41  56  81 117 151 184 234 292 342
#     4  10  18  31  56  90 108 145 188 238 277 321
#     4   8  16  28  46  80 124 134 172 240 288 310
#     4   8  16  28  51  82 111 144 183 235 277 323
#
# _framework density 17.739896000000002
#
# number of rings (size 3 to 8) (size 9 to 14) (size 15 to 20)
#    0.000    1.867    2.667    2.000    0.000    0.000 
#    0.000    2.667    0.000    0.000    0.000    8.400 
#    0.000    0.000    0.000    0.000    0.000    0.000 
#
# Total GULP energy -167216.652480 kJ/mol
# GULP energy per Si atom -5573.888416 kJ/mol
# Density = 1.769952 g / cm^3
# Si number density = 17.739896 Si / 1000 Ang^3
#
#
#
# Elastic Constant Matrix: (Units=GPa)
#
#
# Indices 1 2 3 4 5 6 
#
# 1 88.2207 79.4127 46.6808 0.0000 0.0000 0.0000
# 2 79.4127 168.8647 44.2650 0.0000 0.0000 0.0000
# 3 46.6808 44.2650 111.1098 0.0000 0.0000 0.0000
# 4 0.0000 0.0000 0.0000 25.5336 0.0000 0.0000
# 5 0.0000 0.0000 0.0000 0.0000 -23.2049 0.0000
# 6 0.0000 0.0000 0.0000 0.0000 0.0000 12.4266
#
#
#
# Elastic Compliance Matrix: (Units=1/GPa)
#
#
# Indices 1 2 3 4 5 6 
#
# 1 0.022649 -0.009108 -0.005887 0.000000 0.000000 0.000000
# 2 -0.009108 0.010275 -0.000267 0.000000 0.000000 0.000000
# 3 -0.005887 -0.000267 0.011580 0.000000 0.000000 0.000000
# 4 0.000000 0.000000 0.000000 0.039164 0.000000 0.000000
# 5 0.000000 0.000000 0.000000 0.000000 -0.043094 0.000000
# 6 0.000000 0.000000 0.000000 0.000000 0.000000 0.080473
#
#
# Mechanical properties :
#
#
# Convention : Reuss Voigt Hill
#
# Bulk Modulus (GPa) = 71.53123 78.76803 75.14963
# Shear Modulus (GPa) = 32.00406 16.14017 24.07211
#
# Velocity S-wave (km/s) = 4.25205 3.01960 3.68767
# Velocity P-wave (km/s) = 8.03220 7.52697 7.78369
#
# Compressibility (1/GPa) = 0.01397991
#
# Stress axis : x y z
#
# Youngs Moduli (GPa) = 44.15234 97.32241 86.35758
#
# Poissons Ratio (x) = 0.88641 0.50839
# Poissons Ratio (y) = 0.40214 0.02305
# Poissons Ratio (z) = 0.25992 0.02598
#
# Static dielectric constant tensor:
#      x y z
#    x 1.564510 0.000000 0.000000 
#    y 0.000000 1.636780 0.000000 
#    z 0.000000 0.000000 1.158290 
# 
# From -- ./inp_files/14455.got.cif
#   From: 2010.05.17/outbox.cif.g08.bks.cpg/sg69_8_cif.got.tgz:14455.got - 2010.06.03 19:29:58.
