data_PCOD9511571
_publ_section_title
;
Structure prediction by ZEFSAII (Michael W. Deem and Ramdas Pophale) SiO2 
 PCOD9511571
Probable space group: F M M M
;
_chemical_formula_sum "Si O2"
_cell_formula_units_Z 208
_cell_length_a 28.688076
_cell_length_b 15.457753
_cell_length_c 27.938912
_cell_angle_alpha 90.000000
_cell_angle_beta 90.000000
_cell_angle_gamma 90.000000
_cell_volume 12389.599731
_symmetry_space_group_name_H-M "F M M M"
_symmetry_group_IT_number 69
_symmetry_cell_setting 'orthorhombic'
loop_
_space_group_symop_operation_xyz
x,y,z
-x,-y,z
x,-y,-z
-x,y,-z
-x,-y,-z
x,y,-z
-x,y,z
x,-y,z
x,1/2+y,1/2+z
-x,1/2-y,1/2+z
x,1/2-y,1/2-z
-x,1/2+y,1/2-z
-x,1/2-y,1/2-z
x,1/2+y,1/2-z
-x,1/2+y,1/2+z
x,1/2-y,1/2+z
1/2+x,y,1/2+z
1/2-x,-y,1/2+z
1/2+x,-y,1/2-z
1/2-x,y,1/2-z
1/2-x,-y,1/2-z
1/2+x,y,1/2-z
1/2-x,y,1/2+z
1/2+x,-y,1/2+z
1/2+x,1/2+y,z
1/2-x,1/2-y,z
1/2+x,1/2-y,-z
1/2-x,1/2+y,-z
1/2-x,1/2-y,-z
1/2+x,1/2+y,-z
1/2-x,1/2+y,z
1/2+x,1/2-y,z
loop_
_atom_site_type_symbol
_atom_site_label
_atom_site_fract_x
_atom_site_fract_y
_atom_site_fract_z
Si Si1 0.585042 0.099083 0.622225
Si Si2 0.053447 0.900695 0.374272
Si Si3 0.444666 0.760682 0.305106
Si Si4 0.163555 0.844131 0.055483
Si Si5 0.363759 0.355166 0.555206
Si Si6 0.737487 0.100646 0.943953
Si Si7 0.500000 0.395086 0.054302
O O1 0.582567 0.164742 0.666318
O O2 0.632616 0.102548 0.592336
O O3 0.545278 0.129432 0.584585
O O4 0.574836 0.000000 0.636428
O O5 0.060892 0.829746 0.333054
O O6 0.091966 0.884009 0.414621
O O7 0.000000 0.889054 0.391913
O O8 0.057543 0.000000 0.357361
O O9 0.500000 0.783280 0.306335
O O10 0.430826 0.750000 0.250000
O O11 0.142360 0.748227 0.055363
O O12 0.217566 0.845130 0.071554
O O13 0.161811 0.876322 0.000000
O O14 0.368549 0.384704 0.500000
O O15 0.314264 0.387872 0.576441
O O16 0.750693 0.000000 0.940498
O O17 0.731356 0.124036 0.000000
O O18 0.500000 0.500000 0.051436
O O19 0.500000 0.361578 0.000000
#
# Coordination Sequence:
#
# PCOD9511571 Si02
#       7
#    32  32  32  32  32  32  16
#     4  11  20  32  51  77 107 139 176 212 259 321
#     4  10  21  37  55  77 105 137 178 222 265 315
#     4  10  21  38  57  76 101 132 172 225 277 319
#     4  10  19  31  48  75 110 146 179 215 258 309
#     4  10  19  32  51  75 107 147 185 218 257 307
#     4   9  17  29  46  71 104 142 183 221 257 301
#     4   9  18  30  45  70 107 145 174 201 240 302
#
# _framework density 16.788274000000001
#
# number of rings (size 3 to 8) (size 9 to 14) (size 15 to 20)
#    0.000    2.077    2.308    1.846    0.000    5.231 
#    0.000    2.308    0.000    0.000    0.000    2.154 
#    0.000    3.692    0.000    0.000    0.000    0.000 
#
# Total GULP energy -289905.276090 kJ/mol
# GULP energy per Si atom -5575.101463 kJ/mol
# Density = 1.675006 g / cm^3
# Si number density = 16.788274 Si / 1000 Ang^3
#
#
#
# Elastic Constant Matrix: (Units=GPa)
#
#
# Indices 1 2 3 4 5 6 
#
# 1 107.4626 37.1114 52.0709 0.0000 0.0000 0.0000
# 2 37.1114 78.2546 38.0307 0.0000 0.0000 0.0000
# 3 52.0709 38.0307 91.3615 0.0000 0.0000 0.0000
# 4 0.0000 0.0000 0.0000 11.5336 0.0000 0.0000
# 5 0.0000 0.0000 0.0000 0.0000 -0.4636 0.0000
# 6 0.0000 0.0000 0.0000 0.0000 0.0000 25.7926
#
#
#
# Elastic Compliance Matrix: (Units=1/GPa)
#
#
# Indices 1 2 3 4 5 6 
#
# 1 0.013519 -0.003343 -0.006314 0.000000 0.000000 0.000000
# 2 -0.003343 0.016846 -0.005107 0.000000 0.000000 0.000000
# 3 -0.006314 -0.005107 0.016670 0.000000 0.000000 0.000000
# 4 0.000000 0.000000 0.000000 0.086703 0.000000 0.000000
# 5 0.000000 0.000000 0.000000 0.000000 -2.157237 0.000000
# 6 0.000000 0.000000 0.000000 0.000000 0.000000 0.038771
#
#
# Mechanical properties :
#
#
# Convention : Reuss Voigt Hill
#
# Bulk Modulus (GPa) = 57.11766 59.05606 58.08686
# Shear Modulus (GPa) = -2.56494 17.36360 7.39933
#
# Velocity S-wave (km/s) = -1.23739 3.21949 2.10167
# Velocity P-wave (km/s) = 5.66169 7.00525 6.36900
#
# Compressibility (1/GPa) = 0.01750772
#
# Stress axis : x y z
#
# Youngs Moduli (GPa) = 73.96819 59.36047 59.98836
#
# Poissons Ratio (x) = 0.19844 0.37875
# Poissons Ratio (y) = 0.24728 0.30637
# Poissons Ratio (z) = 0.46701 0.30316
#
# Static dielectric constant tensor:
#      x y z
#    x 1.595160 0.000000 0.000000 
#    y 0.000000 1.605060 0.000000 
#    z 0.000000 0.000000 1.533650 
# 
# From -- ./inp_files/38504.got.cif
#   From: 2010.05.17/outbox.cif.g08.bks.cpg/sg69_20_cif.got.tgz:38504.got - 2010.06.03 19:29:58.
