data_PCOD9511263
_publ_section_title
;
Structure prediction by ZEFSAII (Michael W. Deem and Ramdas Pophale) SiO2 
 PCOD9511263
Probable space group: F M M M
;
_chemical_formula_sum "Si O2"
_cell_formula_units_Z 160
_cell_length_a 19.026292
_cell_length_b 21.721529
_cell_length_c 22.072545
_cell_angle_alpha 90.000000
_cell_angle_beta 90.000000
_cell_angle_gamma 90.000000
_cell_volume 9122.144784
_symmetry_space_group_name_H-M "F M M M"
_symmetry_group_IT_number 69
_symmetry_cell_setting 'orthorhombic'
loop_
_space_group_symop_operation_xyz
x,y,z
-x,-y,z
x,-y,-z
-x,y,-z
-x,-y,-z
x,y,-z
-x,y,z
x,-y,z
x,1/2+y,1/2+z
-x,1/2-y,1/2+z
x,1/2-y,1/2-z
-x,1/2+y,1/2-z
-x,1/2-y,1/2-z
x,1/2+y,1/2-z
-x,1/2+y,1/2+z
x,1/2-y,1/2+z
1/2+x,y,1/2+z
1/2-x,-y,1/2+z
1/2+x,-y,1/2-z
1/2-x,y,1/2-z
1/2-x,-y,1/2-z
1/2+x,y,1/2-z
1/2-x,y,1/2+z
1/2+x,-y,1/2+z
1/2+x,1/2+y,z
1/2-x,1/2-y,z
1/2+x,1/2-y,-z
1/2-x,1/2+y,-z
1/2-x,1/2-y,-z
1/2+x,1/2+y,-z
1/2-x,1/2+y,z
1/2+x,1/2-y,z
loop_
_atom_site_type_symbol
_atom_site_label
_atom_site_fract_x
_atom_site_fract_y
_atom_site_fract_z
Si Si1 0.720806 0.180854 0.188099
Si Si2 0.192287 0.500000 0.936275
Si Si3 0.582895 0.573473 0.864236
Si Si4 0.919818 0.129891 0.733281
Si Si5 0.422788 0.500000 0.335073
Si Si6 0.213784 0.621069 0.432066
O O1 0.750000 0.148865 0.250000
O O2 0.750000 0.250000 0.189628
O O3 0.637349 0.172020 0.199070
O O4 0.750145 0.155805 0.124567
O O5 0.139235 0.500000 0.881955
O O6 0.241727 0.441285 0.934532
O O7 0.152209 0.500000 0.000000
O O8 0.500000 0.577290 0.878989
O O9 0.598203 0.500000 0.854175
O O10 0.594791 0.614501 0.803750
O O11 0.634811 0.601478 0.914094
O O12 0.917678 0.061911 0.703839
O O13 0.000000 0.153410 0.727824
O O14 0.500000 0.500000 0.364343
O O15 0.216398 0.649491 0.500000
#
# Coordination Sequence:
#
# PCOD9511263 Si02
#       6
#    32  16  32  32  16  32
#     4  11  23  39  59  83 108 143 199 241 275 330
#     4  10  20  32  50  81 113 147 187 221 275 346
#     4  10  19  32  53  84 119 150 181 222 281 345
#     4  10  19  34  57  87 118 145 182 234 291 341
#     4  10  18  30  55  86 113 147 181 226 290 346
#     4  11  22  36  55  81 116 152 185 228 284 337
#
# _framework density 17.539735
#
# number of rings (size 3 to 8) (size 9 to 14) (size 15 to 20)
#    0.000    1.600    6.000    0.000    0.000    1.000 
#    0.000    7.000    0.000    0.600    0.000    0.000 
#    0.000    0.000    0.000    0.000    0.000    0.000 
#
# Total GULP energy -222710.967906 kJ/mol
# GULP energy per Si atom -5567.774198 kJ/mol
# Density = 1.749981 g / cm^3
# Si number density = 17.539735 Si / 1000 Ang^3
#
#
#
# Elastic Constant Matrix: (Units=GPa)
#
#
# Indices 1 2 3 4 5 6 
#
# 1 110.1976 23.4586 55.7599 0.0000 0.0000 0.0000
# 2 23.4586 51.2896 25.9610 0.0000 0.0000 0.0000
# 3 55.7599 25.9610 135.8645 0.0000 0.0000 0.0000
# 4 0.0000 0.0000 0.0000 31.8686 0.0000 0.0000
# 5 0.0000 0.0000 0.0000 0.0000 3.9124 0.0000
# 6 0.0000 0.0000 0.0000 0.0000 0.0000 1848.9700
#
#
#
# Elastic Compliance Matrix: (Units=1/GPa)
#
#
# Indices 1 2 3 4 5 6 
#
# 1 0.011937 -0.003299 -0.004269 0.000000 0.000000 0.000000
# 2 -0.003299 0.022496 -0.002945 0.000000 0.000000 0.000000
# 3 -0.004269 -0.002945 0.009675 0.000000 0.000000 0.000000
# 4 0.000000 0.000000 0.000000 0.031379 0.000000 0.000000
# 5 0.000000 0.000000 0.000000 0.000000 0.255596 0.000000
# 6 0.000000 0.000000 0.000000 0.000000 0.000000 0.000541
#
#
# Mechanical properties :
#
#
# Convention : Reuss Voigt Hill
#
# Bulk Modulus (GPa) = 43.32088 56.41230 49.86659
# Shear Modulus (GPa) = 13.87568 389.76168 201.81868
#
# Velocity S-wave (km/s) = 2.81570 14.92310 10.73841
# Velocity P-wave (km/s) = 5.94333 18.14288 13.49977
#
# Compressibility (1/GPa) = 0.02308356
#
# Stress axis : x y z
#
# Youngs Moduli (GPa) = 83.77460 44.45138 103.36117
#
# Poissons Ratio (x) = 0.14664 0.44121
# Poissons Ratio (y) = 0.27637 0.30437
# Poissons Ratio (z) = 0.35760 0.13090
#
# Static dielectric constant tensor:
#      x y z
#    x 1.615690 0.000000 0.000000 
#    y 0.000000 1.598340 0.000000 
#    z 0.000000 0.000000 1.649310 
# 
# From -- ./inp_files/24612.got.cif
#   From: 2010.05.17/outbox.cif.g08.bks.cpg/sg69_13_cif.got.tgz:24612.got - 2010.06.03 19:29:58.
