data_PCOD9511256
_publ_section_title
;
Structure prediction by ZEFSAII (Michael W. Deem and Ramdas Pophale) SiO2 
 PCOD9511256
Probable space group: F M M M
;
_chemical_formula_sum "Si O2"
_cell_formula_units_Z 176
_cell_length_a 28.061973
_cell_length_b 16.906916
_cell_length_c 18.547467
_cell_angle_alpha 90.000000
_cell_angle_beta 90.000000
_cell_angle_gamma 90.000000
_cell_volume 8799.686587
_symmetry_space_group_name_H-M "F M M M"
_symmetry_group_IT_number 69
_symmetry_cell_setting 'orthorhombic'
loop_
_space_group_symop_operation_xyz
x,y,z
-x,-y,z
x,-y,-z
-x,y,-z
-x,-y,-z
x,y,-z
-x,y,z
x,-y,z
x,1/2+y,1/2+z
-x,1/2-y,1/2+z
x,1/2-y,1/2-z
-x,1/2+y,1/2-z
-x,1/2-y,1/2-z
x,1/2+y,1/2-z
-x,1/2+y,1/2+z
x,1/2-y,1/2+z
1/2+x,y,1/2+z
1/2-x,-y,1/2+z
1/2+x,-y,1/2-z
1/2-x,y,1/2-z
1/2-x,-y,1/2-z
1/2+x,y,1/2-z
1/2-x,y,1/2+z
1/2+x,-y,1/2+z
1/2+x,1/2+y,z
1/2-x,1/2-y,z
1/2+x,1/2-y,-z
1/2-x,1/2+y,-z
1/2-x,1/2-y,-z
1/2+x,1/2+y,-z
1/2-x,1/2+y,z
1/2+x,1/2-y,z
loop_
_atom_site_type_symbol
_atom_site_label
_atom_site_fract_x
_atom_site_fract_y
_atom_site_fract_z
Si Si1 0.806956 0.251685 0.417678
Si Si2 0.442331 0.411696 0.000000
Si Si3 0.350181 0.167994 0.712550
Si Si4 0.553993 0.130811 0.086856
Si Si5 0.554540 0.687969 0.140672
Si Si6 0.846096 0.586255 0.144819
O O1 0.821856 0.265457 0.500000
O O2 0.750000 0.250000 0.413015
O O3 0.826824 0.320599 0.365585
O O4 0.825531 0.164553 0.394059
O O5 0.431030 0.364967 0.927656
O O6 0.422727 0.500000 0.000000
O O7 0.500000 0.415748 0.000000
O O8 0.335128 0.250000 0.750000
O O9 0.407056 0.171388 0.701745
O O10 0.338265 0.100489 0.769630
O O11 0.500000 0.102517 0.102255
O O12 0.556717 0.221781 0.113454
O O13 0.597690 0.088388 0.125665
O O14 0.560345 0.127817 0.000000
O O15 0.500000 0.671082 0.162104
O O16 0.827051 0.500000 0.122946
#
# Coordination Sequence:
#
# PCOD9511256 Si02
#       6
#    32  16  32  32  32  32
#     4  10  22  42  68  93 113 147 199 256 308 365
#     4   9  18  30  46  74 108 147 197 247 292 332
#     4  10  21  36  57  86 117 156 197 238 290 358
#     4  10  19  33  57  90 124 165 214 256 297 356
#     4  10  18  30  53  81 114 158 204 244 285 345
#     4  11  24  40  60  91 129 165 199 245 308 372
#
# _framework density 20.000713000000001
#
# number of rings (size 3 to 8) (size 9 to 14) (size 15 to 20)
#    0.000    1.909    4.545    0.545    1.273    6.909 
#    0.000    2.727    0.000    1.091    0.000    0.000 
#    0.000    0.000    0.000    0.000    0.000    0.000 
#
# Total GULP energy -245432.414943 kJ/mol
# GULP energy per Si atom -5578.009431 kJ/mol
# Density = 1.995519 g / cm^3
# Si number density = 20.000713 Si / 1000 Ang^3
#
#
#
# Elastic Constant Matrix: (Units=GPa)
#
#
# Indices 1 2 3 4 5 6 
#
# 1 60.8438 13.0805 24.5026 0.0000 0.0000 0.0000
# 2 13.0805 50.1313 -0.3378 0.0000 0.0000 0.0000
# 3 24.5026 -0.3378 83.4661 0.0000 0.0000 0.0000
# 4 0.0000 0.0000 0.0000 -11.7668 0.0000 0.0000
# 5 0.0000 0.0000 0.0000 0.0000 -15.7435 0.0000
# 6 0.0000 0.0000 0.0000 0.0000 0.0000 6.2540
#
#
#
# Elastic Compliance Matrix: (Units=1/GPa)
#
#
# Indices 1 2 3 4 5 6 
#
# 1 0.019926 -0.005239 -0.005871 0.000000 0.000000 0.000000
# 2 -0.005239 0.021325 0.001624 0.000000 0.000000 0.000000
# 3 -0.005871 0.001624 0.013711 0.000000 0.000000 0.000000
# 4 0.000000 0.000000 0.000000 -0.084985 0.000000 0.000000
# 5 0.000000 0.000000 0.000000 0.000000 -0.063518 0.000000
# 6 0.000000 0.000000 0.000000 0.000000 0.000000 0.159899
#
#
# Mechanical properties :
#
#
# Convention : Reuss Voigt Hill
#
# Bulk Modulus (GPa) = 27.78408 29.88132 28.83270
# Shear Modulus (GPa) = 51.37374 6.22846 28.80110
#
# Velocity S-wave (km/s) = 5.07363 1.76660 3.79885
# Velocity P-wave (km/s) = 6.94579 4.37421 5.80421
#
# Compressibility (1/GPa) = 0.03599184
#
# Stress axis : x y z
#
# Youngs Moduli (GPa) = 50.18574 46.89226 72.93462
#
# Poissons Ratio (x) = 0.24566 0.42818
# Poissons Ratio (y) = 0.26291 -0.11846
# Poissons Ratio (z) = 0.29463 -0.07616
#
# Static dielectric constant tensor:
#      x y z
#    x 1.723760 0.000000 0.000000 
#    y 0.000000 1.692450 0.000000 
#    z 0.000000 0.000000 1.743720 
# 
# From -- ./inp_files/26735.got.cif
#   From: 2010.05.17/outbox.cif.g08.bks.cpg/sg69_14_cif.got.tgz:26735.got - 2010.06.03 19:29:58.
