data_PCOD9511596
_publ_section_title
;
Structure prediction by ZEFSAII (Michael W. Deem and Ramdas Pophale) SiO2 
 PCOD9511596
Probable space group: F M M M
;
_chemical_formula_sum "Si O2"
_cell_formula_units_Z 144
_cell_length_a 14.345388
_cell_length_b 34.585446
_cell_length_c 14.303750
_cell_angle_alpha 90.000000
_cell_angle_beta 90.000000
_cell_angle_gamma 90.000000
_cell_volume 7096.686012
_symmetry_space_group_name_H-M "F M M M"
_symmetry_group_IT_number 69
_symmetry_cell_setting 'orthorhombic'
loop_
_space_group_symop_operation_xyz
x,y,z
-x,-y,z
x,-y,-z
-x,y,-z
-x,-y,-z
x,y,-z
-x,y,z
x,-y,z
x,1/2+y,1/2+z
-x,1/2-y,1/2+z
x,1/2-y,1/2-z
-x,1/2+y,1/2-z
-x,1/2-y,1/2-z
x,1/2+y,1/2-z
-x,1/2+y,1/2+z
x,1/2-y,1/2+z
1/2+x,y,1/2+z
1/2-x,-y,1/2+z
1/2+x,-y,1/2-z
1/2-x,y,1/2-z
1/2-x,-y,1/2-z
1/2+x,y,1/2-z
1/2-x,y,1/2+z
1/2+x,-y,1/2+z
1/2+x,1/2+y,z
1/2-x,1/2-y,z
1/2+x,1/2-y,-z
1/2-x,1/2+y,-z
1/2-x,1/2-y,-z
1/2+x,1/2+y,-z
1/2-x,1/2+y,z
1/2+x,1/2-y,z
loop_
_atom_site_type_symbol
_atom_site_label
_atom_site_fract_x
_atom_site_fract_y
_atom_site_fract_z
Si Si1 0.765419 0.955874 0.640270
Si Si2 0.395818 0.615494 0.388989
Si Si3 0.394406 0.453263 0.000000
Si Si4 0.791102 0.690778 0.885672
Si Si5 0.395128 0.769527 0.614120
O O1 0.750000 0.956500 0.750000
O O2 0.846488 0.925664 0.620665
O O3 0.670519 0.942988 0.588143
O O4 0.786617 0.000000 0.609944
O O5 0.403567 0.622639 0.500000
O O6 0.500000 0.616056 0.348866
O O7 0.331671 0.650216 0.351919
O O8 0.401932 0.500000 0.000000
O O9 0.500000 0.437816 0.000000
O O10 0.686435 0.701369 0.854822
O O11 0.858749 0.726585 0.860996
O O12 0.788047 0.690193 0.000000
O O13 0.397105 0.770765 0.500000
O O14 0.500000 0.776966 0.647244
#
# Coordination Sequence:
#
# PCOD9511596 Si02
#       5
#    32  32  16  32  32
#     4  10  21  37  57  81 109 141 184 234 276 328
#     4  10  19  31  50  76 108 141 174 217 273 331
#     4   9  18  36  59  79 105 144 184 223 277 340
#     4   8  14  23  37  62  99 136 172 213 259 316
#     4   8  12  20  36  59  91 133 176 216 258 307
#
# _framework density 20.291160999999999
#
# number of rings (size 3 to 8) (size 9 to 14) (size 15 to 20)
#    0.000    3.000    1.111    2.000    0.000    4.000 
#    0.000    4.444    0.000    0.000    0.000    3.111 
#    0.000    8.889    0.000    0.000    0.000    0.000 
#
# Total GULP energy -200811.865318 kJ/mol
# GULP energy per Si atom -5578.107370 kJ/mol
# Density = 2.024498 g / cm^3
# Si number density = 20.291161 Si / 1000 Ang^3
#
#
#
# Elastic Constant Matrix: (Units=GPa)
#
#
# Indices 1 2 3 4 5 6 
#
# 1 217.1022 97.7714 23.3249 0.0000 0.0000 0.0000
# 2 97.7714 119.7481 4.7141 0.0000 0.0000 0.0000
# 3 23.3249 4.7141 64.0016 0.0000 0.0000 0.0000
# 4 0.0000 0.0000 0.0000 10.3933 0.0000 0.0000
# 5 0.0000 0.0000 0.0000 0.0000 2.9445 0.0000
# 6 0.0000 0.0000 0.0000 0.0000 0.0000 17.8941
#
#
#
# Elastic Compliance Matrix: (Units=1/GPa)
#
#
# Indices 1 2 3 4 5 6 
#
# 1 0.007614 -0.006125 -0.002324 0.000000 0.000000 0.000000
# 2 -0.006125 0.013303 0.001253 0.000000 0.000000 0.000000
# 3 -0.002324 0.001253 0.016379 0.000000 0.000000 0.000000
# 4 0.000000 0.000000 0.000000 0.096215 0.000000 0.000000
# 5 0.000000 0.000000 0.000000 0.000000 0.339617 0.000000
# 6 0.000000 0.000000 0.000000 0.000000 0.000000 0.055884
#
#
# Mechanical properties :
#
#
# Convention : Reuss Voigt Hill
#
# Bulk Modulus (GPa) = 43.66242 72.49697 58.07970
# Shear Modulus (GPa) = 9.07374 24.58249 16.82811
#
# Velocity S-wave (km/s) = 2.11695 3.48442 2.88294
# Velocity P-wave (km/s) = 5.24785 7.21070 6.30611
#
# Compressibility (1/GPa) = 0.02290299
#
# Stress axis : x y z
#
# Youngs Moduli (GPa) = 131.33041 75.17181 61.05286
#
# Poissons Ratio (x) = 0.46046 0.14188
# Poissons Ratio (y) = 0.80446 -0.07647
# Poissons Ratio (z) = 0.30519 -0.09416
#
# Static dielectric constant tensor:
#      x y z
#    x 1.710990 0.000000 0.000000 
#    y 0.000000 1.706510 0.000000 
#    z 0.000000 0.000000 1.769800 
# 
# From -- ./inp_files/21753.got.cif
#   From: 2010.05.17/outbox.cif.g08.bks.cpg/sg69_11_cif.got.tgz:21753.got - 2010.06.03 19:29:58.
