data_PCOD9511631
_publ_section_title
;
Structure prediction by ZEFSAII (Michael W. Deem and Ramdas Pophale) SiO2 
 PCOD9511631
Probable space group: F M M M
;
_chemical_formula_sum "Si O2"
_cell_formula_units_Z 128
_cell_length_a 26.751037
_cell_length_b 13.740625
_cell_length_c 20.850705
_cell_angle_alpha 90.000000
_cell_angle_beta 90.000000
_cell_angle_gamma 90.000000
_cell_volume 7664.218069
_symmetry_space_group_name_H-M "F M M M"
_symmetry_group_IT_number 69
_symmetry_cell_setting 'orthorhombic'
loop_
_space_group_symop_operation_xyz
x,y,z
-x,-y,z
x,-y,-z
-x,y,-z
-x,-y,-z
x,y,-z
-x,y,z
x,-y,z
x,1/2+y,1/2+z
-x,1/2-y,1/2+z
x,1/2-y,1/2-z
-x,1/2+y,1/2-z
-x,1/2-y,1/2-z
x,1/2+y,1/2-z
-x,1/2+y,1/2+z
x,1/2-y,1/2+z
1/2+x,y,1/2+z
1/2-x,-y,1/2+z
1/2+x,-y,1/2-z
1/2-x,y,1/2-z
1/2-x,-y,1/2-z
1/2+x,y,1/2-z
1/2-x,y,1/2+z
1/2+x,-y,1/2+z
1/2+x,1/2+y,z
1/2-x,1/2-y,z
1/2+x,1/2-y,-z
1/2-x,1/2+y,-z
1/2-x,1/2-y,-z
1/2+x,1/2+y,-z
1/2-x,1/2+y,z
1/2+x,1/2-y,z
loop_
_atom_site_type_symbol
_atom_site_label
_atom_site_fract_x
_atom_site_fract_y
_atom_site_fract_z
Si Si1 0.000000 0.618063 0.427300
Si Si2 0.216424 0.612446 0.185437
Si Si3 0.638468 0.750000 0.250000
Si Si4 0.602781 0.117200 0.641630
Si Si5 0.206723 0.617720 0.427441
O O1 0.948795 0.645499 0.392360
O O2 0.000000 0.500000 0.429258
O O3 0.000000 0.654032 0.500000
O O4 0.199517 0.500000 0.176880
O O5 0.250000 0.613599 0.250000
O O6 0.172832 0.687498 0.201389
O O7 0.250665 0.640895 0.124850
O O8 0.608010 0.826862 0.291719
O O9 0.651686 0.142885 0.599212
O O10 0.603734 0.000000 0.650656
O O11 0.214536 0.653925 0.500000
O O12 0.207203 0.500000 0.430194
#
# Coordination Sequence:
#
# PCOD9511631 Si02
#       5
#    16  32  16  32  32
#     4   9  18  35  56  74  97 128 160 204 263 309
#     4  10  19  32  49  70  99 136 172 201 238 293
#     4  12  21  31  50  72 104 135 166 199 246 296
#     4  10  20  33  51  74  98 127 164 206 251 302
#     4   9  17  30  48  70  97 128 164 206 245 285
#
# _framework density 16.700984999999999
#
# number of rings (size 3 to 8) (size 9 to 14) (size 15 to 20)
#    0.000    2.125    2.500    1.875    0.000    3.500 
#    0.000    3.750    0.000    0.000    0.000    0.000 
#    0.000    4.000    0.000    0.000    0.000    0.000 
#
# Total GULP energy -178482.849309 kJ/mol
# GULP energy per Si atom -5577.589041 kJ/mol
# Density = 1.666297 g / cm^3
# Si number density = 16.700985 Si / 1000 Ang^3
#
#
#
# Elastic Constant Matrix: (Units=GPa)
#
#
# Indices 1 2 3 4 5 6 
#
# 1 110.4151 36.8920 78.6263 0.0000 0.0000 0.0000
# 2 36.8920 66.6555 35.9367 0.0000 0.0000 0.0000
# 3 78.6263 35.9367 155.8357 0.0000 0.0000 0.0000
# 4 0.0000 0.0000 0.0000 6.5927 0.0000 0.0000
# 5 0.0000 0.0000 0.0000 0.0000 20.7682 0.0000
# 6 0.0000 0.0000 0.0000 0.0000 0.0000 2.5116
#
#
#
# Elastic Compliance Matrix: (Units=1/GPa)
#
#
# Indices 1 2 3 4 5 6 
#
# 1 0.015452 -0.004967 -0.006651 0.000000 0.000000 0.000000
# 2 -0.004967 0.018729 -0.001813 0.000000 0.000000 0.000000
# 3 -0.006651 -0.001813 0.010191 0.000000 0.000000 0.000000
# 4 0.000000 0.000000 0.000000 0.151684 0.000000 0.000000
# 5 0.000000 0.000000 0.000000 0.000000 0.048151 0.000000
# 6 0.000000 0.000000 0.000000 0.000000 0.000000 0.398160
#
#
# Mechanical properties :
#
#
# Convention : Reuss Voigt Hill
#
# Bulk Modulus (GPa) = 57.10835 70.64623 63.87729
# Shear Modulus (GPa) = 7.40669 18.07124 12.73896
#
# Velocity S-wave (km/s) = 2.10820 3.29302 2.76482
# Velocity P-wave (km/s) = 6.33994 7.53996 6.96584
#
# Compressibility (1/GPa) = 0.01751057
#
# Stress axis : x y z
#
# Youngs Moduli (GPa) = 64.71471 53.39335 98.12635
#
# Poissons Ratio (x) = 0.26518 0.65265
# Poissons Ratio (y) = 0.32141 0.17792
# Poissons Ratio (z) = 0.43043 0.09681
#
# Static dielectric constant tensor:
#      x y z
#    x 1.544860 0.000000 0.000000 
#    y 0.000000 1.579430 0.000000 
#    z 0.000000 0.000000 1.573870 
# 
# From -- ./inp_files/18655.got.cif
#   From: 2010.05.17/outbox.cif.g08.bks.cpg/sg69_10_cif.got.tgz:18655.got - 2010.06.03 19:29:58.
