data_PCOD9511449
_publ_section_title
;
Structure prediction by ZEFSAII (Michael W. Deem and Ramdas Pophale) SiO2 
 PCOD9511449
Probable space group: F M M M
;
_chemical_formula_sum "Si O2"
_cell_formula_units_Z 104
_cell_length_a 19.968662
_cell_length_b 15.440544
_cell_length_c 15.281612
_cell_angle_alpha 90.000000
_cell_angle_beta 90.000000
_cell_angle_gamma 90.000000
_cell_volume 4711.733648
_symmetry_space_group_name_H-M "F M M M"
_symmetry_group_IT_number 69
_symmetry_cell_setting 'orthorhombic'
loop_
_space_group_symop_operation_xyz
x,y,z
-x,-y,z
x,-y,-z
-x,y,-z
-x,-y,-z
x,y,-z
-x,y,z
x,-y,z
x,1/2+y,1/2+z
-x,1/2-y,1/2+z
x,1/2-y,1/2-z
-x,1/2+y,1/2-z
-x,1/2-y,1/2-z
x,1/2+y,1/2-z
-x,1/2+y,1/2+z
x,1/2-y,1/2+z
1/2+x,y,1/2+z
1/2-x,-y,1/2+z
1/2+x,-y,1/2-z
1/2-x,y,1/2-z
1/2-x,-y,1/2-z
1/2+x,y,1/2-z
1/2-x,y,1/2+z
1/2+x,-y,1/2+z
1/2+x,1/2+y,z
1/2-x,1/2-y,z
1/2+x,1/2-y,-z
1/2-x,1/2+y,-z
1/2-x,1/2-y,-z
1/2+x,1/2+y,-z
1/2-x,1/2+y,z
1/2+x,1/2-y,z
loop_
_atom_site_type_symbol
_atom_site_label
_atom_site_fract_x
_atom_site_fract_y
_atom_site_fract_z
Si Si1 0.671827 0.407255 0.333852
Si Si2 0.579119 0.841958 0.696305
Si Si3 0.924397 0.327618 0.500000
Si Si4 0.422635 0.621745 0.500000
Si Si5 0.750000 0.250000 0.750000
O O1 0.708819 0.500000 0.340149
O O2 0.622453 0.407110 0.251448
O O3 0.622097 0.401102 0.416359
O O4 0.714222 0.319809 0.315347
O O5 0.500000 0.859633 0.695847
O O6 0.585657 0.750000 0.750000
O O7 0.604712 0.845298 0.596139
O O8 0.929641 0.224515 0.500000
O O9 0.000000 0.365158 0.500000
O O10 0.500000 0.590083 0.500000
#
# Coordination Sequence:
#
# PCOD9511449 Si02
#       5
#    32  32  16  16   8
#     4  12  25  42  67  96 129 175 225 276 337 397
#     4  10  18  34  60  93 132 172 214 270 339 403
#     4   9  16  29  56  90 128 174 211 246 317 402
#     4  11  21  39  68 107 141 163 209 284 351 403
#     4  12  26  50  66  86 132 186 234 280 316 394
#
# _framework density 22.072554
#
# number of rings (size 3 to 8) (size 9 to 14) (size 15 to 20)
#    0.000    1.231    4.615    1.846    0.000    3.692 
#    0.000    2.308    0.000    2.769    0.000    0.000 
#    0.000    3.692    0.000    0.000    0.000    0.000 
#
# Total GULP energy -144741.062130 kJ/mol
# GULP energy per Si atom -5566.963928 kJ/mol
# Density = 2.202232 g / cm^3
# Si number density = 22.072554 Si / 1000 Ang^3
#
#
#
# Elastic Constant Matrix: (Units=GPa)
#
#
# Indices 1 2 3 4 5 6 
#
# 1 64.6708 57.6297 40.0532 0.0000 0.0000 0.0000
# 2 57.6297 143.5516 45.3346 0.0000 0.0000 0.0000
# 3 40.0532 45.3346 220.3488 0.0000 0.0000 0.0000
# 4 0.0000 0.0000 0.0000 99.8596 0.0000 0.0000
# 5 0.0000 0.0000 0.0000 0.0000 43.0742 0.0000
# 6 0.0000 0.0000 0.0000 0.0000 0.0000 12.2009
#
#
#
# Elastic Compliance Matrix: (Units=1/GPa)
#
#
# Indices 1 2 3 4 5 6 
#
# 1 0.025499 -0.009383 -0.002705 0.000000 0.000000 0.000000
# 2 -0.009383 0.010903 -0.000538 0.000000 0.000000 0.000000
# 3 -0.002705 -0.000538 0.005140 0.000000 0.000000 0.000000
# 4 0.000000 0.000000 0.000000 0.010014 0.000000 0.000000
# 5 0.000000 0.000000 0.000000 0.000000 0.023216 0.000000
# 6 0.000000 0.000000 0.000000 0.000000 0.000000 0.081961
#
#
# Mechanical properties :
#
#
# Convention : Reuss Voigt Hill
#
# Bulk Modulus (GPa) = 61.37801 79.40070 70.38936
# Shear Modulus (GPa) = 26.67895 50.06386 38.37140
#
# Velocity S-wave (km/s) = 3.48040 4.76768 4.17396
# Velocity P-wave (km/s) = 6.63466 8.14606 7.42890
#
# Compressibility (1/GPa) = 0.01629248
#
# Stress axis : x y z
#
# Youngs Moduli (GPa) = 39.21702 91.72088 194.53385
#
# Poissons Ratio (x) = 0.86058 0.52614
# Poissons Ratio (y) = 0.36796 0.10458
# Poissons Ratio (z) = 0.10607 0.04931
#
# Static dielectric constant tensor:
#      x y z
#    x 1.864730 0.000000 0.000000 
#    y 0.000000 1.841210 0.000000 
#    z 0.000000 0.000000 2.590680 
# 
# From -- ./inp_files/16057.got.cif
#   From: 2010.05.17/outbox.cif.g08.bks.cpg/sg69_9_cif.got.tgz:16057.got - 2010.06.03 19:29:58.
