data_PCOD9511799
_publ_section_title
;
Structure prediction by ZEFSAII (Michael W. Deem and Ramdas Pophale) SiO2 
 PCOD9511799
Probable space group: F M M M
;
_chemical_formula_sum "Si O2"
_cell_formula_units_Z 176
_cell_length_a 21.398364
_cell_length_b 13.382210
_cell_length_c 29.247981
_cell_angle_alpha 90.000000
_cell_angle_beta 90.000000
_cell_angle_gamma 90.000000
_cell_volume 8375.375815
_symmetry_space_group_name_H-M "F M M M"
_symmetry_group_IT_number 69
_symmetry_cell_setting 'orthorhombic'
loop_
_space_group_symop_operation_xyz
x,y,z
-x,-y,z
x,-y,-z
-x,y,-z
-x,-y,-z
x,y,-z
-x,y,z
x,-y,z
x,1/2+y,1/2+z
-x,1/2-y,1/2+z
x,1/2-y,1/2-z
-x,1/2+y,1/2-z
-x,1/2-y,1/2-z
x,1/2+y,1/2-z
-x,1/2+y,1/2+z
x,1/2-y,1/2+z
1/2+x,y,1/2+z
1/2-x,-y,1/2+z
1/2+x,-y,1/2-z
1/2-x,y,1/2-z
1/2-x,-y,1/2-z
1/2+x,y,1/2-z
1/2-x,y,1/2+z
1/2+x,-y,1/2+z
1/2+x,1/2+y,z
1/2-x,1/2-y,z
1/2+x,1/2-y,-z
1/2-x,1/2+y,-z
1/2-x,1/2-y,-z
1/2+x,1/2+y,-z
1/2-x,1/2+y,z
1/2+x,1/2-y,z
loop_
_atom_site_type_symbol
_atom_site_label
_atom_site_fract_x
_atom_site_fract_y
_atom_site_fract_z
Si Si1 0.573847 0.121076 0.575459
Si Si2 0.177443 0.225019 0.451809
Si Si3 0.927195 0.377761 0.220868
Si Si4 0.575299 0.386495 0.180110
Si Si5 0.500000 0.879220 0.052794
Si Si6 0.887254 0.119566 0.378866
O O1 0.500000 0.142845 0.563785
O O2 0.629434 0.180910 0.550836
O O3 0.584567 0.150606 0.628828
O O4 0.579667 0.000000 0.570743
O O5 0.160789 0.170935 0.500000
O O6 0.250000 0.250000 0.454301
O O7 0.171132 0.160855 0.405968
O O8 0.926160 0.500000 0.222096
O O9 0.903216 0.344756 0.270897
O O10 0.895497 0.346561 0.173399
O O11 0.000000 0.348540 0.215662
O O12 0.500000 0.390322 0.185013
O O13 0.599399 0.500000 0.178583
O O14 0.441871 0.851373 0.085078
O O15 0.500000 0.000000 0.049922
O O16 0.500000 0.842847 0.000000
O O17 0.887734 0.000000 0.377035
#
# Coordination Sequence:
#
# PCOD9511799 Si02
#       6
#    32  32  32  32  16  32
#     4   9  19  38  64  91 115 144 189 244 294 332
#     4  11  26  43  57  78 109 148 193 238 289 350
#     4   8  12  22  45  80 117 146 174 212 265 330
#     4   7  11  23  48  81 114 144 175 219 274 329
#     4   9  16  26  44  74 106 135 171 215 262 311
#     4  10  19  33  54  80 112 147 181 220 270 332
#
# _framework density 21.013983
#
# number of rings (size 3 to 8) (size 9 to 14) (size 15 to 20)
#    0.000    3.000    0.909    2.727    1.273    2.545 
#    0.000    3.636    0.000    5.455    0.000    5.091 
#    0.000    0.000    0.000    0.000    0.000    0.000 
#
# Total GULP energy -245071.058477 kJ/mol
# GULP energy per Si atom -5569.796784 kJ/mol
# Density = 2.096615 g / cm^3
# Si number density = 21.013983 Si / 1000 Ang^3
#
#
#
# Elastic Constant Matrix: (Units=GPa)
#
#
# Indices 1 2 3 4 5 6 
#
# 1 69.7200 17.9376 41.9851 0.0000 0.0000 0.0000
# 2 17.9376 69.0607 29.8675 0.0000 0.0000 0.0000
# 3 41.9851 29.8675 206.2791 0.0000 0.0000 0.0000
# 4 0.0000 0.0000 0.0000 31.0206 0.0000 0.0000
# 5 0.0000 0.0000 0.0000 0.0000 12.6281 0.0000
# 6 0.0000 0.0000 0.0000 0.0000 0.0000 15.4000
#
#
#
# Elastic Compliance Matrix: (Units=1/GPa)
#
#
# Indices 1 2 3 4 5 6 
#
# 1 0.016949 -0.003105 -0.003000 0.000000 0.000000 0.000000
# 2 -0.003105 0.016016 -0.001687 0.000000 0.000000 0.000000
# 3 -0.003000 -0.001687 0.005703 0.000000 0.000000 0.000000
# 4 0.000000 0.000000 0.000000 0.032237 0.000000 0.000000
# 5 0.000000 0.000000 0.000000 0.000000 0.079188 0.000000
# 6 0.000000 0.000000 0.000000 0.000000 0.000000 0.064935
#
#
# Mechanical properties :
#
#
# Convention : Reuss Voigt Hill
#
# Bulk Modulus (GPa) = 43.32086 58.29336 50.80711
# Shear Modulus (GPa) = 20.98148 28.82772 24.90460
#
# Velocity S-wave (km/s) = 3.16326 3.70785 3.44633
# Velocity P-wave (km/s) = 5.83109 6.79201 6.32981
#
# Compressibility (1/GPa) = 0.02308357
#
# Stress axis : x y z
#
# Youngs Moduli (GPa) = 59.00227 62.43734 175.35554
#
# Poissons Ratio (x) = 0.19385 0.52608
# Poissons Ratio (y) = 0.18318 0.29584
# Poissons Ratio (z) = 0.17701 0.10534
#
# Static dielectric constant tensor:
#      x y z
#    x 1.735210 0.000000 0.000000 
#    y 0.000000 1.880300 0.000000 
#    z 0.000000 0.000000 1.808790 
# 
# From -- ./inp_files/47014.got.cif
#   From: 2010.05.17/outbox.cif.g08.bks.cpg/sg69_24_cif.got.tgz:47014.got - 2010.06.03 19:29:58.
