data_PCOD9511271
_publ_section_title
;
Structure prediction by ZEFSAII (Michael W. Deem and Ramdas Pophale) SiO2 
 PCOD9511271
Probable space group: F M M M
;
_chemical_formula_sum "Si O2"
_cell_formula_units_Z 160
_cell_length_a 14.729181
_cell_length_b 17.976880
_cell_length_c 30.999145
_cell_angle_alpha 90.000000
_cell_angle_beta 90.000000
_cell_angle_gamma 90.000000
_cell_volume 8208.099908
_symmetry_space_group_name_H-M "F M M M"
_symmetry_group_IT_number 69
_symmetry_cell_setting 'orthorhombic'
loop_
_space_group_symop_operation_xyz
x,y,z
-x,-y,z
x,-y,-z
-x,y,-z
-x,-y,-z
x,y,-z
-x,y,z
x,-y,z
x,1/2+y,1/2+z
-x,1/2-y,1/2+z
x,1/2-y,1/2-z
-x,1/2+y,1/2-z
-x,1/2-y,1/2-z
x,1/2+y,1/2-z
-x,1/2+y,1/2+z
x,1/2-y,1/2+z
1/2+x,y,1/2+z
1/2-x,-y,1/2+z
1/2+x,-y,1/2-z
1/2-x,y,1/2-z
1/2-x,-y,1/2-z
1/2+x,y,1/2-z
1/2-x,y,1/2+z
1/2+x,-y,1/2+z
1/2+x,1/2+y,z
1/2-x,1/2-y,z
1/2+x,1/2-y,-z
1/2-x,1/2+y,-z
1/2-x,1/2-y,-z
1/2+x,1/2+y,-z
1/2-x,1/2+y,z
1/2+x,1/2-y,z
loop_
_atom_site_type_symbol
_atom_site_label
_atom_site_fract_x
_atom_site_fract_y
_atom_site_fract_z
Si Si1 0.650464 0.711005 0.362455
Si Si2 0.761501 0.915062 0.172150
Si Si3 0.601155 0.811118 0.285734
Si Si4 0.604438 0.582570 0.910483
Si Si5 0.858326 0.261135 0.452684
O O1 0.750000 0.750000 0.364823
O O2 0.672627 0.631853 0.341159
O O3 0.597920 0.764123 0.330046
O O4 0.612006 0.713824 0.410781
O O5 0.821529 0.872467 0.207824
O O6 0.826486 0.913935 0.129547
O O7 0.742554 0.000000 0.183439
O O8 0.500000 0.840917 0.276448
O O9 0.625753 0.750000 0.250000
O O10 0.500000 0.587820 0.895004
O O11 0.614949 0.500000 0.930587
O O12 0.622072 0.652703 0.941129
O O13 0.895216 0.242454 0.500000
O O14 0.750000 0.250000 0.455093
#
# Coordination Sequence:
#
# PCOD9511271 Si02
#       5
#    32  32  32  32  32
#     4   9  17  33  50  72 100 136 176 217 251 308
#     4  10  19  33  54  78 105 137 173 215 265 319
#     4  10  20  34  54  79 105 136 172 214 266 321
#     4  10  19  31  49  76 109 140 171 217 275 322
#     4  10  18  31  49  70 103 145 181 211 251 311
#
# _framework density 19.492940000000001
#
# number of rings (size 3 to 8) (size 9 to 14) (size 15 to 20)
#    0.000    2.200    6.000    0.600    0.000    5.600 
#    0.000    3.000    0.000    2.400    0.000    0.000 
#    0.000    0.800    0.000    8.400    0.000    0.000 
#
# Total GULP energy -222991.318901 kJ/mol
# GULP energy per Si atom -5574.782973 kJ/mol
# Density = 1.944857 g / cm^3
# Si number density = 19.492940 Si / 1000 Ang^3
#
#
#
# Elastic Constant Matrix: (Units=GPa)
#
#
# Indices 1 2 3 4 5 6 
#
# 1 45.2645 23.5319 -7.2567 0.0000 0.0000 0.0000
# 2 23.5319 139.4204 19.1249 0.0000 0.0000 0.0000
# 3 -7.2567 19.1249 67.4490 0.0000 0.0000 0.0000
# 4 0.0000 0.0000 0.0000 33.6315 0.0000 0.0000
# 5 0.0000 0.0000 0.0000 0.0000 128.2690 0.0000
# 6 0.0000 0.0000 0.0000 0.0000 0.0000 17.3651
#
#
#
# Elastic Compliance Matrix: (Units=1/GPa)
#
#
# Indices 1 2 3 4 5 6 
#
# 1 0.025254 -0.004823 0.004085 0.000000 0.000000 0.000000
# 2 -0.004823 0.008384 -0.002896 0.000000 0.000000 0.000000
# 3 0.004085 -0.002896 0.016087 0.000000 0.000000 0.000000
# 4 0.000000 0.000000 0.000000 0.029734 0.000000 0.000000
# 5 0.000000 0.000000 0.000000 0.000000 0.007796 0.000000
# 6 0.000000 0.000000 0.000000 0.000000 0.000000 0.057587
#
#
# Mechanical properties :
#
#
# Convention : Reuss Voigt Hill
#
# Bulk Modulus (GPa) = 23.55365 35.88155 29.71760
# Shear Modulus (GPa) = 30.07292 50.30206 40.18749
#
# Velocity S-wave (km/s) = 3.93206 5.08540 4.54546
# Velocity P-wave (km/s) = 5.72051 7.27524 6.54421
#
# Compressibility (1/GPa) = 0.04245626
#
# Stress axis : x y z
#
# Youngs Moduli (GPa) = 39.59695 119.27716 62.16342
#
# Poissons Ratio (x) = 0.57525 -0.25391
# Poissons Ratio (y) = 0.19097 0.18003
# Poissons Ratio (z) = -0.16174 0.34544
#
# Static dielectric constant tensor:
#      x y z
#    x 1.692240 0.000000 0.000000 
#    y 0.000000 1.692500 0.000000 
#    z 0.000000 0.000000 1.739760 
# 
# From -- ./inp_files/23422.got.cif
#   From: 2010.05.17/outbox.cif.g08.bks.cpg/sg69_12_cif.got.tgz:23422.got - 2010.06.03 19:29:58.
