data_PCOD9511482
_publ_section_title
;
Structure prediction by ZEFSAII (Michael W. Deem and Ramdas Pophale) SiO2 
 PCOD9511482
Probable space group: F M M M
;
_chemical_formula_sum "Si O2"
_cell_formula_units_Z 144
_cell_length_a 18.705809
_cell_length_b 21.219768
_cell_length_c 17.912799
_cell_angle_alpha 90.000000
_cell_angle_beta 90.000000
_cell_angle_gamma 90.000000
_cell_volume 7110.179742
_symmetry_space_group_name_H-M "F M M M"
_symmetry_group_IT_number 69
_symmetry_cell_setting 'orthorhombic'
loop_
_space_group_symop_operation_xyz
x,y,z
-x,-y,z
x,-y,-z
-x,y,-z
-x,-y,-z
x,y,-z
-x,y,z
x,-y,z
x,1/2+y,1/2+z
-x,1/2-y,1/2+z
x,1/2-y,1/2-z
-x,1/2+y,1/2-z
-x,1/2-y,1/2-z
x,1/2+y,1/2-z
-x,1/2+y,1/2+z
x,1/2-y,1/2+z
1/2+x,y,1/2+z
1/2-x,-y,1/2+z
1/2+x,-y,1/2-z
1/2-x,y,1/2-z
1/2-x,-y,1/2-z
1/2+x,y,1/2-z
1/2-x,y,1/2+z
1/2+x,-y,1/2+z
1/2+x,1/2+y,z
1/2-x,1/2-y,z
1/2+x,1/2-y,-z
1/2-x,1/2+y,-z
1/2-x,1/2-y,-z
1/2+x,1/2+y,-z
1/2-x,1/2+y,z
1/2+x,1/2-y,z
loop_
_atom_site_type_symbol
_atom_site_label
_atom_site_fract_x
_atom_site_fract_y
_atom_site_fract_z
Si Si1 0.190228 0.862568 0.589834
Si Si2 0.181253 0.500000 0.697749
Si Si3 0.152174 0.128214 0.852981
Si Si4 0.584388 0.752360 0.411007
Si Si5 0.303366 0.500000 0.411820
Si Si6 0.418935 0.925061 0.500000
O O1 0.206094 0.860671 0.500000
O O2 0.264317 0.854786 0.634873
O O3 0.132539 0.808928 0.604218
O O4 0.163337 0.933063 0.609753
O O5 0.250000 0.500000 0.750000
O O6 0.144327 0.431409 0.703405
O O7 0.222296 0.500000 0.617979
O O8 0.108756 0.193382 0.853040
O O9 0.121841 0.098123 0.928339
O O10 0.598180 0.769188 0.500000
O O11 0.500000 0.740738 0.404818
O O12 0.301171 0.500000 0.500000
O O13 0.500000 0.899691 0.500000
O O14 0.422939 0.000000 0.500000
#
# Coordination Sequence:
#
# PCOD9511482 Si02
#       6
#    32  16  32  32  16  16
#     4   9  16  27  47  75 105 143 190 223 281 336
#     4  10  22  34  50  79 109 136 181 235 275 323
#     4  11  18  30  51  71 108 153 182 218 278 336
#     4  10  19  29  44  77 120 149 178 231 287 346
#     4   8  16  30  55  78  99 133 178 230 280 327
#     4  11  20  28  45  84 121 146 179 222 273 352
#
# _framework density 20.252652999999999
#
# number of rings (size 3 to 8) (size 9 to 14) (size 15 to 20)
#    0.000    2.111    3.333    1.333    1.556    1.778 
#    0.000    0.556    0.000   14.000    0.000   31.111 
#    0.000    0.000    0.000    0.000    0.000    0.000 
#
# Total GULP energy -200484.757073 kJ/mol
# GULP energy per Si atom -5569.021030 kJ/mol
# Density = 2.020656 g / cm^3
# Si number density = 20.252653 Si / 1000 Ang^3
#
#
#
# Elastic Constant Matrix: (Units=GPa)
#
#
# Indices 1 2 3 4 5 6 
#
# 1 97.6903 61.1016 12.3081 0.0000 0.0000 0.0000
# 2 61.1016 133.2968 2.0433 0.0000 0.0000 0.0000
# 3 12.3081 2.0433 18.1708 0.0000 0.0000 0.0000
# 4 0.0000 0.0000 0.0000 5.7554 0.0000 0.0000
# 5 0.0000 0.0000 0.0000 0.0000 -8.8900 0.0000
# 6 0.0000 0.0000 0.0000 0.0000 0.0000 18.5368
#
#
#
# Elastic Compliance Matrix: (Units=1/GPa)
#
#
# Indices 1 2 3 4 5 6 
#
# 1 0.015986 -0.007174 -0.010022 0.000000 0.000000 0.000000
# 2 -0.007174 0.010735 0.003652 0.000000 0.000000 0.000000
# 3 -0.010022 0.003652 0.061411 0.000000 0.000000 0.000000
# 4 0.000000 0.000000 0.000000 0.173751 0.000000 0.000000
# 5 0.000000 0.000000 0.000000 0.000000 -0.112485 0.000000
# 6 0.000000 0.000000 0.000000 0.000000 0.000000 0.053947
#
#
# Mechanical properties :
#
#
# Convention : Reuss Voigt Hill
#
# Bulk Modulus (GPa) = 16.38141 44.45156 30.41648
# Shear Modulus (GPa) = 19.93782 14.66075 17.29928
#
# Velocity S-wave (km/s) = 3.14101 2.69344 2.92580
# Velocity P-wave (km/s) = 4.61093 5.62752 5.14440
#
# Compressibility (1/GPa) = 0.06104480
#
# Stress axis : x y z
#
# Youngs Moduli (GPa) = 62.55334 93.15593 16.28375
#
# Poissons Ratio (x) = 0.66833 0.16319
# Poissons Ratio (y) = 0.44878 -0.05948
# Poissons Ratio (z) = 0.62689 -0.34025
#
# Static dielectric constant tensor:
#      x y z
#    x 1.492840 0.000000 0.000000 
#    y 0.000000 1.833300 0.000000 
#    z 0.000000 0.000000 1.770710 
# 
# From -- ./inp_files/30768.got.cif
#   From: 2010.05.17/outbox.cif.g08.bks.cpg/sg69_16_cif.got.tgz:30768.got - 2010.06.03 19:29:58.
