data_PCOD9511554
_publ_section_title
;
Structure prediction by ZEFSAII (Michael W. Deem and Ramdas Pophale) SiO2 
 PCOD9511554
Probable space group: F M M M
;
_chemical_formula_sum "Si O2"
_cell_formula_units_Z 176
_cell_length_a 15.083574
_cell_length_b 23.452787
_cell_length_c 27.329790
_cell_angle_alpha 90.000000
_cell_angle_beta 90.000000
_cell_angle_gamma 90.000000
_cell_volume 9667.963724
_symmetry_space_group_name_H-M "F M M M"
_symmetry_group_IT_number 69
_symmetry_cell_setting 'orthorhombic'
loop_
_space_group_symop_operation_xyz
x,y,z
-x,-y,z
x,-y,-z
-x,y,-z
-x,-y,-z
x,y,-z
-x,y,z
x,-y,z
x,1/2+y,1/2+z
-x,1/2-y,1/2+z
x,1/2-y,1/2-z
-x,1/2+y,1/2-z
-x,1/2-y,1/2-z
x,1/2+y,1/2-z
-x,1/2+y,1/2+z
x,1/2-y,1/2+z
1/2+x,y,1/2+z
1/2-x,-y,1/2+z
1/2+x,-y,1/2-z
1/2-x,y,1/2-z
1/2-x,-y,1/2-z
1/2+x,y,1/2-z
1/2-x,y,1/2+z
1/2+x,-y,1/2+z
1/2+x,1/2+y,z
1/2-x,1/2-y,z
1/2+x,1/2-y,-z
1/2-x,1/2+y,-z
1/2-x,1/2-y,-z
1/2+x,1/2+y,-z
1/2-x,1/2+y,z
1/2+x,1/2-y,z
loop_
_atom_site_type_symbol
_atom_site_label
_atom_site_fract_x
_atom_site_fract_y
_atom_site_fract_z
Si Si1 0.157594 0.883810 0.224870
Si Si2 0.601715 0.268207 0.193269
Si Si3 0.899752 0.356664 0.830493
Si Si4 0.212365 0.069171 0.596768
Si Si5 0.602301 0.069085 0.000000
Si Si6 0.597302 0.433137 0.126776
O O1 0.250000 0.900135 0.250000
O O2 0.162598 0.824007 0.194511
O O3 0.099046 0.872190 0.272813
O O4 0.119075 0.925819 0.184516
O O5 0.500000 0.283651 0.179721
O O6 0.600126 0.250000 0.250000
O O7 0.627176 0.210144 0.165673
O O8 0.835524 0.399125 0.858601
O O9 0.000000 0.362166 0.849425
O O10 0.158087 0.084892 0.548121
O O11 0.315675 0.087217 0.597664
O O12 0.208549 0.000000 0.602682
O O13 0.500000 0.089548 0.000000
O O14 0.598236 0.000000 0.000000
O O15 0.500000 0.407543 0.116529
O O16 0.591805 0.500000 0.116085
#
# Coordination Sequence:
#
# PCOD9511554 Si02
#       6
#    32  32  32  32  16  32
#     4  11  19  31  49  72 103 141 182 215 258 299
#     4   8  16  29  44  65  97 132 172 215 252 292
#     4  10  19  31  47  73 105 138 175 214 257 308
#     4  10  20  35  53  78 105 133 174 216 262 324
#     4   9  18  34  57  81 106 133 160 208 272 320
#     4  10  21  36  51  70 103 143 178 216 260 306
#
# _framework density 18.204453999999998
#
# number of rings (size 3 to 8) (size 9 to 14) (size 15 to 20)
#    0.000    2.273    1.818    3.273    0.000    5.455 
#    0.000    0.455    0.000    2.727    0.000    2.545 
#    0.000    2.909    0.000    0.000    0.000    0.000 
#
# Total GULP energy -244955.394338 kJ/mol
# GULP energy per Si atom -5567.168053 kJ/mol
# Density = 1.816302 g / cm^3
# Si number density = 18.204454 Si / 1000 Ang^3
#
#
#
# Elastic Constant Matrix: (Units=GPa)
#
#
# Indices 1 2 3 4 5 6 
#
# 1 144.3246 20.2454 46.2376 0.0000 0.0000 0.0000
# 2 20.2454 30.3461 14.7480 0.0000 0.0000 0.0000
# 3 46.2376 14.7480 68.0114 0.0000 0.0000 0.0000
# 4 0.0000 0.0000 0.0000 8.8625 0.0000 0.0000
# 5 0.0000 0.0000 0.0000 0.0000 -11.7573 0.0000
# 6 0.0000 0.0000 0.0000 0.0000 0.0000 18.0648
#
#
#
# Elastic Compliance Matrix: (Units=1/GPa)
#
#
# Indices 1 2 3 4 5 6 
#
# 1 0.009171 -0.003452 -0.005486 0.000000 0.000000 0.000000
# 2 -0.003452 0.038134 -0.005922 0.000000 0.000000 0.000000
# 3 -0.005486 -0.005922 0.019717 0.000000 0.000000 0.000000
# 4 0.000000 0.000000 0.000000 0.112835 0.000000 0.000000
# 5 0.000000 0.000000 0.000000 0.000000 -0.085054 0.000000
# 6 0.000000 0.000000 0.000000 0.000000 0.000000 0.055356
#
#
# Mechanical properties :
#
#
# Convention : Reuss Voigt Hill
#
# Bulk Modulus (GPa) = 26.80866 45.01601 35.91234
# Shear Modulus (GPa) = 25.99898 13.79740 19.89819
#
# Velocity S-wave (km/s) = 3.78321 2.75601 3.30970
# Velocity P-wave (km/s) = 5.81738 5.90840 5.86307
#
# Compressibility (1/GPa) = 0.03730138
#
# Stress axis : x y z
#
# Youngs Moduli (GPa) = 109.04339 26.22300 50.71653
#
# Poissons Ratio (x) = 0.09052 0.27824
# Poissons Ratio (y) = 0.37642 0.30037
# Poissons Ratio (z) = 0.59823 0.15530
#
# Static dielectric constant tensor:
#      x y z
#    x 1.704490 0.000000 0.000000 
#    y 0.000000 1.661820 0.000000 
#    z 0.000000 0.000000 1.598500 
# 
# From -- ./inp_files/41131.got.cif
#   From: 2010.05.17/outbox.cif.g08.bks.cpg/sg69_21_cif.got.tgz:41131.got - 2010.06.03 19:29:58.
