data_PCOD9511758
_publ_section_title
;
Structure prediction by ZEFSAII (Michael W. Deem and Ramdas Pophale) SiO2 
 PCOD9511758
Probable space group: F M M M
;
_chemical_formula_sum "Si O2"
_cell_formula_units_Z 168
_cell_length_a 14.597765
_cell_length_b 23.726802
_cell_length_c 25.712692
_cell_angle_alpha 90.000000
_cell_angle_beta 90.000000
_cell_angle_gamma 90.000000
_cell_volume 8905.803770
_symmetry_space_group_name_H-M "F M M M"
_symmetry_group_IT_number 69
_symmetry_cell_setting 'orthorhombic'
loop_
_space_group_symop_operation_xyz
x,y,z
-x,-y,z
x,-y,-z
-x,y,-z
-x,-y,-z
x,y,-z
-x,y,z
x,-y,z
x,1/2+y,1/2+z
-x,1/2-y,1/2+z
x,1/2-y,1/2-z
-x,1/2+y,1/2-z
-x,1/2-y,1/2-z
x,1/2+y,1/2-z
-x,1/2+y,1/2+z
x,1/2-y,1/2+z
1/2+x,y,1/2+z
1/2-x,-y,1/2+z
1/2+x,-y,1/2-z
1/2-x,y,1/2-z
1/2-x,-y,1/2-z
1/2+x,y,1/2-z
1/2-x,y,1/2+z
1/2+x,-y,1/2+z
1/2+x,1/2+y,z
1/2-x,1/2-y,z
1/2+x,1/2-y,-z
1/2-x,1/2+y,-z
1/2-x,1/2-y,-z
1/2+x,1/2+y,-z
1/2-x,1/2+y,z
1/2+x,1/2-y,z
loop_
_atom_site_type_symbol
_atom_site_label
_atom_site_fract_x
_atom_site_fract_y
_atom_site_fract_z
Si Si1 0.620457 0.500000 0.000000
Si Si2 0.895197 0.190279 0.779047
Si Si3 0.735912 0.185988 0.378286
Si Si4 0.397971 0.500000 0.168405
Si Si5 0.891457 0.118972 0.322940
Si Si6 0.892654 0.407237 0.592127
Si Si7 0.344847 0.000000 0.218192
O O1 0.616322 0.548932 0.045337
O O2 0.890351 0.250000 0.750000
O O3 0.823347 0.189623 0.825092
O O4 0.876920 0.144418 0.734817
O O5 0.000000 0.182714 0.797954
O O6 0.750000 0.250000 0.396796
O O7 0.830338 0.154872 0.362787
O O8 0.673798 0.145895 0.414012
O O9 0.500000 0.500000 0.145358
O O10 0.359597 0.442256 0.143934
O O11 0.406342 0.500000 0.229984
O O12 0.000000 0.123037 0.334252
O O13 0.860876 0.054506 0.316925
O O14 0.000000 0.390782 0.596929
O O15 0.250000 0.000000 0.250000
#
# Coordination Sequence:
#
# PCOD9511758 Si02
#       7
#     8  32  32  16  32  32  16
#     4  10  21  44  72  96 115 126 157 228 318 392
#     4  10  19  33  52  74 111 163 206 243 276 311
#     4  12  23  34  52  80 117 154 198 236 268 328
#     4   9  17  31  49  74 104 129 171 230 282 334
#     4  11  23  35  49  73 111 160 206 243 280 317
#     4  10  20  36  62  89 110 135 169 225 300 365
#     4  12  21  32  49  69 102 148 195 246 284 316
#
# _framework density 18.864103
#
# number of rings (size 3 to 8) (size 9 to 14) (size 15 to 20)
#    0.000    1.333    1.905    6.857    0.000    4.571 
#    0.000    0.476    0.000    0.000    0.000    1.333 
#    0.000    0.000    0.000    0.000    0.000    0.000 
#
# Total GULP energy -233986.134554 kJ/mol
# GULP energy per Si atom -5571.098442 kJ/mol
# Density = 1.882117 g / cm^3
# Si number density = 18.864103 Si / 1000 Ang^3
#
#
#
# Elastic Constant Matrix: (Units=GPa)
#
#
# Indices 1 2 3 4 5 6 
#
# 1 99.4546 42.3388 19.8172 0.0000 0.0000 0.0000
# 2 42.3388 165.7545 27.5532 0.0000 0.0000 0.0000
# 3 19.8172 27.5532 42.9394 0.0000 0.0000 0.0000
# 4 0.0000 0.0000 0.0000 19.5188 0.0000 0.0000
# 5 0.0000 0.0000 0.0000 0.0000 -27.8649 0.0000
# 6 0.0000 0.0000 0.0000 0.0000 0.0000 12.5495
#
#
#
# Elastic Compliance Matrix: (Units=1/GPa)
#
#
# Indices 1 2 3 4 5 6 
#
# 1 0.011851 -0.002371 -0.003948 0.000000 0.000000 0.000000
# 2 -0.002371 0.007228 -0.003544 0.000000 0.000000 0.000000
# 3 -0.003948 -0.003544 0.027385 0.000000 0.000000 0.000000
# 4 0.000000 0.000000 0.000000 0.051233 0.000000 0.000000
# 5 0.000000 0.000000 0.000000 0.000000 -0.035887 0.000000
# 6 0.000000 0.000000 0.000000 0.000000 0.000000 0.079684
#
#
# Mechanical properties :
#
#
# Convention : Reuss Voigt Hill
#
# Bulk Modulus (GPa) = 37.39989 54.17411 45.78700
# Shear Modulus (GPa) = 29.38925 15.40330 22.39627
#
# Velocity S-wave (km/s) = 3.95136 2.86062 3.44938
# Velocity P-wave (km/s) = 6.37861 6.30010 6.33948
#
# Compressibility (1/GPa) = 0.02673805
#
# Stress axis : x y z
#
# Youngs Moduli (GPa) = 84.38257 138.35761 36.51690
#
# Poissons Ratio (x) = 0.32801 0.14417
# Poissons Ratio (y) = 0.20005 0.12940
# Poissons Ratio (z) = 0.33315 0.49029
#
# Static dielectric constant tensor:
#      x y z
#    x 1.300960 0.000000 0.000000 
#    y 0.000000 1.740050 0.000000 
#    z 0.000000 0.000000 1.615540 
# 
# From -- ./inp_files/41001.got.cif
#   From: 2010.05.17/outbox.cif.g08.bks.cpg/sg69_21_cif.got.tgz:41001.got - 2010.06.03 19:29:58.
