data_PCOD9511855
_publ_section_title
;
Structure prediction by ZEFSAII (Michael W. Deem and Ramdas Pophale) SiO2 
 PCOD9511855
Probable space group: F M M M
;
_chemical_formula_sum "Si O2"
_cell_formula_units_Z 208
_cell_length_a 21.349729
_cell_length_b 17.149455
_cell_length_c 28.534159
_cell_angle_alpha 90.000000
_cell_angle_beta 90.000000
_cell_angle_gamma 90.000000
_cell_volume 10447.389024
_symmetry_space_group_name_H-M "F M M M"
_symmetry_group_IT_number 69
_symmetry_cell_setting 'orthorhombic'
loop_
_space_group_symop_operation_xyz
x,y,z
-x,-y,z
x,-y,-z
-x,y,-z
-x,-y,-z
x,y,-z
-x,y,z
x,-y,z
x,1/2+y,1/2+z
-x,1/2-y,1/2+z
x,1/2-y,1/2-z
-x,1/2+y,1/2-z
-x,1/2-y,1/2-z
x,1/2+y,1/2-z
-x,1/2+y,1/2+z
x,1/2-y,1/2+z
1/2+x,y,1/2+z
1/2-x,-y,1/2+z
1/2+x,-y,1/2-z
1/2-x,y,1/2-z
1/2-x,-y,1/2-z
1/2+x,y,1/2-z
1/2-x,y,1/2+z
1/2+x,-y,1/2+z
1/2+x,1/2+y,z
1/2-x,1/2-y,z
1/2+x,1/2-y,-z
1/2-x,1/2+y,-z
1/2-x,1/2-y,-z
1/2+x,1/2+y,-z
1/2-x,1/2+y,z
1/2+x,1/2-y,z
loop_
_atom_site_type_symbol
_atom_site_label
_atom_site_fract_x
_atom_site_fract_y
_atom_site_fract_z
Si Si1 0.430040 0.802286 0.796487
Si Si2 0.903227 0.195317 0.112686
Si Si3 0.235315 0.163565 0.868246
Si Si4 0.500000 0.093455 0.555903
Si Si5 0.570905 0.654241 0.556139
Si Si6 0.804147 0.085482 0.444298
Si Si7 0.805038 0.090808 0.286714
O O1 0.500000 0.839926 0.798990
O O2 0.428473 0.750000 0.750000
O O3 0.425479 0.743401 0.841093
O O4 0.369572 0.859460 0.791670
O O5 0.838253 0.157509 0.127534
O O6 0.943410 0.130168 0.086030
O O7 0.901794 0.264529 0.074565
O O8 0.250000 0.250000 0.849545
O O9 0.265675 0.151950 0.918848
O O10 0.269693 0.101693 0.835850
O O11 0.500000 0.116922 0.500000
O O12 0.500000 0.000000 0.556925
O O13 0.567471 0.654758 0.500000
O O14 0.500000 0.643153 0.573967
O O15 0.622992 0.591855 0.570317
O O16 0.801775 0.094494 0.500000
O O17 0.778939 0.000000 0.432610
O O18 0.750000 0.117368 0.250000
O O19 0.819016 0.000000 0.276665
#
# Coordination Sequence:
#
# PCOD9511855 Si02
#       7
#    32  32  32  16  32  32  32
#     4  11  23  41  70 101 135 176 225 275 329 392
#     4  12  22  40  65  92 123 164 219 272 327 396
#     4  12  23  38  64  93 121 167 217 268 322 390
#     4  11  26  46  67  94 131 173 220 283 350 410
#     4  10  19  33  58  87 116 157 207 259 314 388
#     4  10  22  38  55  85 127 161 201 264 331 391
#     4  11  25  44  68 101 139 177 219 272 336 398
#
# _framework density 19.909281
#
# number of rings (size 3 to 8) (size 9 to 14) (size 15 to 20)
#    0.000    1.000    4.615    1.846    0.000    3.385 
#    0.000    3.846    0.000    3.692    0.000    0.000 
#    0.000    0.000    0.000    0.000    0.000    0.000 
#
# Total GULP energy -289799.778777 kJ/mol
# GULP energy per Si atom -5573.072669 kJ/mol
# Density = 1.986397 g / cm^3
# Si number density = 19.909281 Si / 1000 Ang^3
#
#
#
# Elastic Constant Matrix: (Units=GPa)
#
#
# Indices 1 2 3 4 5 6 
#
# 1 158.9442 40.8075 50.3423 0.0000 0.0000 0.0000
# 2 40.8075 68.9969 31.5245 0.0000 0.0000 0.0000
# 3 50.3423 31.5245 60.6302 0.0000 0.0000 0.0000
# 4 0.0000 0.0000 0.0000 25.6714 0.0000 0.0000
# 5 0.0000 0.0000 0.0000 0.0000 22.0063 0.0000
# 6 0.0000 0.0000 0.0000 0.0000 0.0000 27.1244
#
#
#
# Elastic Compliance Matrix: (Units=1/GPa)
#
#
# Indices 1 2 3 4 5 6 
#
# 1 0.008844 -0.002460 -0.006064 0.000000 0.000000 0.000000
# 2 -0.002460 0.019693 -0.008197 0.000000 0.000000 0.000000
# 3 -0.006064 -0.008197 0.025791 0.000000 0.000000 0.000000
# 4 0.000000 0.000000 0.000000 0.038954 0.000000 0.000000
# 5 0.000000 0.000000 0.000000 0.000000 0.045441 0.000000
# 6 0.000000 0.000000 0.000000 0.000000 0.000000 0.036867
#
#
# Mechanical properties :
#
#
# Convention : Reuss Voigt Hill
#
# Bulk Modulus (GPa) = 47.87966 59.32444 53.60205
# Shear Modulus (GPa) = 23.14873 26.02022 24.58448
#
# Velocity S-wave (km/s) = 3.41355 3.61908 3.51782
# Velocity P-wave (km/s) = 6.29584 6.87937 6.59406
#
# Compressibility (1/GPa) = 0.02088569
#
# Stress axis : x y z
#
# Youngs Moduli (GPa) = 113.07422 50.77818 38.77375
#
# Poissons Ratio (x) = 0.12491 0.23513
# Poissons Ratio (y) = 0.27815 0.31783
# Poissons Ratio (z) = 0.68570 0.41623
#
# Static dielectric constant tensor:
#      x y z
#    x 1.750310 0.000000 0.000000 
#    y 0.000000 1.692340 0.000000 
#    z 0.000000 0.000000 1.742740 
# 
# From -- ./inp_files/42722.got.cif
#   From: 2010.05.17/outbox.cif.g08.bks.cpg/sg69_22_cif.got.tgz:42722.got - 2010.06.03 19:29:58.
