data_PCOD9511801
_publ_section_title
;
Structure prediction by ZEFSAII (Michael W. Deem and Ramdas Pophale) SiO2 
 PCOD9511801
Probable space group: F M M M
;
_chemical_formula_sum "Si O2"
_cell_formula_units_Z 128
_cell_length_a 25.972723
_cell_length_b 7.682589
_cell_length_c 30.770744
_cell_angle_alpha 90.000000
_cell_angle_beta 90.000000
_cell_angle_gamma 90.000000
_cell_volume 6139.925209
_symmetry_space_group_name_H-M "F M M M"
_symmetry_group_IT_number 69
_symmetry_cell_setting 'orthorhombic'
loop_
_space_group_symop_operation_xyz
x,y,z
-x,-y,z
x,-y,-z
-x,y,-z
-x,-y,-z
x,y,-z
-x,y,z
x,-y,z
x,1/2+y,1/2+z
-x,1/2-y,1/2+z
x,1/2-y,1/2-z
-x,1/2+y,1/2-z
-x,1/2-y,1/2-z
x,1/2+y,1/2-z
-x,1/2+y,1/2+z
x,1/2-y,1/2+z
1/2+x,y,1/2+z
1/2-x,-y,1/2+z
1/2+x,-y,1/2-z
1/2-x,y,1/2-z
1/2-x,-y,1/2-z
1/2+x,y,1/2-z
1/2-x,y,1/2+z
1/2+x,-y,1/2+z
1/2+x,1/2+y,z
1/2-x,1/2-y,z
1/2+x,1/2-y,-z
1/2-x,1/2+y,-z
1/2-x,1/2-y,-z
1/2+x,1/2+y,-z
1/2-x,1/2+y,z
1/2+x,1/2-y,z
loop_
_atom_site_type_symbol
_atom_site_label
_atom_site_fract_x
_atom_site_fract_y
_atom_site_fract_z
Si Si1 0.811263 0.790800 0.000000
Si Si2 0.000000 0.790619 0.699309
Si Si3 0.938611 0.791270 0.545923
Si Si4 0.190199 0.706328 0.596787
Si Si5 0.092497 0.207601 0.638975
O O1 0.750000 0.750000 0.000000
O O2 0.826732 0.722230 0.048532
O O3 0.817166 0.000000 0.000000
O O4 0.000000 0.750000 0.750000
O O5 0.947768 0.726704 0.675000
O O6 0.000000 0.000000 0.695894
O O7 0.917735 0.719623 0.500000
O O8 0.922449 0.716140 0.591903
O O9 0.000000 0.770196 0.544695
O O10 0.929498 0.000000 0.546052
O O11 0.186054 0.500000 0.594103
O O12 0.250000 0.750000 0.603161
O O13 0.153812 0.765408 0.636545
O O14 0.084335 0.000000 0.637845
#
# Coordination Sequence:
#
# PCOD9511801 Si02
#       5
#    16  16  32  32  32
#     4   8  16  30  46  67 102 147 193 230 260 302
#     4  10  22  40  61  85 112 140 177 225 279 338
#     4   8  13  23  42  70 104 139 174 212 256 309
#     4  10  20  34  51  75 109 150 191 229 268 314
#     4  10  19  33  54  81 109 140 182 228 271 319
#
# _framework density 20.847159000000001
#
# number of rings (size 3 to 8) (size 9 to 14) (size 15 to 20)
#    0.000    2.750    1.250    1.500    1.750    2.000 
#    0.000    0.000    0.000    0.750    0.000    9.625 
#    0.000    0.000    0.000    0.000    0.000    0.000 
#
# Total GULP energy -178262.148876 kJ/mol
# GULP energy per Si atom -5570.692152 kJ/mol
# Density = 2.079971 g / cm^3
# Si number density = 20.847159 Si / 1000 Ang^3
#
#
#
# Elastic Constant Matrix: (Units=GPa)
#
#
# Indices 1 2 3 4 5 6 
#
# 1 132.8679 12.3388 87.6558 0.0000 0.0000 0.0006
# 2 12.3388 49.8362 6.3693 -0.0002 0.0000 0.0012
# 3 87.6558 6.3693 137.0701 0.0000 0.0000 0.0000
# 4 0.0000 -0.0002 0.0000 17.3457 0.0000 0.0000
# 5 0.0000 0.0000 0.0000 0.0000 26.6330 0.0000
# 6 0.0006 0.0012 0.0000 0.0000 0.0000 15.4788
#
#
#
# Elastic Compliance Matrix: (Units=1/GPa)
#
#
# Indices 1 2 3 4 5 6 
#
# 1 0.013257 -0.002212 -0.008375 0.000000 0.000000 0.000000
# 2 -0.002212 0.020555 0.000459 0.000000 0.000000 -0.000001
# 3 -0.008375 0.000459 0.012630 0.000000 0.000000 0.000000
# 4 0.000000 0.000000 0.000000 0.057651 0.000000 0.000000
# 5 0.000000 0.000000 0.000000 0.000000 0.037547 0.000000
# 6 0.000000 -0.000001 0.000000 0.000000 0.000000 0.064605
#
#
# Mechanical properties :
#
#
# Convention : Reuss Voigt Hill
#
# Bulk Modulus (GPa) = 38.18753 59.16688 48.67720
# Shear Modulus (GPa) = 21.25599 26.11886 23.68743
#
# Velocity S-wave (km/s) = 3.19660 3.54344 3.37448
# Velocity P-wave (km/s) = 5.65526 6.72191 6.21152
#
# Compressibility (1/GPa) = 0.02618656
#
# Stress axis : x y z
#
# Youngs Moduli (GPa) = 75.43328 48.65078 79.17735
#
# Poissons Ratio (x) = 0.10761 0.66310
# Poissons Ratio (y) = 0.16685 -0.03637
# Poissons Ratio (z) = 0.63174 -0.02235
#
# Static dielectric constant tensor:
#      x y z
#    x 1.911410 0.000000 0.000000 
#    y 0.000000 1.762530 0.000000 
#    z 0.000000 0.000000 1.766560 
# 
# From -- ./inp_files/44390.got.cif
#   From: 2010.05.17/outbox.cif.g08.bks.cpg/sg69_23_cif.got.tgz:44390.got - 2010.06.03 19:29:58.
