data_PCOD9511919
_publ_section_title
;
Structure prediction by ZEFSAII (Michael W. Deem and Ramdas Pophale) SiO2 
 PCOD9511919
Probable space group: F M M M
;
_chemical_formula_sum "Si O2"
_cell_formula_units_Z 176
_cell_length_a 22.334519
_cell_length_b 29.383635
_cell_length_c 13.916522
_cell_angle_alpha 90.000000
_cell_angle_beta 90.000000
_cell_angle_gamma 90.000000
_cell_volume 9132.986906
_symmetry_space_group_name_H-M "F M M M"
_symmetry_group_IT_number 69
_symmetry_cell_setting 'orthorhombic'
loop_
_space_group_symop_operation_xyz
x,y,z
-x,-y,z
x,-y,-z
-x,y,-z
-x,-y,-z
x,y,-z
-x,y,z
x,-y,z
x,1/2+y,1/2+z
-x,1/2-y,1/2+z
x,1/2-y,1/2-z
-x,1/2+y,1/2-z
-x,1/2-y,1/2-z
x,1/2+y,1/2-z
-x,1/2+y,1/2+z
x,1/2-y,1/2+z
1/2+x,y,1/2+z
1/2-x,-y,1/2+z
1/2+x,-y,1/2-z
1/2-x,y,1/2-z
1/2-x,-y,1/2-z
1/2+x,y,1/2-z
1/2-x,y,1/2+z
1/2+x,-y,1/2+z
1/2+x,1/2+y,z
1/2-x,1/2-y,z
1/2+x,1/2-y,-z
1/2-x,1/2+y,-z
1/2-x,1/2-y,-z
1/2+x,1/2+y,-z
1/2-x,1/2+y,z
1/2+x,1/2-y,z
loop_
_atom_site_type_symbol
_atom_site_label
_atom_site_fract_x
_atom_site_fract_y
_atom_site_fract_z
Si Si1 0.739807 0.679309 0.890423
Si Si2 0.927750 0.052910 0.500000
Si Si3 0.349563 0.950029 0.286111
Si Si4 0.265374 0.072492 0.107282
Si Si5 0.149544 0.298486 0.777651
Si Si6 0.571307 0.384615 0.685520
O O1 0.763516 0.627220 0.884715
O O2 0.796338 0.708552 0.853718
O O3 0.685236 0.683438 0.816289
O O4 0.723664 0.689167 0.000000
O O5 0.913394 0.083669 0.593185
O O6 0.000000 0.049407 0.500000
O O7 0.906264 0.000000 0.500000
O O8 0.307213 0.946169 0.191345
O O9 0.302470 0.943041 0.371645
O O10 0.399580 0.911850 0.274451
O O11 0.376751 0.000000 0.289316
O O12 0.284241 0.059571 0.000000
O O13 0.122075 0.250000 0.750000
O O14 0.103665 0.335869 0.816449
O O15 0.500000 0.380305 0.691250
#
# Coordination Sequence:
#
# PCOD9511919 Si02
#       6
#    32  16  32  32  32  32
#     4  10  19  36  61  86 116 150 187 240 301 356
#     4   9  20  38  60  86 113 150 200 248 299 354
#     4  11  21  34  55  83 113 148 188 227 285 353
#     4  10  19  34  57  83 115 147 179 230 293 350
#     4  11  22  37  59  88 116 149 194 240 295 358
#     4  11  23  40  57  80 118 155 196 245 287 343
#
# _framework density 19.270803999999998
#
# number of rings (size 3 to 8) (size 9 to 14) (size 15 to 20)
#    0.000    1.545    3.636    3.818    2.545    4.364 
#    0.000    0.000    0.000    2.182    0.000    1.273 
#    0.000    0.000    0.000    0.000    0.000    0.000 
#
# Total GULP energy -245734.512479 kJ/mol
# GULP energy per Si atom -5584.875284 kJ/mol
# Density = 1.922694 g / cm^3
# Si number density = 19.270804 Si / 1000 Ang^3
#
#
#
# Elastic Constant Matrix: (Units=GPa)
#
#
# Indices 1 2 3 4 5 6 
#
# 1 97.4252 34.8530 18.9880 0.0000 0.0000 0.0000
# 2 34.8530 128.1007 10.1221 0.0000 0.0000 0.0000
# 3 18.9880 10.1221 78.7635 0.0000 0.0000 0.0000
# 4 0.0000 0.0000 0.0000 9.6258 0.0000 0.0000
# 5 0.0000 0.0000 0.0000 0.0000 20.4556 0.0000
# 6 0.0000 0.0000 0.0000 0.0000 0.0000 24.1203
#
#
#
# Elastic Compliance Matrix: (Units=1/GPa)
#
#
# Indices 1 2 3 4 5 6 
#
# 1 0.011826 -0.003023 -0.002462 0.000000 0.000000 0.000000
# 2 -0.003023 0.008659 -0.000384 0.000000 0.000000 0.000000
# 3 -0.002462 -0.000384 0.013339 0.000000 0.000000 0.000000
# 4 0.000000 0.000000 0.000000 0.103887 0.000000 0.000000
# 5 0.000000 0.000000 0.000000 0.000000 0.048886 0.000000
# 6 0.000000 0.000000 0.000000 0.000000 0.000000 0.041459
#
#
# Mechanical properties :
#
#
# Convention : Reuss Voigt Hill
#
# Bulk Modulus (GPa) = 45.27900 48.02396 46.65148
# Shear Modulus (GPa) = 20.23004 26.86210 23.54607
#
# Velocity S-wave (km/s) = 3.24354 3.73758 3.49929
# Velocity P-wave (km/s) = 6.12981 6.60308 6.37084
#
# Compressibility (1/GPa) = 0.02208529
#
# Stress axis : x y z
#
# Youngs Moduli (GPa) = 84.56224 115.48472 74.96696
#
# Poissons Ratio (x) = 0.34910 0.18460
# Poissons Ratio (y) = 0.25562 0.02879
# Poissons Ratio (z) = 0.20823 0.04435
#
# Static dielectric constant tensor:
#      x y z
#    x 1.671410 0.000000 0.000000 
#    y 0.000000 1.718840 0.000000 
#    z 0.000000 0.000000 1.691910 
# 
# From -- ./inp_files/18272.got.cif
#   From: 2010.05.17/outbox.cif.g08.bks.cpg/sg69_10_cif.got.tgz:18272.got - 2010.06.03 19:29:58.
