data_PCOD9511495
_publ_section_title
;
Structure prediction by ZEFSAII (Michael W. Deem and Ramdas Pophale) SiO2 
 PCOD9511495
Probable space group: F M M M
;
_chemical_formula_sum "Si O2"
_cell_formula_units_Z 144
_cell_length_a 8.881084
_cell_length_b 30.753472
_cell_length_c 27.249080
_cell_angle_alpha 90.000000
_cell_angle_beta 90.000000
_cell_angle_gamma 90.000000
_cell_volume 7442.382307
_symmetry_space_group_name_H-M "F M M M"
_symmetry_group_IT_number 69
_symmetry_cell_setting 'orthorhombic'
loop_
_space_group_symop_operation_xyz
x,y,z
-x,-y,z
x,-y,-z
-x,y,-z
-x,-y,-z
x,y,-z
-x,y,z
x,-y,z
x,1/2+y,1/2+z
-x,1/2-y,1/2+z
x,1/2-y,1/2-z
-x,1/2+y,1/2-z
-x,1/2-y,1/2-z
x,1/2+y,1/2-z
-x,1/2+y,1/2+z
x,1/2-y,1/2+z
1/2+x,y,1/2+z
1/2-x,-y,1/2+z
1/2+x,-y,1/2-z
1/2-x,y,1/2-z
1/2-x,-y,1/2-z
1/2+x,y,1/2-z
1/2-x,y,1/2+z
1/2+x,-y,1/2+z
1/2+x,1/2+y,z
1/2-x,1/2-y,z
1/2+x,1/2-y,-z
1/2-x,1/2+y,-z
1/2-x,1/2-y,-z
1/2+x,1/2+y,-z
1/2-x,1/2+y,z
1/2+x,1/2-y,z
loop_
_atom_site_type_symbol
_atom_site_label
_atom_site_fract_x
_atom_site_fract_y
_atom_site_fract_z
Si Si1 0.181814 0.386729 0.586872
Si Si2 0.829851 0.294803 0.928178
Si Si3 0.183436 0.549641 0.500000
Si Si4 0.321402 0.614483 0.800401
Si Si5 0.330107 0.794176 0.189372
O O1 0.242448 0.340462 0.566353
O O2 0.228428 0.423885 0.548641
O O3 0.229079 0.397479 0.643509
O O4 0.000000 0.383614 0.587952
O O5 0.750000 0.250000 0.944604
O O6 0.841571 0.291740 0.869338
O O7 0.000000 0.297535 0.946983
O O8 0.236118 0.500000 0.500000
O O9 0.000000 0.549052 0.500000
O O10 0.500000 0.608548 0.797690
O O11 0.250000 0.595238 0.750000
O O12 0.275123 0.665105 0.799576
O O13 0.500000 0.799459 0.208983
O O14 0.250000 0.750000 0.203158
#
# Coordination Sequence:
#
# PCOD9511495 Si02
#       5
#    32  32  16  32  32
#     4   9  18  33  54  80 108 137 174 220 265 311
#     4   9  16  27  46  72 105 144 182 219 259 306
#     4   9  18  36  64  91 108 127 164 217 272 321
#     4  10  19  30  45  68  99 135 172 209 252 303
#     4   9  16  26  40  61  92 132 177 221 259 296
#
# _framework density 19.348642999999999
#
# number of rings (size 3 to 8) (size 9 to 14) (size 15 to 20)
#    0.000    2.778    0.000    2.000    0.000    6.667 
#    0.000    3.333    0.000    2.000    0.000    0.000 
#    0.000    0.000    0.000    0.000    0.000    0.667 
#
# Total GULP energy -200496.412990 kJ/mol
# GULP energy per Si atom -5569.344805 kJ/mol
# Density = 1.930461 g / cm^3
# Si number density = 19.348643 Si / 1000 Ang^3
#
#
#
# Elastic Constant Matrix: (Units=GPa)
#
#
# Indices 1 2 3 4 5 6 
#
# 1 46.8318 24.4988 26.2735 0.0000 0.0000 0.0000
# 2 24.4988 110.9938 62.1401 0.0000 0.0000 0.0000
# 3 26.2735 62.1401 171.5612 0.0000 0.0000 0.0000
# 4 0.0000 0.0000 0.0000 -12.3785 0.0000 0.0000
# 5 0.0000 0.0000 0.0000 0.0000 73.5843 0.0000
# 6 0.0000 0.0000 0.0000 0.0000 0.0000 12.3408
#
#
#
# Elastic Compliance Matrix: (Units=1/GPa)
#
#
# Indices 1 2 3 4 5 6 
#
# 1 0.024832 -0.004204 -0.002280 0.000000 0.000000 0.000000
# 2 -0.004204 0.012013 -0.003707 0.000000 0.000000 0.000000
# 3 -0.002280 -0.003707 0.007521 0.000000 0.000000 0.000000
# 4 0.000000 0.000000 0.000000 -0.080785 0.000000 0.000000
# 5 0.000000 0.000000 0.000000 0.000000 0.013590 0.000000
# 6 0.000000 0.000000 0.000000 0.000000 0.000000 0.081032
#
#
# Mechanical properties :
#
#
# Convention : Reuss Voigt Hill
#
# Bulk Modulus (GPa) = 41.69786 61.69016 51.69401
# Shear Modulus (GPa) = 57.75076 29.14096 43.44586
#
# Velocity S-wave (km/s) = 5.46921 3.88506 4.74373
# Velocity P-wave (km/s) = 7.84095 7.21648 7.53519
#
# Compressibility (1/GPa) = 0.02398204
#
# Stress axis : x y z
#
# Youngs Moduli (GPa) = 40.27138 83.24277 132.96505
#
# Poissons Ratio (x) = 0.34999 0.30315
# Poissons Ratio (y) = 0.16932 0.49294
# Poissons Ratio (z) = 0.09182 0.30860
#
# Static dielectric constant tensor:
#      x y z
#    x 1.687100 0.000000 0.000000 
#    y 0.000000 1.625880 0.000000 
#    z 0.000000 0.000000 1.785200 
# 
# From -- ./inp_files/44533.got.cif
#   From: 2010.05.17/outbox.cif.g08.bks.cpg/sg69_23_cif.got.tgz:44533.got - 2010.06.03 19:29:58.
