data_PCOD9511092
_publ_section_title
;
Structure prediction by ZEFSAII (Michael W. Deem and Ramdas Pophale) SiO2 
 PCOD9511092
Probable space group: F M M M
;
_chemical_formula_sum "Si O2"
_cell_formula_units_Z 200
_cell_length_a 17.140851
_cell_length_b 21.084907
_cell_length_c 31.241695
_cell_angle_alpha 90.000000
_cell_angle_beta 90.000000
_cell_angle_gamma 90.000000
_cell_volume 11291.162502
_symmetry_space_group_name_H-M "F M M M"
_symmetry_group_IT_number 69
_symmetry_cell_setting 'orthorhombic'
loop_
_space_group_symop_operation_xyz
x,y,z
-x,-y,z
x,-y,-z
-x,y,-z
-x,-y,-z
x,y,-z
-x,y,z
x,-y,z
x,1/2+y,1/2+z
-x,1/2-y,1/2+z
x,1/2-y,1/2-z
-x,1/2+y,1/2-z
-x,1/2-y,1/2-z
x,1/2+y,1/2-z
-x,1/2+y,1/2+z
x,1/2-y,1/2+z
1/2+x,y,1/2+z
1/2-x,-y,1/2+z
1/2+x,-y,1/2-z
1/2-x,y,1/2-z
1/2-x,-y,1/2-z
1/2+x,y,1/2-z
1/2-x,y,1/2+z
1/2+x,-y,1/2+z
1/2+x,1/2+y,z
1/2-x,1/2-y,z
1/2+x,1/2-y,-z
1/2-x,1/2+y,-z
1/2-x,1/2-y,-z
1/2+x,1/2+y,-z
1/2-x,1/2+y,z
1/2+x,1/2-y,z
loop_
_atom_site_type_symbol
_atom_site_label
_atom_site_fract_x
_atom_site_fract_y
_atom_site_fract_z
Si Si1 0.196787 0.313208 0.049484
Si Si2 0.092979 0.635042 0.353142
Si Si3 0.092420 0.926554 0.236658
Si Si4 0.728513 0.571774 0.100978
Si Si5 0.907122 0.221084 0.373052
Si Si6 0.141593 0.096915 0.329607
Si Si7 0.500000 0.500000 0.348667
O O1 0.250000 0.250000 0.052373
O O2 0.240879 0.374887 0.068151
O O3 0.124503 0.300161 0.080786
O O4 0.175673 0.322644 0.000000
O O5 0.109091 0.616881 0.303913
O O6 0.141965 0.589594 0.383841
O O7 0.117434 0.707159 0.362799
O O8 0.000000 0.628743 0.359584
O O9 0.142761 0.914277 0.278853
O O10 0.000000 0.918818 0.248674
O O11 0.101601 0.000000 0.223828
O O12 0.733932 0.500000 0.084546
O O13 0.782792 0.577369 0.143374
O O14 0.873733 0.170474 0.339646
O O15 0.000000 0.218976 0.371575
O O16 0.068936 0.055094 0.346579
#
# Coordination Sequence:
#
# PCOD9511092 Si02
#       7
#    32  32  32  32  32  32   8
#     4  10  21  39  62  83 108 141 175 226 286 341
#     4  10  22  36  53  78 112 153 195 240 280 318
#     4  10  17  31  51  75 110 152 194 233 279 328
#     4  11  22  37  58  86 113 147 190 231 282 342
#     4  10  20  36  57  83 112 146 187 227 277 344
#     4  11  20  32  57  81 112 152 189 234 277 336
#     4  12  16  36  52  84 115 148 194 230 291 338
#
# _framework density 17.712968
#
# number of rings (size 3 to 8) (size 9 to 14) (size 15 to 20)
#    0.000    1.600    4.800    0.480    0.000    2.880 
#    0.000    4.000    0.000    2.400    0.000    5.600 
#    0.000    0.000    0.000    0.000    0.000    0.000 
#
# Total GULP energy -278490.549621 kJ/mol
# GULP energy per Si atom -5569.810992 kJ/mol
# Density = 1.767265 g / cm^3
# Si number density = 17.712968 Si / 1000 Ang^3
#
#
#
# Elastic Constant Matrix: (Units=GPa)
#
#
# Indices 1 2 3 4 5 6 
#
# 1 29.2161 23.8963 7.5000 0.0000 0.0000 0.0000
# 2 23.8963 129.6934 48.8169 0.0000 0.0000 0.0000
# 3 7.5000 48.8169 80.3956 0.0000 0.0000 0.0000
# 4 0.0000 0.0000 0.0000 7.6976 0.0000 0.0000
# 5 0.0000 0.0000 0.0000 0.0000 15.1909 0.0000
# 6 0.0000 0.0000 0.0000 0.0000 0.0000 25.9116
#
#
#
# Elastic Compliance Matrix: (Units=1/GPa)
#
#
# Indices 1 2 3 4 5 6 
#
# 1 0.040360 -0.007802 0.000973 0.000000 0.000000 0.000000
# 2 -0.007802 0.011503 -0.006257 0.000000 0.000000 0.000000
# 3 0.000973 -0.006257 0.016147 0.000000 0.000000 0.000000
# 4 0.000000 0.000000 0.000000 0.129911 0.000000 0.000000
# 5 0.000000 0.000000 0.000000 0.000000 0.065829 0.000000
# 6 0.000000 0.000000 0.000000 0.000000 0.000000 0.038593
#
#
# Mechanical properties :
#
#
# Convention : Reuss Voigt Hill
#
# Bulk Modulus (GPa) = 23.90265 44.41460 34.15863
# Shear Modulus (GPa) = 14.60018 20.36615 17.48316
#
# Velocity S-wave (km/s) = 2.87412 3.39453 3.14511
# Velocity P-wave (km/s) = 4.95356 6.36340 5.70222
#
# Compressibility (1/GPa) = 0.04183636
#
# Stress axis : x y z
#
# Youngs Moduli (GPa) = 24.77716 86.93186 61.93079
#
# Poissons Ratio (x) = 0.67828 -0.06023
# Poissons Ratio (y) = 0.19332 0.38750
# Poissons Ratio (z) = -0.02410 0.54393
#
# Static dielectric constant tensor:
#      x y z
#    x 1.613110 0.000000 0.000000 
#    y 0.000000 1.637090 0.000000 
#    z 0.000000 0.000000 1.578380 
# 
# From -- ./inp_files/25188.got.cif
#   From: 2010.05.17/outbox.cif.g08.bks.cpg/sg69_13_cif.got.tgz:25188.got - 2010.06.03 19:29:58.
