data_PCOD9511212
_publ_section_title
;
Structure prediction by ZEFSAII (Michael W. Deem and Ramdas Pophale) SiO2 
 PCOD9511212
Probable space group: F M M M
;
_chemical_formula_sum "Si O2"
_cell_formula_units_Z 128
_cell_length_a 26.534849
_cell_length_b 8.127422
_cell_length_c 29.660749
_cell_angle_alpha 90.000000
_cell_angle_beta 90.000000
_cell_angle_gamma 90.000000
_cell_volume 6396.634624
_symmetry_space_group_name_H-M "F M M M"
_symmetry_group_IT_number 69
_symmetry_cell_setting 'orthorhombic'
loop_
_space_group_symop_operation_xyz
x,y,z
-x,-y,z
x,-y,-z
-x,y,-z
-x,-y,-z
x,y,-z
-x,y,z
x,-y,z
x,1/2+y,1/2+z
-x,1/2-y,1/2+z
x,1/2-y,1/2-z
-x,1/2+y,1/2-z
-x,1/2-y,1/2-z
x,1/2+y,1/2-z
-x,1/2+y,1/2+z
x,1/2-y,1/2+z
1/2+x,y,1/2+z
1/2-x,-y,1/2+z
1/2+x,-y,1/2-z
1/2-x,y,1/2-z
1/2-x,-y,1/2-z
1/2+x,y,1/2-z
1/2-x,y,1/2+z
1/2+x,-y,1/2+z
1/2+x,1/2+y,z
1/2-x,1/2-y,z
1/2+x,1/2-y,-z
1/2-x,1/2+y,-z
1/2-x,1/2-y,-z
1/2+x,1/2+y,-z
1/2-x,1/2+y,z
1/2+x,1/2-y,z
loop_
_atom_site_type_symbol
_atom_site_label
_atom_site_fract_x
_atom_site_fract_y
_atom_site_fract_z
Si Si1 0.808408 0.694942 0.000000
Si Si2 0.000000 0.700067 0.698165
Si Si3 0.939378 0.808941 0.550143
Si Si4 0.192207 0.696622 0.599812
Si Si5 0.095971 0.310435 0.643323
O O1 0.750000 0.750000 0.000000
O O2 0.825709 0.753964 0.049347
O O3 0.811938 0.500000 0.000000
O O4 0.000000 0.750000 0.750000
O O5 0.948753 0.762505 0.673825
O O6 0.000000 0.500000 0.693815
O O7 0.922210 0.758339 0.500000
O O8 0.924155 0.699286 0.592133
O O9 0.000000 0.809457 0.549028
O O10 0.923655 0.000000 0.557408
O O11 0.191118 0.500000 0.601512
O O12 0.250000 0.750000 0.606113
O O13 0.152182 0.762145 0.636819
O O14 0.101762 0.500000 0.657724
#
# Coordination Sequence:
#
# PCOD9511212 Si02
#       5
#    16  16  32  32  32
#     4  10  18  30  48  71 104 149 193 233 265 303
#     4  10  22  42  63  86 109 133 170 223 281 340
#     4   9  18  31  47  73 110 146 181 220 261 311
#     4  10  20  34  51  75 107 147 188 228 265 310
#     4  10  21  36  56  79 108 142 182 223 269 324
#
# _framework density 20.010522000000002
#
# number of rings (size 3 to 8) (size 9 to 14) (size 15 to 20)
#    0.000    2.250    1.250    4.125    1.750    3.500 
#    0.000    1.250    0.000    0.750    0.000    5.250 
#    0.000    0.000    0.000    0.000    0.000    0.000 
#
# Total GULP energy -178394.361983 kJ/mol
# GULP energy per Si atom -5574.823812 kJ/mol
# Density = 1.996498 g / cm^3
# Si number density = 20.010522 Si / 1000 Ang^3
#
#
#
# Elastic Constant Matrix: (Units=GPa)
#
#
# Indices 1 2 3 4 5 6 
#
# 1 159.5638 13.6008 67.9769 0.0000 0.0000 -0.0001
# 2 13.6008 32.1115 2.4884 0.0000 0.0000 -0.0001
# 3 67.9769 2.4884 93.8295 0.0000 0.0000 0.0000
# 4 0.0000 0.0000 0.0000 20.8806 0.0000 0.0000
# 5 0.0000 0.0000 0.0000 0.0000 21.9625 0.0000
# 6 -0.0001 -0.0001 0.0000 0.0000 0.0000 15.6316
#
#
#
# Elastic Compliance Matrix: (Units=1/GPa)
#
#
# Indices 1 2 3 4 5 6 
#
# 1 0.009436 -0.003474 -0.006744 0.000000 0.000000 0.000000
# 2 -0.003474 0.032485 0.001655 0.000000 0.000000 0.000000
# 3 -0.006744 0.001655 0.015500 0.000000 0.000000 0.000000
# 4 0.000000 0.000000 0.000000 0.047891 0.000000 0.000000
# 5 0.000000 0.000000 0.000000 0.000000 0.045532 0.000000
# 6 0.000000 0.000000 0.000000 0.000000 0.000000 0.063973
#
#
# Mechanical properties :
#
#
# Convention : Reuss Voigt Hill
#
# Bulk Modulus (GPa) = 24.81707 50.40412 37.61060
# Shear Modulus (GPa) = 20.37697 25.12417 22.75057
#
# Velocity S-wave (km/s) = 3.19456 3.54722 3.37550
# Velocity P-wave (km/s) = 5.10254 6.48232 5.83337
#
# Compressibility (1/GPa) = 0.04029484
#
# Stress axis : x y z
#
# Youngs Moduli (GPa) = 105.97275 30.78372 64.51707
#
# Poissons Ratio (x) = 0.10695 0.43512
# Poissons Ratio (y) = 0.36816 -0.10680
# Poissons Ratio (z) = 0.71471 -0.05096
#
# Static dielectric constant tensor:
#      x y z
#    x 1.835160 0.000000 0.000000 
#    y 0.000000 -1.377830 0.000000 
#    z 0.000000 0.000000 1.666240 
# 
# From -- ./inp_files/39667.got.cif
#   From: 2010.05.17/outbox.cif.g08.bks.cpg/sg69_20_cif.got.tgz:39667.got - 2010.06.03 19:29:58.
