data_PCOD9511496
_publ_section_title
;
Structure prediction by ZEFSAII (Michael W. Deem and Ramdas Pophale) SiO2 
 PCOD9511496
Probable space group: F M M M
;
_chemical_formula_sum "Si O2"
_cell_formula_units_Z 208
_cell_length_a 25.168866
_cell_length_b 28.713323
_cell_length_c 18.247525
_cell_angle_alpha 90.000000
_cell_angle_beta 90.000000
_cell_angle_gamma 90.000000
_cell_volume 13187.153829
_symmetry_space_group_name_H-M "F M M M"
_symmetry_group_IT_number 69
_symmetry_cell_setting 'orthorhombic'
loop_
_space_group_symop_operation_xyz
x,y,z
-x,-y,z
x,-y,-z
-x,y,-z
-x,-y,-z
x,y,-z
-x,y,z
x,-y,z
x,1/2+y,1/2+z
-x,1/2-y,1/2+z
x,1/2-y,1/2-z
-x,1/2+y,1/2-z
-x,1/2-y,1/2-z
x,1/2+y,1/2-z
-x,1/2+y,1/2+z
x,1/2-y,1/2+z
1/2+x,y,1/2+z
1/2-x,-y,1/2+z
1/2+x,-y,1/2-z
1/2-x,y,1/2-z
1/2-x,-y,1/2-z
1/2+x,y,1/2-z
1/2-x,y,1/2+z
1/2+x,-y,1/2+z
1/2+x,1/2+y,z
1/2-x,1/2-y,z
1/2+x,1/2-y,-z
1/2-x,1/2+y,-z
1/2-x,1/2-y,-z
1/2+x,1/2+y,-z
1/2-x,1/2+y,z
1/2+x,1/2-y,z
loop_
_atom_site_type_symbol
_atom_site_label
_atom_site_fract_x
_atom_site_fract_y
_atom_site_fract_z
Si Si1 0.935752 0.447312 0.000000
Si Si2 0.360562 0.305502 0.588537
Si Si3 0.936668 0.614417 0.584842
Si Si4 0.435917 0.885110 0.859708
Si Si5 0.564487 0.947042 0.720744
Si Si6 0.250335 0.806528 0.165860
Si Si7 0.357515 0.303237 0.912916
O O1 0.921530 0.418922 0.072550
O O2 0.915208 0.500000 0.000000
O O3 0.000000 0.449933 0.000000
O O4 0.361643 0.310620 0.500000
O O5 0.405310 0.337281 0.625580
O O6 0.303129 0.319771 0.621160
O O7 0.368634 0.250701 0.606350
O O8 0.925495 0.602118 0.500000
O O9 0.920830 0.574682 0.642378
O O10 0.905682 0.661920 0.602609
O O11 0.000000 0.621635 0.591476
O O12 0.500000 0.878402 0.859662
O O13 0.420095 0.911614 0.785322
O O14 0.500000 0.948964 0.723286
O O15 0.583609 0.000000 0.731297
O O16 0.250000 0.822430 0.250000
O O17 0.250000 0.750000 0.166070
O O18 0.195665 0.820154 0.126995
O O19 0.347622 0.303699 0.000000
#
# Coordination Sequence:
#
# PCOD9511496 Si02
#       7
#    16  32  32  32  32  32  32
#     4   9  16  28  46  66  95 132 166 198 231 274
#     4  10  19  31  48  71 100 132 166 200 232 278
#     4   9  18  32  50  74 100 126 160 197 240 299
#     4  10  19  30  45  72 104 132 163 196 238 291
#     4   9  18  32  49  69  96 128 161 203 248 286
#     4   9  18  31  48  69  92 123 166 209 241 274
#     4   9  18  32  49  69  99 133 161 195 239 284
#
# _framework density 15.772926
#
# number of rings (size 3 to 8) (size 9 to 14) (size 15 to 20)
#    0.000    2.692    0.769    0.923    2.154    4.615 
#    0.000    3.077    0.000    2.769    0.000    3.231 
#    0.000    0.000    0.000    0.000    0.000    0.000 
#
# Total GULP energy -289627.250695 kJ/mol
# GULP energy per Si atom -5569.754821 kJ/mol
# Density = 1.573703 g / cm^3
# Si number density = 15.772926 Si / 1000 Ang^3
#
#
#
# Elastic Constant Matrix: (Units=GPa)
#
#
# Indices 1 2 3 4 5 6 
#
# 1 50.2248 37.2048 36.5690 0.0000 0.0000 0.0000
# 2 37.2048 75.4156 47.4977 0.0000 0.0000 0.0000
# 3 36.5690 47.4977 79.0307 0.0000 0.0000 0.0000
# 4 0.0000 0.0000 0.0000 18.4148 0.0000 0.0000
# 5 0.0000 0.0000 0.0000 0.0000 17.9571 0.0000
# 6 0.0000 0.0000 0.0000 0.0000 0.0000 -1.7123
#
#
#
# Elastic Compliance Matrix: (Units=1/GPa)
#
#
# Indices 1 2 3 4 5 6 
#
# 1 0.035265 -0.011457 -0.009432 0.000000 0.000000 0.000000
# 2 -0.011457 0.025058 -0.009759 0.000000 0.000000 0.000000
# 3 -0.009432 -0.009759 0.022883 0.000000 0.000000 0.000000
# 4 0.000000 0.000000 0.000000 0.054304 0.000000 0.000000
# 5 0.000000 0.000000 0.000000 0.000000 0.055688 0.000000
# 6 0.000000 0.000000 0.000000 0.000000 0.000000 -0.583999
#
#
# Mechanical properties :
#
#
# Convention : Reuss Voigt Hill
#
# Bulk Modulus (GPa) = 45.64038 49.69043 47.66540
# Shear Modulus (GPa) = -15.51820 12.49189 -1.51316
#
# Velocity S-wave (km/s) = -3.14004 2.81727 -0.98052
# Velocity P-wave (km/s) = 3.98149 6.49267 5.38549
#
# Compressibility (1/GPa) = 0.02191042
#
# Stress axis : x y z
#
# Youngs Moduli (GPa) = 28.35679 39.90750 43.70108
#
# Poissons Ratio (x) = 0.45721 0.41220
# Poissons Ratio (y) = 0.32488 0.42646
# Poissons Ratio (z) = 0.26747 0.38944
#
# Static dielectric constant tensor:
#      x y z
#    x 1.506060 0.000000 0.000000 
#    y 0.000000 1.519180 0.000000 
#    z 0.000000 0.000000 1.541940 
# 
# From -- ./inp_files/26998.got.cif
#   From: 2010.05.17/outbox.cif.g08.bks.cpg/sg69_14_cif.got.tgz:26998.got - 2010.06.03 19:29:58.
