data_PCOD9511440
_publ_section_title
;
Structure prediction by ZEFSAII (Michael W. Deem and Ramdas Pophale) SiO2 
 PCOD9511440
Probable space group: F M M M
;
_chemical_formula_sum "Si O2"
_cell_formula_units_Z 120
_cell_length_a 14.288364
_cell_length_b 22.103111
_cell_length_c 20.027991
_cell_angle_alpha 90.000000
_cell_angle_beta 90.000000
_cell_angle_gamma 90.000000
_cell_volume 6325.185952
_symmetry_space_group_name_H-M "F M M M"
_symmetry_group_IT_number 69
_symmetry_cell_setting 'orthorhombic'
loop_
_space_group_symop_operation_xyz
x,y,z
-x,-y,z
x,-y,-z
-x,y,-z
-x,-y,-z
x,y,-z
-x,y,z
x,-y,z
x,1/2+y,1/2+z
-x,1/2-y,1/2+z
x,1/2-y,1/2-z
-x,1/2+y,1/2-z
-x,1/2-y,1/2-z
x,1/2+y,1/2-z
-x,1/2+y,1/2+z
x,1/2-y,1/2+z
1/2+x,y,1/2+z
1/2-x,-y,1/2+z
1/2+x,-y,1/2-z
1/2-x,y,1/2-z
1/2-x,-y,1/2-z
1/2+x,y,1/2-z
1/2-x,y,1/2+z
1/2+x,-y,1/2+z
1/2+x,1/2+y,z
1/2-x,1/2-y,z
1/2+x,1/2-y,-z
1/2-x,1/2+y,-z
1/2-x,1/2-y,-z
1/2+x,1/2+y,-z
1/2-x,1/2+y,z
1/2+x,1/2-y,z
loop_
_atom_site_type_symbol
_atom_site_label
_atom_site_fract_x
_atom_site_fract_y
_atom_site_fract_z
Si Si1 0.141200 0.500000 0.733555
Si Si2 0.500000 0.182415 0.726775
Si Si3 0.819519 0.374827 0.314084
Si Si4 0.500000 0.638299 0.374643
Si Si5 0.000000 0.500000 0.145267
Si Si6 0.700737 0.814962 0.920694
O O1 0.250000 0.500000 0.750000
O O2 0.128561 0.439000 0.692660
O O3 0.086955 0.500000 0.803175
O O4 0.500000 0.250000 0.750000
O O5 0.404384 0.171702 0.688012
O O6 0.500000 0.141332 0.793793
O O7 0.750000 0.366842 0.250000
O O8 0.757996 0.364902 0.379115
O O9 0.500000 0.565702 0.391690
O O10 0.407252 0.673282 0.399804
O O11 0.750000 0.750000 0.903798
O O12 0.708084 0.822206 0.000000
#
# Coordination Sequence:
#
# PCOD9511440 Si02
#       6
#    16  16  32  16   8  32
#     4  10  18  34  56  88 125 162 193 248 318 373
#     4  12  22  33  60  94 121 156 206 268 312 368
#     4  11  21  37  60  90 123 161 212 258 311 378
#     4  12  21  42  66  97 127 165 218 267 331 382
#     4  12  20  38  65 102 137 158 202 278 342 374
#     4  11  25  43  62  89 132 177 215 264 326 387
#
# _framework density 18.971775999999998
#
# number of rings (size 3 to 8) (size 9 to 14) (size 15 to 20)
#    0.000    0.800    5.333    3.600    0.000    0.000 
#    0.000    5.333    0.000    0.000    0.000    2.800 
#    0.000    0.000    0.000    0.000    0.000    0.000 
#
# Total GULP energy -167347.697271 kJ/mol
# GULP energy per Si atom -5578.256576 kJ/mol
# Density = 1.892859 g / cm^3
# Si number density = 18.971776 Si / 1000 Ang^3
#
#
#
# Elastic Constant Matrix: (Units=GPa)
#
#
# Indices 1 2 3 4 5 6 
#
# 1 147.0475 45.3826 35.1074 0.0000 0.0000 0.0000
# 2 45.3826 106.9348 7.6777 0.0000 0.0000 0.0000
# 3 35.1074 7.6777 68.3331 0.0000 0.0000 0.0000
# 4 0.0000 0.0000 0.0000 14.5296 0.0000 0.0000
# 5 0.0000 0.0000 0.0000 0.0000 20.2088 0.0000
# 6 0.0000 0.0000 0.0000 0.0000 0.0000 29.1233
#
#
#
# Elastic Compliance Matrix: (Units=1/GPa)
#
#
# Indices 1 2 3 4 5 6 
#
# 1 0.008863 -0.003463 -0.004165 0.000000 0.000000 0.000000
# 2 -0.003463 0.010780 0.000568 0.000000 0.000000 0.000000
# 3 -0.004165 0.000568 0.016710 0.000000 0.000000 0.000000
# 4 0.000000 0.000000 0.000000 0.068825 0.000000 0.000000
# 5 0.000000 0.000000 0.000000 0.000000 0.049483 0.000000
# 6 0.000000 0.000000 0.000000 0.000000 0.000000 0.034337
#
#
# Mechanical properties :
#
#
# Convention : Reuss Voigt Hill
#
# Bulk Modulus (GPa) = 44.97484 55.40564 50.19024
# Shear Modulus (GPa) = 23.74962 28.38220 26.06591
#
# Velocity S-wave (km/s) = 3.54197 3.87204 3.71068
# Velocity P-wave (km/s) = 6.36279 7.01840 6.69862
#
# Compressibility (1/GPa) = 0.02223466
#
# Stress axis : x y z
#
# Youngs Moduli (GPa) = 112.82225 92.76231 59.84400
#
# Poissons Ratio (x) = 0.32120 0.24924
# Poissons Ratio (y) = 0.39066 -0.03398
# Poissons Ratio (z) = 0.46988 -0.05267
#
# Static dielectric constant tensor:
#      x y z
#    x 1.666260 0.000000 0.000000 
#    y 0.000000 1.793450 0.000000 
#    z 0.000000 0.000000 1.643270 
# 
# From -- ./inp_files/16282.got.cif
#   From: 2010.05.17/outbox.cif.g08.bks.cpg/sg69_9_cif.got.tgz:16282.got - 2010.06.03 19:29:58.
