data_PCOD9511851
_publ_section_title
;
Structure prediction by ZEFSAII (Michael W. Deem and Ramdas Pophale) SiO2 
 PCOD9511851
Probable space group: F M M M
;
_chemical_formula_sum "Si O2"
_cell_formula_units_Z 160
_cell_length_a 19.617165
_cell_length_b 21.629975
_cell_length_c 17.850954
_cell_angle_alpha 90.000000
_cell_angle_beta 90.000000
_cell_angle_gamma 90.000000
_cell_volume 7574.495175
_symmetry_space_group_name_H-M "F M M M"
_symmetry_group_IT_number 69
_symmetry_cell_setting 'orthorhombic'
loop_
_space_group_symop_operation_xyz
x,y,z
-x,-y,z
x,-y,-z
-x,y,-z
-x,-y,-z
x,y,-z
-x,y,z
x,-y,z
x,1/2+y,1/2+z
-x,1/2-y,1/2+z
x,1/2-y,1/2-z
-x,1/2+y,1/2-z
-x,1/2-y,1/2-z
x,1/2+y,1/2-z
-x,1/2+y,1/2+z
x,1/2-y,1/2+z
1/2+x,y,1/2+z
1/2-x,-y,1/2+z
1/2+x,-y,1/2-z
1/2-x,y,1/2-z
1/2-x,-y,1/2-z
1/2+x,y,1/2-z
1/2-x,y,1/2+z
1/2+x,-y,1/2+z
1/2+x,1/2+y,z
1/2-x,1/2-y,z
1/2+x,1/2-y,-z
1/2-x,1/2+y,-z
1/2-x,1/2-y,-z
1/2+x,1/2+y,-z
1/2-x,1/2+y,z
1/2+x,1/2-y,z
loop_
_atom_site_type_symbol
_atom_site_label
_atom_site_fract_x
_atom_site_fract_y
_atom_site_fract_z
Si Si1 0.424131 0.896122 0.680794
Si Si2 0.077322 0.071412 0.647382
Si Si3 0.725590 0.067673 0.336696
Si Si4 0.423157 0.245588 0.339731
Si Si5 0.180186 0.161394 0.415282
O O1 0.500000 0.922117 0.665118
O O2 0.419066 0.894702 0.771855
O O3 0.355959 0.930413 0.657208
O O4 0.420969 0.827675 0.646353
O O5 0.126186 0.105236 0.590584
O O6 0.000000 0.073847 0.621111
O O7 0.095034 0.000000 0.661229
O O8 0.750000 0.069710 0.250000
O O9 0.756259 0.129445 0.373747
O O10 0.748264 0.000000 0.366653
O O11 0.500000 0.268279 0.361738
O O12 0.418584 0.250000 0.250000
O O13 0.360896 0.282585 0.376433
O O14 0.197163 0.177485 0.500000
#
# Coordination Sequence:
#
# PCOD9511851 Si02
#       5
#    32  32  32  32  32
#     4  10  20  37  64  93 119 157 221 286 325 364
#     4  10  19  33  57  90 127 167 206 248 311 388
#     4  11  22  39  63  92 129 175 222 269 322 385
#     4  10  19  37  64  91 126 175 223 264 312 378
#     4  12  25  39  59  93 135 174 209 257 332 405
#
# _framework density 21.123519000000002
#
# number of rings (size 3 to 8) (size 9 to 14) (size 15 to 20)
#    0.000    1.400    4.000    1.800    0.000    5.200 
#    0.000    5.000    0.000    1.800    0.000    1.400 
#    0.000    0.000    0.000    0.000    0.000    0.000 
#
# Total GULP energy -223179.357307 kJ/mol
# GULP energy per Si atom -5579.483933 kJ/mol
# Density = 2.107544 g / cm^3
# Si number density = 21.123519 Si / 1000 Ang^3
#
#
#
# Elastic Constant Matrix: (Units=GPa)
#
#
# Indices 1 2 3 4 5 6 
#
# 1 147.4520 35.4442 19.6744 0.0000 0.0000 0.0000
# 2 35.4442 101.1529 19.8855 0.0000 0.0000 0.0000
# 3 19.6744 19.8855 48.4618 0.0000 0.0000 0.0000
# 4 0.0000 0.0000 0.0000 2.0640 0.0000 0.0000
# 5 0.0000 0.0000 0.0000 0.0000 8.4512 0.0000
# 6 0.0000 0.0000 0.0000 0.0000 0.0000 31.8048
#
#
#
# Elastic Compliance Matrix: (Units=1/GPa)
#
#
# Indices 1 2 3 4 5 6 
#
# 1 0.007610 -0.002240 -0.002170 0.000000 0.000000 0.000000
# 2 -0.002240 0.011413 -0.003774 0.000000 0.000000 0.000000
# 3 -0.002170 -0.003774 0.023064 0.000000 0.000000 0.000000
# 4 0.000000 0.000000 0.000000 0.484497 0.000000 0.000000
# 5 0.000000 0.000000 0.000000 0.000000 0.118326 0.000000
# 6 0.000000 0.000000 0.000000 0.000000 0.000000 0.031442
#
#
# Mechanical properties :
#
#
# Convention : Reuss Voigt Hill
#
# Bulk Modulus (GPa) = 38.88147 49.67502 44.27825
# Shear Modulus (GPa) = 7.12970 23.26817 15.19894
#
# Velocity S-wave (km/s) = 1.83918 3.32253 2.68531
# Velocity P-wave (km/s) = 4.79132 6.18760 5.53368
#
# Compressibility (1/GPa) = 0.02571919
#
# Stress axis : x y z
#
# Youngs Moduli (GPa) = 131.40839 87.62138 43.35686
#
# Poissons Ratio (x) = 0.19626 0.09410
# Poissons Ratio (y) = 0.29433 0.16362
# Poissons Ratio (z) = 0.28520 0.33066
#
# Static dielectric constant tensor:
#      x y z
#    x 1.808820 0.000000 0.000000 
#    y 0.000000 1.795160 0.000000 
#    z 0.000000 0.000000 1.749010 
# 
# From -- ./inp_files/24566.got.cif
#   From: 2010.05.17/outbox.cif.g08.bks.cpg/sg69_13_cif.got.tgz:24566.got - 2010.06.03 19:29:58.
