data_PCOD9511969
_publ_section_title
;
Structure prediction by ZEFSAII (Michael W. Deem and Ramdas Pophale) SiO2 
 PCOD9511969
Probable space group: F M M M
;
_chemical_formula_sum "Si O2"
_cell_formula_units_Z 152
_cell_length_a 15.323299
_cell_length_b 20.243346
_cell_length_c 28.405702
_cell_angle_alpha 90.000000
_cell_angle_beta 90.000000
_cell_angle_gamma 90.000000
_cell_volume 8811.302287
_symmetry_space_group_name_H-M "F M M M"
_symmetry_group_IT_number 69
_symmetry_cell_setting 'orthorhombic'
loop_
_space_group_symop_operation_xyz
x,y,z
-x,-y,z
x,-y,-z
-x,y,-z
-x,-y,-z
x,y,-z
-x,y,z
x,-y,z
x,1/2+y,1/2+z
-x,1/2-y,1/2+z
x,1/2-y,1/2-z
-x,1/2+y,1/2-z
-x,1/2-y,1/2-z
x,1/2+y,1/2-z
-x,1/2+y,1/2+z
x,1/2-y,1/2+z
1/2+x,y,1/2+z
1/2-x,-y,1/2+z
1/2+x,-y,1/2-z
1/2-x,y,1/2-z
1/2-x,-y,1/2-z
1/2+x,y,1/2-z
1/2-x,y,1/2+z
1/2+x,-y,1/2+z
1/2+x,1/2+y,z
1/2-x,1/2-y,z
1/2+x,1/2-y,-z
1/2-x,1/2+y,-z
1/2-x,1/2-y,-z
1/2+x,1/2+y,-z
1/2-x,1/2+y,z
1/2+x,1/2-y,z
loop_
_atom_site_type_symbol
_atom_site_label
_atom_site_fract_x
_atom_site_fract_y
_atom_site_fract_z
Si Si1 0.398043 0.154533 0.446859
Si Si2 0.156229 0.421489 0.354136
Si Si3 0.000000 0.078721 0.791960
Si Si4 0.000000 0.420605 0.819665
Si Si5 0.824227 0.658881 0.832001
Si Si6 0.750000 0.750000 0.587106
Si Si7 0.250000 0.750000 0.250000
O O1 0.393334 0.127254 0.500000
O O2 0.500000 0.175686 0.439712
O O3 0.372217 0.104251 0.405388
O O4 0.323201 0.210370 0.441797
O O5 0.157455 0.500000 0.354387
O O6 0.084922 0.394180 0.317493
O O7 0.247547 0.394648 0.335928
O O8 0.000000 0.085679 0.736793
O O9 0.000000 0.000000 0.801254
O O10 0.085560 0.380430 0.835167
O O11 0.000000 0.500000 0.831188
O O12 0.806011 0.704298 0.877416
O O13 0.807719 0.703689 0.785219
#
# Coordination Sequence:
#
# PCOD9511969 Si02
#       7
#    32  32  16  16  32  16   8
#     4  10  20  34  56  81 106 136 174 220 266 326
#     4  10  19  35  54  77 110 142 170 212 273 328
#     4   9  18  30  48  72 102 136 166 207 257 308
#     4  11  22  35  53  81 108 143 190 225 261 319
#     4  10  21  35  54  77 106 145 181 225 266 309
#     4   9  21  37  53  76 110 142 177 219 271 319
#     4  10  20  38  52  80 106 142 190 228 268 314
#
# _framework density 17.250571000000001
#
# number of rings (size 3 to 8) (size 9 to 14) (size 15 to 20)
#    0.000    2.105    1.053    2.211    1.474    0.842 
#    0.000    5.263    0.000    0.000    0.000    0.000 
#    0.000    8.842    0.000    0.000    0.000    0.000 
#
# Total GULP energy -211669.207885 kJ/mol
# GULP energy per Si atom -5570.242313 kJ/mol
# Density = 1.721131 g / cm^3
# Si number density = 17.250571 Si / 1000 Ang^3
#
#
#
# Elastic Constant Matrix: (Units=GPa)
#
#
# Indices 1 2 3 4 5 6 
#
# 1 160.7023 52.1890 43.5794 0.0000 0.0000 0.0000
# 2 52.1890 72.6528 28.5306 0.0000 0.0000 0.0000
# 3 43.5794 28.5306 67.6589 0.0000 0.0000 0.0000
# 4 0.0000 0.0000 0.0000 2.5808 0.0000 0.0000
# 5 0.0000 0.0000 0.0000 0.0000 21.0831 0.0000
# 6 0.0000 0.0000 0.0000 0.0000 0.0000 19.9259
#
#
#
# Elastic Compliance Matrix: (Units=1/GPa)
#
#
# Indices 1 2 3 4 5 6 
#
# 1 0.008789 -0.004902 -0.003594 0.000000 0.000000 0.000000
# 2 -0.004902 0.019230 -0.004951 0.000000 0.000000 0.000000
# 3 -0.003594 -0.004951 0.019183 0.000000 0.000000 0.000000
# 4 0.000000 0.000000 0.000000 0.387478 0.000000 0.000000
# 5 0.000000 0.000000 0.000000 0.000000 0.047431 0.000000
# 6 0.000000 0.000000 0.000000 0.000000 0.000000 0.050186
#
#
# Mechanical properties :
#
#
# Convention : Reuss Voigt Hill
#
# Bulk Modulus (GPa) = 49.24462 61.06798 55.15630
# Shear Modulus (GPa) = 8.83452 20.49897 14.66674
#
# Velocity S-wave (km/s) = 2.26548 3.45092 2.91901
# Velocity P-wave (km/s) = 5.95415 7.16630 6.58816
#
# Compressibility (1/GPa) = 0.02030679
#
# Stress axis : x y z
#
# Youngs Moduli (GPa) = 113.77357 52.00207 52.12985
#
# Poissons Ratio (x) = 0.25493 0.18736
# Poissons Ratio (y) = 0.55776 0.25811
# Poissons Ratio (z) = 0.40891 0.25748
#
# Static dielectric constant tensor:
#      x y z
#    x 1.605960 0.000000 0.000000 
#    y 0.000000 1.600770 0.000000 
#    z 0.000000 0.000000 1.579560 
# 
# From -- ./inp_files/40943.got.cif
#   From: 2010.05.17/outbox.cif.g08.bks.cpg/sg69_21_cif.got.tgz:40943.got - 2010.06.03 19:29:58.
