data_PCOD9511353
_publ_section_title
;
Structure prediction by ZEFSAII (Michael W. Deem and Ramdas Pophale) SiO2 
 PCOD9511353
Probable space group: F M M M
;
_chemical_formula_sum "Si O2"
_cell_formula_units_Z 176
_cell_length_a 14.224341
_cell_length_b 19.128236
_cell_length_c 28.664980
_cell_angle_alpha 90.000000
_cell_angle_beta 90.000000
_cell_angle_gamma 90.000000
_cell_volume 7799.355560
_symmetry_space_group_name_H-M "F M M M"
_symmetry_group_IT_number 69
_symmetry_cell_setting 'orthorhombic'
loop_
_space_group_symop_operation_xyz
x,y,z
-x,-y,z
x,-y,-z
-x,y,-z
-x,-y,-z
x,y,-z
-x,y,z
x,-y,z
x,1/2+y,1/2+z
-x,1/2-y,1/2+z
x,1/2-y,1/2-z
-x,1/2+y,1/2-z
-x,1/2-y,1/2-z
x,1/2+y,1/2-z
-x,1/2+y,1/2+z
x,1/2-y,1/2+z
1/2+x,y,1/2+z
1/2-x,-y,1/2+z
1/2+x,-y,1/2-z
1/2-x,y,1/2-z
1/2-x,-y,1/2-z
1/2+x,y,1/2-z
1/2-x,y,1/2+z
1/2+x,-y,1/2+z
1/2+x,1/2+y,z
1/2-x,1/2-y,z
1/2+x,1/2-y,-z
1/2-x,1/2+y,-z
1/2-x,1/2-y,-z
1/2+x,1/2+y,-z
1/2-x,1/2+y,z
1/2+x,1/2-y,z
loop_
_atom_site_type_symbol
_atom_site_label
_atom_site_fract_x
_atom_site_fract_y
_atom_site_fract_z
Si Si1 0.114580 0.630141 0.380864
Si Si2 0.848744 0.421163 0.722594
Si Si3 0.114528 0.423635 0.945469
Si Si4 0.385111 0.288947 0.389414
Si Si5 0.885411 0.500000 0.553990
Si Si6 0.895765 0.697935 0.213849
O O1 0.151303 0.613317 0.328676
O O2 0.141601 0.708232 0.397584
O O3 0.142349 0.569278 0.417076
O O4 0.000000 0.628767 0.377259
O O5 0.883758 0.500000 0.716747
O O6 0.750000 0.423691 0.750000
O O7 0.904412 0.373803 0.758863
O O8 0.145677 0.500000 0.926561
O O9 0.148429 0.353074 0.921017
O O10 0.000000 0.423853 0.942109
O O11 0.137728 0.421083 0.000000
O O12 0.500000 0.290814 0.392644
O O13 0.353420 0.306935 0.336888
O O14 0.853556 0.500000 0.500000
O O15 0.000000 0.500000 0.552912
O O16 0.848291 0.750000 0.250000
O O17 0.000000 0.728395 0.204787
#
# Coordination Sequence:
#
# PCOD9511353 Si02
#       6
#    32  32  32  32  16  32
#     4  10  18  32  53  75 109 150 185 228 283 333
#     4  11  23  36  51  75 106 145 189 228 266 327
#     4   8  14  25  41  64  98 135 169 213 271 326
#     4   9  17  28  46  72  99 133 177 218 259 325
#     4   9  18  30  49  80 112 144 184 229 278 333
#     4  10  19  33  52  75 104 137 179 222 270 330
#
# _framework density 22.565968000000002
#
# number of rings (size 3 to 8) (size 9 to 14) (size 15 to 20)
#    0.000    2.455    2.727    1.091    0.000    2.909 
#    0.000    5.455    0.000    0.000    0.000    1.273 
#    0.000    2.909    0.000    0.000    0.000    0.727 
#
# Total GULP energy -245599.470463 kJ/mol
# GULP energy per Si atom -5581.806147 kJ/mol
# Density = 2.251461 g / cm^3
# Si number density = 22.565968 Si / 1000 Ang^3
#
#
#
# Elastic Constant Matrix: (Units=GPa)
#
#
# Indices 1 2 3 4 5 6 
#
# 1 72.5080 28.8340 13.5894 0.0000 0.0000 0.0000
# 2 28.8340 247.1737 110.7505 0.0000 0.0000 0.0000
# 3 13.5894 110.7505 141.7701 0.0000 0.0000 0.0000
# 4 0.0000 0.0000 0.0000 49.0727 0.0000 0.0000
# 5 0.0000 0.0000 0.0000 0.0000 5.4312 0.0000
# 6 0.0000 0.0000 0.0000 0.0000 0.0000 62.0184
#
#
#
# Elastic Compliance Matrix: (Units=1/GPa)
#
#
# Indices 1 2 3 4 5 6 
#
# 1 0.014464 -0.001640 -0.000105 0.000000 0.000000 0.000000
# 2 -0.001640 0.006410 -0.004851 0.000000 0.000000 0.000000
# 3 -0.000105 -0.004851 0.010853 0.000000 0.000000 0.000000
# 4 0.000000 0.000000 0.000000 0.020378 0.000000 0.000000
# 5 0.000000 0.000000 0.000000 0.000000 0.184121 0.000000
# 6 0.000000 0.000000 0.000000 0.000000 0.000000 0.016124
#
#
# Mechanical properties :
#
#
# Convention : Reuss Voigt Hill
#
# Bulk Modulus (GPa) = 53.95131 85.31108 69.63120
# Shear Modulus (GPa) = 18.40130 43.85633 31.12881
#
# Velocity S-wave (km/s) = 2.85870 4.41327 3.71814
# Velocity P-wave (km/s) = 5.90393 7.99103 7.02541
#
# Compressibility (1/GPa) = 0.01853523
#
# Stress axis : x y z
#
# Youngs Moduli (GPa) = 69.13953 155.99463 92.13995
#
# Poissons Ratio (x) = 0.25585 0.00969
# Poissons Ratio (y) = 0.11340 0.44694
# Poissons Ratio (z) = 0.00727 0.75667
#
# Static dielectric constant tensor:
#      x y z
#    x 2.194300 0.000000 0.000000 
#    y 0.000000 1.845350 0.000000 
#    z 0.000000 0.000000 1.786160 
# 
# From -- ./inp_files/41867.got.cif
#   From: 2010.05.17/outbox.cif.g08.bks.cpg/sg69_21_cif.got.tgz:41867.got - 2010.06.03 19:29:58.
