data_PCOD9511913
_publ_section_title
;
Structure prediction by ZEFSAII (Michael W. Deem and Ramdas Pophale) SiO2 
 PCOD9511913
Probable space group: F M M M
;
_chemical_formula_sum "Si O2"
_cell_formula_units_Z 184
_cell_length_a 26.812060
_cell_length_b 20.709186
_cell_length_c 18.696941
_cell_angle_alpha 90.000000
_cell_angle_beta 90.000000
_cell_angle_gamma 90.000000
_cell_volume 10381.587505
_symmetry_space_group_name_H-M "F M M M"
_symmetry_group_IT_number 69
_symmetry_cell_setting 'orthorhombic'
loop_
_space_group_symop_operation_xyz
x,y,z
-x,-y,z
x,-y,-z
-x,y,-z
-x,-y,-z
x,y,-z
-x,y,z
x,-y,z
x,1/2+y,1/2+z
-x,1/2-y,1/2+z
x,1/2-y,1/2-z
-x,1/2+y,1/2-z
-x,1/2-y,1/2-z
x,1/2+y,1/2-z
-x,1/2+y,1/2+z
x,1/2-y,1/2+z
1/2+x,y,1/2+z
1/2-x,-y,1/2+z
1/2+x,-y,1/2-z
1/2-x,y,1/2-z
1/2-x,-y,1/2-z
1/2+x,y,1/2-z
1/2-x,y,1/2+z
1/2+x,-y,1/2+z
1/2+x,1/2+y,z
1/2-x,1/2-y,z
1/2+x,1/2-y,-z
1/2-x,1/2+y,-z
1/2-x,1/2-y,-z
1/2+x,1/2+y,-z
1/2-x,1/2+y,z
1/2+x,1/2-y,z
loop_
_atom_site_type_symbol
_atom_site_label
_atom_site_fract_x
_atom_site_fract_y
_atom_site_fract_z
Si Si1 0.315030 0.422162 0.580783
Si Si2 0.723062 0.422390 0.174346
Si Si3 0.915309 0.890602 0.335767
Si Si4 0.943993 0.246398 0.836608
Si Si5 0.109875 0.882139 0.831912
Si Si6 0.000000 0.500000 0.859852
Si Si7 0.441007 0.000000 0.414433
O O1 0.322065 0.398672 0.500000
O O2 0.313291 0.500000 0.579444
O O3 0.262481 0.401102 0.614351
O O4 0.361526 0.404486 0.630294
O O5 0.715251 0.500000 0.169211
O O6 0.750000 0.410149 0.250000
O O7 0.669321 0.390062 0.168963
O O8 0.930858 0.818672 0.359716
O O9 0.909840 0.892121 0.249456
O O10 0.956095 0.943365 0.357886
O O11 0.943621 0.250000 0.750000
O O12 0.907053 0.188827 0.856777
O O13 0.000000 0.229153 0.859476
O O14 0.084925 0.937293 0.880202
O O15 0.500000 0.000000 0.396704
O O16 0.435579 0.000000 0.500000
#
# Coordination Sequence:
#
# PCOD9511913 Si02
#       7
#    32  32  32  32  32   8  16
#     4  10  21  37  58  85 123 156 185 241 306 352
#     4  10  19  34  56  88 115 145 198 252 294 350
#     4  11  21  36  59  94 120 154 200 242 295 363
#     4   9  19  35  55  86 122 155 195 246 298 354
#     4  11  21  36  62  84 116 159 201 251 301 354
#     4  12  22  30  61  92 121 152 192 246 284 352
#     4  11  25  39  54  87 123 152 204 262 302 353
#
# _framework density 17.723687000000002
#
# number of rings (size 3 to 8) (size 9 to 14) (size 15 to 20)
#    0.000    1.652    4.348    1.043    3.652    0.696 
#    0.000    2.609    0.000    2.087    0.000    0.000 
#    0.000    0.000    0.000    0.000    0.000    0.000 
#
# Total GULP energy -256139.609310 kJ/mol
# GULP energy per Si atom -5568.252376 kJ/mol
# Density = 1.768335 g / cm^3
# Si number density = 17.723687 Si / 1000 Ang^3
#
#
#
# Elastic Constant Matrix: (Units=GPa)
#
#
# Indices 1 2 3 4 5 6 
#
# 1 164.6477 81.7635 22.8921 0.0000 0.0000 0.0000
# 2 81.7635 134.2565 28.5430 0.0000 0.0000 0.0000
# 3 22.8921 28.5430 47.8527 0.0000 0.0000 0.0000
# 4 0.0000 0.0000 0.0000 3.1230 0.0000 0.0000
# 5 0.0000 0.0000 0.0000 0.0000 14.3509 0.0000
# 6 0.0000 0.0000 0.0000 0.0000 0.0000 23.3244
#
#
#
# Elastic Compliance Matrix: (Units=1/GPa)
#
#
# Indices 1 2 3 4 5 6 
#
# 1 0.008762 -0.005091 -0.001155 0.000000 0.000000 0.000000
# 2 -0.005091 0.011488 -0.004417 0.000000 0.000000 0.000000
# 3 -0.001155 -0.004417 0.024085 0.000000 0.000000 0.000000
# 4 0.000000 0.000000 0.000000 0.320206 0.000000 0.000000
# 5 0.000000 0.000000 0.000000 0.000000 0.069682 0.000000
# 6 0.000000 0.000000 0.000000 0.000000 0.000000 0.042874
#
#
# Mechanical properties :
#
#
# Convention : Reuss Voigt Hill
#
# Bulk Modulus (GPa) = 43.46117 68.12824 55.79471
# Shear Modulus (GPa) = 9.87964 22.39688 16.13826
#
# Velocity S-wave (km/s) = 2.36355 3.55867 3.02080
# Velocity P-wave (km/s) = 5.65891 7.44366 6.61178
#
# Compressibility (1/GPa) = 0.02300905
#
# Stress axis : x y z
#
# Youngs Moduli (GPa) = 114.12657 87.04954 41.52018
#
# Poissons Ratio (x) = 0.44314 0.04797
# Poissons Ratio (y) = 0.58098 0.18339
# Poissons Ratio (z) = 0.13185 0.38448
#
# Static dielectric constant tensor:
#      x y z
#    x 1.586440 0.000000 0.000000 
#    y 0.000000 1.597230 0.000000 
#    z 0.000000 0.000000 1.608190 
# 
# From -- ./inp_files/26915.got.cif
#   From: 2010.05.17/outbox.cif.g08.bks.cpg/sg69_14_cif.got.tgz:26915.got - 2010.06.03 19:29:58.
