data_PCOD9511357
_publ_section_title
;
Structure prediction by ZEFSAII (Michael W. Deem and Ramdas Pophale) SiO2 
 PCOD9511357
Probable space group: F M M M
;
_chemical_formula_sum "Si O2"
_cell_formula_units_Z 120
_cell_length_a 22.326598
_cell_length_b 22.531472
_cell_length_c 13.426327
_cell_angle_alpha 90.000000
_cell_angle_beta 90.000000
_cell_angle_gamma 90.000000
_cell_volume 6754.128804
_symmetry_space_group_name_H-M "F M M M"
_symmetry_group_IT_number 69
_symmetry_cell_setting 'orthorhombic'
loop_
_space_group_symop_operation_xyz
x,y,z
-x,-y,z
x,-y,-z
-x,y,-z
-x,-y,-z
x,y,-z
-x,y,z
x,-y,z
x,1/2+y,1/2+z
-x,1/2-y,1/2+z
x,1/2-y,1/2-z
-x,1/2+y,1/2-z
-x,1/2-y,1/2-z
x,1/2+y,1/2-z
-x,1/2+y,1/2+z
x,1/2-y,1/2+z
1/2+x,y,1/2+z
1/2-x,-y,1/2+z
1/2+x,-y,1/2-z
1/2-x,y,1/2-z
1/2-x,-y,1/2-z
1/2+x,y,1/2-z
1/2-x,y,1/2+z
1/2+x,-y,1/2+z
1/2+x,1/2+y,z
1/2-x,1/2-y,z
1/2+x,1/2-y,-z
1/2-x,1/2+y,-z
1/2-x,1/2-y,-z
1/2+x,1/2+y,-z
1/2-x,1/2+y,z
1/2+x,1/2-y,z
loop_
_atom_site_type_symbol
_atom_site_label
_atom_site_fract_x
_atom_site_fract_y
_atom_site_fract_z
Si Si1 0.659837 0.323907 0.613233
Si Si2 0.429517 0.109848 0.758346
Si Si3 0.750000 0.750000 0.750000
Si Si4 0.566043 0.717662 0.891619
Si Si5 0.572232 0.500000 0.885243
O O1 0.680165 0.336141 0.500000
O O2 0.620898 0.378469 0.658039
O O3 0.711355 0.295282 0.681781
O O4 0.613097 0.269489 0.610036
O O5 0.500000 0.101605 0.790329
O O6 0.427076 0.169925 0.693551
O O7 0.412875 0.057185 0.682183
O O8 0.500000 0.744809 0.882917
O O9 0.569389 0.687021 0.000000
O O10 0.500000 0.500000 0.893165
O O11 0.595119 0.500000 0.000000
#
# Coordination Sequence:
#
# PCOD9511357 Si02
#       5
#    32  32   8  32  16
#     4  11  22  35  53  79 108 141 179 222 272 330
#     4  10  18  32  53  80 114 146 176 219 267 316
#     4  12  22  40  54  76 108 144 182 230 274 322
#     4   9  16  28  50  79 108 138 172 214 268 325
#     4   9  18  32  53  84 117 148 182 217 258 316
#
# _framework density 17.766909999999999
#
# number of rings (size 3 to 8) (size 9 to 14) (size 15 to 20)
#    0.000    2.000    2.667    2.000    0.000    6.933 
#    0.000    0.667    0.000    3.200    0.000    0.000 
#    0.000    0.000    0.000    0.000    0.000    0.000 
#
# Total GULP energy -167072.287778 kJ/mol
# GULP energy per Si atom -5569.076259 kJ/mol
# Density = 1.772647 g / cm^3
# Si number density = 17.766910 Si / 1000 Ang^3
#
#
#
# Elastic Constant Matrix: (Units=GPa)
#
#
# Indices 1 2 3 4 5 6 
#
# 1 66.5984 18.6548 57.5680 0.0000 0.0000 0.0000
# 2 18.6548 52.8497 35.6271 0.0000 0.0000 0.0000
# 3 57.5680 35.6271 141.4684 0.0000 0.0000 0.0000
# 4 0.0000 0.0000 0.0000 18.0969 0.0000 0.0000
# 5 0.0000 0.0000 0.0000 0.0000 14.2598 0.0000
# 6 0.0000 0.0000 0.0000 0.0000 0.0000 2.0791
#
#
#
# Elastic Compliance Matrix: (Units=1/GPa)
#
#
# Indices 1 2 3 4 5 6 
#
# 1 0.023376 -0.002215 -0.008955 0.000000 0.000000 0.000000
# 2 -0.002215 0.023001 -0.004891 0.000000 0.000000 0.000000
# 3 -0.008955 -0.004891 0.011945 0.000000 0.000000 0.000000
# 4 0.000000 0.000000 0.000000 0.055258 0.000000 0.000000
# 5 0.000000 0.000000 0.000000 0.000000 0.070127 0.000000
# 6 0.000000 0.000000 0.000000 0.000000 0.000000 0.480968
#
#
# Mechanical properties :
#
#
# Convention : Reuss Voigt Hill
#
# Bulk Modulus (GPa) = 38.16798 53.84625 46.00711
# Shear Modulus (GPa) = 7.08688 16.82495 11.95591
#
# Velocity S-wave (km/s) = 1.99937 3.08065 2.59691
# Velocity P-wave (km/s) = 5.18259 6.55947 5.91126
#
# Compressibility (1/GPa) = 0.02619997
#
# Stress axis : x y z
#
# Youngs Moduli (GPa) = 42.77832 43.47720 83.72051
#
# Poissons Ratio (x) = 0.09629 0.74970
# Poissons Ratio (y) = 0.09474 0.40949
# Poissons Ratio (z) = 0.38307 0.21265
#
# Static dielectric constant tensor:
#      x y z
#    x 1.622900 0.000000 0.000000 
#    y 0.000000 1.590510 0.000000 
#    z 0.000000 0.000000 1.701530 
# 
# From -- ./inp_files/16235.got.cif
#   From: 2010.05.17/outbox.cif.g08.bks.cpg/sg69_9_cif.got.tgz:16235.got - 2010.06.03 19:29:58.
