data_PCOD9511542
_publ_section_title
;
Structure prediction by ZEFSAII (Michael W. Deem and Ramdas Pophale) SiO2 
 PCOD9511542
Probable space group: F M M M
;
_chemical_formula_sum "Si O2"
_cell_formula_units_Z 240
_cell_length_a 34.362012
_cell_length_b 29.485174
_cell_length_c 13.298287
_cell_angle_alpha 90.000000
_cell_angle_beta 90.000000
_cell_angle_gamma 90.000000
_cell_volume 13473.424147
_symmetry_space_group_name_H-M "F M M M"
_symmetry_group_IT_number 69
_symmetry_cell_setting 'orthorhombic'
loop_
_space_group_symop_operation_xyz
x,y,z
-x,-y,z
x,-y,-z
-x,y,-z
-x,-y,-z
x,y,-z
-x,y,z
x,-y,z
x,1/2+y,1/2+z
-x,1/2-y,1/2+z
x,1/2-y,1/2-z
-x,1/2+y,1/2-z
-x,1/2-y,1/2-z
x,1/2+y,1/2-z
-x,1/2+y,1/2+z
x,1/2-y,1/2+z
1/2+x,y,1/2+z
1/2-x,-y,1/2+z
1/2+x,-y,1/2-z
1/2-x,y,1/2-z
1/2-x,-y,1/2-z
1/2+x,y,1/2-z
1/2-x,y,1/2+z
1/2+x,-y,1/2+z
1/2+x,1/2+y,z
1/2-x,1/2-y,z
1/2+x,1/2-y,-z
1/2-x,1/2+y,-z
1/2-x,1/2-y,-z
1/2+x,1/2+y,-z
1/2-x,1/2+y,z
1/2+x,1/2-y,z
loop_
_atom_site_type_symbol
_atom_site_label
_atom_site_fract_x
_atom_site_fract_y
_atom_site_fract_z
Si Si1 0.872667 0.744208 0.616937
Si Si2 0.177633 0.380729 0.381725
Si Si3 0.730804 0.129761 0.882174
Si Si4 0.709239 0.272107 0.379120
Si Si5 0.114510 0.169854 0.258196
Si Si6 0.455974 0.500000 0.621338
Si Si7 0.099620 0.916471 0.378744
Si Si8 0.318764 0.552877 0.716879
O O1 0.877818 0.737229 0.500000
O O2 0.826842 0.739621 0.645770
O O3 0.877325 0.796685 0.647859
O O4 0.898764 0.708727 0.678591
O O5 0.166786 0.378191 0.500000
O O6 0.222660 0.365156 0.374690
O O7 0.148538 0.353330 0.308787
O O8 0.176109 0.430901 0.332384
O O9 0.710302 0.175827 0.844084
O O10 0.714453 0.085727 0.827272
O O11 0.721543 0.124722 0.000000
O O12 0.707712 0.275347 0.500000
O O13 0.750000 0.250000 0.353344
O O14 0.092526 0.128100 0.310495
O O15 0.500000 0.500000 0.660773
O O16 0.457972 0.500000 0.500000
O O17 0.431614 0.455187 0.647214
O O18 0.099125 0.908025 0.500000
O O19 0.142128 0.935078 0.345830
O O20 0.310051 0.500000 0.708384
#
# Coordination Sequence:
#
# PCOD9511542 Si02
#       8
#    32  32  32  32  32  16  32  32
#     4  10  19  31  46  69 100 135 179 225 263 306
#     4  10  21  35  47  62  92 134 184 241 285 317
#     4  10  20  32  47  68  94 130 176 231 288 331
#     4   9  16  27  44  62  83 115 159 214 274 320
#     4  10  20  32  49  72 101 139 178 217 265 315
#     4   9  18  34  60  92 118 137 159 197 258 322
#     4  10  19  34  55  80 110 138 166 207 259 315
#     4  11  22  34  49  69  94 129 177 219 268 330
#
# _framework density 17.812843999999998
#
# number of rings (size 3 to 8) (size 9 to 14) (size 15 to 20)
#    0.000    2.067    0.667    4.000    0.000    5.333 
#    0.000    5.333    0.000    0.000    0.000    1.867 
#    0.000   27.733    0.000    0.000    0.000    0.000 
#
# Total GULP energy -334217.718603 kJ/mol
# GULP energy per Si atom -5570.295310 kJ/mol
# Density = 1.777230 g / cm^3
# Si number density = 17.812844 Si / 1000 Ang^3
#
#
#
# Elastic Constant Matrix: (Units=GPa)
#
#
# Indices 1 2 3 4 5 6 
#
# 1 47.4898 26.8846 22.2491 0.0001 0.0000 0.0000
# 2 26.8846 144.9171 43.7135 0.0003 -0.0001 -0.0001
# 3 22.2491 43.7135 117.3211 0.0004 -0.0002 -0.0002
# 4 0.0001 0.0003 0.0004 28.0861 -0.0001 -0.0001
# 5 0.0000 -0.0001 -0.0002 -0.0001 7.8592 0.0001
# 6 0.0000 -0.0001 -0.0002 -0.0001 0.0001 8.3370
#
#
#
# Elastic Compliance Matrix: (Units=1/GPa)
#
#
# Indices 1 2 3 4 5 6 
#
# 1 0.024641 -0.003562 -0.003346 0.000000 0.000000 0.000000
# 2 -0.003562 0.008289 -0.002413 0.000000 0.000000 0.000000
# 3 -0.003346 -0.002413 0.010057 0.000000 0.000000 0.000000
# 4 0.000000 0.000000 0.000000 0.035605 0.000000 0.000000
# 5 0.000000 0.000000 0.000000 0.000000 0.127239 -0.000001
# 6 0.000000 0.000000 0.000000 0.000000 -0.000001 0.119948
#
#
# Mechanical properties :
#
#
# Convention : Reuss Voigt Hill
#
# Bulk Modulus (GPa) = 41.07488 55.04694 48.06091
# Shear Modulus (GPa) = 14.18295 23.31518 18.74906
#
# Velocity S-wave (km/s) = 2.82480 3.62179 3.24784
# Velocity P-wave (km/s) = 5.80935 6.96131 6.41126
#
# Compressibility (1/GPa) = 0.02434578
#
# Stress axis : x y z
#
# Youngs Moduli (GPa) = 40.58242 120.63893 99.43122
#
# Poissons Ratio (x) = 0.42973 0.33268
# Poissons Ratio (y) = 0.14456 0.23993
# Poissons Ratio (z) = 0.13578 0.29110
#
# Static dielectric constant tensor:
#      x y z
#    x 1.604080 0.000000 0.000000 
#    y 0.000000 1.650880 0.000000 
#    z 0.000000 0.000000 1.659510 
# 
# From -- ./inp_files/19992.got.cif
#   From: 2010.05.17/outbox.cif.g08.bks.cpg/sg69_10_cif.got.tgz:19992.got - 2010.06.03 19:29:58.
