data_PCOD9511681
_publ_section_title
;
Structure prediction by ZEFSAII (Michael W. Deem and Ramdas Pophale) SiO2 
 PCOD9511681
Probable space group: F M M M
;
_chemical_formula_sum "Si O2"
_cell_formula_units_Z 176
_cell_length_a 23.313600
_cell_length_b 17.916521
_cell_length_c 23.184568
_cell_angle_alpha 90.000000
_cell_angle_beta 90.000000
_cell_angle_gamma 90.000000
_cell_volume 9684.161688
_symmetry_space_group_name_H-M "F M M M"
_symmetry_group_IT_number 69
_symmetry_cell_setting 'orthorhombic'
loop_
_space_group_symop_operation_xyz
x,y,z
-x,-y,z
x,-y,-z
-x,y,-z
-x,-y,-z
x,y,-z
-x,y,z
x,-y,z
x,1/2+y,1/2+z
-x,1/2-y,1/2+z
x,1/2-y,1/2-z
-x,1/2+y,1/2-z
-x,1/2-y,1/2-z
x,1/2+y,1/2-z
-x,1/2+y,1/2+z
x,1/2-y,1/2+z
1/2+x,y,1/2+z
1/2-x,-y,1/2+z
1/2+x,-y,1/2-z
1/2-x,y,1/2-z
1/2-x,-y,1/2-z
1/2+x,y,1/2-z
1/2-x,y,1/2+z
1/2+x,-y,1/2+z
1/2+x,1/2+y,z
1/2-x,1/2-y,z
1/2+x,1/2-y,-z
1/2-x,1/2+y,-z
1/2-x,1/2-y,-z
1/2+x,1/2+y,-z
1/2-x,1/2+y,z
1/2+x,1/2-y,z
loop_
_atom_site_type_symbol
_atom_site_label
_atom_site_fract_x
_atom_site_fract_y
_atom_site_fract_z
Si Si1 0.566361 0.346694 0.388198
Si Si2 0.434764 0.000000 0.067787
Si Si3 0.856743 0.588279 0.345217
Si Si4 0.258855 0.164147 0.819155
Si Si5 0.930855 0.814089 0.068425
Si Si6 0.876987 0.909687 0.710148
O O1 0.500000 0.345483 0.406679
O O2 0.593050 0.422052 0.414547
O O3 0.589080 0.268131 0.410269
O O4 0.572534 0.363508 0.320476
O O5 0.500000 0.000000 0.093533
O O6 0.439874 0.000000 0.000000
O O7 0.859196 0.500000 0.352921
O O8 0.791248 0.616533 0.348427
O O9 0.897147 0.628310 0.391375
O O10 0.874650 0.604749 0.278608
O O11 0.250000 0.164388 0.750000
O O12 0.250000 0.250000 0.838266
O O13 0.320834 0.124864 0.821792
O O14 0.000000 0.820555 0.077053
O O15 0.920076 0.822711 0.000000
O O16 0.880756 0.000000 0.702706
#
# Coordination Sequence:
#
# PCOD9511681 Si02
#       6
#    32  16  32  32  32  32
#     4  10  19  32  52  79 110 142 174 218 274 331
#     4   9  16  28  48  72  99 136 173 201 243 312
#     4  10  21  36  55  80 109 145 185 227 275 325
#     4   9  17  31  53  80 108 140 178 217 265 328
#     4  10  22  39  57  78 105 143 194 241 276 317
#     4  10  19  32  53  83 116 143 173 218 274 338
#
# _framework density 18.174005999999999
#
# number of rings (size 3 to 8) (size 9 to 14) (size 15 to 20)
#    0.000    2.273    0.909    2.182    0.000    8.000 
#    0.000    4.545    0.000    6.000    0.000    0.000 
#    0.000    0.000    0.000    0.000    0.000    0.000 
#
# Total GULP energy -244936.194229 kJ/mol
# GULP energy per Si atom -5566.731687 kJ/mol
# Density = 1.813264 g / cm^3
# Si number density = 18.174006 Si / 1000 Ang^3
#
#
#
# Elastic Constant Matrix: (Units=GPa)
#
#
# Indices 1 2 3 4 5 6 
#
# 1 47.0659 42.1771 37.7184 0.0000 0.0000 0.0000
# 2 42.1771 138.1957 70.5604 0.0000 0.0000 0.0000
# 3 37.7184 70.5604 89.0871 0.0000 0.0000 0.0000
# 4 0.0000 0.0000 0.0000 16.4896 0.0000 0.0000
# 5 0.0000 0.0000 0.0000 0.0000 24.1367 0.0000
# 6 0.0000 0.0000 0.0000 0.0000 0.0000 22.3585
#
#
#
# Elastic Compliance Matrix: (Units=1/GPa)
#
#
# Indices 1 2 3 4 5 6 
#
# 1 0.034179 -0.005109 -0.010425 0.000000 0.000000 0.000000
# 2 -0.005109 0.012913 -0.008065 0.000000 0.000000 0.000000
# 3 -0.010425 -0.008065 0.022026 0.000000 0.000000 0.000000
# 4 0.000000 0.000000 0.000000 0.060644 0.000000 0.000000
# 5 0.000000 0.000000 0.000000 0.000000 0.041431 0.000000
# 6 0.000000 0.000000 0.000000 0.000000 0.000000 0.044726
#
#
# Mechanical properties :
#
#
# Convention : Reuss Voigt Hill
#
# Bulk Modulus (GPa) = 45.61587 63.91783 54.76685
# Shear Modulus (GPa) = 18.48959 20.85648 19.67303
#
# Velocity S-wave (km/s) = 3.19308 3.39130 3.29368
# Velocity P-wave (km/s) = 6.22481 7.11202 6.68316
#
# Compressibility (1/GPa) = 0.02192219
#
# Stress axis : x y z
#
# Youngs Moduli (GPa) = 29.25749 77.44184 45.40064
#
# Poissons Ratio (x) = 0.39563 0.47329
# Poissons Ratio (y) = 0.14947 0.36614
# Poissons Ratio (z) = 0.30500 0.62453
#
# Static dielectric constant tensor:
#      x y z
#    x 1.680900 0.000000 0.000000 
#    y 0.000000 1.652130 0.000000 
#    z 0.000000 0.000000 1.647420 
# 
# From -- ./inp_files/35912.got.cif
#   From: 2010.05.17/outbox.cif.g08.bks.cpg/sg69_18_cif.got.tgz:35912.got - 2010.06.03 19:29:58.
