data_PCOD9511284
_publ_section_title
;
Structure prediction by ZEFSAII (Michael W. Deem and Ramdas Pophale) SiO2 
 PCOD9511284
Probable space group: F M M M
;
_chemical_formula_sum "Si O2"
_cell_formula_units_Z 144
_cell_length_a 30.923114
_cell_length_b 14.218269
_cell_length_c 15.596265
_cell_angle_alpha 90.000000
_cell_angle_beta 90.000000
_cell_angle_gamma 90.000000
_cell_volume 6857.259010
_symmetry_space_group_name_H-M "F M M M"
_symmetry_group_IT_number 69
_symmetry_cell_setting 'orthorhombic'
loop_
_space_group_symop_operation_xyz
x,y,z
-x,-y,z
x,-y,-z
-x,y,-z
-x,-y,-z
x,y,-z
-x,y,z
x,-y,z
x,1/2+y,1/2+z
-x,1/2-y,1/2+z
x,1/2-y,1/2-z
-x,1/2+y,1/2-z
-x,1/2-y,1/2-z
x,1/2+y,1/2-z
-x,1/2+y,1/2+z
x,1/2-y,1/2+z
1/2+x,y,1/2+z
1/2-x,-y,1/2+z
1/2+x,-y,1/2-z
1/2-x,y,1/2-z
1/2-x,-y,1/2-z
1/2+x,y,1/2-z
1/2-x,y,1/2+z
1/2+x,-y,1/2+z
1/2+x,1/2+y,z
1/2-x,1/2-y,z
1/2+x,1/2-y,-z
1/2-x,1/2+y,-z
1/2-x,1/2-y,-z
1/2+x,1/2+y,-z
1/2-x,1/2+y,z
1/2+x,1/2-y,z
loop_
_atom_site_type_symbol
_atom_site_label
_atom_site_fract_x
_atom_site_fract_y
_atom_site_fract_z
Si Si1 0.049322 0.137949 0.246668
Si Si2 0.551882 0.000000 0.403914
Si Si3 0.861202 0.608718 0.177219
Si Si4 0.225774 0.388097 0.500000
Si Si5 0.171157 0.112790 0.500000
Si Si6 0.708742 0.114671 0.309787
O O1 0.049106 0.250000 0.250000
O O2 0.061723 0.090575 0.155315
O O3 0.087716 0.109513 0.309289
O O4 0.000000 0.107338 0.266419
O O5 0.500000 0.000000 0.412704
O O6 0.570698 0.000000 0.500000
O O7 0.846787 0.500000 0.172495
O O8 0.848071 0.653492 0.087389
O O9 0.834350 0.644296 0.259005
O O10 0.215410 0.500000 0.500000
O O11 0.277486 0.378633 0.500000
O O12 0.210526 0.349776 0.592284
O O13 0.161193 0.000000 0.500000
O O14 0.750000 0.140255 0.250000
O O15 0.710268 0.000000 0.316365
#
# Coordination Sequence:
#
# PCOD9511284 Si02
#       6
#    32  16  32  16  16  32
#     4  10  21  39  61  85 118 158 202 255 314 370
#     4   9  18  38  66  89 114 157 209 257 311 375
#     4  10  18  31  51  79 110 152 194 240 298 365
#     4   9  14  24  40  70 107 142 185 238 284 349
#     4   9  16  26  47  75 111 147 187 227 289 367
#     4   9  15  24  42  69 103 141 187 233 282 346
#
# _framework density 20.999645000000001
#
# number of rings (size 3 to 8) (size 9 to 14) (size 15 to 20)
#    0.000    2.556    3.333    0.000    0.000    0.000 
#    4.000    0.556    0.000    2.667    0.000    1.556 
#    0.000    0.000    0.000    0.000    0.000    0.000 
#
# Total GULP energy -200684.555903 kJ/mol
# GULP energy per Si atom -5574.570997 kJ/mol
# Density = 2.095185 g / cm^3
# Si number density = 20.999645 Si / 1000 Ang^3
#
#
#
# Elastic Constant Matrix: (Units=GPa)
#
#
# Indices 1 2 3 4 5 6 
#
# 1 58.0692 -12.2980 68.0663 0.0000 0.0000 0.0000
# 2 -12.2980 83.7002 26.4210 0.0000 0.0000 0.0000
# 3 68.0663 26.4210 213.0315 0.0000 0.0000 0.0000
# 4 0.0000 0.0000 0.0000 -3.7477 0.0000 0.0000
# 5 0.0000 0.0000 0.0000 0.0000 22.5262 0.0000
# 6 0.0000 0.0000 0.0000 0.0000 0.0000 -14.5448
#
#
#
# Elastic Compliance Matrix: (Units=1/GPa)
#
#
# Indices 1 2 3 4 5 6 
#
# 1 0.032286 0.008326 -0.011349 0.000000 0.000000 0.000000
# 2 0.008326 0.014581 -0.004469 0.000000 0.000000 0.000000
# 3 -0.011349 -0.004469 0.008874 0.000000 0.000000 0.000000
# 4 0.000000 0.000000 0.000000 -0.266828 0.000000 0.000000
# 5 0.000000 0.000000 0.000000 0.000000 0.044393 0.000000
# 6 0.000000 0.000000 0.000000 0.000000 0.000000 -0.068753
#
#
# Mechanical properties :
#
#
# Convention : Reuss Voigt Hill
#
# Bulk Modulus (GPa) = 24.53393 57.68662 41.11027
# Shear Modulus (GPa) = -24.16897 19.02084 -2.57407
#
# Velocity S-wave (km/s) = -3.39621 3.01287 -1.10834
# Velocity P-wave (km/s) = 1.91587 6.29548 4.24043
#
# Compressibility (1/GPa) = 0.04075988
#
# Stress axis : x y z
#
# Youngs Moduli (GPa) = 30.97270 68.58066 112.68375
#
# Poissons Ratio (x) = -0.57101 1.27880
# Poissons Ratio (y) = -0.25788 0.50356
# Poissons Ratio (z) = 0.35150 0.30647
#
# Static dielectric constant tensor:
#      x y z
#    x 1.725750 0.000000 0.000000 
#    y 0.000000 1.797780 0.000000 
#    z 0.000000 0.000000 1.786940 
# 
# From -- ./inp_files/19529.got.cif
#   From: 2010.05.17/outbox.cif.g08.bks.cpg/sg69_10_cif.got.tgz:19529.got - 2010.06.03 19:29:58.
