data_PCOD9511722
_publ_section_title
;
Structure prediction by ZEFSAII (Michael W. Deem and Ramdas Pophale) SiO2 
 PCOD9511722
Probable space group: F M M M
;
_chemical_formula_sum "Si O2"
_cell_formula_units_Z 160
_cell_length_a 22.657999
_cell_length_b 14.434741
_cell_length_c 27.987017
_cell_angle_alpha 90.000000
_cell_angle_beta 90.000000
_cell_angle_gamma 90.000000
_cell_volume 9153.499470
_symmetry_space_group_name_H-M "F M M M"
_symmetry_group_IT_number 69
_symmetry_cell_setting 'orthorhombic'
loop_
_space_group_symop_operation_xyz
x,y,z
-x,-y,z
x,-y,-z
-x,y,-z
-x,-y,-z
x,y,-z
-x,y,z
x,-y,z
x,1/2+y,1/2+z
-x,1/2-y,1/2+z
x,1/2-y,1/2-z
-x,1/2+y,1/2-z
-x,1/2-y,1/2-z
x,1/2+y,1/2-z
-x,1/2+y,1/2+z
x,1/2-y,1/2+z
1/2+x,y,1/2+z
1/2-x,-y,1/2+z
1/2+x,-y,1/2-z
1/2-x,y,1/2-z
1/2-x,-y,1/2-z
1/2+x,y,1/2-z
1/2-x,y,1/2+z
1/2+x,-y,1/2+z
1/2+x,1/2+y,z
1/2-x,1/2-y,z
1/2+x,1/2-y,-z
1/2-x,1/2+y,-z
1/2-x,1/2-y,-z
1/2+x,1/2+y,-z
1/2-x,1/2+y,z
1/2+x,1/2-y,z
loop_
_atom_site_type_symbol
_atom_site_label
_atom_site_fract_x
_atom_site_fract_y
_atom_site_fract_z
Si Si1 0.369006 0.309802 0.877054
Si Si2 0.929362 0.500000 0.754435
Si Si3 0.636138 0.819591 0.793832
Si Si4 0.242577 0.393876 0.854097
Si Si5 0.929852 0.500000 0.358913
Si Si6 0.308607 0.313475 0.553009
O O1 0.393156 0.240260 0.836670
O O2 0.302750 0.336535 0.859157
O O3 0.403393 0.405775 0.880644
O O4 0.359412 0.253104 0.925820
O O5 0.901566 0.591805 0.777804
O O6 0.915249 0.500000 0.697776
O O7 0.000000 0.500000 0.759556
O O8 0.644060 0.750000 0.750000
O O9 0.698515 0.856275 0.814010
O O10 0.257801 0.500000 0.844840
O O11 0.207653 0.384302 0.904611
O O12 0.000000 0.500000 0.363846
O O13 0.321051 0.350362 0.500000
O O14 0.250000 0.250000 0.549443
#
# Coordination Sequence:
#
# PCOD9511722 Si02
#       6
#    32  16  32  32  16  32
#     4  10  20  35  54  78 110 146 177 219 276 325
#     4  11  24  39  55  76 103 143 194 235 264 312
#     4  11  21  36  53  78 109 143 174 221 271 328
#     4  10  19  32  54  80 114 140 175 222 267 333
#     4  11  22  37  54  77 103 141 195 232 268 315
#     4   8  16  31  51  78 109 139 171 210 264 327
#
# _framework density 17.479654
#
# number of rings (size 3 to 8) (size 9 to 14) (size 15 to 20)
#    0.000    2.000    4.000    1.800    0.000    3.200 
#    0.000    2.500    0.000    1.200    0.000    0.000 
#    0.000    4.000    0.000    0.000    0.000    0.000 
#
# Total GULP energy -223061.153963 kJ/mol
# GULP energy per Si atom -5576.528849 kJ/mol
# Density = 1.743987 g / cm^3
# Si number density = 17.479654 Si / 1000 Ang^3
#
#
#
# Elastic Constant Matrix: (Units=GPa)
#
#
# Indices 1 2 3 4 5 6 
#
# 1 49.6821 17.7599 19.5174 0.0000 0.0000 0.0000
# 2 17.7599 84.9980 22.9806 0.0000 0.0000 0.0000
# 3 19.5174 22.9806 85.9330 0.0000 0.0000 0.0000
# 4 0.0000 0.0000 0.0000 11.8669 0.0000 0.0000
# 5 0.0000 0.0000 0.0000 0.0000 11.2847 0.0000
# 6 0.0000 0.0000 0.0000 0.0000 0.0000 6.4875
#
#
#
# Elastic Compliance Matrix: (Units=1/GPa)
#
#
# Indices 1 2 3 4 5 6 
#
# 1 0.023119 -0.003677 -0.004268 0.000000 0.000000 0.000000
# 2 -0.003677 0.013267 -0.002713 0.000000 0.000000 0.000000
# 3 -0.004268 -0.002713 0.013332 0.000000 0.000000 0.000000
# 4 0.000000 0.000000 0.000000 0.084268 0.000000 0.000000
# 5 0.000000 0.000000 0.000000 0.000000 0.088616 0.000000
# 6 0.000000 0.000000 0.000000 0.000000 0.000000 0.154144
#
#
# Mechanical properties :
#
#
# Convention : Reuss Voigt Hill
#
# Bulk Modulus (GPa) = 35.20753 37.90319 36.55536
# Shear Modulus (GPa) = 12.26915 16.61816 14.44365
#
# Velocity S-wave (km/s) = 2.65223 3.08671 2.87768
# Velocity P-wave (km/s) = 5.43736 5.86813 5.65685
#
# Compressibility (1/GPa) = 0.02840301
#
# Stress axis : x y z
#
# Youngs Moduli (GPa) = 43.25489 75.37695 75.00923
#
# Poissons Ratio (x) = 0.27714 0.32011
# Poissons Ratio (y) = 0.15904 0.20348
# Poissons Ratio (z) = 0.18459 0.20448
#
# Static dielectric constant tensor:
#      x y z
#    x 1.582780 0.000000 0.000000 
#    y 0.000000 1.607720 0.000000 
#    z 0.000000 0.000000 1.612330 
# 
# From -- ./inp_files/18055.got.cif
#   From: 2010.05.17/outbox.cif.g08.bks.cpg/sg69_10_cif.got.tgz:18055.got - 2010.06.03 19:29:58.
