data_PCOD9511778
_publ_section_title
;
Structure prediction by ZEFSAII (Michael W. Deem and Ramdas Pophale) SiO2 
 PCOD9511778
Probable space group: F M M M
;
_chemical_formula_sum "Si O2"
_cell_formula_units_Z 160
_cell_length_a 25.054407
_cell_length_b 14.497041
_cell_length_c 20.999904
_cell_angle_alpha 90.000000
_cell_angle_beta 90.000000
_cell_angle_gamma 90.000000
_cell_volume 7627.475207
_symmetry_space_group_name_H-M "F M M M"
_symmetry_group_IT_number 69
_symmetry_cell_setting 'orthorhombic'
loop_
_space_group_symop_operation_xyz
x,y,z
-x,-y,z
x,-y,-z
-x,y,-z
-x,-y,-z
x,y,-z
-x,y,z
x,-y,z
x,1/2+y,1/2+z
-x,1/2-y,1/2+z
x,1/2-y,1/2-z
-x,1/2+y,1/2-z
-x,1/2-y,1/2-z
x,1/2+y,1/2-z
-x,1/2+y,1/2+z
x,1/2-y,1/2+z
1/2+x,y,1/2+z
1/2-x,-y,1/2+z
1/2+x,-y,1/2-z
1/2-x,y,1/2-z
1/2-x,-y,1/2-z
1/2+x,y,1/2-z
1/2-x,y,1/2+z
1/2+x,-y,1/2+z
1/2+x,1/2+y,z
1/2-x,1/2-y,z
1/2+x,1/2-y,-z
1/2-x,1/2+y,-z
1/2-x,1/2-y,-z
1/2+x,1/2+y,-z
1/2-x,1/2+y,z
1/2+x,1/2-y,z
loop_
_atom_site_type_symbol
_atom_site_label
_atom_site_fract_x
_atom_site_fract_y
_atom_site_fract_z
Si Si1 0.708571 0.611003 0.887846
Si Si2 0.058577 0.664853 0.299478
Si Si3 0.606904 0.724026 0.069361
Si Si4 0.170430 0.895721 0.754206
Si Si5 0.671407 0.110429 0.110114
O O1 0.699990 0.500000 0.889391
O O2 0.660777 0.662711 0.922616
O O3 0.704859 0.640851 0.813170
O O4 0.768089 0.628334 0.912722
O O5 0.059210 0.750000 0.250000
O O6 0.069723 0.699953 0.370975
O O7 0.109779 0.605791 0.279613
O O8 0.000000 0.621090 0.295511
O O9 0.627774 0.828856 0.074986
O O10 0.583084 0.706860 0.000000
O O11 0.169998 0.854938 0.683823
O O12 0.188841 0.000000 0.743841
O O13 0.661829 0.000000 0.107183
#
# Coordination Sequence:
#
# PCOD9511778 Si02
#       5
#    32  32  32  32  32
#     4   9  19  33  53  80 112 148 185 225 268 321
#     4  10  20  37  59  80 102 134 180 231 280 328
#     4  11  23  37  54  80 113 148 185 226 274 323
#     4   9  17  32  54  82 111 138 175 227 279 325
#     4  10  19  33  53  80 113 149 186 222 266 321
#
# _framework density 20.976797999999999
#
# number of rings (size 3 to 8) (size 9 to 14) (size 15 to 20)
#    0.000    2.200    2.000    1.200    0.000    5.600 
#    0.000    4.000    0.000    0.600    0.000    7.000 
#    0.000    0.000    0.000    0.000    0.000    0.000 
#
# Total GULP energy -223244.906647 kJ/mol
# GULP energy per Si atom -5581.122666 kJ/mol
# Density = 2.092905 g / cm^3
# Si number density = 20.976798 Si / 1000 Ang^3
#
#
#
# Elastic Constant Matrix: (Units=GPa)
#
#
# Indices 1 2 3 4 5 6 
#
# 1 82.9049 2.1766 1.8147 0.0000 0.0000 0.0000
# 2 2.1766 60.5092 3.0133 0.0000 0.0000 0.0000
# 3 1.8147 3.0133 116.4858 0.0000 0.0000 0.0000
# 4 0.0000 0.0000 0.0000 15.2593 0.0000 0.0000
# 5 0.0000 0.0000 0.0000 0.0000 -0.8074 0.0000
# 6 0.0000 0.0000 0.0000 0.0000 0.0000 13.4775
#
#
#
# Elastic Compliance Matrix: (Units=1/GPa)
#
#
# Indices 1 2 3 4 5 6 
#
# 1 0.012077 -0.000426 -0.000177 0.000000 0.000000 0.000000
# 2 -0.000426 0.016563 -0.000422 0.000000 0.000000 0.000000
# 3 -0.000177 -0.000422 0.008598 0.000000 0.000000 0.000000
# 4 0.000000 0.000000 0.000000 0.065534 0.000000 0.000000
# 5 0.000000 0.000000 0.000000 0.000000 -1.238593 0.000000
# 6 0.000000 0.000000 0.000000 0.000000 0.000000 0.074198
#
#
# Mechanical properties :
#
#
# Convention : Reuss Voigt Hill
#
# Bulk Modulus (GPa) = 28.41791 30.43434 29.42612
# Shear Modulus (GPa) = -4.77170 22.44558 8.83694
#
# Velocity S-wave (km/s) = -1.50986 3.27466 2.05472
# Velocity P-wave (km/s) = 3.24609 5.37010 4.43707
#
# Compressibility (1/GPa) = 0.03518908
#
# Stress axis : x y z
#
# Youngs Moduli (GPa) = 82.80156 60.37658 116.30060
#
# Poissons Ratio (x) = 0.02570 0.02060
# Poissons Ratio (y) = 0.03524 0.04906
# Poissons Ratio (z) = 0.01467 0.02547
#
# Static dielectric constant tensor:
#      x y z
#    x 1.723670 0.000000 0.000000 
#    y 0.000000 1.760070 0.000000 
#    z 0.000000 0.000000 1.797300 
# 
# From -- ./inp_files/18004.got.cif
#   From: 2010.05.17/outbox.cif.g08.bks.cpg/sg69_10_cif.got.tgz:18004.got - 2010.06.03 19:29:58.
