data_PCOD9511875
_publ_section_title
;
Structure prediction by ZEFSAII (Michael W. Deem and Ramdas Pophale) SiO2 
 PCOD9511875
Probable space group: F M M M
;
_chemical_formula_sum "Si O2"
_cell_formula_units_Z 208
_cell_length_a 16.824088
_cell_length_b 25.847494
_cell_length_c 27.224573
_cell_angle_alpha 90.000000
_cell_angle_beta 90.000000
_cell_angle_gamma 90.000000
_cell_volume 11838.891798
_symmetry_space_group_name_H-M "F M M M"
_symmetry_group_IT_number 69
_symmetry_cell_setting 'orthorhombic'
loop_
_space_group_symop_operation_xyz
x,y,z
-x,-y,z
x,-y,-z
-x,y,-z
-x,-y,-z
x,y,-z
-x,y,z
x,-y,z
x,1/2+y,1/2+z
-x,1/2-y,1/2+z
x,1/2-y,1/2-z
-x,1/2+y,1/2-z
-x,1/2-y,1/2-z
x,1/2+y,1/2-z
-x,1/2+y,1/2+z
x,1/2-y,1/2+z
1/2+x,y,1/2+z
1/2-x,-y,1/2+z
1/2+x,-y,1/2-z
1/2-x,y,1/2-z
1/2-x,-y,1/2-z
1/2+x,y,1/2-z
1/2-x,y,1/2+z
1/2+x,-y,1/2+z
1/2+x,1/2+y,z
1/2-x,1/2-y,z
1/2+x,1/2-y,-z
1/2-x,1/2+y,-z
1/2-x,1/2-y,-z
1/2+x,1/2+y,-z
1/2-x,1/2+y,z
1/2+x,1/2-y,z
loop_
_atom_site_type_symbol
_atom_site_label
_atom_site_fract_x
_atom_site_fract_y
_atom_site_fract_z
Si Si1 0.092206 0.711457 0.315287
Si Si2 0.771592 0.310545 0.058102
Si Si3 0.593426 0.139956 0.232359
Si Si4 0.142493 0.621038 0.614154
Si Si5 0.904265 0.182277 0.365555
Si Si6 0.319068 0.438738 0.789684
Si Si7 0.500000 0.062044 0.558967
O O1 0.128948 0.686398 0.266008
O O2 0.098346 0.666274 0.355436
O O3 0.122062 0.763996 0.339315
O O4 0.000000 0.722420 0.304773
O O5 0.750000 0.250000 0.067219
O O6 0.705247 0.348895 0.080190
O O7 0.854094 0.322559 0.085438
O O8 0.777404 0.317493 0.000000
O O9 0.500000 0.150105 0.229543
O O10 0.619656 0.140468 0.176014
O O11 0.606848 0.087970 0.262544
O O12 0.185133 0.586653 0.656458
O O13 0.077927 0.587810 0.583984
O O14 0.000000 0.182505 0.373839
O O15 0.324820 0.500000 0.794124
O O16 0.250000 0.426035 0.750000
O O17 0.500000 0.071224 0.500000
O O18 0.500000 0.000000 0.567148
#
# Coordination Sequence:
#
# PCOD9511875 Si02
#       7
#    32  32  32  32  32  32  16
#     4   9  16  29  50  78 107 141 181 220 274 337
#     4  11  23  37  53  77 109 148 196 245 295 350
#     4   9  18  31  51  78 106 139 177 221 274 337
#     4  11  20  37  57  79 113 150 186 241 296 339
#     4  10  19  34  54  77 109 147 189 235 278 341
#     4  10  21  35  53  79 110 144 182 224 281 347
#     4  11  24  40  60  88 115 152 208 252 297 364
#
# _framework density 17.569210999999999
#
# number of rings (size 3 to 8) (size 9 to 14) (size 15 to 20)
#    0.000    1.923    2.308    2.308    1.077    2.462 
#    0.000    0.000    0.000    0.000    0.000    0.000 
#    0.000    0.000    0.000   19.538    0.000    0.000 
#
# Total GULP energy -289701.820776 kJ/mol
# GULP energy per Si atom -5571.188861 kJ/mol
# Density = 1.752922 g / cm^3
# Si number density = 17.569211 Si / 1000 Ang^3
#
#
#
# Elastic Constant Matrix: (Units=GPa)
#
#
# Indices 1 2 3 4 5 6 
#
# 1 72.2119 33.2163 65.9868 0.0000 0.0000 0.0000
# 2 33.2163 59.1431 51.7920 0.0000 0.0000 0.0000
# 3 65.9868 51.7920 153.8865 0.0000 0.0000 0.0000
# 4 0.0000 0.0000 0.0000 27.3675 0.0000 0.0000
# 5 0.0000 0.0000 0.0000 0.0000 26.1673 0.0000
# 6 0.0000 0.0000 0.0000 0.0000 0.0000 20.5544
#
#
#
# Elastic Compliance Matrix: (Units=1/GPa)
#
#
# Indices 1 2 3 4 5 6 
#
# 1 0.024383 -0.006435 -0.008290 0.000000 0.000000 0.000000
# 2 -0.006435 0.025672 -0.005881 0.000000 0.000000 0.000000
# 3 -0.008290 -0.005881 0.012032 0.000000 0.000000 0.000000
# 4 0.000000 0.000000 0.000000 0.036540 0.000000 0.000000
# 5 0.000000 0.000000 0.000000 0.000000 0.038216 0.000000
# 6 0.000000 0.000000 0.000000 0.000000 0.000000 0.048651
#
#
# Mechanical properties :
#
#
# Convention : Reuss Voigt Hill
#
# Bulk Modulus (GPa) = 47.90094 65.24796 56.57445
# Shear Modulus (GPa) = 21.39820 23.76760 22.58290
#
# Velocity S-wave (km/s) = 3.49368 3.68203 3.58909
# Velocity P-wave (km/s) = 6.60286 7.43604 7.03180
#
# Compressibility (1/GPa) = 0.02087642
#
# Stress axis : x y z
#
# Youngs Moduli (GPa) = 41.01165 38.95288 83.10950
#
# Poissons Ratio (x) = 0.25065 0.68897
# Poissons Ratio (y) = 0.26390 0.48876
# Poissons Ratio (z) = 0.33998 0.22908
#
# Static dielectric constant tensor:
#      x y z
#    x 1.626990 0.000000 0.000000 
#    y 0.000000 1.597350 0.000000 
#    z 0.000000 0.000000 1.616010 
# 
# From -- ./inp_files/26087.got.cif
#   From: 2010.05.17/outbox.cif.g08.bks.cpg/sg69_14_cif.got.tgz:26087.got - 2010.06.03 19:29:58.
