data_PCOD9511607
_publ_section_title
;
Structure prediction by ZEFSAII (Michael W. Deem and Ramdas Pophale) SiO2 
 PCOD9511607
Probable space group: F M M M
;
_chemical_formula_sum "Si O2"
_cell_formula_units_Z 208
_cell_length_a 21.910366
_cell_length_b 17.941579
_cell_length_c 23.362186
_cell_angle_alpha 90.000000
_cell_angle_beta 90.000000
_cell_angle_gamma 90.000000
_cell_volume 9183.828631
_symmetry_space_group_name_H-M "F M M M"
_symmetry_group_IT_number 69
_symmetry_cell_setting 'orthorhombic'
loop_
_space_group_symop_operation_xyz
x,y,z
-x,-y,z
x,-y,-z
-x,y,-z
-x,-y,-z
x,y,-z
-x,y,z
x,-y,z
x,1/2+y,1/2+z
-x,1/2-y,1/2+z
x,1/2-y,1/2-z
-x,1/2+y,1/2-z
-x,1/2-y,1/2-z
x,1/2+y,1/2-z
-x,1/2+y,1/2+z
x,1/2-y,1/2+z
1/2+x,y,1/2+z
1/2-x,-y,1/2+z
1/2+x,-y,1/2-z
1/2-x,y,1/2-z
1/2-x,-y,1/2-z
1/2+x,y,1/2-z
1/2-x,y,1/2+z
1/2+x,-y,1/2+z
1/2+x,1/2+y,z
1/2-x,1/2-y,z
1/2+x,1/2-y,-z
1/2-x,1/2+y,-z
1/2-x,1/2-y,-z
1/2+x,1/2+y,-z
1/2-x,1/2+y,z
1/2+x,1/2-y,z
loop_
_atom_site_type_symbol
_atom_site_label
_atom_site_fract_x
_atom_site_fract_y
_atom_site_fract_z
Si Si1 0.925824 0.083092 0.000000
Si Si2 0.393077 0.149294 0.936451
Si Si3 0.928949 0.582081 0.699345
Si Si4 0.237860 0.161809 0.686282
Si Si5 0.887759 0.084351 0.674437
Si Si6 0.926502 0.311349 0.395186
Si Si7 0.750246 0.659134 0.062202
O O1 0.910470 0.127897 0.056975
O O2 0.000000 0.079120 0.000000
O O3 0.901170 0.000000 0.000000
O O4 0.420695 0.100585 0.885350
O O5 0.398687 0.234451 0.915992
O O6 0.320753 0.132796 0.940440
O O7 0.419379 0.140972 0.000000
O O8 0.901663 0.500000 0.685619
O O9 0.925014 0.592011 0.767267
O O10 0.905309 0.653558 0.664963
O O11 0.000000 0.577738 0.682588
O O12 0.250000 0.129651 0.750000
O O13 0.250000 0.250000 0.688969
O O14 0.166855 0.143180 0.678185
O O15 0.269824 0.135210 0.626534
O O16 0.863223 0.000000 0.673180
O O17 0.000000 0.299912 0.394257
O O18 0.750000 0.750000 0.062728
O O19 0.722141 0.637248 0.000000
#
# Coordination Sequence:
#
# PCOD9511607 Si02
#       7
#    16  32  32  32  32  32  32
#     4   9  16  28  48  74 104 139 177 217 264 322
#     4  10  20  34  53  78 110 140 180 230 281 329
#     4   9  19  36  55  77 110 152 194 235 284 338
#     4   9  18  32  54  82 108 136 177 231 284 343
#     4  10  22  38  56  80 110 148 194 236 278 333
#     4  10  19  31  51  79 110 143 181 230 281 334
#     4   8  15  29  48  71  99 129 169 209 258 322
#
# _framework density 22.648506999999999
#
# number of rings (size 3 to 8) (size 9 to 14) (size 15 to 20)
#    0.000    2.692    0.769    0.462    0.000    9.846 
#    0.000    1.538    0.000    0.000    0.000    4.308 
#    0.000    0.000    0.000    0.000    0.000    0.000 
#
# Total GULP energy -289745.883211 kJ/mol
# GULP energy per Si atom -5572.036216 kJ/mol
# Density = 2.259696 g / cm^3
# Si number density = 22.648507 Si / 1000 Ang^3
#
#
#
# Elastic Constant Matrix: (Units=GPa)
#
#
# Indices 1 2 3 4 5 6 
#
# 1 43.9279 5.9758 6.4734 0.0000 0.0000 0.0000
# 2 5.9758 51.4839 19.4089 0.0000 0.0000 0.0000
# 3 6.4734 19.4089 210.8192 0.0000 0.0000 0.0000
# 4 0.0000 0.0000 0.0000 28.6315 0.0000 0.0000
# 5 0.0000 0.0000 0.0000 0.0000 17.0508 0.0000
# 6 0.0000 0.0000 0.0000 0.0000 0.0000 14.0164
#
#
#
# Elastic Compliance Matrix: (Units=1/GPa)
#
#
# Indices 1 2 3 4 5 6 
#
# 1 0.023177 -0.002509 -0.000481 0.000000 0.000000 0.000000
# 2 -0.002509 0.020394 -0.001800 0.000000 0.000000 0.000000
# 3 -0.000481 -0.001800 0.004924 0.000000 0.000000 0.000000
# 4 0.000000 0.000000 0.000000 0.034927 0.000000 0.000000
# 5 0.000000 0.000000 0.000000 0.000000 0.058648 0.000000
# 6 0.000000 0.000000 0.000000 0.000000 0.000000 0.071345
#
#
# Mechanical properties :
#
#
# Convention : Reuss Voigt Hill
#
# Bulk Modulus (GPa) = 25.69773 41.10525 33.40149
# Shear Modulus (GPa) = 21.18955 30.23127 25.71041
#
# Velocity S-wave (km/s) = 3.06205 3.65746 3.37292
# Velocity P-wave (km/s) = 4.88595 6.00205 5.47253
#
# Compressibility (1/GPa) = 0.03891395
#
# Stress axis : x y z
#
# Youngs Moduli (GPa) = 43.14678 49.03516 203.09024
#
# Poissons Ratio (x) = 0.12303 0.09762
# Poissons Ratio (y) = 0.10825 0.36566
# Poissons Ratio (z) = 0.02074 0.08829
#
# Static dielectric constant tensor:
#      x y z
#    x 1.912390 0.000000 0.000000 
#    y 0.000000 1.776020 0.000000 
#    z 0.000000 0.000000 1.948920 
# 
# From -- ./inp_files/39081.got.cif
#   From: 2010.05.17/outbox.cif.g08.bks.cpg/sg69_20_cif.got.tgz:39081.got - 2010.06.03 19:29:58.
