data_PCOD9511501
_publ_section_title
;
Structure prediction by ZEFSAII (Michael W. Deem and Ramdas Pophale) SiO2 
 PCOD9511501
Probable space group: F M M M
;
_chemical_formula_sum "Si O2"
_cell_formula_units_Z 128
_cell_length_a 8.947460
_cell_length_b 26.041622
_cell_length_c 34.881323
_cell_angle_alpha 90.000000
_cell_angle_beta 90.000000
_cell_angle_gamma 90.000000
_cell_volume 8127.570494
_symmetry_space_group_name_H-M "F M M M"
_symmetry_group_IT_number 69
_symmetry_cell_setting 'orthorhombic'
loop_
_space_group_symop_operation_xyz
x,y,z
-x,-y,z
x,-y,-z
-x,y,-z
-x,-y,-z
x,y,-z
-x,y,z
x,-y,z
x,1/2+y,1/2+z
-x,1/2-y,1/2+z
x,1/2-y,1/2-z
-x,1/2+y,1/2-z
-x,1/2-y,1/2-z
x,1/2+y,1/2-z
-x,1/2+y,1/2+z
x,1/2-y,1/2+z
1/2+x,y,1/2+z
1/2-x,-y,1/2+z
1/2+x,-y,1/2-z
1/2-x,y,1/2-z
1/2-x,-y,1/2-z
1/2+x,y,1/2-z
1/2-x,y,1/2+z
1/2+x,-y,1/2+z
1/2+x,1/2+y,z
1/2-x,1/2-y,z
1/2+x,1/2-y,-z
1/2-x,1/2+y,-z
1/2-x,1/2-y,-z
1/2+x,1/2+y,-z
1/2-x,1/2+y,z
1/2+x,1/2-y,z
loop_
_atom_site_type_symbol
_atom_site_label
_atom_site_fract_x
_atom_site_fract_y
_atom_site_fract_z
Si Si1 0.678384 0.439424 0.420391
Si Si2 0.679627 0.195081 0.708712
Si Si3 0.679960 0.500000 0.208018
Si Si4 0.820677 0.902058 0.156495
Si Si5 0.672502 0.062372 0.500000
O O1 0.500000 0.435967 0.421850
O O2 0.718464 0.500000 0.415247
O O3 0.742753 0.409148 0.384258
O O4 0.746822 0.421650 0.460834
O O5 0.500000 0.199406 0.712464
O O6 0.750000 0.181160 0.750000
O O7 0.750000 0.250000 0.698051
O O8 0.713937 0.150881 0.678110
O O9 0.500000 0.500000 0.211619
O O10 0.750000 0.500000 0.250000
O O11 0.723676 0.550468 0.183971
O O12 0.000000 0.905070 0.151217
O O13 0.500000 0.078214 0.500000
O O14 0.677372 0.000000 0.500000
#
# Coordination Sequence:
#
# PCOD9511501 Si02
#       5
#    32  32  16  32  16
#     4  10  19  30  46  71 100 129 162 201 240 284
#     4  10  20  34  52  72  94 125 165 209 251 291
#     4  10  20  32  46  65  94 127 160 196 235 288
#     4  10  20  33  49  69  96 130 164 198 242 293
#     4   9  17  29  47  67  94 133 166 195 235 284
#
# _framework density 15.748865
#
# number of rings (size 3 to 8) (size 9 to 14) (size 15 to 20)
#    0.000    2.125    1.250    3.375    0.000    5.500 
#    0.000    0.000    0.000    0.000    0.000    0.875 
#    0.000    0.000    0.000    0.000    0.000    0.000 
#
# Total GULP energy -178559.897787 kJ/mol
# GULP energy per Si atom -5579.996806 kJ/mol
# Density = 1.571302 g / cm^3
# Si number density = 15.748865 Si / 1000 Ang^3
#
#
#
# Elastic Constant Matrix: (Units=GPa)
#
#
# Indices 1 2 3 4 5 6 
#
# 1 58.6039 47.9070 69.3131 0.0000 0.0000 0.0000
# 2 47.9070 80.4589 79.8882 0.0000 0.0000 0.0000
# 3 69.3131 79.8882 172.3008 0.0000 0.0000 0.0000
# 4 0.0000 0.0000 0.0000 18.0768 0.0000 0.0000
# 5 0.0000 0.0000 0.0000 0.0000 34.9149 0.0000
# 6 0.0000 0.0000 0.0000 0.0000 0.0000 19.7369
#
#
#
# Elastic Compliance Matrix: (Units=1/GPa)
#
#
# Indices 1 2 3 4 5 6 
#
# 1 0.040011 -0.014532 -0.009358 0.000000 0.000000 0.000000
# 2 -0.014532 0.028310 -0.007280 0.000000 0.000000 0.000000
# 3 -0.009358 -0.007280 0.012944 0.000000 0.000000 0.000000
# 4 0.000000 0.000000 0.000000 0.055320 0.000000 0.000000
# 5 0.000000 0.000000 0.000000 0.000000 0.028641 0.000000
# 6 0.000000 0.000000 0.000000 0.000000 0.000000 0.050666
#
#
# Mechanical properties :
#
#
# Convention : Reuss Voigt Hill
#
# Bulk Modulus (GPa) = 52.84074 78.39778 65.61926
# Shear Modulus (GPa) = 17.57226 22.16274 19.86750
#
# Velocity S-wave (km/s) = 3.34395 3.75542 3.55564
# Velocity P-wave (km/s) = 6.96666 8.28808 7.65593
#
# Compressibility (1/GPa) = 0.01892479
#
# Stress axis : x y z
#
# Youngs Moduli (GPa) = 24.99316 35.32349 77.25788
#
# Poissons Ratio (x) = 0.51332 0.72296
# Poissons Ratio (y) = 0.36320 0.56244
# Poissons Ratio (z) = 0.23388 0.25716
#
# Static dielectric constant tensor:
#      x y z
#    x 1.528210 0.000000 0.000000 
#    y 0.000000 1.512070 0.000000 
#    z 0.000000 0.000000 1.503310 
# 
# From -- ./inp_files/4803.got.cif
#   From: 2010.05.17/outbox.cif.g08.bks.cpg/sg69_3_cif.got.tgz:4803.got - 2010.06.03 19:29:58.
