data_PCOD9511019
_publ_section_title
;
Structure prediction by ZEFSAII (Michael W. Deem and Ramdas Pophale) SiO2 
 PCOD9511019
Probable space group: F M M M
;
_chemical_formula_sum "Si O2"
_cell_formula_units_Z 208
_cell_length_a 22.232816
_cell_length_b 28.694554
_cell_length_c 14.381836
_cell_angle_alpha 90.000000
_cell_angle_beta 90.000000
_cell_angle_gamma 90.000000
_cell_volume 9175.046727
_symmetry_space_group_name_H-M "F M M M"
_symmetry_group_IT_number 69
_symmetry_cell_setting 'orthorhombic'
loop_
_space_group_symop_operation_xyz
x,y,z
-x,-y,z
x,-y,-z
-x,y,-z
-x,-y,-z
x,y,-z
-x,y,z
x,-y,z
x,1/2+y,1/2+z
-x,1/2-y,1/2+z
x,1/2-y,1/2-z
-x,1/2+y,1/2-z
-x,1/2-y,1/2-z
x,1/2+y,1/2-z
-x,1/2+y,1/2+z
x,1/2-y,1/2+z
1/2+x,y,1/2+z
1/2-x,-y,1/2+z
1/2+x,-y,1/2-z
1/2-x,y,1/2-z
1/2-x,-y,1/2-z
1/2+x,y,1/2-z
1/2-x,y,1/2+z
1/2+x,-y,1/2+z
1/2+x,1/2+y,z
1/2-x,1/2-y,z
1/2+x,1/2-y,-z
1/2-x,1/2+y,-z
1/2-x,1/2-y,-z
1/2+x,1/2+y,-z
1/2-x,1/2+y,z
1/2+x,1/2-y,z
loop_
_atom_site_type_symbol
_atom_site_label
_atom_site_fract_x
_atom_site_fract_y
_atom_site_fract_z
Si Si1 0.408861 0.307394 0.847957
Si Si2 0.117055 0.553032 0.387166
Si Si3 0.703976 0.862862 0.612533
Si Si4 0.933966 0.054416 0.613763
Si Si5 0.432719 0.703369 0.630695
Si Si6 0.337348 0.875301 0.894994
Si Si7 0.000000 0.389812 0.365520
O O1 0.339417 0.322469 0.849468
O O2 0.430743 0.302333 0.742051
O O3 0.420242 0.257128 0.892246
O O4 0.447633 0.349806 0.887601
O O5 0.109990 0.553669 0.500000
O O6 0.129146 0.500000 0.358595
O O7 0.171254 0.588331 0.365357
O O8 0.053803 0.571830 0.349652
O O9 0.703542 0.856894 0.500000
O O10 0.772728 0.863405 0.646063
O O11 0.933530 0.057564 0.500000
O O12 0.879334 0.085335 0.650593
O O13 0.000000 0.072437 0.643254
O O14 0.928858 0.000000 0.636262
O O15 0.500000 0.690058 0.600774
O O16 0.380462 0.669292 0.598526
O O17 0.324048 0.892120 0.000000
#
# Coordination Sequence:
#
# PCOD9511019 Si02
#       7
#    32  32  32  32  32  32  16
#     4  10  20  37  57  77 105 139 185 222 271 324
#     4   9  17  29  50  81 111 141 179 218 260 315
#     4   9  20  36  53  78 113 147 178 218 265 326
#     4   8  14  27  49  75 102 134 174 220 267 314
#     4  11  21  37  59  79 103 137 182 238 272 319
#     4  10  21  35  52  80 113 142 177 222 275 321
#     4  10  16  30  52  74 105 136 167 220 264 311
#
# _framework density 22.670186000000001
#
# number of rings (size 3 to 8) (size 9 to 14) (size 15 to 20)
#    0.000    2.462    1.538    1.846    0.000    4.615 
#    0.000    6.154    0.000    4.615    0.000    5.385 
#    0.000    0.000    0.000    0.000    0.000    0.000 
#
# Total GULP energy -289612.327137 kJ/mol
# GULP energy per Si atom -5569.467830 kJ/mol
# Density = 2.261859 g / cm^3
# Si number density = 22.670186 Si / 1000 Ang^3
#
#
#
# Elastic Constant Matrix: (Units=GPa)
#
#
# Indices 1 2 3 4 5 6 
#
# 1 247.7350 71.7806 15.8415 0.0000 0.0000 0.0000
# 2 71.7806 112.0246 -2.1603 0.0000 0.0000 0.0000
# 3 15.8415 -2.1603 73.6530 0.0000 0.0000 0.0000
# 4 0.0000 0.0000 0.0000 15.4836 0.0000 0.0000
# 5 0.0000 0.0000 0.0000 0.0000 63.7031 0.0000
# 6 0.0000 0.0000 0.0000 0.0000 0.0000 25.8546
#
#
#
# Elastic Compliance Matrix: (Units=1/GPa)
#
#
# Indices 1 2 3 4 5 6 
#
# 1 0.005058 -0.003264 -0.001184 0.000000 0.000000 0.000000
# 2 -0.003264 0.011038 0.001026 0.000000 0.000000 0.000000
# 3 -0.001184 0.001026 0.013862 0.000000 0.000000 0.000000
# 4 0.000000 0.000000 0.000000 0.064585 0.000000 0.000000
# 5 0.000000 0.000000 0.000000 0.000000 0.015698 0.000000
# 6 0.000000 0.000000 0.000000 0.000000 0.000000 0.038678
#
#
# Mechanical properties :
#
#
# Convention : Reuss Voigt Hill
#
# Bulk Modulus (GPa) = 43.26345 67.14845 55.20595
# Shear Modulus (GPa) = 30.58747 44.20498 37.39623
#
# Velocity S-wave (km/s) = 3.67718 4.42058 4.06591
# Velocity P-wave (km/s) = 6.09542 7.46588 6.81519
#
# Compressibility (1/GPa) = 0.02311420
#
# Stress axis : x y z
#
# Youngs Moduli (GPa) = 197.71007 90.59903 72.14048
#
# Poissons Ratio (x) = 0.29569 0.08539
# Poissons Ratio (y) = 0.64527 -0.07400
# Poissons Ratio (z) = 0.23401 -0.09293
#
# Static dielectric constant tensor:
#      x y z
#    x 1.817360 0.000000 0.000000 
#    y 0.000000 1.802100 0.000000 
#    z 0.000000 0.000000 1.979170 
# 
# From -- ./inp_files/25155.got.cif
#   From: 2010.05.17/outbox.cif.g08.bks.cpg/sg69_13_cif.got.tgz:25155.got - 2010.06.03 19:29:58.
