data_PCOD9511732
_publ_section_title
;
Structure prediction by ZEFSAII (Michael W. Deem and Ramdas Pophale) SiO2 
 PCOD9511732
Probable space group: F M M M
;
_chemical_formula_sum "Si O2"
_cell_formula_units_Z 160
_cell_length_a 20.731480
_cell_length_b 26.774779
_cell_length_c 16.531755
_cell_angle_alpha 90.000000
_cell_angle_beta 90.000000
_cell_angle_gamma 90.000000
_cell_volume 9176.459714
_symmetry_space_group_name_H-M "F M M M"
_symmetry_group_IT_number 69
_symmetry_cell_setting 'orthorhombic'
loop_
_space_group_symop_operation_xyz
x,y,z
-x,-y,z
x,-y,-z
-x,y,-z
-x,-y,-z
x,y,-z
-x,y,z
x,-y,z
x,1/2+y,1/2+z
-x,1/2-y,1/2+z
x,1/2-y,1/2-z
-x,1/2+y,1/2-z
-x,1/2-y,1/2-z
x,1/2+y,1/2-z
-x,1/2+y,1/2+z
x,1/2-y,1/2+z
1/2+x,y,1/2+z
1/2-x,-y,1/2+z
1/2+x,-y,1/2-z
1/2-x,y,1/2-z
1/2-x,-y,1/2-z
1/2+x,y,1/2-z
1/2-x,y,1/2+z
1/2+x,-y,1/2+z
1/2+x,1/2+y,z
1/2-x,1/2-y,z
1/2+x,1/2-y,-z
1/2-x,1/2+y,-z
1/2-x,1/2-y,-z
1/2+x,1/2+y,-z
1/2-x,1/2+y,z
1/2+x,1/2-y,z
loop_
_atom_site_type_symbol
_atom_site_label
_atom_site_fract_x
_atom_site_fract_y
_atom_site_fract_z
Si Si1 0.140773 0.775353 0.500000
Si Si2 0.280799 0.097474 0.369988
Si Si3 0.922228 0.709926 0.177015
Si Si4 0.643266 0.500000 0.913239
Si Si5 0.145195 0.601987 0.200445
Si Si6 0.423963 0.000000 0.759735
Si Si7 0.224975 0.176488 0.000000
O O1 0.101694 0.776610 0.585217
O O2 0.184841 0.726514 0.500000
O O3 0.197506 0.816964 0.500000
O O4 0.203681 0.095021 0.362303
O O5 0.316283 0.103466 0.284885
O O6 0.295485 0.145333 0.422619
O O7 0.310881 0.047955 0.407402
O O8 0.903911 0.750000 0.250000
O O9 0.892826 0.654286 0.192053
O O10 0.000000 0.707642 0.177411
O O11 0.598254 0.500000 0.834410
O O12 0.608806 0.500000 0.000000
O O13 0.103327 0.551361 0.202079
O O14 0.500000 0.000000 0.765477
#
# Coordination Sequence:
#
# PCOD9511732 Si02
#       7
#    16  32  32  16  32  16  16
#     4  11  23  38  56  86 113 149 190 239 285 339
#     4  10  19  34  56  85 114 142 177 237 290 343
#     4  11  23  40  60  82 115 157 196 234 284 346
#     4  10  19  32  55  81 113 146 178 223 292 343
#     4  10  20  36  57  84 110 145 192 233 286 342
#     4  10  21  36  55  78 111 150 192 236 274 337
#     4  11  20  35  56  84 115 137 184 236 292 336
#
# _framework density 17.435917
#
# number of rings (size 3 to 8) (size 9 to 14) (size 15 to 20)
#    0.000    1.600    3.000    2.700    0.000    2.600 
#    0.000    0.000    0.000    1.200    0.000    2.800 
#    0.000    0.000    0.000    0.000    0.000    0.000 
#
# Total GULP energy -222738.823306 kJ/mol
# GULP energy per Si atom -5568.470583 kJ/mol
# Density = 1.739623 g / cm^3
# Si number density = 17.435917 Si / 1000 Ang^3
#
#
#
# Elastic Constant Matrix: (Units=GPa)
#
#
# Indices 1 2 3 4 5 6 
#
# 1 104.2284 56.8383 27.8542 0.0000 0.0000 0.0000
# 2 56.8383 114.7278 41.9553 0.0000 0.0000 0.0000
# 3 27.8542 41.9553 79.5415 0.0000 0.0000 0.0000
# 4 0.0000 0.0000 0.0000 37.6314 0.0000 0.0000
# 5 0.0000 0.0000 0.0000 0.0000 5.4640 0.0000
# 6 0.0000 0.0000 0.0000 0.0000 0.0000 26.5640
#
#
#
# Elastic Compliance Matrix: (Units=1/GPa)
#
#
# Indices 1 2 3 4 5 6 
#
# 1 0.013282 -0.006045 -0.001462 0.000000 0.000000 0.000000
# 2 -0.006045 0.013551 -0.005031 0.000000 0.000000 0.000000
# 3 -0.001462 -0.005031 0.015738 0.000000 0.000000 0.000000
# 4 0.000000 0.000000 0.000000 0.026574 0.000000 0.000000
# 5 0.000000 0.000000 0.000000 0.000000 0.183015 0.000000
# 6 0.000000 0.000000 0.000000 0.000000 0.000000 0.037645
#
#
# Mechanical properties :
#
#
# Convention : Reuss Voigt Hill
#
# Bulk Modulus (GPa) = 57.16352 61.31037 59.23694
# Shear Modulus (GPa) = 15.59033 25.38855 20.48944
#
# Velocity S-wave (km/s) = 2.99348 3.82004 3.43173
# Velocity P-wave (km/s) = 6.69358 7.39571 7.05338
#
# Compressibility (1/GPa) = 0.01749368
#
# Stress axis : x y z
#
# Youngs Moduli (GPa) = 75.29135 73.79599 63.54178
#
# Poissons Ratio (x) = 0.44611 0.09293
# Poissons Ratio (y) = 0.45515 0.31966
# Poissons Ratio (z) = 0.11011 0.37124
#
# Static dielectric constant tensor:
#      x y z
#    x 1.567650 0.000000 0.000000 
#    y 0.000000 1.598830 0.000000 
#    z 0.000000 0.000000 1.633090 
# 
# From -- ./inp_files/23274.got.cif
#   From: 2010.05.17/outbox.cif.g08.bks.cpg/sg69_12_cif.got.tgz:23274.got - 2010.06.03 19:29:58.
