data_PCOD9511966
_publ_section_title
;
Structure prediction by ZEFSAII (Michael W. Deem and Ramdas Pophale) SiO2 
 PCOD9511966
Probable space group: F M M M
;
_chemical_formula_sum "Si O2"
_cell_formula_units_Z 192
_cell_length_a 22.893697
_cell_length_b 24.271409
_cell_length_c 21.691116
_cell_angle_alpha 90.000000
_cell_angle_beta 90.000000
_cell_angle_gamma 90.000000
_cell_volume 12052.935046
_symmetry_space_group_name_H-M "F M M M"
_symmetry_group_IT_number 69
_symmetry_cell_setting 'orthorhombic'
loop_
_space_group_symop_operation_xyz
x,y,z
-x,-y,z
x,-y,-z
-x,y,-z
-x,-y,-z
x,y,-z
-x,y,z
x,-y,z
x,1/2+y,1/2+z
-x,1/2-y,1/2+z
x,1/2-y,1/2-z
-x,1/2+y,1/2-z
-x,1/2-y,1/2-z
x,1/2+y,1/2-z
-x,1/2+y,1/2+z
x,1/2-y,1/2+z
1/2+x,y,1/2+z
1/2-x,-y,1/2+z
1/2+x,-y,1/2-z
1/2-x,y,1/2-z
1/2-x,-y,1/2-z
1/2+x,y,1/2-z
1/2-x,y,1/2+z
1/2+x,-y,1/2+z
1/2+x,1/2+y,z
1/2-x,1/2-y,z
1/2+x,1/2-y,-z
1/2-x,1/2+y,-z
1/2-x,1/2-y,-z
1/2+x,1/2+y,-z
1/2-x,1/2+y,z
1/2+x,1/2-y,z
loop_
_atom_site_type_symbol
_atom_site_label
_atom_site_fract_x
_atom_site_fract_y
_atom_site_fract_z
Si Si1 0.069281 0.862677 0.618846
Si Si2 0.657653 0.274596 0.426871
Si Si3 0.758222 0.437833 0.070517
Si Si4 0.250000 0.130875 0.250000
Si Si5 0.152522 0.563781 0.815262
Si Si6 0.278259 0.329019 0.883159
Si Si7 0.069857 0.438053 0.000000
O O1 0.105932 0.807249 0.607029
O O2 0.096619 0.897647 0.674695
O O3 0.081819 0.901809 0.559821
O O4 0.000000 0.853858 0.623621
O O5 0.646849 0.272498 0.500000
O O6 0.671818 0.214142 0.400417
O O7 0.717975 0.307767 0.414417
O O8 0.734639 0.500000 0.074096
O O9 0.809673 0.434454 0.121032
O O10 0.713521 0.390162 0.089958
O O11 0.778340 0.428655 0.000000
O O12 0.195560 0.091537 0.266146
O O13 0.265604 0.166246 0.310348
O O14 0.138902 0.500000 0.802672
O O15 0.095959 0.500000 0.000000
O O16 0.000000 0.444960 0.000000
#
# Coordination Sequence:
#
# PCOD9511966 Si02
#       7
#    32  32  32  16  32  32  16
#     4  11  21  33  48  73 106 139 173 206 248 301
#     4  11  20  33  51  73 104 137 174 212 257 310
#     4   9  16  27  45  71 102 130 162 206 260 313
#     4  10  19  35  52  72  98 128 176 226 264 298
#     4  10  20  32  49  73 102 138 173 213 256 304
#     4  10  20  32  50  74  97 136 171 220 262 306
#     4   9  18  30  46  69 102 142 177 202 232 292
#
# _framework density 15.929729999999999
#
# number of rings (size 3 to 8) (size 9 to 14) (size 15 to 20)
#    0.000    1.917    4.167    2.750    1.167    3.000 
#    0.000    0.000    0.000    2.000    0.000    0.000 
#    0.000    0.667    0.000    3.500    0.000    0.000 
#
# Total GULP energy -267594.886503 kJ/mol
# GULP energy per Si atom -5574.893469 kJ/mol
# Density = 1.589347 g / cm^3
# Si number density = 15.929730 Si / 1000 Ang^3
#
#
#
# Elastic Constant Matrix: (Units=GPa)
#
#
# Indices 1 2 3 4 5 6 
#
# 1 87.2139 51.3842 10.0937 0.0000 0.0000 0.0000
# 2 51.3842 115.9941 16.4701 0.0000 0.0000 0.0000
# 3 10.0937 16.4701 40.5689 0.0000 0.0000 0.0000
# 4 0.0000 0.0000 0.0000 13.2998 0.0000 0.0000
# 5 0.0000 0.0000 0.0000 0.0000 17.6645 0.0000
# 6 0.0000 0.0000 0.0000 0.0000 0.0000 22.7847
#
#
#
# Elastic Compliance Matrix: (Units=1/GPa)
#
#
# Indices 1 2 3 4 5 6 
#
# 1 0.015565 -0.006733 -0.001139 0.000000 0.000000 0.000000
# 2 -0.006733 0.012061 -0.003221 0.000000 0.000000 0.000000
# 3 -0.001139 -0.003221 0.026241 0.000000 0.000000 0.000000
# 4 0.000000 0.000000 0.000000 0.075189 0.000000 0.000000
# 5 0.000000 0.000000 0.000000 0.000000 0.056611 0.000000
# 6 0.000000 0.000000 0.000000 0.000000 0.000000 0.043889
#
#
# Mechanical properties :
#
#
# Convention : Reuss Voigt Hill
#
# Bulk Modulus (GPa) = 31.56620 44.40809 37.98714
# Shear Modulus (GPa) = 19.06192 21.80507 20.43349
#
# Velocity S-wave (km/s) = 3.46298 3.70378 3.58540
# Velocity P-wave (km/s) = 5.98737 6.79917 6.40614
#
# Compressibility (1/GPa) = 0.03167946
#
# Stress axis : x y z
#
# Youngs Moduli (GPa) = 64.24645 82.90928 38.10884
#
# Poissons Ratio (x) = 0.55826 0.04341
# Poissons Ratio (y) = 0.43260 0.12276
# Poissons Ratio (z) = 0.07318 0.26708
#
# Static dielectric constant tensor:
#      x y z
#    x 1.514830 0.000000 0.000000 
#    y 0.000000 1.579210 0.000000 
#    z 0.000000 0.000000 1.547470 
# 
# From -- ./inp_files/37958.got.cif
#   From: 2010.05.17/outbox.cif.g08.bks.cpg/sg69_19_cif.got.tgz:37958.got - 2010.06.03 19:29:58.
