data_PCOD9511039
_publ_section_title
;
Structure prediction by ZEFSAII (Michael W. Deem and Ramdas Pophale) SiO2 
 PCOD9511039
Probable space group: F M M M
;
_chemical_formula_sum "Si O2"
_cell_formula_units_Z 144
_cell_length_a 8.368545
_cell_length_b 27.387475
_cell_length_c 29.220718
_cell_angle_alpha 90.000000
_cell_angle_beta 90.000000
_cell_angle_gamma 90.000000
_cell_volume 6697.193283
_symmetry_space_group_name_H-M "F M M M"
_symmetry_group_IT_number 69
_symmetry_cell_setting 'orthorhombic'
loop_
_space_group_symop_operation_xyz
x,y,z
-x,-y,z
x,-y,-z
-x,y,-z
-x,-y,-z
x,y,-z
-x,y,z
x,-y,z
x,1/2+y,1/2+z
-x,1/2-y,1/2+z
x,1/2-y,1/2-z
-x,1/2+y,1/2-z
-x,1/2-y,1/2-z
x,1/2+y,1/2-z
-x,1/2+y,1/2+z
x,1/2-y,1/2+z
1/2+x,y,1/2+z
1/2-x,-y,1/2+z
1/2+x,-y,1/2-z
1/2-x,y,1/2-z
1/2-x,-y,1/2-z
1/2+x,y,1/2-z
1/2-x,y,1/2+z
1/2+x,-y,1/2+z
1/2+x,1/2+y,z
1/2-x,1/2-y,z
1/2+x,1/2-y,-z
1/2-x,1/2+y,-z
1/2-x,1/2-y,-z
1/2+x,1/2+y,-z
1/2-x,1/2+y,z
1/2+x,1/2-y,z
loop_
_atom_site_type_symbol
_atom_site_label
_atom_site_fract_x
_atom_site_fract_y
_atom_site_fract_z
Si Si1 0.687326 0.402352 0.598576
Si Si2 0.689851 0.299705 0.911311
Si Si3 0.184451 0.500000 0.554520
Si Si4 0.317112 0.595826 0.798480
Si Si5 0.314612 0.801865 0.190161
O O1 0.500000 0.392160 0.596319
O O2 0.777902 0.356055 0.575076
O O3 0.731676 0.451641 0.572920
O O4 0.731604 0.411870 0.652473
O O5 0.500000 0.294893 0.903032
O O6 0.750000 0.250000 0.936456
O O7 0.793303 0.299914 0.864642
O O8 0.187278 0.500000 0.500000
O O9 0.000000 0.500000 0.570319
O O10 0.500000 0.581053 0.803036
O O11 0.250000 0.575835 0.750000
O O12 0.299267 0.654489 0.794541
O O13 0.500000 0.810458 0.201449
O O14 0.250000 0.750000 0.205257
#
# Coordination Sequence:
#
# PCOD9511039 Si02
#       5
#    32  32  16  32  32
#     4  11  22  39  63  93 127 164 207 255 308 364
#     4  10  17  29  51  82 120 163 207 251 302 360
#     4  11  25  47  74 101 126 155 195 247 307 367
#     4  11  21  35  53  78 114 158 205 251 301 356
#     4  10  17  27  42  66 102 149 203 255 303 350
#
# _framework density 21.501545
#
# number of rings (size 3 to 8) (size 9 to 14) (size 15 to 20)
#    0.000    1.444    0.000   12.333    0.000    1.333 
#    0.000    2.778    0.000    0.667    0.000    0.000 
#    0.000    0.000    0.000    0.000    0.000    0.000 
#
# Total GULP energy -200735.446786 kJ/mol
# GULP energy per Si atom -5575.984633 kJ/mol
# Density = 2.145261 g / cm^3
# Si number density = 21.501545 Si / 1000 Ang^3
#
#
#
# Elastic Constant Matrix: (Units=GPa)
#
#
# Indices 1 2 3 4 5 6 
#
# 1 159.2574 28.5103 13.0322 0.0000 0.0000 0.0000
# 2 28.5103 120.4253 29.8792 0.0000 0.0000 0.0000
# 3 13.0322 29.8792 31.5410 0.0000 0.0000 0.0000
# 4 0.0000 0.0000 0.0000 -45.5965 0.0000 0.0000
# 5 0.0000 0.0000 0.0000 0.0000 10.8103 0.0000
# 6 0.0000 0.0000 0.0000 0.0000 0.0000 117.8356
#
#
#
# Elastic Compliance Matrix: (Units=1/GPa)
#
#
# Indices 1 2 3 4 5 6 
#
# 1 0.006621 -0.001162 -0.001635 0.000000 0.000000 0.000000
# 2 -0.001162 0.011059 -0.009997 0.000000 0.000000 0.000000
# 3 -0.001635 -0.009997 0.041850 0.000000 0.000000 0.000000
# 4 0.000000 0.000000 0.000000 -0.021932 0.000000 0.000000
# 5 0.000000 0.000000 0.000000 0.000000 0.092504 0.000000
# 6 0.000000 0.000000 0.000000 0.000000 0.000000 0.008486
#
#
# Mechanical properties :
#
#
# Convention : Reuss Voigt Hill
#
# Bulk Modulus (GPa) = 29.46063 50.45191 39.95627
# Shear Modulus (GPa) = 28.49153 32.59669 30.54411
#
# Velocity S-wave (km/s) = 3.64413 3.89783 3.77311
# Velocity P-wave (km/s) = 5.60693 6.61609 6.13230
#
# Compressibility (1/GPa) = 0.03394361
#
# Stress axis : x y z
#
# Youngs Moduli (GPa) = 151.03618 90.42214 23.89472
#
# Poissons Ratio (x) = 0.10505 0.03907
# Poissons Ratio (y) = 0.17547 0.23886
# Poissons Ratio (z) = 0.24695 0.90391
#
# Static dielectric constant tensor:
#      x y z
#    x 1.723130 0.000000 0.000000 
#    y 0.000000 1.842300 0.000000 
#    z 0.000000 0.000000 1.853100 
# 
# From -- ./inp_files/44531.got.cif
#   From: 2010.05.17/outbox.cif.g08.bks.cpg/sg69_23_cif.got.tgz:44531.got - 2010.06.03 19:29:58.
