data_PCOD9511291
_publ_section_title
;
Structure prediction by ZEFSAII (Michael W. Deem and Ramdas Pophale) SiO2 
 PCOD9511291
Probable space group: F M M M
;
_chemical_formula_sum "Si O2"
_cell_formula_units_Z 160
_cell_length_a 22.111725
_cell_length_b 20.399662
_cell_length_c 18.680716
_cell_angle_alpha 90.000000
_cell_angle_beta 90.000000
_cell_angle_gamma 90.000000
_cell_volume 8426.342627
_symmetry_space_group_name_H-M "F M M M"
_symmetry_group_IT_number 69
_symmetry_cell_setting 'orthorhombic'
loop_
_space_group_symop_operation_xyz
x,y,z
-x,-y,z
x,-y,-z
-x,y,-z
-x,-y,-z
x,y,-z
-x,y,z
x,-y,z
x,1/2+y,1/2+z
-x,1/2-y,1/2+z
x,1/2-y,1/2-z
-x,1/2+y,1/2-z
-x,1/2-y,1/2-z
x,1/2+y,1/2-z
-x,1/2+y,1/2+z
x,1/2-y,1/2+z
1/2+x,y,1/2+z
1/2-x,-y,1/2+z
1/2+x,-y,1/2-z
1/2-x,y,1/2-z
1/2-x,-y,1/2-z
1/2+x,y,1/2-z
1/2-x,y,1/2+z
1/2+x,-y,1/2+z
1/2+x,1/2+y,z
1/2-x,1/2-y,z
1/2+x,1/2-y,-z
1/2-x,1/2+y,-z
1/2-x,1/2-y,-z
1/2+x,1/2+y,-z
1/2-x,1/2+y,z
1/2+x,1/2-y,z
loop_
_atom_site_type_symbol
_atom_site_label
_atom_site_fract_x
_atom_site_fract_y
_atom_site_fract_z
Si Si1 0.387200 0.274769 0.582391
Si Si2 0.713004 0.000000 0.081572
Si Si3 0.229034 0.859000 0.414383
Si Si4 0.933983 0.674652 0.223052
Si Si5 0.639648 0.000000 0.418026
Si Si6 0.639428 0.138353 0.648367
O O1 0.404747 0.282847 0.500000
O O2 0.317767 0.299643 0.590114
O O3 0.423051 0.319083 0.638764
O O4 0.391224 0.199066 0.606287
O O5 0.697506 0.072312 0.109574
O O6 0.786565 0.000000 0.082725
O O7 0.690881 0.000000 0.000000
O O8 0.245663 0.865530 0.500000
O O9 0.289444 0.852372 0.368120
O O10 0.934533 0.750000 0.250000
O O11 0.880778 0.642780 0.269322
O O12 0.000000 0.645670 0.239008
O O13 0.621017 0.932484 0.381220
O O14 0.620205 0.000000 0.500000
#
# Coordination Sequence:
#
# PCOD9511291 Si02
#       6
#    32  16  32  32  16  32
#     4  10  19  31  52  80 105 133 171 213 255 301
#     4   7  12  24  41  65 102 139 163 191 237 296
#     4   9  16  27  47  77 108 135 165 204 254 308
#     4   9  20  37  52  68  95 133 175 215 255 299
#     4   9  16  28  50  78 105 138 172 201 250 315
#     4  10  18  31  52  76 108 139 165 205 258 311
#
# _framework density 18.988071999999999
#
# number of rings (size 3 to 8) (size 9 to 14) (size 15 to 20)
#    0.000    2.800    0.000    3.600    0.000    2.800 
#    0.000    4.500    0.000    9.000    0.000    0.000 
#    0.000    5.600    0.000    0.000    0.000    0.000 
#
# Total GULP energy -222686.197057 kJ/mol
# GULP energy per Si atom -5567.154926 kJ/mol
# Density = 1.894485 g / cm^3
# Si number density = 18.988072 Si / 1000 Ang^3
#
#
#
# Elastic Constant Matrix: (Units=GPa)
#
#
# Indices 1 2 3 4 5 6 
#
# 1 39.9262 8.6449 27.4086 0.0000 0.0000 0.0000
# 2 8.6449 107.2217 38.8144 0.0000 0.0000 0.0000
# 3 27.4086 38.8144 108.7566 0.0000 0.0000 0.0000
# 4 0.0000 0.0000 0.0000 24.0128 0.0000 0.0000
# 5 0.0000 0.0000 0.0000 0.0000 507.2410 0.0000
# 6 0.0000 0.0000 0.0000 0.0000 0.0000 4.9396
#
#
#
# Elastic Compliance Matrix: (Units=1/GPa)
#
#
# Indices 1 2 3 4 5 6 
#
# 1 0.030299 0.000369 -0.007767 0.000000 0.000000 0.000000
# 2 0.000369 0.010715 -0.003917 0.000000 0.000000 0.000000
# 3 -0.007767 -0.003917 0.012550 0.000000 0.000000 0.000000
# 4 0.000000 0.000000 0.000000 0.041644 0.000000 0.000000
# 5 0.000000 0.000000 0.000000 0.000000 0.001971 0.000000
# 6 0.000000 0.000000 0.000000 0.000000 0.000000 0.202446
#
#
# Mechanical properties :
#
#
# Convention : Reuss Voigt Hill
#
# Bulk Modulus (GPa) = 32.32832 45.07113 38.69972
# Shear Modulus (GPa) = 15.03455 119.30778 67.17117
#
# Velocity S-wave (km/s) = 2.81693 7.93533 5.95418
# Velocity P-wave (km/s) = 5.25763 10.38014 8.22770
#
# Compressibility (1/GPa) = 0.03093263
#
# Stress axis : x y z
#
# Youngs Moduli (GPa) = 33.00487 93.32998 79.67927
#
# Poissons Ratio (x) = -0.03444 0.61891
# Poissons Ratio (y) = -0.01218 0.31210
# Poissons Ratio (z) = 0.25636 0.36557
#
# Static dielectric constant tensor:
#      x y z
#    x 1.663910 0.000000 0.000000 
#    y 0.000000 1.693500 0.000000 
#    z 0.000000 0.000000 1.674060 
# 
# From -- ./inp_files/24664.got.cif
#   From: 2010.05.17/outbox.cif.g08.bks.cpg/sg69_13_cif.got.tgz:24664.got - 2010.06.03 19:29:58.
