data_PCOD9511684
_publ_section_title
;
Structure prediction by ZEFSAII (Michael W. Deem and Ramdas Pophale) SiO2 
 PCOD9511684
Probable space group: F M M M
;
_chemical_formula_sum "Si O2"
_cell_formula_units_Z 192
_cell_length_a 29.413638
_cell_length_b 20.497935
_cell_length_c 18.225819
_cell_angle_alpha 90.000000
_cell_angle_beta 90.000000
_cell_angle_gamma 90.000000
_cell_volume 10988.689647
_symmetry_space_group_name_H-M "F M M M"
_symmetry_group_IT_number 69
_symmetry_cell_setting 'orthorhombic'
loop_
_space_group_symop_operation_xyz
x,y,z
-x,-y,z
x,-y,-z
-x,y,-z
-x,-y,-z
x,y,-z
-x,y,z
x,-y,z
x,1/2+y,1/2+z
-x,1/2-y,1/2+z
x,1/2-y,1/2-z
-x,1/2+y,1/2-z
-x,1/2-y,1/2-z
x,1/2+y,1/2-z
-x,1/2+y,1/2+z
x,1/2-y,1/2+z
1/2+x,y,1/2+z
1/2-x,-y,1/2+z
1/2+x,-y,1/2-z
1/2-x,y,1/2-z
1/2-x,-y,1/2-z
1/2+x,y,1/2-z
1/2-x,y,1/2+z
1/2+x,-y,1/2+z
1/2+x,1/2+y,z
1/2-x,1/2-y,z
1/2+x,1/2-y,-z
1/2-x,1/2+y,-z
1/2-x,1/2-y,-z
1/2+x,1/2+y,-z
1/2-x,1/2+y,z
1/2+x,1/2-y,z
loop_
_atom_site_type_symbol
_atom_site_label
_atom_site_fract_x
_atom_site_fract_y
_atom_site_fract_z
Si Si1 0.824734 0.500000 0.084965
Si Si2 0.125562 0.324915 0.277836
Si Si3 0.291235 0.602959 0.295865
Si Si4 0.886426 0.751370 0.416461
Si Si5 0.284481 0.308583 0.578919
Si Si6 0.447423 0.639856 0.660657
Si Si7 0.433114 0.000000 0.915689
O O1 0.810678 0.440194 0.137348
O O2 0.878766 0.500000 0.080619
O O3 0.807887 0.500000 0.000000
O O4 0.133081 0.250000 0.250000
O O5 0.168577 0.369147 0.255307
O O6 0.115355 0.310878 0.362764
O O7 0.082581 0.354798 0.234570
O O8 0.250000 0.573042 0.250000
O O9 0.270203 0.660197 0.344568
O O10 0.895288 0.732951 0.500000
O O11 0.836577 0.785149 0.413211
O O12 0.922531 0.806197 0.390569
O O13 0.282188 0.345741 0.500000
O O14 0.250000 0.250000 0.571161
O O15 0.500000 0.657136 0.672626
O O16 0.445836 0.567338 0.625443
O O17 0.449733 0.000000 0.000000
#
# Coordination Sequence:
#
# PCOD9511684 Si02
#       7
#    16  32  32  32  32  32  16
#     4  11  23  42  59  79 114 155 184 229 288 338
#     4  10  20  36  53  80 113 146 187 229 275 336
#     4  12  22  34  58  82 111 147 191 229 275 330
#     4  10  20  35  53  78 115 151 183 227 280 333
#     4  10  19  32  52  80 110 144 186 230 275 321
#     4  11  22  36  56  82 114 148 185 232 284 339
#     4  11  21  37  60  82 111 146 187 235 280 332
#
# _framework density 17.472511000000001
#
# number of rings (size 3 to 8) (size 9 to 14) (size 15 to 20)
#    0.000    1.333    5.000    2.500    0.000    7.333 
#    0.000    0.833    0.000    0.000    0.000    1.750 
#    0.000    1.333    0.000    0.000    0.000    0.000 
#
# Total GULP energy -267328.466016 kJ/mol
# GULP energy per Si atom -5569.343042 kJ/mol
# Density = 1.743274 g / cm^3
# Si number density = 17.472511 Si / 1000 Ang^3
#
#
#
# Elastic Constant Matrix: (Units=GPa)
#
#
# Indices 1 2 3 4 5 6 
#
# 1 121.2753 32.2788 36.7986 0.0000 0.0000 0.0000
# 2 32.2788 69.6128 44.8993 0.0000 0.0000 0.0000
# 3 36.7986 44.8993 146.0764 0.0000 0.0000 0.0000
# 4 0.0000 0.0000 0.0000 821.1417 0.0000 0.0000
# 5 0.0000 0.0000 0.0000 0.0000 16.2984 0.0000
# 6 0.0000 0.0000 0.0000 0.0000 0.0000 17.6419
#
#
#
# Elastic Compliance Matrix: (Units=1/GPa)
#
#
# Indices 1 2 3 4 5 6 
#
# 1 0.009604 -0.003608 -0.001310 0.000000 0.000000 0.000000
# 2 -0.003608 0.019273 -0.005015 0.000000 0.000000 0.000000
# 3 -0.001310 -0.005015 0.008717 0.000000 0.000000 0.000000
# 4 0.000000 0.000000 0.000000 0.001218 0.000000 0.000000
# 5 0.000000 0.000000 0.000000 0.000000 0.061356 0.000000
# 6 0.000000 0.000000 0.000000 0.000000 0.000000 0.056683
#
#
# Mechanical properties :
#
#
# Convention : Reuss Voigt Hill
#
# Bulk Modulus (GPa) = 56.41063 62.76866 59.58965
# Shear Modulus (GPa) = 27.37838 185.88224 106.63031
#
# Velocity S-wave (km/s) = 3.96275 10.32553 7.82048
# Velocity P-wave (km/s) = 7.30023 13.34757 10.75758
#
# Compressibility (1/GPa) = 0.01772715
#
# Stress axis : x y z
#
# Youngs Moduli (GPa) = 104.12772 51.88679 114.71506
#
# Poissons Ratio (x) = 0.18721 0.15031
# Poissons Ratio (y) = 0.37569 0.57529
# Poissons Ratio (z) = 0.13644 0.26021
#
# Static dielectric constant tensor:
#      x y z
#    x 1.583290 0.000000 0.000000 
#    y 0.000000 1.705790 0.000000 
#    z 0.000000 0.000000 1.641330 
# 
# From -- ./inp_files/27759.got.cif
#   From: 2010.05.17/outbox.cif.g08.bks.cpg/sg69_14_cif.got.tgz:27759.got - 2010.06.03 19:29:58.
