data_PCOD9511772
_publ_section_title
;
Structure prediction by ZEFSAII (Michael W. Deem and Ramdas Pophale) SiO2 
 PCOD9511772
Probable space group: F M M M
;
_chemical_formula_sum "Si O2"
_cell_formula_units_Z 208
_cell_length_a 25.763149
_cell_length_b 28.794844
_cell_length_c 16.779571
_cell_angle_alpha 90.000000
_cell_angle_beta 90.000000
_cell_angle_gamma 90.000000
_cell_volume 12447.855219
_symmetry_space_group_name_H-M "F M M M"
_symmetry_group_IT_number 69
_symmetry_cell_setting 'orthorhombic'
loop_
_space_group_symop_operation_xyz
x,y,z
-x,-y,z
x,-y,-z
-x,y,-z
-x,-y,-z
x,y,-z
-x,y,z
x,-y,z
x,1/2+y,1/2+z
-x,1/2-y,1/2+z
x,1/2-y,1/2-z
-x,1/2+y,1/2-z
-x,1/2-y,1/2-z
x,1/2+y,1/2-z
-x,1/2+y,1/2+z
x,1/2-y,1/2+z
1/2+x,y,1/2+z
1/2-x,-y,1/2+z
1/2+x,-y,1/2-z
1/2-x,y,1/2-z
1/2-x,-y,1/2-z
1/2+x,y,1/2-z
1/2-x,y,1/2+z
1/2+x,-y,1/2+z
1/2+x,1/2+y,z
1/2-x,1/2-y,z
1/2+x,1/2-y,-z
1/2-x,1/2+y,-z
1/2-x,1/2-y,-z
1/2+x,1/2+y,-z
1/2-x,1/2+y,z
1/2+x,1/2-y,z
loop_
_atom_site_type_symbol
_atom_site_label
_atom_site_fract_x
_atom_site_fract_y
_atom_site_fract_z
Si Si1 0.438205 0.947090 0.182409
Si Si2 0.225836 0.800906 0.412733
Si Si3 0.132916 0.800335 0.287666
Si Si4 0.559486 0.556396 0.000000
Si Si5 0.937775 0.854683 0.408447
Si Si6 0.203575 0.866557 0.185602
Si Si7 0.373947 0.445165 0.845664
O O1 0.500000 0.943556 0.199337
O O2 0.424833 0.907433 0.118723
O O3 0.406397 0.939593 0.263765
O O4 0.428294 0.000000 0.154846
O O5 0.206280 0.814100 0.500000
O O6 0.250000 0.750000 0.416031
O O7 0.180590 0.796943 0.348950
O O8 0.268922 0.837233 0.383618
O O9 0.121384 0.750000 0.250000
O O10 0.087215 0.821987 0.340988
O O11 0.156513 0.835622 0.222069
O O12 0.590638 0.569858 0.079468
O O13 0.557321 0.500000 0.000000
O O14 0.500000 0.573179 0.000000
O O15 0.921061 0.845811 0.500000
O O16 0.000000 0.850054 0.406525
O O17 0.250000 0.873464 0.250000
O O18 0.177572 0.914420 0.159286
O O19 0.362665 0.500000 0.854603
#
# Coordination Sequence:
#
# PCOD9511772 Si02
#       7
#    32  32  32  16  32  32  32
#     4   9  17  31  53  79 106 138 181 229 273 321
#     4  10  20  34  55  81 104 130 171 224 272 309
#     4  11  20  36  56  78 105 138 176 223 272 320
#     4   9  18  32  54  82 111 144 184 228 266 315
#     4  10  21  36  55  80 109 142 181 222 274 337
#     4  10  21  34  53  79 105 137 178 225 267 319
#     4  10  19  33  53  79 111 147 182 217 270 330
#
# _framework density 16.709705
#
# number of rings (size 3 to 8) (size 9 to 14) (size 15 to 20)
#    0.000    2.077    3.077    0.923    1.077    2.769 
#    0.000    1.538    0.000    0.000    0.000    0.000 
#    0.000    0.000    0.000    0.000    0.000    0.000 
#
# Total GULP energy -289766.333681 kJ/mol
# GULP energy per Si atom -5572.429494 kJ/mol
# Density = 1.667167 g / cm^3
# Si number density = 16.709705 Si / 1000 Ang^3
#
#
#
# Elastic Constant Matrix: (Units=GPa)
#
#
# Indices 1 2 3 4 5 6 
#
# 1 57.3725 46.0648 27.3559 0.0000 0.0000 0.0000
# 2 46.0648 96.3511 44.7856 0.0000 0.0000 0.0000
# 3 27.3559 44.7856 76.8826 0.0000 0.0000 0.0000
# 4 0.0000 0.0000 0.0000 24.7938 0.0000 0.0000
# 5 0.0000 0.0000 0.0000 0.0000 15.9020 0.0000
# 6 0.0000 0.0000 0.0000 0.0000 0.0000 31.1753
#
#
#
# Elastic Compliance Matrix: (Units=1/GPa)
#
#
# Indices 1 2 3 4 5 6 
#
# 1 0.028803 -0.012351 -0.003054 0.000000 0.000000 0.000000
# 2 -0.012351 0.019529 -0.006981 0.000000 0.000000 0.000000
# 3 -0.003054 -0.006981 0.018160 0.000000 0.000000 0.000000
# 4 0.000000 0.000000 0.000000 0.040333 0.000000 0.000000
# 5 0.000000 0.000000 0.000000 0.000000 0.062885 0.000000
# 6 0.000000 0.000000 0.000000 0.000000 0.000000 0.032077
#
#
# Mechanical properties :
#
#
# Convention : Reuss Voigt Hill
#
# Bulk Modulus (GPa) = 46.04123 51.89099 48.96611
# Shear Modulus (GPa) = 19.70079 21.86756 20.78418
#
# Velocity S-wave (km/s) = 3.43739 3.62148 3.53064
# Velocity P-wave (km/s) = 6.58541 6.97199 6.78145
#
# Compressibility (1/GPa) = 0.02171966
#
# Stress axis : x y z
#
# Youngs Moduli (GPa) = 34.71909 51.20715 55.06593
#
# Poissons Ratio (x) = 0.63245 0.16816
# Poissons Ratio (y) = 0.42881 0.38442
# Poissons Ratio (z) = 0.10602 0.35748
#
# Static dielectric constant tensor:
#      x y z
#    x 1.550170 0.000000 0.000000 
#    y 0.000000 1.569590 0.000000 
#    z 0.000000 0.000000 1.567240 
# 
# From -- ./inp_files/25197.got.cif
#   From: 2010.05.17/outbox.cif.g08.bks.cpg/sg69_13_cif.got.tgz:25197.got - 2010.06.03 19:29:58.
