data_PCOD9511465
_publ_section_title
;
Structure prediction by ZEFSAII (Michael W. Deem and Ramdas Pophale) SiO2 
 PCOD9511465
Probable space group: F M M M
;
_chemical_formula_sum "Si O2"
_cell_formula_units_Z 192
_cell_length_a 19.895069
_cell_length_b 30.259271
_cell_length_c 14.258542
_cell_angle_alpha 90.000000
_cell_angle_beta 90.000000
_cell_angle_gamma 90.000000
_cell_volume 8583.788925
_symmetry_space_group_name_H-M "F M M M"
_symmetry_group_IT_number 69
_symmetry_cell_setting 'orthorhombic'
loop_
_space_group_symop_operation_xyz
x,y,z
-x,-y,z
x,-y,-z
-x,y,-z
-x,-y,-z
x,y,-z
-x,y,z
x,-y,z
x,1/2+y,1/2+z
-x,1/2-y,1/2+z
x,1/2-y,1/2-z
-x,1/2+y,1/2-z
-x,1/2-y,1/2-z
x,1/2+y,1/2-z
-x,1/2+y,1/2+z
x,1/2-y,1/2+z
1/2+x,y,1/2+z
1/2-x,-y,1/2+z
1/2+x,-y,1/2-z
1/2-x,y,1/2-z
1/2-x,-y,1/2-z
1/2+x,y,1/2-z
1/2-x,y,1/2+z
1/2+x,-y,1/2+z
1/2+x,1/2+y,z
1/2-x,1/2-y,z
1/2+x,1/2-y,-z
1/2-x,1/2+y,-z
1/2-x,1/2-y,-z
1/2+x,1/2+y,-z
1/2-x,1/2+y,z
1/2+x,1/2-y,z
loop_
_atom_site_type_symbol
_atom_site_label
_atom_site_fract_x
_atom_site_fract_y
_atom_site_fract_z
Si Si1 0.861429 0.680128 0.387067
Si Si2 0.574048 0.271202 0.386013
Si Si3 0.787935 0.187672 0.606412
Si Si4 0.405249 0.000000 0.394067
Si Si5 0.423353 0.093648 0.708066
Si Si6 0.697840 0.090269 0.838419
Si Si7 0.749067 0.500000 0.364078
O O1 0.856119 0.676125 0.500000
O O2 0.913147 0.719510 0.366615
O O3 0.786790 0.695268 0.352740
O O4 0.886640 0.633236 0.348487
O O5 0.573212 0.276710 0.500000
O O6 0.500000 0.285186 0.351944
O O7 0.641648 0.295566 0.350496
O O8 0.786897 0.205468 0.500000
O O9 0.792829 0.134860 0.605528
O O10 0.423815 0.046101 0.344105
O O11 0.429610 0.000000 0.500000
O O12 0.324961 0.000000 0.395213
O O13 0.500000 0.106263 0.726818
O O14 0.377027 0.087602 0.798558
O O15 0.750000 0.093252 0.750000
O O16 0.714622 0.045410 0.891250
O O17 0.750000 0.500000 0.250000
#
# Coordination Sequence:
#
# PCOD9511465 Si02
#       7
#    32  32  32  16  32  32  16
#     4  10  19  34  56  83 114 153 193 233 286 355
#     4   9  18  33  54  81 114 149 188 241 297 343
#     4  10  20  35  60  87 110 144 197 246 288 338
#     4  12  23  37  60  92 124 154 193 238 285 342
#     4  12  24  37  56  85 120 159 192 230 290 354
#     4  11  20  39  61  79 114 156 192 232 280 340
#     4  10  18  38  62  79 109 157 194 225 273 334
#
# _framework density 22.367744999999999
#
# number of rings (size 3 to 8) (size 9 to 14) (size 15 to 20)
#    0.000    1.500    5.000    1.750    0.000    7.000 
#    0.000    0.833    0.000    2.000    0.000    0.000 
#    0.000    6.000    0.000    0.000    0.000    0.000 
#
# Total GULP energy -268227.413343 kJ/mol
# GULP energy per Si atom -5588.071111 kJ/mol
# Density = 2.231684 g / cm^3
# Si number density = 22.367745 Si / 1000 Ang^3
#
#
#
# Elastic Constant Matrix: (Units=GPa)
#
#
# Indices 1 2 3 4 5 6 
#
# 1 221.4500 43.9025 27.0883 0.0000 0.0000 0.0000
# 2 43.9025 120.2680 0.1204 0.0000 0.0000 0.0000
# 3 27.0883 0.1204 51.7271 0.0000 0.0000 0.0000
# 4 0.0000 0.0000 0.0000 -8.3318 0.0000 0.0000
# 5 0.0000 0.0000 0.0000 0.0000 171.1839 0.0000
# 6 0.0000 0.0000 0.0000 0.0000 0.0000 115.6768
#
#
#
# Elastic Compliance Matrix: (Units=1/GPa)
#
#
# Indices 1 2 3 4 5 6 
#
# 1 0.005228 -0.001906 -0.002733 0.000000 0.000000 0.000000
# 2 -0.001906 0.009009 0.000977 0.000000 0.000000 0.000000
# 3 -0.002733 0.000977 0.020761 0.000000 0.000000 0.000000
# 4 0.000000 0.000000 0.000000 -0.120022 0.000000 0.000000
# 5 0.000000 0.000000 0.000000 0.000000 0.005842 0.000000
# 6 0.000000 0.000000 0.000000 0.000000 0.000000 0.008645
#
#
# Mechanical properties :
#
#
# Convention : Reuss Voigt Hill
#
# Bulk Modulus (GPa) = 36.13409 59.51862 47.82636
# Shear Modulus (GPa) = -92.61222 77.19471 -7.70876
#
# Velocity S-wave (km/s) = -6.44160 5.88103 -1.85845
# Velocity P-wave (km/s) = 6.25588 8.53125 4.10160
#
# Compressibility (1/GPa) = 0.02767470
#
# Stress axis : x y z
#
# Youngs Moduli (GPa) = 191.28428 110.99501 48.16654
#
# Poissons Ratio (x) = 0.21151 0.13165
# Poissons Ratio (y) = 0.36452 -0.04706
# Poissons Ratio (z) = 0.52283 -0.10844
#
# Static dielectric constant tensor:
#      x y z
#    x 1.827860 0.000000 0.000000 
#    y 0.000000 1.821590 0.000000 
#    z 0.000000 0.000000 1.819870 
# 
# From -- ./inp_files/23685.got.cif
#   From: 2010.05.17/outbox.cif.g08.bks.cpg/sg69_12_cif.got.tgz:23685.got - 2010.06.03 19:29:58.
