data_PCOD9511045
_publ_section_title
;
Structure prediction by ZEFSAII (Michael W. Deem and Ramdas Pophale) SiO2 
 PCOD9511045
Probable space group: F M M M
;
_chemical_formula_sum "Si O2"
_cell_formula_units_Z 192
_cell_length_a 25.506553
_cell_length_b 24.229687
_cell_length_c 19.023386
_cell_angle_alpha 90.000000
_cell_angle_beta 90.000000
_cell_angle_gamma 90.000000
_cell_volume 11756.753035
_symmetry_space_group_name_H-M "F M M M"
_symmetry_group_IT_number 69
_symmetry_cell_setting 'orthorhombic'
loop_
_space_group_symop_operation_xyz
x,y,z
-x,-y,z
x,-y,-z
-x,y,-z
-x,-y,-z
x,y,-z
-x,y,z
x,-y,z
x,1/2+y,1/2+z
-x,1/2-y,1/2+z
x,1/2-y,1/2-z
-x,1/2+y,1/2-z
-x,1/2-y,1/2-z
x,1/2+y,1/2-z
-x,1/2+y,1/2+z
x,1/2-y,1/2+z
1/2+x,y,1/2+z
1/2-x,-y,1/2+z
1/2+x,-y,1/2-z
1/2-x,y,1/2-z
1/2-x,-y,1/2-z
1/2+x,y,1/2-z
1/2-x,y,1/2+z
1/2+x,-y,1/2+z
1/2+x,1/2+y,z
1/2-x,1/2-y,z
1/2+x,1/2-y,-z
1/2-x,1/2+y,-z
1/2-x,1/2-y,-z
1/2+x,1/2+y,-z
1/2-x,1/2+y,z
1/2+x,1/2-y,z
loop_
_atom_site_type_symbol
_atom_site_label
_atom_site_fract_x
_atom_site_fract_y
_atom_site_fract_z
Si Si1 0.679295 0.500000 0.174492
Si Si2 0.654120 0.116059 0.149624
Si Si3 0.937938 0.284271 0.680342
Si Si4 0.698642 0.000000 0.844070
Si Si5 0.643426 0.120555 0.319060
Si Si6 0.253311 0.686840 0.164552
Si Si7 0.439974 0.318792 0.583614
O O1 0.689561 0.500000 0.259130
O O2 0.738641 0.500000 0.144010
O O3 0.648950 0.443157 0.156810
O O4 0.670980 0.054818 0.128352
O O5 0.647835 0.117748 0.234171
O O6 0.703520 0.155102 0.134370
O O7 0.601808 0.138888 0.114839
O O8 0.919500 0.250000 0.750000
O O9 0.906948 0.340928 0.668437
O O10 0.929852 0.241268 0.617164
O O11 0.000000 0.294714 0.689115
O O12 0.693029 0.154393 0.349594
O O13 0.250000 0.686568 0.250000
O O14 0.250000 0.750000 0.141602
O O15 0.436176 0.316876 0.500000
O O16 0.500000 0.333576 0.603353
#
# Coordination Sequence:
#
# PCOD9511045 Si02
#       7
#    16  32  32  16  32  32  32
#     4   9  16  28  43  73 109 134 164 212 258 309
#     4  10  17  29  47  69 101 135 172 213 256 306
#     4  10  19  32  52  76 102 135 175 216 265 318
#     4   9  16  28  44  70 101 137 171 207 256 302
#     4  10  17  27  47  75 105 133 166 211 261 308
#     4   9  16  22  39  70  99 124 160 206 255 307
#     4  10  21  36  53  74 103 139 176 217 264 314
#
# _framework density 16.331039000000001
#
# number of rings (size 3 to 8) (size 9 to 14) (size 15 to 20)
#    0.000    2.333    3.333    1.000    2.333    0.000 
#    0.000    1.250    0.000    8.500    0.000    0.583 
#    0.000    2.667    0.000    0.000    0.000    0.000 
#
# Total GULP energy -267383.738915 kJ/mol
# GULP energy per Si atom -5570.494561 kJ/mol
# Density = 1.629387 g / cm^3
# Si number density = 16.331039 Si / 1000 Ang^3
#
#
#
# Elastic Constant Matrix: (Units=GPa)
#
#
# Indices 1 2 3 4 5 6 
#
# 1 109.8527 93.7483 25.7585 0.0000 0.0000 0.0000
# 2 93.7483 182.9865 22.8668 0.0000 0.0000 0.0000
# 3 25.7585 22.8668 20.2696 0.0000 0.0000 0.0000
# 4 0.0000 0.0000 0.0000 8.1422 0.0000 0.0000
# 5 0.0000 0.0000 0.0000 0.0000 11.1553 0.0000
# 6 0.0000 0.0000 0.0000 0.0000 0.0000 17.1134
#
#
#
# Elastic Compliance Matrix: (Units=1/GPa)
#
#
# Indices 1 2 3 4 5 6 
#
# 1 0.019803 -0.008150 -0.015972 0.000000 0.000000 0.000000
# 2 -0.008150 0.009716 -0.000604 0.000000 0.000000 0.000000
# 3 -0.015972 -0.000604 0.070313 0.000000 0.000000 0.000000
# 4 0.000000 0.000000 0.000000 0.122817 0.000000 0.000000
# 5 0.000000 0.000000 0.000000 0.000000 0.089643 0.000000
# 6 0.000000 0.000000 0.000000 0.000000 0.000000 0.058434
#
#
# Mechanical properties :
#
#
# Convention : Reuss Voigt Hill
#
# Bulk Modulus (GPa) = 19.84868 66.42843 43.13855
# Shear Modulus (GPa) = 11.44241 18.66453 15.05347
#
# Velocity S-wave (km/s) = 2.64986 3.38433 3.03936
# Velocity P-wave (km/s) = 4.64141 7.48572 6.22811
#
# Compressibility (1/GPa) = 0.05038119
#
# Stress axis : x y z
#
# Youngs Moduli (GPa) = 50.49701 102.92676 14.22207
#
# Poissons Ratio (x) = 0.83882 0.22715
# Poissons Ratio (y) = 0.41154 0.00859
# Poissons Ratio (z) = 0.80653 0.06216
#
# Static dielectric constant tensor:
#      x y z
#    x 1.551310 0.000000 0.000000 
#    y 0.000000 1.553940 0.000000 
#    z 0.000000 0.000000 1.538820 
# 
# From -- ./inp_files/32926.got.cif
#   From: 2010.05.17/outbox.cif.g08.bks.cpg/sg69_17_cif.got.tgz:32926.got - 2010.06.03 19:29:58.
