data_PCOD9511425
_publ_section_title
;
Structure prediction by ZEFSAII (Michael W. Deem and Ramdas Pophale) SiO2 
 PCOD9511425
Probable space group: F M M M
;
_chemical_formula_sum "Si O2"
_cell_formula_units_Z 168
_cell_length_a 20.275510
_cell_length_b 28.601882
_cell_length_c 14.780748
_cell_angle_alpha 90.000000
_cell_angle_beta 90.000000
_cell_angle_gamma 90.000000
_cell_volume 8571.618042
_symmetry_space_group_name_H-M "F M M M"
_symmetry_group_IT_number 69
_symmetry_cell_setting 'orthorhombic'
loop_
_space_group_symop_operation_xyz
x,y,z
-x,-y,z
x,-y,-z
-x,y,-z
-x,-y,-z
x,y,-z
-x,y,z
x,-y,z
x,1/2+y,1/2+z
-x,1/2-y,1/2+z
x,1/2-y,1/2-z
-x,1/2+y,1/2-z
-x,1/2-y,1/2-z
x,1/2+y,1/2-z
-x,1/2+y,1/2+z
x,1/2-y,1/2+z
1/2+x,y,1/2+z
1/2-x,-y,1/2+z
1/2+x,-y,1/2-z
1/2-x,y,1/2-z
1/2-x,-y,1/2-z
1/2+x,y,1/2-z
1/2-x,y,1/2+z
1/2+x,-y,1/2+z
1/2+x,1/2+y,z
1/2-x,1/2-y,z
1/2+x,1/2-y,-z
1/2-x,1/2+y,-z
1/2-x,1/2-y,-z
1/2+x,1/2+y,-z
1/2-x,1/2+y,z
1/2+x,1/2-y,z
loop_
_atom_site_type_symbol
_atom_site_label
_atom_site_fract_x
_atom_site_fract_y
_atom_site_fract_z
Si Si1 0.427057 0.622406 0.268637
Si Si2 0.700357 0.000000 0.000000
Si Si3 0.203344 0.073956 0.666726
Si Si4 0.746184 0.179532 0.856791
Si Si5 0.602968 0.790254 0.103474
Si Si6 0.396767 0.813502 0.397686
O O1 0.500000 0.601934 0.276521
O O2 0.369090 0.586575 0.293651
O O3 0.420852 0.667094 0.335412
O O4 0.416922 0.645720 0.170388
O O5 0.700585 0.959670 0.918923
O O6 0.250000 0.057736 0.750000
O O7 0.231661 0.124341 0.636124
O O8 0.750000 0.190468 0.750000
O O9 0.682840 0.206226 0.894029
O O10 0.817261 0.188372 0.897561
O O11 0.582107 0.738415 0.133757
O O12 0.581682 0.796377 0.000000
O O13 0.419822 0.820918 0.500000
#
# Coordination Sequence:
#
# PCOD9511425 Si02
#       6
#    32   8  32  32  32  32
#     4  11  24  41  61  86 127 174 211 257 310 363
#     4  12  26  40  81 106 127 138 198 266 316 390
#     4  10  22  44  65 100 125 157 195 250 321 384
#     4  10  18  33  58  86 125 164 204 250 315 370
#     4  10  21  33  53  87 125 169 222 265 303 350
#     4  11  21  34  56  87 124 172 222 262 296 350
#
# _framework density 19.599567
#
# number of rings (size 3 to 8) (size 9 to 14) (size 15 to 20)
#    0.000    1.524    5.714    2.000    6.667    4.571 
#    0.000    2.857    0.000    0.000    0.000    0.667 
#    0.000    0.000    0.000    0.000    0.000    0.000 
#
# Total GULP energy -234107.331430 kJ/mol
# GULP energy per Si atom -5573.984082 kJ/mol
# Density = 1.955496 g / cm^3
# Si number density = 19.599567 Si / 1000 Ang^3
#
#
#
# Elastic Constant Matrix: (Units=GPa)
#
#
# Indices 1 2 3 4 5 6 
#
# 1 128.6537 29.8653 38.4733 0.0000 0.0000 0.0000
# 2 29.8653 86.1694 61.5433 0.0000 0.0000 0.0000
# 3 38.4733 61.5433 149.5618 0.0000 0.0000 0.0000
# 4 0.0000 0.0000 0.0000 41.3149 0.0000 0.0000
# 5 0.0000 0.0000 0.0000 0.0000 -58.1198 0.0000
# 6 0.0000 0.0000 0.0000 0.0000 0.0000 -3.9380
#
#
#
# Elastic Compliance Matrix: (Units=1/GPa)
#
#
# Indices 1 2 3 4 5 6 
#
# 1 0.008657 -0.001997 -0.001405 0.000000 0.000000 0.000000
# 2 -0.001997 0.016896 -0.006439 0.000000 0.000000 0.000000
# 3 -0.001405 -0.006439 0.009697 0.000000 0.000000 0.000000
# 4 0.000000 0.000000 0.000000 0.024204 0.000000 0.000000
# 5 0.000000 0.000000 0.000000 0.000000 -0.017206 0.000000
# 6 0.000000 0.000000 0.000000 0.000000 0.000000 -0.253934
#
#
# Mechanical properties :
#
#
# Convention : Reuss Voigt Hill
#
# Bulk Modulus (GPa) = 64.23380 69.34984 66.79182
# Shear Modulus (GPa) = -26.76433 11.48497 -7.63968
#
# Velocity S-wave (km/s) = -3.69935 2.42333 -1.97645
# Velocity P-wave (km/s) = 3.82064 6.57953 5.37994
#
# Compressibility (1/GPa) = 0.01556813
#
# Stress axis : x y z
#
# Youngs Moduli (GPa) = 115.51991 59.18652 103.12266
#
# Poissons Ratio (x) = 0.11817 0.14491
# Poissons Ratio (y) = 0.23065 0.66399
# Poissons Ratio (z) = 0.16233 0.38109
#
# Static dielectric constant tensor:
#      x y z
#    x 1.729450 0.000000 0.000000 
#    y 0.000000 1.652200 0.000000 
#    z 0.000000 0.000000 1.699260 
# 
# From -- ./inp_files/16891.got.cif
#   From: 2010.05.17/outbox.cif.g08.bks.cpg/sg69_9_cif.got.tgz:16891.got - 2010.06.03 19:29:58.
