data_PCOD9511769
_publ_section_title
;
Structure prediction by ZEFSAII (Michael W. Deem and Ramdas Pophale) SiO2 
 PCOD9511769
Probable space group: F M M M
;
_chemical_formula_sum "Si O2"
_cell_formula_units_Z 160
_cell_length_a 29.412255
_cell_length_b 23.493370
_cell_length_c 15.601181
_cell_angle_alpha 90.000000
_cell_angle_beta 90.000000
_cell_angle_gamma 90.000000
_cell_volume 10780.306695
_symmetry_space_group_name_H-M "F M M M"
_symmetry_group_IT_number 69
_symmetry_cell_setting 'orthorhombic'
loop_
_space_group_symop_operation_xyz
x,y,z
-x,-y,z
x,-y,-z
-x,y,-z
-x,-y,-z
x,y,-z
-x,y,z
x,-y,z
x,1/2+y,1/2+z
-x,1/2-y,1/2+z
x,1/2-y,1/2-z
-x,1/2+y,1/2-z
-x,1/2-y,1/2-z
x,1/2+y,1/2-z
-x,1/2+y,1/2+z
x,1/2-y,1/2+z
1/2+x,y,1/2+z
1/2-x,-y,1/2+z
1/2+x,-y,1/2-z
1/2-x,y,1/2-z
1/2-x,-y,1/2-z
1/2+x,y,1/2-z
1/2-x,y,1/2+z
1/2+x,-y,1/2+z
1/2+x,1/2+y,z
1/2-x,1/2-y,z
1/2+x,1/2-y,-z
1/2-x,1/2+y,-z
1/2-x,1/2-y,-z
1/2+x,1/2+y,-z
1/2-x,1/2+y,z
1/2+x,1/2-y,z
loop_
_atom_site_type_symbol
_atom_site_label
_atom_site_fract_x
_atom_site_fract_y
_atom_site_fract_z
Si Si1 0.170890 0.252559 0.500000
Si Si2 0.947952 0.372280 0.102778
Si Si3 0.632425 0.705211 0.672529
Si Si4 0.253614 0.661594 0.000000
Si Si5 0.784915 0.884567 0.327898
Si Si6 0.932547 0.000000 0.401904
Si Si7 0.324041 0.500000 0.399785
O O1 0.142825 0.239894 0.585306
O O2 0.213544 0.208976 0.500000
O O3 0.196232 0.312549 0.500000
O O4 0.911473 0.334089 0.152970
O O5 0.946496 0.438323 0.133367
O O6 0.000000 0.351970 0.110926
O O7 0.936055 0.372091 0.000000
O O8 0.627415 0.750000 0.750000
O O9 0.676055 0.663407 0.685973
O O10 0.243863 0.628855 0.086948
O O11 0.750000 0.886295 0.250000
O O12 0.808281 0.944338 0.349307
O O13 0.949496 0.000000 0.500000
O O14 0.878277 0.000000 0.403178
O O15 0.308292 0.500000 0.500000
#
# Coordination Sequence:
#
# PCOD9511769 Si02
#       7
#    16  32  32  16  32  16  16
#     4   9  18  32  47  66  94 133 171 208 240 278
#     4  10  19  33  53  78 103 131 166 208 260 313
#     4  11  21  33  51  73 101 138 174 208 249 301
#     4   9  18  31  48  66  93 131 172 207 241 284
#     4  11  21  33  50  73 102 134 171 214 251 297
#     4   9  17  29  54  76 100 131 164 205 259 318
#     4  11  19  32  53  74  99 135 170 205 261 307
#
# _framework density 14.841877999999999
#
# number of rings (size 3 to 8) (size 9 to 14) (size 15 to 20)
#    0.000    1.800    4.000    1.800    0.000    3.600 
#    0.000    0.000    0.000    0.000    0.000    0.000 
#    0.000    0.000    0.000    1.900    0.000    0.000 
#
# Total GULP energy -222853.076374 kJ/mol
# GULP energy per Si atom -5571.326909 kJ/mol
# Density = 1.480810 g / cm^3
# Si number density = 14.841878 Si / 1000 Ang^3
#
#
#
# Elastic Constant Matrix: (Units=GPa)
#
#
# Indices 1 2 3 4 5 6 
#
# 1 100.3933 54.1299 52.6196 0.0000 0.0000 0.0000
# 2 54.1299 96.4989 50.4741 0.0000 0.0000 0.0000
# 3 52.6196 50.4741 103.1531 0.0000 0.0000 0.0000
# 4 0.0000 0.0000 0.0000 46.4975 0.0000 0.0000
# 5 0.0000 0.0000 0.0000 0.0000 34.5240 0.0000
# 6 0.0000 0.0000 0.0000 0.0000 0.0000 27.5951
#
#
#
# Elastic Compliance Matrix: (Units=1/GPa)
#
#
# Indices 1 2 3 4 5 6 
#
# 1 0.016043 -0.006342 -0.005081 0.000000 0.000000 0.000000
# 2 -0.006342 0.016434 -0.004806 0.000000 0.000000 0.000000
# 3 -0.005081 -0.004806 0.014638 0.000000 0.000000 0.000000
# 4 0.000000 0.000000 0.000000 0.021507 0.000000 0.000000
# 5 0.000000 0.000000 0.000000 0.000000 0.028965 0.000000
# 6 0.000000 0.000000 0.000000 0.000000 0.000000 0.036238
#
#
# Mechanical properties :
#
#
# Convention : Reuss Voigt Hill
#
# Bulk Modulus (GPa) = 68.22475 68.27696 68.25085
# Shear Modulus (GPa) = 29.21090 31.24475 30.22783
#
# Velocity S-wave (km/s) = 4.44119 4.59320 4.51783
# Velocity P-wave (km/s) = 8.50684 8.61584 8.56152
#
# Compressibility (1/GPa) = 0.01465744
#
# Stress axis : x y z
#
# Youngs Moduli (GPa) = 62.33211 60.84893 68.31571
#
# Poissons Ratio (x) = 0.38589 0.34709
# Poissons Ratio (y) = 0.39529 0.32836
# Poissons Ratio (z) = 0.31669 0.29247
#
# Static dielectric constant tensor:
#      x y z
#    x 1.487790 0.000000 0.000000 
#    y 0.000000 1.510340 0.000000 
#    z 0.000000 0.000000 1.470770 
# 
# From -- ./inp_files/18939.got.cif
#   From: 2010.05.17/outbox.cif.g08.bks.cpg/sg69_10_cif.got.tgz:18939.got - 2010.06.03 19:29:58.
