data_PCOD9511747
_publ_section_title
;
Structure prediction by ZEFSAII (Michael W. Deem and Ramdas Pophale) SiO2 
 PCOD9511747
Probable space group: F M M M
;
_chemical_formula_sum "Si O2"
_cell_formula_units_Z 120
_cell_length_a 11.095366
_cell_length_b 23.092301
_cell_length_c 20.741907
_cell_angle_alpha 90.000000
_cell_angle_beta 90.000000
_cell_angle_gamma 90.000000
_cell_volume 5314.440208
_symmetry_space_group_name_H-M "F M M M"
_symmetry_group_IT_number 69
_symmetry_cell_setting 'orthorhombic'
loop_
_space_group_symop_operation_xyz
x,y,z
-x,-y,z
x,-y,-z
-x,y,-z
-x,-y,-z
x,y,-z
-x,y,z
x,-y,z
x,1/2+y,1/2+z
-x,1/2-y,1/2+z
x,1/2-y,1/2-z
-x,1/2+y,1/2-z
-x,1/2-y,1/2-z
x,1/2+y,1/2-z
-x,1/2+y,1/2+z
x,1/2-y,1/2+z
1/2+x,y,1/2+z
1/2-x,-y,1/2+z
1/2+x,-y,1/2-z
1/2-x,y,1/2-z
1/2-x,-y,1/2-z
1/2+x,y,1/2-z
1/2-x,y,1/2+z
1/2+x,-y,1/2+z
1/2+x,1/2+y,z
1/2-x,1/2-y,z
1/2+x,1/2-y,-z
1/2-x,1/2+y,-z
1/2-x,1/2-y,-z
1/2+x,1/2+y,-z
1/2-x,1/2+y,z
1/2+x,1/2-y,z
loop_
_atom_site_type_symbol
_atom_site_label
_atom_site_fract_x
_atom_site_fract_y
_atom_site_fract_z
Si Si1 0.630680 0.221126 0.679888
Si Si2 0.500000 0.568494 0.359916
Si Si3 0.742192 0.819011 0.000000
Si Si4 0.237581 0.616614 0.632712
Si Si5 0.500000 0.109632 0.000000
Si Si6 0.856567 0.000000 0.925735
O O1 0.500000 0.230607 0.648047
O O2 0.623285 0.250000 0.750000
O O3 0.750000 0.250000 0.649458
O O4 0.662416 0.153476 0.683992
O O5 0.500000 0.500000 0.338676
O O6 0.623217 0.604995 0.346127
O O7 0.500000 0.569694 0.437682
O O8 0.750000 0.750000 0.000000
O O9 0.789505 0.846691 0.933314
O O10 0.610067 0.846482 0.000000
O O11 0.188297 0.554702 0.613664
O O12 0.000000 0.000000 0.929365
O O13 0.809395 0.000000 0.000000
#
# Coordination Sequence:
#
# PCOD9511747 Si02
#       6
#    32  16  16  32   8  16
#     4  10  23  44  69  95 126 169 222 279 335 395
#     4  10  19  32  59  91 127 172 222 271 326 391
#     4  10  20  36  51  85 129 176 218 266 321 387
#     4  11  21  38  61  94 132 177 222 270 330 399
#     4   8  19  32  52  76 128 179 228 266 308 384
#     4  11  22  37  57  90 135 182 224 271 334 402
#
# _framework density 22.579989000000001
#
# number of rings (size 3 to 8) (size 9 to 14) (size 15 to 20)
#    0.000    1.733    2.667    1.800    1.867    0.000 
#    9.600    0.000    0.000    3.200    0.000    1.867 
#    0.000    0.000    0.000    0.000    0.000    0.000 
#
# Total GULP energy -167268.793710 kJ/mol
# GULP energy per Si atom -5575.626457 kJ/mol
# Density = 2.252860 g / cm^3
# Si number density = 22.579989 Si / 1000 Ang^3
#
#
#
# Elastic Constant Matrix: (Units=GPa)
#
#
# Indices 1 2 3 4 5 6 
#
# 1 154.7743 39.9308 14.2079 0.0000 0.0000 0.0000
# 2 39.9308 195.7272 44.3091 0.0000 0.0000 0.0000
# 3 14.2079 44.3091 56.1623 0.0000 0.0000 0.0000
# 4 0.0000 0.0000 0.0000 36.0929 0.0000 0.0000
# 5 0.0000 0.0000 0.0000 0.0000 30.6624 0.0000
# 6 0.0000 0.0000 0.0000 0.0000 0.0000 -221.7599
#
#
#
# Elastic Compliance Matrix: (Units=1/GPa)
#
#
# Indices 1 2 3 4 5 6 
#
# 1 0.006847 -0.001223 -0.000767 0.000000 0.000000 0.000000
# 2 -0.001223 0.006439 -0.004770 0.000000 0.000000 0.000000
# 3 -0.000767 -0.004770 0.021763 0.000000 0.000000 0.000000
# 4 0.000000 0.000000 0.000000 0.027706 0.000000 0.000000
# 5 0.000000 0.000000 0.000000 0.000000 0.032613 0.000000
# 6 0.000000 0.000000 0.000000 0.000000 0.000000 -0.004509
#
#
# Mechanical properties :
#
#
# Convention : Reuss Voigt Hill
#
# Bulk Modulus (GPa) = 46.45214 67.06216 56.75715
# Shear Modulus (GPa) = 44.82057 -10.45320 17.18369
#
# Velocity S-wave (km/s) = 4.46013 -2.15394 2.76164
# Velocity P-wave (km/s) = 6.86590 4.85575 5.94638
#
# Compressibility (1/GPa) = 0.02152753
#
# Stress axis : x y z
#
# Youngs Moduli (GPa) = 146.04891 155.31312 45.94936
#
# Poissons Ratio (x) = 0.18998 0.03525
# Poissons Ratio (y) = 0.17865 0.21919
# Poissons Ratio (z) = 0.11203 0.74089
#
# Static dielectric constant tensor:
#      x y z
#    x 1.878480 0.000000 0.000000 
#    y 0.000000 1.875080 0.000000 
#    z 0.000000 0.000000 1.967070 
# 
# From -- ./inp_files/34920.got.cif
#   From: 2010.05.17/outbox.cif.g08.bks.cpg/sg69_18_cif.got.tgz:34920.got - 2010.06.03 19:29:58.
