data_PCOD9511711
_publ_section_title
;
Structure prediction by ZEFSAII (Michael W. Deem and Ramdas Pophale) SiO2 
 PCOD9511711
Probable space group: F M M M
;
_chemical_formula_sum "Si O2"
_cell_formula_units_Z 176
_cell_length_a 26.711506
_cell_length_b 20.375691
_cell_length_c 18.684455
_cell_angle_alpha 90.000000
_cell_angle_beta 90.000000
_cell_angle_gamma 90.000000
_cell_volume 10169.302232
_symmetry_space_group_name_H-M "F M M M"
_symmetry_group_IT_number 69
_symmetry_cell_setting 'orthorhombic'
loop_
_space_group_symop_operation_xyz
x,y,z
-x,-y,z
x,-y,-z
-x,y,-z
-x,-y,-z
x,y,-z
-x,y,z
x,-y,z
x,1/2+y,1/2+z
-x,1/2-y,1/2+z
x,1/2-y,1/2-z
-x,1/2+y,1/2-z
-x,1/2-y,1/2-z
x,1/2+y,1/2-z
-x,1/2+y,1/2+z
x,1/2-y,1/2+z
1/2+x,y,1/2+z
1/2-x,-y,1/2+z
1/2+x,-y,1/2-z
1/2-x,y,1/2-z
1/2-x,-y,1/2-z
1/2+x,y,1/2-z
1/2-x,y,1/2+z
1/2+x,-y,1/2+z
1/2+x,1/2+y,z
1/2-x,1/2-y,z
1/2+x,1/2-y,-z
1/2-x,1/2+y,-z
1/2-x,1/2-y,-z
1/2+x,1/2+y,-z
1/2-x,1/2+y,z
1/2+x,1/2-y,z
loop_
_atom_site_type_symbol
_atom_site_label
_atom_site_fract_x
_atom_site_fract_y
_atom_site_fract_z
Si Si1 0.440488 0.733146 0.582420
Si Si2 0.059111 0.000000 0.080127
Si Si3 0.211209 0.575543 0.816164
Si Si4 0.900844 0.633381 0.359668
Si Si5 0.625471 0.818613 0.212554
Si Si6 0.801521 0.923119 0.084930
O O1 0.429863 0.714027 0.500000
O O2 0.500000 0.725257 0.594918
O O3 0.425349 0.809231 0.593686
O O4 0.407411 0.696804 0.642514
O O5 0.075503 0.935195 0.120046
O O6 0.000000 0.000000 0.074100
O O7 0.081633 0.000000 0.000000
O O8 0.191748 0.500000 0.818542
O O9 0.250000 0.578528 0.750000
O O10 0.169206 0.630386 0.806194
O O11 0.245959 0.588065 0.885177
O O12 0.906938 0.650036 0.276544
O O13 0.841941 0.623708 0.377438
O O14 0.643459 0.750000 0.250000
O O15 0.813290 0.000000 0.102103
O O16 0.804348 0.914723 0.000000
#
# Coordination Sequence:
#
# PCOD9511711 Si02
#       6
#    32  16  32  32  32  32
#     4  10  22  41  61  80 111 156 200 243 293 343
#     4  11  22  32  50  83 119 149 181 230 289 354
#     4  10  20  36  58  81 113 153 193 232 281 342
#     4  11  20  34  56  84 117 150 188 236 288 354
#     4  10  23  38  59  86 115 151 194 243 290 343
#     4  10  19  32  53  82 116 152 187 230 288 350
#
# _framework density 17.306989000000002
#
# number of rings (size 3 to 8) (size 9 to 14) (size 15 to 20)
#    0.000    1.727    2.727    2.182    1.273    6.545 
#    0.000    0.000    0.000    3.273    0.000    1.273 
#    0.000    0.000    0.000    0.000    0.000    0.000 
#
# Total GULP energy -245470.561191 kJ/mol
# GULP energy per Si atom -5578.876391 kJ/mol
# Density = 1.726760 g / cm^3
# Si number density = 17.306989 Si / 1000 Ang^3
#
#
#
# Elastic Constant Matrix: (Units=GPa)
#
#
# Indices 1 2 3 4 5 6 
#
# 1 85.1948 57.9158 46.3208 0.0000 0.0000 0.0000
# 2 57.9158 107.1663 55.3769 0.0000 0.0000 0.0000
# 3 46.3208 55.3769 115.4737 0.0000 0.0000 0.0000
# 4 0.0000 0.0000 0.0000 22.7387 0.0000 0.0000
# 5 0.0000 0.0000 0.0000 0.0000 24.9545 0.0000
# 6 0.0000 0.0000 0.0000 0.0000 0.0000 5.2003
#
#
#
# Elastic Compliance Matrix: (Units=1/GPa)
#
#
# Indices 1 2 3 4 5 6 
#
# 1 0.019685 -0.008718 -0.003715 0.000000 0.000000 0.000000
# 2 -0.008718 0.016267 -0.004304 0.000000 0.000000 0.000000
# 3 -0.003715 -0.004304 0.012214 0.000000 0.000000 0.000000
# 4 0.000000 0.000000 0.000000 0.043978 0.000000 0.000000
# 5 0.000000 0.000000 0.000000 0.000000 0.040073 0.000000
# 6 0.000000 0.000000 0.000000 0.000000 0.000000 0.192298
#
#
# Mechanical properties :
#
#
# Convention : Reuss Voigt Hill
#
# Bulk Modulus (GPa) = 68.06865 69.67352 68.87109
# Shear Modulus (GPa) = 13.77845 20.46011 17.11928
#
# Velocity S-wave (km/s) = 2.82462 3.44203 3.14849
# Velocity P-wave (km/s) = 7.07485 7.49277 7.28681
#
# Compressibility (1/GPa) = 0.01469105
#
# Stress axis : x y z
#
# Youngs Moduli (GPa) = 50.80131 61.47484 81.87186
#
# Poissons Ratio (x) = 0.53596 0.30417
# Poissons Ratio (y) = 0.44290 0.35235
# Poissons Ratio (z) = 0.18874 0.26457
#
# Static dielectric constant tensor:
#      x y z
#    x 1.590710 0.000000 0.000000 
#    y 0.000000 1.582760 0.000000 
#    z 0.000000 0.000000 1.603900 
# 
# From -- ./inp_files/23603.got.cif
#   From: 2010.05.17/outbox.cif.g08.bks.cpg/sg69_12_cif.got.tgz:23603.got - 2010.06.03 19:29:58.
