data_PCOD9511793
_publ_section_title
;
Structure prediction by ZEFSAII (Michael W. Deem and Ramdas Pophale) SiO2 
 PCOD9511793
Probable space group: F M M M
;
_chemical_formula_sum "Si O2"
_cell_formula_units_Z 160
_cell_length_a 27.564209
_cell_length_b 17.726430
_cell_length_c 17.631912
_cell_angle_alpha 90.000000
_cell_angle_beta 90.000000
_cell_angle_gamma 90.000000
_cell_volume 8615.217058
_symmetry_space_group_name_H-M "F M M M"
_symmetry_group_IT_number 69
_symmetry_cell_setting 'orthorhombic'
loop_
_space_group_symop_operation_xyz
x,y,z
-x,-y,z
x,-y,-z
-x,y,-z
-x,-y,-z
x,y,-z
-x,y,z
x,-y,z
x,1/2+y,1/2+z
-x,1/2-y,1/2+z
x,1/2-y,1/2-z
-x,1/2+y,1/2-z
-x,1/2-y,1/2-z
x,1/2+y,1/2-z
-x,1/2+y,1/2+z
x,1/2-y,1/2+z
1/2+x,y,1/2+z
1/2-x,-y,1/2+z
1/2+x,-y,1/2-z
1/2-x,y,1/2-z
1/2-x,-y,1/2-z
1/2+x,y,1/2-z
1/2-x,y,1/2+z
1/2+x,-y,1/2+z
1/2+x,1/2+y,z
1/2-x,1/2-y,z
1/2+x,1/2-y,-z
1/2-x,1/2+y,-z
1/2-x,1/2-y,-z
1/2+x,1/2+y,-z
1/2-x,1/2+y,z
1/2+x,1/2-y,z
loop_
_atom_site_type_symbol
_atom_site_label
_atom_site_fract_x
_atom_site_fract_y
_atom_site_fract_z
Si Si1 0.654064 0.913390 0.586965
Si Si2 0.944201 0.129025 0.156855
Si Si3 0.104848 0.911592 0.313709
Si Si4 0.443396 0.791357 0.087247
Si Si5 0.806218 0.162012 0.233243
O O1 0.662754 0.892625 0.500000
O O2 0.596631 0.909630 0.605319
O O3 0.680120 0.859522 0.647177
O O4 0.669837 0.000000 0.599375
O O5 0.930645 0.108489 0.242971
O O6 0.937831 0.218134 0.140391
O O7 0.000000 0.109487 0.139961
O O8 0.089012 0.859210 0.382881
O O9 0.157991 0.887991 0.284477
O O10 0.102071 0.000000 0.329573
O O11 0.500000 0.813668 0.090827
O O12 0.432540 0.770463 0.000000
O O13 0.816195 0.250000 0.250000
O O14 0.750000 0.147418 0.250000
#
# Coordination Sequence:
#
# PCOD9511793 Si02
#       5
#    32  32  32  32  32
#     4  10  21  36  55  81 114 147 175 215 274 328
#     4  10  19  33  54  79 108 144 187 226 260 309
#     4  11  22  35  55  81 109 142 178 221 272 323
#     4  10  21  36  54  77 109 149 186 222 265 311
#     4  10  21  39  61  83 105 137 182 226 270 320
#
# _framework density 18.57179
#
# number of rings (size 3 to 8) (size 9 to 14) (size 15 to 20)
#    0.000    1.800    0.000    6.600    0.000    7.600 
#    0.000    5.000    0.000    0.000    0.000    0.000 
#    0.000    0.000    0.000    0.000    0.000    0.000 
#
# Total GULP energy -223395.505224 kJ/mol
# GULP energy per Si atom -5584.887631 kJ/mol
# Density = 1.852952 g / cm^3
# Si number density = 18.571790 Si / 1000 Ang^3
#
#
#
# Elastic Constant Matrix: (Units=GPa)
#
#
# Indices 1 2 3 4 5 6 
#
# 1 81.5720 36.3737 32.5505 0.0000 0.0000 0.0000
# 2 36.3737 88.0554 25.6168 0.0000 0.0000 0.0000
# 3 32.5505 25.6168 52.2432 0.0000 0.0000 0.0000
# 4 0.0000 0.0000 0.0000 30.2382 0.0000 0.0000
# 5 0.0000 0.0000 0.0000 0.0000 9.0679 0.0000
# 6 0.0000 0.0000 0.0000 0.0000 0.0000 -15.4017
#
#
#
# Elastic Compliance Matrix: (Units=1/GPa)
#
#
# Indices 1 2 3 4 5 6 
#
# 1 0.017930 -0.004848 -0.008794 0.000000 0.000000 0.000000
# 2 -0.004848 0.014557 -0.004117 0.000000 0.000000 0.000000
# 3 -0.008794 -0.004117 0.026639 0.000000 0.000000 0.000000
# 4 0.000000 0.000000 0.000000 0.033071 0.000000 0.000000
# 5 0.000000 0.000000 0.000000 0.000000 0.110279 0.000000
# 6 0.000000 0.000000 0.000000 0.000000 0.000000 -0.064928
#
#
# Mechanical properties :
#
#
# Convention : Reuss Voigt Hill
#
# Bulk Modulus (GPa) = 42.35973 45.66139 44.01056
# Shear Modulus (GPa) = 27.63404 13.26952 20.45178
#
# Velocity S-wave (km/s) = 3.86159 2.67591 3.32208
# Velocity P-wave (km/s) = 6.53763 5.84698 6.20193
#
# Compressibility (1/GPa) = 0.02360733
#
# Stress axis : x y z
#
# Youngs Moduli (GPa) = 55.77179 68.69604 37.53846
#
# Poissons Ratio (x) = 0.33305 0.33012
# Poissons Ratio (y) = 0.27039 0.15455
# Poissons Ratio (z) = 0.49047 0.28283
#
# Static dielectric constant tensor:
#      x y z
#    x 1.631920 0.000000 0.000000 
#    y 0.000000 1.643320 0.000000 
#    z 0.000000 0.000000 1.634790 
# 
# From -- ./inp_files/26637.got.cif
#   From: 2010.05.17/outbox.cif.g08.bks.cpg/sg69_14_cif.got.tgz:26637.got - 2010.06.03 19:29:58.
