data_PCOD9511506
_publ_section_title
;
Structure prediction by ZEFSAII (Michael W. Deem and Ramdas Pophale) SiO2 
 PCOD9511506
Probable space group: F M M M
;
_chemical_formula_sum "Si O2"
_cell_formula_units_Z 208
_cell_length_a 17.505405
_cell_length_b 27.793914
_cell_length_c 25.705802
_cell_angle_alpha 90.000000
_cell_angle_beta 90.000000
_cell_angle_gamma 90.000000
_cell_volume 12506.996559
_symmetry_space_group_name_H-M "F M M M"
_symmetry_group_IT_number 69
_symmetry_cell_setting 'orthorhombic'
loop_
_space_group_symop_operation_xyz
x,y,z
-x,-y,z
x,-y,-z
-x,y,-z
-x,-y,-z
x,y,-z
-x,y,z
x,-y,z
x,1/2+y,1/2+z
-x,1/2-y,1/2+z
x,1/2-y,1/2-z
-x,1/2+y,1/2-z
-x,1/2-y,1/2-z
x,1/2+y,1/2-z
-x,1/2+y,1/2+z
x,1/2-y,1/2+z
1/2+x,y,1/2+z
1/2-x,-y,1/2+z
1/2+x,-y,1/2-z
1/2-x,y,1/2-z
1/2-x,-y,1/2-z
1/2+x,y,1/2-z
1/2-x,y,1/2+z
1/2+x,-y,1/2+z
1/2+x,1/2+y,z
1/2-x,1/2-y,z
1/2+x,1/2-y,-z
1/2-x,1/2+y,-z
1/2-x,1/2-y,-z
1/2+x,1/2+y,-z
1/2-x,1/2+y,z
1/2+x,1/2-y,z
loop_
_atom_site_type_symbol
_atom_site_label
_atom_site_fract_x
_atom_site_fract_y
_atom_site_fract_z
Si Si1 0.500000 0.056391 0.063195
Si Si2 0.168194 0.442064 0.061308
Si Si3 0.682182 0.828444 0.789209
Si Si4 0.411793 0.364766 0.800374
Si Si5 0.674114 0.217239 0.559687
Si Si6 0.413468 0.254756 0.159109
Si Si7 0.717429 0.877356 0.377784
O O1 0.416659 0.075977 0.079245
O O2 0.500000 0.000000 0.077816
O O3 0.500000 0.057924 0.000000
O O4 0.168350 0.500000 0.065537
O O5 0.237506 0.419137 0.092839
O O6 0.175724 0.430165 0.000000
O O7 0.750000 0.814733 0.750000
O O8 0.626362 0.863567 0.756598
O O9 0.639127 0.781748 0.809722
O O10 0.722672 0.853991 0.837507
O O11 0.500000 0.380403 0.800894
O O12 0.409697 0.308252 0.816940
O O13 0.356591 0.390226 0.842511
O O14 0.648285 0.215445 0.500000
O O15 0.750000 0.250000 0.562291
O O16 0.614356 0.240075 0.599898
O O17 0.693453 0.164246 0.581552
O O18 0.500000 0.237544 0.162374
#
# Coordination Sequence:
#
# PCOD9511506 Si02
#       7
#    16  32  32  32  32  32  32
#     4   7  12  26  48  72 100 128 149 178 230 288
#     4   9  17  32  54  78 102 127 158 198 240 288
#     4  10  19  30  47  69  98 124 163 207 251 286
#     4   9  19  32  48  67  94 131 168 206 248 290
#     4  10  19  31  45  63  96 135 162 189 230 286
#     4  10  19  31  47  68  92 127 171 208 242 280
#     4  10  19  31  50  74  96 126 167 200 242 294
#
# _framework density 16.630690999999999
#
# number of rings (size 3 to 8) (size 9 to 14) (size 15 to 20)
#    0.000    2.538    1.538    2.308    0.000    4.615 
#    2.769    0.000    0.000    6.000    0.000    1.077 
#    0.000    0.000    0.000    0.000    0.000    0.000 
#
# Total GULP energy -289791.721311 kJ/mol
# GULP energy per Si atom -5572.917718 kJ/mol
# Density = 1.659284 g / cm^3
# Si number density = 16.630691 Si / 1000 Ang^3
#
#
#
# Elastic Constant Matrix: (Units=GPa)
#
#
# Indices 1 2 3 4 5 6 
#
# 1 118.8117 25.0873 34.4218 0.0000 0.0000 0.0000
# 2 25.0873 19.4025 17.4002 0.0000 0.0000 0.0000
# 3 34.4218 17.4002 78.8135 0.0000 0.0000 0.0000
# 4 0.0000 0.0000 0.0000 9.0569 0.0000 0.0000
# 5 0.0000 0.0000 0.0000 0.0000 12.7237 0.0000
# 6 0.0000 0.0000 0.0000 0.0000 0.0000 20.9662
#
#
#
# Elastic Compliance Matrix: (Units=1/GPa)
#
#
# Indices 1 2 3 4 5 6 
#
# 1 0.011887 -0.013359 -0.002242 0.000000 0.000000 0.000000
# 2 -0.013359 0.079277 -0.011668 0.000000 0.000000 0.000000
# 3 -0.002242 -0.011668 0.016244 0.000000 0.000000 0.000000
# 4 0.000000 0.000000 0.000000 0.110413 0.000000 0.000000
# 5 0.000000 0.000000 0.000000 0.000000 0.078594 0.000000
# 6 0.000000 0.000000 0.000000 0.000000 0.000000 0.047696
#
#
# Mechanical properties :
#
#
# Convention : Reuss Voigt Hill
#
# Bulk Modulus (GPa) = 18.91474 41.20516 30.05995
# Shear Modulus (GPa) = 12.01140 17.89058 14.95099
#
# Velocity S-wave (km/s) = 2.69037 3.28343 3.00159
# Velocity P-wave (km/s) = 4.58791 6.26138 5.48880
#
# Compressibility (1/GPa) = 0.05286881
#
# Stress axis : x y z
#
# Youngs Moduli (GPa) = 84.12472 12.61403 61.56300
#
# Poissons Ratio (x) = 0.16851 0.13804
# Poissons Ratio (y) = 1.12383 0.71831
# Poissons Ratio (z) = 0.18863 0.14718
#
# Static dielectric constant tensor:
#      x y z
#    x 1.592900 0.000000 0.000000 
#    y 0.000000 1.537630 0.000000 
#    z 0.000000 0.000000 1.569320 
# 
# From -- ./inp_files/36805.got.cif
#   From: 2010.05.17/outbox.cif.g08.bks.cpg/sg69_19_cif.got.tgz:36805.got - 2010.06.03 19:29:58.
