data_PCOD9511861
_publ_section_title
;
Structure prediction by ZEFSAII (Michael W. Deem and Ramdas Pophale) SiO2 
 PCOD9511861
Probable space group: F M M M
;
_chemical_formula_sum "Si O2"
_cell_formula_units_Z 240
_cell_length_a 21.593450
_cell_length_b 23.753216
_cell_length_c 24.811969
_cell_angle_alpha 90.000000
_cell_angle_beta 90.000000
_cell_angle_gamma 90.000000
_cell_volume 12726.403341
_symmetry_space_group_name_H-M "F M M M"
_symmetry_group_IT_number 69
_symmetry_cell_setting 'orthorhombic'
loop_
_space_group_symop_operation_xyz
x,y,z
-x,-y,z
x,-y,-z
-x,y,-z
-x,-y,-z
x,y,-z
-x,y,z
x,-y,z
x,1/2+y,1/2+z
-x,1/2-y,1/2+z
x,1/2-y,1/2-z
-x,1/2+y,1/2-z
-x,1/2-y,1/2-z
x,1/2+y,1/2-z
-x,1/2+y,1/2+z
x,1/2-y,1/2+z
1/2+x,y,1/2+z
1/2-x,-y,1/2+z
1/2+x,-y,1/2-z
1/2-x,y,1/2-z
1/2-x,-y,1/2-z
1/2+x,y,1/2-z
1/2-x,y,1/2+z
1/2+x,-y,1/2+z
1/2+x,1/2+y,z
1/2-x,1/2-y,z
1/2+x,1/2-y,-z
1/2-x,1/2+y,-z
1/2-x,1/2-y,-z
1/2+x,1/2+y,-z
1/2-x,1/2+y,z
1/2+x,1/2-y,z
loop_
_atom_site_type_symbol
_atom_site_label
_atom_site_fract_x
_atom_site_fract_y
_atom_site_fract_z
Si Si1 0.136444 0.637102 0.439779
Si Si2 0.070182 0.567729 0.777652
Si Si3 0.793530 0.432945 0.797519
Si Si4 0.180843 0.260571 0.064784
Si Si5 0.246305 0.435207 0.082064
Si Si6 0.500000 0.435428 0.566196
Si Si7 0.122032 0.625317 0.062321
Si Si8 0.426704 0.437116 0.150199
O O1 0.109447 0.629337 0.500000
O O2 0.142954 0.703248 0.428447
O O3 0.204492 0.608742 0.440475
O O4 0.101695 0.605581 0.392098
O O5 0.067401 0.500000 0.786397
O O6 0.135514 0.588842 0.802479
O O7 0.080662 0.576542 0.713279
O O8 0.000000 0.588790 0.790843
O O9 0.800727 0.500000 0.786797
O O10 0.750000 0.409480 0.750000
O O11 0.757578 0.427958 0.853550
O O12 0.250000 0.250000 0.086473
O O13 0.147749 0.316475 0.086528
O O14 0.187683 0.269299 0.000000
O O15 0.261128 0.500000 0.068913
O O16 0.177878 0.419088 0.062677
O O17 0.500000 0.500000 0.584316
O O18 0.500000 0.437010 0.500000
O O19 0.438979 0.403328 0.585686
O O20 0.105948 0.638004 0.000000
O O21 0.500000 0.439570 0.140856
O O22 0.400018 0.500000 0.141439
#
# Coordination Sequence:
#
# PCOD9511861 Si02
#       8
#    32  32  32  32  32  16  32  32
#     4  11  21  32  48  71 100 134 172 209 245 293
#     4   8  14  28  49  68  91 128 166 198 243 305
#     4   9  17  29  44  66  97 127 158 200 247 295
#     4   9  17  33  52  67  88 125 171 215 251 280
#     4  11  21  30  46  75 102 129 163 201 252 307
#     4   9  18  32  50  72 100 136 166 193 245 309
#     4  10  19  34  52  70  98 133 169 206 246 295
#     4   9  18  32  49  72 103 135 164 197 246 307
#
# _framework density 18.858431
#
# number of rings (size 3 to 8) (size 9 to 14) (size 15 to 20)
#    0.000    2.467    1.333    2.800    0.000    4.800 
#    2.400    0.667    0.000    0.000    0.000    6.533 
#    0.000    2.133    0.000    0.000    0.000    0.000 
#
# Total GULP energy -334514.664329 kJ/mol
# GULP energy per Si atom -5575.244405 kJ/mol
# Density = 1.881551 g / cm^3
# Si number density = 18.858431 Si / 1000 Ang^3
#
#
#
# Elastic Constant Matrix: (Units=GPa)
#
#
# Indices 1 2 3 4 5 6 
#
# 1 64.2129 24.7241 17.0500 0.0000 0.0000 0.0000
# 2 24.7241 85.3323 10.8287 0.0000 0.0000 0.0000
# 3 17.0500 10.8287 43.1461 0.0000 0.0000 0.0000
# 4 0.0000 0.0000 0.0000 -12.5859 0.0000 0.0000
# 5 0.0000 0.0000 0.0000 0.0000 -6.1114 0.0000
# 6 0.0000 0.0000 0.0000 0.0000 0.0000 17.0830
#
#
#
# Elastic Compliance Matrix: (Units=1/GPa)
#
#
# Indices 1 2 3 4 5 6 
#
# 1 0.019078 -0.004721 -0.006354 0.000000 0.000000 0.000000
# 2 -0.004721 0.013273 -0.001465 0.000000 0.000000 0.000000
# 3 -0.006354 -0.001465 0.026056 0.000000 0.000000 0.000000
# 4 0.000000 0.000000 0.000000 -0.079454 0.000000 0.000000
# 5 0.000000 0.000000 0.000000 0.000000 -0.163628 0.000000
# 6 0.000000 0.000000 0.000000 0.000000 0.000000 0.058538
#
#
# Mechanical properties :
#
#
# Convention : Reuss Voigt Hill
#
# Bulk Modulus (GPa) = 30.00754 33.09965 31.55360
# Shear Modulus (GPa) = -55.58803 9.01639 -23.28582
#
# Velocity S-wave (km/s) = -5.43512 2.18894 -3.51774
# Velocity P-wave (km/s) = 4.84157 4.89677 0.51847
#
# Compressibility (1/GPa) = 0.03332495
#
# Stress axis : x y z
#
# Youngs Moduli (GPa) = 52.41571 75.34196 38.37911
#
# Poissons Ratio (x) = 0.35572 0.24387
# Poissons Ratio (y) = 0.24747 0.05624
# Poissons Ratio (z) = 0.33306 0.11041
#
# Static dielectric constant tensor:
#      x y z
#    x 1.698080 0.000000 0.000000 
#    y 0.000000 1.626090 0.000000 
#    z 0.000000 0.000000 1.688960 
# 
# From -- ./inp_files/46825.got.cif
#   From: 2010.05.17/outbox.cif.g08.bks.cpg/sg69_24_cif.got.tgz:46825.got - 2010.06.03 19:29:58.
