data_PCOD9511677
_publ_section_title
;
Structure prediction by ZEFSAII (Michael W. Deem and Ramdas Pophale) SiO2 
 PCOD9511677
Probable space group: F M M M
;
_chemical_formula_sum "Si O2"
_cell_formula_units_Z 160
_cell_length_a 28.749239
_cell_length_b 17.114266
_cell_length_c 17.932553
_cell_angle_alpha 90.000000
_cell_angle_beta 90.000000
_cell_angle_gamma 90.000000
_cell_volume 8823.212808
_symmetry_space_group_name_H-M "F M M M"
_symmetry_group_IT_number 69
_symmetry_cell_setting 'orthorhombic'
loop_
_space_group_symop_operation_xyz
x,y,z
-x,-y,z
x,-y,-z
-x,y,-z
-x,-y,-z
x,y,-z
-x,y,z
x,-y,z
x,1/2+y,1/2+z
-x,1/2-y,1/2+z
x,1/2-y,1/2-z
-x,1/2+y,1/2-z
-x,1/2-y,1/2-z
x,1/2+y,1/2-z
-x,1/2+y,1/2+z
x,1/2-y,1/2+z
1/2+x,y,1/2+z
1/2-x,-y,1/2+z
1/2+x,-y,1/2-z
1/2-x,y,1/2-z
1/2-x,-y,1/2-z
1/2+x,y,1/2-z
1/2-x,y,1/2+z
1/2+x,-y,1/2+z
1/2+x,1/2+y,z
1/2-x,1/2-y,z
1/2+x,1/2-y,-z
1/2-x,1/2+y,-z
1/2-x,1/2-y,-z
1/2+x,1/2+y,-z
1/2-x,1/2+y,z
1/2+x,1/2-y,z
loop_
_atom_site_type_symbol
_atom_site_label
_atom_site_fract_x
_atom_site_fract_y
_atom_site_fract_z
Si Si1 0.052232 0.866120 0.087147
Si Si2 0.149034 0.412033 0.655804
Si Si3 0.553945 0.323310 0.415045
Si Si4 0.805021 0.262353 0.414103
Si Si5 0.629957 0.325994 0.699520
O O1 0.095260 0.902168 0.130563
O O2 0.056849 0.771641 0.089965
O O3 0.000000 0.886188 0.113624
O O4 0.055421 0.888310 0.000000
O O5 0.164444 0.500000 0.642859
O O6 0.178939 0.348786 0.610396
O O7 0.149775 0.388034 0.742461
O O8 0.567605 0.344538 0.500000
O O9 0.500000 0.344431 0.404903
O O10 0.586848 0.354286 0.350068
O O11 0.818953 0.249550 0.500000
O O12 0.750000 0.250000 0.407497
O O13 0.831893 0.204746 0.358677
O O14 0.616339 0.250000 0.750000
#
# Coordination Sequence:
#
# PCOD9511677 Si02
#       5
#    32  32  32  32  32
#     4   9  17  30  50  79 114 150 187 225 267 316
#     4  11  23  36  53  83 119 150 176 215 276 337
#     4   9  16  28  50  78 106 141 190 238 268 299
#     4  10  21  39  62  83 101 132 181 232 275 321
#     4  10  19  32  52  78 107 143 180 220 268 324
#
# _framework density 18.133984000000002
#
# number of rings (size 3 to 8) (size 9 to 14) (size 15 to 20)
#    0.000    2.200    4.000    2.400    0.000    6.800 
#    0.000    3.000    0.000    3.600    0.000    1.400 
#    0.000    0.000    0.000    0.000    0.000    0.000 
#
# Total GULP energy -223176.303966 kJ/mol
# GULP energy per Si atom -5579.407599 kJ/mol
# Density = 1.809271 g / cm^3
# Si number density = 18.133984 Si / 1000 Ang^3
#
#
#
# Elastic Constant Matrix: (Units=GPa)
#
#
# Indices 1 2 3 4 5 6 
#
# 1 79.6035 25.6893 55.2624 0.0000 0.0000 0.0000
# 2 25.6893 39.9776 10.8355 0.0000 0.0000 0.0000
# 3 55.2624 10.8355 115.0827 0.0000 0.0000 0.0000
# 4 0.0000 0.0000 0.0000 -3.3617 0.0000 0.0000
# 5 0.0000 0.0000 0.0000 0.0000 -68.2239 0.0000
# 6 0.0000 0.0000 0.0000 0.0000 0.0000 7.1390
#
#
#
# Elastic Compliance Matrix: (Units=1/GPa)
#
#
# Indices 1 2 3 4 5 6 
#
# 1 0.023644 -0.012433 -0.010183 0.000000 0.000000 0.000000
# 2 -0.012433 0.032207 0.002938 0.000000 0.000000 0.000000
# 3 -0.010183 0.002938 0.013303 0.000000 0.000000 0.000000
# 4 0.000000 0.000000 0.000000 -0.297465 0.000000 0.000000
# 5 0.000000 0.000000 0.000000 0.000000 -0.014658 0.000000
# 6 0.000000 0.000000 0.000000 0.000000 0.000000 0.140075
#
#
# Mechanical properties :
#
#
# Convention : Reuss Voigt Hill
#
# Bulk Modulus (GPa) = 33.56045 46.47090 40.01568
# Shear Modulus (GPa) = -93.27611 -3.36421 -48.32016
#
# Velocity S-wave (km/s) = -7.17975 -1.36353 -5.16759
# Velocity P-wave (km/s) = 7.08412 4.81696 3.67298
#
# Compressibility (1/GPa) = 0.02979697
#
# Stress axis : x y z
#
# Youngs Moduli (GPa) = 42.29383 31.04887 75.17269
#
# Poissons Ratio (x) = 0.38604 0.76550
# Poissons Ratio (y) = 0.52586 -0.22086
# Poissons Ratio (z) = 0.43069 -0.09122
#
# Static dielectric constant tensor:
#      x y z
#    x 1.624890 0.000000 0.000000 
#    y 0.000000 1.615320 0.000000 
#    z 0.000000 0.000000 1.628280 
# 
# From -- ./inp_files/23145.got.cif
#   From: 2010.05.17/outbox.cif.g08.bks.cpg/sg69_12_cif.got.tgz:23145.got - 2010.06.03 19:29:58.
