data_PCOD9511267
_publ_section_title
;
Structure prediction by ZEFSAII (Michael W. Deem and Ramdas Pophale) SiO2 
 PCOD9511267
Probable space group: F M M M
;
_chemical_formula_sum "Si O2"
_cell_formula_units_Z 160
_cell_length_a 11.257865
_cell_length_b 30.319368
_cell_length_c 29.238801
_cell_angle_alpha 90.000000
_cell_angle_beta 90.000000
_cell_angle_gamma 90.000000
_cell_volume 9980.119471
_symmetry_space_group_name_H-M "F M M M"
_symmetry_group_IT_number 69
_symmetry_cell_setting 'orthorhombic'
loop_
_space_group_symop_operation_xyz
x,y,z
-x,-y,z
x,-y,-z
-x,y,-z
-x,-y,-z
x,y,-z
-x,y,z
x,-y,z
x,1/2+y,1/2+z
-x,1/2-y,1/2+z
x,1/2-y,1/2-z
-x,1/2+y,1/2-z
-x,1/2-y,1/2-z
x,1/2+y,1/2-z
-x,1/2+y,1/2+z
x,1/2-y,1/2+z
1/2+x,y,1/2+z
1/2-x,-y,1/2+z
1/2+x,-y,1/2-z
1/2-x,y,1/2-z
1/2-x,-y,1/2-z
1/2+x,y,1/2-z
1/2-x,y,1/2+z
1/2+x,-y,1/2+z
1/2+x,1/2+y,z
1/2-x,1/2-y,z
1/2+x,1/2-y,-z
1/2-x,1/2+y,-z
1/2-x,1/2-y,-z
1/2+x,1/2+y,-z
1/2-x,1/2+y,z
1/2+x,1/2-y,z
loop_
_atom_site_type_symbol
_atom_site_label
_atom_site_fract_x
_atom_site_fract_y
_atom_site_fract_z
Si Si1 0.861191 0.550272 0.610689
Si Si2 0.500000 0.887595 0.052609
Si Si3 0.633454 0.777072 0.555669
Si Si4 0.736774 0.869797 0.553529
Si Si5 0.000000 0.553342 0.858302
Si Si6 0.230277 0.052755 0.699235
O O1 0.818053 0.500000 0.602040
O O2 0.793714 0.586485 0.581346
O O3 0.838642 0.559272 0.664330
O O4 0.000000 0.552120 0.600089
O O5 0.377814 0.860575 0.057713
O O6 0.500000 0.924599 0.091879
O O7 0.500000 0.905010 0.000000
O O8 0.633524 0.774718 0.500000
O O9 0.500000 0.763722 0.570593
O O10 0.750000 0.750000 0.571128
O O11 0.659605 0.827925 0.568250
O O12 0.712252 0.877652 0.500000
O O13 0.114587 0.567620 0.828839
O O14 0.000000 0.500000 0.862725
O O15 0.250000 0.071111 0.750000
O O16 0.214007 0.000000 0.704485
#
# Coordination Sequence:
#
# PCOD9511267 Si02
#       6
#    32  16  32  32  16  32
#     4  10  20  32  46  65  91 125 165 202 238 284
#     4  10  20  31  46  68  94 131 165 198 239 289
#     4   9  18  31  49  71  94 122 158 201 248 295
#     4  10  20  33  48  67  96 129 163 200 242 285
#     4  10  18  31  48  66  90 123 166 209 249 291
#     4   9  18  30  45  64  87 117 155 202 251 293
#
# _framework density 16.031870999999999
#
# number of rings (size 3 to 8) (size 9 to 14) (size 15 to 20)
#    0.000    2.400    2.000    0.600    2.800    1.800 
#    0.000    3.000    0.000    0.000    0.000    0.000 
#    0.000    0.800    0.000    5.600    0.000    1.000 
#
# Total GULP energy -222693.666131 kJ/mol
# GULP energy per Si atom -5567.341653 kJ/mol
# Density = 1.599538 g / cm^3
# Si number density = 16.031871 Si / 1000 Ang^3
#
#
#
# Elastic Constant Matrix: (Units=GPa)
#
#
# Indices 1 2 3 4 5 6 
#
# 1 99.4018 28.6233 22.1384 0.0000 0.0000 0.0000
# 2 28.6233 44.8009 18.5246 0.0000 0.0000 0.0000
# 3 22.1384 18.5246 58.4719 0.0000 0.0000 0.0000
# 4 0.0000 0.0000 0.0000 -1.5390 0.0000 0.0000
# 5 0.0000 0.0000 0.0000 0.0000 15.4309 0.0000
# 6 0.0000 0.0000 0.0000 0.0000 0.0000 20.1449
#
#
#
# Elastic Compliance Matrix: (Units=1/GPa)
#
#
# Indices 1 2 3 4 5 6 
#
# 1 0.012654 -0.007024 -0.002566 0.000000 0.000000 0.000000
# 2 -0.007024 0.029584 -0.006713 0.000000 0.000000 0.000000
# 3 -0.002566 -0.006713 0.020201 0.000000 0.000000 0.000000
# 4 0.000000 0.000000 0.000000 -0.649766 0.000000 0.000000
# 5 0.000000 0.000000 0.000000 0.000000 0.064805 0.000000
# 6 0.000000 0.000000 0.000000 0.000000 0.000000 0.049640
#
#
# Mechanical properties :
#
#
# Convention : Reuss Voigt Hill
#
# Bulk Modulus (GPa) = 33.51983 37.91637 35.71810
# Shear Modulus (GPa) = -11.61896 15.69992 2.04048
#
# Velocity S-wave (km/s) = -2.69502 3.13276 1.12939
# Velocity P-wave (km/s) = 3.35700 6.06528 4.90189
#
# Compressibility (1/GPa) = 0.02983309
#
# Stress axis : x y z
#
# Youngs Moduli (GPa) = 79.02528 33.80165 49.50357
#
# Poissons Ratio (x) = 0.23742 0.12702
# Poissons Ratio (y) = 0.55506 0.33233
# Poissons Ratio (z) = 0.20277 0.22692
#
# Static dielectric constant tensor:
#      x y z
#    x 1.599520 0.000000 0.000000 
#    y 0.000000 1.527560 0.000000 
#    z 0.000000 0.000000 1.518210 
# 
# From -- ./inp_files/40272.got.cif
#   From: 2010.05.17/outbox.cif.g08.bks.cpg/sg69_21_cif.got.tgz:40272.got - 2010.06.03 19:29:58.
