data_PCOD9511151
_publ_section_title
;
Structure prediction by ZEFSAII (Michael W. Deem and Ramdas Pophale) SiO2 
 PCOD9511151
Probable space group: F M M M
;
_chemical_formula_sum "Si O2"
_cell_formula_units_Z 192
_cell_length_a 14.420497
_cell_length_b 25.902014
_cell_length_c 21.793854
_cell_angle_alpha 90.000000
_cell_angle_beta 90.000000
_cell_angle_gamma 90.000000
_cell_volume 8140.438498
_symmetry_space_group_name_H-M "F M M M"
_symmetry_group_IT_number 69
_symmetry_cell_setting 'orthorhombic'
loop_
_space_group_symop_operation_xyz
x,y,z
-x,-y,z
x,-y,-z
-x,y,-z
-x,-y,-z
x,y,-z
-x,y,z
x,-y,z
x,1/2+y,1/2+z
-x,1/2-y,1/2+z
x,1/2-y,1/2-z
-x,1/2+y,1/2-z
-x,1/2-y,1/2-z
x,1/2+y,1/2-z
-x,1/2+y,1/2+z
x,1/2-y,1/2+z
1/2+x,y,1/2+z
1/2-x,-y,1/2+z
1/2+x,-y,1/2-z
1/2-x,y,1/2-z
1/2-x,-y,1/2-z
1/2+x,y,1/2-z
1/2-x,y,1/2+z
1/2+x,-y,1/2+z
1/2+x,1/2+y,z
1/2-x,1/2-y,z
1/2+x,1/2-y,-z
1/2-x,1/2+y,-z
1/2-x,1/2-y,-z
1/2+x,1/2+y,-z
1/2-x,1/2+y,z
1/2+x,1/2-y,z
loop_
_atom_site_type_symbol
_atom_site_label
_atom_site_fract_x
_atom_site_fract_y
_atom_site_fract_z
Si Si1 0.392527 0.861034 0.338477
Si Si2 0.613140 0.252258 0.321918
Si Si3 0.391001 0.056546 0.905859
Si Si4 0.140439 0.056657 0.739411
Si Si5 0.613238 0.056548 0.570075
Si Si6 0.886707 0.328356 0.932175
O O1 0.500000 0.854523 0.355609
O O2 0.353320 0.804270 0.342370
O O3 0.392685 0.892150 0.274494
O O4 0.348288 0.900422 0.385833
O O5 0.500000 0.254472 0.321038
O O6 0.640261 0.250000 0.250000
O O7 0.641577 0.295415 0.371774
O O8 0.500000 0.055292 0.921802
O O9 0.382761 0.059205 0.832033
O O10 0.356036 0.111704 0.929154
O O11 0.352445 0.000000 0.925020
O O12 0.250000 0.056319 0.750000
O O13 0.105380 0.000000 0.761982
O O14 0.640291 0.063697 0.500000
O O15 0.500000 0.057401 0.571581
O O16 0.641106 0.000000 0.591602
O O17 0.000000 0.328428 0.930533
O O18 0.859874 0.307334 0.000000
#
# Coordination Sequence:
#
# PCOD9511151 Si02
#       6
#    32  32  32  32  32  32
#     4  10  18  28  47  70  91 123 164 197 229 282
#     4   9  17  28  43  66  96 128 162 201 244 287
#     4   9  17  30  50  74  98 127 165 207 250 300
#     4  10  20  32  47  70 100 129 158 201 257 306
#     4   8  14  24  38  60  89 114 140 183 231 266
#     4   9  17  29  47  74 107 136 162 202 255 303
#
# _framework density 23.585953
#
# number of rings (size 3 to 8) (size 9 to 14) (size 15 to 20)
#    0.000    2.833    0.000    2.500    0.000    5.333 
#    0.000    5.000    0.000    5.500    0.000    3.500 
#    0.000    0.000    0.000    0.000    0.000    0.000 
#
# Total GULP energy -267811.655321 kJ/mol
# GULP energy per Si atom -5579.409486 kJ/mol
# Density = 2.353227 g / cm^3
# Si number density = 23.585953 Si / 1000 Ang^3
#
#
#
# Elastic Constant Matrix: (Units=GPa)
#
#
# Indices 1 2 3 4 5 6 
#
# 1 85.5463 1.7283 2.1816 0.0000 0.0000 0.0000
# 2 1.7283 192.3331 94.3083 0.0000 0.0000 0.0000
# 3 2.1816 94.3083 151.7246 0.0000 0.0000 0.0000
# 4 0.0000 0.0000 0.0000 25.0585 0.0000 0.0000
# 5 0.0000 0.0000 0.0000 0.0000 -9.5876 0.0000
# 6 0.0000 0.0000 0.0000 0.0000 0.0000 -12.1169
#
#
#
# Elastic Compliance Matrix: (Units=1/GPa)
#
#
# Indices 1 2 3 4 5 6 
#
# 1 0.011694 -0.000033 -0.000148 0.000000 0.000000 0.000000
# 2 -0.000033 0.007479 -0.004648 0.000000 0.000000 0.000000
# 3 -0.000148 -0.004648 0.009482 0.000000 0.000000 0.000000
# 4 0.000000 0.000000 0.000000 0.039907 0.000000 0.000000
# 5 0.000000 0.000000 0.000000 0.000000 -0.104302 0.000000
# 6 0.000000 0.000000 0.000000 0.000000 0.000000 -0.082529
#
#
# Mechanical properties :
#
#
# Convention : Reuss Voigt Hill
#
# Bulk Modulus (GPa) = 52.63786 69.56005 61.09895
# Shear Modulus (GPa) = -48.88561 22.76318 -13.06121
#
# Velocity S-wave (km/s) = -4.55758 3.11000 -2.35579
# Velocity P-wave (km/s) = 2.30858 6.51555 4.30829
#
# Compressibility (1/GPa) = 0.01899773
#
# Stress axis : x y z
#
# Youngs Moduli (GPa) = 85.51393 133.71166 105.46073
#
# Poissons Ratio (x) = 0.00435 0.01560
# Poissons Ratio (y) = 0.00278 0.49020
# Poissons Ratio (z) = 0.01265 0.62151
#
# Static dielectric constant tensor:
#      x y z
#    x 1.888600 0.000000 0.000000 
#    y 0.000000 1.886940 0.000000 
#    z 0.000000 0.000000 1.910640 
# 
# From -- ./inp_files/32125.got.cif
#   From: 2010.05.17/outbox.cif.g08.bks.cpg/sg69_17_cif.got.tgz:32125.got - 2010.06.03 19:29:58.
