data_PCOD9511254
_publ_section_title
;
Structure prediction by ZEFSAII (Michael W. Deem and Ramdas Pophale) SiO2 
 PCOD9511254
Probable space group: F M M M
;
_chemical_formula_sum "Si O2"
_cell_formula_units_Z 160
_cell_length_a 22.417832
_cell_length_b 19.649030
_cell_length_c 14.804243
_cell_angle_alpha 90.000000
_cell_angle_beta 90.000000
_cell_angle_gamma 90.000000
_cell_volume 6521.101065
_symmetry_space_group_name_H-M "F M M M"
_symmetry_group_IT_number 69
_symmetry_cell_setting 'orthorhombic'
loop_
_space_group_symop_operation_xyz
x,y,z
-x,-y,z
x,-y,-z
-x,y,-z
-x,-y,-z
x,y,-z
-x,y,z
x,-y,z
x,1/2+y,1/2+z
-x,1/2-y,1/2+z
x,1/2-y,1/2-z
-x,1/2+y,1/2-z
-x,1/2-y,1/2-z
x,1/2+y,1/2-z
-x,1/2+y,1/2+z
x,1/2-y,1/2+z
1/2+x,y,1/2+z
1/2-x,-y,1/2+z
1/2+x,-y,1/2-z
1/2-x,y,1/2-z
1/2-x,-y,1/2-z
1/2+x,y,1/2-z
1/2-x,y,1/2+z
1/2+x,-y,1/2+z
1/2+x,1/2+y,z
1/2-x,1/2-y,z
1/2+x,1/2-y,-z
1/2-x,1/2+y,-z
1/2-x,1/2-y,-z
1/2+x,1/2+y,-z
1/2-x,1/2+y,z
1/2+x,1/2-y,z
loop_
_atom_site_type_symbol
_atom_site_label
_atom_site_fract_x
_atom_site_fract_y
_atom_site_fract_z
Si Si1 0.064175 0.280073 0.651252
Si Si2 0.899604 0.074592 0.890554
Si Si3 0.164861 0.818202 0.607407
Si Si4 0.433413 0.576655 0.610206
Si Si5 0.739682 0.076308 0.389883
O O1 0.060632 0.250000 0.750000
O O2 0.067220 0.360946 0.648125
O O3 0.129585 0.252961 0.619433
O O4 0.000000 0.259598 0.605567
O O5 0.829703 0.079131 0.865539
O O6 0.922037 0.000000 0.863588
O O7 0.903214 0.078762 0.000000
O O8 0.172071 0.821429 0.500000
O O9 0.114734 0.870516 0.641069
O O10 0.225060 0.855703 0.642013
O O11 0.433023 0.578494 0.500000
O O12 0.500000 0.593197 0.639731
O O13 0.418813 0.500000 0.636410
O O14 0.742430 0.075627 0.500000
O O15 0.762858 0.000000 0.362389
#
# Coordination Sequence:
#
# PCOD9511254 Si02
#       5
#    32  32  32  32  32
#     4  11  25  42  56  77 115 155 190 240 307 365
#     4   9  19  39  67  93 115 147 199 255 295 337
#     4  10  18  30  53  81 110 146 186 228 280 348
#     4   8  13  21  36  63  98 133 171 212 248 293
#     4   8  15  30  55  89 123 149 180 231 290 340
#
# _framework density 24.535733
#
# number of rings (size 3 to 8) (size 9 to 14) (size 15 to 20)
#    0.000    2.800    0.000    3.600    0.000    6.000 
#    0.000    8.000    0.000    4.800    0.000    0.000 
#    0.000    0.000    0.000    0.000    0.000    0.000 
#
# Total GULP energy -223044.644144 kJ/mol
# GULP energy per Si atom -5576.116104 kJ/mol
# Density = 2.447989 g / cm^3
# Si number density = 24.535733 Si / 1000 Ang^3
#
#
#
# Elastic Constant Matrix: (Units=GPa)
#
#
# Indices 1 2 3 4 5 6 
#
# 1 78.1210 59.1964 16.1149 0.0000 0.0000 0.0000
# 2 59.1964 168.5517 16.4457 0.0000 0.0000 0.0000
# 3 16.1149 16.4457 55.1410 0.0000 0.0000 0.0000
# 4 0.0000 0.0000 0.0000 0.6309 0.0000 0.0000
# 5 0.0000 0.0000 0.0000 0.0000 26.6014 0.0000
# 6 0.0000 0.0000 0.0000 0.0000 0.0000 28.4541
#
#
#
# Elastic Compliance Matrix: (Units=1/GPa)
#
#
# Indices 1 2 3 4 5 6 
#
# 1 0.018072 -0.006006 -0.003490 0.000000 0.000000 0.000000
# 2 -0.006006 0.008107 -0.000663 0.000000 0.000000 0.000000
# 3 -0.003490 -0.000663 0.019353 0.000000 0.000000 0.000000
# 4 0.000000 0.000000 0.000000 1.584953 0.000000 0.000000
# 5 0.000000 0.000000 0.000000 0.000000 0.037592 0.000000
# 6 0.000000 0.000000 0.000000 0.000000 0.000000 0.035144
#
#
# Mechanical properties :
#
#
# Convention : Reuss Voigt Hill
#
# Bulk Modulus (GPa) = 39.66089 53.92529 46.79309
# Shear Modulus (GPa) = 2.88693 25.14106 14.01399
#
# Velocity S-wave (km/s) = 1.08590 3.20452 2.39250
# Velocity P-wave (km/s) = 4.21567 5.97645 5.17155
#
# Compressibility (1/GPa) = 0.02521376
#
# Stress axis : x y z
#
# Youngs Moduli (GPa) = 55.33411 123.34928 51.67189
#
# Poissons Ratio (x) = 0.74090 0.18034
# Poissons Ratio (y) = 0.33236 0.03423
# Poissons Ratio (z) = 0.19312 0.08172
#
# Static dielectric constant tensor:
#      x y z
#    x 1.975740 0.000000 0.000000 
#    y 0.000000 1.989720 0.000000 
#    z 0.000000 0.000000 1.968220 
# 
# From -- ./inp_files/31736.got.cif
#   From: 2010.05.17/outbox.cif.g08.bks.cpg/sg69_16_cif.got.tgz:31736.got - 2010.06.03 19:29:58.
