data_PCOD9511683
_publ_section_title
;
Structure prediction by ZEFSAII (Michael W. Deem and Ramdas Pophale) SiO2 
 PCOD9511683
Probable space group: F M M M
;
_chemical_formula_sum "Si O2"
_cell_formula_units_Z 160
_cell_length_a 17.945016
_cell_length_b 22.970718
_cell_length_c 21.964569
_cell_angle_alpha 90.000000
_cell_angle_beta 90.000000
_cell_angle_gamma 90.000000
_cell_volume 9054.012836
_symmetry_space_group_name_H-M "F M M M"
_symmetry_group_IT_number 69
_symmetry_cell_setting 'orthorhombic'
loop_
_space_group_symop_operation_xyz
x,y,z
-x,-y,z
x,-y,-z
-x,y,-z
-x,-y,-z
x,y,-z
-x,y,z
x,-y,z
x,1/2+y,1/2+z
-x,1/2-y,1/2+z
x,1/2-y,1/2-z
-x,1/2+y,1/2-z
-x,1/2-y,1/2-z
x,1/2+y,1/2-z
-x,1/2+y,1/2+z
x,1/2-y,1/2+z
1/2+x,y,1/2+z
1/2-x,-y,1/2+z
1/2+x,-y,1/2-z
1/2-x,y,1/2-z
1/2-x,-y,1/2-z
1/2+x,y,1/2-z
1/2-x,y,1/2+z
1/2+x,-y,1/2+z
1/2+x,1/2+y,z
1/2-x,1/2-y,z
1/2+x,1/2-y,-z
1/2-x,1/2+y,-z
1/2-x,1/2-y,-z
1/2+x,1/2+y,-z
1/2-x,1/2+y,z
1/2+x,1/2-y,z
loop_
_atom_site_type_symbol
_atom_site_label
_atom_site_fract_x
_atom_site_fract_y
_atom_site_fract_z
Si Si1 0.224002 0.568967 0.929701
Si Si2 0.697346 0.845486 0.341978
Si Si3 0.917134 0.353531 0.899606
Si Si4 0.851666 0.186268 0.720086
Si Si5 0.412848 0.278436 0.068746
O O1 0.219320 0.500000 0.920655
O O2 0.279410 0.599387 0.881987
O O3 0.144899 0.600237 0.917900
O O4 0.245899 0.580095 0.000000
O O5 0.774287 0.815191 0.318650
O O6 0.656545 0.856143 0.277896
O O7 0.644890 0.805797 0.384022
O O8 0.910774 0.336484 0.828219
O O9 0.902979 0.291201 0.930978
O O10 0.000000 0.373437 0.914816
O O11 0.864196 0.250000 0.750000
O O12 0.500000 0.289454 0.085068
O O13 0.400126 0.300130 0.000000
#
# Coordination Sequence:
#
# PCOD9511683 Si02
#       5
#    32  32  32  32  32
#     4  10  22  38  56  77 101 139 185 222 263 308
#     4  10  19  33  54  77 106 136 173 223 263 310
#     4  10  21  35  52  78 110 142 175 211 258 317
#     4  10  19  32  52  80 110 139 172 208 260 323
#     4  10  20  32  50  79 111 140 170 211 269 326
#
# _framework density 17.671721999999999
#
# number of rings (size 3 to 8) (size 9 to 14) (size 15 to 20)
#    0.000    2.000    2.000    2.400    2.800    2.800 
#    0.000   12.000    0.000    0.600    0.000    2.800 
#    0.000    0.000    0.000    0.000    0.000    0.000 
#
# Total GULP energy -223013.847205 kJ/mol
# GULP energy per Si atom -5575.346180 kJ/mol
# Density = 1.763150 g / cm^3
# Si number density = 17.671722 Si / 1000 Ang^3
#
#
#
# Elastic Constant Matrix: (Units=GPa)
#
#
# Indices 1 2 3 4 5 6 
#
# 1 58.3703 31.4088 44.7498 0.0000 0.0000 0.0000
# 2 31.4088 76.1005 48.0769 0.0000 0.0000 0.0000
# 3 44.7498 48.0769 130.4398 0.0000 0.0000 0.0000
# 4 0.0000 0.0000 0.0000 22.7122 0.0000 0.0000
# 5 0.0000 0.0000 0.0000 0.0000 14.5775 0.0000
# 6 0.0000 0.0000 0.0000 0.0000 0.0000 14.9790
#
#
#
# Elastic Compliance Matrix: (Units=1/GPa)
#
#
# Indices 1 2 3 4 5 6 
#
# 1 0.025505 -0.006516 -0.006348 0.000000 0.000000 0.000000
# 2 -0.006516 0.018794 -0.004691 0.000000 0.000000 0.000000
# 3 -0.006348 -0.004691 0.011573 0.000000 0.000000 0.000000
# 4 0.000000 0.000000 0.000000 0.044029 0.000000 0.000000
# 5 0.000000 0.000000 0.000000 0.000000 0.068599 0.000000
# 6 0.000000 0.000000 0.000000 0.000000 0.000000 0.066760
#
#
# Mechanical properties :
#
#
# Convention : Reuss Voigt Hill
#
# Bulk Modulus (GPa) = 48.16815 57.04240 52.60527
# Shear Modulus (GPa) = 18.03148 19.83208 18.93178
#
# Velocity S-wave (km/s) = 3.19777 3.35363 3.27663
# Velocity P-wave (km/s) = 6.39927 6.88076 6.64438
#
# Compressibility (1/GPa) = 0.02076061
#
# Stress axis : x y z
#
# Youngs Moduli (GPa) = 39.20758 53.20916 86.40473
#
# Poissons Ratio (x) = 0.34672 0.54853
# Poissons Ratio (y) = 0.25548 0.40536
# Poissons Ratio (z) = 0.24890 0.24963
#
# Static dielectric constant tensor:
#      x y z
#    x 1.622970 0.000000 0.000000 
#    y 0.000000 1.571200 0.000000 
#    z 0.000000 0.000000 1.646090 
# 
# From -- ./inp_files/30798.got.cif
#   From: 2010.05.17/outbox.cif.g08.bks.cpg/sg69_16_cif.got.tgz:30798.got - 2010.06.03 19:29:58.
