data_PCOD9511042
_publ_section_title
;
Structure prediction by ZEFSAII (Michael W. Deem and Ramdas Pophale) SiO2 
 PCOD9511042
Probable space group: F M M M
;
_chemical_formula_sum "Si O2"
_cell_formula_units_Z 128
_cell_length_a 23.881563
_cell_length_b 17.981498
_cell_length_c 16.634591
_cell_angle_alpha 90.000000
_cell_angle_beta 90.000000
_cell_angle_gamma 90.000000
_cell_volume 7143.330488
_symmetry_space_group_name_H-M "F M M M"
_symmetry_group_IT_number 69
_symmetry_cell_setting 'orthorhombic'
loop_
_space_group_symop_operation_xyz
x,y,z
-x,-y,z
x,-y,-z
-x,y,-z
-x,-y,-z
x,y,-z
-x,y,z
x,-y,z
x,1/2+y,1/2+z
-x,1/2-y,1/2+z
x,1/2-y,1/2-z
-x,1/2+y,1/2-z
-x,1/2-y,1/2-z
x,1/2+y,1/2-z
-x,1/2+y,1/2+z
x,1/2-y,1/2+z
1/2+x,y,1/2+z
1/2-x,-y,1/2+z
1/2+x,-y,1/2-z
1/2-x,y,1/2-z
1/2-x,-y,1/2-z
1/2+x,y,1/2-z
1/2-x,y,1/2+z
1/2+x,-y,1/2+z
1/2+x,1/2+y,z
1/2-x,1/2-y,z
1/2+x,1/2-y,-z
1/2-x,1/2+y,-z
1/2-x,1/2-y,-z
1/2+x,1/2+y,-z
1/2-x,1/2+y,z
1/2+x,1/2-y,z
loop_
_atom_site_type_symbol
_atom_site_label
_atom_site_fract_x
_atom_site_fract_y
_atom_site_fract_z
Si Si1 0.325635 0.215882 0.407996
Si Si2 0.884174 0.917953 0.596416
Si Si3 0.936203 0.264181 0.845261
Si Si4 0.271263 0.638617 0.660237
O O1 0.318981 0.240764 0.500000
O O2 0.390734 0.210922 0.387609
O O3 0.302255 0.281145 0.350106
O O4 0.285100 0.146565 0.392394
O O5 0.883523 0.908524 0.500000
O O6 0.917970 0.848771 0.633551
O O7 0.820219 0.914000 0.628429
O O8 0.907399 0.000000 0.614922
O O9 0.932551 0.250000 0.750000
O O10 0.000000 0.251968 0.871283
O O11 0.250000 0.624658 0.750000
#
# Coordination Sequence:
#
# PCOD9511042 Si02
#       4
#    32  32  32  32
#     4  10  17  27  46  70  96 128 168 211 252 295
#     4  10  21  36  53  76 108 141 173 213 261 313
#     4  10  20  34  51  72 100 134 173 215 258 307
#     4  10  17  28  46  68  98 131 166 204 249 302
#
# _framework density 17.918811999999999
#
# number of rings (size 3 to 8) (size 9 to 14) (size 15 to 20)
#    0.000    2.000    0.000    9.750    0.000    3.000 
#    0.000    1.250    0.000    0.000    0.000    0.000 
#    0.000    3.000    0.000   36.750    0.000    0.000 
#
# Total GULP energy -178241.455285 kJ/mol
# GULP energy per Si atom -5570.045478 kJ/mol
# Density = 1.787803 g / cm^3
# Si number density = 17.918812 Si / 1000 Ang^3
#
#
#
# Elastic Constant Matrix: (Units=GPa)
#
#
# Indices 1 2 3 4 5 6 
#
# 1 138.6066 13.1454 25.8341 0.0000 0.0000 0.0000
# 2 13.1454 28.9617 18.6324 0.0000 0.0000 0.0000
# 3 25.8341 18.6324 72.4355 0.0000 0.0000 0.0000
# 4 0.0000 0.0000 0.0000 -0.6796 0.0000 0.0000
# 5 0.0000 0.0000 0.0000 0.0000 -28.6625 0.0000
# 6 0.0000 0.0000 0.0000 0.0000 0.0000 14.5769
#
#
#
# Elastic Compliance Matrix: (Units=1/GPa)
#
#
# Indices 1 2 3 4 5 6 
#
# 1 0.007834 -0.002107 -0.002252 0.000000 0.000000 0.000000
# 2 -0.002107 0.041942 -0.010037 0.000000 0.000000 0.000000
# 3 -0.002252 -0.010037 0.017190 0.000000 0.000000 0.000000
# 4 0.000000 0.000000 0.000000 -1.471454 0.000000 0.000000
# 5 0.000000 0.000000 0.000000 0.000000 -0.034889 0.000000
# 6 0.000000 0.000000 0.000000 0.000000 0.000000 0.068602
#
#
# Mechanical properties :
#
#
# Convention : Reuss Voigt Hill
#
# Bulk Modulus (GPa) = 26.19575 39.46976 32.83276
# Shear Modulus (GPa) = -3.76150 9.20643 2.72246
#
# Velocity S-wave (km/s) = -1.45043 2.26914 1.23395
# Velocity P-wave (km/s) = 3.44178 5.37961 4.51586
#
# Compressibility (1/GPa) = 0.03817413
#
# Stress axis : x y z
#
# Youngs Moduli (GPa) = 127.64470 23.84242 58.17187
#
# Poissons Ratio (x) = 0.05024 0.13101
# Poissons Ratio (y) = 0.26895 0.58388
# Poissons Ratio (z) = 0.28747 0.23931
#
# Static dielectric constant tensor:
#      x y z
#    x 1.669080 0.000000 0.000000 
#    y 0.000000 1.641310 0.000000 
#    z 0.000000 0.000000 1.615770 
# 
# From -- ./inp_files/22729.got.cif
#   From: 2010.05.17/outbox.cif.g08.bks.cpg/sg69_12_cif.got.tgz:22729.got - 2010.06.03 19:29:58.
