data_PCOD9511439
_publ_section_title
;
Structure prediction by ZEFSAII (Michael W. Deem and Ramdas Pophale) SiO2 
 PCOD9511439
Probable space group: F M M M
;
_chemical_formula_sum "Si O2"
_cell_formula_units_Z 136
_cell_length_a 22.799641
_cell_length_b 18.482422
_cell_length_c 17.221331
_cell_angle_alpha 90.000000
_cell_angle_beta 90.000000
_cell_angle_gamma 90.000000
_cell_volume 7256.941212
_symmetry_space_group_name_H-M "F M M M"
_symmetry_group_IT_number 69
_symmetry_cell_setting 'orthorhombic'
loop_
_space_group_symop_operation_xyz
x,y,z
-x,-y,z
x,-y,-z
-x,y,-z
-x,-y,-z
x,y,-z
-x,y,z
x,-y,z
x,1/2+y,1/2+z
-x,1/2-y,1/2+z
x,1/2-y,1/2-z
-x,1/2+y,1/2-z
-x,1/2-y,1/2-z
x,1/2+y,1/2-z
-x,1/2+y,1/2+z
x,1/2-y,1/2+z
1/2+x,y,1/2+z
1/2-x,-y,1/2+z
1/2+x,-y,1/2-z
1/2-x,y,1/2-z
1/2-x,-y,1/2-z
1/2+x,y,1/2-z
1/2-x,y,1/2+z
1/2+x,-y,1/2+z
1/2+x,1/2+y,z
1/2-x,1/2-y,z
1/2+x,1/2-y,-z
1/2-x,1/2+y,-z
1/2-x,1/2-y,-z
1/2+x,1/2+y,-z
1/2-x,1/2+y,z
1/2+x,1/2-y,z
loop_
_atom_site_type_symbol
_atom_site_label
_atom_site_fract_x
_atom_site_fract_y
_atom_site_fract_z
Si Si1 0.108755 0.165140 0.240166
Si Si2 0.121934 0.916893 0.500000
Si Si3 0.171660 0.823216 0.910416
Si Si4 0.804202 0.155070 0.627615
Si Si5 0.000000 0.582551 0.816360
Si Si6 0.500000 0.386364 0.500000
O O1 0.094667 0.250000 0.250000
O O2 0.122053 0.151829 0.149831
O O3 0.169593 0.151501 0.286359
O O4 0.057365 0.121109 0.281416
O O5 0.161284 0.901528 0.574531
O O6 0.067560 0.860393 0.500000
O O7 0.099572 0.000000 0.500000
O O8 0.179082 0.736003 0.902070
O O9 0.235085 0.853167 0.883845
O O10 0.160881 0.840945 0.000000
O O11 0.000000 0.500000 0.791466
O O12 0.000000 0.583630 0.910652
#
# Coordination Sequence:
#
# PCOD9511439 Si02
#       6
#    32  16  32  32  16   8
#     4  10  22  36  58  86 117 146 192 238 283 336
#     4  12  21  33  55  87 116 146 182 228 287 353
#     4  10  18  34  59  84 114 148 187 231 283 331
#     4  10  18  34  56  87 117 146 179 230 287 342
#     4  12  24  41  60  82 115 155 191 234 292 348
#     4  12  25  38  60  84 114 154 185 228 295 354
#
# _framework density 18.740677999999999
#
# number of rings (size 3 to 8) (size 9 to 14) (size 15 to 20)
#    0.000    1.412    4.706    2.824    0.000    2.824 
#    0.000    1.765    0.000    3.529    0.000    0.000 
#    0.000    0.000    0.000    0.000    0.000    0.000 
#
# Total GULP energy -189467.892584 kJ/mol
# GULP energy per Si atom -5572.585076 kJ/mol
# Density = 1.869802 g / cm^3
# Si number density = 18.740678 Si / 1000 Ang^3
#
#
#
# Elastic Constant Matrix: (Units=GPa)
#
#
# Indices 1 2 3 4 5 6 
#
# 1 92.7958 31.3352 63.4013 0.0000 0.0000 0.0000
# 2 31.3352 40.6812 37.3864 0.0000 0.0000 0.0000
# 3 63.4013 37.3864 159.9984 0.0000 0.0000 0.0000
# 4 0.0000 0.0000 0.0000 7.0132 0.0000 0.0000
# 5 0.0000 0.0000 0.0000 0.0000 35.5568 0.0000
# 6 0.0000 0.0000 0.0000 0.0000 0.0000 7.3324
#
#
#
# Elastic Compliance Matrix: (Units=1/GPa)
#
#
# Indices 1 2 3 4 5 6 
#
# 1 0.016912 -0.008746 -0.004658 0.000000 0.000000 0.000000
# 2 -0.008746 0.035827 -0.004906 0.000000 0.000000 0.000000
# 3 -0.004658 -0.004906 0.009242 0.000000 0.000000 0.000000
# 4 0.000000 0.000000 0.000000 0.142589 0.000000 0.000000
# 5 0.000000 0.000000 0.000000 0.000000 0.028124 0.000000
# 6 0.000000 0.000000 0.000000 0.000000 0.000000 0.136381
#
#
# Mechanical properties :
#
#
# Convention : Reuss Voigt Hill
#
# Bulk Modulus (GPa) = 39.43020 61.96902 50.69961
# Shear Modulus (GPa) = 12.07296 20.73730 16.40513
#
# Velocity S-wave (km/s) = 2.54089 3.33008 2.96188
# Velocity P-wave (km/s) = 5.44919 6.92273 6.22969
#
# Compressibility (1/GPa) = 0.02536127
#
# Stress axis : x y z
#
# Youngs Moduli (GPa) = 59.12883 27.91226 108.19978
#
# Poissons Ratio (x) = 0.24412 0.50399
# Poissons Ratio (y) = 0.51715 0.53080
# Poissons Ratio (z) = 0.27542 0.13693
#
# Static dielectric constant tensor:
#      x y z
#    x 1.641790 0.000000 0.000000 
#    y 0.000000 1.634720 0.000000 
#    z 0.000000 0.000000 1.656580 
# 
# From -- ./inp_files/24235.got.cif
#   From: 2010.05.17/outbox.cif.g08.bks.cpg/sg69_13_cif.got.tgz:24235.got - 2010.06.03 19:29:58.
