data_PCOD9511907
_publ_section_title
;
Structure prediction by ZEFSAII (Michael W. Deem and Ramdas Pophale) SiO2 
 PCOD9511907
Probable space group: F M M M
;
_chemical_formula_sum "Si O2"
_cell_formula_units_Z 128
_cell_length_a 16.256975
_cell_length_b 20.290989
_cell_length_c 20.881947
_cell_angle_alpha 90.000000
_cell_angle_beta 90.000000
_cell_angle_gamma 90.000000
_cell_volume 6888.329964
_symmetry_space_group_name_H-M "F M M M"
_symmetry_group_IT_number 69
_symmetry_cell_setting 'orthorhombic'
loop_
_space_group_symop_operation_xyz
x,y,z
-x,-y,z
x,-y,-z
-x,y,-z
-x,-y,-z
x,y,-z
-x,y,z
x,-y,z
x,1/2+y,1/2+z
-x,1/2-y,1/2+z
x,1/2-y,1/2-z
-x,1/2+y,1/2-z
-x,1/2-y,1/2-z
x,1/2+y,1/2-z
-x,1/2+y,1/2+z
x,1/2-y,1/2+z
1/2+x,y,1/2+z
1/2-x,-y,1/2+z
1/2+x,-y,1/2-z
1/2-x,y,1/2-z
1/2-x,-y,1/2-z
1/2+x,y,1/2-z
1/2-x,y,1/2+z
1/2+x,-y,1/2+z
1/2+x,1/2+y,z
1/2-x,1/2-y,z
1/2+x,1/2-y,-z
1/2-x,1/2+y,-z
1/2-x,1/2-y,-z
1/2+x,1/2+y,-z
1/2-x,1/2+y,z
1/2+x,1/2-y,z
loop_
_atom_site_type_symbol
_atom_site_label
_atom_site_fract_x
_atom_site_fract_y
_atom_site_fract_z
Si Si1 0.250000 0.250000 0.608061
Si Si2 0.910389 0.705935 0.687176
Si Si3 0.591537 0.500000 0.577018
Si Si4 0.770497 0.602386 0.072912
Si Si5 0.825634 0.074534 0.201204
O O1 0.168859 0.269811 0.647995
O O2 0.226193 0.181752 0.573473
O O3 0.912482 0.750000 0.750000
O O4 0.893095 0.630807 0.707537
O O5 0.000000 0.711120 0.654403
O O6 0.500000 0.500000 0.604754
O O7 0.584342 0.500000 0.500000
O O8 0.645267 0.435128 0.592044
O O9 0.707730 0.580410 0.128276
O O10 0.749539 0.581836 0.000000
O O11 0.750000 0.088892 0.250000
O O12 0.852968 0.000000 0.213811
#
# Coordination Sequence:
#
# PCOD9511907 Si02
#       5
#    16  32  16  32  32
#     4  10  20  34  56  82 113 148 187 242 281 334
#     4  10  20  35  56  81 112 150 188 228 284 345
#     4   9  18  32  51  78 113 149 185 230 280 334
#     4  10  19  34  56  82 109 149 192 226 278 345
#     4  10  20  35  57  81 111 144 185 233 282 330
#
# _framework density 18.582153000000002
#
# number of rings (size 3 to 8) (size 9 to 14) (size 15 to 20)
#    0.000    2.125    1.250    3.750    0.000    1.500 
#    0.000    1.250    0.000   18.000    0.000    7.000 
#    0.000    0.000    0.000    0.000    0.000    0.000 
#
# Total GULP energy -178231.832667 kJ/mol
# GULP energy per Si atom -5569.744771 kJ/mol
# Density = 1.853986 g / cm^3
# Si number density = 18.582153 Si / 1000 Ang^3
#
#
#
# Elastic Constant Matrix: (Units=GPa)
#
#
# Indices 1 2 3 4 5 6 
#
# 1 118.8436 55.5807 26.9686 0.0000 0.0000 0.0000
# 2 55.5807 130.2216 17.6132 0.0000 0.0000 0.0000
# 3 26.9686 17.6132 60.7434 0.0000 0.0000 0.0000
# 4 0.0000 0.0000 0.0000 17.6265 0.0000 0.0000
# 5 0.0000 0.0000 0.0000 0.0000 -38.9166 0.0000
# 6 0.0000 0.0000 0.0000 0.0000 0.0000 -52.3235
#
#
#
# Elastic Compliance Matrix: (Units=1/GPa)
#
#
# Indices 1 2 3 4 5 6 
#
# 1 0.011282 -0.004307 -0.003760 0.000000 0.000000 0.000000
# 2 -0.004307 0.009637 -0.000882 0.000000 0.000000 0.000000
# 3 -0.003760 -0.000882 0.018388 0.000000 0.000000 0.000000
# 4 0.000000 0.000000 0.000000 0.056733 0.000000 0.000000
# 5 0.000000 0.000000 0.000000 0.000000 -0.025696 0.000000
# 6 0.000000 0.000000 0.000000 0.000000 0.000000 -0.019112
#
#
# Mechanical properties :
#
#
# Convention : Reuss Voigt Hill
#
# Bulk Modulus (GPa) = 46.71051 56.68149 51.69600
# Shear Modulus (GPa) = 65.56067 -0.74629 32.40719
#
# Velocity S-wave (km/s) = 5.94627 -0.63442 4.18065
# Velocity P-wave (km/s) = 8.50506 5.48022 7.15433
#
# Compressibility (1/GPa) = 0.02140846
#
# Stress axis : x y z
#
# Youngs Moduli (GPa) = 88.63812 103.76985 54.38369
#
# Poissons Ratio (x) = 0.44691 0.20449
# Poissons Ratio (y) = 0.38174 0.04798
# Poissons Ratio (z) = 0.33329 0.09155
#
# Static dielectric constant tensor:
#      x y z
#    x 1.664450 0.000000 0.000000 
#    y 0.000000 1.672330 0.000000 
#    z 0.000000 0.000000 1.655940 
# 
# From -- ./inp_files/29662.got.cif
#   From: 2010.05.17/outbox.cif.g08.bks.cpg/sg69_15_cif.got.tgz:29662.got - 2010.06.03 19:29:58.
