data_PCOD9511405
_publ_section_title
;
Structure prediction by ZEFSAII (Michael W. Deem and Ramdas Pophale) SiO2 
 PCOD9511405
Probable space group: F M M M
;
_chemical_formula_sum "Si O2"
_cell_formula_units_Z 132
_cell_length_a 8.721772
_cell_length_b 33.988738
_cell_length_c 25.376384
_cell_angle_alpha 90.000000
_cell_angle_beta 90.000000
_cell_angle_gamma 90.000000
_cell_volume 7522.626620
_symmetry_space_group_name_H-M "F M M M"
_symmetry_group_IT_number 69
_symmetry_cell_setting 'orthorhombic'
loop_
_space_group_symop_operation_xyz
x,y,z
-x,-y,z
x,-y,-z
-x,y,-z
-x,-y,-z
x,y,-z
-x,y,z
x,-y,z
x,1/2+y,1/2+z
-x,1/2-y,1/2+z
x,1/2-y,1/2-z
-x,1/2+y,1/2-z
-x,1/2-y,1/2-z
x,1/2+y,1/2-z
-x,1/2+y,1/2+z
x,1/2-y,1/2+z
1/2+x,y,1/2+z
1/2-x,-y,1/2+z
1/2+x,-y,1/2-z
1/2-x,y,1/2-z
1/2-x,-y,1/2-z
1/2+x,y,1/2-z
1/2-x,y,1/2+z
1/2+x,-y,1/2+z
1/2+x,1/2+y,z
1/2-x,1/2-y,z
1/2+x,1/2-y,-z
1/2-x,1/2+y,-z
1/2-x,1/2-y,-z
1/2+x,1/2+y,-z
1/2-x,1/2+y,z
1/2+x,1/2-y,z
loop_
_atom_site_type_symbol
_atom_site_label
_atom_site_fract_x
_atom_site_fract_y
_atom_site_fract_z
Si Si1 0.818073 0.626755 0.902250
Si Si2 0.170154 0.582361 0.500000
Si Si3 0.817385 0.081090 0.808748
Si Si4 0.177591 0.208508 0.063645
Si Si5 0.500000 0.500000 0.000000
Si Si6 0.183520 0.500000 0.809542
O O1 0.736469 0.614683 0.848045
O O2 0.771867 0.671058 0.916842
O O3 0.000000 0.622717 0.897352
O O4 0.756653 0.598072 0.948475
O O5 0.131661 0.535845 0.500000
O O6 0.000000 0.601944 0.500000
O O7 0.750000 0.086154 0.750000
O O8 0.749363 0.040299 0.832369
O O9 0.000000 0.077940 0.805592
O O10 0.250000 0.250000 0.080768
O O11 0.000000 0.205594 0.079976
O O12 0.181903 0.207785 0.000000
O O13 0.250000 0.500000 0.750000
O O14 0.000000 0.500000 0.808879
#
# Coordination Sequence:
#
# PCOD9511405 Si02
#       6
#    32  16  32  32   4  16
#     4  12  23  37  60  88 120 157 199 247 297 356
#     4  10  21  41  58  82 112 157 201 242 292 349
#     4  11  22  38  58  83 114 152 198 249 301 351
#     4  10  20  35  58  88 121 153 190 239 298 355
#     4   8  24  40  62  76 124 156 210 236 296 362
#     4  10  18  33  54  79 108 140 188 245 296 341
#
# _framework density 17.547063999999999
#
# number of rings (size 3 to 8) (size 9 to 14) (size 15 to 20)
#    0.364    0.970    1.212    8.000    0.000    1.939 
#    0.000    2.424    0.000    0.727    0.000    5.091 
#    0.000    0.000    0.000    0.000    0.000    0.000 
#
# Total GULP energy -183968.876361 kJ/mol
# GULP energy per Si atom -5574.814435 kJ/mol
# Density = 1.750713 g / cm^3
# Si number density = 17.547064 Si / 1000 Ang^3
#
#
#
# Elastic Constant Matrix: (Units=GPa)
#
#
# Indices 1 2 3 4 5 6 
#
# 1 173.9023 41.7136 36.6209 0.0000 0.0000 0.0000
# 2 41.7136 126.5373 34.7202 0.0000 0.0000 0.0000
# 3 36.6209 34.7202 65.2808 0.0000 0.0000 0.0000
# 4 0.0000 0.0000 0.0000 16.0120 0.0000 0.0000
# 5 0.0000 0.0000 0.0000 0.0000 24.8631 0.0000
# 6 0.0000 0.0000 0.0000 0.0000 0.0000 30.6438
#
#
#
# Elastic Compliance Matrix: (Units=1/GPa)
#
#
# Indices 1 2 3 4 5 6 
#
# 1 0.006721 -0.001383 -0.003035 0.000000 0.000000 0.000000
# 2 -0.001383 0.009538 -0.004297 0.000000 0.000000 0.000000
# 3 -0.003035 -0.004297 0.019306 0.000000 0.000000 0.000000
# 4 0.000000 0.000000 0.000000 0.062453 0.000000 0.000000
# 5 0.000000 0.000000 0.000000 0.000000 0.040220 0.000000
# 6 0.000000 0.000000 0.000000 0.000000 0.000000 0.032633
#
#
# Mechanical properties :
#
#
# Convention : Reuss Voigt Hill
#
# Bulk Modulus (GPa) = 55.13990 65.75886 60.44938
# Shear Modulus (GPa) = 25.72726 31.14816 28.43771
#
# Velocity S-wave (km/s) = 3.83324 4.21779 4.03010
# Velocity P-wave (km/s) = 7.14729 7.82795 7.49535
#
# Compressibility (1/GPa) = 0.01813569
#
# Stress axis : x y z
#
# Youngs Moduli (GPa) = 148.78364 104.84679 51.79655
#
# Poissons Ratio (x) = 0.14500 0.15720
# Poissons Ratio (y) = 0.20576 0.22257
# Poissons Ratio (z) = 0.45154 0.45052
#
# Static dielectric constant tensor:
#      x y z
#    x 1.592340 0.000000 0.000000 
#    y 0.000000 1.621390 0.000000 
#    z 0.000000 0.000000 1.616510 
# 
# From -- ./inp_files/39712.got.cif
#   From: 2010.05.17/outbox.cif.g08.bks.cpg/sg69_20_cif.got.tgz:39712.got - 2010.06.03 19:29:58.
