data_PCOD9511868
_publ_section_title
;
Structure prediction by ZEFSAII (Michael W. Deem and Ramdas Pophale) SiO2 
 PCOD9511868
Probable space group: F M M M
;
_chemical_formula_sum "Si O2"
_cell_formula_units_Z 96
_cell_length_a 15.317208
_cell_length_b 15.931572
_cell_length_c 20.007048
_cell_angle_alpha 90.000000
_cell_angle_beta 90.000000
_cell_angle_gamma 90.000000
_cell_volume 4882.263946
_symmetry_space_group_name_H-M "F M M M"
_symmetry_group_IT_number 69
_symmetry_cell_setting 'orthorhombic'
loop_
_space_group_symop_operation_xyz
x,y,z
-x,-y,z
x,-y,-z
-x,y,-z
-x,-y,-z
x,y,-z
-x,y,z
x,-y,z
x,1/2+y,1/2+z
-x,1/2-y,1/2+z
x,1/2-y,1/2-z
-x,1/2+y,1/2-z
-x,1/2-y,1/2-z
x,1/2+y,1/2-z
-x,1/2+y,1/2+z
x,1/2-y,1/2+z
1/2+x,y,1/2+z
1/2-x,-y,1/2+z
1/2+x,-y,1/2-z
1/2-x,y,1/2-z
1/2-x,-y,1/2-z
1/2+x,y,1/2-z
1/2-x,y,1/2+z
1/2+x,-y,1/2+z
1/2+x,1/2+y,z
1/2-x,1/2-y,z
1/2+x,1/2-y,-z
1/2-x,1/2+y,-z
1/2-x,1/2-y,-z
1/2+x,1/2+y,-z
1/2-x,1/2+y,z
1/2+x,1/2-y,z
loop_
_atom_site_type_symbol
_atom_site_label
_atom_site_fract_x
_atom_site_fract_y
_atom_site_fract_z
Si Si1 0.105550 0.167821 0.788615
Si Si2 0.672186 0.000000 0.926710
Si Si3 0.155443 0.095478 0.075660
Si Si4 0.897182 0.500000 0.781649
O O1 0.137434 0.250000 0.750000
O O2 0.129359 0.158008 0.866257
O O3 0.000000 0.168625 0.784643
O O4 0.139351 0.084009 0.751864
O O5 0.740412 0.922063 0.923600
O O6 0.615651 0.000000 0.860908
O O7 0.629646 0.000000 0.000000
O O8 0.119043 0.000000 0.088970
O O9 0.130244 0.118870 0.000000
O O10 0.000000 0.500000 0.767490
#
# Coordination Sequence:
#
# PCOD9511868 Si02
#       4
#    32  16  32  16
#     4  10  20  33  50  78 111 139 174 217 259 314
#     4   8  17  34  54  76 102 132 175 228 264 308
#     4   8  16  32  55  77 102 135 170 218 273 306
#     4  10  19  34  54  72 102 144 175 212 268 322
#
# _framework density 19.66301
#
# number of rings (size 3 to 8) (size 9 to 14) (size 15 to 20)
#    1.000    2.000    1.667    0.000    0.000    3.667 
#    0.000    6.667    0.000   10.000    0.000    0.000 
#    0.000    0.000    0.000    0.000    0.000    0.000 
#
# Total GULP energy -133616.851230 kJ/mol
# GULP energy per Si atom -5567.368801 kJ/mol
# Density = 1.961826 g / cm^3
# Si number density = 19.663010 Si / 1000 Ang^3
#
#
#
# Elastic Constant Matrix: (Units=GPa)
#
#
# Indices 1 2 3 4 5 6 
#
# 1 17.4523 12.7604 1.8056 0.0000 0.0000 0.0000
# 2 12.7604 119.1208 89.1069 0.0000 0.0000 0.0000
# 3 1.8056 89.1069 175.1213 0.0000 0.0000 0.0000
# 4 0.0000 0.0000 0.0000 33.5935 0.0000 0.0000
# 5 0.0000 0.0000 0.0000 0.0000 34.6802 0.0000
# 6 0.0000 0.0000 0.0000 0.0000 0.0000 -4.9913
#
#
#
# Elastic Compliance Matrix: (Units=1/GPa)
#
#
# Indices 1 2 3 4 5 6 
#
# 1 0.064379 -0.010333 0.004594 0.000000 0.000000 0.000000
# 2 -0.010333 0.015212 -0.007634 0.000000 0.000000 0.000000
# 3 0.004594 -0.007634 0.009547 0.000000 0.000000 0.000000
# 4 0.000000 0.000000 0.000000 0.029768 0.000000 0.000000
# 5 0.000000 0.000000 0.000000 0.000000 0.028835 0.000000
# 6 0.000000 0.000000 0.000000 0.000000 0.000000 -0.200349
#
#
# Mechanical properties :
#
#
# Convention : Reuss Voigt Hill
#
# Bulk Modulus (GPa) = 16.02752 57.67115 36.84934
# Shear Modulus (GPa) = -987.11895 26.52458 -480.29718
#
# Velocity S-wave (km/s) = -22.43007 3.67680 -15.64591
# Velocity P-wave (km/s) = 25.74183 6.88612 17.53886
#
# Compressibility (1/GPa) = 0.06239267
#
# Stress axis : x y z
#
# Youngs Moduli (GPa) = 15.53307 65.73717 104.74187
#
# Poissons Ratio (x) = 0.67924 -0.48116
# Poissons Ratio (y) = 0.16050 0.79958
# Poissons Ratio (z) = -0.07136 0.50183
#
# Static dielectric constant tensor:
#      x y z
#    x 1.710160 0.000000 0.000000 
#    y 0.000000 1.711530 0.000000 
#    z 0.000000 0.000000 1.677250 
# 
# From -- ./inp_files/22212.got.cif
#   From: 2010.05.17/outbox.cif.g08.bks.cpg/sg69_12_cif.got.tgz:22212.got - 2010.06.03 19:29:58.
