data_PCOD9511927
_publ_section_title
;
Structure prediction by ZEFSAII (Michael W. Deem and Ramdas Pophale) SiO2 
 PCOD9511927
Probable space group: F M M M
;
_chemical_formula_sum "Si O2"
_cell_formula_units_Z 164
_cell_length_a 23.181351
_cell_length_b 16.732015
_cell_length_c 22.714231
_cell_angle_alpha 90.000000
_cell_angle_beta 90.000000
_cell_angle_gamma 90.000000
_cell_volume 8810.184965
_symmetry_space_group_name_H-M "F M M M"
_symmetry_group_IT_number 69
_symmetry_cell_setting 'orthorhombic'
loop_
_space_group_symop_operation_xyz
x,y,z
-x,-y,z
x,-y,-z
-x,y,-z
-x,-y,-z
x,y,-z
-x,y,z
x,-y,z
x,1/2+y,1/2+z
-x,1/2-y,1/2+z
x,1/2-y,1/2-z
-x,1/2+y,1/2-z
-x,1/2-y,1/2-z
x,1/2+y,1/2-z
-x,1/2+y,1/2+z
x,1/2-y,1/2+z
1/2+x,y,1/2+z
1/2-x,-y,1/2+z
1/2+x,-y,1/2-z
1/2-x,y,1/2-z
1/2-x,-y,1/2-z
1/2+x,y,1/2-z
1/2-x,y,1/2+z
1/2+x,-y,1/2+z
1/2+x,1/2+y,z
1/2-x,1/2-y,z
1/2+x,1/2-y,-z
1/2-x,1/2+y,-z
1/2-x,1/2-y,-z
1/2+x,1/2+y,-z
1/2-x,1/2+y,z
1/2+x,1/2-y,z
loop_
_atom_site_type_symbol
_atom_site_label
_atom_site_fract_x
_atom_site_fract_y
_atom_site_fract_z
Si Si1 0.500000 0.593778 0.261753
Si Si2 0.297380 0.682200 0.834803
Si Si3 0.772535 0.593923 0.065006
Si Si4 0.000000 0.138090 0.600170
Si Si5 0.374505 0.684892 0.384507
Si Si6 0.373384 0.903489 0.760021
Si Si7 0.000000 0.500000 0.000000
O O1 0.500000 0.500000 0.248580
O O2 0.500000 0.604156 0.332633
O O3 0.562067 0.624464 0.239761
O O4 0.250000 0.750000 0.819153
O O5 0.267475 0.624787 0.882361
O O6 0.348964 0.730158 0.866266
O O7 0.324085 0.634971 0.780145
O O8 0.784340 0.500000 0.071551
O O9 0.831785 0.643183 0.069556
O O10 0.746731 0.607286 0.000000
O O11 0.940325 0.185982 0.595543
O O12 0.000000 0.069196 0.551871
O O13 0.368554 0.629159 0.326207
O O14 0.370421 0.000000 0.759181
#
# Coordination Sequence:
#
# PCOD9511927 Si02
#       7
#    16  32  32  16  32  32   4
#     4   8  16  33  53  78 111 131 170 218 270 308
#     4  10  22  38  54  79 110 146 182 224 273 327
#     4  10  22  38  58  78 102 140 187 231 271 319
#     4  10  22  35  52  84 111 147 178 220 264 314
#     4  10  22  36  54  80 117 143 175 221 276 329
#     4  10  19  34  58  82 108 142 179 225 270 322
#     4  12  24  32  60  80 116 152 194 220 258 326
#
# _framework density 18.614820000000002
#
# number of rings (size 3 to 8) (size 9 to 14) (size 15 to 20)
#    0.000    2.146    0.488    1.756    4.098    9.756 
#    0.000    7.805    0.000    0.000    0.000    0.000 
#    0.000    5.463    0.000    0.000    0.000    0.000 
#
# Total GULP energy -228517.840511 kJ/mol
# GULP energy per Si atom -5573.605866 kJ/mol
# Density = 1.857245 g / cm^3
# Si number density = 18.614820 Si / 1000 Ang^3
#
#
#
# Elastic Constant Matrix: (Units=GPa)
#
#
# Indices 1 2 3 4 5 6 
#
# 1 90.1956 7.4021 22.4336 0.0000 0.0000 0.0000
# 2 7.4021 39.8341 5.1545 0.0000 0.0000 0.0000
# 3 22.4336 5.1545 61.4264 0.0000 0.0000 0.0000
# 4 0.0000 0.0000 0.0000 8.1010 0.0000 0.0000
# 5 0.0000 0.0000 0.0000 0.0000 6.9514 0.0000
# 6 0.0000 0.0000 0.0000 0.0000 0.0000 7.4837
#
#
#
# Elastic Compliance Matrix: (Units=1/GPa)
#
#
# Indices 1 2 3 4 5 6 
#
# 1 0.012311 -0.001725 -0.004351 0.000000 0.000000 0.000000
# 2 -0.001725 0.025621 -0.001520 0.000000 0.000000 0.000000
# 3 -0.004351 -0.001520 0.017996 0.000000 0.000000 0.000000
# 4 0.000000 0.000000 0.000000 0.123441 0.000000 0.000000
# 5 0.000000 0.000000 0.000000 0.000000 0.143857 0.000000
# 6 0.000000 0.000000 0.000000 0.000000 0.000000 0.133624
#
#
# Mechanical properties :
#
#
# Convention : Reuss Voigt Hill
#
# Bulk Modulus (GPa) = 24.54808 29.04850 26.79829
# Shear Modulus (GPa) = 10.29609 14.93828 12.61719
#
# Velocity S-wave (km/s) = 2.35439 2.83591 2.60629
# Velocity P-wave (km/s) = 4.53948 5.13440 4.84608
#
# Compressibility (1/GPa) = 0.04073638
#
# Stress axis : x y z
#
# Youngs Moduli (GPa) = 81.22939 39.03005 55.56685
#
# Poissons Ratio (x) = 0.06731 0.24179
# Poissons Ratio (y) = 0.14009 0.08447
# Poissons Ratio (z) = 0.35346 0.05933
#
# Static dielectric constant tensor:
#      x y z
#    x 1.694150 0.000000 0.000000 
#    y 0.000000 1.616720 0.000000 
#    z 0.000000 0.000000 1.632420 
# 
# From -- ./inp_files/32684.got.cif
#   From: 2010.05.17/outbox.cif.g08.bks.cpg/sg69_17_cif.got.tgz:32684.got - 2010.06.03 19:29:58.
