data_PCOD9511454
_publ_section_title
;
Structure prediction by ZEFSAII (Michael W. Deem and Ramdas Pophale) SiO2 
 PCOD9511454
Probable space group: F M M M
;
_chemical_formula_sum "Si O2"
_cell_formula_units_Z 112
_cell_length_a 10.836498
_cell_length_b 19.946766
_cell_length_c 27.489834
_cell_angle_alpha 90.000000
_cell_angle_beta 90.000000
_cell_angle_gamma 90.000000
_cell_volume 5942.012559
_symmetry_space_group_name_H-M "F M M M"
_symmetry_group_IT_number 69
_symmetry_cell_setting 'orthorhombic'
loop_
_space_group_symop_operation_xyz
x,y,z
-x,-y,z
x,-y,-z
-x,y,-z
-x,-y,-z
x,y,-z
-x,y,z
x,-y,z
x,1/2+y,1/2+z
-x,1/2-y,1/2+z
x,1/2-y,1/2-z
-x,1/2+y,1/2-z
-x,1/2-y,1/2-z
x,1/2+y,1/2-z
-x,1/2+y,1/2+z
x,1/2-y,1/2+z
1/2+x,y,1/2+z
1/2-x,-y,1/2+z
1/2+x,-y,1/2-z
1/2-x,y,1/2-z
1/2-x,-y,1/2-z
1/2+x,y,1/2-z
1/2-x,y,1/2+z
1/2+x,-y,1/2+z
1/2+x,1/2+y,z
1/2-x,1/2-y,z
1/2+x,1/2-y,-z
1/2-x,1/2+y,-z
1/2-x,1/2-y,-z
1/2+x,1/2+y,-z
1/2-x,1/2+y,z
1/2+x,1/2-y,z
loop_
_atom_site_type_symbol
_atom_site_label
_atom_site_fract_x
_atom_site_fract_y
_atom_site_fract_z
Si Si1 0.365167 0.500000 0.214409
Si Si2 0.750000 0.250000 0.391804
Si Si3 0.231787 0.898991 0.139025
Si Si4 0.000000 0.426219 0.881768
Si Si5 0.649074 0.500000 0.057214
Si Si6 0.000000 0.293994 0.057206
O O1 0.500000 0.500000 0.237681
O O2 0.250000 0.500000 0.250000
O O3 0.350283 0.564245 0.178995
O O4 0.774884 0.319008 0.363013
O O5 0.874256 0.238376 0.422664
O O6 0.374897 0.917113 0.148268
O O7 0.197824 0.935152 0.087429
O O8 0.000000 0.369538 0.922618
O O9 0.000000 0.500000 0.903653
O O10 0.500000 0.500000 0.059701
O O11 0.684275 0.500000 0.000000
O O12 0.000000 0.291399 0.000000
#
# Coordination Sequence:
#
# PCOD9511454 Si02
#       6
#    16  16  32  16  16  16
#     4  11  25  41  71  98 118 149 193 250 308 369
#     4  10  23  38  59  82 118 168 200 248 300 356
#     4  10  21  40  61  85 123 156 200 242 306 352
#     4  10  18  35  56  80 112 163 191 249 293 353
#     4  10  21  34  54  82 113 160 212 257 295 342
#     4  10  22  35  52  83 119 163 213 253 292 336
#
# _framework density 18.848832999999999
#
# number of rings (size 3 to 8) (size 9 to 14) (size 15 to 20)
#    0.000    1.857    2.857    2.143    6.000    6.000 
#    0.000    0.714    0.000    1.714    0.000    0.000 
#    0.000    0.000    0.000    0.000    0.000    0.000 
#
# Total GULP energy -156205.442559 kJ/mol
# GULP energy per Si atom -5578.765806 kJ/mol
# Density = 1.880593 g / cm^3
# Si number density = 18.848833 Si / 1000 Ang^3
#
#
#
# Elastic Constant Matrix: (Units=GPa)
#
#
# Indices 1 2 3 4 5 6 
#
# 1 140.4835 34.0607 19.4496 0.0000 0.0000 0.0000
# 2 34.0607 152.4278 21.2236 0.0000 0.0000 0.0000
# 3 19.4496 21.2236 48.4529 0.0000 0.0000 0.0000
# 4 0.0000 0.0000 0.0000 2.3253 0.0000 0.0000
# 5 0.0000 0.0000 0.0000 0.0000 4.3963 0.0000
# 6 0.0000 0.0000 0.0000 0.0000 0.0000 23.8969
#
#
#
# Elastic Compliance Matrix: (Units=1/GPa)
#
#
# Indices 1 2 3 4 5 6 
#
# 1 0.007805 -0.001393 -0.002523 0.000000 0.000000 0.000000
# 2 -0.001393 0.007235 -0.002610 0.000000 0.000000 0.000000
# 3 -0.002523 -0.002610 0.022795 0.000000 0.000000 0.000000
# 4 0.000000 0.000000 0.000000 0.430052 0.000000 0.000000
# 5 0.000000 0.000000 0.000000 0.000000 0.227462 0.000000
# 6 0.000000 0.000000 0.000000 0.000000 0.000000 0.041847
#
#
# Mechanical properties :
#
#
# Convention : Reuss Voigt Hill
#
# Bulk Modulus (GPa) = 40.34994 54.53688 47.44341
# Shear Modulus (GPa) = 6.59188 23.89905 15.24547
#
# Velocity S-wave (km/s) = 1.87212 3.56467 2.84708
# Velocity P-wave (km/s) = 5.11143 6.77784 6.00274
#
# Compressibility (1/GPa) = 0.02478318
#
# Stress axis : x y z
#
# Youngs Moduli (GPa) = 128.11841 138.21441 43.86993
#
# Poissons Ratio (x) = 0.19251 0.11069
# Poissons Ratio (y) = 0.17845 0.11450
# Poissons Ratio (z) = 0.32325 0.36075
#
# Static dielectric constant tensor:
#      x y z
#    x 1.685980 0.000000 0.000000 
#    y 0.000000 1.710620 0.000000 
#    z 0.000000 0.000000 1.634940 
# 
# From -- ./inp_files/39952.got.cif
#   From: 2010.05.17/outbox.cif.g08.bks.cpg/sg69_20_cif.got.tgz:39952.got - 2010.06.03 19:29:58.
