data_PCOD9511341
_publ_section_title
;
Structure prediction by ZEFSAII (Michael W. Deem and Ramdas Pophale) SiO2 
 PCOD9511341
Probable space group: F M M M
;
_chemical_formula_sum "Si O2"
_cell_formula_units_Z 128
_cell_length_a 34.556246
_cell_length_b 29.738900
_cell_length_c 8.846003
_cell_angle_alpha 90.000000
_cell_angle_beta 90.000000
_cell_angle_gamma 90.000000
_cell_volume 9090.725410
_symmetry_space_group_name_H-M "F M M M"
_symmetry_group_IT_number 69
_symmetry_cell_setting 'orthorhombic'
loop_
_space_group_symop_operation_xyz
x,y,z
-x,-y,z
x,-y,-z
-x,y,-z
-x,-y,-z
x,y,-z
-x,y,z
x,-y,z
x,1/2+y,1/2+z
-x,1/2-y,1/2+z
x,1/2-y,1/2-z
-x,1/2+y,1/2-z
-x,1/2-y,1/2-z
x,1/2+y,1/2-z
-x,1/2+y,1/2+z
x,1/2-y,1/2+z
1/2+x,y,1/2+z
1/2-x,-y,1/2+z
1/2+x,-y,1/2-z
1/2-x,y,1/2-z
1/2-x,-y,1/2-z
1/2+x,y,1/2-z
1/2-x,y,1/2+z
1/2+x,-y,1/2+z
1/2+x,1/2+y,z
1/2-x,1/2-y,z
1/2+x,1/2-y,-z
1/2-x,1/2+y,-z
1/2-x,1/2-y,-z
1/2+x,1/2+y,-z
1/2-x,1/2+y,z
1/2+x,1/2-y,z
loop_
_atom_site_type_symbol
_atom_site_label
_atom_site_fract_x
_atom_site_fract_y
_atom_site_fract_z
Si Si1 0.000000 0.053031 0.318445
Si Si2 0.454821 0.203162 0.318505
Si Si3 0.707503 0.000000 0.680384
Si Si4 0.140806 0.949544 0.323044
Si Si5 0.926903 0.605746 0.318237
O O1 0.962269 0.077251 0.250757
O O2 0.000000 0.057558 0.500000
O O3 0.000000 0.000000 0.281487
O O4 0.453840 0.206387 0.500000
O O5 0.500000 0.197749 0.272967
O O6 0.440462 0.250000 0.250000
O O7 0.432702 0.157882 0.273948
O O8 0.750000 0.000000 0.750000
O O9 0.682007 0.957957 0.742361
O O10 0.708608 0.000000 0.500000
O O11 0.145883 0.939419 0.500000
O O12 0.112884 0.914761 0.242787
O O13 0.122309 0.000000 0.313346
O O14 0.928588 0.602763 0.500000
#
# Coordination Sequence:
#
# PCOD9511341 Si02
#       5
#    16  32  16  32  32
#     4  11  23  33  42  59  86 121 160 197 229 274
#     4   9  18  32  46  63  84 112 154 202 243 284
#     4  10  18  32  52  73  96 127 156 186 226 268
#     4   9  19  32  46  68  96 124 155 190 224 270
#     4  11  20  32  47  65  89 119 157 197 238 279
#
# _framework density 14.080285
#
# number of rings (size 3 to 8) (size 9 to 14) (size 15 to 20)
#    0.750    1.375    1.250    3.375    0.000    6.000 
#    0.000    0.000    0.000    0.000    0.000    0.000 
#    0.000    1.000    0.000   10.500    0.000    5.750 
#
# Total GULP energy -178264.629688 kJ/mol
# GULP energy per Si atom -5570.769678 kJ/mol
# Density = 1.404824 g / cm^3
# Si number density = 14.080285 Si / 1000 Ang^3
#
#
#
# Elastic Constant Matrix: (Units=GPa)
#
#
# Indices 1 2 3 4 5 6 
#
# 1 106.3154 61.5060 46.2090 -0.0001 0.0001 -0.0001
# 2 61.5060 116.7157 54.4954 -0.0026 0.0007 0.0017
# 3 46.2090 54.4954 79.1940 0.0012 0.0000 0.0000
# 4 -0.0001 -0.0026 0.0012 23.9759 0.0006 0.0016
# 5 0.0001 0.0007 0.0000 0.0006 25.0304 -0.0002
# 6 -0.0001 0.0017 0.0000 0.0016 -0.0002 7.3725
#
#
#
# Elastic Compliance Matrix: (Units=1/GPa)
#
#
# Indices 1 2 3 4 5 6 
#
# 1 0.014660 -0.005498 -0.004771 0.000000 0.000000 0.000002
# 2 -0.005498 0.014686 -0.006897 0.000002 0.000000 -0.000004
# 3 -0.004771 -0.006897 0.020157 -0.000002 0.000000 0.000001
# 4 0.000000 0.000002 -0.000002 0.041709 -0.000001 -0.000009
# 5 0.000000 0.000000 0.000000 -0.000001 0.039951 0.000001
# 6 0.000002 -0.000004 0.000001 -0.000009 0.000001 0.135640
#
#
# Mechanical properties :
#
#
# Convention : Reuss Voigt Hill
#
# Bulk Modulus (GPa) = 65.91733 69.62731 67.77232
# Shear Modulus (GPa) = 16.32958 20.61005 18.46981
#
# Velocity S-wave (km/s) = 3.40920 3.83005 3.62574
# Velocity P-wave (km/s) = 7.90024 8.31364 8.10958
#
# Compressibility (1/GPa) = 0.01517052
#
# Stress axis : x y z
#
# Youngs Moduli (GPa) = 68.21129 68.09365 49.60987
#
# Poissons Ratio (x) = 0.37438 0.23668
# Poissons Ratio (y) = 0.37503 0.34218
# Poissons Ratio (z) = 0.32542 0.46968
#
# Static dielectric constant tensor:
#      x y z
#    x 1.440460 0.000000 0.000000 
#    y 0.000000 1.461260 0.000000 
#    z 0.000000 0.000000 1.468590 
# 
# From -- ./inp_files/5485.got.cif
#   From: 2010.05.17/outbox.cif.g08.bks.cpg/sg69_3_cif.got.tgz:5485.got - 2010.06.03 19:29:58.
