data_PCOD9511577
_publ_section_title
;
Structure prediction by ZEFSAII (Michael W. Deem and Ramdas Pophale) SiO2 
 PCOD9511577
Probable space group: F M M M
;
_chemical_formula_sum "Si O2"
_cell_formula_units_Z 160
_cell_length_a 19.880132
_cell_length_b 28.248512
_cell_length_c 14.346823
_cell_angle_alpha 90.000000
_cell_angle_beta 90.000000
_cell_angle_gamma 90.000000
_cell_volume 8056.948362
_symmetry_space_group_name_H-M "F M M M"
_symmetry_group_IT_number 69
_symmetry_cell_setting 'orthorhombic'
loop_
_space_group_symop_operation_xyz
x,y,z
-x,-y,z
x,-y,-z
-x,y,-z
-x,-y,-z
x,y,-z
-x,y,z
x,-y,z
x,1/2+y,1/2+z
-x,1/2-y,1/2+z
x,1/2-y,1/2-z
-x,1/2+y,1/2-z
-x,1/2-y,1/2-z
x,1/2+y,1/2-z
-x,1/2+y,1/2+z
x,1/2-y,1/2+z
1/2+x,y,1/2+z
1/2-x,-y,1/2+z
1/2+x,-y,1/2-z
1/2-x,y,1/2-z
1/2-x,-y,1/2-z
1/2+x,y,1/2-z
1/2-x,y,1/2+z
1/2+x,-y,1/2+z
1/2+x,1/2+y,z
1/2-x,1/2-y,z
1/2+x,1/2-y,-z
1/2-x,1/2+y,-z
1/2-x,1/2-y,-z
1/2+x,1/2+y,-z
1/2-x,1/2+y,z
1/2+x,1/2-y,z
loop_
_atom_site_type_symbol
_atom_site_label
_atom_site_fract_x
_atom_site_fract_y
_atom_site_fract_z
Si Si1 0.423545 0.861715 0.399750
Si Si2 0.418416 0.695593 0.274558
Si Si3 0.873867 0.613657 0.893201
Si Si4 0.242265 0.446884 0.393276
Si Si5 0.894147 0.945620 0.216142
O O1 0.390816 0.856195 0.500000
O O2 0.500000 0.843729 0.405780
O O3 0.391929 0.833321 0.315194
O O4 0.426750 0.915633 0.366701
O O5 0.500000 0.690623 0.284799
O O6 0.404808 0.750000 0.250000
O O7 0.385549 0.667829 0.361258
O O8 0.797479 0.594127 0.888075
O O9 0.908387 0.581218 0.813257
O O10 0.896573 0.606655 0.000000
O O11 0.214548 0.445788 0.500000
O O12 0.273663 0.500000 0.383138
O O13 0.184302 0.443133 0.316229
O O14 0.913686 0.000000 0.220575
#
# Coordination Sequence:
#
# PCOD9511577 Si02
#       5
#    32  32  32  32  32
#     4   9  18  32  50  73  99 126 161 211 267 312
#     4   9  19  36  56  76  96 122 161 207 255 309
#     4  10  20  32  49  75 104 132 164 205 251 298
#     4   9  17  30  50  76 104 136 176 216 252 294
#     4  10  19  31  49  73 103 140 178 212 247 293
#
# _framework density 19.858635
#
# number of rings (size 3 to 8) (size 9 to 14) (size 15 to 20)
#    0.000    2.600    0.000    1.800    0.000    5.600 
#    0.000    3.000    0.000   11.400    0.000   30.800 
#    0.000    0.000    0.000    0.000    0.000    0.000 
#
# Total GULP energy -222698.507792 kJ/mol
# GULP energy per Si atom -5567.462695 kJ/mol
# Density = 1.981344 g / cm^3
# Si number density = 19.858635 Si / 1000 Ang^3
#
#
#
# Elastic Constant Matrix: (Units=GPa)
#
#
# Indices 1 2 3 4 5 6 
#
# 1 37.1949 21.4079 3.6794 0.0000 0.0000 0.0000
# 2 21.4079 122.9443 36.8929 0.0000 0.0000 0.0000
# 3 3.6794 36.8929 134.4528 0.0000 0.0000 0.0000
# 4 0.0000 0.0000 0.0000 22.2723 0.0000 0.0000
# 5 0.0000 0.0000 0.0000 0.0000 16.6508 0.0000
# 6 0.0000 0.0000 0.0000 0.0000 0.0000 301.5802
#
#
#
# Elastic Compliance Matrix: (Units=1/GPa)
#
#
# Indices 1 2 3 4 5 6 
#
# 1 0.029935 -0.005412 0.000666 0.000000 0.000000 0.000000
# 2 -0.005412 0.009842 -0.002553 0.000000 0.000000 0.000000
# 3 0.000666 -0.002553 0.008120 0.000000 0.000000 0.000000
# 4 0.000000 0.000000 0.000000 0.044899 0.000000 0.000000
# 5 0.000000 0.000000 0.000000 0.000000 0.060057 0.000000
# 6 0.000000 0.000000 0.000000 0.000000 0.000000 0.003316
#
#
# Mechanical properties :
#
#
# Convention : Reuss Voigt Hill
#
# Bulk Modulus (GPa) = 30.03115 46.50582 38.26849
# Shear Modulus (GPa) = 27.49284 83.60811 55.55047
#
# Velocity S-wave (km/s) = 3.72483 6.49562 5.29468
# Velocity P-wave (km/s) = 5.80124 8.92898 7.52931
#
# Compressibility (1/GPa) = 0.03329876
#
# Stress axis : x y z
#
# Youngs Moduli (GPa) = 33.40618 101.60404 123.15695
#
# Poissons Ratio (x) = 0.54991 -0.08201
# Poissons Ratio (y) = 0.18080 0.31436
# Poissons Ratio (z) = -0.02225 0.25934
#
# Static dielectric constant tensor:
#      x y z
#    x 1.775520 0.000000 0.000000 
#    y 0.000000 1.708990 0.000000 
#    z 0.000000 0.000000 1.761060 
# 
# From -- ./inp_files/17742.got.cif
#   From: 2010.05.17/outbox.cif.g08.bks.cpg/sg69_9_cif.got.tgz:17742.got - 2010.06.03 19:29:58.
