data_PCOD9511381
_publ_section_title
;
Structure prediction by ZEFSAII (Michael W. Deem and Ramdas Pophale) SiO2 
 PCOD9511381
Probable space group: F M M M
;
_chemical_formula_sum "Si O2"
_cell_formula_units_Z 240
_cell_length_a 20.823376
_cell_length_b 21.610552
_cell_length_c 27.137818
_cell_angle_alpha 90.000000
_cell_angle_beta 90.000000
_cell_angle_gamma 90.000000
_cell_volume 12212.144287
_symmetry_space_group_name_H-M "F M M M"
_symmetry_group_IT_number 69
_symmetry_cell_setting 'orthorhombic'
loop_
_space_group_symop_operation_xyz
x,y,z
-x,-y,z
x,-y,-z
-x,y,-z
-x,-y,-z
x,y,-z
-x,y,z
x,-y,z
x,1/2+y,1/2+z
-x,1/2-y,1/2+z
x,1/2-y,1/2-z
-x,1/2+y,1/2-z
-x,1/2-y,1/2-z
x,1/2+y,1/2-z
-x,1/2+y,1/2+z
x,1/2-y,1/2+z
1/2+x,y,1/2+z
1/2-x,-y,1/2+z
1/2+x,-y,1/2-z
1/2-x,y,1/2-z
1/2-x,-y,1/2-z
1/2+x,y,1/2-z
1/2-x,y,1/2+z
1/2+x,-y,1/2+z
1/2+x,1/2+y,z
1/2-x,1/2-y,z
1/2+x,1/2-y,-z
1/2-x,1/2+y,-z
1/2-x,1/2-y,-z
1/2+x,1/2+y,-z
1/2-x,1/2+y,z
1/2+x,1/2-y,z
loop_
_atom_site_type_symbol
_atom_site_label
_atom_site_fract_x
_atom_site_fract_y
_atom_site_fract_z
Si Si1 0.678621 0.425940 0.226686
Si Si2 0.720103 0.070383 0.384162
Si Si3 0.326252 0.751932 0.555511
Si Si4 0.335432 0.888297 0.056599
Si Si5 0.405575 0.570427 0.943783
Si Si6 0.067740 0.184113 0.881819
Si Si7 0.925483 0.179001 0.235417
Si Si8 0.928125 0.500000 0.940511
O O1 0.661504 0.500000 0.232544
O O2 0.750000 0.417664 0.250000
O O3 0.687970 0.413425 0.167959
O O4 0.625782 0.376449 0.247138
O O5 0.779168 0.109316 0.403416
O O6 0.668961 0.070946 0.428295
O O7 0.743642 0.000000 0.378006
O O8 0.332234 0.778550 0.500000
O O9 0.250000 0.750000 0.565989
O O10 0.354787 0.682854 0.554539
O O11 0.368589 0.787874 0.594454
O O12 0.388643 0.938147 0.071652
O O13 0.314196 0.904564 0.000000
O O14 0.427326 0.500000 0.938559
O O15 0.435633 0.616501 0.905327
O O16 0.415937 0.589760 0.000000
O O17 0.071907 0.180657 0.823654
O O18 0.000000 0.216922 0.895003
O O19 0.907113 0.250000 0.250000
O O20 0.000000 0.167922 0.252971
O O21 0.000000 0.500000 0.920124
O O22 0.932526 0.500000 0.000000
#
# Coordination Sequence:
#
# PCOD9511381 Si02
#       8
#    32  32  32  32  32  32  32  16
#     4  10  22  40  64  98 129 157 202 262 327 390
#     4  10  18  32  56  87 122 156 192 244 305 364
#     4  10  22  37  54  81 120 164 208 251 301 366
#     4  10  19  32  53  80 112 156 203 249 302 360
#     4  10  20  33  55  90 130 169 206 243 292 369
#     4  11  23  40  61  85 119 163 208 258 314 370
#     4  10  23  44  67  93 123 162 215 266 321 394
#     4   9  18  32  50  76 109 148 203 261 304 351
#
# _framework density 19.652567999999999
#
# number of rings (size 3 to 8) (size 9 to 14) (size 15 to 20)
#    0.000    1.933    2.000    1.600    0.000    5.067 
#    0.000    3.333    0.000    0.800    0.000    0.000 
#    0.000    0.000    0.000    0.000    0.000    0.000 
#
# Total GULP energy -334308.034069 kJ/mol
# GULP energy per Si atom -5571.800568 kJ/mol
# Density = 1.960784 g / cm^3
# Si number density = 19.652568 Si / 1000 Ang^3
#
#
#
# Elastic Constant Matrix: (Units=GPa)
#
#
# Indices 1 2 3 4 5 6 
#
# 1 106.4156 51.1397 13.1322 0.0000 0.0000 0.0000
# 2 51.1397 118.0044 28.8240 0.0000 0.0000 0.0000
# 3 13.1322 28.8240 57.7378 0.0000 0.0000 0.0000
# 4 0.0000 0.0000 0.0000 21.6317 0.0000 0.0000
# 5 0.0000 0.0000 0.0000 0.0000 27.5906 0.0000
# 6 0.0000 0.0000 0.0000 0.0000 0.0000 5.4165
#
#
#
# Elastic Compliance Matrix: (Units=1/GPa)
#
#
# Indices 1 2 3 4 5 6 
#
# 1 0.011870 -0.005108 -0.000150 0.000000 0.000000 0.000000
# 2 -0.005108 0.011849 -0.004754 0.000000 0.000000 0.000000
# 3 -0.000150 -0.004754 0.019727 0.000000 0.000000 0.000000
# 4 0.000000 0.000000 0.000000 0.046228 0.000000 0.000000
# 5 0.000000 0.000000 0.000000 0.000000 0.036244 0.000000
# 6 0.000000 0.000000 0.000000 0.000000 0.000000 0.184622
#
#
# Mechanical properties :
#
#
# Convention : Reuss Voigt Hill
#
# Bulk Modulus (GPa) = 42.69179 52.03882 47.36531
# Shear Modulus (GPa) = 14.77669 23.53189 19.15429
#
# Velocity S-wave (km/s) = 2.74505 3.46409 3.12532
# Velocity P-wave (km/s) = 5.64070 6.52203 6.09731
#
# Compressibility (1/GPa) = 0.02342371
#
# Stress axis : x y z
#
# Youngs Moduli (GPa) = 84.24507 84.39665 50.69232
#
# Poissons Ratio (x) = 0.43106 0.00760
# Poissons Ratio (y) = 0.43028 0.24097
# Poissons Ratio (z) = 0.01264 0.40118
#
# Static dielectric constant tensor:
#      x y z
#    x 1.745040 0.000000 0.000000 
#    y 0.000000 1.722370 0.000000 
#    z 0.000000 0.000000 1.676080 
# 
# From -- ./inp_files/42833.got.cif
#   From: 2010.05.17/outbox.cif.g08.bks.cpg/sg69_22_cif.got.tgz:42833.got - 2010.06.03 19:29:58.
