data_PCOD9511000
_publ_section_title
;
Structure prediction by ZEFSAII (Michael W. Deem and Ramdas Pophale) SiO2 
 PCOD9511000
Probable space group: F M M M
;
_chemical_formula_sum "Si O2"
_cell_formula_units_Z 160
_cell_length_a 18.283089
_cell_length_b 20.574738
_cell_length_c 16.986134
_cell_angle_alpha 90.000000
_cell_angle_beta 90.000000
_cell_angle_gamma 90.000000
_cell_volume 6389.670052
_symmetry_space_group_name_H-M "F M M M"
_symmetry_group_IT_number 69
_symmetry_cell_setting 'orthorhombic'
loop_
_space_group_symop_operation_xyz
x,y,z
-x,-y,z
x,-y,-z
-x,y,-z
-x,-y,-z
x,y,-z
-x,y,z
x,-y,z
x,1/2+y,1/2+z
-x,1/2-y,1/2+z
x,1/2-y,1/2-z
-x,1/2+y,1/2-z
-x,1/2-y,1/2-z
x,1/2+y,1/2-z
-x,1/2+y,1/2+z
x,1/2-y,1/2+z
1/2+x,y,1/2+z
1/2-x,-y,1/2+z
1/2+x,-y,1/2-z
1/2-x,y,1/2-z
1/2-x,-y,1/2-z
1/2+x,y,1/2-z
1/2-x,y,1/2+z
1/2+x,-y,1/2+z
1/2+x,1/2+y,z
1/2-x,1/2-y,z
1/2+x,1/2-y,-z
1/2-x,1/2+y,-z
1/2-x,1/2-y,-z
1/2+x,1/2+y,-z
1/2-x,1/2+y,z
1/2+x,1/2-y,z
loop_
_atom_site_type_symbol
_atom_site_label
_atom_site_fract_x
_atom_site_fract_y
_atom_site_fract_z
Si Si1 0.915227 0.771025 0.143859
Si Si2 0.081175 0.372805 0.500000
Si Si3 0.089377 0.631453 0.912098
Si Si4 0.273362 0.074342 0.668202
Si Si5 0.263063 0.575418 0.000000
Si Si6 0.086839 0.890204 0.239397
O O1 0.912454 0.824342 0.074358
O O2 0.883712 0.704689 0.107798
O O3 0.893857 0.814431 0.219705
O O4 0.000000 0.754511 0.157756
O O5 0.148220 0.421704 0.500000
O O6 0.000000 0.401839 0.500000
O O7 0.103491 0.593165 0.830611
O O8 0.000000 0.632357 0.916712
O O9 0.113658 0.609804 0.000000
O O10 0.250000 0.107122 0.750000
O O11 0.247549 0.105136 0.586213
O O12 0.360788 0.072060 0.680403
O O13 0.246909 0.000000 0.667714
O O14 0.239974 0.500000 0.000000
O O15 0.000000 0.898649 0.226263
#
# Coordination Sequence:
#
# PCOD9511000 Si02
#       6
#    32  16  32  32  16  32
#     4   9  15  25  44  73 108 142 172 206 255 308
#     4  10  16  25  46  79 113 138 163 207 263 313
#     4   9  16  27  44  71 108 145 180 216 252 300
#     4  10  22  40  58  78 104 136 174 215 263 322
#     4  10  20  35  56  77  98 133 177 217 263 321
#     4  10  19  31  52  81 109 138 173 217 266 308
#
# _framework density 25.040417000000001
#
# number of rings (size 3 to 8) (size 9 to 14) (size 15 to 20)
#    0.000    2.400    3.000    0.600    0.000    3.000 
#    1.800    2.000    0.000    2.400    0.000    5.600 
#    0.000    0.000    0.000    0.000    0.000    0.000 
#
# Total GULP energy -222942.773542 kJ/mol
# GULP energy per Si atom -5573.569339 kJ/mol
# Density = 2.498342 g / cm^3
# Si number density = 25.040417 Si / 1000 Ang^3
#
#
#
# Elastic Constant Matrix: (Units=GPa)
#
#
# Indices 1 2 3 4 5 6 
#
# 1 57.4427 15.5688 37.8316 0.0000 0.0000 0.0000
# 2 15.5688 49.9489 -2.3498 0.0000 0.0000 0.0000
# 3 37.8316 -2.3498 245.4854 0.0000 0.0000 0.0000
# 4 0.0000 0.0000 0.0000 16.5874 0.0000 0.0000
# 5 0.0000 0.0000 0.0000 0.0000 46.9268 0.0000
# 6 0.0000 0.0000 0.0000 0.0000 0.0000 29.9362
#
#
#
# Elastic Compliance Matrix: (Units=1/GPa)
#
#
# Indices 1 2 3 4 5 6 
#
# 1 0.021492 -0.006858 -0.003378 0.000000 0.000000 0.000000
# 2 -0.006858 0.022218 0.001270 0.000000 0.000000 0.000000
# 3 -0.003378 0.001270 0.004606 0.000000 0.000000 0.000000
# 4 0.000000 0.000000 0.000000 0.060287 0.000000 0.000000
# 5 0.000000 0.000000 0.000000 0.000000 0.021310 0.000000
# 6 0.000000 0.000000 0.000000 0.000000 0.000000 0.033404
#
#
# Mechanical properties :
#
#
# Convention : Reuss Voigt Hill
#
# Bulk Modulus (GPa) = 32.91228 50.55314 41.73271
# Shear Modulus (GPa) = 26.12649 38.81185 32.46917
#
# Velocity S-wave (km/s) = 3.23363 3.94123 3.60484
# Velocity P-wave (km/s) = 5.20711 6.39871 5.83342
#
# Compressibility (1/GPa) = 0.03038380
#
# Stress axis : x y z
#
# Youngs Moduli (GPa) = 46.52913 45.00915 217.09607
#
# Poissons Ratio (x) = 0.30866 0.73330
# Poissons Ratio (y) = 0.31909 -0.27561
# Poissons Ratio (z) = 0.15716 -0.05714
#
# Static dielectric constant tensor:
#      x y z
#    x 2.093700 0.000000 0.000000 
#    y 0.000000 1.991630 0.000000 
#    z 0.000000 0.000000 2.100240 
# 
# From -- ./inp_files/24651.got.cif
#   From: 2010.05.17/outbox.cif.g08.bks.cpg/sg69_13_cif.got.tgz:24651.got - 2010.06.03 19:29:58.
