data_PCOD9511886
_publ_section_title
;
Structure prediction by ZEFSAII (Michael W. Deem and Ramdas Pophale) SiO2 
 PCOD9511886
Probable space group: F M M M
;
_chemical_formula_sum "Si O2"
_cell_formula_units_Z 112
_cell_length_a 20.918584
_cell_length_b 15.970624
_cell_length_c 13.795757
_cell_angle_alpha 90.000000
_cell_angle_beta 90.000000
_cell_angle_gamma 90.000000
_cell_volume 4608.925674
_symmetry_space_group_name_H-M "F M M M"
_symmetry_group_IT_number 69
_symmetry_cell_setting 'orthorhombic'
loop_
_space_group_symop_operation_xyz
x,y,z
-x,-y,z
x,-y,-z
-x,y,-z
-x,-y,-z
x,y,-z
-x,y,z
x,-y,z
x,1/2+y,1/2+z
-x,1/2-y,1/2+z
x,1/2-y,1/2-z
-x,1/2+y,1/2-z
-x,1/2-y,1/2-z
x,1/2+y,1/2-z
-x,1/2+y,1/2+z
x,1/2-y,1/2+z
1/2+x,y,1/2+z
1/2-x,-y,1/2+z
1/2+x,-y,1/2-z
1/2-x,y,1/2-z
1/2-x,-y,1/2-z
1/2+x,y,1/2-z
1/2-x,y,1/2+z
1/2+x,-y,1/2+z
1/2+x,1/2+y,z
1/2-x,1/2-y,z
1/2+x,1/2-y,-z
1/2-x,1/2+y,-z
1/2-x,1/2-y,-z
1/2+x,1/2+y,-z
1/2-x,1/2+y,z
1/2+x,1/2-y,z
loop_
_atom_site_type_symbol
_atom_site_label
_atom_site_fract_x
_atom_site_fract_y
_atom_site_fract_z
Si Si1 0.124124 0.341720 0.704463
Si Si2 0.897073 0.902553 0.603521
Si Si3 0.751508 0.648397 0.608253
Si Si4 0.424073 0.098431 0.500000
O O1 0.134273 0.250000 0.750000
O O2 0.080486 0.379677 0.789122
O O3 0.195030 0.379697 0.684557
O O4 0.094870 0.351639 0.597991
O O5 0.918365 0.863240 0.500000
O O6 0.820687 0.884548 0.611001
O O7 0.908309 0.000000 0.595159
O O8 0.775250 0.626395 0.500000
O O9 0.750000 0.750000 0.613984
O O10 0.500000 0.093075 0.500000
O O11 0.400787 0.000000 0.500000
#
# Coordination Sequence:
#
# PCOD9511886 Si02
#       4
#    32  32  32  16
#     4  12  23  38  69  94 125 168 216 265 321 385
#     4  10  22  36  55  90 135 173 211 254 306 384
#     4  10  19  34  54  87 132 173 205 244 306 376
#     4  11  28  52  71  92 125 167 222 285 340 386
#
# _framework density 24.300673
#
# number of rings (size 3 to 8) (size 9 to 14) (size 15 to 20)
#    0.000    1.286    4.286    1.714    2.000    4.000 
#    0.000    0.000    0.000    0.000    0.000    4.000 
#    0.000    0.000    0.000    0.000    0.000    0.000 
#
# Total GULP energy -156049.975668 kJ/mol
# GULP energy per Si atom -5573.213417 kJ/mol
# Density = 2.424536 g / cm^3
# Si number density = 24.300673 Si / 1000 Ang^3
#
#
#
# Elastic Constant Matrix: (Units=GPa)
#
#
# Indices 1 2 3 4 5 6 
#
# 1 64.6801 -2.3093 27.0243 0.0000 0.0000 0.0000
# 2 -2.3093 26.5455 30.7547 0.0000 0.0000 0.0000
# 3 27.0243 30.7547 275.0930 0.0000 0.0000 0.0000
# 4 0.0000 0.0000 0.0000 28.9682 0.0000 0.0000
# 5 0.0000 0.0000 0.0000 0.0000 -3.6761 0.0000
# 6 0.0000 0.0000 0.0000 0.0000 0.0000 -3.8825
#
#
#
# Elastic Compliance Matrix: (Units=1/GPa)
#
#
# Indices 1 2 3 4 5 6 
#
# 1 0.016449 0.003794 -0.002040 0.000000 0.000000 0.000000
# 2 0.003794 0.044152 -0.005309 0.000000 0.000000 0.000000
# 3 -0.002040 -0.005309 0.004429 0.000000 0.000000 0.000000
# 4 0.000000 0.000000 0.000000 0.034521 0.000000 0.000000
# 5 0.000000 0.000000 0.000000 0.000000 -0.272030 0.000000
# 6 0.000000 0.000000 0.000000 0.000000 0.000000 -0.257564
#
#
# Mechanical properties :
#
#
# Convention : Reuss Voigt Hill
#
# Bulk Modulus (GPa) = 17.26498 53.02868 35.14683
# Shear Modulus (GPa) = -12.38763 25.00519 6.30878
#
# Velocity S-wave (km/s) = -2.26025 3.21127 1.61300
# Velocity P-wave (km/s) = 0.55546 5.96816 4.23837
#
# Compressibility (1/GPa) = 0.05792070
#
# Stress axis : x y z
#
# Youngs Moduli (GPa) = 60.79566 22.64904 225.78156
#
# Poissons Ratio (x) = -0.08594 0.46061
# Poissons Ratio (y) = -0.23069 1.19864
# Poissons Ratio (z) = 0.12403 0.12024
#
# Static dielectric constant tensor:
#      x y z
#    x 1.931760 0.000000 0.000000 
#    y 0.000000 1.958820 0.000000 
#    z 0.000000 0.000000 2.118010 
# 
# From -- ./inp_files/17232.got.cif
#   From: 2010.05.17/outbox.cif.g08.bks.cpg/sg69_9_cif.got.tgz:17232.got - 2010.06.03 19:29:58.
