data_PCOD9511398
_publ_section_title
;
Structure prediction by ZEFSAII (Michael W. Deem and Ramdas Pophale) SiO2 
 PCOD9511398
Probable space group: F M M M
;
_chemical_formula_sum "Si O2"
_cell_formula_units_Z 128
_cell_length_a 24.462218
_cell_length_b 13.485211
_cell_length_c 20.966772
_cell_angle_alpha 90.000000
_cell_angle_beta 90.000000
_cell_angle_gamma 90.000000
_cell_volume 6916.480405
_symmetry_space_group_name_H-M "F M M M"
_symmetry_group_IT_number 69
_symmetry_cell_setting 'orthorhombic'
loop_
_space_group_symop_operation_xyz
x,y,z
-x,-y,z
x,-y,-z
-x,y,-z
-x,-y,-z
x,y,-z
-x,y,z
x,-y,z
x,1/2+y,1/2+z
-x,1/2-y,1/2+z
x,1/2-y,1/2-z
-x,1/2+y,1/2-z
-x,1/2-y,1/2-z
x,1/2+y,1/2-z
-x,1/2+y,1/2+z
x,1/2-y,1/2+z
1/2+x,y,1/2+z
1/2-x,-y,1/2+z
1/2+x,-y,1/2-z
1/2-x,y,1/2-z
1/2-x,-y,1/2-z
1/2+x,y,1/2-z
1/2-x,y,1/2+z
1/2+x,-y,1/2+z
1/2+x,1/2+y,z
1/2-x,1/2-y,z
1/2+x,1/2-y,-z
1/2-x,1/2+y,-z
1/2-x,1/2-y,-z
1/2+x,1/2+y,-z
1/2-x,1/2+y,z
1/2+x,1/2-y,z
loop_
_atom_site_type_symbol
_atom_site_label
_atom_site_fract_x
_atom_site_fract_y
_atom_site_fract_z
Si Si1 0.094722 0.000000 0.572238
Si Si2 0.597882 0.831454 0.170309
Si Si3 0.936522 0.113067 0.189873
Si Si4 0.773155 0.641422 0.183407
Si Si5 0.272330 0.500000 0.427802
O O1 0.079823 0.901311 0.612002
O O2 0.161350 0.000000 0.569094
O O3 0.074036 0.000000 0.500000
O O4 0.566992 0.866106 0.234174
O O5 0.591238 0.712701 0.161005
O O6 0.661306 0.855732 0.184864
O O7 0.000000 0.114596 0.170621
O O8 0.915258 0.000000 0.177601
O O9 0.750000 0.600142 0.250000
O O10 0.750000 0.750000 0.180541
O O11 0.755909 0.590019 0.117809
O O12 0.251640 0.500000 0.500000
#
# Coordination Sequence:
#
# PCOD9511398 Si02
#       5
#    16  32  32  32  16
#     4   9  18  33  54  75  99 135 173 209 250 298
#     4  10  18  33  51  76 105 134 166 209 259 299
#     4  10  19  31  51  76 104 133 162 207 259 310
#     4  10  19  32  48  77 102 131 168 210 252 296
#     4   9  19  33  49  68  98 140 170 205 252 296
#
# _framework density 18.506522
#
# number of rings (size 3 to 8) (size 9 to 14) (size 15 to 20)
#    0.000    2.250    1.250    4.875    0.000    0.500 
#    6.750    0.000    0.000    6.750    0.000    1.750 
#    0.000    0.000    0.000    0.000    0.000    0.000 
#
# Total GULP energy -178172.421406 kJ/mol
# GULP energy per Si atom -5567.888169 kJ/mol
# Density = 1.846440 g / cm^3
# Si number density = 18.506522 Si / 1000 Ang^3
#
#
#
# Elastic Constant Matrix: (Units=GPa)
#
#
# Indices 1 2 3 4 5 6 
#
# 1 40.3334 13.3503 16.3692 0.0000 0.0000 0.0000
# 2 13.3503 181.9673 78.0060 0.0000 0.0000 0.0000
# 3 16.3692 78.0060 147.7409 0.0000 0.0000 0.0000
# 4 0.0000 0.0000 0.0000 -18.0430 0.0000 0.0000
# 5 0.0000 0.0000 0.0000 0.0000 9.6313 0.0000
# 6 0.0000 0.0000 0.0000 0.0000 0.0000 -143.3439
#
#
#
# Elastic Compliance Matrix: (Units=1/GPa)
#
#
# Indices 1 2 3 4 5 6 
#
# 1 0.026067 -0.000872 -0.002428 0.000000 0.000000 0.000000
# 2 -0.000872 0.007132 -0.003669 0.000000 0.000000 0.000000
# 3 -0.002428 -0.003669 0.008975 0.000000 0.000000 0.000000
# 4 0.000000 0.000000 0.000000 -0.055423 0.000000 0.000000
# 5 0.000000 0.000000 0.000000 0.000000 0.103828 0.000000
# 6 0.000000 0.000000 0.000000 0.000000 0.000000 -0.006976
#
#
# Mechanical properties :
#
#
# Convention : Reuss Voigt Hill
#
# Bulk Modulus (GPa) = 35.41471 65.05476 50.23473
# Shear Modulus (GPa) = 46.74943 -12.86338 16.94302
#
# Velocity S-wave (km/s) = 5.03149 -2.63928 3.02903
# Velocity P-wave (km/s) = 7.27547 5.09322 6.27986
#
# Compressibility (1/GPa) = 0.02823685
#
# Stress axis : x y z
#
# Youngs Moduli (GPa) = 38.36234 140.20546 111.42114
#
# Poissons Ratio (x) = 0.12221 0.27052
# Poissons Ratio (y) = 0.03344 0.40883
# Poissons Ratio (z) = 0.09314 0.51445
#
# Static dielectric constant tensor:
#      x y z
#    x 1.712590 0.000000 0.000000 
#    y 0.000000 1.693070 0.000000 
#    z 0.000000 0.000000 1.614230 
# 
# From -- ./inp_files/26505.got.cif
#   From: 2010.05.17/outbox.cif.g08.bks.cpg/sg69_14_cif.got.tgz:26505.got - 2010.06.03 19:29:58.
