data_PCOD9511109
_publ_section_title
;
Structure prediction by ZEFSAII (Michael W. Deem and Ramdas Pophale) SiO2 
 PCOD9511109
Probable space group: F M M M
;
_chemical_formula_sum "Si O2"
_cell_formula_units_Z 144
_cell_length_a 20.021356
_cell_length_b 14.070618
_cell_length_c 19.217885
_cell_angle_alpha 90.000000
_cell_angle_beta 90.000000
_cell_angle_gamma 90.000000
_cell_volume 5413.925195
_symmetry_space_group_name_H-M "F M M M"
_symmetry_group_IT_number 69
_symmetry_cell_setting 'orthorhombic'
loop_
_space_group_symop_operation_xyz
x,y,z
-x,-y,z
x,-y,-z
-x,y,-z
-x,-y,-z
x,y,-z
-x,y,z
x,-y,z
x,1/2+y,1/2+z
-x,1/2-y,1/2+z
x,1/2-y,1/2-z
-x,1/2+y,1/2-z
-x,1/2-y,1/2-z
x,1/2+y,1/2-z
-x,1/2+y,1/2+z
x,1/2-y,1/2+z
1/2+x,y,1/2+z
1/2-x,-y,1/2+z
1/2+x,-y,1/2-z
1/2-x,y,1/2-z
1/2-x,-y,1/2-z
1/2+x,y,1/2-z
1/2-x,y,1/2+z
1/2+x,-y,1/2+z
1/2+x,1/2+y,z
1/2-x,1/2-y,z
1/2+x,1/2-y,-z
1/2-x,1/2+y,-z
1/2-x,1/2-y,-z
1/2+x,1/2+y,-z
1/2-x,1/2+y,z
1/2+x,1/2-y,z
loop_
_atom_site_type_symbol
_atom_site_label
_atom_site_fract_x
_atom_site_fract_y
_atom_site_fract_z
Si Si1 0.592583 0.891694 0.500000
Si Si2 0.749491 0.637574 0.500000
Si Si3 0.758626 0.892151 0.348651
Si Si4 0.103003 0.883992 0.699923
Si Si5 0.000000 0.383492 0.918574
Si Si6 0.893639 0.116807 0.851686
O O1 0.673709 0.896022 0.500000
O O2 0.575551 0.849557 0.424772
O O3 0.569145 0.000000 0.500000
O O4 0.750000 0.750000 0.500000
O O5 0.716857 0.605822 0.428601
O O6 0.819743 0.852762 0.305146
O O7 0.684280 0.851275 0.351449
O O8 0.748464 0.000000 0.325609
O O9 0.077513 0.856232 0.776733
O O10 0.062115 0.855275 0.631676
O O11 0.102780 0.000000 0.699400
O O12 0.000000 0.500000 0.921177
O O13 0.000000 0.352202 0.000000
O O14 0.895307 0.000000 0.855324
#
# Coordination Sequence:
#
# PCOD9511109 Si02
#       6
#    16  16  32  32  16  32
#     4   8  14  26  44  63  87 113 142 182 224 272
#     4  10  18  26  38  61  95 121 143 182 228 282
#     4   9  16  26  43  64  87 121 158 189 222 274
#     4   9  16  25  41  61  88 122 155 190 223 267
#     4   9  18  28  36  57  95 130 154 187 235 273
#     4   8  13  23  40  64  85 109 147 187 225 261
#
# _framework density 26.598077
#
# number of rings (size 3 to 8) (size 9 to 14) (size 15 to 20)
#    0.000    3.222    0.000    3.000    1.556    2.667 
#    0.000    0.000    0.000   11.333    0.000    4.667 
#    0.000   21.333    0.000    0.889    0.000    0.000 
#
# Total GULP energy -201057.934904 kJ/mol
# GULP energy per Si atom -5584.942636 kJ/mol
# Density = 2.653754 g / cm^3
# Si number density = 26.598077 Si / 1000 Ang^3
#
#
#
# Elastic Constant Matrix: (Units=GPa)
#
#
# Indices 1 2 3 4 5 6 
#
# 1 138.0309 -5.0502 55.3857 0.0000 0.0000 0.0000
# 2 -5.0502 110.7124 26.5161 0.0000 0.0000 0.0000
# 3 55.3857 26.5161 317.3704 0.0000 0.0000 0.0000
# 4 0.0000 0.0000 0.0000 4.6779 0.0000 0.0000
# 5 0.0000 0.0000 0.0000 0.0000 14.4683 0.0000
# 6 0.0000 0.0000 0.0000 0.0000 0.0000 -15.9603
#
#
#
# Elastic Compliance Matrix: (Units=1/GPa)
#
#
# Indices 1 2 3 4 5 6 
#
# 1 0.007843 0.000700 -0.001427 0.000000 0.000000 0.000000
# 2 0.000700 0.009279 -0.000897 0.000000 0.000000 0.000000
# 3 -0.001427 -0.000897 0.003475 0.000000 0.000000 0.000000
# 4 0.000000 0.000000 0.000000 0.213772 0.000000 0.000000
# 5 0.000000 0.000000 0.000000 0.000000 0.069117 0.000000
# 6 0.000000 0.000000 0.000000 0.000000 0.000000 -0.062655
#
#
# Mechanical properties :
#
#
# Convention : Reuss Voigt Hill
#
# Bulk Modulus (GPa) = 57.64592 79.97965 68.81278
# Shear Modulus (GPa) = 20.01096 33.25464 26.63280
#
# Velocity S-wave (km/s) = 2.74587 3.53974 3.16777
# Velocity P-wave (km/s) = 5.63676 6.84408 6.26955
#
# Compressibility (1/GPa) = 0.01734728
#
# Stress axis : x y z
#
# Youngs Moduli (GPa) = 127.50203 107.76738 287.77573
#
# Poissons Ratio (x) = -0.07539 0.41070
# Poissons Ratio (y) = -0.08920 0.25824
# Poissons Ratio (z) = 0.18197 0.09671
#
# Static dielectric constant tensor:
#      x y z
#    x 2.029780 0.000000 0.000000 
#    y 0.000000 2.065220 0.000000 
#    z 0.000000 0.000000 2.085080 
# 
# From -- ./inp_files/25779.got.cif
#   From: 2010.05.17/outbox.cif.g08.bks.cpg/sg69_13_cif.got.tgz:25779.got - 2010.06.03 19:29:58.
