data_PCOD9511438
_publ_section_title
;
Structure prediction by ZEFSAII (Michael W. Deem and Ramdas Pophale) SiO2 
 PCOD9511438
Probable space group: F M M M
;
_chemical_formula_sum "Si O2"
_cell_formula_units_Z 192
_cell_length_a 32.937155
_cell_length_b 14.791816
_cell_length_c 19.904110
_cell_angle_alpha 90.000000
_cell_angle_beta 90.000000
_cell_angle_gamma 90.000000
_cell_volume 9697.289086
_symmetry_space_group_name_H-M "F M M M"
_symmetry_group_IT_number 69
_symmetry_cell_setting 'orthorhombic'
loop_
_space_group_symop_operation_xyz
x,y,z
-x,-y,z
x,-y,-z
-x,y,-z
-x,-y,-z
x,y,-z
-x,y,z
x,-y,z
x,1/2+y,1/2+z
-x,1/2-y,1/2+z
x,1/2-y,1/2-z
-x,1/2+y,1/2-z
-x,1/2-y,1/2-z
x,1/2+y,1/2-z
-x,1/2+y,1/2+z
x,1/2-y,1/2+z
1/2+x,y,1/2+z
1/2-x,-y,1/2+z
1/2+x,-y,1/2-z
1/2-x,y,1/2-z
1/2-x,-y,1/2-z
1/2+x,y,1/2-z
1/2-x,y,1/2+z
1/2+x,-y,1/2+z
1/2+x,1/2+y,z
1/2-x,1/2-y,z
1/2+x,1/2-y,-z
1/2-x,1/2+y,-z
1/2-x,1/2-y,-z
1/2+x,1/2+y,-z
1/2-x,1/2+y,z
1/2+x,1/2-y,z
loop_
_atom_site_type_symbol
_atom_site_label
_atom_site_fract_x
_atom_site_fract_y
_atom_site_fract_z
Si Si1 0.717842 0.369837 0.000000
Si Si2 0.844710 0.600155 0.614042
Si Si3 0.543525 0.141454 0.254444
Si Si4 0.045005 0.603809 0.902890
Si Si5 0.127270 0.700501 0.894781
Si Si6 0.368816 0.898241 0.755201
Si Si7 0.307454 0.159887 0.000000
O O1 0.694807 0.401397 0.932937
O O2 0.708531 0.262880 0.000000
O O3 0.765282 0.393091 0.000000
O O4 0.863966 0.500000 0.605486
O O5 0.868365 0.691988 0.594539
O O6 0.837421 0.611427 0.694176
O O7 0.500000 0.115594 0.285989
O O8 0.544339 0.250000 0.250000
O O9 0.543553 0.105256 0.178345
O O10 0.586956 0.110759 0.281178
O O11 0.051029 0.500000 0.923826
O O12 0.083597 0.664790 0.919266
O O13 0.000000 0.634029 0.924787
O O14 0.131985 0.672348 0.816269
O O15 0.163112 0.651674 0.935959
O O16 0.366039 0.000000 0.783427
#
# Coordination Sequence:
#
# PCOD9511438 Si02
#       7
#    16  32  32  32  32  32  16
#     4   9  19  40  60  80 105 129 173 225 270 327
#     4  10  20  34  55  79 105 142 181 220 271 325
#     4   9  15  23  39  65  97 133 172 214 259 305
#     4   9  17  30  48  71 104 145 181 215 262 316
#     4  10  18  34  56  80 112 142 179 225 262 309
#     4  10  19  31  49  76 107 140 180 220 264 316
#     4   9  20  36  61  85 102 135 175 215 268 323
#
# _framework density 19.799348999999999
#
# number of rings (size 3 to 8) (size 9 to 14) (size 15 to 20)
#    0.000    2.500    0.000    4.750    0.000    1.000 
#    0.000    6.250    0.000    8.500    0.000    1.750 
#    0.000    9.333    0.000    0.000    0.000    0.000 
#
# Total GULP energy -267246.370446 kJ/mol
# GULP energy per Si atom -5567.632718 kJ/mol
# Density = 1.975428 g / cm^3
# Si number density = 19.799349 Si / 1000 Ang^3
#
#
#
# Elastic Constant Matrix: (Units=GPa)
#
#
# Indices 1 2 3 4 5 6 
#
# 1 151.3815 52.4646 58.0693 0.0000 0.0000 0.0000
# 2 52.4646 124.5642 17.1323 0.0000 0.0000 0.0000
# 3 58.0693 17.1323 93.1069 0.0000 0.0000 0.0000
# 4 0.0000 0.0000 0.0000 62.9874 0.0000 0.0000
# 5 0.0000 0.0000 0.0000 0.0000 13.5632 0.0000
# 6 0.0000 0.0000 0.0000 0.0000 0.0000 15.8359
#
#
#
# Elastic Compliance Matrix: (Units=1/GPa)
#
#
# Indices 1 2 3 4 5 6 
#
# 1 0.009922 -0.003414 -0.005560 0.000000 0.000000 0.000000
# 2 -0.003414 0.009411 0.000398 0.000000 0.000000 0.000000
# 3 -0.005560 0.000398 0.014135 0.000000 0.000000 0.000000
# 4 0.000000 0.000000 0.000000 0.015876 0.000000 0.000000
# 5 0.000000 0.000000 0.000000 0.000000 0.073729 0.000000
# 6 0.000000 0.000000 0.000000 0.000000 0.000000 0.063148
#
#
# Mechanical properties :
#
#
# Convention : Reuss Voigt Hill
#
# Bulk Modulus (GPa) = 61.29304 69.37609 65.33456
# Shear Modulus (GPa) = 23.94500 34.56973 29.25737
#
# Velocity S-wave (km/s) = 3.48139 4.18305 3.84825
# Velocity P-wave (km/s) = 6.86909 7.64501 7.26742
#
# Compressibility (1/GPa) = 0.01631507
#
# Stress axis : x y z
#
# Youngs Moduli (GPa) = 100.78776 106.25502 70.74759
#
# Poissons Ratio (x) = 0.36278 0.39335
# Poissons Ratio (y) = 0.34411 -0.02813
# Poissons Ratio (z) = 0.56036 -0.04225
#
# Static dielectric constant tensor:
#      x y z
#    x 1.728940 0.000000 0.000000 
#    y 0.000000 1.736700 0.000000 
#    z 0.000000 0.000000 1.726220 
# 
# From -- ./inp_files/38993.got.cif
#   From: 2010.05.17/outbox.cif.g08.bks.cpg/sg69_20_cif.got.tgz:38993.got - 2010.06.03 19:29:58.
