data_PCOD9511099
_publ_section_title
;
Structure prediction by ZEFSAII (Michael W. Deem and Ramdas Pophale) SiO2 
 PCOD9511099
Probable space group: F M M M
;
_chemical_formula_sum "Si O2"
_cell_formula_units_Z 144
_cell_length_a 18.247252
_cell_length_b 17.138479
_cell_length_c 26.130215
_cell_angle_alpha 90.000000
_cell_angle_beta 90.000000
_cell_angle_gamma 90.000000
_cell_volume 8171.705931
_symmetry_space_group_name_H-M "F M M M"
_symmetry_group_IT_number 69
_symmetry_cell_setting 'orthorhombic'
loop_
_space_group_symop_operation_xyz
x,y,z
-x,-y,z
x,-y,-z
-x,y,-z
-x,-y,-z
x,y,-z
-x,y,z
x,-y,z
x,1/2+y,1/2+z
-x,1/2-y,1/2+z
x,1/2-y,1/2-z
-x,1/2+y,1/2-z
-x,1/2-y,1/2-z
x,1/2+y,1/2-z
-x,1/2+y,1/2+z
x,1/2-y,1/2+z
1/2+x,y,1/2+z
1/2-x,-y,1/2+z
1/2+x,-y,1/2-z
1/2-x,y,1/2-z
1/2-x,-y,1/2-z
1/2+x,y,1/2-z
1/2-x,y,1/2+z
1/2+x,-y,1/2+z
1/2+x,1/2+y,z
1/2-x,1/2-y,z
1/2+x,1/2-y,-z
1/2-x,1/2+y,-z
1/2-x,1/2-y,-z
1/2+x,1/2+y,-z
1/2-x,1/2+y,z
1/2+x,1/2-y,z
loop_
_atom_site_type_symbol
_atom_site_label
_atom_site_fract_x
_atom_site_fract_y
_atom_site_fract_z
Si Si1 0.913661 0.913724 0.000000
Si Si2 0.587146 0.911385 0.856343
Si Si3 0.661361 0.740030 0.691088
Si Si4 0.185451 0.643699 0.940695
Si Si5 0.342398 0.821537 0.590554
O O1 0.891488 0.869435 0.948295
O O2 0.000000 0.919737 0.000000
O O3 0.879673 0.000000 0.000000
O O4 0.500000 0.895360 0.856246
O O5 0.631295 0.844463 0.826007
O O6 0.621817 0.903855 0.912961
O O7 0.598371 0.000000 0.837559
O O8 0.639959 0.750000 0.750000
O O9 0.750000 0.750000 0.687844
O O10 0.633269 0.802323 0.648540
O O11 0.262949 0.636993 0.911468
O O12 0.166517 0.735466 0.934426
O O13 0.195311 0.624692 0.000000
#
# Coordination Sequence:
#
# PCOD9511099 Si02
#       5
#    16  32  32  32  32
#     4  11  24  37  52  82 122 161 200 245 296 344
#     4  10  22  38  55  83 122 153 185 239 300 351
#     4  10  20  39  64  87 112 149 200 249 291 353
#     4  10  17  32  57  83 109 146 189 226 280 355
#     4  10  17  36  57  81 112 148 189 243 288 343
#
# _framework density 17.621779
#
# number of rings (size 3 to 8) (size 9 to 14) (size 15 to 20)
#    0.000    1.889    6.667    0.667    0.000    5.778 
#    0.000    4.444    0.000    2.667    0.000    0.000 
#    0.000    0.000    0.000    0.000    0.000    0.000 
#
# Total GULP energy -200454.638181 kJ/mol
# GULP energy per Si atom -5568.184394 kJ/mol
# Density = 1.758167 g / cm^3
# Si number density = 17.621779 Si / 1000 Ang^3
#
#
#
# Elastic Constant Matrix: (Units=GPa)
#
#
# Indices 1 2 3 4 5 6 
#
# 1 80.5737 54.6639 30.1091 0.0000 0.0000 0.0000
# 2 54.6639 81.6131 45.9607 0.0000 0.0000 0.0000
# 3 30.1091 45.9607 158.6945 0.0000 0.0000 0.0000
# 4 0.0000 0.0000 0.0000 34.5776 0.0000 0.0000
# 5 0.0000 0.0000 0.0000 0.0000 6.8160 0.0000
# 6 0.0000 0.0000 0.0000 0.0000 0.0000 30.4926
#
#
#
# Elastic Compliance Matrix: (Units=1/GPa)
#
#
# Indices 1 2 3 4 5 6 
#
# 1 0.022750 -0.015303 0.000116 0.000000 0.000000 0.000000
# 2 -0.015303 0.024934 -0.004318 0.000000 0.000000 0.000000
# 3 0.000116 -0.004318 0.007530 0.000000 0.000000 0.000000
# 4 0.000000 0.000000 0.000000 0.028920 0.000000 0.000000
# 5 0.000000 0.000000 0.000000 0.000000 0.146714 0.000000
# 6 0.000000 0.000000 0.000000 0.000000 0.000000 0.032795
#
#
# Mechanical properties :
#
#
# Convention : Reuss Voigt Hill
#
# Bulk Modulus (GPa) = 61.71379 64.70540 63.20960
# Shear Modulus (GPa) = 16.23090 27.05375 21.64233
#
# Velocity S-wave (km/s) = 3.03821 3.92247 3.50831
# Velocity P-wave (km/s) = 6.88513 7.57054 7.23595
#
# Compressibility (1/GPa) = 0.01620383
#
# Stress axis : x y z
#
# Youngs Moduli (GPa) = 43.95674 40.10545 132.80122
#
# Poissons Ratio (x) = 0.61372 -0.01536
# Poissons Ratio (y) = 0.67266 0.57344
# Poissons Ratio (z) = -0.00508 0.17318
#
# Static dielectric constant tensor:
#      x y z
#    x 1.606740 0.000000 0.000000 
#    y 0.000000 1.612550 0.000000 
#    z 0.000000 0.000000 1.620610 
# 
# From -- ./inp_files/26582.got.cif
#   From: 2010.05.17/outbox.cif.g08.bks.cpg/sg69_14_cif.got.tgz:26582.got - 2010.06.03 19:29:58.
