data_PCOD9511713
_publ_section_title
;
Structure prediction by ZEFSAII (Michael W. Deem and Ramdas Pophale) SiO2 
 PCOD9511713
Probable space group: F M M M
;
_chemical_formula_sum "Si O2"
_cell_formula_units_Z 176
_cell_length_a 25.880532
_cell_length_b 17.022298
_cell_length_c 17.190072
_cell_angle_alpha 90.000000
_cell_angle_beta 90.000000
_cell_angle_gamma 90.000000
_cell_volume 7573.019661
_symmetry_space_group_name_H-M "F M M M"
_symmetry_group_IT_number 69
_symmetry_cell_setting 'orthorhombic'
loop_
_space_group_symop_operation_xyz
x,y,z
-x,-y,z
x,-y,-z
-x,y,-z
-x,-y,-z
x,y,-z
-x,y,z
x,-y,z
x,1/2+y,1/2+z
-x,1/2-y,1/2+z
x,1/2-y,1/2-z
-x,1/2+y,1/2-z
-x,1/2-y,1/2-z
x,1/2+y,1/2-z
-x,1/2+y,1/2+z
x,1/2-y,1/2+z
1/2+x,y,1/2+z
1/2-x,-y,1/2+z
1/2+x,-y,1/2-z
1/2-x,y,1/2-z
1/2-x,-y,1/2-z
1/2+x,y,1/2-z
1/2-x,y,1/2+z
1/2+x,-y,1/2+z
1/2+x,1/2+y,z
1/2-x,1/2-y,z
1/2+x,1/2-y,-z
1/2-x,1/2+y,-z
1/2-x,1/2-y,-z
1/2+x,1/2+y,-z
1/2-x,1/2+y,z
1/2+x,1/2-y,z
loop_
_atom_site_type_symbol
_atom_site_label
_atom_site_fract_x
_atom_site_fract_y
_atom_site_fract_z
Si Si1 0.659106 0.000000 0.215459
Si Si2 0.210468 0.847401 0.314820
Si Si3 0.914969 0.349527 0.407337
Si Si4 0.302690 0.909954 0.592390
Si Si5 0.104889 0.822565 0.405768
Si Si6 0.409455 0.500000 0.408615
Si Si7 0.054769 0.000000 0.190203
O O1 0.689120 0.077642 0.231640
O O2 0.649879 0.000000 0.121389
O O3 0.602535 0.000000 0.251368
O O4 0.250000 0.816971 0.250000
O O5 0.249645 0.870733 0.382670
O O6 0.158093 0.815079 0.355107
O O7 0.922738 0.361186 0.500000
O O8 0.854356 0.362287 0.387696
O O9 0.926683 0.257999 0.389663
O O10 0.941479 0.421078 0.361714
O O11 0.303173 0.913906 0.500000
O O12 0.307218 0.000000 0.620741
O O13 0.115672 0.822732 0.500000
O O14 0.077706 0.907408 0.386775
O O15 0.417820 0.500000 0.500000
O O16 0.000000 0.000000 0.232782
#
# Coordination Sequence:
#
# PCOD9511713 Si02
#       7
#    16  32  32  32  32  16  16
#     4  10  21  37  57  88 126 162 206 260 316 361
#     4  11  20  32  55  84 124 168 213 248 290 360
#     4  10  21  39  62  89 123 160 202 256 310 361
#     4  10  19  32  53  82 123 168 206 246 300 356
#     4   9  19  36  58  86 121 159 206 257 301 351
#     4   8  16  35  64  90 111 150 202 251 302 360
#     4  12  25  43  66  90 120 159 201 251 318 387
#
# _framework density 23.240399
#
# number of rings (size 3 to 8) (size 9 to 14) (size 15 to 20)
#    0.000    2.000    1.818    2.182    0.000    2.182 
#    0.000   13.636    0.000    9.000    0.000    5.091 
#    0.000    0.000    0.000    0.000    0.000    0.000 
#
# Total GULP energy -244961.741782 kJ/mol
# GULP energy per Si atom -5567.312313 kJ/mol
# Density = 2.318750 g / cm^3
# Si number density = 23.240399 Si / 1000 Ang^3
#
#
#
# Elastic Constant Matrix: (Units=GPa)
#
#
# Indices 1 2 3 4 5 6 
#
# 1 81.2162 27.0610 2.6737 0.0000 0.0000 0.0000
# 2 27.0610 168.8264 25.9063 0.0000 0.0000 0.0000
# 3 2.6737 25.9063 34.1043 0.0000 0.0000 0.0000
# 4 0.0000 0.0000 0.0000 20.6522 0.0000 0.0000
# 5 0.0000 0.0000 0.0000 0.0000 -0.2368 0.0000
# 6 0.0000 0.0000 0.0000 0.0000 0.0000 -10.4454
#
#
#
# Elastic Compliance Matrix: (Units=1/GPa)
#
#
# Indices 1 2 3 4 5 6 
#
# 1 0.013020 -0.002185 0.000639 0.000000 0.000000 0.000000
# 2 -0.002185 0.007071 -0.005200 0.000000 0.000000 0.000000
# 3 0.000639 -0.005200 0.033222 0.000000 0.000000 0.000000
# 4 0.000000 0.000000 0.000000 0.048421 0.000000 0.000000
# 5 0.000000 0.000000 0.000000 0.000000 -4.222659 0.000000
# 6 0.000000 0.000000 0.000000 0.000000 0.000000 -0.095736
#
#
# Mechanical properties :
#
#
# Convention : Reuss Voigt Hill
#
# Bulk Modulus (GPa) = 25.11257 43.93655 34.52456
# Shear Modulus (GPa) = -1.19335 17.22771 8.01718
#
# Velocity S-wave (km/s) = -0.71735 2.72560 1.85935
# Velocity P-wave (km/s) = 3.18479 5.37136 4.41556
#
# Compressibility (1/GPa) = 0.03982070
#
# Stress axis : x y z
#
# Youngs Moduli (GPa) = 76.80605 141.41360 30.10056
#
# Poissons Ratio (x) = 0.30899 -0.01924
# Poissons Ratio (y) = 0.16782 0.15653
# Poissons Ratio (z) = -0.04908 0.73539
#
# Static dielectric constant tensor:
#      x y z
#    x 1.797760 0.000000 0.000000 
#    y 0.000000 1.948370 0.000000 
#    z 0.000000 0.000000 1.874530 
# 
# From -- ./inp_files/26815.got.cif
#   From: 2010.05.17/outbox.cif.g08.bks.cpg/sg69_14_cif.got.tgz:26815.got - 2010.06.03 19:29:58.
