data_PCOD9511421
_publ_section_title
;
Structure prediction by ZEFSAII (Michael W. Deem and Ramdas Pophale) SiO2 
 PCOD9511421
Probable space group: F M M M
;
_chemical_formula_sum "Si O2"
_cell_formula_units_Z 208
_cell_length_a 20.775831
_cell_length_b 27.215982
_cell_length_c 18.256680
_cell_angle_alpha 90.000000
_cell_angle_beta 90.000000
_cell_angle_gamma 90.000000
_cell_volume 10322.959330
_symmetry_space_group_name_H-M "F M M M"
_symmetry_group_IT_number 69
_symmetry_cell_setting 'orthorhombic'
loop_
_space_group_symop_operation_xyz
x,y,z
-x,-y,z
x,-y,-z
-x,y,-z
-x,-y,-z
x,y,-z
-x,y,z
x,-y,z
x,1/2+y,1/2+z
-x,1/2-y,1/2+z
x,1/2-y,1/2-z
-x,1/2+y,1/2-z
-x,1/2-y,1/2-z
x,1/2+y,1/2-z
-x,1/2+y,1/2+z
x,1/2-y,1/2+z
1/2+x,y,1/2+z
1/2-x,-y,1/2+z
1/2+x,-y,1/2-z
1/2-x,y,1/2-z
1/2-x,-y,1/2-z
1/2+x,y,1/2-z
1/2-x,y,1/2+z
1/2+x,-y,1/2+z
1/2+x,1/2+y,z
1/2-x,1/2-y,z
1/2+x,1/2-y,-z
1/2-x,1/2+y,-z
1/2-x,1/2-y,-z
1/2+x,1/2+y,-z
1/2-x,1/2+y,z
1/2+x,1/2-y,z
loop_
_atom_site_type_symbol
_atom_site_label
_atom_site_fract_x
_atom_site_fract_y
_atom_site_fract_z
Si Si1 0.604757 0.757821 0.417701
Si Si2 0.142572 0.659371 0.148618
Si Si3 0.568529 0.306208 0.222126
Si Si4 0.325774 0.555065 0.666598
Si Si5 0.218467 0.827525 0.085939
Si Si6 0.176623 0.574636 0.341873
Si Si7 0.576600 0.500000 0.088339
O O1 0.582420 0.762811 0.500000
O O2 0.601421 0.700957 0.393351
O O3 0.571578 0.796055 0.363505
O O4 0.678506 0.777100 0.412962
O O5 0.124123 0.667148 0.233465
O O6 0.138009 0.601619 0.130612
O O7 0.215927 0.673143 0.131302
O O8 0.500000 0.329127 0.242407
O O9 0.570908 0.250000 0.250000
O O10 0.350274 0.500000 0.653145
O O11 0.250410 0.556783 0.642718
O O12 0.328174 0.566083 0.754194
O O13 0.177612 0.871022 0.123593
O O14 0.231614 0.838708 0.000000
O O15 0.118154 0.545375 0.379303
O O16 0.500000 0.500000 0.108145
O O17 0.580192 0.500000 0.000000
#
# Coordination Sequence:
#
# PCOD9511421 Si02
#       7
#    32  32  32  32  32  32  16
#     4  10  20  35  55  83 120 155 188 234 290 352
#     4  10  20  33  57  82 112 151 191 243 296 346
#     4   9  19  36  55  80 111 145 189 234 276 339
#     4  10  18  33  58  81 105 142 194 255 307 344
#     4  10  20  33  54  85 120 151 187 238 297 354
#     4  10  18  35  55  78 108 148 194 245 291 345
#     4  11  22  35  54  80 116 161 198 225 266 338
#
# _framework density 20.149260000000002
#
# number of rings (size 3 to 8) (size 9 to 14) (size 15 to 20)
#    0.000    2.077    1.538    2.769    0.000    3.385 
#    0.000    8.462    0.000    2.308    0.000    0.000 
#    0.000    0.000    0.000   16.462    0.000    9.385 
#
# Total GULP energy -289546.321776 kJ/mol
# GULP energy per Si atom -5568.198496 kJ/mol
# Density = 2.010340 g / cm^3
# Si number density = 20.149260 Si / 1000 Ang^3
#
#
#
# Elastic Constant Matrix: (Units=GPa)
#
#
# Indices 1 2 3 4 5 6 
#
# 1 83.9302 32.0519 51.3226 0.0000 0.0000 0.0000
# 2 32.0519 132.4060 34.3932 0.0000 0.0000 0.0000
# 3 51.3226 34.3932 96.6422 0.0000 0.0000 0.0000
# 4 0.0000 0.0000 0.0000 19.2035 0.0000 0.0000
# 5 0.0000 0.0000 0.0000 0.0000 17.3545 0.0000
# 6 0.0000 0.0000 0.0000 0.0000 0.0000 -13.5803
#
#
#
# Elastic Compliance Matrix: (Units=1/GPa)
#
#
# Indices 1 2 3 4 5 6 
#
# 1 0.018151 -0.002083 -0.008898 0.000000 0.000000 0.000000
# 2 -0.002083 0.008561 -0.001941 0.000000 0.000000 0.000000
# 3 -0.008898 -0.001941 0.015764 0.000000 0.000000 0.000000
# 4 0.000000 0.000000 0.000000 0.052074 0.000000 0.000000
# 5 0.000000 0.000000 0.000000 0.000000 0.057622 0.000000
# 6 0.000000 0.000000 0.000000 0.000000 0.000000 -0.073636
#
#
# Mechanical properties :
#
#
# Convention : Reuss Voigt Hill
#
# Bulk Modulus (GPa) = 60.12263 60.94597 60.53430
# Shear Modulus (GPa) = 45.48703 17.60962 31.54833
#
# Velocity S-wave (km/s) = 4.75647 2.95949 3.96123
# Velocity P-wave (km/s) = 7.75041 6.48005 7.14352
#
# Compressibility (1/GPa) = 0.01663267
#
# Stress axis : x y z
#
# Youngs Moduli (GPa) = 55.09317 116.81220 63.43766
#
# Poissons Ratio (x) = 0.24327 0.56448
# Poissons Ratio (y) = 0.11473 0.12311
# Poissons Ratio (z) = 0.49023 0.22669
#
# Static dielectric constant tensor:
#      x y z
#    x 1.749480 0.000000 0.000000 
#    y 0.000000 1.761320 0.000000 
#    z 0.000000 0.000000 1.743180 
# 
# From -- ./inp_files/25171.got.cif
#   From: 2010.05.17/outbox.cif.g08.bks.cpg/sg69_13_cif.got.tgz:25171.got - 2010.06.03 19:29:58.
