data_PCOD9511029
_publ_section_title
;
Structure prediction by ZEFSAII (Michael W. Deem and Ramdas Pophale) SiO2 
 PCOD9511029
Probable space group: F M M M
;
_chemical_formula_sum "Si O2"
_cell_formula_units_Z 80
_cell_length_a 5.678792
_cell_length_b 24.404236
_cell_length_c 24.591673
_cell_angle_alpha 90.000000
_cell_angle_beta 90.000000
_cell_angle_gamma 90.000000
_cell_volume 3408.075862
_symmetry_space_group_name_H-M "F M M M"
_symmetry_group_IT_number 69
_symmetry_cell_setting 'orthorhombic'
loop_
_space_group_symop_operation_xyz
x,y,z
-x,-y,z
x,-y,-z
-x,y,-z
-x,-y,-z
x,y,-z
-x,y,z
x,-y,z
x,1/2+y,1/2+z
-x,1/2-y,1/2+z
x,1/2-y,1/2-z
-x,1/2+y,1/2-z
-x,1/2-y,1/2-z
x,1/2+y,1/2-z
-x,1/2+y,1/2+z
x,1/2-y,1/2+z
1/2+x,y,1/2+z
1/2-x,-y,1/2+z
1/2+x,-y,1/2-z
1/2-x,y,1/2-z
1/2-x,-y,1/2-z
1/2+x,y,1/2-z
1/2-x,y,1/2+z
1/2+x,-y,1/2+z
1/2+x,1/2+y,z
1/2-x,1/2-y,z
1/2+x,1/2-y,-z
1/2-x,1/2+y,-z
1/2-x,1/2-y,-z
1/2+x,1/2+y,-z
1/2-x,1/2+y,z
1/2+x,1/2-y,z
loop_
_atom_site_type_symbol
_atom_site_label
_atom_site_fract_x
_atom_site_fract_y
_atom_site_fract_z
Si Si1 0.750620 0.835243 0.064801
Si Si2 0.500000 0.227824 0.687906
Si Si3 0.000000 0.900290 0.217928
Si Si4 0.500000 0.938108 0.597980
O O1 0.500000 0.818170 0.086876
O O2 0.000000 0.810615 0.084132
O O3 0.785802 0.899960 0.076933
O O4 0.746632 0.826565 0.000000
O O5 0.500000 0.250000 0.750000
O O6 0.750000 0.250000 0.666227
O O7 0.500000 0.162147 0.695922
O O8 0.750000 0.908434 0.250000
O O9 0.000000 0.936296 0.163284
O O10 0.500000 0.000000 0.578296
#
# Coordination Sequence:
#
# PCOD9511029 Si02
#       4
#    32  16  16  16
#     4   8  16  32  52  72  95 128 170 216 259 290
#     4  10  16  34  59  77  92 118 157 222 277 298
#     4  12  24  37  54  76 102 140 176 208 250 302
#     4  10  23  36  50  72 108 144 177 206 240 298
#
# _framework density 23.473655999999998
#
# number of rings (size 3 to 8) (size 9 to 14) (size 15 to 20)
#    1.200    1.200    4.000    0.000    2.800    3.200 
#    0.000    2.000    0.000    0.000    0.000    0.000 
#    0.000    6.400    0.000    0.000    0.000    0.000 
#
# Total GULP energy -111448.247399 kJ/mol
# GULP energy per Si atom -5572.412370 kJ/mol
# Density = 2.342023 g / cm^3
# Si number density = 23.473656 Si / 1000 Ang^3
#
#
#
# Elastic Constant Matrix: (Units=GPa)
#
#
# Indices 1 2 3 4 5 6 
#
# 1 294.3321 35.7768 42.2485 0.0000 0.0000 0.0000
# 2 35.7768 112.6856 3.5470 0.0000 0.0000 0.0000
# 3 42.2485 3.5470 55.6126 0.0000 0.0000 0.0000
# 4 0.0000 0.0000 0.0000 -102.9747 0.0000 0.0000
# 5 0.0000 0.0000 0.0000 0.0000 32.9473 0.0000
# 6 0.0000 0.0000 0.0000 0.0000 0.0000 14.0279
#
#
#
# Elastic Compliance Matrix: (Units=1/GPa)
#
#
# Indices 1 2 3 4 5 6 
#
# 1 0.003960 -0.001165 -0.002934 0.000000 0.000000 0.000000
# 2 -0.001165 0.009235 0.000296 0.000000 0.000000 0.000000
# 3 -0.002934 0.000296 0.020192 0.000000 0.000000 0.000000
# 4 0.000000 0.000000 0.000000 -0.009711 0.000000 0.000000
# 5 0.000000 0.000000 0.000000 0.000000 0.030351 0.000000
# 6 0.000000 0.000000 0.000000 0.000000 0.000000 0.071287
#
#
# Mechanical properties :
#
#
# Convention : Reuss Voigt Hill
#
# Bulk Modulus (GPa) = 38.78915 69.53055 54.15985
# Shear Modulus (GPa) = 35.33219 14.20396 24.76808
#
# Velocity S-wave (km/s) = 3.88388 2.46255 3.25182
# Velocity P-wave (km/s) = 6.05583 6.14577 6.10097
#
# Compressibility (1/GPa) = 0.02578040
#
# Stress axis : x y z
#
# Youngs Moduli (GPa) = 252.50446 108.28594 49.52491
#
# Poissons Ratio (x) = 0.12615 0.14532
# Poissons Ratio (y) = 0.29417 -0.01466
# Poissons Ratio (z) = 0.74093 -0.03206
#
# Static dielectric constant tensor:
#      x y z
#    x 1.917910 0.000000 0.000000 
#    y 0.000000 1.871920 0.000000 
#    z 0.000000 0.000000 2.014980 
# 
# From -- ./inp_files/39218.got.cif
#   From: 2010.05.17/outbox.cif.g08.bks.cpg/sg69_20_cif.got.tgz:39218.got - 2010.06.03 19:29:58.
