data_PCOD9511391
_publ_section_title
;
Structure prediction by ZEFSAII (Michael W. Deem and Ramdas Pophale) SiO2 
 PCOD9511391
Probable space group: F M M M
;
_chemical_formula_sum "Si O2"
_cell_formula_units_Z 136
_cell_length_a 20.022520
_cell_length_b 19.742797
_cell_length_c 17.307372
_cell_angle_alpha 90.000000
_cell_angle_beta 90.000000
_cell_angle_gamma 90.000000
_cell_volume 6841.613632
_symmetry_space_group_name_H-M "F M M M"
_symmetry_group_IT_number 69
_symmetry_cell_setting 'orthorhombic'
loop_
_space_group_symop_operation_xyz
x,y,z
-x,-y,z
x,-y,-z
-x,y,-z
-x,-y,-z
x,y,-z
-x,y,z
x,-y,z
x,1/2+y,1/2+z
-x,1/2-y,1/2+z
x,1/2-y,1/2-z
-x,1/2+y,1/2-z
-x,1/2-y,1/2-z
x,1/2+y,1/2-z
-x,1/2+y,1/2+z
x,1/2-y,1/2+z
1/2+x,y,1/2+z
1/2-x,-y,1/2+z
1/2+x,-y,1/2-z
1/2-x,y,1/2-z
1/2-x,-y,1/2-z
1/2+x,y,1/2-z
1/2-x,y,1/2+z
1/2+x,-y,1/2+z
1/2+x,1/2+y,z
1/2-x,1/2-y,z
1/2+x,1/2-y,-z
1/2-x,1/2+y,-z
1/2-x,1/2-y,-z
1/2+x,1/2+y,-z
1/2-x,1/2+y,z
1/2+x,1/2-y,z
loop_
_atom_site_type_symbol
_atom_site_label
_atom_site_fract_x
_atom_site_fract_y
_atom_site_fract_z
Si Si1 0.500000 0.260923 0.156392
Si Si2 0.000000 0.389233 0.908931
Si Si3 0.602584 0.624112 0.142861
Si Si4 0.370779 0.421953 0.687468
Si Si5 0.500000 0.500000 0.113297
Si Si6 0.755599 0.081139 0.911434
O O1 0.500000 0.250000 0.250000
O O2 0.500000 0.189605 0.114036
O O3 0.436719 0.306265 0.131106
O O4 0.066378 0.419208 0.869763
O O5 0.000000 0.400157 0.000000
O O6 0.611236 0.617211 0.235201
O O7 0.557787 0.560245 0.115773
O O8 0.675110 0.618063 0.105465
O O9 0.359931 0.500000 0.710865
O O10 0.303907 0.397662 0.645410
O O11 0.765966 0.000000 0.900669
O O12 0.734887 0.091509 0.000000
#
# Coordination Sequence:
#
# PCOD9511391 Si02
#       6
#    16  16  32  32   8  32
#     4  11  23  41  62  86 114 161 208 253 291 352
#     4  12  25  41  61  89 125 161 202 253 303 355
#     4  11  20  36  65  88 119 156 205 249 304 358
#     4  11  21  36  65  94 122 158 199 248 307 370
#     4  10  18  32  57  96 111 144 194 256 294 354
#     4  10  21  37  56  90 132 159 190 244 306 366
#
# _framework density 19.878350999999999
#
# number of rings (size 3 to 8) (size 9 to 14) (size 15 to 20)
#    0.000    1.176    4.706    2.471    0.000    4.706 
#    0.000    3.529    0.000    2.824    0.000    0.000 
#    0.000    0.000    0.000    0.000    0.000    0.000 
#
# Total GULP energy -189519.014350 kJ/mol
# GULP energy per Si atom -5574.088657 kJ/mol
# Density = 1.983311 g / cm^3
# Si number density = 19.878351 Si / 1000 Ang^3
#
#
#
# Elastic Constant Matrix: (Units=GPa)
#
#
# Indices 1 2 3 4 5 6 
#
# 1 107.3079 8.1677 -17.0947 0.0000 0.0000 0.0000
# 2 8.1677 57.2520 -10.1942 0.0000 0.0000 0.0000
# 3 -17.0947 -10.1942 30.5620 0.0000 0.0000 0.0000
# 4 0.0000 0.0000 0.0000 19.9827 0.0000 0.0000
# 5 0.0000 0.0000 0.0000 0.0000 222.1546 0.0000
# 6 0.0000 0.0000 0.0000 0.0000 0.0000 20.5704
#
#
#
# Elastic Compliance Matrix: (Units=1/GPa)
#
#
# Indices 1 2 3 4 5 6 
#
# 1 0.010242 -0.000469 0.005573 0.000000 0.000000 0.000000
# 2 -0.000469 0.018591 0.005939 0.000000 0.000000 0.000000
# 3 0.005573 0.005939 0.037818 0.000000 0.000000 0.000000
# 4 0.000000 0.000000 0.000000 0.050043 0.000000 0.000000
# 5 0.000000 0.000000 0.000000 0.000000 0.004501 0.000000
# 6 0.000000 0.000000 0.000000 0.000000 0.000000 0.048614
#
#
# Mechanical properties :
#
#
# Convention : Reuss Voigt Hill
#
# Bulk Modulus (GPa) = 11.26928 17.43105 14.35016
# Shear Modulus (GPa) = 28.20016 66.82440 47.51228
#
# Velocity S-wave (km/s) = 3.77057 5.80428 4.89422
# Velocity P-wave (km/s) = 4.96363 7.32854 6.25880
#
# Compressibility (1/GPa) = 0.08873682
#
# Stress axis : x y z
#
# Youngs Moduli (GPa) = 97.63313 53.78943 26.44221
#
# Poissons Ratio (x) = 0.02522 -0.14735
# Poissons Ratio (y) = 0.04579 -0.15704
# Poissons Ratio (z) = -0.54407 -0.31945
#
# Static dielectric constant tensor:
#      x y z
#    x 1.684490 0.000000 0.000000 
#    y 0.000000 1.671230 0.000000 
#    z 0.000000 0.000000 1.713810 
# 
# From -- ./inp_files/22603.got.cif
#   From: 2010.05.17/outbox.cif.g08.bks.cpg/sg69_12_cif.got.tgz:22603.got - 2010.06.03 19:29:58.
