data_PCOD9511568
_publ_section_title
;
Structure prediction by ZEFSAII (Michael W. Deem and Ramdas Pophale) SiO2 
 PCOD9511568
Probable space group: F M M M
;
_chemical_formula_sum "Si O2"
_cell_formula_units_Z 160
_cell_length_a 24.692245
_cell_length_b 11.830983
_cell_length_c 24.822998
_cell_angle_alpha 90.000000
_cell_angle_beta 90.000000
_cell_angle_gamma 90.000000
_cell_volume 7251.630051
_symmetry_space_group_name_H-M "F M M M"
_symmetry_group_IT_number 69
_symmetry_cell_setting 'orthorhombic'
loop_
_space_group_symop_operation_xyz
x,y,z
-x,-y,z
x,-y,-z
-x,y,-z
-x,-y,-z
x,y,-z
-x,y,z
x,-y,z
x,1/2+y,1/2+z
-x,1/2-y,1/2+z
x,1/2-y,1/2-z
-x,1/2+y,1/2-z
-x,1/2-y,1/2-z
x,1/2+y,1/2-z
-x,1/2+y,1/2+z
x,1/2-y,1/2+z
1/2+x,y,1/2+z
1/2-x,-y,1/2+z
1/2+x,-y,1/2-z
1/2-x,y,1/2-z
1/2-x,-y,1/2-z
1/2+x,y,1/2-z
1/2-x,y,1/2+z
1/2+x,-y,1/2+z
1/2+x,1/2+y,z
1/2-x,1/2-y,z
1/2+x,1/2-y,-z
1/2-x,1/2+y,-z
1/2-x,1/2-y,-z
1/2+x,1/2+y,-z
1/2-x,1/2+y,z
1/2+x,1/2-y,z
loop_
_atom_site_type_symbol
_atom_site_label
_atom_site_fract_x
_atom_site_fract_y
_atom_site_fract_z
Si Si1 0.500000 0.123431 0.773893
Si Si2 0.194433 0.817547 0.500000
Si Si3 0.720219 0.374644 0.380152
Si Si4 0.060476 0.628963 0.381891
Si Si5 0.395487 0.842169 0.847199
Si Si6 0.603620 0.126747 0.500000
Si Si7 0.564918 0.500000 0.561112
O O1 0.500000 0.250000 0.750000
O O2 0.556924 0.121706 0.806871
O O3 0.500000 0.000000 0.744249
O O4 0.250000 0.750000 0.500000
O O5 0.197597 0.876907 0.441910
O O6 0.146775 0.725999 0.500000
O O7 0.748119 0.500000 0.372817
O O8 0.750000 0.250000 0.374251
O O9 0.666969 0.374850 0.341950
O O10 0.066396 0.500000 0.366345
O O11 0.102457 0.707793 0.352330
O O12 0.068886 0.635045 0.445972
O O13 0.000000 0.669250 0.369102
O O14 0.415902 0.893544 0.904156
O O15 0.629137 0.000000 0.500000
O O16 0.500000 0.500000 0.559430
O O17 0.585746 0.500000 0.500000
#
# Coordination Sequence:
#
# PCOD9511568 Si02
#       7
#    16  16  32  32  32  16  16
#     4  12  26  48  74 104 135 169 212 274 344 410
#     4  10  21  34  50  75 115 170 232 266 315 366
#     4  11  24  39  60  87 126 177 227 279 327 389
#     4  10  20  32  51  81 122 163 207 254 317 385
#     4  12  21  41  65  93 134 169 224 270 328 399
#     4  10  19  31  48  74 114 173 218 263 309 376
#     4  11  22  34  62  98 136 173 215 268 334 405
#
# _framework density 22.064004000000001
#
# number of rings (size 3 to 8) (size 9 to 14) (size 15 to 20)
#    0.000    1.100    6.000    0.600    2.800    6.000 
#    0.000    0.000    0.000    0.600    0.000    2.800 
#    0.000    0.000    0.000    0.000    0.000    0.000 
#
# Total GULP energy -222965.924413 kJ/mol
# GULP energy per Si atom -5574.148110 kJ/mol
# Density = 2.201379 g / cm^3
# Si number density = 22.064004 Si / 1000 Ang^3
#
#
#
# Elastic Constant Matrix: (Units=GPa)
#
#
# Indices 1 2 3 4 5 6 
#
# 1 80.2294 49.4154 19.2725 0.0000 0.0000 0.0000
# 2 49.4154 177.6828 31.3798 0.0000 0.0000 0.0000
# 3 19.2725 31.3798 42.8322 0.0000 0.0000 0.0000
# 4 0.0000 0.0000 0.0000 0.9248 0.0000 0.0000
# 5 0.0000 0.0000 0.0000 0.0000 15.5919 0.0000
# 6 0.0000 0.0000 0.0000 0.0000 0.0000 26.0220
#
#
#
# Elastic Compliance Matrix: (Units=1/GPa)
#
#
# Indices 1 2 3 4 5 6 
#
# 1 0.015747 -0.003593 -0.004453 0.000000 0.000000 0.000000
# 2 -0.003593 0.007284 -0.003720 0.000000 0.000000 0.000000
# 3 -0.004453 -0.003720 0.028076 0.000000 0.000000 0.000000
# 4 0.000000 0.000000 0.000000 1.081363 0.000000 0.000000
# 5 0.000000 0.000000 0.000000 0.000000 0.064136 0.000000
# 6 0.000000 0.000000 0.000000 0.000000 0.000000 0.038429
#
#
# Mechanical properties :
#
#
# Convention : Reuss Voigt Hill
#
# Bulk Modulus (GPa) = 36.26461 55.65331 45.95896
# Shear Modulus (GPa) = 3.94397 21.88618 12.91507
#
# Velocity S-wave (km/s) = 1.33843 3.15293 2.42202
# Velocity P-wave (km/s) = 4.34284 6.20749 5.35692
#
# Compressibility (1/GPa) = 0.02757509
#
# Stress axis : x y z
#
# Youngs Moduli (GPa) = 63.50433 137.28351 35.61777
#
# Poissons Ratio (x) = 0.49325 0.15861
# Poissons Ratio (y) = 0.22817 0.13249
# Poissons Ratio (z) = 0.28279 0.51068
#
# Static dielectric constant tensor:
#      x y z
#    x 1.801200 0.000000 0.000000 
#    y 0.000000 1.914300 0.000000 
#    z 0.000000 0.000000 1.836890 
# 
# From -- ./inp_files/43531.got.cif
#   From: 2010.05.17/outbox.cif.g08.bks.cpg/sg69_22_cif.got.tgz:43531.got - 2010.06.03 19:29:58.
