data_PCOD9511350
_publ_section_title
;
Structure prediction by ZEFSAII (Michael W. Deem and Ramdas Pophale) SiO2 
 PCOD9511350
Probable space group: F M M M
;
_chemical_formula_sum "Si O2"
_cell_formula_units_Z 128
_cell_length_a 25.393765
_cell_length_b 30.944212
_cell_length_c 8.686824
_cell_angle_alpha 90.000000
_cell_angle_beta 90.000000
_cell_angle_gamma 90.000000
_cell_volume 6826.019845
_symmetry_space_group_name_H-M "F M M M"
_symmetry_group_IT_number 69
_symmetry_cell_setting 'orthorhombic'
loop_
_space_group_symop_operation_xyz
x,y,z
-x,-y,z
x,-y,-z
-x,y,-z
-x,-y,-z
x,y,-z
-x,y,z
x,-y,z
x,1/2+y,1/2+z
-x,1/2-y,1/2+z
x,1/2-y,1/2-z
-x,1/2+y,1/2-z
-x,1/2-y,1/2-z
x,1/2+y,1/2-z
-x,1/2+y,1/2+z
x,1/2-y,1/2+z
1/2+x,y,1/2+z
1/2-x,-y,1/2+z
1/2+x,-y,1/2-z
1/2-x,y,1/2-z
1/2-x,-y,1/2-z
1/2+x,y,1/2-z
1/2-x,y,1/2+z
1/2+x,-y,1/2+z
1/2+x,1/2+y,z
1/2-x,1/2-y,z
1/2+x,1/2-y,-z
1/2-x,1/2+y,-z
1/2-x,1/2-y,-z
1/2+x,1/2+y,-z
1/2-x,1/2+y,z
1/2+x,1/2-y,z
loop_
_atom_site_type_symbol
_atom_site_label
_atom_site_fract_x
_atom_site_fract_y
_atom_site_fract_z
Si Si1 0.809206 0.500000 0.684236
Si Si2 0.938052 0.792975 0.327711
Si Si3 0.000000 0.948311 0.685753
Si Si4 0.087368 0.617439 0.317594
Si Si5 0.308829 0.589527 0.316690
O O1 0.809747 0.500000 0.500000
O O2 0.750000 0.500000 0.750000
O O3 0.830928 0.543709 0.753411
O O4 0.916384 0.800928 0.500000
O O5 0.914431 0.750000 0.250000
O O6 0.935048 0.835665 0.224560
O O7 0.000000 0.784552 0.346132
O O8 0.949593 0.920511 0.746139
O O9 0.000000 0.946928 0.500000
O O10 0.000000 0.000000 0.730312
O O11 0.089834 0.610504 0.500000
O O12 0.145970 0.620117 0.246044
O O13 0.305387 0.588682 0.500000
O O14 0.250000 0.596405 0.250000
#
# Coordination Sequence:
#
# PCOD9511350 Si02
#       5
#    16  32  16  32  32
#     4  10  18  32  52  77 106 141 190 242 289 336
#     4  10  20  36  60  88 120 152 192 241 297 350
#     4  11  25  43  60  83 120 163 205 245 296 354
#     4  12  24  39  61  88 121 158 200 244 295 354
#     4  11  22  38  58  82 114 152 198 247 296 346
#
# _framework density 18.751776
#
# number of rings (size 3 to 8) (size 9 to 14) (size 15 to 20)
#    0.000    1.125    1.250    8.250    1.750    2.000 
#    0.000    0.000    0.000    0.750    0.000    5.250 
#    0.000    0.000    0.000    0.000    0.000    0.000 
#
# Total GULP energy -178401.720796 kJ/mol
# GULP energy per Si atom -5575.053775 kJ/mol
# Density = 1.870910 g / cm^3
# Si number density = 18.751776 Si / 1000 Ang^3
#
#
#
# Elastic Constant Matrix: (Units=GPa)
#
#
# Indices 1 2 3 4 5 6 
#
# 1 91.4202 27.3277 45.8177 -0.0010 0.0018 -0.0080
# 2 27.3277 96.3409 39.0712 -0.0024 0.0027 -0.0014
# 3 45.8177 39.0712 181.9700 -0.0040 0.0071 -0.0049
# 4 -0.0010 -0.0024 -0.0040 23.5586 0.0024 -0.0034
# 5 0.0018 0.0027 0.0071 0.0024 27.2868 0.0081
# 6 -0.0080 -0.0014 -0.0049 -0.0034 0.0081 20.7235
#
#
#
# Elastic Compliance Matrix: (Units=1/GPa)
#
#
# Indices 1 2 3 4 5 6 
#
# 1 0.013088 -0.002603 -0.002737 0.000000 0.000000 0.000004
# 2 -0.002603 0.011887 -0.001897 0.000001 0.000000 -0.000001
# 3 -0.002737 -0.001897 0.006592 0.000001 -0.000001 0.000000
# 4 0.000000 0.000001 0.000001 0.042447 -0.000004 0.000007
# 5 0.000000 0.000000 -0.000001 -0.000004 0.036648 -0.000014
# 6 0.000004 -0.000001 0.000000 0.000007 -0.000014 0.048255
#
#
# Mechanical properties :
#
#
# Convention : Reuss Voigt Hill
#
# Bulk Modulus (GPa) = 58.49799 66.01826 62.25812
# Shear Modulus (GPa) = 27.91928 31.48139 29.70034
#
# Velocity S-wave (km/s) = 3.86280 4.10182 3.98410
# Velocity P-wave (km/s) = 7.15253 7.59711 7.37817
#
# Compressibility (1/GPa) = 0.01709461
#
# Stress axis : x y z
#
# Youngs Moduli (GPa) = 76.40577 84.12252 151.70444
#
# Poissons Ratio (x) = 0.21894 0.41515
# Poissons Ratio (y) = 0.19886 0.28779
# Poissons Ratio (z) = 0.20909 0.15959
#
# Static dielectric constant tensor:
#      x y z
#    x 1.631690 0.000000 0.000000 
#    y 0.000000 2.126650 0.000020 
#    z 0.000000 0.000020 1.664400 
# 
# From -- ./inp_files/4845.got.cif
#   From: 2010.05.17/outbox.cif.g08.bks.cpg/sg69_3_cif.got.tgz:4845.got - 2010.06.03 19:29:58.
