data_PCOD9511805
_publ_section_title
;
Structure prediction by ZEFSAII (Michael W. Deem and Ramdas Pophale) SiO2 
 PCOD9511805
Probable space group: F M M M
;
_chemical_formula_sum "Si O2"
_cell_formula_units_Z 144
_cell_length_a 18.567738
_cell_length_b 14.073696
_cell_length_c 28.042467
_cell_angle_alpha 90.000000
_cell_angle_beta 90.000000
_cell_angle_gamma 90.000000
_cell_volume 7327.964937
_symmetry_space_group_name_H-M "F M M M"
_symmetry_group_IT_number 69
_symmetry_cell_setting 'orthorhombic'
loop_
_space_group_symop_operation_xyz
x,y,z
-x,-y,z
x,-y,-z
-x,y,-z
-x,-y,-z
x,y,-z
-x,y,z
x,-y,z
x,1/2+y,1/2+z
-x,1/2-y,1/2+z
x,1/2-y,1/2-z
-x,1/2+y,1/2-z
-x,1/2-y,1/2-z
x,1/2+y,1/2-z
-x,1/2+y,1/2+z
x,1/2-y,1/2+z
1/2+x,y,1/2+z
1/2-x,-y,1/2+z
1/2+x,-y,1/2-z
1/2-x,y,1/2-z
1/2-x,-y,1/2-z
1/2+x,y,1/2-z
1/2-x,y,1/2+z
1/2+x,-y,1/2+z
1/2+x,1/2+y,z
1/2-x,1/2-y,z
1/2+x,1/2-y,-z
1/2-x,1/2+y,-z
1/2-x,1/2-y,-z
1/2+x,1/2+y,-z
1/2-x,1/2+y,z
1/2+x,1/2-y,z
loop_
_atom_site_type_symbol
_atom_site_label
_atom_site_fract_x
_atom_site_fract_y
_atom_site_fract_z
Si Si1 0.500000 0.615798 0.054561
Si Si2 0.084594 0.734478 0.695565
Si Si3 0.781942 0.884327 0.554583
Si Si4 0.580694 0.613078 0.615329
Si Si5 0.858191 0.114384 0.113981
O O1 0.500000 0.500000 0.052954
O O2 0.428469 0.643332 0.083262
O O3 0.500000 0.649536 0.000000
O O4 0.106519 0.750000 0.750000
O O5 0.088822 0.830826 0.664707
O O6 0.131453 0.659796 0.665778
O O7 0.000000 0.704215 0.695530
O O8 0.776840 0.852705 0.500000
O O9 0.856691 0.857152 0.579344
O O10 0.713686 0.855209 0.586326
O O11 0.780429 0.000000 0.553661
O O12 0.500000 0.632443 0.596684
O O13 0.586689 0.500000 0.623005
O O14 0.857775 0.000000 0.117268
#
# Coordination Sequence:
#
# PCOD9511805 Si02
#       5
#    16  32  32  32  32
#     4   9  16  28  49  76 109 145 172 201 254 324
#     4  10  21  37  57  80 108 143 187 233 273 322
#     4   9  18  34  57  83 112 146 180 221 275 330
#     4   9  19  37  58  78 105 143 187 232 272 318
#     4  10  19  33  54  83 115 143 176 219 272 334
#
# _framework density 19.650749000000001
#
# number of rings (size 3 to 8) (size 9 to 14) (size 15 to 20)
#    0.000    2.556    1.111    0.667    0.000    4.889 
#    0.000   10.000    0.000    4.000    0.000    0.000 
#    0.000    0.000    0.000    0.000    0.000    0.000 
#
# Total GULP energy -201089.170770 kJ/mol
# GULP energy per Si atom -5585.810299 kJ/mol
# Density = 1.960602 g / cm^3
# Si number density = 19.650749 Si / 1000 Ang^3
#
#
#
# Elastic Constant Matrix: (Units=GPa)
#
#
# Indices 1 2 3 4 5 6 
#
# 1 158.1404 49.7030 106.2824 0.0000 0.0000 0.0000
# 2 49.7030 71.5055 38.1846 0.0000 0.0000 0.0000
# 3 106.2824 38.1846 192.6504 0.0000 0.0000 0.0000
# 4 0.0000 0.0000 0.0000 31.7310 0.0000 0.0000
# 5 0.0000 0.0000 0.0000 0.0000 22.5684 0.0000
# 6 0.0000 0.0000 0.0000 0.0000 0.0000 22.2180
#
#
#
# Elastic Compliance Matrix: (Units=1/GPa)
#
#
# Indices 1 2 3 4 5 6 
#
# 1 0.011537 -0.005167 -0.005340 0.000000 0.000000 0.000000
# 2 -0.005167 0.017955 -0.000708 0.000000 0.000000 0.000000
# 3 -0.005340 -0.000708 0.008277 0.000000 0.000000 0.000000
# 4 0.000000 0.000000 0.000000 0.031515 0.000000 0.000000
# 5 0.000000 0.000000 0.000000 0.000000 0.044310 0.000000
# 6 0.000000 0.000000 0.000000 0.000000 0.000000 0.045009
#
#
# Mechanical properties :
#
#
# Convention : Reuss Voigt Hill
#
# Bulk Modulus (GPa) = 65.20049 90.07070 77.63560
# Shear Modulus (GPa) = 26.86061 30.51189 28.68625
#
# Velocity S-wave (km/s) = 3.70117 3.94472 3.82488
# Velocity P-wave (km/s) = 7.17750 8.16597 7.68764
#
# Compressibility (1/GPa) = 0.01533731
#
# Stress axis : x y z
#
# Youngs Moduli (GPa) = 86.67945 55.69546 120.81163
#
# Poissons Ratio (x) = 0.28779 0.64519
# Poissons Ratio (y) = 0.44790 0.08554
# Poissons Ratio (z) = 0.46291 0.03943
#
# Static dielectric constant tensor:
#      x y z
#    x 1.682180 0.000000 0.000000 
#    y 0.000000 1.737890 0.000000 
#    z 0.000000 0.000000 1.635850 
# 
# From -- ./inp_files/15558.got.cif
#   From: 2010.05.17/outbox.cif.g08.bks.cpg/sg69_8_cif.got.tgz:15558.got - 2010.06.03 19:29:58.
