data_PCOD9511333
_publ_section_title
;
Structure prediction by ZEFSAII (Michael W. Deem and Ramdas Pophale) SiO2 
 PCOD9511333
Probable space group: F M M M
;
_chemical_formula_sum "Si O2"
_cell_formula_units_Z 160
_cell_length_a 14.044471
_cell_length_b 30.923386
_cell_length_c 15.742787
_cell_angle_alpha 90.000000
_cell_angle_beta 90.000000
_cell_angle_gamma 90.000000
_cell_volume 6837.133292
_symmetry_space_group_name_H-M "F M M M"
_symmetry_group_IT_number 69
_symmetry_cell_setting 'orthorhombic'
loop_
_space_group_symop_operation_xyz
x,y,z
-x,-y,z
x,-y,-z
-x,y,-z
-x,-y,-z
x,y,-z
-x,y,z
x,-y,z
x,1/2+y,1/2+z
-x,1/2-y,1/2+z
x,1/2-y,1/2-z
-x,1/2+y,1/2-z
-x,1/2-y,1/2-z
x,1/2+y,1/2-z
-x,1/2+y,1/2+z
x,1/2-y,1/2+z
1/2+x,y,1/2+z
1/2-x,-y,1/2+z
1/2+x,-y,1/2-z
1/2-x,y,1/2-z
1/2-x,-y,1/2-z
1/2+x,y,1/2-z
1/2-x,y,1/2+z
1/2+x,-y,1/2+z
1/2+x,1/2+y,z
1/2-x,1/2-y,z
1/2+x,1/2-y,-z
1/2-x,1/2+y,-z
1/2-x,1/2-y,-z
1/2+x,1/2+y,-z
1/2-x,1/2+y,z
1/2+x,1/2-y,z
loop_
_atom_site_type_symbol
_atom_site_label
_atom_site_fract_x
_atom_site_fract_y
_atom_site_fract_z
Si Si1 0.111717 0.138581 0.000000
Si Si2 0.107132 0.283030 0.177323
Si Si3 0.115832 0.879930 0.646939
Si Si4 0.115740 0.551651 0.000000
Si Si5 0.616042 0.590525 0.165932
Si Si6 0.639321 0.739527 0.000000
Si Si7 0.615719 0.000000 0.598598
O O1 0.150810 0.119859 0.087979
O O2 0.121044 0.189164 0.000000
O O3 0.000000 0.126242 0.000000
O O4 0.146386 0.250000 0.250000
O O5 0.150845 0.329665 0.150067
O O6 0.000000 0.293303 0.209822
O O7 0.101621 0.258409 0.088117
O O8 0.144069 0.917349 0.579750
O O9 0.141281 0.895684 0.740517
O O10 0.000000 0.877141 0.635697
O O11 0.145256 0.500000 0.000000
O O12 0.000000 0.549512 0.000000
O O13 0.500000 0.591422 0.164848
O O14 0.648553 0.542598 0.144902
O O15 0.750000 0.750000 0.000000
O O16 0.500000 0.000000 0.600230
O O17 0.641773 0.000000 0.500000
#
# Coordination Sequence:
#
# PCOD9511333 Si02
#       7
#    16  32  32  16  32  16  16
#     4  10  18  32  51  74 104 138 178 219 261 322
#     4  10  20  37  60  82 106 143 189 232 275 327
#     4   9  17  28  44  67  95 132 176 215 256 309
#     4   9  17  26  36  57  95 137 171 206 251 309
#     4   9  16  25  43  70 103 137 169 208 258 316
#     4  12  25  37  54  80 112 144 181 227 288 335
#     4   9  14  22  36  65 107 142 162 195 257 320
#
# _framework density 23.401620999999999
#
# number of rings (size 3 to 8) (size 9 to 14) (size 15 to 20)
#    0.000    2.400    1.000    2.700    1.400    5.200 
#    0.000    0.000    0.000    0.000    0.000    0.000 
#   12.000    1.600    0.000    0.000    0.000    0.000 
#
# Total GULP energy -223233.788421 kJ/mol
# GULP energy per Si atom -5580.844711 kJ/mol
# Density = 2.334836 g / cm^3
# Si number density = 23.401621 Si / 1000 Ang^3
#
#
#
# Elastic Constant Matrix: (Units=GPa)
#
#
# Indices 1 2 3 4 5 6 
#
# 1 81.5337 -4.3622 -7.1520 0.0000 0.0000 0.0000
# 2 -4.3622 259.8431 149.0806 0.0000 0.0000 0.0000
# 3 -7.1520 149.0806 222.5785 0.0000 0.0000 0.0000
# 4 0.0000 0.0000 0.0000 112.5404 0.0000 0.0000
# 5 0.0000 0.0000 0.0000 0.0000 -11.2413 0.0000
# 6 0.0000 0.0000 0.0000 0.0000 0.0000 -17.5765
#
#
#
# Elastic Compliance Matrix: (Units=1/GPa)
#
#
# Indices 1 2 3 4 5 6 
#
# 1 0.012300 -0.000033 0.000417 0.000000 0.000000 0.000000
# 2 -0.000033 0.006250 -0.004188 0.000000 0.000000 0.000000
# 3 0.000417 -0.004188 0.007311 0.000000 0.000000 0.000000
# 4 0.000000 0.000000 0.000000 0.008886 0.000000 0.000000
# 5 0.000000 0.000000 0.000000 0.000000 -0.088958 0.000000
# 6 0.000000 0.000000 0.000000 0.000000 0.000000 -0.056894
#
#
# Mechanical properties :
#
#
# Convention : Reuss Voigt Hill
#
# Bulk Modulus (GPa) = 54.78025 93.23199 74.00612
# Shear Modulus (GPa) = -51.32740 45.17046 -3.07847
#
# Velocity S-wave (km/s) = -4.68838 4.39820 -1.14819
# Velocity P-wave (km/s) = 2.41832 8.10671 5.47131
#
# Compressibility (1/GPa) = 0.01825475
#
# Stress axis : x y z
#
# Youngs Moduli (GPa) = 81.30278 159.98836 136.78074
#
# Poissons Ratio (x) = 0.00527 -0.05707
# Poissons Ratio (y) = 0.00268 0.57277
# Poissons Ratio (z) = -0.03392 0.66996
#
# Static dielectric constant tensor:
#      x y z
#    x 1.962360 0.000000 0.000000 
#    y 0.000000 1.890150 0.000000 
#    z 0.000000 0.000000 1.809910 
# 
# From -- ./inp_files/15731.got.cif
#   From: 2010.05.17/outbox.cif.g08.bks.cpg/sg69_8_cif.got.tgz:15731.got - 2010.06.03 19:29:58.
