data_PCOD9511466
_publ_section_title
;
Structure prediction by ZEFSAII (Michael W. Deem and Ramdas Pophale) SiO2 
 PCOD9511466
Probable space group: F M M M
;
_chemical_formula_sum "Si O2"
_cell_formula_units_Z 192
_cell_length_a 17.627617
_cell_length_b 18.876914
_cell_length_c 30.933488
_cell_angle_alpha 90.000000
_cell_angle_beta 90.000000
_cell_angle_gamma 90.000000
_cell_volume 10293.273113
_symmetry_space_group_name_H-M "F M M M"
_symmetry_group_IT_number 69
_symmetry_cell_setting 'orthorhombic'
loop_
_space_group_symop_operation_xyz
x,y,z
-x,-y,z
x,-y,-z
-x,y,-z
-x,-y,-z
x,y,-z
-x,y,z
x,-y,z
x,1/2+y,1/2+z
-x,1/2-y,1/2+z
x,1/2-y,1/2-z
-x,1/2+y,1/2-z
-x,1/2-y,1/2-z
x,1/2+y,1/2-z
-x,1/2+y,1/2+z
x,1/2-y,1/2+z
1/2+x,y,1/2+z
1/2-x,-y,1/2+z
1/2+x,-y,1/2-z
1/2-x,y,1/2-z
1/2-x,-y,1/2-z
1/2+x,y,1/2-z
1/2-x,y,1/2+z
1/2+x,-y,1/2+z
1/2+x,1/2+y,z
1/2-x,1/2-y,z
1/2+x,1/2-y,-z
1/2-x,1/2+y,-z
1/2-x,1/2-y,-z
1/2+x,1/2+y,-z
1/2-x,1/2+y,z
1/2+x,1/2-y,z
loop_
_atom_site_type_symbol
_atom_site_label
_atom_site_fract_x
_atom_site_fract_y
_atom_site_fract_z
Si Si1 0.668125 0.418862 0.909843
Si Si2 0.589647 0.147244 0.327901
Si Si3 0.160267 0.582004 0.244692
Si Si4 0.089650 0.614992 0.500000
Si Si5 0.409205 0.312067 0.674155
Si Si6 0.340378 0.768832 0.000000
Si Si7 0.193519 0.181673 0.409805
O O1 0.669904 0.500000 0.895402
O O2 0.624874 0.372080 0.874154
O O3 0.751261 0.385320 0.913563
O O4 0.627225 0.414271 0.956246
O O5 0.500000 0.137669 0.330488
O O6 0.623488 0.097510 0.291086
O O7 0.604612 0.229051 0.315322
O O8 0.148578 0.500000 0.231986
O O9 0.250000 0.594548 0.250000
O O10 0.123665 0.635694 0.210385
O O11 0.110278 0.698142 0.500000
O O12 0.000000 0.602509 0.500000
O O13 0.500000 0.321611 0.669856
O O14 0.363616 0.324593 0.629866
O O15 0.250000 0.750000 0.000000
O O16 0.350730 0.808277 0.045174
O O17 0.250000 0.250000 0.403924
#
# Coordination Sequence:
#
# PCOD9511466 Si02
#       7
#    32  32  32  16  32  16  32
#     4  12  24  38  60  92 126 165 207 248 307 381
#     4  11  23  40  60  86 120 161 202 245 306 379
#     4  11  25  42  62  88 119 158 207 260 318 377
#     4  12  23  37  60  94 132 166 203 252 315 378
#     4  11  24  40  63  94 123 158 209 261 314 373
#     4  10  18  38  64  87 117 165 214 247 295 358
#     4  11  20  40  66  86 121 168 206 254 301 363
#
# _framework density 18.652958000000002
#
# number of rings (size 3 to 8) (size 9 to 14) (size 15 to 20)
#    0.000    0.833    5.000    3.250    0.000    9.667 
#    0.000    0.000    0.000    0.000    0.000    0.000 
#    0.000    4.667    0.000    0.000    0.000    0.000 
#
# Total GULP energy -268297.801566 kJ/mol
# GULP energy per Si atom -5589.537533 kJ/mol
# Density = 1.861050 g / cm^3
# Si number density = 18.652958 Si / 1000 Ang^3
#
#
#
# Elastic Constant Matrix: (Units=GPa)
#
#
# Indices 1 2 3 4 5 6 
#
# 1 62.9028 61.1622 28.5367 0.0000 0.0000 0.0000
# 2 61.1622 102.0807 37.4860 0.0000 0.0000 0.0000
# 3 28.5367 37.4860 117.6896 0.0000 0.0000 0.0000
# 4 0.0000 0.0000 0.0000 15.8813 0.0000 0.0000
# 5 0.0000 0.0000 0.0000 0.0000 -11.3309 0.0000
# 6 0.0000 0.0000 0.0000 0.0000 0.0000 11.5845
#
#
#
# Elastic Compliance Matrix: (Units=1/GPa)
#
#
# Indices 1 2 3 4 5 6 
#
# 1 0.038607 -0.022303 -0.002257 0.000000 0.000000 0.000000
# 2 -0.022303 0.023978 -0.002229 0.000000 0.000000 0.000000
# 3 -0.002257 -0.002229 0.009754 0.000000 0.000000 0.000000
# 4 0.000000 0.000000 0.000000 0.062967 0.000000 0.000000
# 5 0.000000 0.000000 0.000000 0.000000 -0.088254 0.000000
# 6 0.000000 0.000000 0.000000 0.000000 0.000000 0.086322
#
#
# Mechanical properties :
#
#
# Convention : Reuss Voigt Hill
#
# Bulk Modulus (GPa) = 53.30480 59.67142 56.48811
# Shear Modulus (GPa) = 25.87887 13.59285 19.73586
#
# Velocity S-wave (km/s) = 3.72881 2.70242 3.25631
# Velocity P-wave (km/s) = 6.86861 6.46507 6.66990
#
# Compressibility (1/GPa) = 0.01876004
#
# Stress axis : x y z
#
# Youngs Moduli (GPa) = 25.90175 41.70530 102.51767
#
# Poissons Ratio (x) = 0.93015 0.23143
# Poissons Ratio (y) = 0.57768 0.22856
# Poissons Ratio (z) = 0.05847 0.09298
#
# Static dielectric constant tensor:
#      x y z
#    x 1.615820 0.000000 0.000000 
#    y 0.000000 1.643090 0.000000 
#    z 0.000000 0.000000 1.616640 
# 
# From -- ./inp_files/23684.got.cif
#   From: 2010.05.17/outbox.cif.g08.bks.cpg/sg69_12_cif.got.tgz:23684.got - 2010.06.03 19:29:58.
