data_PCOD9511090
_publ_section_title
;
Structure prediction by ZEFSAII (Michael W. Deem and Ramdas Pophale) SiO2 
 PCOD9511090
Probable space group: F M M M
;
_chemical_formula_sum "Si O2"
_cell_formula_units_Z 128
_cell_length_a 13.294491
_cell_length_b 23.687593
_cell_length_c 21.618559
_cell_angle_alpha 90.000000
_cell_angle_beta 90.000000
_cell_angle_gamma 90.000000
_cell_volume 6807.997524
_symmetry_space_group_name_H-M "F M M M"
_symmetry_group_IT_number 69
_symmetry_cell_setting 'orthorhombic'
loop_
_space_group_symop_operation_xyz
x,y,z
-x,-y,z
x,-y,-z
-x,y,-z
-x,-y,-z
x,y,-z
-x,y,z
x,-y,z
x,1/2+y,1/2+z
-x,1/2-y,1/2+z
x,1/2-y,1/2-z
-x,1/2+y,1/2-z
-x,1/2-y,1/2-z
x,1/2+y,1/2-z
-x,1/2+y,1/2+z
x,1/2-y,1/2+z
1/2+x,y,1/2+z
1/2-x,-y,1/2+z
1/2+x,-y,1/2-z
1/2-x,y,1/2-z
1/2-x,-y,1/2-z
1/2+x,y,1/2-z
1/2-x,y,1/2+z
1/2+x,-y,1/2+z
1/2+x,1/2+y,z
1/2-x,1/2-y,z
1/2+x,1/2-y,-z
1/2-x,1/2+y,-z
1/2-x,1/2-y,-z
1/2+x,1/2+y,-z
1/2-x,1/2+y,z
1/2+x,1/2-y,z
loop_
_atom_site_type_symbol
_atom_site_label
_atom_site_fract_x
_atom_site_fract_y
_atom_site_fract_z
Si Si1 0.818885 0.377288 0.811936
Si Si2 0.000000 0.787672 0.068973
Si Si3 0.611975 0.000000 0.602495
Si Si4 0.000000 0.789908 0.689834
Si Si5 0.689633 0.000000 0.813231
Si Si6 0.677906 0.378197 0.932209
O O1 0.750000 0.374780 0.750000
O O2 0.865907 0.440442 0.816452
O O3 0.751040 0.372142 0.873564
O O4 0.902276 0.329596 0.808537
O O5 0.000000 0.745539 0.126394
O O6 0.095951 0.828905 0.072733
O O7 0.000000 0.761022 0.000000
O O8 0.622500 0.939318 0.569542
O O9 0.500000 0.000000 0.632820
O O10 0.716115 0.000000 0.640213
O O11 0.000000 0.750000 0.750000
O O12 0.750000 0.000000 0.750000
O O13 0.728274 0.373866 0.000000
#
# Coordination Sequence:
#
# PCOD9511090 Si02
#       6
#    32  16  16  16  16  32
#     4  10  22  41  61  85 116 147 190 238 293 351
#     4  10  22  37  55  85 117 150 197 239 285 341
#     4  10  17  30  59  91 121 154 190 241 299 350
#     4  12  26  41  60  83 110 156 204 241 280 339
#     4   8  18  38  55  87 117 144 186 231 294 354
#     4  10  20  35  58  88 121 152 188 241 299 347
#
# _framework density 18.801417000000001
#
# number of rings (size 3 to 8) (size 9 to 14) (size 15 to 20)
#    0.000    2.000    1.250    1.875    0.000    5.500 
#   13.500    2.500    0.000    0.000    0.000    6.125 
#    0.000    0.000    0.000    0.000    0.000    0.000 
#
# Total GULP energy -178232.762709 kJ/mol
# GULP energy per Si atom -5569.773835 kJ/mol
# Density = 1.875862 g / cm^3
# Si number density = 18.801417 Si / 1000 Ang^3
#
#
#
# Elastic Constant Matrix: (Units=GPa)
#
#
# Indices 1 2 3 4 5 6 
#
# 1 73.1210 62.5681 54.2654 0.0000 0.0000 0.0000
# 2 62.5681 153.6007 82.8211 0.0000 0.0000 0.0000
# 3 54.2654 82.8211 157.2011 0.0000 0.0000 0.0000
# 4 0.0000 0.0000 0.0000 19.5156 0.0000 0.0000
# 5 0.0000 0.0000 0.0000 0.0000 16.2909 0.0000
# 6 0.0000 0.0000 0.0000 0.0000 0.0000 129.4359
#
#
#
# Elastic Compliance Matrix: (Units=1/GPa)
#
#
# Indices 1 2 3 4 5 6 
#
# 1 0.022784 -0.007040 -0.004156 0.000000 0.000000 0.000000
# 2 -0.007040 0.011269 -0.003507 0.000000 0.000000 0.000000
# 3 -0.004156 -0.003507 0.009643 0.000000 0.000000 0.000000
# 4 0.000000 0.000000 0.000000 0.051241 0.000000 0.000000
# 5 0.000000 0.000000 0.000000 0.000000 0.061384 0.000000
# 6 0.000000 0.000000 0.000000 0.000000 0.000000 0.007726
#
#
# Mechanical properties :
#
#
# Convention : Reuss Voigt Hill
#
# Bulk Modulus (GPa) = 69.97454 87.02577 78.50016
# Shear Modulus (GPa) = 25.22487 45.33303 35.27895
#
# Velocity S-wave (km/s) = 3.66682 4.91567 4.33644
# Velocity P-wave (km/s) = 7.43142 8.86599 8.18021
#
# Compressibility (1/GPa) = 0.01429091
#
# Stress axis : x y z
#
# Youngs Moduli (GPa) = 43.88977 88.73906 103.69702
#
# Poissons Ratio (x) = 0.62473 0.43097
# Poissons Ratio (y) = 0.30899 0.36365
# Poissons Ratio (z) = 0.18241 0.31119
#
# Static dielectric constant tensor:
#      x y z
#    x 1.616310 0.000000 0.000000 
#    y 0.000000 1.682800 0.000000 
#    z 0.000000 0.000000 1.654180 
# 
# From -- ./inp_files/16413.got.cif
#   From: 2010.05.17/outbox.cif.g08.bks.cpg/sg69_9_cif.got.tgz:16413.got - 2010.06.03 19:29:58.
