data_PCOD9511749
_publ_section_title
;
Structure prediction by ZEFSAII (Michael W. Deem and Ramdas Pophale) SiO2 
 PCOD9511749
Probable space group: F M M M
;
_chemical_formula_sum "Si O2"
_cell_formula_units_Z 176
_cell_length_a 19.683901
_cell_length_b 28.650671
_cell_length_c 15.029559
_cell_angle_alpha 90.000000
_cell_angle_beta 90.000000
_cell_angle_gamma 90.000000
_cell_volume 8476.024577
_symmetry_space_group_name_H-M "F M M M"
_symmetry_group_IT_number 69
_symmetry_cell_setting 'orthorhombic'
loop_
_space_group_symop_operation_xyz
x,y,z
-x,-y,z
x,-y,-z
-x,y,-z
-x,-y,-z
x,y,-z
-x,y,z
x,-y,z
x,1/2+y,1/2+z
-x,1/2-y,1/2+z
x,1/2-y,1/2-z
-x,1/2+y,1/2-z
-x,1/2-y,1/2-z
x,1/2+y,1/2-z
-x,1/2+y,1/2+z
x,1/2-y,1/2+z
1/2+x,y,1/2+z
1/2-x,-y,1/2+z
1/2+x,-y,1/2-z
1/2-x,y,1/2-z
1/2-x,-y,1/2-z
1/2+x,y,1/2-z
1/2-x,y,1/2+z
1/2+x,-y,1/2+z
1/2+x,1/2+y,z
1/2-x,1/2-y,z
1/2+x,1/2-y,-z
1/2-x,1/2+y,-z
1/2-x,1/2-y,-z
1/2+x,1/2+y,-z
1/2-x,1/2+y,z
1/2+x,1/2-y,z
loop_
_atom_site_type_symbol
_atom_site_label
_atom_site_fract_x
_atom_site_fract_y
_atom_site_fract_z
Si Si1 0.581804 0.761602 0.151313
Si Si2 0.673471 0.554226 0.391847
Si Si3 0.823579 0.922232 0.897972
Si Si4 0.077392 0.638920 0.841596
Si Si5 0.423489 0.000000 0.609422
Si Si6 0.077086 0.841626 0.870296
O O1 0.500000 0.767842 0.159459
O O2 0.609591 0.750000 0.250000
O O3 0.605660 0.812097 0.117253
O O4 0.589242 0.712137 0.103497
O O5 0.670494 0.555683 0.500000
O O6 0.662124 0.500000 0.365782
O O7 0.748739 0.570514 0.360564
O O8 0.621248 0.593115 0.357983
O O9 0.859439 0.872423 0.899423
O O10 0.880882 0.955812 0.858345
O O11 0.815976 0.938152 0.000000
O O12 0.075360 0.651420 0.736602
O O13 0.000000 0.630826 0.872363
O O14 0.500000 0.000000 0.642333
O O15 0.427557 0.000000 0.500000
O O16 0.000000 0.855393 0.900096
#
# Coordination Sequence:
#
# PCOD9511749 Si02
#       6
#    32  32  32  32  16  32
#     4   7  12  27  51  74 100 132 163 200 251 305
#     4  10  21  38  55  69  96 139 178 216 262 304
#     4  10  19  33  50  72 102 136 170 201 244 305
#     4   9  18  34  55  78 100 128 172 217 254 301
#     4   9  16  28  48  69  91 125 166 201 235 285
#     4   9  17  31  53  81 107 131 161 205 257 304
#
# _framework density 20.764451000000001
#
# number of rings (size 3 to 8) (size 9 to 14) (size 15 to 20)
#    0.000    3.000    0.909    2.727    0.000    2.545 
#    1.636    3.636    0.000    8.727    0.000    0.000 
#    0.000    0.000    0.000    0.000    0.000    0.000 
#
# Total GULP energy -244974.121593 kJ/mol
# GULP energy per Si atom -5567.593673 kJ/mol
# Density = 2.071719 g / cm^3
# Si number density = 20.764451 Si / 1000 Ang^3
#
#
#
# Elastic Constant Matrix: (Units=GPa)
#
#
# Indices 1 2 3 4 5 6 
#
# 1 126.6845 109.1046 6.7477 0.0000 0.0000 0.0000
# 2 109.1046 204.0054 17.3218 0.0000 0.0000 0.0000
# 3 6.7477 17.3218 45.4523 0.0000 0.0000 0.0000
# 4 0.0000 0.0000 0.0000 28.9906 0.0000 0.0000
# 5 0.0000 0.0000 0.0000 0.0000 11.8101 0.0000
# 6 0.0000 0.0000 0.0000 0.0000 0.0000 -0.0341
#
#
#
# Elastic Compliance Matrix: (Units=1/GPa)
#
#
# Indices 1 2 3 4 5 6 
#
# 1 0.014665 -0.007914 0.000839 0.000000 0.000000 0.000000
# 2 -0.007914 0.009337 -0.002383 0.000000 0.000000 0.000000
# 3 0.000839 -0.002383 0.022785 0.000000 0.000000 0.000000
# 4 0.000000 0.000000 0.000000 0.034494 0.000000 0.000000
# 5 0.000000 0.000000 0.000000 0.000000 0.084673 0.000000
# 6 0.000000 0.000000 0.000000 0.000000 0.000000-29.300687
#
#
# Mechanical properties :
#
#
# Convention : Reuss Voigt Hill
#
# Bulk Modulus (GPa) = 35.88158 71.38782 53.63470
# Shear Modulus (GPa) = -0.17178 24.35120 12.08971
#
# Velocity S-wave (km/s) = -0.28794 3.42824 2.41556
# Velocity P-wave (km/s) = 4.14816 7.07989 5.80225
#
# Compressibility (1/GPa) = 0.02786945
#
# Stress axis : x y z
#
# Youngs Moduli (GPa) = 68.19009 107.10297 43.88885
#
# Poissons Ratio (x) = 0.84763 -0.03682
# Poissons Ratio (y) = 0.53967 0.10460
# Poissons Ratio (z) = -0.05721 0.25526
#
# Static dielectric constant tensor:
#      x y z
#    x 1.716510 0.000000 0.000000 
#    y 0.000000 1.809330 0.000000 
#    z 0.000000 0.000000 1.843290 
# 
# From -- ./inp_files/23541.got.cif
#   From: 2010.05.17/outbox.cif.g08.bks.cpg/sg69_12_cif.got.tgz:23541.got - 2010.06.03 19:29:58.
