data_PCOD9511213
_publ_section_title
;
Structure prediction by ZEFSAII (Michael W. Deem and Ramdas Pophale) SiO2 
 PCOD9511213
Probable space group: F M M M
;
_chemical_formula_sum "Si O2"
_cell_formula_units_Z 208
_cell_length_a 21.336831
_cell_length_b 19.051005
_cell_length_c 29.450489
_cell_angle_alpha 90.000000
_cell_angle_beta 90.000000
_cell_angle_gamma 90.000000
_cell_volume 11971.272554
_symmetry_space_group_name_H-M "F M M M"
_symmetry_group_IT_number 69
_symmetry_cell_setting 'orthorhombic'
loop_
_space_group_symop_operation_xyz
x,y,z
-x,-y,z
x,-y,-z
-x,y,-z
-x,-y,-z
x,y,-z
-x,y,z
x,-y,z
x,1/2+y,1/2+z
-x,1/2-y,1/2+z
x,1/2-y,1/2-z
-x,1/2+y,1/2-z
-x,1/2-y,1/2-z
x,1/2+y,1/2-z
-x,1/2+y,1/2+z
x,1/2-y,1/2+z
1/2+x,y,1/2+z
1/2-x,-y,1/2+z
1/2+x,-y,1/2-z
1/2-x,y,1/2-z
1/2-x,-y,1/2-z
1/2+x,y,1/2-z
1/2-x,y,1/2+z
1/2+x,-y,1/2+z
1/2+x,1/2+y,z
1/2-x,1/2-y,z
1/2+x,1/2-y,-z
1/2-x,1/2+y,-z
1/2-x,1/2-y,-z
1/2+x,1/2+y,-z
1/2-x,1/2+y,z
1/2+x,1/2-y,z
loop_
_atom_site_type_symbol
_atom_site_label
_atom_site_fract_x
_atom_site_fract_y
_atom_site_fract_z
Si Si1 0.349140 0.790717 0.051636
Si Si2 0.074956 0.811144 0.643906
Si Si3 0.117651 0.918990 0.111427
Si Si4 0.500000 0.414549 0.051203
Si Si5 0.923863 0.419273 0.783908
Si Si6 0.717912 0.138437 0.449299
Si Si7 0.075546 0.331869 0.694923
O O1 0.393647 0.798543 0.095083
O O2 0.317729 0.713512 0.052978
O O3 0.290933 0.844637 0.056702
O O4 0.375309 0.799390 0.000000
O O5 0.095230 0.882986 0.668766
O O6 0.088114 0.748390 0.680236
O O7 0.000000 0.812199 0.637768
O O8 0.184010 0.908868 0.087491
O O9 0.110575 0.876554 0.157073
O O10 0.062516 0.892900 0.077598
O O11 0.104769 0.000000 0.120588
O O12 0.500000 0.500000 0.049442
O O13 0.500000 0.387798 0.000000
O O14 0.902488 0.500000 0.777850
O O15 0.906641 0.365835 0.743142
O O16 0.000000 0.421090 0.783871
O O17 0.707966 0.109480 0.500000
O O18 0.000000 0.341086 0.690701
#
# Coordination Sequence:
#
# PCOD9511213 Si02
#       7
#    32  32  32  16  32  32  32
#     4   9  18  34  54  73  98 133 174 217 258 304
#     4  10  19  32  53  82 108 131 169 218 264 309
#     4  11  19  28  45  72 106 141 175 211 251 303
#     4   9  18  28  38  62 105 148 173 199 247 302
#     4   9  18  32  51  74 104 140 172 210 263 315
#     4   9  18  33  50  68  95 138 183 214 245 297
#     4  10  18  30  48  76 109 139 171 208 250 308
#
# _framework density 17.374928000000001
#
# number of rings (size 3 to 8) (size 9 to 14) (size 15 to 20)
#    0.000    2.385    2.308    2.308    0.000    3.692 
#    0.000    0.769    0.000    2.308    0.000    4.308 
#    0.000    0.000    0.000    0.000    0.000    0.000 
#
# Total GULP energy -289661.517636 kJ/mol
# GULP energy per Si atom -5570.413801 kJ/mol
# Density = 1.733538 g / cm^3
# Si number density = 17.374928 Si / 1000 Ang^3
#
#
#
# Elastic Constant Matrix: (Units=GPa)
#
#
# Indices 1 2 3 4 5 6 
#
# 1 25.0294 20.9962 28.5140 0.0000 0.0000 0.0000
# 2 20.9962 58.3137 44.6407 0.0000 0.0000 0.0000
# 3 28.5140 44.6407 119.7666 0.0000 0.0000 0.0000
# 4 0.0000 0.0000 0.0000 -11.0111 0.0000 0.0000
# 5 0.0000 0.0000 0.0000 0.0000 10.7367 0.0000
# 6 0.0000 0.0000 0.0000 0.0000 0.0000 15.0588
#
#
#
# Elastic Compliance Matrix: (Units=1/GPa)
#
#
# Indices 1 2 3 4 5 6 
#
# 1 0.063852 -0.015885 -0.009281 0.000000 0.000000 0.000000
# 2 -0.015885 0.027947 -0.006635 0.000000 0.000000 0.000000
# 3 -0.009281 -0.006635 0.013032 0.000000 0.000000 0.000000
# 4 0.000000 0.000000 0.000000 -0.090818 0.000000 0.000000
# 5 0.000000 0.000000 0.000000 0.000000 0.093138 0.000000
# 6 0.000000 0.000000 0.000000 0.000000 0.000000 0.066406
#
#
# Mechanical properties :
#
#
# Convention : Reuss Voigt Hill
#
# Bulk Modulus (GPa) = 24.25474 43.49015 33.87245
# Shear Modulus (GPa) = 19.92798 10.22080 15.07439
#
# Velocity S-wave (km/s) = 3.39032 2.42802 2.94869
# Velocity P-wave (km/s) = 5.41439 5.73978 5.57946
#
# Compressibility (1/GPa) = 0.04122905
#
# Stress axis : x y z
#
# Youngs Moduli (GPa) = 15.66131 35.78150 76.73319
#
# Poissons Ratio (x) = 0.56840 0.71215
# Poissons Ratio (y) = 0.24879 0.50911
# Poissons Ratio (z) = 0.14535 0.23741
#
# Static dielectric constant tensor:
#      x y z
#    x 1.574120 0.000000 0.000000 
#    y 0.000000 1.609030 0.000000 
#    z 0.000000 0.000000 1.596930 
# 
# From -- ./inp_files/43289.got.cif
#   From: 2010.05.17/outbox.cif.g08.bks.cpg/sg69_22_cif.got.tgz:43289.got - 2010.06.03 19:29:58.
