data_PCOD9511259
_publ_section_title
;
Structure prediction by ZEFSAII (Michael W. Deem and Ramdas Pophale) SiO2 
 PCOD9511259
Probable space group: F M M M
;
_chemical_formula_sum "Si O2"
_cell_formula_units_Z 160
_cell_length_a 20.759922
_cell_length_b 14.554306
_cell_length_c 23.726942
_cell_angle_alpha 90.000000
_cell_angle_beta 90.000000
_cell_angle_gamma 90.000000
_cell_volume 7169.006723
_symmetry_space_group_name_H-M "F M M M"
_symmetry_group_IT_number 69
_symmetry_cell_setting 'orthorhombic'
loop_
_space_group_symop_operation_xyz
x,y,z
-x,-y,z
x,-y,-z
-x,y,-z
-x,-y,-z
x,y,-z
-x,y,z
x,-y,z
x,1/2+y,1/2+z
-x,1/2-y,1/2+z
x,1/2-y,1/2-z
-x,1/2+y,1/2-z
-x,1/2-y,1/2-z
x,1/2+y,1/2-z
-x,1/2+y,1/2+z
x,1/2-y,1/2+z
1/2+x,y,1/2+z
1/2-x,-y,1/2+z
1/2+x,-y,1/2-z
1/2-x,y,1/2-z
1/2-x,-y,1/2-z
1/2+x,y,1/2-z
1/2-x,y,1/2+z
1/2+x,-y,1/2+z
1/2+x,1/2+y,z
1/2-x,1/2-y,z
1/2+x,1/2-y,-z
1/2-x,1/2+y,-z
1/2-x,1/2-y,-z
1/2+x,1/2+y,-z
1/2-x,1/2+y,z
1/2+x,1/2-y,z
loop_
_atom_site_type_symbol
_atom_site_label
_atom_site_fract_x
_atom_site_fract_y
_atom_site_fract_z
Si Si1 0.803654 0.391204 0.389001
Si Si2 0.567602 0.106968 0.566775
Si Si3 0.072307 0.391821 0.164855
Si Si4 0.835271 0.112933 0.565941
Si Si5 0.678455 0.141825 0.260011
O O1 0.799350 0.500000 0.401639
O O2 0.863274 0.349343 0.422483
O O3 0.732704 0.356860 0.405482
O O4 0.828458 0.378840 0.325497
O O5 0.562979 0.102813 0.500000
O O6 0.500000 0.147706 0.588884
O O7 0.569473 0.000000 0.587167
O O8 0.064952 0.500000 0.155146
O O9 0.108311 0.356072 0.108654
O O10 0.121454 0.386234 0.217878
O O11 0.000000 0.353591 0.174724
O O12 0.839985 0.140016 0.500000
O O13 0.836134 0.000000 0.566147
O O14 0.682509 0.250000 0.250000
O O15 0.750000 0.102186 0.250000
#
# Coordination Sequence:
#
# PCOD9511259 Si02
#       5
#    32  32  32  32  32
#     4  10  18  30  54  81 108 141 180 223 270 323
#     4   8  14  25  43  73 111 141 168 210 262 317
#     4  10  21  37  58  84 111 141 180 224 271 324
#     4   9  17  30  52  83 112 138 173 219 271 323
#     4  11  23  38  56  77 108 145 186 226 273 322
#
# _framework density 22.318294000000002
#
# number of rings (size 3 to 8) (size 9 to 14) (size 15 to 20)
#    0.000    2.400    2.000    1.800    0.000    4.800 
#    0.000    4.000    0.000    3.600    0.000    0.000 
#    0.000    0.000    0.000    0.000    0.000    0.000 
#
# Total GULP energy -222787.336861 kJ/mol
# GULP energy per Si atom -5569.683422 kJ/mol
# Density = 2.226750 g / cm^3
# Si number density = 22.318294 Si / 1000 Ang^3
#
#
#
# Elastic Constant Matrix: (Units=GPa)
#
#
# Indices 1 2 3 4 5 6 
#
# 1 235.4033 6.5198 97.0889 0.0000 0.0000 0.0000
# 2 6.5198 50.5338 -16.3177 0.0000 0.0000 0.0000
# 3 97.0889 -16.3177 129.8076 0.0000 0.0000 0.0000
# 4 0.0000 0.0000 0.0000 4.1588 0.0000 0.0000
# 5 0.0000 0.0000 0.0000 0.0000 11.5841 0.0000
# 6 0.0000 0.0000 0.0000 0.0000 0.0000 6.2019
#
#
#
# Elastic Compliance Matrix: (Units=1/GPa)
#
#
# Indices 1 2 3 4 5 6 
#
# 1 0.006429 -0.002483 -0.005120 0.000000 0.000000 0.000000
# 2 -0.002483 0.021585 0.004570 0.000000 0.000000 0.000000
# 3 -0.005120 0.004570 0.012108 0.000000 0.000000 0.000000
# 4 0.000000 0.000000 0.000000 0.240456 0.000000 0.000000
# 5 0.000000 0.000000 0.000000 0.000000 0.086325 0.000000
# 6 0.000000 0.000000 0.000000 0.000000 0.000000 0.161242
#
#
# Mechanical properties :
#
#
# Convention : Reuss Voigt Hill
#
# Bulk Modulus (GPa) = 29.36354 65.59186 47.47770
# Shear Modulus (GPa) = 9.16487 26.28586 17.72537
#
# Velocity S-wave (km/s) = 2.02863 3.43559 2.82123
# Velocity P-wave (km/s) = 4.32116 6.72241 5.65081
#
# Compressibility (1/GPa) = 0.03405584
#
# Stress axis : x y z
#
# Youngs Moduli (GPa) = 155.55459 46.32880 82.59022
#
# Poissons Ratio (x) = 0.11503 0.42289
# Poissons Ratio (y) = 0.38621 -0.37747
# Poissons Ratio (z) = 0.79649 -0.21174
#
# Static dielectric constant tensor:
#      x y z
#    x 2.062650 0.000000 0.000000 
#    y 0.000000 1.851020 0.000000 
#    z 0.000000 0.000000 2.070610 
# 
# From -- ./inp_files/24587.got.cif
#   From: 2010.05.17/outbox.cif.g08.bks.cpg/sg69_13_cif.got.tgz:24587.got - 2010.06.03 19:29:58.
