data_PCOD9511832
_publ_section_title
;
Structure prediction by ZEFSAII (Michael W. Deem and Ramdas Pophale) SiO2 
 PCOD9511832
Probable space group: F M M M
;
_chemical_formula_sum "Si O2"
_cell_formula_units_Z 144
_cell_length_a 18.663496
_cell_length_b 14.556245
_cell_length_c 24.125725
_cell_angle_alpha 90.000000
_cell_angle_beta 90.000000
_cell_angle_gamma 90.000000
_cell_volume 6554.245852
_symmetry_space_group_name_H-M "F M M M"
_symmetry_group_IT_number 69
_symmetry_cell_setting 'orthorhombic'
loop_
_space_group_symop_operation_xyz
x,y,z
-x,-y,z
x,-y,-z
-x,y,-z
-x,-y,-z
x,y,-z
-x,y,z
x,-y,z
x,1/2+y,1/2+z
-x,1/2-y,1/2+z
x,1/2-y,1/2-z
-x,1/2+y,1/2-z
-x,1/2-y,1/2-z
x,1/2+y,1/2-z
-x,1/2+y,1/2+z
x,1/2-y,1/2+z
1/2+x,y,1/2+z
1/2-x,-y,1/2+z
1/2+x,-y,1/2-z
1/2-x,y,1/2-z
1/2-x,-y,1/2-z
1/2+x,y,1/2-z
1/2-x,y,1/2+z
1/2+x,-y,1/2+z
1/2+x,1/2+y,z
1/2-x,1/2-y,z
1/2+x,1/2-y,-z
1/2-x,1/2+y,-z
1/2-x,1/2-y,-z
1/2+x,1/2+y,-z
1/2-x,1/2+y,z
1/2+x,1/2-y,z
loop_
_atom_site_type_symbol
_atom_site_label
_atom_site_fract_x
_atom_site_fract_y
_atom_site_fract_z
Si Si1 0.168632 0.859163 0.255396
Si Si2 0.295017 0.112912 0.564369
Si Si3 0.500000 0.612233 0.564244
Si Si4 0.419451 0.892546 0.354622
Si Si5 0.354295 0.391635 0.382764
O O1 0.171952 0.750000 0.250000
O O2 0.250000 0.895128 0.250000
O O3 0.116782 0.889601 0.206040
O O4 0.143266 0.882389 0.316781
O O5 0.299877 0.139591 0.500000
O O6 0.361569 0.145908 0.601793
O O7 0.220145 0.144379 0.591866
O O8 0.295262 0.000000 0.566058
O O9 0.500000 0.500000 0.568989
O O10 0.500000 0.635334 0.500000
O O11 0.427099 0.646701 0.591779
O O12 0.500000 0.852850 0.354861
O O13 0.426261 0.000000 0.368952
O O14 0.353451 0.500000 0.396340
#
# Coordination Sequence:
#
# PCOD9511832 Si02
#       5
#    32  32  16  32  32
#     4  11  23  38  56  79 108 147 186 229 277 327
#     4   9  17  31  54  82 108 139 179 224 277 328
#     4   9  18  32  53  86 118 140 175 228 278 329
#     4  10  21  36  56  83 112 142 180 228 273 322
#     4  10  19  33  56  83 111 144 182 228 277 328
#
# _framework density 21.970490999999999
#
# number of rings (size 3 to 8) (size 9 to 14) (size 15 to 20)
#    0.000    2.111    2.222    1.333    1.556    4.444 
#    0.000    2.222    0.000    4.000    0.000    0.000 
#    0.000    0.000    0.000    0.000    0.000    0.000 
#
# Total GULP energy -201181.873316 kJ/mol
# GULP energy per Si atom -5588.385370 kJ/mol
# Density = 2.192048 g / cm^3
# Si number density = 21.970491 Si / 1000 Ang^3
#
#
#
# Elastic Constant Matrix: (Units=GPa)
#
#
# Indices 1 2 3 4 5 6 
#
# 1 260.5768 22.5098 143.1620 0.0000 0.0000 0.0000
# 2 22.5098 47.0697 -11.7924 0.0000 0.0000 0.0000
# 3 143.1620 -11.7924 190.3956 0.0000 0.0000 0.0000
# 4 0.0000 0.0000 0.0000 155.4555 0.0000 0.0000
# 5 0.0000 0.0000 0.0000 0.0000 33.4501 0.0000
# 6 0.0000 0.0000 0.0000 0.0000 0.0000 14.4640
#
#
#
# Elastic Compliance Matrix: (Units=1/GPa)
#
#
# Indices 1 2 3 4 5 6 
#
# 1 0.007594 -0.005142 -0.006028 0.000000 0.000000 0.000000
# 2 -0.005142 0.025062 0.005418 0.000000 0.000000 0.000000
# 3 -0.006028 0.005418 0.010121 0.000000 0.000000 0.000000
# 4 0.000000 0.000000 0.000000 0.006433 0.000000 0.000000
# 5 0.000000 0.000000 0.000000 0.000000 0.029895 0.000000
# 6 0.000000 0.000000 0.000000 0.000000 0.000000 0.069137
#
#
# Mechanical properties :
#
#
# Convention : Reuss Voigt Hill
#
# Bulk Modulus (GPa) = 31.97694 89.53342 60.75518
# Shear Modulus (GPa) = 29.38253 63.61811 46.50032
#
# Velocity S-wave (km/s) = 3.66097 5.38693 4.60552
# Velocity P-wave (km/s) = 5.69704 8.91808 7.48293
#
# Compressibility (1/GPa) = 0.03127253
#
# Stress axis : x y z
#
# Youngs Moduli (GPa) = 131.68522 39.90172 98.80719
#
# Poissons Ratio (x) = 0.20517 0.59565
# Poissons Ratio (y) = 0.67711 -0.53539
# Poissons Ratio (z) = 0.79386 -0.21621
#
# Static dielectric constant tensor:
#      x y z
#    x -3.864460 0.000000 0.000000 
#    y 0.000000 1.841120 0.000000 
#    z 0.000000 0.000000 1.749050 
# 
# From -- ./inp_files/22864.got.cif
#   From: 2010.05.17/outbox.cif.g08.bks.cpg/sg69_12_cif.got.tgz:22864.got - 2010.06.03 19:29:58.
