data_PCOD9511898
_publ_section_title
;
Structure prediction by ZEFSAII (Michael W. Deem and Ramdas Pophale) SiO2 
 PCOD9511898
Probable space group: F M M M
;
_chemical_formula_sum "Si O2"
_cell_formula_units_Z 208
_cell_length_a 17.409504
_cell_length_b 23.683016
_cell_length_c 27.774045
_cell_angle_alpha 90.000000
_cell_angle_beta 90.000000
_cell_angle_gamma 90.000000
_cell_volume 11451.504323
_symmetry_space_group_name_H-M "F M M M"
_symmetry_group_IT_number 69
_symmetry_cell_setting 'orthorhombic'
loop_
_space_group_symop_operation_xyz
x,y,z
-x,-y,z
x,-y,-z
-x,y,-z
-x,-y,-z
x,y,-z
-x,y,z
x,-y,z
x,1/2+y,1/2+z
-x,1/2-y,1/2+z
x,1/2-y,1/2-z
-x,1/2+y,1/2-z
-x,1/2-y,1/2-z
x,1/2+y,1/2-z
-x,1/2+y,1/2+z
x,1/2-y,1/2+z
1/2+x,y,1/2+z
1/2-x,-y,1/2+z
1/2+x,-y,1/2-z
1/2-x,y,1/2-z
1/2-x,-y,1/2-z
1/2+x,y,1/2-z
1/2-x,y,1/2+z
1/2+x,-y,1/2+z
1/2+x,1/2+y,z
1/2-x,1/2-y,z
1/2+x,1/2-y,-z
1/2-x,1/2+y,-z
1/2-x,1/2-y,-z
1/2+x,1/2+y,-z
1/2-x,1/2+y,z
1/2+x,1/2-y,z
loop_
_atom_site_type_symbol
_atom_site_label
_atom_site_fract_x
_atom_site_fract_y
_atom_site_fract_z
Si Si1 0.909347 0.365911 0.644129
Si Si2 0.323059 0.434155 0.593780
Si Si3 0.407187 0.937339 0.267529
Si Si4 0.413005 0.431286 0.500000
Si Si5 0.091757 0.634463 0.825469
Si Si6 0.158089 0.753845 0.807559
Si Si7 0.647846 0.434592 0.942221
O O1 0.882300 0.415836 0.680237
O O2 0.869029 0.309717 0.664261
O O3 0.895771 0.388596 0.590208
O O4 0.000000 0.357522 0.651172
O O5 0.341466 0.500000 0.602532
O O6 0.370216 0.413101 0.547693
O O7 0.353557 0.399059 0.638331
O O8 0.234647 0.431249 0.578147
O O9 0.500000 0.940807 0.268281
O O10 0.389291 0.891074 0.227200
O O11 0.377439 0.000000 0.256189
O O12 0.411021 0.500000 0.500000
O O13 0.500000 0.412481 0.500000
O O14 0.113898 0.699720 0.828315
O O15 0.000000 0.625687 0.834232
O O16 0.141347 0.750000 0.750000
O O17 0.250000 0.750000 0.812843
O O18 0.620972 0.500000 0.934812
O O19 0.646430 0.424614 0.000000
#
# Coordination Sequence:
#
# PCOD9511898 Si02
#       7
#    32  32  32  16  32  32  32
#     4  11  22  38  62  87 117 156 202 252 298 353
#     4  10  19  34  55  84 121 158 192 233 293 356
#     4   9  18  32  51  82 121 153 182 228 293 352
#     4   9  16  28  50  78 108 147 193 233 273 333
#     4  11  21  34  57  86 119 155 196 244 289 348
#     4  11  23  40  61  84 116 157 202 242 291 360
#     4  10  21  39  62  88 121 160 202 250 307 363
#
# _framework density 18.163551999999999
#
# number of rings (size 3 to 8) (size 9 to 14) (size 15 to 20)
#    0.000    1.769    2.308    2.769    0.000    3.385 
#    0.000    0.769    1.692    5.077    0.000    0.000 
#    0.000    0.000    0.000    0.000    0.000    0.000 
#
# Total GULP energy -289979.475880 kJ/mol
# GULP energy per Si atom -5576.528382 kJ/mol
# Density = 1.812221 g / cm^3
# Si number density = 18.163552 Si / 1000 Ang^3
#
#
#
# Elastic Constant Matrix: (Units=GPa)
#
#
# Indices 1 2 3 4 5 6 
#
# 1 39.6025 26.6346 20.8993 0.0000 0.0000 0.0000
# 2 26.6346 103.0256 43.5624 0.0000 0.0000 0.0000
# 3 20.8993 43.5624 101.6282 0.0000 0.0000 0.0000
# 4 0.0000 0.0000 0.0000 7.9072 0.0000 0.0000
# 5 0.0000 0.0000 0.0000 0.0000 95.6443 0.0000
# 6 0.0000 0.0000 0.0000 0.0000 0.0000 22.7663
#
#
#
# Elastic Compliance Matrix: (Units=1/GPa)
#
#
# Indices 1 2 3 4 5 6 
#
# 1 0.031645 -0.006631 -0.003665 0.000000 0.000000 0.000000
# 2 -0.006631 0.013245 -0.004314 0.000000 0.000000 0.000000
# 3 -0.003665 -0.004314 0.012442 0.000000 0.000000 0.000000
# 4 0.000000 0.000000 0.000000 0.126467 0.000000 0.000000
# 5 0.000000 0.000000 0.000000 0.000000 0.010455 0.000000
# 6 0.000000 0.000000 0.000000 0.000000 0.000000 0.043925
#
#
# Mechanical properties :
#
#
# Convention : Reuss Voigt Hill
#
# Bulk Modulus (GPa) = 35.57184 47.38321 41.47753
# Shear Modulus (GPa) = 18.06559 35.47422 26.76991
#
# Velocity S-wave (km/s) = 3.15716 4.42412 3.84321
# Velocity P-wave (km/s) = 5.73733 7.22777 6.52525
#
# Compressibility (1/GPa) = 0.02811212
#
# Stress axis : x y z
#
# Youngs Moduli (GPa) = 31.60061 75.50271 80.36979
#
# Poissons Ratio (x) = 0.50068 0.29457
# Poissons Ratio (y) = 0.20955 0.34668
# Poissons Ratio (z) = 0.11582 0.32568
#
# Static dielectric constant tensor:
#      x y z
#    x 1.625740 0.000000 0.000000 
#    y 0.000000 1.622870 0.000000 
#    z 0.000000 0.000000 1.631780 
# 
# From -- ./inp_files/42124.got.cif
#   From: 2010.05.17/outbox.cif.g08.bks.cpg/sg69_22_cif.got.tgz:42124.got - 2010.06.03 19:29:58.
