data_PCOD9511285
_publ_section_title
;
Structure prediction by ZEFSAII (Michael W. Deem and Ramdas Pophale) SiO2 
 PCOD9511285
Probable space group: F M M M
;
_chemical_formula_sum "Si O2"
_cell_formula_units_Z 176
_cell_length_a 11.376964
_cell_length_b 27.768647
_cell_length_c 23.387186
_cell_angle_alpha 90.000000
_cell_angle_beta 90.000000
_cell_angle_gamma 90.000000
_cell_volume 7388.547560
_symmetry_space_group_name_H-M "F M M M"
_symmetry_group_IT_number 69
_symmetry_cell_setting 'orthorhombic'
loop_
_space_group_symop_operation_xyz
x,y,z
-x,-y,z
x,-y,-z
-x,y,-z
-x,-y,-z
x,y,-z
-x,y,z
x,-y,z
x,1/2+y,1/2+z
-x,1/2-y,1/2+z
x,1/2-y,1/2-z
-x,1/2+y,1/2-z
-x,1/2-y,1/2-z
x,1/2+y,1/2-z
-x,1/2+y,1/2+z
x,1/2-y,1/2+z
1/2+x,y,1/2+z
1/2-x,-y,1/2+z
1/2+x,-y,1/2-z
1/2-x,y,1/2-z
1/2-x,-y,1/2-z
1/2+x,y,1/2-z
1/2-x,y,1/2+z
1/2+x,-y,1/2+z
1/2+x,1/2+y,z
1/2-x,1/2-y,z
1/2+x,1/2-y,-z
1/2-x,1/2+y,-z
1/2-x,1/2-y,-z
1/2+x,1/2+y,-z
1/2-x,1/2+y,z
1/2+x,1/2-y,z
loop_
_atom_site_type_symbol
_atom_site_label
_atom_site_fract_x
_atom_site_fract_y
_atom_site_fract_z
Si Si1 0.311246 0.870252 0.400864
Si Si2 0.000000 0.444672 0.431206
Si Si3 0.134422 0.671117 0.725334
Si Si4 0.134019 0.053321 0.412570
Si Si5 0.371764 0.731901 0.065108
Si Si6 0.127503 0.433180 0.776924
O O1 0.391048 0.917211 0.404777
O O2 0.328148 0.849003 0.337157
O O3 0.192724 0.894637 0.424568
O O4 0.358592 0.825668 0.437013
O O5 0.000000 0.500000 0.417294
O O6 0.000000 0.438852 0.500000
O O7 0.250000 0.697883 0.750000
O O8 0.124981 0.624128 0.765898
O O9 0.000000 0.691616 0.722287
O O10 0.132882 0.054241 0.343425
O O11 0.000000 0.053830 0.432464
O O12 0.184278 0.000000 0.430144
O O13 0.500000 0.743844 0.091081
O O14 0.250000 0.750000 0.093249
O O15 0.372975 0.750886 0.000000
O O16 0.250000 0.449564 0.750000
O O17 0.000000 0.449612 0.753893
#
# Coordination Sequence:
#
# PCOD9511285 Si02
#       6
#    32  16  32  32  32  32
#     4  12  20  37  63  89 121 165 209 256 315 376
#     4  11  24  40  60  90 126 165 212 262 312 377
#     4  10  18  31  51  80 119 162 207 252 301 367
#     4  10  21  35  50  78 122 169 213 256 303 362
#     4  10  22  42  69  98 125 150 192 262 339 397
#     4   9  16  29  45  68 108 158 207 256 298 343
#
# _framework density 23.820650000000001
#
# number of rings (size 3 to 8) (size 9 to 14) (size 15 to 20)
#    0.000    1.727    5.455    1.091    0.000    1.091 
#    0.000    0.000    0.000    2.182    0.000    8.909 
#    0.000    0.000    0.000    0.000    0.000    0.000 
#
# Total GULP energy -245042.618315 kJ/mol
# GULP energy per Si atom -5569.150416 kJ/mol
# Density = 2.376643 g / cm^3
# Si number density = 23.820650 Si / 1000 Ang^3
#
#
#
# Elastic Constant Matrix: (Units=GPa)
#
#
# Indices 1 2 3 4 5 6 
#
# 1 219.8131 34.1823 16.5339 0.0000 0.0000 0.0000
# 2 34.1823 79.7520 7.9472 0.0000 0.0000 0.0000
# 3 16.5339 7.9472 78.9292 0.0000 0.0000 0.0000
# 4 0.0000 0.0000 0.0000 13.1253 0.0000 0.0000
# 5 0.0000 0.0000 0.0000 0.0000 87.4017 0.0000
# 6 0.0000 0.0000 0.0000 0.0000 0.0000 21.3204
#
#
#
# Elastic Compliance Matrix: (Units=1/GPa)
#
#
# Indices 1 2 3 4 5 6 
#
# 1 0.004927 -0.002029 -0.000828 0.000000 0.000000 0.000000
# 2 -0.002029 0.013502 -0.000934 0.000000 0.000000 0.000000
# 3 -0.000828 -0.000934 0.012937 0.000000 0.000000 0.000000
# 4 0.000000 0.000000 0.000000 0.076189 0.000000 0.000000
# 5 0.000000 0.000000 0.000000 0.000000 0.011441 0.000000
# 6 0.000000 0.000000 0.000000 0.000000 0.000000 0.046903
#
#
# Mechanical properties :
#
#
# Convention : Reuss Voigt Hill
#
# Bulk Modulus (GPa) = 42.04683 55.09124 48.56904
# Shear Modulus (GPa) = 27.56181 45.69153 36.62667
#
# Velocity S-wave (km/s) = 3.40524 4.38442 3.92548
# Velocity P-wave (km/s) = 5.75766 6.98631 6.40153
#
# Compressibility (1/GPa) = 0.02378300
#
# Stress axis : x y z
#
# Youngs Moduli (GPa) = 202.95677 74.06443 77.29722
#
# Poissons Ratio (x) = 0.15030 0.06399
# Poissons Ratio (y) = 0.41187 0.07222
# Poissons Ratio (z) = 0.16801 0.06920
#
# Static dielectric constant tensor:
#      x y z
#    x 1.930640 0.000000 0.000000 
#    y 0.000000 1.867510 0.000000 
#    z 0.000000 0.000000 1.881300 
# 
# From -- ./inp_files/12353.got.cif
#   From: 2010.05.17/outbox.cif.g08.bks.cpg/sg69_7_cif.got.tgz:12353.got - 2010.06.03 19:29:58.
