data_PCOD9511570
_publ_section_title
;
Structure prediction by ZEFSAII (Michael W. Deem and Ramdas Pophale) SiO2 
 PCOD9511570
Probable space group: F M M M
;
_chemical_formula_sum "Si O2"
_cell_formula_units_Z 208
_cell_length_a 25.989326
_cell_length_b 15.431274
_cell_length_c 24.338070
_cell_angle_alpha 90.000000
_cell_angle_beta 90.000000
_cell_angle_gamma 90.000000
_cell_volume 9760.744290
_symmetry_space_group_name_H-M "F M M M"
_symmetry_group_IT_number 69
_symmetry_cell_setting 'orthorhombic'
loop_
_space_group_symop_operation_xyz
x,y,z
-x,-y,z
x,-y,-z
-x,y,-z
-x,-y,-z
x,y,-z
-x,y,z
x,-y,z
x,1/2+y,1/2+z
-x,1/2-y,1/2+z
x,1/2-y,1/2-z
-x,1/2+y,1/2-z
-x,1/2-y,1/2-z
x,1/2+y,1/2-z
-x,1/2+y,1/2+z
x,1/2-y,1/2+z
1/2+x,y,1/2+z
1/2-x,-y,1/2+z
1/2+x,-y,1/2-z
1/2-x,y,1/2-z
1/2-x,-y,1/2-z
1/2+x,y,1/2-z
1/2-x,y,1/2+z
1/2+x,-y,1/2+z
1/2+x,1/2+y,z
1/2-x,1/2-y,z
1/2+x,1/2-y,-z
1/2-x,1/2+y,-z
1/2-x,1/2-y,-z
1/2+x,1/2+y,-z
1/2-x,1/2+y,z
1/2+x,1/2-y,z
loop_
_atom_site_type_symbol
_atom_site_label
_atom_site_fract_x
_atom_site_fract_y
_atom_site_fract_z
Si Si1 0.585652 0.306216 0.436835
Si Si2 0.305097 0.759796 0.894308
Si Si3 0.660448 0.896692 0.317802
Si Si4 0.943329 0.599946 0.159676
Si Si5 0.441776 0.151024 0.358492
Si Si6 0.330324 0.103797 0.805461
Si Si7 0.938028 0.000000 0.059937
O O1 0.569461 0.296870 0.500000
O O2 0.646718 0.288771 0.431425
O O3 0.567861 0.393080 0.406041
O O4 0.561529 0.239116 0.392724
O O5 0.250000 0.750000 0.922449
O O6 0.181358 0.830570 0.863495
O O7 0.300629 0.834619 0.847544
O O8 0.600546 0.866829 0.312832
O O9 0.684741 0.883720 0.257811
O O10 0.663915 0.000000 0.330318
O O11 0.945278 0.500000 0.175983
O O12 0.890225 0.632941 0.186334
O O13 0.000000 0.636957 0.173574
O O14 0.500000 0.134379 0.340387
O O15 0.425179 0.082969 0.405235
O O16 0.326179 0.000000 0.817698
O O17 0.000000 0.000000 0.055218
O O18 0.914711 0.000000 0.000000
#
# Coordination Sequence:
#
# PCOD9511570 Si02
#       7
#    32  32  32  32  32  32  16
#     4  10  21  36  54  76 102 134 174 220 267 313
#     4  10  22  39  57  77 102 132 172 224 273 322
#     4  10  20  34  53  79 111 142 175 214 254 305
#     4   9  18  33  52  77 109 141 175 214 255 303
#     4  10  19  31  48  75 109 142 175 206 242 296
#     4   9  19  35  55  80 108 140 175 213 260 310
#     4   9  16  26  42  64  94 133 172 204 235 276
#
# _framework density 21.309850000000001
#
# number of rings (size 3 to 8) (size 9 to 14) (size 15 to 20)
#    0.000    2.385    0.769    1.385    0.000    4.923 
#    0.000    3.846    0.000    5.538    0.000    4.308 
#    0.000    0.000    0.000    0.000    0.000    0.000 
#
# Total GULP energy -289710.789685 kJ/mol
# GULP energy per Si atom -5571.361340 kJ/mol
# Density = 2.126135 g / cm^3
# Si number density = 21.309850 Si / 1000 Ang^3
#
#
#
# Elastic Constant Matrix: (Units=GPa)
#
#
# Indices 1 2 3 4 5 6 
#
# 1 92.6877 -13.0118 -17.7359 0.0000 0.0000 0.0000
# 2 -13.0118 62.4878 4.2833 0.0000 0.0000 0.0000
# 3 -17.7359 4.2833 53.6312 0.0000 0.0000 0.0000
# 4 0.0000 0.0000 0.0000 -0.9339 0.0000 0.0000
# 5 0.0000 0.0000 0.0000 0.0000 6.4700 0.0000
# 6 0.0000 0.0000 0.0000 0.0000 0.0000 12.2890
#
#
#
# Elastic Compliance Matrix: (Units=1/GPa)
#
#
# Indices 1 2 3 4 5 6 
#
# 1 0.011812 0.002204 0.003730 0.000000 0.000000 0.000000
# 2 0.002204 0.016502 -0.000589 0.000000 0.000000 0.000000
# 3 0.003730 -0.000589 0.019927 0.000000 0.000000 0.000000
# 4 0.000000 0.000000 0.000000 -1.070810 0.000000 0.000000
# 5 0.000000 0.000000 0.000000 0.000000 0.154559 0.000000
# 6 0.000000 0.000000 0.000000 0.000000 0.000000 0.081374
#
#
# Mechanical properties :
#
#
# Convention : Reuss Voigt Hill
#
# Bulk Modulus (GPa) = 16.96895 17.31977 17.14436
# Shear Modulus (GPa) = -6.42936 19.24976 6.41020
#
# Velocity S-wave (km/s) = -1.73886 3.00880 1.73627
# Velocity P-wave (km/s) = 1.98714 4.49619 3.47595
#
# Compressibility (1/GPa) = 0.05893116
#
# Stress axis : x y z
#
# Youngs Moduli (GPa) = 84.65896 60.59710 50.18438
#
# Poissons Ratio (x) = -0.13355 -0.18720
# Poissons Ratio (y) = -0.18658 0.02957
# Poissons Ratio (z) = -0.31580 0.03570
#
# Static dielectric constant tensor:
#      x y z
#    x 1.845060 0.000000 0.000000 
#    y 0.000000 1.751690 0.000000 
#    z 0.000000 0.000000 1.757220 
# 
# From -- ./inp_files/43292.got.cif
#   From: 2010.05.17/outbox.cif.g08.bks.cpg/sg69_22_cif.got.tgz:43292.got - 2010.06.03 19:29:58.
