data_PCOD9511277
_publ_section_title
;
Structure prediction by ZEFSAII (Michael W. Deem and Ramdas Pophale) SiO2 
 PCOD9511277
Probable space group: F M M M
;
_chemical_formula_sum "Si O2"
_cell_formula_units_Z 208
_cell_length_a 24.614299
_cell_length_b 18.971387
_cell_length_c 27.534909
_cell_angle_alpha 90.000000
_cell_angle_beta 90.000000
_cell_angle_gamma 90.000000
_cell_volume 12857.904646
_symmetry_space_group_name_H-M "F M M M"
_symmetry_group_IT_number 69
_symmetry_cell_setting 'orthorhombic'
loop_
_space_group_symop_operation_xyz
x,y,z
-x,-y,z
x,-y,-z
-x,y,-z
-x,-y,-z
x,y,-z
-x,y,z
x,-y,z
x,1/2+y,1/2+z
-x,1/2-y,1/2+z
x,1/2-y,1/2-z
-x,1/2+y,1/2-z
-x,1/2-y,1/2-z
x,1/2+y,1/2-z
-x,1/2+y,1/2+z
x,1/2-y,1/2+z
1/2+x,y,1/2+z
1/2-x,-y,1/2+z
1/2+x,-y,1/2-z
1/2-x,y,1/2-z
1/2-x,-y,1/2-z
1/2+x,y,1/2-z
1/2-x,y,1/2+z
1/2+x,-y,1/2+z
1/2+x,1/2+y,z
1/2-x,1/2-y,z
1/2+x,1/2-y,-z
1/2-x,1/2+y,-z
1/2-x,1/2-y,-z
1/2+x,1/2+y,-z
1/2-x,1/2+y,z
1/2+x,1/2-y,z
loop_
_atom_site_type_symbol
_atom_site_label
_atom_site_fract_x
_atom_site_fract_y
_atom_site_fract_z
Si Si1 0.859745 0.837091 0.699605
Si Si2 0.934562 0.664623 0.598525
Si Si3 0.934784 0.920367 0.634057
Si Si4 0.145784 0.329560 0.685603
Si Si5 0.748345 0.418822 0.308986
Si Si6 0.934281 0.816303 0.554531
Si Si7 0.434125 0.581012 0.000000
O O1 0.912968 0.868258 0.674896
O O2 0.849475 0.755516 0.686423
O O3 0.865537 0.846143 0.757660
O O4 0.809072 0.882569 0.680006
O O5 0.900442 0.648486 0.647025
O O6 0.922207 0.745549 0.584158
O O7 0.918931 0.619667 0.550431
O O8 0.000000 0.657343 0.605983
O O9 0.916642 0.885364 0.583456
O O10 0.000000 0.921330 0.634598
O O11 0.915144 0.000000 0.640729
O O12 0.201687 0.370338 0.673764
O O13 0.752313 0.500000 0.325366
O O14 0.750000 0.419294 0.250000
O O15 0.912951 0.811990 0.500000
O O16 0.000000 0.818407 0.551651
O O17 0.416080 0.500000 0.000000
O O18 0.500000 0.582387 0.000000
#
# Coordination Sequence:
#
# PCOD9511277 Si02
#       7
#    32  32  32  32  32  32  16
#     4  10  19  33  50  73 104 136 167 206 253 298
#     4  10  18  31  50  75 105 136 168 207 256 300
#     4  10  20  32  48  74 106 136 166 201 250 310
#     4  10  20  31  51  77 100 130 174 214 243 296
#     4   9  18  33  51  70  95 128 168 212 253 292
#     4   9  16  29  49  71  97 130 168 207 247 294
#     4   9  18  32  50  72 100 135 173 213 256 300
#
# _framework density 16.176818999999998
#
# number of rings (size 3 to 8) (size 9 to 14) (size 15 to 20)
#    0.000    2.385    2.308    0.923    0.000    4.000 
#    0.000    3.077    0.000    1.846    2.000    2.154 
#    0.000    0.000    0.000    0.000    0.000    0.000 
#
# Total GULP energy -289498.812839 kJ/mol
# GULP energy per Si atom -5567.284862 kJ/mol
# Density = 1.614000 g / cm^3
# Si number density = 16.176819 Si / 1000 Ang^3
#
#
#
# Elastic Constant Matrix: (Units=GPa)
#
#
# Indices 1 2 3 4 5 6 
#
# 1 47.1666 29.7841 38.6044 0.0000 0.0000 0.0000
# 2 29.7841 100.9202 38.4926 0.0000 0.0000 0.0000
# 3 38.6044 38.4926 81.9549 0.0000 0.0000 0.0000
# 4 0.0000 0.0000 0.0000 20.6541 0.0000 0.0000
# 5 0.0000 0.0000 0.0000 0.0000 3.0030 0.0000
# 6 0.0000 0.0000 0.0000 0.0000 0.0000 22.8991
#
#
#
# Elastic Compliance Matrix: (Units=1/GPa)
#
#
# Indices 1 2 3 4 5 6 
#
# 1 0.036572 -0.005144 -0.014811 0.000000 0.000000 0.000000
# 2 -0.005144 0.012795 -0.003586 0.000000 0.000000 0.000000
# 3 -0.014811 -0.003586 0.020863 0.000000 0.000000 0.000000
# 4 0.000000 0.000000 0.000000 0.048417 0.000000 0.000000
# 5 0.000000 0.000000 0.000000 0.000000 0.333004 0.000000
# 6 0.000000 0.000000 0.000000 0.000000 0.000000 0.043670
#
#
# Mechanical properties :
#
#
# Convention : Reuss Voigt Hill
#
# Bulk Modulus (GPa) = 43.20242 49.31157 46.25699
# Shear Modulus (GPa) = 9.08895 17.52193 13.30544
#
# Velocity S-wave (km/s) = 2.37291 3.29470 2.87104
# Velocity P-wave (km/s) = 5.85422 6.70987 6.29660
#
# Compressibility (1/GPa) = 0.02314685
#
# Stress axis : x y z
#
# Youngs Moduli (GPa) = 27.34318 78.15613 47.93189
#
# Poissons Ratio (x) = 0.40205 0.70992
# Poissons Ratio (y) = 0.14066 0.17190
# Poissons Ratio (z) = 0.40498 0.28030
#
# Static dielectric constant tensor:
#      x y z
#    x 1.529600 0.000000 0.000000 
#    y 0.000000 1.556390 0.000000 
#    z 0.000000 0.000000 1.546990 
# 
# From -- ./inp_files/43269.got.cif
#   From: 2010.05.17/outbox.cif.g08.bks.cpg/sg69_22_cif.got.tgz:43269.got - 2010.06.03 19:29:58.
