data_PCOD9511746
_publ_section_title
;
Structure prediction by ZEFSAII (Michael W. Deem and Ramdas Pophale) SiO2 
 PCOD9511746
Probable space group: F M M M
;
_chemical_formula_sum "Si O2"
_cell_formula_units_Z 176
_cell_length_a 27.247598
_cell_length_b 18.842702
_cell_length_c 17.126128
_cell_angle_alpha 90.000000
_cell_angle_beta 90.000000
_cell_angle_gamma 90.000000
_cell_volume 8792.868711
_symmetry_space_group_name_H-M "F M M M"
_symmetry_group_IT_number 69
_symmetry_cell_setting 'orthorhombic'
loop_
_space_group_symop_operation_xyz
x,y,z
-x,-y,z
x,-y,-z
-x,y,-z
-x,-y,-z
x,y,-z
-x,y,z
x,-y,z
x,1/2+y,1/2+z
-x,1/2-y,1/2+z
x,1/2-y,1/2-z
-x,1/2+y,1/2-z
-x,1/2-y,1/2-z
x,1/2+y,1/2-z
-x,1/2+y,1/2+z
x,1/2-y,1/2+z
1/2+x,y,1/2+z
1/2-x,-y,1/2+z
1/2+x,-y,1/2-z
1/2-x,y,1/2-z
1/2-x,-y,1/2-z
1/2+x,y,1/2-z
1/2-x,y,1/2+z
1/2+x,-y,1/2+z
1/2+x,1/2+y,z
1/2-x,1/2-y,z
1/2+x,1/2-y,-z
1/2-x,1/2+y,-z
1/2-x,1/2-y,-z
1/2+x,1/2+y,-z
1/2-x,1/2+y,z
1/2+x,1/2-y,z
loop_
_atom_site_type_symbol
_atom_site_label
_atom_site_fract_x
_atom_site_fract_y
_atom_site_fract_z
Si Si1 0.441308 0.083683 0.681554
Si Si2 0.500000 0.579199 0.407809
Si Si3 0.889582 0.694526 0.408057
Si Si4 0.189305 0.581927 0.905519
Si Si5 0.276815 0.821928 0.405318
Si Si6 0.093697 0.844193 0.662022
O O1 0.500000 0.090199 0.690576
O O2 0.422748 0.125441 0.605543
O O3 0.414965 0.126871 0.751106
O O4 0.429066 0.000000 0.682361
O O5 0.500000 0.500000 0.371823
O O6 0.500000 0.572797 0.500000
O O7 0.548817 0.619634 0.383635
O O8 0.889471 0.715085 0.500000
O O9 0.833602 0.677092 0.383230
O O10 0.907887 0.760740 0.356364
O O11 0.183668 0.500000 0.883693
O O12 0.242042 0.613250 0.881315
O O13 0.145583 0.627785 0.869739
O O14 0.185901 0.587065 0.000000
O O15 0.276560 0.820916 0.500000
O O16 0.250000 0.750000 0.378574
#
# Coordination Sequence:
#
# PCOD9511746 Si02
#       6
#    32  16  32  32  32  32
#     4  11  26  47  66  87 125 175 217 260 318 378
#     4  11  22  34  55  90 130 166 205 257 314 378
#     4  11  24  41  68  99 126 162 214 269 316 371
#     4  10  19  32  58  94 128 165 208 254 310 377
#     4   9  17  35  59  88 125 163 201 251 313 369
#     4  12  22  39  64  92 127 165 207 258 321 384
#
# _framework density 20.016220000000001
#
# number of rings (size 3 to 8) (size 9 to 14) (size 15 to 20)
#    0.000    1.364    2.727    3.818    1.273    3.636 
#    0.000    3.636    0.000    2.182    0.000    0.000 
#    0.000    0.000    0.000    0.000    0.000    0.000 
#
# Total GULP energy -245769.754903 kJ/mol
# GULP energy per Si atom -5585.676248 kJ/mol
# Density = 1.997066 g / cm^3
# Si number density = 20.016220 Si / 1000 Ang^3
#
#
#
# Elastic Constant Matrix: (Units=GPa)
#
#
# Indices 1 2 3 4 5 6 
#
# 1 93.3351 52.0283 18.2480 0.0000 0.0000 0.0000
# 2 52.0283 136.7720 31.4597 0.0000 0.0000 0.0000
# 3 18.2480 31.4597 25.8434 0.0000 0.0000 0.0000
# 4 0.0000 0.0000 0.0000 81.5273 0.0000 0.0000
# 5 0.0000 0.0000 0.0000 0.0000 61.6340 0.0000
# 6 0.0000 0.0000 0.0000 0.0000 0.0000 36.3403
#
#
#
# Elastic Compliance Matrix: (Units=1/GPa)
#
#
# Indices 1 2 3 4 5 6 
#
# 1 0.014001 -0.004239 -0.004726 0.000000 0.000000 0.000000
# 2 -0.004239 0.011438 -0.010931 0.000000 0.000000 0.000000
# 3 -0.004726 -0.010931 0.055338 0.000000 0.000000 0.000000
# 4 0.000000 0.000000 0.000000 0.012266 0.000000 0.000000
# 5 0.000000 0.000000 0.000000 0.000000 0.016225 0.000000
# 6 0.000000 0.000000 0.000000 0.000000 0.000000 0.027518
#
#
# Mechanical properties :
#
#
# Convention : Reuss Voigt Hill
#
# Bulk Modulus (GPa) = 24.39878 51.04694 37.72286
# Shear Modulus (GPa) = 26.28279 46.18130 36.23204
#
# Velocity S-wave (km/s) = 3.62757 4.80854 4.25918
# Velocity P-wave (km/s) = 5.45542 7.50916 6.56312
#
# Compressibility (1/GPa) = 0.04098565
#
# Stress axis : x y z
#
# Youngs Moduli (GPa) = 71.42347 87.42626 18.07082
#
# Poissons Ratio (x) = 0.37060 0.08540
# Poissons Ratio (y) = 0.30276 0.19753
# Poissons Ratio (z) = 0.33754 0.95564
#
# Static dielectric constant tensor:
#      x y z
#    x 1.731950 0.000000 0.000000 
#    y 0.000000 1.708440 0.000000 
#    z 0.000000 0.000000 1.751680 
# 
# From -- ./inp_files/26750.got.cif
#   From: 2010.05.17/outbox.cif.g08.bks.cpg/sg69_14_cif.got.tgz:26750.got - 2010.06.03 19:29:58.
