data_PCOD9511306
_publ_section_title
;
Structure prediction by ZEFSAII (Michael W. Deem and Ramdas Pophale) SiO2 
 PCOD9511306
Probable space group: F M M M
;
_chemical_formula_sum "Si O2"
_cell_formula_units_Z 192
_cell_length_a 28.237515
_cell_length_b 14.829888
_cell_length_c 23.597952
_cell_angle_alpha 90.000000
_cell_angle_beta 90.000000
_cell_angle_gamma 90.000000
_cell_volume 9881.859144
_symmetry_space_group_name_H-M "F M M M"
_symmetry_group_IT_number 69
_symmetry_cell_setting 'orthorhombic'
loop_
_space_group_symop_operation_xyz
x,y,z
-x,-y,z
x,-y,-z
-x,y,-z
-x,-y,-z
x,y,-z
-x,y,z
x,-y,z
x,1/2+y,1/2+z
-x,1/2-y,1/2+z
x,1/2-y,1/2-z
-x,1/2+y,1/2-z
-x,1/2-y,1/2-z
x,1/2+y,1/2-z
-x,1/2+y,1/2+z
x,1/2-y,1/2+z
1/2+x,y,1/2+z
1/2-x,-y,1/2+z
1/2+x,-y,1/2-z
1/2-x,y,1/2-z
1/2-x,-y,1/2-z
1/2+x,y,1/2-z
1/2-x,y,1/2+z
1/2+x,-y,1/2+z
1/2+x,1/2+y,z
1/2-x,1/2-y,z
1/2+x,1/2-y,-z
1/2-x,1/2+y,-z
1/2-x,1/2-y,-z
1/2+x,1/2+y,-z
1/2-x,1/2+y,z
1/2+x,1/2-y,z
loop_
_atom_site_type_symbol
_atom_site_label
_atom_site_fract_x
_atom_site_fract_y
_atom_site_fract_z
Si Si1 0.946254 0.155372 0.931910
Si Si2 0.185270 0.500000 0.169473
Si Si3 0.378032 0.500000 0.565316
Si Si4 0.053146 0.853049 0.614560
Si Si5 0.051947 0.107940 0.251089
Si Si6 0.202037 0.500000 0.661826
Si Si7 0.844018 0.352367 0.740759
Si Si8 0.627689 0.000000 0.567659
O O1 0.939516 0.248718 0.899444
O O2 0.000000 0.121579 0.920248
O O3 0.905502 0.084994 0.917153
O O4 0.943948 0.171068 0.000000
O O5 0.166639 0.500000 0.106169
O O6 0.241747 0.500000 0.168221
O O7 0.164802 0.413131 0.203088
O O8 0.366024 0.500000 0.500000
O O9 0.409483 0.586076 0.582239
O O10 0.054509 0.872813 0.681586
O O11 0.000000 0.876778 0.595044
O O12 0.099917 0.148434 0.226277
O O13 0.000000 0.139938 0.230457
O O14 0.054007 0.000000 0.242914
O O15 0.182945 0.589272 0.693771
O O16 0.176849 0.500000 0.601000
O O17 0.827973 0.250000 0.750000
O O18 0.634623 0.000000 0.500000
#
# Coordination Sequence:
#
# PCOD9511306 Si02
#       8
#    32  16  16  32  32  16  32  16
#     4   9  18  33  54  80 114 156 197 235 274 328
#     4  11  24  46  59  85 122 143 193 268 300 346
#     4  12  22  34  59  90 120 160 193 229 294 358
#     4  10  18  31  53  84 124 163 193 227 274 340
#     4  10  18  34  58  86 129 166 184 225 290 343
#     4  11  26  42  64  88 109 146 205 250 307 362
#     4  11  22  41  68  90 114 153 198 243 295 346
#     4  10  22  40  60  83 115 151 192 245 297 346
#
# _framework density 19.429542999999999
#
# number of rings (size 3 to 8) (size 9 to 14) (size 15 to 20)
#    0.000    1.667    4.167    2.000    2.333    4.333 
#    0.000    1.667    0.000    0.000    0.000    5.833 
#    0.000    0.000    0.000    0.000    0.000    0.000 
#
# Total GULP energy -268283.525161 kJ/mol
# GULP energy per Si atom -5589.240108 kJ/mol
# Density = 1.938532 g / cm^3
# Si number density = 19.429543 Si / 1000 Ang^3
#
#
#
# Elastic Constant Matrix: (Units=GPa)
#
#
# Indices 1 2 3 4 5 6 
#
# 1 138.7957 38.7713 36.2265 0.0000 0.0000 0.0000
# 2 38.7713 105.2658 16.5436 0.0000 0.0000 0.0000
# 3 36.2265 16.5436 67.5204 0.0000 0.0000 0.0000
# 4 0.0000 0.0000 0.0000 7.9716 0.0000 0.0000
# 5 0.0000 0.0000 0.0000 0.0000 17.4483 0.0000
# 6 0.0000 0.0000 0.0000 0.0000 0.0000 -7.7263
#
#
#
# Elastic Compliance Matrix: (Units=1/GPa)
#
#
# Indices 1 2 3 4 5 6 
#
# 1 0.009047 -0.002672 -0.004199 0.000000 0.000000 0.000000
# 2 -0.002672 0.010670 -0.001180 0.000000 0.000000 0.000000
# 3 -0.004199 -0.001180 0.017353 0.000000 0.000000 0.000000
# 4 0.000000 0.000000 0.000000 0.125446 0.000000 0.000000
# 5 0.000000 0.000000 0.000000 0.000000 0.057312 0.000000
# 6 0.000000 0.000000 0.000000 0.000000 0.000000 -0.129429
#
#
# Mechanical properties :
#
#
# Convention : Reuss Voigt Hill
#
# Bulk Modulus (GPa) = 47.69797 54.96274 51.33035
# Shear Modulus (GPa) = 44.05604 18.20808 31.13206
#
# Velocity S-wave (km/s) = 4.76697 3.06459 4.00722
# Velocity P-wave (km/s) = 7.40953 6.39311 6.92001
#
# Compressibility (1/GPa) = 0.02096525
#
# Stress axis : x y z
#
# Youngs Moduli (GPa) = 110.52904 93.72463 57.62804
#
# Poissons Ratio (x) = 0.25046 0.24200
# Poissons Ratio (y) = 0.29537 0.06803
# Poissons Ratio (z) = 0.46416 0.11064
#
# Static dielectric constant tensor:
#      x y z
#    x 1.675400 0.000000 0.000000 
#    y 0.000000 1.682300 0.000000 
#    z 0.000000 0.000000 1.689410 
# 
# From -- ./inp_files/38423.got.cif
#   From: 2010.05.17/outbox.cif.g08.bks.cpg/sg69_20_cif.got.tgz:38423.got - 2010.06.03 19:29:58.
