data_PCOD9511760
_publ_section_title
;
Structure prediction by ZEFSAII (Michael W. Deem and Ramdas Pophale) SiO2 
 PCOD9511760
Probable space group: F M M M
;
_chemical_formula_sum "Si O2"
_cell_formula_units_Z 160
_cell_length_a 24.222336
_cell_length_b 22.921448
_cell_length_c 14.210900
_cell_angle_alpha 90.000000
_cell_angle_beta 90.000000
_cell_angle_gamma 90.000000
_cell_volume 7890.048214
_symmetry_space_group_name_H-M "F M M M"
_symmetry_group_IT_number 69
_symmetry_cell_setting 'orthorhombic'
loop_
_space_group_symop_operation_xyz
x,y,z
-x,-y,z
x,-y,-z
-x,y,-z
-x,-y,-z
x,y,-z
-x,y,z
x,-y,z
x,1/2+y,1/2+z
-x,1/2-y,1/2+z
x,1/2-y,1/2-z
-x,1/2+y,1/2-z
-x,1/2-y,1/2-z
x,1/2+y,1/2-z
-x,1/2+y,1/2+z
x,1/2-y,1/2+z
1/2+x,y,1/2+z
1/2-x,-y,1/2+z
1/2+x,-y,1/2-z
1/2-x,y,1/2-z
1/2-x,-y,1/2-z
1/2+x,y,1/2-z
1/2-x,y,1/2+z
1/2+x,-y,1/2+z
1/2+x,1/2+y,z
1/2-x,1/2-y,z
1/2+x,1/2-y,-z
1/2-x,1/2+y,-z
1/2-x,1/2-y,-z
1/2+x,1/2+y,-z
1/2-x,1/2+y,z
1/2+x,1/2-y,z
loop_
_atom_site_type_symbol
_atom_site_label
_atom_site_fract_x
_atom_site_fract_y
_atom_site_fract_z
Si Si1 0.809299 0.280993 0.606427
Si Si2 0.500000 0.209010 0.884797
Si Si3 0.312569 0.893667 0.736040
Si Si4 0.093036 0.564225 0.611536
Si Si5 0.500000 0.844098 0.614417
Si Si6 0.118447 0.667360 0.111471
O O1 0.818116 0.303770 0.500000
O O2 0.750000 0.250000 0.609159
O O3 0.809544 0.332096 0.680820
O O4 0.854272 0.231264 0.624222
O O5 0.500000 0.276951 0.853473
O O6 0.444678 0.175047 0.856767
O O7 0.500000 0.211048 0.000000
O O8 0.250000 0.914469 0.750000
O O9 0.351102 0.932526 0.670520
O O10 0.345214 0.878863 0.831671
O O11 0.103547 0.570284 0.500000
O O12 0.067318 0.500000 0.625306
O O13 0.053393 0.617522 0.640753
O O14 0.500000 0.842373 0.500000
O O15 0.120097 0.654782 0.000000
#
# Coordination Sequence:
#
# PCOD9511760 Si02
#       6
#    32  16  32  32  16  32
#     4  10  19  33  52  76 110 148 185 220 258 317
#     4   9  18  34  54  80 117 154 185 219 264 323
#     4  12  23  34  55  81 114 149 191 226 268 325
#     4  10  22  40  61  83 106 136 180 237 294 338
#     4   9  17  35  61  85 110 141 177 222 282 345
#     4  10  21  35  52  78 115 154 188 223 265 321
#
# _framework density 20.27871
#
# number of rings (size 3 to 8) (size 9 to 14) (size 15 to 20)
#    0.000    1.800    2.000    2.700    0.000    6.400 
#    0.000    3.000    0.000    0.600    0.000    0.000 
#    0.000    4.000    0.000    0.000    0.000    0.000 
#
# Total GULP energy -223590.032861 kJ/mol
# GULP energy per Si atom -5589.750822 kJ/mol
# Density = 2.023256 g / cm^3
# Si number density = 20.278710 Si / 1000 Ang^3
#
#
#
# Elastic Constant Matrix: (Units=GPa)
#
#
# Indices 1 2 3 4 5 6 
#
# 1 153.8606 23.5748 30.4558 0.0000 0.0000 0.0000
# 2 23.5748 50.8414 27.5508 0.0000 0.0000 0.0000
# 3 30.4558 27.5508 72.5009 0.0000 0.0000 0.0000
# 4 0.0000 0.0000 0.0000 7.1763 0.0000 0.0000
# 5 0.0000 0.0000 0.0000 0.0000 17.9561 0.0000
# 6 0.0000 0.0000 0.0000 0.0000 0.0000 0.0166
#
#
#
# Elastic Compliance Matrix: (Units=1/GPa)
#
#
# Indices 1 2 3 4 5 6 
#
# 1 0.007273 -0.002162 -0.002234 0.000000 0.000000 0.000000
# 2 -0.002162 0.025412 -0.008749 0.000000 0.000000 0.000000
# 3 -0.002234 -0.008749 0.018056 0.000000 0.000000 0.000000
# 4 0.000000 0.000000 0.000000 0.139347 0.000000 0.000000
# 5 0.000000 0.000000 0.000000 0.000000 0.055691 0.000000
# 6 0.000000 0.000000 0.000000 0.000000 0.000000 60.243946
#
#
# Mechanical properties :
#
#
# Convention : Reuss Voigt Hill
#
# Bulk Modulus (GPa) = 40.89561 48.92952 44.91256
# Shear Modulus (GPa) = 0.08261 18.07123 9.07692
#
# Velocity S-wave (km/s) = 0.20206 2.98844 2.11797
# Velocity P-wave (km/s) = 4.50166 6.00738 5.30818
#
# Compressibility (1/GPa) = 0.02445251
#
# Stress axis : x y z
#
# Youngs Moduli (GPa) = 137.49919 39.35090 55.38409
#
# Poissons Ratio (x) = 0.08508 0.12370
# Poissons Ratio (y) = 0.29727 0.48454
# Poissons Ratio (z) = 0.30711 0.34427
#
# Static dielectric constant tensor:
#      x y z
#    x 1.742400 0.000000 0.000000 
#    y 0.000000 1.678440 0.000000 
#    z 0.000000 0.000000 1.749230 
# 
# From -- ./inp_files/17753.got.cif
#   From: 2010.05.17/outbox.cif.g08.bks.cpg/sg69_9_cif.got.tgz:17753.got - 2010.06.03 19:29:58.
