data_PCOD9511594
_publ_section_title
;
Structure prediction by ZEFSAII (Michael W. Deem and Ramdas Pophale) SiO2 
 PCOD9511594
Probable space group: F M M M
;
_chemical_formula_sum "Si O2"
_cell_formula_units_Z 160
_cell_length_a 27.179367
_cell_length_b 15.677068
_cell_length_c 17.599424
_cell_angle_alpha 90.000000
_cell_angle_beta 90.000000
_cell_angle_gamma 90.000000
_cell_volume 7498.987581
_symmetry_space_group_name_H-M "F M M M"
_symmetry_group_IT_number 69
_symmetry_cell_setting 'orthorhombic'
loop_
_space_group_symop_operation_xyz
x,y,z
-x,-y,z
x,-y,-z
-x,y,-z
-x,-y,-z
x,y,-z
-x,y,z
x,-y,z
x,1/2+y,1/2+z
-x,1/2-y,1/2+z
x,1/2-y,1/2-z
-x,1/2+y,1/2-z
-x,1/2-y,1/2-z
x,1/2+y,1/2-z
-x,1/2+y,1/2+z
x,1/2-y,1/2+z
1/2+x,y,1/2+z
1/2-x,-y,1/2+z
1/2+x,-y,1/2-z
1/2-x,y,1/2-z
1/2-x,-y,1/2-z
1/2+x,y,1/2-z
1/2-x,y,1/2+z
1/2+x,-y,1/2+z
1/2+x,1/2+y,z
1/2-x,1/2-y,z
1/2+x,1/2-y,-z
1/2-x,1/2+y,-z
1/2-x,1/2-y,-z
1/2+x,1/2+y,-z
1/2-x,1/2+y,z
1/2+x,1/2-y,z
loop_
_atom_site_type_symbol
_atom_site_label
_atom_site_fract_x
_atom_site_fract_y
_atom_site_fract_z
Si Si1 0.659668 0.655340 0.285157
Si Si2 0.446875 0.401566 0.888404
Si Si3 0.447554 0.152808 0.218788
Si Si4 0.232715 0.103610 0.416126
Si Si5 0.159722 0.098203 0.117308
O O1 0.662623 0.750000 0.250000
O O2 0.605051 0.640589 0.319751
O O3 0.700777 0.638863 0.347199
O O4 0.663699 0.599331 0.208923
O O5 0.500000 0.363033 0.911524
O O6 0.447025 0.500000 0.913310
O O7 0.447128 0.400708 0.796676
O O8 0.393202 0.362720 0.906757
O O9 0.500000 0.137770 0.178959
O O10 0.447767 0.250000 0.250000
O O11 0.213051 0.123991 0.500000
O O12 0.289145 0.135781 0.411406
O O13 0.233895 0.000000 0.408591
O O14 0.158054 0.000000 0.091866
#
# Coordination Sequence:
#
# PCOD9511594 Si02
#       5
#    32  32  32  32  32
#     4  10  19  31  50  76 100 124 164 213 255 293
#     4   8  13  22  39  64  90 114 148 201 255 293
#     4   8  14  25  42  66  95 123 152 194 248 298
#     4  10  21  36  52  70  99 140 176 204 242 298
#     4   9  17  30  48  68  92 127 170 208 244 296
#
# _framework density 21.336213999999998
#
# number of rings (size 3 to 8) (size 9 to 14) (size 15 to 20)
#    0.000    3.000    0.000    1.200    0.000    4.000 
#    0.000    2.000    0.000    1.200    0.000    5.600 
#    0.000   16.000    0.000    0.400    0.000    0.600 
#
# Total GULP energy -222734.797587 kJ/mol
# GULP energy per Si atom -5568.369940 kJ/mol
# Density = 2.128765 g / cm^3
# Si number density = 21.336214 Si / 1000 Ang^3
#
#
#
# Elastic Constant Matrix: (Units=GPa)
#
#
# Indices 1 2 3 4 5 6 
#
# 1 212.9351 4.1707 69.5619 0.0000 0.0000 0.0000
# 2 4.1707 37.1114 18.0810 0.0000 0.0000 0.0000
# 3 69.5619 18.0810 84.1999 0.0000 0.0000 0.0000
# 4 0.0000 0.0000 0.0000 4.2555 0.0000 0.0000
# 5 0.0000 0.0000 0.0000 0.0000 -23.8070 0.0000
# 6 0.0000 0.0000 0.0000 0.0000 0.0000 17.7102
#
#
#
# Elastic Compliance Matrix: (Units=1/GPa)
#
#
# Indices 1 2 3 4 5 6 
#
# 1 0.006580 0.002132 -0.005894 0.000000 0.000000 0.000000
# 2 0.002132 0.030785 -0.008372 0.000000 0.000000 0.000000
# 3 -0.005894 -0.008372 0.018544 0.000000 0.000000 0.000000
# 4 0.000000 0.000000 0.000000 0.234988 0.000000 0.000000
# 5 0.000000 0.000000 0.000000 0.000000 -0.042005 0.000000
# 6 0.000000 0.000000 0.000000 0.000000 0.000000 0.056465
#
#
# Mechanical properties :
#
#
# Convention : Reuss Voigt Hill
#
# Bulk Modulus (GPa) = 31.60481 57.54150 44.57315
# Shear Modulus (GPa) = 14.69846 15.79394 15.24620
#
# Velocity S-wave (km/s) = 2.62753 2.72369 2.67604
# Velocity P-wave (km/s) = 4.90410 6.07608 5.52127
#
# Compressibility (1/GPa) = 0.03164076
#
# Stress axis : x y z
#
# Youngs Moduli (GPa) = 151.97761 32.48304 53.92703
#
# Poissons Ratio (x) = -0.06926 0.31784
# Poissons Ratio (y) = -0.32403 0.45149
# Poissons Ratio (z) = 0.89573 0.27196
#
# Static dielectric constant tensor:
#      x y z
#    x 1.874710 0.000000 0.000000 
#    y 0.000000 1.839870 0.000000 
#    z 0.000000 0.000000 1.739300 
# 
# From -- ./inp_files/23169.got.cif
#   From: 2010.05.17/outbox.cif.g08.bks.cpg/sg69_12_cif.got.tgz:23169.got - 2010.06.03 19:29:58.
