data_PCOD9511354
_publ_section_title
;
Structure prediction by ZEFSAII (Michael W. Deem and Ramdas Pophale) SiO2 
 PCOD9511354
Probable space group: F M M M
;
_chemical_formula_sum "Si O2"
_cell_formula_units_Z 112
_cell_length_a 8.871675
_cell_length_b 37.829377
_cell_length_c 15.111528
_cell_angle_alpha 90.000000
_cell_angle_beta 90.000000
_cell_angle_gamma 90.000000
_cell_volume 5071.578978
_symmetry_space_group_name_H-M "F M M M"
_symmetry_group_IT_number 69
_symmetry_cell_setting 'orthorhombic'
loop_
_space_group_symop_operation_xyz
x,y,z
-x,-y,z
x,-y,-z
-x,y,-z
-x,-y,-z
x,y,-z
-x,y,z
x,-y,z
x,1/2+y,1/2+z
-x,1/2-y,1/2+z
x,1/2-y,1/2-z
-x,1/2+y,1/2-z
-x,1/2-y,1/2-z
x,1/2+y,1/2-z
-x,1/2+y,1/2+z
x,1/2-y,1/2+z
1/2+x,y,1/2+z
1/2-x,-y,1/2+z
1/2+x,-y,1/2-z
1/2-x,y,1/2-z
1/2-x,-y,1/2-z
1/2+x,y,1/2-z
1/2-x,y,1/2+z
1/2+x,-y,1/2+z
1/2+x,1/2+y,z
1/2-x,1/2-y,z
1/2+x,1/2-y,-z
1/2-x,1/2+y,-z
1/2-x,1/2-y,-z
1/2+x,1/2+y,-z
1/2-x,1/2+y,z
1/2+x,1/2-y,z
loop_
_atom_site_type_symbol
_atom_site_label
_atom_site_fract_x
_atom_site_fract_y
_atom_site_fract_z
Si Si1 0.318900 0.000000 0.350255
Si Si2 0.320642 0.929055 0.152227
Si Si3 0.167552 0.857447 0.104517
Si Si4 0.327003 0.786582 0.891486
O O1 0.250000 0.000000 0.250000
O O2 0.256183 0.036360 0.391066
O O3 0.500000 0.000000 0.347376
O O4 0.500000 0.933552 0.153942
O O5 0.250000 0.927615 0.250000
O O6 0.272990 0.891486 0.113431
O O7 0.239307 0.821393 0.140113
O O8 0.000000 0.864491 0.142100
O O9 0.151450 0.851602 0.000000
O O10 0.500000 0.787847 0.863100
O O11 0.250000 0.750000 0.864192
O O12 0.326321 0.786881 0.000000
#
# Coordination Sequence:
#
# PCOD9511354 Si02
#       4
#    16  32  32  32
#     4  10  18  32  53  76 101 130 169 211 251 297
#     4  11  21  35  55  78 104 134 171 211 253 302
#     4  10  20  34  52  76 106 137 170 211 258 304
#     4   9  16  27  45  70  99 132 170 210 251 296
#
# _framework density 22.083852
#
# number of rings (size 3 to 8) (size 9 to 14) (size 15 to 20)
#    0.000    2.000    0.000    7.286    0.000    5.143 
#    0.000    0.714    0.000    5.143    0.000    6.000 
#    0.000    0.000    0.000    0.000    0.000    0.000 
#
# Total GULP energy -156401.239677 kJ/mol
# GULP energy per Si atom -5585.758560 kJ/mol
# Density = 2.203359 g / cm^3
# Si number density = 22.083852 Si / 1000 Ang^3
#
#
#
# Elastic Constant Matrix: (Units=GPa)
#
#
# Indices 1 2 3 4 5 6 
#
# 1 230.4173 100.0493 9.9912 0.0000 0.0000 0.0000
# 2 100.0493 211.7295 9.3359 0.0000 0.0000 0.0000
# 3 9.9912 9.3359 33.3133 0.0000 0.0000 0.0000
# 4 0.0000 0.0000 0.0000 4.7867 0.0000 0.0000
# 5 0.0000 0.0000 0.0000 0.0000 13.0332 0.0000
# 6 0.0000 0.0000 0.0000 0.0000 0.0000 36.6792
#
#
#
# Elastic Compliance Matrix: (Units=1/GPa)
#
#
# Indices 1 2 3 4 5 6 
#
# 1 0.005489 -0.002553 -0.000931 0.000000 0.000000 0.000000
# 2 -0.002553 0.005969 -0.000907 0.000000 0.000000 0.000000
# 3 -0.000931 -0.000907 0.030551 0.000000 0.000000 0.000000
# 4 0.000000 0.000000 0.000000 0.208911 0.000000 0.000000
# 5 0.000000 0.000000 0.000000 0.000000 0.076727 0.000000
# 6 0.000000 0.000000 0.000000 0.000000 0.000000 0.027263
#
#
# Mechanical properties :
#
#
# Convention : Reuss Voigt Hill
#
# Bulk Modulus (GPa) = 30.09509 79.35702 54.72605
# Shear Modulus (GPa) = 13.34156 34.63873 23.99015
#
# Velocity S-wave (km/s) = 2.46058 3.96474 3.29951
# Velocity P-wave (km/s) = 4.66152 7.54793 6.27300
#
# Compressibility (1/GPa) = 0.03322801
#
# Stress axis : x y z
#
# Youngs Moduli (GPa) = 182.19440 167.52759 32.73169
#
# Poissons Ratio (x) = 0.42762 0.03047
# Poissons Ratio (y) = 0.46506 0.02970
# Poissons Ratio (z) = 0.16959 0.15200
#
# Static dielectric constant tensor:
#      x y z
#    x 1.778190 0.000000 0.000000 
#    y 0.000000 1.840420 0.000000 
#    z 0.000000 0.000000 1.887230 
# 
# From -- ./inp_files/3733.got.cif
#   From: 2010.05.17/outbox.cif.g08.bks.cpg/sg69_2_cif.got.tgz:3733.got - 2010.06.03 19:29:58.
