data_PCOD9511085
_publ_section_title
;
Structure prediction by ZEFSAII (Michael W. Deem and Ramdas Pophale) SiO2 
 PCOD9511085
Probable space group: F M M M
;
_chemical_formula_sum "Si O2"
_cell_formula_units_Z 144
_cell_length_a 24.908976
_cell_length_b 13.478592
_cell_length_c 19.652785
_cell_angle_alpha 90.000000
_cell_angle_beta 90.000000
_cell_angle_gamma 90.000000
_cell_volume 6598.185249
_symmetry_space_group_name_H-M "F M M M"
_symmetry_group_IT_number 69
_symmetry_cell_setting 'orthorhombic'
loop_
_space_group_symop_operation_xyz
x,y,z
-x,-y,z
x,-y,-z
-x,y,-z
-x,-y,-z
x,y,-z
-x,y,z
x,-y,z
x,1/2+y,1/2+z
-x,1/2-y,1/2+z
x,1/2-y,1/2-z
-x,1/2+y,1/2-z
-x,1/2-y,1/2-z
x,1/2+y,1/2-z
-x,1/2+y,1/2+z
x,1/2-y,1/2+z
1/2+x,y,1/2+z
1/2-x,-y,1/2+z
1/2+x,-y,1/2-z
1/2-x,y,1/2-z
1/2-x,-y,1/2-z
1/2+x,y,1/2-z
1/2-x,y,1/2+z
1/2+x,-y,1/2+z
1/2+x,1/2+y,z
1/2-x,1/2-y,z
1/2+x,1/2-y,-z
1/2-x,1/2+y,-z
1/2-x,1/2-y,-z
1/2+x,1/2+y,-z
1/2-x,1/2+y,z
1/2+x,1/2-y,z
loop_
_atom_site_type_symbol
_atom_site_label
_atom_site_fract_x
_atom_site_fract_y
_atom_site_fract_z
Si Si1 0.064225 0.000000 0.575697
Si Si2 0.690560 0.616856 0.923772
Si Si3 0.217587 0.618968 0.179777
Si Si4 0.598182 0.670685 0.673470
Si Si5 0.085019 0.112291 0.171704
O O1 0.083817 0.903870 0.614670
O O2 0.085765 0.000000 0.500000
O O3 0.000000 0.000000 0.575186
O O4 0.698011 0.500000 0.933590
O O5 0.743517 0.645221 0.882266
O O6 0.639431 0.619592 0.873057
O O7 0.682952 0.661378 0.000000
O O8 0.204424 0.500000 0.177629
O O9 0.250000 0.634130 0.250000
O O10 0.162889 0.680717 0.175853
O O11 0.565855 0.773253 0.661396
O O12 0.588092 0.618512 0.746379
O O13 0.063300 0.000000 0.155791
#
# Coordination Sequence:
#
# PCOD9511085 Si02
#       5
#    16  32  32  32  32
#     4  11  26  48  71  98 131 163 208 277 344 390
#     4   9  18  31  49  79 125 169 205 255 310 362
#     4  10  17  30  53  83 121 172 214 264 304 375
#     4  11  21  38  66  90 124 172 221 264 323 389
#     4  10  20  37  61  92 129 166 219 259 316 381
#
# _framework density 21.824182
#
# number of rings (size 3 to 8) (size 9 to 14) (size 15 to 20)
#    0.000    1.889    4.444    0.000    0.000    2.667 
#    0.000    3.333    0.000    0.000    0.000    1.556 
#    0.000    0.000    0.000    0.000    0.000    0.000 
#
# Total GULP energy -200429.793908 kJ/mol
# GULP energy per Si atom -5567.494275 kJ/mol
# Density = 2.177451 g / cm^3
# Si number density = 21.824182 Si / 1000 Ang^3
#
#
#
# Elastic Constant Matrix: (Units=GPa)
#
#
# Indices 1 2 3 4 5 6 
#
# 1 51.9777 20.1477 15.4238 0.0000 0.0000 0.0000
# 2 20.1477 173.3112 57.6651 0.0000 0.0000 0.0000
# 3 15.4238 57.6651 138.3663 0.0000 0.0000 0.0000
# 4 0.0000 0.0000 0.0000 3.0842 0.0000 0.0000
# 5 0.0000 0.0000 0.0000 0.0000 41.2657 0.0000
# 6 0.0000 0.0000 0.0000 0.0000 0.0000 1.4311
#
#
#
# Elastic Compliance Matrix: (Units=1/GPa)
#
#
# Indices 1 2 3 4 5 6 
#
# 1 0.020409 -0.001876 -0.001493 0.000000 0.000000 0.000000
# 2 -0.001876 0.006871 -0.002655 0.000000 0.000000 0.000000
# 3 -0.001493 -0.002655 0.008500 0.000000 0.000000 0.000000
# 4 0.000000 0.000000 0.000000 0.324231 0.000000 0.000000
# 5 0.000000 0.000000 0.000000 0.000000 0.024233 0.000000
# 6 0.000000 0.000000 0.000000 0.000000 0.000000 0.698746
#
#
# Mechanical properties :
#
#
# Convention : Reuss Voigt Hill
#
# Bulk Modulus (GPa) = 42.13501 61.12538 51.63020
# Shear Modulus (GPa) = 4.53330 27.18412 15.85871
#
# Velocity S-wave (km/s) = 1.44281 3.53313 2.69858
# Velocity P-wave (km/s) = 4.70362 6.68677 5.78087
#
# Compressibility (1/GPa) = 0.02373323
#
# Stress axis : x y z
#
# Youngs Moduli (GPa) = 48.99748 145.53356 117.64766
#
# Poissons Ratio (x) = 0.27298 0.17568
# Poissons Ratio (y) = 0.09191 0.31230
# Poissons Ratio (z) = 0.07317 0.38633
#
# Static dielectric constant tensor:
#      x y z
#    x 1.604580 0.000000 0.000000 
#    y 0.000000 1.918290 0.000000 
#    z 0.000000 0.000000 1.808370 
# 
# From -- ./inp_files/27411.got.cif
#   From: 2010.05.17/outbox.cif.g08.bks.cpg/sg69_14_cif.got.tgz:27411.got - 2010.06.03 19:29:58.
