data_PCOD9511227
_publ_section_title
;
Structure prediction by ZEFSAII (Michael W. Deem and Ramdas Pophale) SiO2 
 PCOD9511227
Probable space group: F M M M
;
_chemical_formula_sum "Si O2"
_cell_formula_units_Z 192
_cell_length_a 25.370748
_cell_length_b 14.287944
_cell_length_c 23.216315
_cell_angle_alpha 90.000000
_cell_angle_beta 90.000000
_cell_angle_gamma 90.000000
_cell_volume 8415.817298
_symmetry_space_group_name_H-M "F M M M"
_symmetry_group_IT_number 69
_symmetry_cell_setting 'orthorhombic'
loop_
_space_group_symop_operation_xyz
x,y,z
-x,-y,z
x,-y,-z
-x,y,-z
-x,-y,-z
x,y,-z
-x,y,z
x,-y,z
x,1/2+y,1/2+z
-x,1/2-y,1/2+z
x,1/2-y,1/2-z
-x,1/2+y,1/2-z
-x,1/2-y,1/2-z
x,1/2+y,1/2-z
-x,1/2+y,1/2+z
x,1/2-y,1/2+z
1/2+x,y,1/2+z
1/2-x,-y,1/2+z
1/2+x,-y,1/2-z
1/2-x,y,1/2-z
1/2-x,-y,1/2-z
1/2+x,y,1/2-z
1/2-x,y,1/2+z
1/2+x,-y,1/2+z
1/2+x,1/2+y,z
1/2-x,1/2-y,z
1/2+x,1/2-y,-z
1/2-x,1/2+y,-z
1/2-x,1/2-y,-z
1/2+x,1/2+y,-z
1/2-x,1/2+y,z
1/2+x,1/2-y,z
loop_
_atom_site_type_symbol
_atom_site_label
_atom_site_fract_x
_atom_site_fract_y
_atom_site_fract_z
Si Si1 0.000000 0.115653 0.714762
Si Si2 0.686425 0.385326 0.433579
Si Si3 0.308696 0.359809 0.237184
Si Si4 0.108754 0.893292 0.664226
Si Si5 0.697411 0.389453 0.103301
Si Si6 0.587198 0.614357 0.062569
Si Si7 0.000000 0.614425 0.347625
O O1 0.053127 0.148469 0.683274
O O2 0.000000 0.144484 0.781553
O O3 0.000000 0.000000 0.715198
O O4 0.678203 0.359207 0.500000
O O5 0.685996 0.500000 0.431116
O O6 0.642638 0.351546 0.388081
O O7 0.744328 0.354283 0.411903
O O8 0.307927 0.250000 0.250000
O O9 0.250000 0.396610 0.250000
O O10 0.353095 0.397000 0.280024
O O11 0.317205 0.376988 0.170117
O O12 0.096913 0.000000 0.646801
O O13 0.700293 0.500000 0.091344
O O14 0.647511 0.353530 0.068195
O O15 0.587403 0.500000 0.064082
O O16 0.550924 0.644091 0.115556
O O17 0.565933 0.642120 0.000000
O O18 0.000000 0.500000 0.346769
#
# Coordination Sequence:
#
# PCOD9511227 Si02
#       7
#    16  32  32  32  32  32  16
#     4   9  18  31  50  78 105 131 170 219 256 294
#     4   9  17  29  48  75 103 130 165 212 259 303
#     4  11  22  34  50  75 107 137 167 214 260 301
#     4  10  19  34  55  77 103 134 171 210 255 309
#     4  10  18  30  50  74 101 135 172 208 254 308
#     4   9  16  25  41  68 100 133 168 204 241 291
#     4   9  15  24  37  60 100 138 163 197 249 295
#
# _framework density 22.814183
#
# number of rings (size 3 to 8) (size 9 to 14) (size 15 to 20)
#    0.000    2.333    1.667    2.250    0.000    6.333 
#    0.000    0.833    0.000    5.500    0.000    0.000 
#    0.000    0.000    0.000    0.000    0.000    0.000 
#
# Total GULP energy -268283.656072 kJ/mol
# GULP energy per Si atom -5589.242835 kJ/mol
# Density = 2.276226 g / cm^3
# Si number density = 22.814183 Si / 1000 Ang^3
#
#
#
# Elastic Constant Matrix: (Units=GPa)
#
#
# Indices 1 2 3 4 5 6 
#
# 1 206.0005 9.7876 112.6899 0.0000 0.0000 0.0000
# 2 9.7876 71.3707 4.5790 0.0000 0.0000 0.0000
# 3 112.6899 4.5790 185.2914 0.0000 0.0000 0.0000
# 4 0.0000 0.0000 0.0000 0.4216 0.0000 0.0000
# 5 0.0000 0.0000 0.0000 0.0000 20.9144 0.0000
# 6 0.0000 0.0000 0.0000 0.0000 0.0000 -6.1272
#
#
#
# Elastic Compliance Matrix: (Units=1/GPa)
#
#
# Indices 1 2 3 4 5 6 
#
# 1 0.007311 -0.000718 -0.004429 0.000000 0.000000 0.000000
# 2 -0.000718 0.014104 0.000088 0.000000 0.000000 0.000000
# 3 -0.004429 0.000088 0.008088 0.000000 0.000000 0.000000
# 4 0.000000 0.000000 0.000000 2.371885 0.000000 0.000000
# 5 0.000000 0.000000 0.000000 0.000000 0.047814 0.000000
# 6 0.000000 0.000000 0.000000 0.000000 0.000000 -0.163206
#
#
# Mechanical properties :
#
#
# Convention : Reuss Voigt Hill
#
# Bulk Modulus (GPa) = 51.58377 79.64175 65.61276
# Shear Modulus (GPa) = 2.17148 25.41550 13.79349
#
# Velocity S-wave (km/s) = 0.97667 3.34132 2.46153
# Velocity P-wave (km/s) = 4.89196 7.06191 6.07461
#
# Compressibility (1/GPa) = 0.01938594
#
# Stress axis : x y z
#
# Youngs Moduli (GPa) = 136.77693 70.90079 123.63736
#
# Poissons Ratio (x) = 0.05094 0.54756
# Poissons Ratio (y) = 0.09827 -0.01093
# Poissons Ratio (z) = 0.60575 -0.00627
#
# Static dielectric constant tensor:
#      x y z
#    x 1.844980 0.000000 0.000000 
#    y 0.000000 1.847560 0.000000 
#    z 0.000000 0.000000 1.816730 
# 
# From -- ./inp_files/38377.got.cif
#   From: 2010.05.17/outbox.cif.g08.bks.cpg/sg69_20_cif.got.tgz:38377.got - 2010.06.03 19:29:58.
