data_PCOD9511156
_publ_section_title
;
Structure prediction by ZEFSAII (Michael W. Deem and Ramdas Pophale) SiO2 
 PCOD9511156
Probable space group: F M M M
;
_chemical_formula_sum "Si O2"
_cell_formula_units_Z 120
_cell_length_a 27.555180
_cell_length_b 14.300611
_cell_length_c 16.692085
_cell_angle_alpha 90.000000
_cell_angle_beta 90.000000
_cell_angle_gamma 90.000000
_cell_volume 6577.614748
_symmetry_space_group_name_H-M "F M M M"
_symmetry_group_IT_number 69
_symmetry_cell_setting 'orthorhombic'
loop_
_space_group_symop_operation_xyz
x,y,z
-x,-y,z
x,-y,-z
-x,y,-z
-x,-y,-z
x,y,-z
-x,y,z
x,-y,z
x,1/2+y,1/2+z
-x,1/2-y,1/2+z
x,1/2-y,1/2-z
-x,1/2+y,1/2-z
-x,1/2-y,1/2-z
x,1/2+y,1/2-z
-x,1/2+y,1/2+z
x,1/2-y,1/2+z
1/2+x,y,1/2+z
1/2-x,-y,1/2+z
1/2+x,-y,1/2-z
1/2-x,y,1/2-z
1/2-x,-y,1/2-z
1/2+x,y,1/2-z
1/2-x,y,1/2+z
1/2+x,-y,1/2+z
1/2+x,1/2+y,z
1/2-x,1/2-y,z
1/2+x,1/2-y,-z
1/2-x,1/2+y,-z
1/2-x,1/2-y,-z
1/2+x,1/2+y,-z
1/2-x,1/2+y,z
1/2+x,1/2-y,z
loop_
_atom_site_type_symbol
_atom_site_label
_atom_site_fract_x
_atom_site_fract_y
_atom_site_fract_z
Si Si1 0.000000 0.212256 0.844166
Si Si2 0.500000 0.500000 0.810502
Si Si3 0.703250 0.689470 0.405175
Si Si4 0.402944 0.500000 0.295228
Si Si5 0.297036 0.500000 0.303966
Si Si6 0.601003 0.711099 0.658412
O O1 0.000000 0.250000 0.750000
O O2 0.000000 0.100666 0.851766
O O3 0.051051 0.249157 0.877081
O O4 0.450206 0.500000 0.759761
O O5 0.705957 0.673930 0.500000
O O6 0.750000 0.750000 0.380539
O O7 0.704036 0.591999 0.358424
O O8 0.651459 0.736051 0.384024
O O9 0.348751 0.500000 0.257194
O O10 0.404406 0.598382 0.341658
O O11 0.250000 0.500000 0.250000
O O12 0.604586 0.750000 0.750000
#
# Coordination Sequence:
#
# PCOD9511156 Si02
#       6
#    16   8  32  16  16  32
#     4  10  18  28  49  80 109 140 173 231 275 327
#     4  12  16  28  46  74 122 134 168 216 300 310
#     4  10  23  39  56  78 114 151 183 229 286 336
#     4  10  18  29  47  79 105 139 165 221 280 317
#     4  10  23  35  58  86 109 142 190 233 276 328
#     4  10  19  32  53  80 108 137 186 227 274 331
#
# _framework density 18.243694999999999
#
# number of rings (size 3 to 8) (size 9 to 14) (size 15 to 20)
#    0.000    1.867    5.333    0.400    7.467    0.000 
#    0.000    0.667    0.000    0.000    0.000   10.267 
#    0.000    0.000    0.000    0.000    0.000    0.000 
#
# Total GULP energy -167099.772842 kJ/mol
# GULP energy per Si atom -5569.992428 kJ/mol
# Density = 1.820217 g / cm^3
# Si number density = 18.243695 Si / 1000 Ang^3
#
#
#
# Elastic Constant Matrix: (Units=GPa)
#
#
# Indices 1 2 3 4 5 6 
#
# 1 230.3982 68.1719 31.2810 0.0000 0.0000 0.0000
# 2 68.1719 116.0314 10.5537 0.0000 0.0000 0.0000
# 3 31.2810 10.5537 23.9297 0.0000 0.0000 0.0000
# 4 0.0000 0.0000 0.0000 20.9766 0.0000 0.0000
# 5 0.0000 0.0000 0.0000 0.0000 11.0861 0.0000
# 6 0.0000 0.0000 0.0000 0.0000 0.0000 82.5198
#
#
#
# Elastic Compliance Matrix: (Units=1/GPa)
#
#
# Indices 1 2 3 4 5 6 
#
# 1 0.006136 -0.002996 -0.006700 0.000000 0.000000 0.000000
# 2 -0.002996 0.010441 -0.000689 0.000000 0.000000 0.000000
# 3 -0.006700 -0.000689 0.050851 0.000000 0.000000 0.000000
# 4 0.000000 0.000000 0.000000 0.047672 0.000000 0.000000
# 5 0.000000 0.000000 0.000000 0.000000 0.090203 0.000000
# 6 0.000000 0.000000 0.000000 0.000000 0.000000 0.012118
#
#
# Mechanical properties :
#
#
# Convention : Reuss Voigt Hill
#
# Bulk Modulus (GPa) = 21.43193 65.59697 43.51445
# Shear Modulus (GPa) = 19.70477 40.27333 29.98905
#
# Velocity S-wave (km/s) = 3.29003 4.70352 4.05878
# Velocity P-wave (km/s) = 5.11913 8.09515 6.77263
#
# Compressibility (1/GPa) = 0.04665935
#
# Stress axis : x y z
#
# Youngs Moduli (GPa) = 162.96019 95.77456 19.66515
#
# Poissons Ratio (x) = 0.28693 0.13176
# Poissons Ratio (y) = 0.48822 0.01354
# Poissons Ratio (z) = 1.09188 0.06595
#
# Static dielectric constant tensor:
#      x y z
#    x 1.665620 0.000000 0.000000 
#    y 0.000000 1.457470 0.000000 
#    z 0.000000 0.000000 1.605940 
# 
# From -- ./inp_files/32462.got.cif
#   From: 2010.05.17/outbox.cif.g08.bks.cpg/sg69_17_cif.got.tgz:32462.got - 2010.06.03 19:29:58.
