data_PCOD9511586
_publ_section_title
;
Structure prediction by ZEFSAII (Michael W. Deem and Ramdas Pophale) SiO2 
 PCOD9511586
Probable space group: F M M M
;
_chemical_formula_sum "Si O2"
_cell_formula_units_Z 208
_cell_length_a 17.426402
_cell_length_b 23.456858
_cell_length_c 25.758281
_cell_angle_alpha 90.000000
_cell_angle_beta 90.000000
_cell_angle_gamma 90.000000
_cell_volume 10529.177420
_symmetry_space_group_name_H-M "F M M M"
_symmetry_group_IT_number 69
_symmetry_cell_setting 'orthorhombic'
loop_
_space_group_symop_operation_xyz
x,y,z
-x,-y,z
x,-y,-z
-x,y,-z
-x,-y,-z
x,y,-z
-x,y,z
x,-y,z
x,1/2+y,1/2+z
-x,1/2-y,1/2+z
x,1/2-y,1/2-z
-x,1/2+y,1/2-z
-x,1/2-y,1/2-z
x,1/2+y,1/2-z
-x,1/2+y,1/2+z
x,1/2-y,1/2+z
1/2+x,y,1/2+z
1/2-x,-y,1/2+z
1/2+x,-y,1/2-z
1/2-x,y,1/2-z
1/2-x,-y,1/2-z
1/2+x,y,1/2-z
1/2-x,y,1/2+z
1/2+x,-y,1/2+z
1/2+x,1/2+y,z
1/2-x,1/2-y,z
1/2+x,1/2-y,-z
1/2-x,1/2+y,-z
1/2-x,1/2-y,-z
1/2+x,1/2+y,-z
1/2-x,1/2+y,z
1/2+x,1/2-y,z
loop_
_atom_site_type_symbol
_atom_site_label
_atom_site_fract_x
_atom_site_fract_y
_atom_site_fract_z
Si Si1 0.673545 0.784159 0.849870
Si Si2 0.862967 0.876986 0.059395
Si Si3 0.089423 0.825078 0.838026
Si Si4 0.715264 0.435290 0.415210
Si Si5 0.590816 0.646576 0.440031
Si Si6 0.760358 0.390383 0.306698
Si Si7 0.909617 0.000000 0.941237
O O1 0.750000 0.750000 0.866746
O O2 0.617218 0.738381 0.823663
O O3 0.630946 0.811964 0.898654
O O4 0.706112 0.834183 0.813100
O O5 0.895293 0.831602 0.099595
O O6 0.771620 0.886972 0.060554
O O7 0.888243 0.939152 0.081351
O O8 0.889211 0.869569 0.000000
O O9 0.152134 0.868752 0.814709
O O10 0.000000 0.835414 0.826897
O O11 0.730574 0.500000 0.432464
O O12 0.630753 0.414520 0.429473
O O13 0.733621 0.429842 0.354107
O O14 0.604243 0.662989 0.500000
O O15 0.500000 0.645072 0.431225
O O16 0.750000 0.415411 0.250000
O O17 0.000000 0.000000 0.944552
O O18 0.877713 0.000000 0.000000
#
# Coordination Sequence:
#
# PCOD9511586 Si02
#       7
#    32  32  32  32  32  32  16
#     4   9  19  35  55  78 105 140 177 217 265 325
#     4  10  19  31  49  76 110 145 176 208 252 313
#     4  10  20  33  52  80 111 139 173 216 260 313
#     4  10  20  35  56  79 102 135 181 224 263 317
#     4  10  21  35  51  75 110 147 182 225 269 304
#     4   9  20  39  58  77 103 134 172 221 274 327
#     4   9  16  26  42  66  98 135 171 203 243 296
#
# _framework density 19.754629999999999
#
# number of rings (size 3 to 8) (size 9 to 14) (size 15 to 20)
#    0.000    2.385    0.769    2.308    0.000    6.154 
#    0.000    5.385    0.000    0.000    0.000    0.000 
#    0.000    0.000    0.000    0.000    0.000    0.000 
#
# Total GULP energy -289869.403686 kJ/mol
# GULP energy per Si atom -5574.411609 kJ/mol
# Density = 1.970967 g / cm^3
# Si number density = 19.754630 Si / 1000 Ang^3
#
#
#
# Elastic Constant Matrix: (Units=GPa)
#
#
# Indices 1 2 3 4 5 6 
#
# 1 94.1667 -2.3126 14.1844 0.0000 0.0000 0.0000
# 2 -2.3126 34.2110 -16.9762 0.0000 0.0000 0.0000
# 3 14.1844 -16.9762 72.1667 0.0000 0.0000 0.0000
# 4 0.0000 0.0000 0.0000 0.1912 0.0000 0.0000
# 5 0.0000 0.0000 0.0000 0.0000 12.5946 0.0000
# 6 0.0000 0.0000 0.0000 0.0000 0.0000 15.2171
#
#
#
# Elastic Compliance Matrix: (Units=1/GPa)
#
#
# Indices 1 2 3 4 5 6 
#
# 1 0.010948 -0.000371 -0.002239 0.000000 0.000000 0.000000
# 2 -0.000371 0.033106 0.007861 0.000000 0.000000 0.000000
# 3 -0.002239 0.007861 0.016146 0.000000 0.000000 0.000000
# 4 0.000000 0.000000 0.000000 5.230351 0.000000 0.000000
# 5 0.000000 0.000000 0.000000 0.000000 0.079399 0.000000
# 6 0.000000 0.000000 0.000000 0.000000 0.000000 0.065716
#
#
# Mechanical properties :
#
#
# Convention : Reuss Voigt Hill
#
# Bulk Modulus (GPa) = 14.14416 21.14840 17.64628
# Shear Modulus (GPa) = 0.91764 19.31049 10.11407
#
# Velocity S-wave (km/s) = 0.68230 3.12992 2.26516
# Velocity P-wave (km/s) = 2.79216 4.87756 3.97409
#
# Compressibility (1/GPa) = 0.07070057
#
# Stress axis : x y z
#
# Youngs Moduli (GPa) = 91.34402 30.20613 61.93494
#
# Poissons Ratio (x) = 0.01121 0.13867
# Poissons Ratio (y) = 0.03389 -0.48685
# Poissons Ratio (z) = 0.20452 -0.23744
#
# Static dielectric constant tensor:
#      x y z
#    x 1.736610 0.000000 0.000000 
#    y 0.000000 1.740540 0.000000 
#    z 0.000000 0.000000 1.702230 
# 
# From -- ./inp_files/42217.got.cif
#   From: 2010.05.17/outbox.cif.g08.bks.cpg/sg69_22_cif.got.tgz:42217.got - 2010.06.03 19:29:58.
