data_PCOD9511168
_publ_section_title
;
Structure prediction by ZEFSAII (Michael W. Deem and Ramdas Pophale) SiO2 
 PCOD9511168
Probable space group: F M M M
;
_chemical_formula_sum "Si O2"
_cell_formula_units_Z 192
_cell_length_a 16.561645
_cell_length_b 29.153048
_cell_length_c 23.946378
_cell_angle_alpha 90.000000
_cell_angle_beta 90.000000
_cell_angle_gamma 90.000000
_cell_volume 11561.848455
_symmetry_space_group_name_H-M "F M M M"
_symmetry_group_IT_number 69
_symmetry_cell_setting 'orthorhombic'
loop_
_space_group_symop_operation_xyz
x,y,z
-x,-y,z
x,-y,-z
-x,y,-z
-x,-y,-z
x,y,-z
-x,y,z
x,-y,z
x,1/2+y,1/2+z
-x,1/2-y,1/2+z
x,1/2-y,1/2-z
-x,1/2+y,1/2-z
-x,1/2-y,1/2-z
x,1/2+y,1/2-z
-x,1/2+y,1/2+z
x,1/2-y,1/2+z
1/2+x,y,1/2+z
1/2-x,-y,1/2+z
1/2+x,-y,1/2-z
1/2-x,y,1/2-z
1/2-x,-y,1/2-z
1/2+x,y,1/2-z
1/2-x,y,1/2+z
1/2+x,-y,1/2+z
1/2+x,1/2+y,z
1/2-x,1/2-y,z
1/2+x,1/2-y,-z
1/2-x,1/2+y,-z
1/2-x,1/2-y,-z
1/2+x,1/2+y,-z
1/2-x,1/2+y,z
1/2+x,1/2-y,z
loop_
_atom_site_type_symbol
_atom_site_label
_atom_site_fract_x
_atom_site_fract_y
_atom_site_fract_z
Si Si1 0.212767 0.700125 0.877973
Si Si2 0.814764 0.637624 0.300697
Si Si3 0.402452 0.948364 0.852372
Si Si4 0.412739 0.200355 0.222930
Si Si5 0.595967 0.366422 0.435653
Si Si6 0.903980 0.446580 0.278064
O O1 0.250000 0.750000 0.891749
O O2 0.280266 0.665426 0.853260
O O3 0.153043 0.704402 0.825020
O O4 0.156225 0.675825 0.923780
O O5 0.750000 0.635071 0.250000
O O6 0.886611 0.665799 0.271312
O O7 0.848887 0.587492 0.313245
O O8 0.500000 0.950189 0.855001
O O9 0.378869 0.907262 0.893302
O O10 0.382979 0.938581 0.787597
O O11 0.373144 0.000000 0.866401
O O12 0.500000 0.186254 0.200044
O O13 0.417383 0.250000 0.250000
O O14 0.603103 0.381208 0.500000
O O15 0.500000 0.355917 0.426493
O O16 0.889537 0.500000 0.289668
O O17 0.000000 0.438047 0.284600
#
# Coordination Sequence:
#
# PCOD9511168 Si02
#       6
#    32  32  32  32  32  32
#     4  11  21  34  47  67  99 128 160 201 242 282
#     4  10  19  28  44  67  98 130 156 194 232 281
#     4   8  14  27  48  72  95 119 149 188 231 274
#     4  10  18  29  47  69  93 124 159 193 228 271
#     4  10  21  36  53  71  90 119 161 204 246 290
#     4   9  17  30  47  69 100 135 166 190 221 275
#
# _framework density 16.606342000000001
#
# number of rings (size 3 to 8) (size 9 to 14) (size 15 to 20)
#    0.000    2.333    1.667    4.000    0.000    2.333 
#    0.000    2.500    0.000    0.000    0.000    0.000 
#    0.000    0.000    0.000    1.833    0.000    0.000 
#
# Total GULP energy -267482.777307 kJ/mol
# GULP energy per Si atom -5572.557861 kJ/mol
# Density = 1.656854 g / cm^3
# Si number density = 16.606342 Si / 1000 Ang^3
#
#
#
# Elastic Constant Matrix: (Units=GPa)
#
#
# Indices 1 2 3 4 5 6 
#
# 1 48.8463 50.1029 9.7311 0.0000 0.0000 0.0000
# 2 50.1029 105.9528 24.8228 0.0000 0.0000 0.0000
# 3 9.7311 24.8228 22.9182 0.0000 0.0000 0.0000
# 4 0.0000 0.0000 0.0000 16.6918 0.0000 0.0000
# 5 0.0000 0.0000 0.0000 0.0000 11.6577 0.0000
# 6 0.0000 0.0000 0.0000 0.0000 0.0000 33.5243
#
#
#
# Elastic Compliance Matrix: (Units=1/GPa)
#
#
# Indices 1 2 3 4 5 6 
#
# 1 0.040131 -0.020081 0.004710 0.000000 0.000000 0.000000
# 2 -0.020081 0.022695 -0.016055 0.000000 0.000000 0.000000
# 3 0.004710 -0.016055 0.059023 0.000000 0.000000 0.000000
# 4 0.000000 0.000000 0.000000 0.059910 0.000000 0.000000
# 5 0.000000 0.000000 0.000000 0.000000 0.085780 0.000000
# 6 0.000000 0.000000 0.000000 0.000000 0.000000 0.029829
#
#
# Mechanical properties :
#
#
# Convention : Reuss Voigt Hill
#
# Bulk Modulus (GPa) = 16.94989 38.55901 27.75445
# Shear Modulus (GPa) = 13.16182 18.57880 15.87031
#
# Velocity S-wave (km/s) = 2.81833 3.34844 3.09476
# Velocity P-wave (km/s) = 4.56286 6.18217 5.43318
#
# Compressibility (1/GPa) = 0.05899742
#
# Stress axis : x y z
#
# Youngs Moduli (GPa) = 24.91812 44.06195 16.94252
#
# Poissons Ratio (x) = 0.88479 -0.07979
# Poissons Ratio (y) = 0.50037 0.27201
# Poissons Ratio (z) = -0.11735 0.70742
#
# Static dielectric constant tensor:
#      x y z
#    x 1.604720 0.000000 0.000000 
#    y 0.000000 1.602710 0.000000 
#    z 0.000000 0.000000 1.526230 
# 
# From -- ./inp_files/45961.got.cif
#   From: 2010.05.17/outbox.cif.g08.bks.cpg/sg69_23_cif.got.tgz:45961.got - 2010.06.03 19:29:58.
