data_PCOD9511393
_publ_section_title
;
Structure prediction by ZEFSAII (Michael W. Deem and Ramdas Pophale) SiO2 
 PCOD9511393
Probable space group: F M M M
;
_chemical_formula_sum "Si O2"
_cell_formula_units_Z 176
_cell_length_a 16.272440
_cell_length_b 17.364590
_cell_length_c 29.693605
_cell_angle_alpha 90.000000
_cell_angle_beta 90.000000
_cell_angle_gamma 90.000000
_cell_volume 8390.351194
_symmetry_space_group_name_H-M "F M M M"
_symmetry_group_IT_number 69
_symmetry_cell_setting 'orthorhombic'
loop_
_space_group_symop_operation_xyz
x,y,z
-x,-y,z
x,-y,-z
-x,y,-z
-x,-y,-z
x,y,-z
-x,y,z
x,-y,z
x,1/2+y,1/2+z
-x,1/2-y,1/2+z
x,1/2-y,1/2-z
-x,1/2+y,1/2-z
-x,1/2-y,1/2-z
x,1/2+y,1/2-z
-x,1/2+y,1/2+z
x,1/2-y,1/2+z
1/2+x,y,1/2+z
1/2-x,-y,1/2+z
1/2+x,-y,1/2-z
1/2-x,y,1/2-z
1/2-x,-y,1/2-z
1/2+x,y,1/2-z
1/2-x,y,1/2+z
1/2+x,-y,1/2+z
1/2+x,1/2+y,z
1/2-x,1/2-y,z
1/2+x,1/2-y,-z
1/2-x,1/2+y,-z
1/2-x,1/2-y,-z
1/2+x,1/2+y,-z
1/2-x,1/2+y,z
1/2+x,1/2-y,z
loop_
_atom_site_type_symbol
_atom_site_label
_atom_site_fract_x
_atom_site_fract_y
_atom_site_fract_z
Si Si1 0.332847 0.911347 0.095019
Si Si2 0.099071 0.087793 0.782777
Si Si3 0.590945 0.781131 0.147775
Si Si4 0.122718 0.750000 0.750000
Si Si5 0.648104 0.127653 0.383427
Si Si6 0.000000 0.092275 0.949219
Si Si7 0.095539 0.093806 0.500000
O O1 0.378169 0.863955 0.133677
O O2 0.235759 0.903911 0.102123
O O3 0.360555 0.880727 0.045999
O O4 0.357376 0.000000 0.097557
O O5 0.149871 0.160183 0.761682
O O6 0.116220 0.091323 0.836411
O O7 0.000000 0.101656 0.775561
O O8 0.117456 0.000000 0.767135
O O9 0.500000 0.766895 0.129147
O O10 0.586603 0.768104 0.201027
O O11 0.651999 0.718297 0.127357
O O12 0.580666 0.115185 0.421607
O O13 0.000000 0.000000 0.951421
O O14 0.000000 0.123462 0.000000
O O15 0.000000 0.116517 0.500000
O O16 0.098813 0.000000 0.500000
#
# Coordination Sequence:
#
# PCOD9511393 Si02
#       7
#    32  32  32  16  32  16  16
#     4  11  24  40  64  94 127 166 213 267 316 372
#     4  10  18  32  58  86 119 166 207 250 314 381
#     4  11  22  42  65  90 125 170 210 261 320 377
#     4  10  21  38  63  92 123 155 216 273 312 375
#     4  11  21  41  59  91 129 165 207 254 317 382
#     4  11  22  36  62  93 125 163 205 258 312 372
#     4   9  20  42  65  89 123 169 216 256 306 370
#
# _framework density 20.976476000000002
#
# number of rings (size 3 to 8) (size 9 to 14) (size 15 to 20)
#    0.000    1.455    1.818    5.455    1.273    1.818 
#    1.636    8.182    0.000    5.455    0.000    0.000 
#    0.000    0.000    0.000    0.000    0.000    0.000 
#
# Total GULP energy -245205.602867 kJ/mol
# GULP energy per Si atom -5572.854611 kJ/mol
# Density = 2.092873 g / cm^3
# Si number density = 20.976476 Si / 1000 Ang^3
#
#
#
# Elastic Constant Matrix: (Units=GPa)
#
#
# Indices 1 2 3 4 5 6 
#
# 1 54.3728 19.3293 25.5008 0.0000 0.0000 0.0000
# 2 19.3293 125.2815 47.2404 0.0000 0.0000 0.0000
# 3 25.5008 47.2404 87.0619 0.0000 0.0000 0.0000
# 4 0.0000 0.0000 0.0000 26.4519 0.0000 0.0000
# 5 0.0000 0.0000 0.0000 0.0000 22.9974 0.0000
# 6 0.0000 0.0000 0.0000 0.0000 0.0000 16.7864
#
#
#
# Elastic Compliance Matrix: (Units=1/GPa)
#
#
# Indices 1 2 3 4 5 6 
#
# 1 0.021459 -0.001183 -0.005644 0.000000 0.000000 0.000000
# 2 -0.001183 0.010100 -0.005134 0.000000 0.000000 0.000000
# 3 -0.005644 -0.005134 0.015925 0.000000 0.000000 0.000000
# 4 0.000000 0.000000 0.000000 0.037804 0.000000 0.000000
# 5 0.000000 0.000000 0.000000 0.000000 0.043483 0.000000
# 6 0.000000 0.000000 0.000000 0.000000 0.000000 0.059572
#
#
# Mechanical properties :
#
#
# Convention : Reuss Voigt Hill
#
# Bulk Modulus (GPa) = 42.43901 50.09524 46.26712
# Shear Modulus (GPa) = 22.71493 24.89018 23.80255
#
# Velocity S-wave (km/s) = 3.29428 3.44841 3.37222
# Velocity P-wave (km/s) = 5.89452 6.30784 6.10468
#
# Compressibility (1/GPa) = 0.02356323
#
# Stress axis : x y z
#
# Youngs Moduli (GPa) = 46.60072 99.00542 62.79460
#
# Poissons Ratio (x) = 0.11710 0.35439
# Poissons Ratio (y) = 0.05512 0.32240
# Poissons Ratio (z) = 0.26300 0.50831
#
# Static dielectric constant tensor:
#      x y z
#    x 1.724770 0.000000 0.000000 
#    y 0.000000 1.810080 0.000000 
#    z 0.000000 0.000000 1.733330 
# 
# From -- ./inp_files/41912.got.cif
#   From: 2010.05.17/outbox.cif.g08.bks.cpg/sg69_21_cif.got.tgz:41912.got - 2010.06.03 19:29:58.
