data_PCOD9511544
_publ_section_title
;
Structure prediction by ZEFSAII (Michael W. Deem and Ramdas Pophale) SiO2 
 PCOD9511544
Probable space group: F M M M
;
_chemical_formula_sum "Si O2"
_cell_formula_units_Z 88
_cell_length_a 33.420725
_cell_length_b 24.655186
_cell_length_c 5.420756
_cell_angle_alpha 90.000000
_cell_angle_beta 90.000000
_cell_angle_gamma 90.000000
_cell_volume 4466.671456
_symmetry_space_group_name_H-M "F M M M"
_symmetry_group_IT_number 69
_symmetry_cell_setting 'orthorhombic'
loop_
_space_group_symop_operation_xyz
x,y,z
-x,-y,z
x,-y,-z
-x,y,-z
-x,-y,-z
x,y,-z
-x,y,z
x,-y,z
x,1/2+y,1/2+z
-x,1/2-y,1/2+z
x,1/2-y,1/2-z
-x,1/2+y,1/2-z
-x,1/2-y,1/2-z
x,1/2+y,1/2-z
-x,1/2+y,1/2+z
x,1/2-y,1/2+z
1/2+x,y,1/2+z
1/2-x,-y,1/2+z
1/2+x,-y,1/2-z
1/2-x,y,1/2-z
1/2-x,-y,1/2-z
1/2+x,y,1/2-z
1/2-x,y,1/2+z
1/2+x,-y,1/2+z
1/2+x,1/2+y,z
1/2-x,1/2-y,z
1/2+x,1/2-y,-z
1/2-x,1/2+y,-z
1/2-x,1/2-y,-z
1/2+x,1/2+y,-z
1/2-x,1/2+y,z
1/2+x,1/2-y,z
loop_
_atom_site_type_symbol
_atom_site_label
_atom_site_fract_x
_atom_site_fract_y
_atom_site_fract_z
Si Si1 0.569186 0.624746 0.000000
Si Si2 0.340326 0.397308 0.000000
Si Si3 0.759163 0.661771 0.500000
Si Si4 0.500000 0.785630 0.500000
Si Si5 0.548007 0.938647 0.000000
Si Si6 0.305079 0.438822 0.500000
O O1 0.616906 0.631363 0.000000
O O2 0.539536 0.676210 0.000000
O O3 0.560168 0.591439 0.750454
O O4 0.305056 0.353941 0.000000
O O5 0.331625 0.430305 0.747029
O O6 0.750000 0.690870 0.750000
O O7 0.730453 0.606729 0.500000
O O8 0.500000 0.750000 0.750000
O O9 0.500000 0.940567 0.000000
O O10 0.563895 0.000000 0.000000
O O11 0.288412 0.500000 0.500000
#
# Coordination Sequence:
#
# PCOD9511544 Si02
#       6
#    16  16  16   8  16  16
#     4  12  23  41  61  87 117 147 195 253 289 349
#     4  10  21  31  48  73 104 140 184 230 279 316
#     4   8  16  29  43  65  99 143 186 221 262 313
#     4  12  26  46  69  88 107 142 192 250 326 380
#     4  11  22  38  58  82 116 159 191 219 276 348
#     4  10  19  31  46  71 112 157 197 229 259 310
#
# _framework density 19.701471000000002
#
# number of rings (size 3 to 8) (size 9 to 14) (size 15 to 20)
#    0.000    1.636    1.818    3.273    0.000   12.364 
#    0.000    0.000    0.000    0.000    0.000    0.000 
#    0.000   39.273    0.000    0.000    0.000    0.000 
#
# Total GULP energy -122723.310623 kJ/mol
# GULP energy per Si atom -5578.332301 kJ/mol
# Density = 1.965663 g / cm^3
# Si number density = 19.701471 Si / 1000 Ang^3
#
#
#
# Elastic Constant Matrix: (Units=GPa)
#
#
# Indices 1 2 3 4 5 6 
#
# 1 150.8568 58.5504 53.3472 0.0187 -0.0072 0.0009
# 2 58.5504 124.7232 68.0680 0.1535 -0.0083 0.0018
# 3 53.3472 68.0680 229.1994 0.3361 -0.0337 0.0061
# 4 0.0187 0.1535 0.3361 51.2829 -0.1210 0.0297
# 5 -0.0072 -0.0083 -0.0337 -0.1210 33.6528 0.0036
# 6 0.0009 0.0018 0.0061 0.0297 0.0036 -4.5867
#
#
#
# Elastic Compliance Matrix: (Units=1/GPa)
#
#
# Indices 1 2 3 4 5 6 
#
# 1 0.008265 -0.003378 -0.000921 0.000013 0.000000 -0.000001
# 2 -0.003378 0.010949 -0.002465 -0.000015 -0.000001 0.000000
# 3 -0.000921 -0.002465 0.005310 -0.000027 0.000004 0.000006
# 4 0.000013 -0.000015 -0.000027 0.019500 0.000070 0.000126
# 5 0.000000 -0.000001 0.000004 0.000070 0.029715 0.000024
# 6 -0.000001 0.000000 0.000006 0.000126 0.000024 -0.218020
#
#
# Mechanical properties :
#
#
# Convention : Reuss Voigt Hill
#
# Bulk Modulus (GPa) = 90.94060 96.07896 93.50978
# Shear Modulus (GPa) = -39.34287 37.72405 -0.80941
#
# Velocity S-wave (km/s) = -4.47357 4.38057 -0.64166
# Velocity P-wave (km/s) = 4.42444 8.62897 6.85692
#
# Compressibility (1/GPa) = 0.01099619
#
# Stress axis : x y z
#
# Youngs Moduli (GPa) = 120.98751 91.33343 188.34005
#
# Poissons Ratio (x) = 0.30849 0.17341
# Poissons Ratio (y) = 0.40865 0.46434
# Poissons Ratio (z) = 0.11140 0.22518
#
# Static dielectric constant tensor:
#      x y z
#    x 1.679010 -0.000010 -0.000020 
#    y -0.000010 1.677570 -0.000060 
#    z -0.000020 -0.000060 1.728610 
# 
# From -- ./inp_files/831.got.cif
#   From: 2010.05.17/outbox.cif.g08.bks.cpg/sg69_1_cif.got.tgz:831.got - 2010.06.03 19:29:58.
