data_PCOD9511601
_publ_section_title
;
Structure prediction by ZEFSAII (Michael W. Deem and Ramdas Pophale) SiO2 
 PCOD9511601
Probable space group: F M M M
;
_chemical_formula_sum "Si O2"
_cell_formula_units_Z 192
_cell_length_a 18.188526
_cell_length_b 31.778233
_cell_length_c 15.440035
_cell_angle_alpha 90.000000
_cell_angle_beta 90.000000
_cell_angle_gamma 90.000000
_cell_volume 8924.328143
_symmetry_space_group_name_H-M "F M M M"
_symmetry_group_IT_number 69
_symmetry_cell_setting 'orthorhombic'
loop_
_space_group_symop_operation_xyz
x,y,z
-x,-y,z
x,-y,-z
-x,y,-z
-x,-y,-z
x,y,-z
-x,y,z
x,-y,z
x,1/2+y,1/2+z
-x,1/2-y,1/2+z
x,1/2-y,1/2-z
-x,1/2+y,1/2-z
-x,1/2-y,1/2-z
x,1/2+y,1/2-z
-x,1/2+y,1/2+z
x,1/2-y,1/2+z
1/2+x,y,1/2+z
1/2-x,-y,1/2+z
1/2+x,-y,1/2-z
1/2-x,y,1/2-z
1/2-x,-y,1/2-z
1/2+x,y,1/2-z
1/2-x,y,1/2+z
1/2+x,-y,1/2+z
1/2+x,1/2+y,z
1/2-x,1/2-y,z
1/2+x,1/2-y,-z
1/2-x,1/2+y,-z
1/2-x,1/2-y,-z
1/2+x,1/2+y,-z
1/2-x,1/2+y,z
1/2+x,1/2-y,z
loop_
_atom_site_type_symbol
_atom_site_label
_atom_site_fract_x
_atom_site_fract_y
_atom_site_fract_z
Si Si1 0.081756 0.585497 0.355177
Si Si2 0.416634 0.420900 0.651385
Si Si3 0.338275 0.836655 0.855703
Si Si4 0.415650 0.250304 0.644217
Si Si5 0.669039 0.333610 0.856659
Si Si6 0.805877 0.500000 0.836053
Si Si7 0.344900 0.000000 0.594467
O O1 0.074517 0.590673 0.252289
O O2 0.124958 0.625781 0.389397
O O3 0.126442 0.542570 0.363735
O O4 0.000000 0.581657 0.392122
O O5 0.500000 0.430342 0.618726
O O6 0.379595 0.378813 0.613508
O O7 0.359274 0.459772 0.652593
O O8 0.380099 0.794395 0.882925
O O9 0.334687 0.835539 0.749423
O O10 0.253619 0.836002 0.883436
O O11 0.500000 0.246811 0.616224
O O12 0.415489 0.250000 0.750000
O O13 0.368717 0.209927 0.616643
O O14 0.750000 0.500000 0.750000
O O15 0.742554 0.500000 0.906971
O O16 0.377949 0.000000 0.500000
#
# Coordination Sequence:
#
# PCOD9511601 Si02
#       7
#    32  32  32  32  32  16  16
#     4  10  19  32  49  72 101 136 175 215 263 320
#     4  10  19  31  51  77 102 133 173 218 264 318
#     4   9  16  24  39  61  97 130 169 210 264 310
#     4   9  15  23  34  55  90 133 172 209 256 314
#     4   9  16  25  40  61  90 132 175 212 252 314
#     4  12  21  35  57  75 103 134 174 220 266 319
#     4  12  25  38  53  76 105 140 180 223 271 321
#
# _framework density 21.514225
#
# number of rings (size 3 to 8) (size 9 to 14) (size 15 to 20)
#    0.000    2.167    1.667    3.000    2.333    8.000 
#    0.000    0.000    0.000    1.000    0.000    0.000 
#    0.000   10.667    0.000    4.667    0.000    0.500 
#
# Total GULP energy -267806.040755 kJ/mol
# GULP energy per Si atom -5579.292516 kJ/mol
# Density = 2.146526 g / cm^3
# Si number density = 21.514225 Si / 1000 Ang^3
#
#
#
# Elastic Constant Matrix: (Units=GPa)
#
#
# Indices 1 2 3 4 5 6 
#
# 1 235.0663 139.5552 2.7543 0.0000 0.0000 0.0000
# 2 139.5552 228.7382 -0.0402 0.0000 0.0000 0.0000
# 3 2.7543 -0.0402 28.0203 0.0000 0.0000 0.0000
# 4 0.0000 0.0000 0.0000 7.6975 0.0000 0.0000
# 5 0.0000 0.0000 0.0000 0.0000 -11.8703 0.0000
# 6 0.0000 0.0000 0.0000 0.0000 0.0000 75.2748
#
#
#
# Elastic Compliance Matrix: (Units=1/GPa)
#
#
# Indices 1 2 3 4 5 6 
#
# 1 0.006682 -0.004077 -0.000663 0.000000 0.000000 0.000000
# 2 -0.004077 0.006859 0.000411 0.000000 0.000000 0.000000
# 3 -0.000663 0.000411 0.035754 0.000000 0.000000 0.000000
# 4 0.000000 0.000000 0.000000 0.129912 0.000000 0.000000
# 5 0.000000 0.000000 0.000000 0.000000 -0.084244 0.000000
# 6 0.000000 0.000000 0.000000 0.000000 0.000000 0.013285
#
#
# Mechanical properties :
#
#
# Convention : Reuss Voigt Hill
#
# Bulk Modulus (GPa) = 24.60781 86.26261 55.43521
# Shear Modulus (GPa) = 38.32804 37.52410 37.92607
#
# Velocity S-wave (km/s) = 4.22539 4.18084 4.20317
# Velocity P-wave (km/s) = 5.93868 7.96797 7.02696
#
# Compressibility (1/GPa) = 0.04063750
#
# Stress axis : x y z
#
# Youngs Moduli (GPa) = 149.64685 145.78616 27.96877
#
# Poissons Ratio (x) = 0.59439 0.01854
# Poissons Ratio (y) = 0.61013 -0.01148
# Poissons Ratio (z) = 0.09917 -0.05986
#
# Static dielectric constant tensor:
#      x y z
#    x 1.759680 0.000000 0.000000 
#    y 0.000000 1.687200 0.000000 
#    z 0.000000 0.000000 1.822890 
# 
# From -- ./inp_files/23670.got.cif
#   From: 2010.05.17/outbox.cif.g08.bks.cpg/sg69_12_cif.got.tgz:23670.got - 2010.06.03 19:29:58.
