data_PCOD9511806
_publ_section_title
;
Structure prediction by ZEFSAII (Michael W. Deem and Ramdas Pophale) SiO2 
 PCOD9511806
Probable space group: F M M M
;
_chemical_formula_sum "Si O2"
_cell_formula_units_Z 160
_cell_length_a 18.587377
_cell_length_b 30.738938
_cell_length_c 14.255706
_cell_angle_alpha 90.000000
_cell_angle_beta 90.000000
_cell_angle_gamma 90.000000
_cell_volume 8145.086425
_symmetry_space_group_name_H-M "F M M M"
_symmetry_group_IT_number 69
_symmetry_cell_setting 'orthorhombic'
loop_
_space_group_symop_operation_xyz
x,y,z
-x,-y,z
x,-y,-z
-x,y,-z
-x,-y,-z
x,y,-z
-x,y,z
x,-y,z
x,1/2+y,1/2+z
-x,1/2-y,1/2+z
x,1/2-y,1/2-z
-x,1/2+y,1/2-z
-x,1/2-y,1/2-z
x,1/2+y,1/2-z
-x,1/2+y,1/2+z
x,1/2-y,1/2+z
1/2+x,y,1/2+z
1/2-x,-y,1/2+z
1/2+x,-y,1/2-z
1/2-x,y,1/2-z
1/2-x,-y,1/2-z
1/2+x,y,1/2-z
1/2-x,y,1/2+z
1/2+x,-y,1/2+z
1/2+x,1/2+y,z
1/2-x,1/2-y,z
1/2+x,1/2-y,-z
1/2-x,1/2+y,-z
1/2-x,1/2-y,-z
1/2+x,1/2+y,-z
1/2-x,1/2+y,z
1/2+x,1/2-y,z
loop_
_atom_site_type_symbol
_atom_site_label
_atom_site_fract_x
_atom_site_fract_y
_atom_site_fract_z
Si Si1 0.776006 0.679670 0.851023
Si Si2 0.500000 0.688643 0.885804
Si Si3 0.706026 0.083770 0.894820
Si Si4 0.647864 0.551830 0.199563
Si Si5 0.500000 0.412950 0.113756
Si Si6 0.140790 0.738163 0.392328
O O1 0.750000 0.664686 0.750000
O O2 0.801472 0.636028 0.899320
O O3 0.834072 0.718084 0.841266
O O4 0.707083 0.704228 0.894084
O O5 0.500000 0.638178 0.860037
O O6 0.571096 0.713885 0.854645
O O7 0.500000 0.689058 0.000000
O O8 0.658246 0.066248 0.808230
O O9 0.787662 0.072833 0.861871
O O10 0.692647 0.066169 0.000000
O O11 0.656055 0.500000 0.194992
O O12 0.571729 0.566018 0.156846
O O13 0.500000 0.416979 0.000000
O O14 0.127121 0.751518 0.500000
#
# Coordination Sequence:
#
# PCOD9511806 Si02
#       6
#    32  16  32  32  16  32
#     4  11  20  35  55  84 117 158 208 251 296 357
#     4   9  20  35  56  85 120 158 199 247 301 358
#     4  11  22  40  65  91 126 167 206 259 314 369
#     4  11  24  41  64  97 127 156 206 262 316 388
#     4  11  23  42  67  94 129 167 203 256 320 376
#     4  10  19  33  54  83 116 157 205 250 300 359
#
# _framework density 19.643744000000002
#
# number of rings (size 3 to 8) (size 9 to 14) (size 15 to 20)
#    0.000    1.400    2.000    6.900    0.000    4.800 
#    0.000    3.500    0.000    1.200    0.000    0.000 
#    0.000    0.000    0.000    0.000    0.000    0.000 
#
# Total GULP energy -223366.854947 kJ/mol
# GULP energy per Si atom -5584.171374 kJ/mol
# Density = 1.959903 g / cm^3
# Si number density = 19.643744 Si / 1000 Ang^3
#
#
#
# Elastic Constant Matrix: (Units=GPa)
#
#
# Indices 1 2 3 4 5 6 
#
# 1 92.1553 44.3803 24.6676 0.0000 0.0000 0.0000
# 2 44.3803 132.4071 11.6483 0.0000 0.0000 0.0000
# 3 24.6676 11.6483 120.1445 0.0000 0.0000 0.0000
# 4 0.0000 0.0000 0.0000 10.7262 0.0000 0.0000
# 5 0.0000 0.0000 0.0000 0.0000 26.1060 0.0000
# 6 0.0000 0.0000 0.0000 0.0000 0.0000 21.7525
#
#
#
# Elastic Compliance Matrix: (Units=1/GPa)
#
#
# Indices 1 2 3 4 5 6 
#
# 1 0.013576 -0.004342 -0.002366 0.000000 0.000000 0.000000
# 2 -0.004342 0.009006 0.000018 0.000000 0.000000 0.000000
# 3 -0.002366 0.000018 0.008807 0.000000 0.000000 0.000000
# 4 0.000000 0.000000 0.000000 0.093230 0.000000 0.000000
# 5 0.000000 0.000000 0.000000 0.000000 0.038305 0.000000
# 6 0.000000 0.000000 0.000000 0.000000 0.000000 0.045972
#
#
# Mechanical properties :
#
#
# Convention : Reuss Voigt Hill
#
# Bulk Modulus (GPa) = 55.52754 56.23325 55.88040
# Shear Modulus (GPa) = 21.90297 29.31766 25.61031
#
# Velocity S-wave (km/s) = 3.34280 3.86744 3.61465
# Velocity P-wave (km/s) = 6.57478 6.97363 6.77714
#
# Compressibility (1/GPa) = 0.01800908
#
# Stress axis : x y z
#
# Youngs Moduli (GPa) = 73.66072 111.03387 113.54112
#
# Poissons Ratio (x) = 0.48213 0.26868
# Poissons Ratio (y) = 0.31985 -0.00208
# Poissons Ratio (z) = 0.17431 -0.00204
#
# Static dielectric constant tensor:
#      x y z
#    x 1.672220 0.000000 0.000000 
#    y 0.000000 1.668840 0.000000 
#    z 0.000000 0.000000 1.745820 
# 
# From -- ./inp_files/15698.got.cif
#   From: 2010.05.17/outbox.cif.g08.bks.cpg/sg69_8_cif.got.tgz:15698.got - 2010.06.03 19:29:58.
