data_PCOD9511390
_publ_section_title
;
Structure prediction by ZEFSAII (Michael W. Deem and Ramdas Pophale) SiO2 
 PCOD9511390
Probable space group: F M M M
;
_chemical_formula_sum "Si O2"
_cell_formula_units_Z 132
_cell_length_a 13.850051
_cell_length_b 15.798254
_cell_length_c 28.813932
_cell_angle_alpha 90.000000
_cell_angle_beta 90.000000
_cell_angle_gamma 90.000000
_cell_volume 6304.679174
_symmetry_space_group_name_H-M "F M M M"
_symmetry_group_IT_number 69
_symmetry_cell_setting 'orthorhombic'
loop_
_space_group_symop_operation_xyz
x,y,z
-x,-y,z
x,-y,-z
-x,y,-z
-x,-y,-z
x,y,-z
-x,y,z
x,-y,z
x,1/2+y,1/2+z
-x,1/2-y,1/2+z
x,1/2-y,1/2-z
-x,1/2+y,1/2-z
-x,1/2-y,1/2-z
x,1/2+y,1/2-z
-x,1/2+y,1/2+z
x,1/2-y,1/2+z
1/2+x,y,1/2+z
1/2-x,-y,1/2+z
1/2+x,-y,1/2-z
1/2-x,y,1/2-z
1/2-x,-y,1/2-z
1/2+x,y,1/2-z
1/2-x,y,1/2+z
1/2+x,-y,1/2+z
1/2+x,1/2+y,z
1/2-x,1/2-y,z
1/2+x,1/2-y,-z
1/2-x,1/2+y,-z
1/2-x,1/2-y,-z
1/2+x,1/2+y,-z
1/2-x,1/2+y,z
1/2+x,1/2-y,z
loop_
_atom_site_type_symbol
_atom_site_label
_atom_site_fract_x
_atom_site_fract_y
_atom_site_fract_z
Si Si1 0.114450 0.666331 0.658551
Si Si2 0.500000 0.500000 0.500000
Si Si3 0.384252 0.850647 0.140891
Si Si4 0.112949 0.500000 0.594850
Si Si5 0.321575 0.500000 0.574974
Si Si6 0.383329 0.402455 0.254355
O O1 0.145116 0.753212 0.634451
O O2 0.123977 0.582550 0.627701
O O3 0.152738 0.651609 0.710687
O O4 0.000000 0.679151 0.664859
O O5 0.411780 0.500000 0.539624
O O6 0.500000 0.859759 0.135195
O O7 0.359840 0.873665 0.193955
O O8 0.336156 0.916869 0.106620
O O9 0.207103 0.500000 0.561164
O O10 0.000000 0.500000 0.577420
O O11 0.500000 0.399766 0.252634
O O12 0.355858 0.500000 0.247131
#
# Coordination Sequence:
#
# PCOD9511390 Si02
#       6
#    32   4  32  16  16  32
#     4   9  17  31  55  89 136 186 230 265 309 373
#     4  12  28  52  78 108 128 154 200 278 368 404
#     4  10  18  32  57  94 133 179 227 275 329 388
#     4  10  22  41  64  96 131 175 218 261 314 392
#     4  12  24  43  71  98 130 162 215 276 340 407
#     4   9  14  24  48  83 136 187 232 274 309 364
#
# _framework density 20.936831000000002
#
# number of rings (size 3 to 8) (size 9 to 14) (size 15 to 20)
#    0.000    2.182    3.636    0.727    0.000    3.879 
#    0.000    2.727    0.000    5.818    0.000    0.000 
#    0.000    0.000    0.000    0.000    0.000    0.000 
#
# Total GULP energy -183867.694963 kJ/mol
# GULP energy per Si atom -5571.748332 kJ/mol
# Density = 2.088918 g / cm^3
# Si number density = 20.936831 Si / 1000 Ang^3
#
#
#
# Elastic Constant Matrix: (Units=GPa)
#
#
# Indices 1 2 3 4 5 6 
#
# 1 191.3914 8.9826 48.8025 0.0000 0.0000 0.0000
# 2 8.9826 156.3986 42.9652 0.0000 0.0000 0.0000
# 3 48.8025 42.9652 28.6642 0.0000 0.0000 0.0000
# 4 0.0000 0.0000 0.0000 -11.1616 0.0000 0.0000
# 5 0.0000 0.0000 0.0000 0.0000 -62.8582 0.0000
# 6 0.0000 0.0000 0.0000 0.0000 0.0000 -29.2856
#
#
#
# Elastic Compliance Matrix: (Units=1/GPa)
#
#
# Indices 1 2 3 4 5 6 
#
# 1 0.015737 0.010977 -0.043246 0.000000 0.000000 0.000000
# 2 0.010977 0.018526 -0.046457 0.000000 0.000000 0.000000
# 3 -0.043246 -0.046457 0.178152 0.000000 0.000000 0.000000
# 4 0.000000 0.000000 0.000000 -0.089593 0.000000 0.000000
# 5 0.000000 0.000000 0.000000 0.000000 -0.015909 0.000000
# 6 0.000000 0.000000 0.000000 0.000000 0.000000 -0.034147
#
#
# Mechanical properties :
#
#
# Convention : Reuss Voigt Hill
#
# Bulk Modulus (GPa) = 18.19473 64.21721 41.20597
# Shear Modulus (GPa) = 20.11740 -2.28083 8.91828
#
# Velocity S-wave (km/s) = 3.10314 -1.04487 2.06612
# Velocity P-wave (km/s) = 4.64203 5.41136 5.04139
#
# Compressibility (1/GPa) = 0.05496098
#
# Stress axis : x y z
#
# Youngs Moduli (GPa) = 63.54458 53.97802 5.61319
#
# Poissons Ratio (x) = -0.59249 0.24275
# Poissons Ratio (y) = -0.69750 0.26077
# Poissons Ratio (z) = 2.74806 2.50768
#
# Static dielectric constant tensor:
#      x y z
#    x 1.853050 0.000000 0.000000 
#    y 0.000000 1.759120 0.000000 
#    z 0.000000 0.000000 1.686990 
# 
# From -- ./inp_files/40835.got.cif
#   From: 2010.05.17/outbox.cif.g08.bks.cpg/sg69_21_cif.got.tgz:40835.got - 2010.06.03 19:29:58.
