data_PCOD9511589
_publ_section_title
;
Structure prediction by ZEFSAII (Michael W. Deem and Ramdas Pophale) SiO2 
 PCOD9511589
Probable space group: F M M M
;
_chemical_formula_sum "Si O2"
_cell_formula_units_Z 208
_cell_length_a 14.365973
_cell_length_b 19.976715
_cell_length_c 33.815227
_cell_angle_alpha 90.000000
_cell_angle_beta 90.000000
_cell_angle_gamma 90.000000
_cell_volume 9704.461173
_symmetry_space_group_name_H-M "F M M M"
_symmetry_group_IT_number 69
_symmetry_cell_setting 'orthorhombic'
loop_
_space_group_symop_operation_xyz
x,y,z
-x,-y,z
x,-y,-z
-x,y,-z
-x,-y,-z
x,y,-z
-x,y,z
x,-y,z
x,1/2+y,1/2+z
-x,1/2-y,1/2+z
x,1/2-y,1/2-z
-x,1/2+y,1/2-z
-x,1/2-y,1/2-z
x,1/2+y,1/2-z
-x,1/2+y,1/2+z
x,1/2-y,1/2+z
1/2+x,y,1/2+z
1/2-x,-y,1/2+z
1/2+x,-y,1/2-z
1/2-x,y,1/2-z
1/2-x,-y,1/2-z
1/2+x,y,1/2-z
1/2-x,y,1/2+z
1/2+x,-y,1/2+z
1/2+x,1/2+y,z
1/2-x,1/2-y,z
1/2+x,1/2-y,-z
1/2-x,1/2+y,-z
1/2-x,1/2-y,-z
1/2+x,1/2+y,-z
1/2-x,1/2+y,z
1/2+x,1/2-y,z
loop_
_atom_site_type_symbol
_atom_site_label
_atom_site_fract_x
_atom_site_fract_y
_atom_site_fract_z
Si Si1 0.614104 0.659459 0.877473
Si Si2 0.885447 0.923323 0.585991
Si Si3 0.891716 0.074190 0.197355
Si Si4 0.387666 0.308999 0.645024
Si Si5 0.613589 0.422409 0.044968
Si Si6 0.643798 0.678986 0.262981
Si Si7 0.606369 0.418962 0.500000
O O1 0.500000 0.659887 0.877458
O O2 0.647081 0.616656 0.839439
O O3 0.643463 0.735980 0.869898
O O4 0.642377 0.625157 0.918821
O O5 0.854699 0.869298 0.617564
O O6 0.851482 0.902165 0.542276
O O7 0.000000 0.923528 0.584522
O O8 0.858133 0.000000 0.594385
O O9 0.891400 0.116336 0.237787
O O10 0.000000 0.066227 0.187236
O O11 0.849716 0.000000 0.201364
O O12 0.500000 0.308220 0.642924
O O13 0.363542 0.323800 0.690239
O O14 0.500000 0.422138 0.045023
O O15 0.642005 0.500000 0.051825
O O16 0.642122 0.403823 0.000000
O O17 0.600714 0.750000 0.250000
O O18 0.750000 0.681513 0.250000
O O19 0.601114 0.500000 0.500000
O O20 0.500000 0.392817 0.500000
#
# Coordination Sequence:
#
# PCOD9511589 Si02
#       7
#    32  32  32  32  32  32  16
#     4   9  16  27  43  67  98 129 163 202 244 298
#     4   8  14  25  42  67  99 134 169 202 243 294
#     4  10  20  34  55  79 100 128 166 208 255 307
#     4  10  19  31  50  73  99 133 169 213 262 304
#     4   8  13  22  37  59  93 134 165 194 242 300
#     4  11  23  38  54  71  98 135 173 212 262 314
#     4   7  10  20  38  60  94 135 165 195 238 289
#
# _framework density 21.433440999999998
#
# number of rings (size 3 to 8) (size 9 to 14) (size 15 to 20)
#    0.000    2.846    1.538    2.308    0.000    3.385 
#    1.385    1.538    0.000    0.000    0.000    0.000 
#    2.308    2.615    1.846    0.000    0.000    0.000 
#
# Total GULP energy -290214.418261 kJ/mol
# GULP energy per Si atom -5581.046505 kJ/mol
# Density = 2.138466 g / cm^3
# Si number density = 21.433441 Si / 1000 Ang^3
#
#
#
# Elastic Constant Matrix: (Units=GPa)
#
#
# Indices 1 2 3 4 5 6 
#
# 1 54.7407 15.7112 10.3537 0.0000 0.0000 0.0000
# 2 15.7112 187.8763 147.9758 0.0000 0.0000 0.0000
# 3 10.3537 147.9758 250.3642 0.0000 0.0000 0.0000
# 4 0.0000 0.0000 0.0000 38.1525 0.0000 0.0000
# 5 0.0000 0.0000 0.0000 0.0000 16.6025 0.0000
# 6 0.0000 0.0000 0.0000 0.0000 0.0000 254.5134
#
#
#
# Elastic Compliance Matrix: (Units=1/GPa)
#
#
# Indices 1 2 3 4 5 6 
#
# 1 0.018728 -0.001789 0.000283 0.000000 0.000000 0.000000
# 2 -0.001789 0.010129 -0.005913 0.000000 0.000000 0.000000
# 3 0.000283 -0.005913 0.007477 0.000000 0.000000 0.000000
# 4 0.000000 0.000000 0.000000 0.026211 0.000000 0.000000
# 5 0.000000 0.000000 0.000000 0.000000 0.060232 0.000000
# 6 0.000000 0.000000 0.000000 0.000000 0.000000 0.003929
#
#
# Mechanical properties :
#
#
# Convention : Reuss Voigt Hill
#
# Bulk Modulus (GPa) = 46.51901 93.45140 69.98520
# Shear Modulus (GPa) = 33.62258 83.11639 58.36949
#
# Velocity S-wave (km/s) = 3.96498 6.23402 5.22418
# Velocity P-wave (km/s) = 6.53547 9.77306 8.31340
#
# Compressibility (1/GPa) = 0.02149659
#
# Stress axis : x y z
#
# Youngs Moduli (GPa) = 53.39632 98.72251 133.73862
#
# Poissons Ratio (x) = 0.17660 -0.03782
# Poissons Ratio (y) = 0.09552 0.79079
# Poissons Ratio (z) = -0.01510 0.58374
#
# Static dielectric constant tensor:
#      x y z
#    x 1.772310 0.000000 0.000000 
#    y 0.000000 1.768520 0.000000 
#    z 0.000000 0.000000 1.830280 
# 
# From -- ./inp_files/46487.got.cif
#   From: 2010.05.17/outbox.cif.g08.bks.cpg/sg69_24_cif.got.tgz:46487.got - 2010.06.03 19:29:58.
