data_PCOD9511569
_publ_section_title
;
Structure prediction by ZEFSAII (Michael W. Deem and Ramdas Pophale) SiO2 
 PCOD9511569
Probable space group: F M M M
;
_chemical_formula_sum "Si O2"
_cell_formula_units_Z 208
_cell_length_a 23.308861
_cell_length_b 19.295549
_cell_length_c 27.607688
_cell_angle_alpha 90.000000
_cell_angle_beta 90.000000
_cell_angle_gamma 90.000000
_cell_volume 12416.758374
_symmetry_space_group_name_H-M "F M M M"
_symmetry_group_IT_number 69
_symmetry_cell_setting 'orthorhombic'
loop_
_space_group_symop_operation_xyz
x,y,z
-x,-y,z
x,-y,-z
-x,y,-z
-x,-y,-z
x,y,-z
-x,y,z
x,-y,z
x,1/2+y,1/2+z
-x,1/2-y,1/2+z
x,1/2-y,1/2-z
-x,1/2+y,1/2-z
-x,1/2-y,1/2-z
x,1/2+y,1/2-z
-x,1/2+y,1/2+z
x,1/2-y,1/2+z
1/2+x,y,1/2+z
1/2-x,-y,1/2+z
1/2+x,-y,1/2-z
1/2-x,y,1/2-z
1/2-x,-y,1/2-z
1/2+x,y,1/2-z
1/2-x,y,1/2+z
1/2+x,-y,1/2+z
1/2+x,1/2+y,z
1/2-x,1/2-y,z
1/2+x,1/2-y,-z
1/2-x,1/2+y,-z
1/2-x,1/2-y,-z
1/2+x,1/2+y,-z
1/2-x,1/2+y,z
1/2+x,1/2-y,z
loop_
_atom_site_type_symbol
_atom_site_label
_atom_site_fract_x
_atom_site_fract_y
_atom_site_fract_z
Si Si1 0.343004 0.784506 0.056146
Si Si2 0.068104 0.804435 0.641671
Si Si3 0.126289 0.919892 0.099409
Si Si4 0.565437 0.415897 0.000000
Si Si5 0.930351 0.579820 0.784858
Si Si6 0.727918 0.140304 0.444048
Si Si7 0.068255 0.340798 0.687076
O O1 0.393830 0.789360 0.094572
O O2 0.308282 0.712056 0.059759
O O3 0.293787 0.841879 0.066331
O O4 0.361646 0.791266 0.000000
O O5 0.085577 0.875794 0.667886
O O6 0.075968 0.741536 0.680216
O O7 0.000000 0.806448 0.630182
O O8 0.096996 0.894824 0.049149
O O9 0.194003 0.911005 0.090764
O O10 0.102263 0.876494 0.143577
O O11 0.110961 0.000000 0.106409
O O12 0.565614 0.500000 0.000000
O O13 0.500000 0.391724 0.000000
O O14 0.910417 0.500000 0.783760
O O15 0.913559 0.623892 0.737339
O O16 0.000000 0.578246 0.784469
O O17 0.724308 0.116662 0.500000
O O18 0.000000 0.354206 0.681139
#
# Coordination Sequence:
#
# PCOD9511569 Si02
#       7
#    32  32  32  16  32  32  32
#     4   9  18  33  53  74  99 132 170 215 256 301
#     4  10  19  32  53  81 107 132 168 213 260 308
#     4  11  19  28  45  70 104 140 174 210 249 298
#     4   9  18  28  38  61 104 150 174 195 244 304
#     4   9  18  33  52  73 101 137 173 212 261 310
#     4   9  17  32  50  68  96 136 181 212 243 291
#     4  10  19  31  48  75 107 138 173 208 248 304
#
# _framework density 16.751555
#
# number of rings (size 3 to 8) (size 9 to 14) (size 15 to 20)
#    0.000    2.385    2.308    2.308    0.000    3.692 
#    0.000    0.769    0.000    2.308    0.000    4.308 
#    0.000    0.000    0.000    0.000    0.000    0.000 
#
# Total GULP energy -289770.529370 kJ/mol
# GULP energy per Si atom -5572.510180 kJ/mol
# Density = 1.671343 g / cm^3
# Si number density = 16.751555 Si / 1000 Ang^3
#
#
#
# Elastic Constant Matrix: (Units=GPa)
#
#
# Indices 1 2 3 4 5 6 
#
# 1 47.9578 24.9064 33.3443 0.0000 0.0000 0.0000
# 2 24.9064 65.1913 33.4662 0.0000 0.0000 0.0000
# 3 33.3443 33.4662 84.9732 0.0000 0.0000 0.0000
# 4 0.0000 0.0000 0.0000 18.1098 0.0000 0.0000
# 5 0.0000 0.0000 0.0000 0.0000 12.6968 0.0000
# 6 0.0000 0.0000 0.0000 0.0000 0.0000 19.8374
#
#
#
# Elastic Compliance Matrix: (Units=1/GPa)
#
#
# Indices 1 2 3 4 5 6 
#
# 1 0.031048 -0.007029 -0.009416 0.000000 0.000000 0.000000
# 2 -0.007029 0.020818 -0.005441 0.000000 0.000000 0.000000
# 3 -0.009416 -0.005441 0.017606 0.000000 0.000000 0.000000
# 4 0.000000 0.000000 0.000000 0.055219 0.000000 0.000000
# 5 0.000000 0.000000 0.000000 0.000000 0.078760 0.000000
# 6 0.000000 0.000000 0.000000 0.000000 0.000000 0.050410
#
#
# Mechanical properties :
#
#
# Convention : Reuss Voigt Hill
#
# Bulk Modulus (GPa) = 38.90712 42.39513 40.65113
# Shear Modulus (GPa) = 16.32929 17.22249 16.77589
#
# Velocity S-wave (km/s) = 3.12555 3.20990 3.16801
# Velocity P-wave (km/s) = 6.02510 6.25308 6.14015
#
# Compressibility (1/GPa) = 0.02570224
#
# Stress axis : x y z
#
# Youngs Moduli (GPa) = 32.20779 48.03567 56.79866
#
# Poissons Ratio (x) = 0.33762 0.53479
# Poissons Ratio (y) = 0.22638 0.30904
# Poissons Ratio (z) = 0.30325 0.26136
#
# Static dielectric constant tensor:
#      x y z
#    x 1.565350 0.000000 0.000000 
#    y 0.000000 1.598300 0.000000 
#    z 0.000000 0.000000 1.548240 
# 
# From -- ./inp_files/43288.got.cif
#   From: 2010.05.17/outbox.cif.g08.bks.cpg/sg69_22_cif.got.tgz:43288.got - 2010.06.03 19:29:58.
