data_PCOD9511120
_publ_section_title
;
Structure prediction by ZEFSAII (Michael W. Deem and Ramdas Pophale) SiO2 
 PCOD9511120
Probable space group: F M M M
;
_chemical_formula_sum "Si O2"
_cell_formula_units_Z 144
_cell_length_a 23.410443
_cell_length_b 21.717144
_cell_length_c 17.507615
_cell_angle_alpha 90.000000
_cell_angle_beta 90.000000
_cell_angle_gamma 90.000000
_cell_volume 8901.010857
_symmetry_space_group_name_H-M "F M M M"
_symmetry_group_IT_number 69
_symmetry_cell_setting 'orthorhombic'
loop_
_space_group_symop_operation_xyz
x,y,z
-x,-y,z
x,-y,-z
-x,y,-z
-x,-y,-z
x,y,-z
-x,y,z
x,-y,z
x,1/2+y,1/2+z
-x,1/2-y,1/2+z
x,1/2-y,1/2-z
-x,1/2+y,1/2-z
-x,1/2-y,1/2-z
x,1/2+y,1/2-z
-x,1/2+y,1/2+z
x,1/2-y,1/2+z
1/2+x,y,1/2+z
1/2-x,-y,1/2+z
1/2+x,-y,1/2-z
1/2-x,y,1/2-z
1/2-x,-y,1/2-z
1/2+x,y,1/2-z
1/2-x,y,1/2+z
1/2+x,-y,1/2+z
1/2+x,1/2+y,z
1/2-x,1/2-y,z
1/2+x,1/2-y,-z
1/2-x,1/2+y,-z
1/2-x,1/2-y,-z
1/2+x,1/2+y,-z
1/2-x,1/2+y,z
1/2+x,1/2-y,z
loop_
_atom_site_type_symbol
_atom_site_label
_atom_site_fract_x
_atom_site_fract_y
_atom_site_fract_z
Si Si1 0.352418 0.109901 0.362346
Si Si2 0.269707 0.430462 0.588401
Si Si3 0.566967 0.000000 0.591423
Si Si4 0.812372 0.664819 0.789952
Si Si5 0.680421 0.242974 0.416063
O O1 0.295272 0.071921 0.382367
O O2 0.403330 0.062892 0.378982
O O3 0.350064 0.134041 0.275534
O O4 0.342620 0.173259 0.409645
O O5 0.271085 0.411031 0.500000
O O6 0.291255 0.500000 0.593889
O O7 0.302137 0.384585 0.643439
O O8 0.500000 0.000000 0.609575
O O9 0.574414 0.000000 0.500000
O O10 0.750000 0.677340 0.750000
O O11 0.836223 0.722514 0.837608
O O12 0.662548 0.267254 0.500000
O O13 0.750000 0.250000 0.414967
#
# Coordination Sequence:
#
# PCOD9511120 Si02
#       5
#    32  32  16  32  32
#     4  11  21  31  51  73 102 135 176 217 259 302
#     4  10  18  27  42  67 106 144 172 198 240 308
#     4  11  24  42  59  74  95 131 182 233 274 308
#     4  10  20  28  45  70 109 141 172 196 242 309
#     4  11  19  29  46  72 108 148 176 199 241 310
#
# _framework density 16.177938000000001
#
# number of rings (size 3 to 8) (size 9 to 14) (size 15 to 20)
#    0.000    1.444    5.556    3.333    1.556    1.333 
#    0.000    0.000    0.000    2.667    0.000    0.000 
#    0.000    6.222    0.000    0.000    0.000    0.000 
#
# Total GULP energy -200557.843359 kJ/mol
# GULP energy per Si atom -5571.051204 kJ/mol
# Density = 1.614112 g / cm^3
# Si number density = 16.177938 Si / 1000 Ang^3
#
#
#
# Elastic Constant Matrix: (Units=GPa)
#
#
# Indices 1 2 3 4 5 6 
#
# 1 52.0154 40.3165 19.7931 0.0000 0.0000 0.0000
# 2 40.3165 119.3402 54.5444 0.0000 0.0000 0.0000
# 3 19.7931 54.5444 118.6909 0.0000 0.0000 0.0000
# 4 0.0000 0.0000 0.0000 16.6021 0.0000 0.0000
# 5 0.0000 0.0000 0.0000 0.0000 12.2221 0.0000
# 6 0.0000 0.0000 0.0000 0.0000 0.0000 11.5225
#
#
#
# Elastic Compliance Matrix: (Units=1/GPa)
#
#
# Indices 1 2 3 4 5 6 
#
# 1 0.026058 -0.008630 -0.000380 0.000000 0.000000 0.000000
# 2 -0.008630 0.013465 -0.004749 0.000000 0.000000 0.000000
# 3 -0.000380 -0.004749 0.010671 0.000000 0.000000 0.000000
# 4 0.000000 0.000000 0.000000 0.060233 0.000000 0.000000
# 5 0.000000 0.000000 0.000000 0.000000 0.081819 0.000000
# 6 0.000000 0.000000 0.000000 0.000000 0.000000 0.086786
#
#
# Mechanical properties :
#
#
# Convention : Reuss Voigt Hill
#
# Bulk Modulus (GPa) = 44.09580 57.70604 50.90092
# Shear Modulus (GPa) = 15.91803 19.76218 17.84010
#
# Velocity S-wave (km/s) = 3.14018 3.49886 3.32436
# Velocity P-wave (km/s) = 6.36109 7.21594 6.80196
#
# Compressibility (1/GPa) = 0.02267790
#
# Stress axis : x y z
#
# Youngs Moduli (GPa) = 38.37545 74.26552 93.71277
#
# Poissons Ratio (x) = 0.64089 0.03559
# Poissons Ratio (y) = 0.33117 0.44503
# Poissons Ratio (z) = 0.01457 0.35267
#
# Static dielectric constant tensor:
#      x y z
#    x 1.503560 0.000000 0.000000 
#    y 0.000000 1.635470 0.000000 
#    z 0.000000 0.000000 1.578560 
# 
# From -- ./inp_files/24453.got.cif
#   From: 2010.05.17/outbox.cif.g08.bks.cpg/sg69_13_cif.got.tgz:24453.got - 2010.06.03 19:29:58.
