data_PCOD9511584
_publ_section_title
;
Structure prediction by ZEFSAII (Michael W. Deem and Ramdas Pophale) SiO2 
 PCOD9511584
Probable space group: F M M M
;
_chemical_formula_sum "Si O2"
_cell_formula_units_Z 160
_cell_length_a 20.283840
_cell_length_b 14.163648
_cell_length_c 28.006635
_cell_angle_alpha 90.000000
_cell_angle_beta 90.000000
_cell_angle_gamma 90.000000
_cell_volume 8046.114946
_symmetry_space_group_name_H-M "F M M M"
_symmetry_group_IT_number 69
_symmetry_cell_setting 'orthorhombic'
loop_
_space_group_symop_operation_xyz
x,y,z
-x,-y,z
x,-y,-z
-x,y,-z
-x,-y,-z
x,y,-z
-x,y,z
x,-y,z
x,1/2+y,1/2+z
-x,1/2-y,1/2+z
x,1/2-y,1/2-z
-x,1/2+y,1/2-z
-x,1/2-y,1/2-z
x,1/2+y,1/2-z
-x,1/2+y,1/2+z
x,1/2-y,1/2+z
1/2+x,y,1/2+z
1/2-x,-y,1/2+z
1/2+x,-y,1/2-z
1/2-x,y,1/2-z
1/2-x,-y,1/2-z
1/2+x,y,1/2-z
1/2-x,y,1/2+z
1/2+x,-y,1/2+z
1/2+x,1/2+y,z
1/2-x,1/2-y,z
1/2+x,1/2-y,-z
1/2-x,1/2+y,-z
1/2-x,1/2-y,-z
1/2+x,1/2+y,-z
1/2-x,1/2+y,z
1/2+x,1/2-y,z
loop_
_atom_site_type_symbol
_atom_site_label
_atom_site_fract_x
_atom_site_fract_y
_atom_site_fract_z
Si Si1 0.427791 0.888872 0.645312
Si Si2 0.634737 0.892187 0.884956
Si Si3 0.896535 0.219005 0.944820
Si Si4 0.328558 0.753369 0.193354
Si Si5 0.735161 0.605835 0.946602
O O1 0.500000 0.863633 0.666013
O O2 0.428767 0.856873 0.590152
O O3 0.368075 0.833074 0.669680
O O4 0.418466 0.000000 0.649457
O O5 0.595448 0.820186 0.919286
O O6 0.641414 0.845094 0.833012
O O7 0.708064 0.890947 0.907762
O O8 0.611316 0.000000 0.884459
O O9 0.819645 0.186117 0.942751
O O10 0.916429 0.218442 0.000000
O O11 0.338130 0.750000 0.250000
O O12 0.250000 0.750000 0.184011
O O13 0.704322 0.500000 0.943714
O O14 0.765141 0.612905 0.000000
#
# Coordination Sequence:
#
# PCOD9511584 Si02
#       5
#    32  32  32  32  32
#     4  10  22  40  61  86 118 155 195 242 297 356
#     4  10  19  31  49  75 109 149 189 231 283 343
#     4  10  19  31  49  75 110 149 189 233 279 333
#     4  10  22  39  60  87 116 148 192 249 306 356
#     4   9  16  26  44  73 108 144 182 226 278 336
#
# _framework density 19.885373000000001
#
# number of rings (size 3 to 8) (size 9 to 14) (size 15 to 20)
#    0.000    2.200    0.000    4.200    0.000    8.000 
#    0.000    3.000    0.000    9.600    0.000    5.600 
#    0.000    0.000    0.000    0.000    0.000    0.000 
#
# Total GULP energy -223192.449760 kJ/mol
# GULP energy per Si atom -5579.811244 kJ/mol
# Density = 1.984011 g / cm^3
# Si number density = 19.885373 Si / 1000 Ang^3
#
#
#
# Elastic Constant Matrix: (Units=GPa)
#
#
# Indices 1 2 3 4 5 6 
#
# 1 71.5268 24.0183 32.0712 0.0000 0.0000 0.0000
# 2 24.0183 124.8262 38.0931 0.0000 0.0000 0.0000
# 3 32.0712 38.0931 120.0208 0.0000 0.0000 0.0000
# 4 0.0000 0.0000 0.0000 16.2627 0.0000 0.0000
# 5 0.0000 0.0000 0.0000 0.0000 -3.8862 0.0000
# 6 0.0000 0.0000 0.0000 0.0000 0.0000 12.7811
#
#
#
# Elastic Compliance Matrix: (Units=1/GPa)
#
#
# Indices 1 2 3 4 5 6 
#
# 1 0.016324 -0.002004 -0.003726 0.000000 0.000000 0.000000
# 2 -0.002004 0.009116 -0.002358 0.000000 0.000000 0.000000
# 3 -0.003726 -0.002358 0.010076 0.000000 0.000000 0.000000
# 4 0.000000 0.000000 0.000000 0.061490 0.000000 0.000000
# 5 0.000000 0.000000 0.000000 0.000000 -0.257323 0.000000
# 6 0.000000 0.000000 0.000000 0.000000 0.000000 0.078240
#
#
# Mechanical properties :
#
#
# Convention : Reuss Voigt Hill
#
# Bulk Modulus (GPa) = 51.70440 56.08213 53.89327
# Shear Modulus (GPa) = -84.09952 19.84428 -32.12762
#
# Velocity S-wave (km/s) = -6.51030 3.16244 -4.02386
# Velocity P-wave (km/s) = 5.51854 6.44970 2.36054
#
# Compressibility (1/GPa) = 0.01934071
#
# Stress axis : x y z
#
# Youngs Moduli (GPa) = 61.25806 109.69374 99.24656
#
# Poissons Ratio (x) = 0.21982 0.36980
# Poissons Ratio (y) = 0.12276 0.23401
# Poissons Ratio (z) = 0.22825 0.25865
#
# Static dielectric constant tensor:
#      x y z
#    x 1.762550 0.000000 0.000000 
#    y 0.000000 1.719700 0.000000 
#    z 0.000000 0.000000 1.695590 
# 
# From -- ./inp_files/43100.got.cif
#   From: 2010.05.17/outbox.cif.g08.bks.cpg/sg69_22_cif.got.tgz:43100.got - 2010.06.03 19:29:58.
