data_PCOD9511154
_publ_section_title
;
Structure prediction by ZEFSAII (Michael W. Deem and Ramdas Pophale) SiO2 
 PCOD9511154
Probable space group: F M M M
;
_chemical_formula_sum "Si O2"
_cell_formula_units_Z 176
_cell_length_a 27.022462
_cell_length_b 14.099097
_cell_length_c 28.204175
_cell_angle_alpha 90.000000
_cell_angle_beta 90.000000
_cell_angle_gamma 90.000000
_cell_volume 10745.573867
_symmetry_space_group_name_H-M "F M M M"
_symmetry_group_IT_number 69
_symmetry_cell_setting 'orthorhombic'
loop_
_space_group_symop_operation_xyz
x,y,z
-x,-y,z
x,-y,-z
-x,y,-z
-x,-y,-z
x,y,-z
-x,y,z
x,-y,z
x,1/2+y,1/2+z
-x,1/2-y,1/2+z
x,1/2-y,1/2-z
-x,1/2+y,1/2-z
-x,1/2-y,1/2-z
x,1/2+y,1/2-z
-x,1/2+y,1/2+z
x,1/2-y,1/2+z
1/2+x,y,1/2+z
1/2-x,-y,1/2+z
1/2+x,-y,1/2-z
1/2-x,y,1/2-z
1/2-x,-y,1/2-z
1/2+x,y,1/2-z
1/2-x,y,1/2+z
1/2+x,-y,1/2+z
1/2+x,1/2+y,z
1/2-x,1/2-y,z
1/2+x,1/2-y,-z
1/2-x,1/2+y,-z
1/2-x,1/2-y,-z
1/2+x,1/2+y,-z
1/2-x,1/2+y,z
1/2+x,1/2-y,z
loop_
_atom_site_type_symbol
_atom_site_label
_atom_site_fract_x
_atom_site_fract_y
_atom_site_fract_z
Si Si1 0.557979 0.386878 0.629109
Si Si2 0.365885 0.319659 0.707817
Si Si3 0.304650 0.206685 0.628965
Si Si4 0.699403 0.500000 0.279805
Si Si5 0.730396 0.000000 0.634332
Si Si6 0.696044 0.500000 0.444349
Si Si7 0.132573 0.311053 0.056631
O O1 0.500000 0.366481 0.634453
O O2 0.563766 0.500000 0.621551
O O3 0.589266 0.357873 0.675560
O O4 0.581803 0.331382 0.584567
O O5 0.381495 0.250000 0.750000
O O6 0.330254 0.262481 0.671941
O O7 0.333857 0.407447 0.727598
O O8 0.250000 0.250000 0.621350
O O9 0.337779 0.226740 0.582502
O O10 0.299054 0.096598 0.641896
O O11 0.750000 0.500000 0.250000
O O12 0.720139 0.500000 0.333467
O O13 0.752033 0.000000 0.581701
O O14 0.703608 0.500000 0.500000
O O15 0.665190 0.594466 0.432762
O O16 0.127522 0.300695 0.000000
#
# Coordination Sequence:
#
# PCOD9511154 Si02
#       7
#    32  32  32  16  16  16  32
#     4  10  20  37  59  81 107 140 180 232 289 335
#     4  11  23  37  53  80 109 144 187 225 273 329
#     4  11  21  33  52  74 110 150 185 221 265 317
#     4  12  22  32  54  77 111 147 185 228 266 316
#     4  12  20  34  48  74 107 149 193 223 254 308
#     4  10  18  28  48  72 105 141 175 215 260 312
#     4  10  20  34  52  80 112 144 180 223 276 331
#
# _framework density 16.378836
#
# number of rings (size 3 to 8) (size 9 to 14) (size 15 to 20)
#    0.000    1.273    5.455    2.182    0.000    1.818 
#    0.000    0.909    0.000    0.000    0.000    5.727 
#    0.000    5.818    0.000    0.000    0.000    0.000 
#
# Total GULP energy -245605.456061 kJ/mol
# GULP energy per Si atom -5581.942183 kJ/mol
# Density = 1.634156 g / cm^3
# Si number density = 16.378836 Si / 1000 Ang^3
#
#
#
# Elastic Constant Matrix: (Units=GPa)
#
#
# Indices 1 2 3 4 5 6 
#
# 1 96.4063 24.8771 34.2618 0.0000 0.0000 0.0000
# 2 24.8771 81.2001 16.1808 0.0000 0.0000 0.0000
# 3 34.2618 16.1808 64.0219 0.0000 0.0000 0.0000
# 4 0.0000 0.0000 0.0000 19.3271 0.0000 0.0000
# 5 0.0000 0.0000 0.0000 0.0000 18.9193 0.0000
# 6 0.0000 0.0000 0.0000 0.0000 0.0000 19.5379
#
#
#
# Elastic Compliance Matrix: (Units=1/GPa)
#
#
# Indices 1 2 3 4 5 6 
#
# 1 0.013394 -0.002817 -0.006456 0.000000 0.000000 0.000000
# 2 -0.002817 0.013561 -0.001920 0.000000 0.000000 0.000000
# 3 -0.006456 -0.001920 0.019560 0.000000 0.000000 0.000000
# 4 0.000000 0.000000 0.000000 0.051741 0.000000 0.000000
# 5 0.000000 0.000000 0.000000 0.000000 0.052856 0.000000
# 6 0.000000 0.000000 0.000000 0.000000 0.000000 0.051183
#
#
# Mechanical properties :
#
#
# Convention : Reuss Voigt Hill
#
# Bulk Modulus (GPa) = 41.44362 43.58531 42.51447
# Shear Modulus (GPa) = 21.48479 22.64411 22.06445
#
# Velocity S-wave (km/s) = 3.62573 3.72226 3.67431
# Velocity P-wave (km/s) = 6.54874 6.71879 6.63431
#
# Compressibility (1/GPa) = 0.02412916
#
# Stress axis : x y z
#
# Youngs Moduli (GPa) = 74.65998 73.74161 51.12527
#
# Poissons Ratio (x) = 0.20773 0.33006
# Poissons Ratio (y) = 0.21032 0.09815
# Poissons Ratio (z) = 0.48200 0.14157
#
# Static dielectric constant tensor:
#      x y z
#    x 1.524520 0.000000 0.000000 
#    y 0.000000 1.556710 0.000000 
#    z 0.000000 0.000000 1.584730 
# 
# From -- ./inp_files/11590.got.cif
#   From: 2010.05.17/outbox.cif.g08.bks.cpg/sg69_6_cif.got.tgz:11590.got - 2010.06.03 19:29:58.
