data_PCOD9511945
_publ_section_title
;
Structure prediction by ZEFSAII (Michael W. Deem and Ramdas Pophale) SiO2 
 PCOD9511945
Probable space group: F M M M
;
_chemical_formula_sum "Si O2"
_cell_formula_units_Z 176
_cell_length_a 22.897057
_cell_length_b 18.862262
_cell_length_c 24.460548
_cell_angle_alpha 90.000000
_cell_angle_beta 90.000000
_cell_angle_gamma 90.000000
_cell_volume 10564.273124
_symmetry_space_group_name_H-M "F M M M"
_symmetry_group_IT_number 69
_symmetry_cell_setting 'orthorhombic'
loop_
_space_group_symop_operation_xyz
x,y,z
-x,-y,z
x,-y,-z
-x,y,-z
-x,-y,-z
x,y,-z
-x,y,z
x,-y,z
x,1/2+y,1/2+z
-x,1/2-y,1/2+z
x,1/2-y,1/2-z
-x,1/2+y,1/2-z
-x,1/2-y,1/2-z
x,1/2+y,1/2-z
-x,1/2+y,1/2+z
x,1/2-y,1/2+z
1/2+x,y,1/2+z
1/2-x,-y,1/2+z
1/2+x,-y,1/2-z
1/2-x,y,1/2-z
1/2-x,-y,1/2-z
1/2+x,y,1/2-z
1/2-x,y,1/2+z
1/2+x,-y,1/2+z
1/2+x,1/2+y,z
1/2-x,1/2-y,z
1/2+x,1/2-y,-z
1/2-x,1/2+y,-z
1/2-x,1/2-y,-z
1/2+x,1/2+y,-z
1/2-x,1/2+y,z
1/2+x,1/2-y,z
loop_
_atom_site_type_symbol
_atom_site_label
_atom_site_fract_x
_atom_site_fract_y
_atom_site_fract_z
Si Si1 0.338821 0.081664 0.065628
Si Si2 0.395959 0.165177 0.372865
Si Si3 0.225286 0.670521 0.564823
Si Si4 0.567482 0.835649 0.255203
Si Si5 0.000000 0.915059 0.065229
Si Si6 0.569622 0.831359 0.866871
O O1 0.277310 0.117615 0.080868
O O2 0.391974 0.125215 0.090884
O O3 0.340887 0.000000 0.082486
O O4 0.342452 0.085316 0.000000
O O5 0.333032 0.159574 0.400623
O O6 0.396885 0.143386 0.308846
O O7 0.443517 0.120062 0.406290
O O8 0.415611 0.247934 0.373115
O O9 0.212535 0.661550 0.500000
O O10 0.250000 0.750000 0.572287
O O11 0.500000 0.856544 0.264910
O O12 0.568018 0.750000 0.250000
O O13 0.585363 0.858253 0.194445
O O14 0.000000 0.000000 0.072764
O O15 0.000000 0.900553 0.000000
O O16 0.500000 0.839614 0.873499
#
# Coordination Sequence:
#
# PCOD9511945 Si02
#       6
#    32  32  32  32  16  32
#     4  10  22  39  56  79 115 149 177 222 278 323
#     4  11  18  35  59  81 106 146 186 223 270 324
#     4  10  20  34  55  81 107 142 190 227 259 317
#     4   8  15  30  54  82 110 138 176 223 271 319
#     4  11  24  36  49  80 117 139 173 234 287 324
#     4  10  19  34  59  87 110 140 181 226 269 323
#
# _framework density 16.659925000000001
#
# number of rings (size 3 to 8) (size 9 to 14) (size 15 to 20)
#    0.000    2.091    3.636    1.636    0.000    2.182 
#    0.000    4.545    0.000    1.091    0.000    0.000 
#    0.000    0.000    0.000    0.000    0.000    0.000 
#
# Total GULP energy -245308.430340 kJ/mol
# GULP energy per Si atom -5575.191599 kJ/mol
# Density = 1.662201 g / cm^3
# Si number density = 16.659925 Si / 1000 Ang^3
#
#
#
# Elastic Constant Matrix: (Units=GPa)
#
#
# Indices 1 2 3 4 5 6 
#
# 1 116.2776 45.1812 56.8119 0.0000 0.0000 0.0000
# 2 45.1812 77.9332 42.1408 0.0000 0.0000 0.0000
# 3 56.8119 42.1408 70.8301 0.0000 0.0000 0.0000
# 4 0.0000 0.0000 0.0000 14.3551 0.0000 0.0000
# 5 0.0000 0.0000 0.0000 0.0000 24.1713 0.0000
# 6 0.0000 0.0000 0.0000 0.0000 0.0000 21.4268
#
#
#
# Elastic Compliance Matrix: (Units=1/GPa)
#
#
# Indices 1 2 3 4 5 6 
#
# 1 0.014650 -0.003154 -0.009874 0.000000 0.000000 0.000000
# 2 -0.003154 0.019596 -0.009129 0.000000 0.000000 0.000000
# 3 -0.009874 -0.009129 0.027470 0.000000 0.000000 0.000000
# 4 0.000000 0.000000 0.000000 0.069662 0.000000 0.000000
# 5 0.000000 0.000000 0.000000 0.000000 0.041371 0.000000
# 6 0.000000 0.000000 0.000000 0.000000 0.000000 0.046671
#
#
# Mechanical properties :
#
#
# Convention : Reuss Voigt Hill
#
# Bulk Modulus (GPa) = 57.46646 61.47875 59.47261
# Shear Modulus (GPa) = 18.55045 20.05108 19.30076
#
# Velocity S-wave (km/s) = 3.34050 3.47299 3.40739
# Velocity P-wave (km/s) = 7.03188 7.28454 7.15932
#
# Compressibility (1/GPa) = 0.01740145
#
# Stress axis : x y z
#
# Youngs Moduli (GPa) = 68.25929 51.02958 36.40378
#
# Poissons Ratio (x) = 0.16095 0.35945
# Poissons Ratio (y) = 0.21529 0.33234
# Poissons Ratio (z) = 0.67400 0.46586
#
# Static dielectric constant tensor:
#      x y z
#    x 1.525550 0.000000 0.000000 
#    y 0.000000 1.553330 0.000000 
#    z 0.000000 0.000000 1.578130 
# 
# From -- ./inp_files/41814.got.cif
#   From: 2010.05.17/outbox.cif.g08.bks.cpg/sg69_21_cif.got.tgz:41814.got - 2010.06.03 19:29:58.
