data_PCOD9511293
_publ_section_title
;
Structure prediction by ZEFSAII (Michael W. Deem and Ramdas Pophale) SiO2 
 PCOD9511293
Probable space group: F M M M
;
_chemical_formula_sum "Si O2"
_cell_formula_units_Z 144
_cell_length_a 15.444058
_cell_length_b 17.912900
_cell_length_c 29.145710
_cell_angle_alpha 90.000000
_cell_angle_beta 90.000000
_cell_angle_gamma 90.000000
_cell_volume 8063.098491
_symmetry_space_group_name_H-M "F M M M"
_symmetry_group_IT_number 69
_symmetry_cell_setting 'orthorhombic'
loop_
_space_group_symop_operation_xyz
x,y,z
-x,-y,z
x,-y,-z
-x,y,-z
-x,-y,-z
x,y,-z
-x,y,z
x,-y,z
x,1/2+y,1/2+z
-x,1/2-y,1/2+z
x,1/2-y,1/2-z
-x,1/2+y,1/2-z
-x,1/2-y,1/2-z
x,1/2+y,1/2-z
-x,1/2+y,1/2+z
x,1/2-y,1/2+z
1/2+x,y,1/2+z
1/2-x,-y,1/2+z
1/2+x,-y,1/2-z
1/2-x,y,1/2-z
1/2-x,-y,1/2-z
1/2+x,y,1/2-z
1/2-x,y,1/2+z
1/2+x,-y,1/2+z
1/2+x,1/2+y,z
1/2-x,1/2-y,z
1/2+x,1/2-y,-z
1/2-x,1/2+y,-z
1/2-x,1/2-y,-z
1/2+x,1/2+y,-z
1/2-x,1/2+y,z
1/2+x,1/2-y,z
loop_
_atom_site_type_symbol
_atom_site_label
_atom_site_fract_x
_atom_site_fract_y
_atom_site_fract_z
Si Si1 0.097739 0.152571 0.904645
Si Si2 0.606065 0.411775 0.000000
Si Si3 0.155154 0.719095 0.312352
Si Si4 0.402533 0.369455 0.274077
Si Si5 0.281679 0.000000 0.801396
Si Si6 0.905758 0.000000 0.849318
O O1 0.146635 0.199081 0.865614
O O2 0.090649 0.072092 0.881046
O O3 0.000000 0.183583 0.909574
O O4 0.134271 0.133755 0.954772
O O5 0.631937 0.500000 0.000000
O O6 0.500000 0.412702 0.000000
O O7 0.250000 0.750000 0.302138
O O8 0.132171 0.651063 0.277489
O O9 0.096260 0.789240 0.298897
O O10 0.500000 0.398702 0.270528
O O11 0.341769 0.425934 0.302640
O O12 0.250000 0.000000 0.750000
O O13 0.191386 0.000000 0.828608
O O14 0.000000 0.000000 0.822796
#
# Coordination Sequence:
#
# PCOD9511293 Si02
#       6
#    32  16  32  32  16  16
#     4  10  18  31  52  77 104 136 175 214 266 330
#     4   9  16  30  51  78 108 135 168 219 272 326
#     4  11  21  35  52  74 106 142 177 220 268 325
#     4  11  22  37  54  73 103 144 186 225 271 320
#     4  12  23  35  49  74 103 133 178 231 265 311
#     4  10  20  32  50  75 105 140 174 212 266 331
#
# _framework density 17.85914
#
# number of rings (size 3 to 8) (size 9 to 14) (size 15 to 20)
#    0.000    1.444    1.111    8.333    0.000    2.667 
#    0.000    0.556    0.000    0.000    0.000    0.000 
#    0.000    0.000    0.000   14.000    0.000    2.222 
#
# Total GULP energy -200556.906682 kJ/mol
# GULP energy per Si atom -5571.025186 kJ/mol
# Density = 1.781849 g / cm^3
# Si number density = 17.859140 Si / 1000 Ang^3
#
#
#
# Elastic Constant Matrix: (Units=GPa)
#
#
# Indices 1 2 3 4 5 6 
#
# 1 124.5859 22.9943 36.8927 0.0000 0.0000 0.0000
# 2 22.9943 65.4120 29.3977 0.0000 0.0000 0.0000
# 3 36.8927 29.3977 134.3674 0.0000 0.0000 0.0000
# 4 0.0000 0.0000 0.0000 15.3529 0.0000 0.0000
# 5 0.0000 0.0000 0.0000 0.0000 -503.7644 0.0000
# 6 0.0000 0.0000 0.0000 0.0000 0.0000 66.6828
#
#
#
# Elastic Compliance Matrix: (Units=1/GPa)
#
#
# Indices 1 2 3 4 5 6 
#
# 1 0.009035 -0.002286 -0.001981 0.000000 0.000000 0.000000
# 2 -0.002286 0.017533 -0.003208 0.000000 0.000000 0.000000
# 3 -0.001981 -0.003208 0.008688 0.000000 0.000000 0.000000
# 4 0.000000 0.000000 0.000000 0.065134 0.000000 0.000000
# 5 0.000000 0.000000 0.000000 0.000000 -0.001985 0.000000
# 6 0.000000 0.000000 0.000000 0.000000 0.000000 0.014996
#
#
# Mechanical properties :
#
#
# Convention : Reuss Voigt Hill
#
# Bulk Modulus (GPa) = 49.24548 55.88163 52.56356
# Shear Modulus (GPa) = 37.00403 -68.67370 -15.83484
#
# Velocity S-wave (km/s) = 4.55685 -6.20777 -2.98090
# Velocity P-wave (km/s) = 7.43780 4.47480 4.20101
#
# Compressibility (1/GPa) = 0.02030643
#
# Stress axis : x y z
#
# Youngs Moduli (GPa) = 110.68078 57.03460 115.10098
#
# Poissons Ratio (x) = 0.13038 0.22796
# Poissons Ratio (y) = 0.25301 0.36929
# Poissons Ratio (z) = 0.21921 0.18299
#
# Static dielectric constant tensor:
#      x y z
#    x 2.108320 0.000000 0.000000 
#    y 0.000000 1.673340 0.000000 
#    z 0.000000 0.000000 1.672540 
# 
# From -- ./inp_files/19516.got.cif
#   From: 2010.05.17/outbox.cif.g08.bks.cpg/sg69_10_cif.got.tgz:19516.got - 2010.06.03 19:29:58.
