data_PCOD9511802
_publ_section_title
;
Structure prediction by ZEFSAII (Michael W. Deem and Ramdas Pophale) SiO2 
 PCOD9511802
Probable space group: F M M M
;
_chemical_formula_sum "Si O2"
_cell_formula_units_Z 192
_cell_length_a 14.465890
_cell_length_b 22.271122
_cell_length_c 32.225028
_cell_angle_alpha 90.000000
_cell_angle_beta 90.000000
_cell_angle_gamma 90.000000
_cell_volume 10381.988864
_symmetry_space_group_name_H-M "F M M M"
_symmetry_group_IT_number 69
_symmetry_cell_setting 'orthorhombic'
loop_
_space_group_symop_operation_xyz
x,y,z
-x,-y,z
x,-y,-z
-x,y,-z
-x,-y,-z
x,y,-z
-x,y,z
x,-y,z
x,1/2+y,1/2+z
-x,1/2-y,1/2+z
x,1/2-y,1/2-z
-x,1/2+y,1/2-z
-x,1/2-y,1/2-z
x,1/2+y,1/2-z
-x,1/2+y,1/2+z
x,1/2-y,1/2+z
1/2+x,y,1/2+z
1/2-x,-y,1/2+z
1/2+x,-y,1/2-z
1/2-x,y,1/2-z
1/2-x,-y,1/2-z
1/2+x,y,1/2-z
1/2-x,y,1/2+z
1/2+x,-y,1/2+z
1/2+x,1/2+y,z
1/2-x,1/2-y,z
1/2+x,1/2-y,-z
1/2-x,1/2+y,-z
1/2-x,1/2-y,-z
1/2+x,1/2+y,-z
1/2-x,1/2+y,z
1/2+x,1/2-y,z
loop_
_atom_site_type_symbol
_atom_site_label
_atom_site_fract_x
_atom_site_fract_y
_atom_site_fract_z
Si Si1 0.389271 0.244351 0.163306
Si Si2 0.098270 0.568870 0.907230
Si Si3 0.209447 0.928413 0.867852
Si Si4 0.099835 0.605823 0.000000
Si Si5 0.263504 0.342419 0.201155
Si Si6 0.891523 0.674732 0.414042
Si Si7 0.216140 0.182885 0.000000
O O1 0.500000 0.235395 0.167103
O O2 0.350808 0.299209 0.191441
O O3 0.324994 0.189442 0.178609
O O4 0.368068 0.268899 0.116522
O O5 0.094669 0.500000 0.893155
O O6 0.194101 0.591829 0.889588
O O7 0.101568 0.569891 0.957089
O O8 0.000000 0.598731 0.895058
O O9 0.218426 0.905991 0.820713
O O10 0.133355 0.886487 0.889531
O O11 0.196210 0.000000 0.872410
O O12 0.191117 0.644379 0.000000
O O13 0.000000 0.639213 0.000000
O O14 0.250000 0.345935 0.250000
O O15 0.840201 0.673118 0.457798
O O16 0.000000 0.678256 0.421377
O O17 0.250000 0.250000 0.000000
#
# Coordination Sequence:
#
# PCOD9511802 Si02
#       7
#    32  32  32  16  32  32  16
#     4   9  19  36  61  85 112 148 189 235 290 350
#     4   9  17  31  53  80 108 140 182 230 274 320
#     4  10  21  37  58  81 113 156 197 237 285 339
#     4  10  19  33  54  81 110 144 185 220 268 329
#     4  10  21  35  57  87 116 143 185 239 293 355
#     4  10  22  40  59  84 116 154 197 239 282 330
#     4  12  25  36  57  83 121 152 181 238 286 336
#
# _framework density 18.493566000000001
#
# number of rings (size 3 to 8) (size 9 to 14) (size 15 to 20)
#    0.000    2.167    1.667    1.500    4.667    4.333 
#    0.000    3.750    0.000    1.000    0.000    4.667 
#    0.000    0.000    0.000    0.000    0.000    0.000 
#
# Total GULP energy -267404.247530 kJ/mol
# GULP energy per Si atom -5570.921824 kJ/mol
# Density = 1.845147 g / cm^3
# Si number density = 18.493566 Si / 1000 Ang^3
#
#
#
# Elastic Constant Matrix: (Units=GPa)
#
#
# Indices 1 2 3 4 5 6 
#
# 1 101.6476 21.7556 37.3296 0.0000 0.0000 0.0000
# 2 21.7556 61.5355 34.7302 0.0000 0.0000 0.0000
# 3 37.3296 34.7302 127.8458 0.0000 0.0000 0.0000
# 4 0.0000 0.0000 0.0000 73.4204 0.0000 0.0000
# 5 0.0000 0.0000 0.0000 0.0000 11.9230 0.0000
# 6 0.0000 0.0000 0.0000 0.0000 0.0000 9.8228
#
#
#
# Elastic Compliance Matrix: (Units=1/GPa)
#
#
# Indices 1 2 3 4 5 6 
#
# 1 0.011343 -0.002529 -0.002625 0.000000 0.000000 0.000000
# 2 -0.002529 0.019757 -0.004629 0.000000 0.000000 0.000000
# 3 -0.002625 -0.004629 0.009846 0.000000 0.000000 0.000000
# 4 0.000000 0.000000 0.000000 0.013620 0.000000 0.000000
# 5 0.000000 0.000000 0.000000 0.000000 0.083872 0.000000
# 6 0.000000 0.000000 0.000000 0.000000 0.000000 0.101804
#
#
# Mechanical properties :
#
#
# Convention : Reuss Voigt Hill
#
# Bulk Modulus (GPa) = 46.77062 53.18443 49.97752
# Shear Modulus (GPa) = 18.73115 32.18079 25.45597
#
# Velocity S-wave (km/s) = 3.18598 4.17598 3.71412
# Velocity P-wave (km/s) = 6.23531 7.21613 6.74358
#
# Compressibility (1/GPa) = 0.02138095
#
# Stress axis : x y z
#
# Youngs Moduli (GPa) = 88.15844 50.61425 101.56519
#
# Poissons Ratio (x) = 0.12799 0.26662
# Poissons Ratio (y) = 0.22293 0.47013
# Poissons Ratio (z) = 0.23143 0.23429
#
# Static dielectric constant tensor:
#      x y z
#    x 1.671040 0.000000 0.000000 
#    y 0.000000 1.632550 0.000000 
#    z 0.000000 0.000000 1.575100 
# 
# From -- ./inp_files/41139.got.cif
#   From: 2010.05.17/outbox.cif.g08.bks.cpg/sg69_21_cif.got.tgz:41139.got - 2010.06.03 19:29:58.
