data_PCOD9511623
_publ_section_title
;
Structure prediction by ZEFSAII (Michael W. Deem and Ramdas Pophale) SiO2 
 PCOD9511623
Probable space group: F M M M
;
_chemical_formula_sum "Si O2"
_cell_formula_units_Z 112
_cell_length_a 19.618225
_cell_length_b 7.865758
_cell_length_c 41.383959
_cell_angle_alpha 90.000000
_cell_angle_beta 90.000000
_cell_angle_gamma 90.000000
_cell_volume 6386.050182
_symmetry_space_group_name_H-M "F M M M"
_symmetry_group_IT_number 69
_symmetry_cell_setting 'orthorhombic'
loop_
_space_group_symop_operation_xyz
x,y,z
-x,-y,z
x,-y,-z
-x,y,-z
-x,-y,-z
x,y,-z
-x,y,z
x,-y,z
x,1/2+y,1/2+z
-x,1/2-y,1/2+z
x,1/2-y,1/2-z
-x,1/2+y,1/2-z
-x,1/2-y,1/2-z
x,1/2+y,1/2-z
-x,1/2+y,1/2+z
x,1/2-y,1/2+z
1/2+x,y,1/2+z
1/2-x,-y,1/2+z
1/2+x,-y,1/2-z
1/2-x,y,1/2-z
1/2-x,-y,1/2-z
1/2+x,y,1/2-z
1/2-x,y,1/2+z
1/2+x,-y,1/2+z
1/2+x,1/2+y,z
1/2-x,1/2-y,z
1/2+x,1/2-y,-z
1/2-x,1/2+y,-z
1/2-x,1/2-y,-z
1/2+x,1/2+y,-z
1/2-x,1/2+y,z
1/2+x,1/2-y,z
loop_
_atom_site_type_symbol
_atom_site_label
_atom_site_fract_x
_atom_site_fract_y
_atom_site_fract_z
Si Si1 0.916804 0.500000 0.037168
Si Si2 0.329093 0.701689 0.213951
Si Si3 0.916941 0.804698 0.916659
Si Si4 0.078256 0.707740 0.344284
O O1 0.895236 0.331610 0.056719
O O2 0.000000 0.500000 0.037171
O O3 0.894580 0.500000 0.000000
O O4 0.332895 0.500000 0.212044
O O5 0.352305 0.750000 0.250000
O O6 0.250000 0.750000 0.210618
O O7 0.374703 0.771334 0.184763
O O8 0.897172 0.748120 0.880383
O O9 0.000000 0.807309 0.916383
O O10 0.894942 0.000000 0.922471
O O11 0.077433 0.500000 0.343855
O O12 0.000000 0.763898 0.340197
#
# Coordination Sequence:
#
# PCOD9511623 Si02
#       4
#    16  32  32  32
#     4   9  16  24  36  60  92 121 150 182 219 274
#     4  10  19  32  47  64  90 120 150 188 235 279
#     4   8  14  26  41  58  84 118 152 185 227 270
#     4   8  15  29  48  65  85 119 156 191 229 271
#
# _framework density 17.538228
#
# number of rings (size 3 to 8) (size 9 to 14) (size 15 to 20)
#    0.000    3.286    0.000    3.429    0.000    1.143 
#    5.143    2.857    0.000    0.000    0.000    0.000 
#    0.000    1.143    0.571    0.000    0.000    0.000 
#
# Total GULP energy -155915.111663 kJ/mol
# GULP energy per Si atom -5568.396845 kJ/mol
# Density = 1.749831 g / cm^3
# Si number density = 17.538228 Si / 1000 Ang^3
#
#
#
# Elastic Constant Matrix: (Units=GPa)
#
#
# Indices 1 2 3 4 5 6 
#
# 1 22.6926 16.0814 52.3350 0.0000 0.0000 0.0000
# 2 16.0814 70.7182 69.6945 0.0000 0.0000 0.0000
# 3 52.3350 69.6945 204.2570 0.0000 0.0000 0.0000
# 4 0.0000 0.0000 0.0000 22.7773 0.0000 0.0000
# 5 0.0000 0.0000 0.0000 0.0000 -2.4092 0.0000
# 6 0.0000 0.0000 0.0000 0.0000 0.0000 5.4412
#
#
#
# Elastic Compliance Matrix: (Units=1/GPa)
#
#
# Indices 1 2 3 4 5 6 
#
# 1 0.108506 0.004105 -0.029202 0.000000 0.000000 0.000000
# 2 0.004105 0.021460 -0.008374 0.000000 0.000000 0.000000
# 3 -0.029202 -0.008374 0.015235 0.000000 0.000000 0.000000
# 4 0.000000 0.000000 0.000000 0.043903 0.000000 0.000000
# 5 0.000000 0.000000 0.000000 0.000000 -0.415084 0.000000
# 6 0.000000 0.000000 0.000000 0.000000 0.000000 0.183782
#
#
# Mechanical properties :
#
#
# Convention : Reuss Voigt Hill
#
# Bulk Modulus (GPa) = 12.77812 63.76551 38.27182
# Shear Modulus (GPa) = 98.36341 15.79901 57.08121
#
# Velocity S-wave (km/s) = 7.49713 3.00464 5.71116
# Velocity P-wave (km/s) = 9.06886 6.96234 8.08450
#
# Compressibility (1/GPa) = 0.07825879
#
# Stress axis : x y z
#
# Youngs Moduli (GPa) = 9.21609 46.59802 65.63660
#
# Poissons Ratio (x) = -0.19129 1.91674
# Poissons Ratio (y) = -0.03783 0.54966
# Poissons Ratio (z) = 0.26913 0.39022
#
# Static dielectric constant tensor:
#      x y z
#    x 1.578930 0.000000 0.000000 
#    y 0.000000 1.622480 0.000000 
#    z 0.000000 0.000000 1.621400 
# 
# From -- ./inp_files/3967.got.cif
#   From: 2010.05.17/outbox.cif.g08.bks.cpg/sg69_2_cif.got.tgz:3967.got - 2010.06.03 19:29:58.
