data_PCOD9511853
_publ_section_title
;
Structure prediction by ZEFSAII (Michael W. Deem and Ramdas Pophale) SiO2 
 PCOD9511853
Probable space group: F M M M
;
_chemical_formula_sum "Si O2"
_cell_formula_units_Z 160
_cell_length_a 18.826266
_cell_length_b 25.307204
_cell_length_c 16.684415
_cell_angle_alpha 90.000000
_cell_angle_beta 90.000000
_cell_angle_gamma 90.000000
_cell_volume 7949.125256
_symmetry_space_group_name_H-M "F M M M"
_symmetry_group_IT_number 69
_symmetry_cell_setting 'orthorhombic'
loop_
_space_group_symop_operation_xyz
x,y,z
-x,-y,z
x,-y,-z
-x,y,-z
-x,-y,-z
x,y,-z
-x,y,z
x,-y,z
x,1/2+y,1/2+z
-x,1/2-y,1/2+z
x,1/2-y,1/2-z
-x,1/2+y,1/2-z
-x,1/2-y,1/2-z
x,1/2+y,1/2-z
-x,1/2+y,1/2+z
x,1/2-y,1/2+z
1/2+x,y,1/2+z
1/2-x,-y,1/2+z
1/2+x,-y,1/2-z
1/2-x,y,1/2-z
1/2-x,-y,1/2-z
1/2+x,y,1/2-z
1/2-x,y,1/2+z
1/2+x,-y,1/2+z
1/2+x,1/2+y,z
1/2-x,1/2-y,z
1/2+x,1/2-y,-z
1/2-x,1/2+y,-z
1/2-x,1/2-y,-z
1/2+x,1/2+y,-z
1/2-x,1/2+y,z
1/2+x,1/2-y,z
loop_
_atom_site_type_symbol
_atom_site_label
_atom_site_fract_x
_atom_site_fract_y
_atom_site_fract_z
Si Si1 0.818113 0.401530 0.861193
Si Si2 0.921383 0.437790 0.000000
Si Si3 0.819909 0.215792 0.412885
Si Si4 0.419423 0.372760 0.784837
Si Si5 0.896104 0.750000 0.250000
Si Si6 0.666635 0.560522 0.904051
O O1 0.798245 0.343938 0.894761
O O2 0.860905 0.393490 0.778991
O O3 0.744704 0.433242 0.863766
O O4 0.875689 0.423374 0.922934
O O5 0.929215 0.500000 0.000000
O O6 0.000000 0.412677 0.000000
O O7 0.857799 0.218100 0.500000
O O8 0.750000 0.250000 0.418634
O O9 0.859269 0.235747 0.334118
O O10 0.500000 0.392955 0.771760
O O11 0.424642 0.308999 0.773655
O O12 0.387073 0.396081 0.867273
O O13 0.641694 0.500000 0.889723
O O14 0.675185 0.567508 0.000000
#
# Coordination Sequence:
#
# PCOD9511853 Si02
#       6
#    32  16  32  32  16  32
#     4  11  21  40  64  92 124 165 210 264 324 386
#     4  11  22  36  59  90 123 157 196 249 315 380
#     4  10  19  33  57  91 126 162 208 266 322 383
#     4  11  25  43  64  93 132 172 218 270 328 391
#     4  10  22  38  62  88 125 174 219 270 327 390
#     4  11  24  43  68  96 130 173 222 272 324 391
#
# _framework density 20.128
#
# number of rings (size 3 to 8) (size 9 to 14) (size 15 to 20)
#    0.000    1.300    2.000    3.600    0.000    8.800 
#    0.000    1.000    0.000    0.000    0.000    0.000 
#    0.000    0.000    0.000    0.000    0.000    0.000 
#
# Total GULP energy -222775.283225 kJ/mol
# GULP energy per Si atom -5569.382081 kJ/mol
# Density = 2.008219 g / cm^3
# Si number density = 20.128000 Si / 1000 Ang^3
#
#
#
# Elastic Constant Matrix: (Units=GPa)
#
#
# Indices 1 2 3 4 5 6 
#
# 1 82.5559 43.8121 26.3454 0.0000 0.0000 0.0000
# 2 43.8121 91.1705 37.5311 0.0000 0.0000 0.0000
# 3 26.3454 37.5311 101.2103 0.0000 0.0000 0.0000
# 4 0.0000 0.0000 0.0000 35.7023 0.0000 0.0000
# 5 0.0000 0.0000 0.0000 0.0000 5.3095 0.0000
# 6 0.0000 0.0000 0.0000 0.0000 0.0000 5.9470
#
#
#
# Elastic Compliance Matrix: (Units=1/GPa)
#
#
# Indices 1 2 3 4 5 6 
#
# 1 0.016475 -0.007260 -0.001596 0.000000 0.000000 0.000000
# 2 -0.007260 0.016144 -0.004097 0.000000 0.000000 0.000000
# 3 -0.001596 -0.004097 0.011815 0.000000 0.000000 0.000000
# 4 0.000000 0.000000 0.000000 0.028009 0.000000 0.000000
# 5 0.000000 0.000000 0.000000 0.000000 0.188341 0.000000
# 6 0.000000 0.000000 0.000000 0.000000 0.000000 0.168152
#
#
# Mechanical properties :
#
#
# Convention : Reuss Voigt Hill
#
# Bulk Modulus (GPa) = 53.97252 54.47932 54.22592
# Shear Modulus (GPa) = 10.84555 20.54163 15.69359
#
# Velocity S-wave (km/s) = 2.32379 3.19807 2.79532
# Velocity P-wave (km/s) = 5.83719 6.38452 6.11698
#
# Compressibility (1/GPa) = 0.01852795
#
# Stress axis : x y z
#
# Youngs Moduli (GPa) = 60.69668 61.94352 84.63751
#
# Poissons Ratio (x) = 0.44972 0.13511
# Poissons Ratio (y) = 0.44066 0.34673
# Poissons Ratio (z) = 0.09689 0.25376
#
# Static dielectric constant tensor:
#      x y z
#    x 1.727540 0.000000 0.000000 
#    y 0.000000 1.720270 0.000000 
#    z 0.000000 0.000000 1.825430 
# 
# From -- ./inp_files/23180.got.cif
#   From: 2010.05.17/outbox.cif.g08.bks.cpg/sg69_12_cif.got.tgz:23180.got - 2010.06.03 19:29:58.
