data_PCOD9511383
_publ_section_title
;
Structure prediction by ZEFSAII (Michael W. Deem and Ramdas Pophale) SiO2 
 PCOD9511383
Probable space group: F M M M
;
_chemical_formula_sum "Si O2"
_cell_formula_units_Z 144
_cell_length_a 18.563127
_cell_length_b 23.254396
_cell_length_c 14.709919
_cell_angle_alpha 90.000000
_cell_angle_beta 90.000000
_cell_angle_gamma 90.000000
_cell_volume 6349.894079
_symmetry_space_group_name_H-M "F M M M"
_symmetry_group_IT_number 69
_symmetry_cell_setting 'orthorhombic'
loop_
_space_group_symop_operation_xyz
x,y,z
-x,-y,z
x,-y,-z
-x,y,-z
-x,-y,-z
x,y,-z
-x,y,z
x,-y,z
x,1/2+y,1/2+z
-x,1/2-y,1/2+z
x,1/2-y,1/2-z
-x,1/2+y,1/2-z
-x,1/2-y,1/2-z
x,1/2+y,1/2-z
-x,1/2+y,1/2+z
x,1/2-y,1/2+z
1/2+x,y,1/2+z
1/2-x,-y,1/2+z
1/2+x,-y,1/2-z
1/2-x,y,1/2-z
1/2-x,-y,1/2-z
1/2+x,y,1/2-z
1/2-x,y,1/2+z
1/2+x,-y,1/2+z
1/2+x,1/2+y,z
1/2-x,1/2-y,z
1/2+x,1/2-y,-z
1/2-x,1/2+y,-z
1/2-x,1/2-y,-z
1/2+x,1/2+y,-z
1/2-x,1/2+y,z
1/2+x,1/2-y,z
loop_
_atom_site_type_symbol
_atom_site_label
_atom_site_fract_x
_atom_site_fract_y
_atom_site_fract_z
Si Si1 0.786269 0.934094 0.650806
Si Si2 0.667047 0.258354 0.889078
Si Si3 0.585159 0.500000 0.894436
Si Si4 0.417350 0.856850 0.889564
Si Si5 0.145066 0.617752 0.397971
O O1 0.750000 0.933475 0.750000
O O2 0.864349 0.906187 0.646177
O O3 0.730426 0.894385 0.596112
O O4 0.786415 0.000000 0.618367
O O5 0.750000 0.250000 0.860192
O O6 0.617982 0.204412 0.864635
O O7 0.637132 0.319706 0.854904
O O8 0.668062 0.262089 0.000000
O O9 0.500000 0.500000 0.893911
O O10 0.612969 0.559920 0.854197
O O11 0.611528 0.500000 0.000000
O O12 0.500000 0.861873 0.859319
O O13 0.416520 0.860197 0.000000
O O14 0.113311 0.620751 0.500000
#
# Coordination Sequence:
#
# PCOD9511383 Si02
#       5
#    32  32  16  32  32
#     4  11  23  38  57  82 115 154 200 241 294 358
#     4   9  16  29  54  87 115 146 189 237 291 346
#     4   9  18  30  47  76 105 131 177 238 286 324
#     4  10  21  38  62  93 124 152 193 251 306 356
#     4  10  18  32  57  82 107 145 193 241 286 345
#
# _framework density 22.677544000000001
#
# number of rings (size 3 to 8) (size 9 to 14) (size 15 to 20)
#    0.000    2.111    3.333    0.667    0.000    2.667 
#    0.000    8.889    0.000    1.333    0.000    0.000 
#    0.000    0.000    0.000    0.000    0.000    0.000 
#
# Total GULP energy -201117.549632 kJ/mol
# GULP energy per Si atom -5586.598601 kJ/mol
# Density = 2.262593 g / cm^3
# Si number density = 22.677544 Si / 1000 Ang^3
#
#
#
# Elastic Constant Matrix: (Units=GPa)
#
#
# Indices 1 2 3 4 5 6 
#
# 1 125.3164 32.9326 8.7642 0.0000 0.0000 0.0000
# 2 32.9326 129.5102 16.4158 0.0000 0.0000 0.0000
# 3 8.7642 16.4158 60.1439 0.0000 0.0000 0.0000
# 4 0.0000 0.0000 0.0000 448.9917 0.0000 0.0000
# 5 0.0000 0.0000 0.0000 0.0000 10.4812 0.0000
# 6 0.0000 0.0000 0.0000 0.0000 0.0000 36.5973
#
#
#
# Elastic Compliance Matrix: (Units=1/GPa)
#
#
# Indices 1 2 3 4 5 6 
#
# 1 0.008578 -0.002095 -0.000678 0.000000 0.000000 0.000000
# 2 -0.002095 0.008510 -0.002017 0.000000 0.000000 0.000000
# 3 -0.000678 -0.002017 0.017276 0.000000 0.000000 0.000000
# 4 0.000000 0.000000 0.000000 0.002227 0.000000 0.000000
# 5 0.000000 0.000000 0.000000 0.000000 0.095408 0.000000
# 6 0.000000 0.000000 0.000000 0.000000 0.000000 0.027324
#
#
# Mechanical properties :
#
#
# Convention : Reuss Voigt Hill
#
# Bulk Modulus (GPa) = 40.35106 47.91064 44.13085
# Shear Modulus (GPa) = 28.22205 116.33792 72.27998
#
# Velocity S-wave (km/s) = 3.53156 7.17024 5.65174
# Velocity P-wave (km/s) = 5.87037 9.47220 7.87984
#
# Compressibility (1/GPa) = 0.02478250
#
# Stress axis : x y z
#
# Youngs Moduli (GPa) = 116.57924 117.51009 57.88305
#
# Poissons Ratio (x) = 0.24622 0.03925
# Poissons Ratio (y) = 0.24427 0.11677
# Poissons Ratio (z) = 0.07905 0.23706
#
# Static dielectric constant tensor:
#      x y z
#    x 1.796320 0.000000 0.000000 
#    y 0.000000 1.840010 0.000000 
#    z 0.000000 0.000000 1.918790 
# 
# From -- ./inp_files/22853.got.cif
#   From: 2010.05.17/outbox.cif.g08.bks.cpg/sg69_12_cif.got.tgz:22853.got - 2010.06.03 19:29:58.
