data_PCOD9511498
_publ_section_title
;
Structure prediction by ZEFSAII (Michael W. Deem and Ramdas Pophale) SiO2 
 PCOD9511498
Probable space group: F M M M
;
_chemical_formula_sum "Si O2"
_cell_formula_units_Z 160
_cell_length_a 15.103699
_cell_length_b 23.525443
_cell_length_c 27.489728
_cell_angle_alpha 90.000000
_cell_angle_beta 90.000000
_cell_angle_gamma 90.000000
_cell_volume 9767.683413
_symmetry_space_group_name_H-M "F M M M"
_symmetry_group_IT_number 69
_symmetry_cell_setting 'orthorhombic'
loop_
_space_group_symop_operation_xyz
x,y,z
-x,-y,z
x,-y,-z
-x,y,-z
-x,-y,-z
x,y,-z
-x,y,z
x,-y,z
x,1/2+y,1/2+z
-x,1/2-y,1/2+z
x,1/2-y,1/2-z
-x,1/2+y,1/2-z
-x,1/2-y,1/2-z
x,1/2+y,1/2-z
-x,1/2+y,1/2+z
x,1/2-y,1/2+z
1/2+x,y,1/2+z
1/2-x,-y,1/2+z
1/2+x,-y,1/2-z
1/2-x,y,1/2-z
1/2-x,-y,1/2-z
1/2+x,y,1/2-z
1/2-x,y,1/2+z
1/2+x,-y,1/2+z
1/2+x,1/2+y,z
1/2-x,1/2-y,z
1/2+x,1/2-y,-z
1/2-x,1/2+y,-z
1/2-x,1/2-y,-z
1/2+x,1/2+y,-z
1/2-x,1/2+y,z
1/2+x,1/2-y,z
loop_
_atom_site_type_symbol
_atom_site_label
_atom_site_fract_x
_atom_site_fract_y
_atom_site_fract_z
Si Si1 0.400383 0.930926 0.556063
Si Si2 0.355945 0.757086 0.693706
Si Si3 0.599575 0.865200 0.175207
Si Si4 0.898456 0.382779 0.708876
Si Si5 0.235786 0.933521 0.861575
O O1 0.385493 0.914010 0.500000
O O2 0.500000 0.912533 0.570619
O O3 0.323755 0.913270 0.592858
O O4 0.401154 0.000000 0.557184
O O5 0.383795 0.750000 0.750000
O O6 0.250000 0.750000 0.691251
O O7 0.395010 0.702705 0.666583
O O8 0.383658 0.821381 0.682928
O O9 0.500000 0.885118 0.164887
O O10 0.616793 0.874841 0.233241
O O11 0.675808 0.897600 0.146536
O O12 0.827893 0.424429 0.685008
O O13 0.000000 0.400968 0.702030
O O14 0.256522 0.000000 0.867305
#
# Coordination Sequence:
#
# PCOD9511498 Si02
#       5
#    32  32  32  32  32
#     4   8  15  30  51  71  89 111 145 194 245 281
#     4   9  15  28  48  65  85 117 160 205 238 258
#     4  10  20  32  45  64  94 131 165 192 220 261
#     4  10  19  30  46  68  93 123 159 198 235 268
#     4  11  21  31  45  67  96 126 155 186 227 282
#
# _framework density 16.380547
#
# number of rings (size 3 to 8) (size 9 to 14) (size 15 to 20)
#    0.000    2.400    2.000    2.400    0.000    5.600 
#    0.000    2.000    0.000    0.600    0.000    5.600 
#    0.000    3.200    0.000    0.000    0.000    0.000 
#
# Total GULP energy -222876.952553 kJ/mol
# GULP energy per Si atom -5571.923814 kJ/mol
# Density = 1.634326 g / cm^3
# Si number density = 16.380547 Si / 1000 Ang^3
#
#
#
# Elastic Constant Matrix: (Units=GPa)
#
#
# Indices 1 2 3 4 5 6 
#
# 1 126.3267 39.2969 51.8715 0.0000 0.0000 0.0000
# 2 39.2969 48.5485 17.2268 0.0000 0.0000 0.0000
# 3 51.8715 17.2268 52.4499 0.0000 0.0000 0.0000
# 4 0.0000 0.0000 0.0000 5.9346 0.0000 0.0000
# 5 0.0000 0.0000 0.0000 0.0000 19.1184 0.0000
# 6 0.0000 0.0000 0.0000 0.0000 0.0000 17.1614
#
#
#
# Elastic Compliance Matrix: (Units=1/GPa)
#
#
# Indices 1 2 3 4 5 6 
#
# 1 0.015754 -0.008176 -0.012895 0.000000 0.000000 0.000000
# 2 -0.008176 0.027559 -0.000965 0.000000 0.000000 0.000000
# 3 -0.012895 -0.000965 0.032136 0.000000 0.000000 0.000000
# 4 0.000000 0.000000 0.000000 0.168503 0.000000 0.000000
# 5 0.000000 0.000000 0.000000 0.000000 0.052306 0.000000
# 6 0.000000 0.000000 0.000000 0.000000 0.000000 0.058270
#
#
# Mechanical properties :
#
#
# Convention : Reuss Voigt Hill
#
# Bulk Modulus (GPa) = 31.87220 49.34617 40.60918
# Shear Modulus (GPa) = 12.22316 16.37155 14.29736
#
# Velocity S-wave (km/s) = 2.73463 3.16484 2.95757
# Velocity P-wave (km/s) = 5.42868 6.59888 6.04217
#
# Compressibility (1/GPa) = 0.03137530
#
# Stress axis : x y z
#
# Youngs Moduli (GPa) = 63.47430 36.28609 31.11800
#
# Poissons Ratio (x) = 0.29669 0.40127
# Poissons Ratio (y) = 0.51900 0.03003
# Poissons Ratio (z) = 0.81851 0.03502
#
# Static dielectric constant tensor:
#      x y z
#    x 1.564180 0.000000 0.000000 
#    y 0.000000 1.577740 0.000000 
#    z 0.000000 0.000000 1.544000 
# 
# From -- ./inp_files/18002.got.cif
#   From: 2010.05.17/outbox.cif.g08.bks.cpg/sg69_10_cif.got.tgz:18002.got - 2010.06.03 19:29:58.
