data_PCOD9511252
_publ_section_title
;
Structure prediction by ZEFSAII (Michael W. Deem and Ramdas Pophale) SiO2 
 PCOD9511252
Probable space group: F M M M
;
_chemical_formula_sum "Si O2"
_cell_formula_units_Z 160
_cell_length_a 22.020439
_cell_length_b 21.128388
_cell_length_c 17.715829
_cell_angle_alpha 90.000000
_cell_angle_beta 90.000000
_cell_angle_gamma 90.000000
_cell_volume 8242.402454
_symmetry_space_group_name_H-M "F M M M"
_symmetry_group_IT_number 69
_symmetry_cell_setting 'orthorhombic'
loop_
_space_group_symop_operation_xyz
x,y,z
-x,-y,z
x,-y,-z
-x,y,-z
-x,-y,-z
x,y,-z
-x,y,z
x,-y,z
x,1/2+y,1/2+z
-x,1/2-y,1/2+z
x,1/2-y,1/2-z
-x,1/2+y,1/2-z
-x,1/2-y,1/2-z
x,1/2+y,1/2-z
-x,1/2+y,1/2+z
x,1/2-y,1/2+z
1/2+x,y,1/2+z
1/2-x,-y,1/2+z
1/2+x,-y,1/2-z
1/2-x,y,1/2-z
1/2-x,-y,1/2-z
1/2+x,y,1/2-z
1/2-x,y,1/2+z
1/2+x,-y,1/2+z
1/2+x,1/2+y,z
1/2-x,1/2-y,z
1/2+x,1/2-y,-z
1/2-x,1/2+y,-z
1/2-x,1/2-y,-z
1/2+x,1/2+y,-z
1/2-x,1/2+y,z
1/2+x,1/2-y,z
loop_
_atom_site_type_symbol
_atom_site_label
_atom_site_fract_x
_atom_site_fract_y
_atom_site_fract_z
Si Si1 0.069144 0.809567 0.583666
Si Si2 0.865603 0.792896 0.181541
Si Si3 0.932427 0.606307 0.225965
Si Si4 0.257106 0.673494 0.089245
Si Si5 0.802079 0.569240 0.186516
O O1 0.090351 0.826083 0.500000
O O2 0.109138 0.755243 0.620090
O O3 0.066648 0.867900 0.640423
O O4 0.000000 0.785613 0.579703
O O5 0.838422 0.750000 0.250000
O O6 0.919041 0.833504 0.220018
O O7 0.817834 0.836831 0.138680
O O8 0.868303 0.570360 0.226059
O O9 0.000000 0.579798 0.242348
O O10 0.250000 0.750000 0.096159
O O11 0.207526 0.628479 0.129658
O O12 0.261823 0.659547 0.000000
O O13 0.795105 0.500000 0.149057
O O14 0.750000 0.574420 0.250000
#
# Coordination Sequence:
#
# PCOD9511252 Si02
#       5
#    32  32  32  32  32
#     4   9  17  29  48  80 122 160 194 241 301 362
#     4  10  18  30  52  82 120 158 198 246 303 357
#     4  10  20  35  58  84 113 153 203 251 299 357
#     4  11  23  37  60  93 124 161 206 254 307 365
#     4  11  24  42  62  86 119 163 206 247 302 362
#
# _framework density 19.411816000000002
#
# number of rings (size 3 to 8) (size 9 to 14) (size 15 to 20)
#    0.000    1.800    2.000    3.600    0.000    5.600 
#    0.000    0.000    0.000    0.000    0.000    4.200 
#    0.000    3.200    0.000    0.000    0.000    0.000 
#
# Total GULP energy -222855.707633 kJ/mol
# GULP energy per Si atom -5571.392691 kJ/mol
# Density = 1.936763 g / cm^3
# Si number density = 19.411816 Si / 1000 Ang^3
#
#
#
# Elastic Constant Matrix: (Units=GPa)
#
#
# Indices 1 2 3 4 5 6 
#
# 1 135.1581 25.3949 37.2848 0.0000 0.0000 0.0000
# 2 25.3949 79.7921 22.5776 0.0000 0.0000 0.0000
# 3 37.2848 22.5776 79.4341 0.0000 0.0000 0.0000
# 4 0.0000 0.0000 0.0000 11.2827 0.0000 0.0000
# 5 0.0000 0.0000 0.0000 0.0000 18.0661 0.0000
# 6 0.0000 0.0000 0.0000 0.0000 0.0000 -1.7175
#
#
#
# Elastic Compliance Matrix: (Units=1/GPa)
#
#
# Indices 1 2 3 4 5 6 
#
# 1 0.008720 -0.001759 -0.003593 0.000000 0.000000 0.000000
# 2 -0.001759 0.013983 -0.003149 0.000000 0.000000 0.000000
# 3 -0.003593 -0.003149 0.015171 0.000000 0.000000 0.000000
# 4 0.000000 0.000000 0.000000 0.088631 0.000000 0.000000
# 5 0.000000 0.000000 0.000000 0.000000 0.055352 0.000000
# 6 0.000000 0.000000 0.000000 0.000000 0.000000 -0.582254
#
#
# Mechanical properties :
#
#
# Convention : Reuss Voigt Hill
#
# Bulk Modulus (GPa) = 47.90994 51.65543 49.78269
# Shear Modulus (GPa) = -13.28247 19.46806 3.09280
#
# Velocity S-wave (km/s) = -2.61865 3.17029 1.26361
# Velocity P-wave (km/s) = 3.94858 6.33001 5.27543
#
# Compressibility (1/GPa) = 0.02087249
#
# Stress axis : x y z
#
# Youngs Moduli (GPa) = 114.67322 71.51381 65.91638
#
# Poissons Ratio (x) = 0.12577 0.23686
# Poissons Ratio (y) = 0.20167 0.20757
# Poissons Ratio (z) = 0.41206 0.22520
#
# Static dielectric constant tensor:
#      x y z
#    x 1.776130 0.000000 0.000000 
#    y 0.000000 1.699420 0.000000 
#    z 0.000000 0.000000 1.664850 
# 
# From -- ./inp_files/24575.got.cif
#   From: 2010.05.17/outbox.cif.g08.bks.cpg/sg69_13_cif.got.tgz:24575.got - 2010.06.03 19:29:58.
