data_PCOD9511125
_publ_section_title
;
Structure prediction by ZEFSAII (Michael W. Deem and Ramdas Pophale) SiO2 
 PCOD9511125
Probable space group: F M M M
;
_chemical_formula_sum "Si O2"
_cell_formula_units_Z 112
_cell_length_a 14.379261
_cell_length_b 24.437998
_cell_length_c 20.709122
_cell_angle_alpha 90.000000
_cell_angle_beta 90.000000
_cell_angle_gamma 90.000000
_cell_volume 7277.192751
_symmetry_space_group_name_H-M "F M M M"
_symmetry_group_IT_number 69
_symmetry_cell_setting 'orthorhombic'
loop_
_space_group_symop_operation_xyz
x,y,z
-x,-y,z
x,-y,-z
-x,y,-z
-x,-y,-z
x,y,-z
-x,y,z
x,-y,z
x,1/2+y,1/2+z
-x,1/2-y,1/2+z
x,1/2-y,1/2-z
-x,1/2+y,1/2-z
-x,1/2-y,1/2-z
x,1/2+y,1/2-z
-x,1/2+y,1/2+z
x,1/2-y,1/2+z
1/2+x,y,1/2+z
1/2-x,-y,1/2+z
1/2+x,-y,1/2-z
1/2-x,y,1/2-z
1/2-x,-y,1/2-z
1/2+x,y,1/2-z
1/2-x,y,1/2+z
1/2+x,-y,1/2+z
1/2+x,1/2+y,z
1/2-x,1/2-y,z
1/2+x,1/2-y,-z
1/2-x,1/2+y,-z
1/2-x,1/2-y,-z
1/2+x,1/2+y,-z
1/2-x,1/2+y,z
1/2+x,1/2-y,z
loop_
_atom_site_type_symbol
_atom_site_label
_atom_site_fract_x
_atom_site_fract_y
_atom_site_fract_z
Si Si1 0.392778 0.500000 0.421659
Si Si2 0.210194 0.311805 0.678922
Si Si3 0.000000 0.280825 0.317963
Si Si4 0.685511 0.117140 0.075291
Si Si5 0.000000 0.689906 0.928145
O O1 0.500000 0.500000 0.398494
O O2 0.397694 0.500000 0.500000
O O3 0.339531 0.555452 0.403964
O O4 0.250000 0.326132 0.750000
O O5 0.250000 0.250000 0.665970
O O6 0.098372 0.311605 0.679137
O O7 0.246297 0.352387 0.623999
O O8 0.000000 0.250000 0.250000
O O9 0.000000 0.236117 0.374594
O O10 0.589847 0.151558 0.077516
O O11 0.716713 0.116959 0.000000
O O12 0.000000 0.714706 0.000000
#
# Coordination Sequence:
#
# PCOD9511125 Si02
#       5
#    16  32  16  32  16
#     4   9  16  30  53  79 105 135 172 215 260 300
#     4  11  21  34  52  75 103 138 172 207 256 311
#     4  12  20  34  51  72 104 140 173 203 248 317
#     4  10  19  32  51  78 107 134 170 215 259 302
#     4  10  18  27  48  78 104 129 166 212 252 300
#
# _framework density 15.390549999999999
#
# number of rings (size 3 to 8) (size 9 to 14) (size 15 to 20)
#    0.000    1.571    7.143    0.000    0.000    1.714 
#    0.000    0.714    0.000    0.857    0.000    3.000 
#    0.000    0.000    0.000    0.000    0.000    0.000 
#
# Total GULP energy -156111.093351 kJ/mol
# GULP energy per Si atom -5575.396191 kJ/mol
# Density = 1.535552 g / cm^3
# Si number density = 15.390550 Si / 1000 Ang^3
#
#
#
# Elastic Constant Matrix: (Units=GPa)
#
#
# Indices 1 2 3 4 5 6 
#
# 1 137.0227 55.7206 61.9082 0.0000 0.0000 0.0000
# 2 55.7206 84.4557 74.0741 0.0000 0.0000 0.0000
# 3 61.9082 74.0741 111.4149 0.0000 0.0000 0.0000
# 4 0.0000 0.0000 0.0000 17.6333 0.0000 0.0000
# 5 0.0000 0.0000 0.0000 0.0000 5.5542 0.0000
# 6 0.0000 0.0000 0.0000 0.0000 0.0000 8.9367
#
#
#
# Elastic Compliance Matrix: (Units=1/GPa)
#
#
# Indices 1 2 3 4 5 6 
#
# 1 0.010352 -0.004281 -0.002906 0.000000 0.000000 0.000000
# 2 -0.004281 0.030174 -0.017682 0.000000 0.000000 0.000000
# 3 -0.002906 -0.017682 0.022346 0.000000 0.000000 0.000000
# 4 0.000000 0.000000 0.000000 0.056711 0.000000 0.000000
# 5 0.000000 0.000000 0.000000 0.000000 0.180044 0.000000
# 6 0.000000 0.000000 0.000000 0.000000 0.000000 0.111899
#
#
# Mechanical properties :
#
#
# Convention : Reuss Voigt Hill
#
# Bulk Modulus (GPa) = 76.14127 79.58879 77.86503
# Shear Modulus (GPa) = 10.73789 15.83752 13.28771
#
# Velocity S-wave (km/s) = 2.64426 3.21135 2.94150
# Velocity P-wave (km/s) = 7.67482 8.09786 7.88918
#
# Compressibility (1/GPa) = 0.01313348
#
# Stress axis : x y z
#
# Youngs Moduli (GPa) = 96.60110 33.14165 44.75112
#
# Poissons Ratio (x) = 0.14189 0.13003
# Poissons Ratio (y) = 0.41357 0.79129
# Poissons Ratio (z) = 0.28069 0.58601
#
# Static dielectric constant tensor:
#      x y z
#    x 1.561610 0.000000 0.000000 
#    y 0.000000 1.499390 0.000000 
#    z 0.000000 0.000000 1.509290 
# 
# From -- ./inp_files/9091.got.cif
#   From: 2010.05.17/outbox.cif.g08.bks.cpg/sg69_5_cif.got.tgz:9091.got - 2010.06.03 19:29:58.
