data_PCOD9511435
_publ_section_title
;
Structure prediction by ZEFSAII (Michael W. Deem and Ramdas Pophale) SiO2 
 PCOD9511435
Probable space group: F M M M
;
_chemical_formula_sum "Si O2"
_cell_formula_units_Z 144
_cell_length_a 18.521387
_cell_length_b 20.112796
_cell_length_c 22.895165
_cell_angle_alpha 90.000000
_cell_angle_beta 90.000000
_cell_angle_gamma 90.000000
_cell_volume 8528.835396
_symmetry_space_group_name_H-M "F M M M"
_symmetry_group_IT_number 69
_symmetry_cell_setting 'orthorhombic'
loop_
_space_group_symop_operation_xyz
x,y,z
-x,-y,z
x,-y,-z
-x,y,-z
-x,-y,-z
x,y,-z
-x,y,z
x,-y,z
x,1/2+y,1/2+z
-x,1/2-y,1/2+z
x,1/2-y,1/2-z
-x,1/2+y,1/2-z
-x,1/2-y,1/2-z
x,1/2+y,1/2-z
-x,1/2+y,1/2+z
x,1/2-y,1/2+z
1/2+x,y,1/2+z
1/2-x,-y,1/2+z
1/2+x,-y,1/2-z
1/2-x,y,1/2-z
1/2-x,-y,1/2-z
1/2+x,y,1/2-z
1/2-x,y,1/2+z
1/2+x,-y,1/2+z
1/2+x,1/2+y,z
1/2-x,1/2-y,z
1/2+x,1/2-y,-z
1/2-x,1/2+y,-z
1/2-x,1/2-y,-z
1/2+x,1/2+y,-z
1/2-x,1/2+y,z
1/2+x,1/2-y,z
loop_
_atom_site_type_symbol
_atom_site_label
_atom_site_fract_x
_atom_site_fract_y
_atom_site_fract_z
Si Si1 0.921389 0.764225 0.319123
Si Si2 0.585371 0.500000 0.189134
Si Si3 0.634186 0.133742 0.623873
Si Si4 0.782030 0.144871 0.317125
Si Si5 0.182079 0.000000 0.705513
Si Si6 0.087137 0.079304 0.000000
O O1 0.921547 0.750000 0.250000
O O2 0.913692 0.694705 0.353148
O O3 0.850029 0.808048 0.328063
O O4 0.000000 0.794815 0.333643
O O5 0.500000 0.500000 0.180740
O O6 0.617401 0.566654 0.160501
O O7 0.609981 0.500000 0.256043
O O8 0.715438 0.155132 0.639572
O O9 0.618292 0.114062 0.557624
O O10 0.750000 0.152544 0.250000
O O11 0.809232 0.069513 0.326304
O O12 0.250000 0.000000 0.750000
O O13 0.000000 0.084842 0.000000
O O14 0.103813 0.000000 0.000000
#
# Coordination Sequence:
#
# PCOD9511435 Si02
#       6
#    32  16  32  32  16  16
#     4  11  22  35  55  85 119 158 200 245 301 354
#     4  12  20  31  55  84 114 152 192 237 298 364
#     4  12  22  37  59  84 119 156 198 240 301 358
#     4  11  20  36  58  82 117 155 195 244 295 359
#     4  10  18  34  50  80 114 145 191 234 295 344
#     4  11  24  40  59  88 123 160 203 250 299 352
#
# _framework density 16.883900000000001
#
# number of rings (size 3 to 8) (size 9 to 14) (size 15 to 20)
#    0.000    0.778    7.778    2.667    0.000    2.667 
#    0.000    2.222    0.000    0.000    0.000    0.000 
#    0.000    0.889    0.000    0.000    0.000    0.000 
#
# Total GULP energy -200901.713852 kJ/mol
# GULP energy per Si atom -5580.603163 kJ/mol
# Density = 1.684547 g / cm^3
# Si number density = 16.883900 Si / 1000 Ang^3
#
#
#
# Elastic Constant Matrix: (Units=GPa)
#
#
# Indices 1 2 3 4 5 6 
#
# 1 148.6770 51.2246 35.5665 0.0000 0.0000 0.0000
# 2 51.2246 94.6170 23.8267 0.0000 0.0000 0.0000
# 3 35.5665 23.8267 87.4174 0.0000 0.0000 0.0000
# 4 0.0000 0.0000 0.0000 17.6192 0.0000 0.0000
# 5 0.0000 0.0000 0.0000 0.0000 25.5795 0.0000
# 6 0.0000 0.0000 0.0000 0.0000 0.0000 25.3492
#
#
#
# Elastic Compliance Matrix: (Units=1/GPa)
#
#
# Indices 1 2 3 4 5 6 
#
# 1 0.008723 -0.004111 -0.002429 0.000000 0.000000 0.000000
# 2 -0.004111 0.013285 -0.001948 0.000000 0.000000 0.000000
# 3 -0.002429 -0.001948 0.012959 0.000000 0.000000 0.000000
# 4 0.000000 0.000000 0.000000 0.056756 0.000000 0.000000
# 5 0.000000 0.000000 0.000000 0.000000 0.039094 0.000000
# 6 0.000000 0.000000 0.000000 0.000000 0.000000 0.039449
#
#
# Mechanical properties :
#
#
# Convention : Reuss Voigt Hill
#
# Bulk Modulus (GPa) = 55.58391 61.32747 58.45569
# Shear Modulus (GPa) = 25.87459 28.38248 27.12854
#
# Velocity S-wave (km/s) = 3.91896 4.10449 4.01280
# Velocity P-wave (km/s) = 7.31235 7.67231 7.49449
#
# Compressibility (1/GPa) = 0.01799082
#
# Stress axis : x y z
#
# Youngs Moduli (GPa) = 114.63396 75.27105 77.16911
#
# Poissons Ratio (x) = 0.30945 0.18742
# Poissons Ratio (y) = 0.47128 0.15036
# Poissons Ratio (z) = 0.27841 0.14666
#
# Static dielectric constant tensor:
#      x y z
#    x 1.610310 0.000000 0.000000 
#    y 0.000000 1.596250 0.000000 
#    z 0.000000 0.000000 1.550150 
# 
# From -- ./inp_files/24500.got.cif
#   From: 2010.05.17/outbox.cif.g08.bks.cpg/sg69_13_cif.got.tgz:24500.got - 2010.06.03 19:29:58.
