data_PCOD9511776
_publ_section_title
;
Structure prediction by ZEFSAII (Michael W. Deem and Ramdas Pophale) SiO2 
 PCOD9511776
Probable space group: F M M M
;
_chemical_formula_sum "Si O2"
_cell_formula_units_Z 160
_cell_length_a 17.582416
_cell_length_b 32.270666
_cell_length_c 14.801008
_cell_angle_alpha 90.000000
_cell_angle_beta 90.000000
_cell_angle_gamma 90.000000
_cell_volume 8398.036794
_symmetry_space_group_name_H-M "F M M M"
_symmetry_group_IT_number 69
_symmetry_cell_setting 'orthorhombic'
loop_
_space_group_symop_operation_xyz
x,y,z
-x,-y,z
x,-y,-z
-x,y,-z
-x,-y,-z
x,y,-z
-x,y,z
x,-y,z
x,1/2+y,1/2+z
-x,1/2-y,1/2+z
x,1/2-y,1/2-z
-x,1/2+y,1/2-z
-x,1/2-y,1/2-z
x,1/2+y,1/2-z
-x,1/2+y,1/2+z
x,1/2-y,1/2+z
1/2+x,y,1/2+z
1/2-x,-y,1/2+z
1/2+x,-y,1/2-z
1/2-x,y,1/2-z
1/2-x,-y,1/2-z
1/2+x,y,1/2-z
1/2-x,y,1/2+z
1/2+x,-y,1/2+z
1/2+x,1/2+y,z
1/2-x,1/2-y,z
1/2+x,1/2-y,-z
1/2-x,1/2+y,-z
1/2-x,1/2-y,-z
1/2+x,1/2+y,-z
1/2-x,1/2+y,z
1/2+x,1/2-y,z
loop_
_atom_site_type_symbol
_atom_site_label
_atom_site_fract_x
_atom_site_fract_y
_atom_site_fract_z
Si Si1 0.111830 0.314014 0.105508
Si Si2 0.409497 0.046179 0.000000
Si Si3 0.218966 0.667357 0.396420
Si Si4 0.081657 0.222650 0.889665
Si Si5 0.250000 0.900954 0.250000
Si Si6 0.588850 0.095432 0.182646
O O1 0.202589 0.307726 0.103519
O O2 0.081889 0.270288 0.140656
O O3 0.092309 0.355027 0.162190
O O4 0.088198 0.320837 0.000000
O O5 0.393847 0.072707 0.911727
O O6 0.500000 0.041252 0.000000
O O7 0.374938 0.000000 0.000000
O O8 0.200938 0.656110 0.500000
O O9 0.150980 0.694786 0.357205
O O10 0.237805 0.627653 0.337553
O O11 0.000000 0.203424 0.868505
O O12 0.088884 0.225047 0.000000
O O13 0.336435 0.918866 0.239851
O O14 0.500000 0.086035 0.209965
#
# Coordination Sequence:
#
# PCOD9511776 Si02
#       6
#    32  16  32  32  16  32
#     4   9  15  26  46  69  92 126 173 220 268 315
#     4   9  18  34  60  90 114 137 165 209 273 328
#     4   9  18  32  46  63  94 134 175 219 269 304
#     4   9  16  25  41  64  90 127 176 222 263 309
#     4  10  22  34  52  80 104 142 184 222 263 316
#     4  10  19  33  53  80 111 138 172 218 265 318
#
# _framework density 19.052071000000002
#
# number of rings (size 3 to 8) (size 9 to 14) (size 15 to 20)
#    0.000    2.700    1.000    1.200    1.400    4.000 
#    0.000    8.500    0.000    6.000    0.000    0.000 
#    0.000    0.800    0.000    0.000    0.000    0.000 
#
# Total GULP energy -222669.003176 kJ/mol
# GULP energy per Si atom -5566.725079 kJ/mol
# Density = 1.900871 g / cm^3
# Si number density = 19.052071 Si / 1000 Ang^3
#
#
#
# Elastic Constant Matrix: (Units=GPa)
#
#
# Indices 1 2 3 4 5 6 
#
# 1 149.9977 13.7200 20.0714 0.0000 0.0000 0.0000
# 2 13.7200 36.0380 6.9940 0.0000 0.0000 0.0000
# 3 20.0714 6.9940 34.1180 0.0000 0.0000 0.0000
# 4 0.0000 0.0000 0.0000 -10.8810 0.0000 0.0000
# 5 0.0000 0.0000 0.0000 0.0000 22.5819 0.0000
# 6 0.0000 0.0000 0.0000 0.0000 0.0000 2.6731
#
#
#
# Elastic Compliance Matrix: (Units=1/GPa)
#
#
# Indices 1 2 3 4 5 6 
#
# 1 0.007379 -0.002048 -0.003921 0.000000 0.000000 0.000000
# 2 -0.002048 0.029467 -0.004836 0.000000 0.000000 0.000000
# 3 -0.003921 -0.004836 0.032608 0.000000 0.000000 0.000000
# 4 0.000000 0.000000 0.000000 -0.091903 0.000000 0.000000
# 5 0.000000 0.000000 0.000000 0.000000 0.044283 0.000000
# 6 0.000000 0.000000 0.000000 0.000000 0.000000 0.374091
#
#
# Mechanical properties :
#
#
# Convention : Reuss Voigt Hill
#
# Bulk Modulus (GPa) = 20.90129 33.52495 27.21312
# Shear Modulus (GPa) = 11.53450 14.83268 13.18359
#
# Velocity S-wave (km/s) = 2.46320 2.79325 2.63340
# Velocity P-wave (km/s) = 4.36855 5.29506 4.85396
#
# Compressibility (1/GPa) = 0.04784393
#
# Stress axis : x y z
#
# Youngs Moduli (GPa) = 135.52353 33.93654 30.66725
#
# Poissons Ratio (x) = 0.06951 0.12025
# Poissons Ratio (y) = 0.27758 0.14829
# Poissons Ratio (z) = 0.53139 0.16410
#
# Static dielectric constant tensor:
#      x y z
#    x 1.742050 0.000000 0.000000 
#    y 0.000000 1.658540 0.000000 
#    z 0.000000 0.000000 1.962300 
# 
# From -- ./inp_files/15661.got.cif
#   From: 2010.05.17/outbox.cif.g08.bks.cpg/sg69_8_cif.got.tgz:15661.got - 2010.06.03 19:29:58.
