data_PCOD9511522
_publ_section_title
;
Structure prediction by ZEFSAII (Michael W. Deem and Ramdas Pophale) SiO2 
 PCOD9511522
Probable space group: F M M M
;
_chemical_formula_sum "Si O2"
_cell_formula_units_Z 144
_cell_length_a 27.584017
_cell_length_b 14.214494
_cell_length_c 14.620896
_cell_angle_alpha 90.000000
_cell_angle_beta 90.000000
_cell_angle_gamma 90.000000
_cell_volume 5732.748697
_symmetry_space_group_name_H-M "F M M M"
_symmetry_group_IT_number 69
_symmetry_cell_setting 'orthorhombic'
loop_
_space_group_symop_operation_xyz
x,y,z
-x,-y,z
x,-y,-z
-x,y,-z
-x,-y,-z
x,y,-z
-x,y,z
x,-y,z
x,1/2+y,1/2+z
-x,1/2-y,1/2+z
x,1/2-y,1/2-z
-x,1/2+y,1/2-z
-x,1/2-y,1/2-z
x,1/2+y,1/2-z
-x,1/2+y,1/2+z
x,1/2-y,1/2+z
1/2+x,y,1/2+z
1/2-x,-y,1/2+z
1/2+x,-y,1/2-z
1/2-x,y,1/2-z
1/2-x,-y,1/2-z
1/2+x,y,1/2-z
1/2-x,y,1/2+z
1/2+x,-y,1/2+z
1/2+x,1/2+y,z
1/2-x,1/2-y,z
1/2+x,1/2-y,-z
1/2-x,1/2+y,-z
1/2-x,1/2-y,-z
1/2+x,1/2+y,-z
1/2-x,1/2+y,z
1/2+x,1/2-y,z
loop_
_atom_site_type_symbol
_atom_site_label
_atom_site_fract_x
_atom_site_fract_y
_atom_site_fract_z
Si Si1 0.057244 0.500000 0.106019
Si Si2 0.798390 0.889549 0.145995
Si Si3 0.592030 0.305583 0.605553
Si Si4 0.591036 0.104152 0.395308
Si Si5 0.306210 0.113922 0.139702
O O1 0.073537 0.402141 0.150072
O O2 0.000000 0.500000 0.101457
O O3 0.076556 0.500000 0.000000
O O4 0.850476 0.883512 0.100146
O O5 0.747169 0.855794 0.106626
O O6 0.805371 0.863842 0.251993
O O7 0.787864 0.000000 0.150478
O O8 0.574355 0.303974 0.500000
O O9 0.576620 0.205027 0.646417
O O10 0.649760 0.324572 0.602848
O O11 0.572941 0.101253 0.500000
O O12 0.581151 0.000000 0.354860
O O13 0.315032 0.000000 0.125460
#
# Coordination Sequence:
#
# PCOD9511522 Si02
#       5
#    16  32  32  32  32
#     4   9  18  34  54  77 102 120 145 196 259 311
#     4   8  16  29  44  65  97 137 171 202 240 275
#     4  10  19  30  49  74  97 127 163 201 248 293
#     4   9  18  32  46  64  95 131 170 203 230 277
#     4   9  16  28  45  68 100 130 167 209 240 286
#
# _framework density 25.118841
#
# number of rings (size 3 to 8) (size 9 to 14) (size 15 to 20)
#    0.000    3.000    1.111    1.333    0.000    2.667 
#    0.000    6.667    0.000    0.667    0.000    7.778 
#    0.000    0.000    0.000    0.000    0.000    0.000 
#
# Total GULP energy -200632.829950 kJ/mol
# GULP energy per Si atom -5573.134165 kJ/mol
# Density = 2.506167 g / cm^3
# Si number density = 25.118841 Si / 1000 Ang^3
#
#
#
# Elastic Constant Matrix: (Units=GPa)
#
#
# Indices 1 2 3 4 5 6 
#
# 1 6.1490 11.6542 -6.5690 0.0000 0.0000 0.0000
# 2 11.6542 284.5119 19.3697 0.0000 0.0000 0.0000
# 3 -6.5690 19.3697 66.3440 0.0000 0.0000 0.0000
# 4 0.0000 0.0000 0.0000 10.7822 0.0000 0.0000
# 5 0.0000 0.0000 0.0000 0.0000 9.5930 0.0000
# 6 0.0000 0.0000 0.0000 0.0000 0.0000 -11.7935
#
#
#
# Elastic Compliance Matrix: (Units=1/GPa)
#
#
# Indices 1 2 3 4 5 6 
#
# 1 0.206696 -0.010060 0.023403 0.000000 0.000000 0.000000
# 2 -0.010060 0.004076 -0.002186 0.000000 0.000000 0.000000
# 3 0.023403 -0.002186 0.018028 0.000000 0.000000 0.000000
# 4 0.000000 0.000000 0.000000 0.092745 0.000000 0.000000
# 5 0.000000 0.000000 0.000000 0.000000 0.104242 0.000000
# 6 0.000000 0.000000 0.000000 0.000000 0.000000 -0.084793
#
#
# Mechanical properties :
#
#
# Convention : Reuss Voigt Hill
#
# Bulk Modulus (GPa) = 3.98226 45.10165 24.54196
# Shear Modulus (GPa) = 12.42590 23.88636 18.15613
#
# Velocity S-wave (km/s) = 2.22656 3.08707 2.69143
# Velocity P-wave (km/s) = 2.86338 5.54084 4.41021
#
# Compressibility (1/GPa) = 0.25111345
#
# Stress axis : x y z
#
# Youngs Moduli (GPa) = 4.83803 245.35692 55.46812
#
# Poissons Ratio (x) = 2.46829 -1.29811
# Poissons Ratio (y) = 0.04867 0.12125
# Poissons Ratio (z) = -0.11322 0.53635
#
# Static dielectric constant tensor:
#      x y z
#    x 1.993190 0.000000 0.000000 
#    y 0.000000 2.100860 0.000000 
#    z 0.000000 0.000000 1.928250 
# 
# From -- ./inp_files/21730.got.cif
#   From: 2010.05.17/outbox.cif.g08.bks.cpg/sg69_11_cif.got.tgz:21730.got - 2010.06.03 19:29:58.
