data_PCOD9511268
_publ_section_title
;
Structure prediction by ZEFSAII (Michael W. Deem and Ramdas Pophale) SiO2 
 PCOD9511268
Probable space group: F M M M
;
_chemical_formula_sum "Si O2"
_cell_formula_units_Z 176
_cell_length_a 15.337032
_cell_length_b 28.612730
_cell_length_c 24.699667
_cell_angle_alpha 90.000000
_cell_angle_beta 90.000000
_cell_angle_gamma 90.000000
_cell_volume 10839.062452
_symmetry_space_group_name_H-M "F M M M"
_symmetry_group_IT_number 69
_symmetry_cell_setting 'orthorhombic'
loop_
_space_group_symop_operation_xyz
x,y,z
-x,-y,z
x,-y,-z
-x,y,-z
-x,-y,-z
x,y,-z
-x,y,z
x,-y,z
x,1/2+y,1/2+z
-x,1/2-y,1/2+z
x,1/2-y,1/2-z
-x,1/2+y,1/2-z
-x,1/2-y,1/2-z
x,1/2+y,1/2-z
-x,1/2+y,1/2+z
x,1/2-y,1/2+z
1/2+x,y,1/2+z
1/2-x,-y,1/2+z
1/2+x,-y,1/2-z
1/2-x,y,1/2-z
1/2-x,-y,1/2-z
1/2+x,y,1/2-z
1/2-x,y,1/2+z
1/2+x,-y,1/2+z
1/2+x,1/2+y,z
1/2-x,1/2-y,z
1/2+x,1/2-y,-z
1/2-x,1/2+y,-z
1/2-x,1/2-y,-z
1/2+x,1/2+y,-z
1/2-x,1/2+y,z
1/2+x,1/2-y,z
loop_
_atom_site_type_symbol
_atom_site_label
_atom_site_fract_x
_atom_site_fract_y
_atom_site_fract_z
Si Si1 0.235037 0.554256 0.687555
Si Si2 0.656792 0.146716 0.062723
Si Si3 0.599597 0.052123 0.109088
Si Si4 0.605677 0.555300 0.000000
Si Si5 0.839438 0.382336 0.600724
Si Si6 0.000000 0.320458 0.433884
Si Si7 0.000000 0.289140 0.934331
O O1 0.205649 0.500000 0.684697
O O2 0.250000 0.566462 0.750000
O O3 0.327392 0.556684 0.655629
O O4 0.169384 0.588424 0.655962
O O5 0.616483 0.094846 0.068831
O O6 0.748712 0.144725 0.092569
O O7 0.586305 0.183532 0.084450
O O8 0.673814 0.157076 0.000000
O O9 0.500000 0.055394 0.129296
O O10 0.610358 0.000000 0.085042
O O11 0.647306 0.579809 0.947526
O O12 0.621779 0.500000 0.000000
O O13 0.500000 0.562379 0.000000
O O14 0.917109 0.346274 0.591682
O O15 0.000000 0.265444 0.421876
O O16 0.000000 0.325987 0.500000
O O17 0.000000 0.293566 0.000000
#
# Coordination Sequence:
#
# PCOD9511268 Si02
#       7
#    32  32  32  16  32  16  16
#     4   9  19  35  51  73 104 135 175 217 253 307
#     4  10  18  31  48  73 105 137 171 203 249 318
#     4   9  17  29  47  70  98 132 163 203 256 304
#     4  11  20  32  50  76 114 148 174 205 256 323
#     4  11  19  34  53  75 104 142 172 214 264 310
#     4  11  20  36  52  76 112 136 175 227 263 318
#     4   9  20  32  49  73 105 141 173 214 262 310
#
# _framework density 16.237566000000001
#
# number of rings (size 3 to 8) (size 9 to 14) (size 15 to 20)
#    0.000    2.091    3.636    0.545    0.000    1.818 
#    1.636    3.636    0.000    0.000    0.000   15.273 
#    0.000    0.000    0.000    0.000    0.000    0.000 
#
# Total GULP energy -245184.931576 kJ/mol
# GULP energy per Si atom -5572.384809 kJ/mol
# Density = 1.620061 g / cm^3
# Si number density = 16.237566 Si / 1000 Ang^3
#
#
#
# Elastic Constant Matrix: (Units=GPa)
#
#
# Indices 1 2 3 4 5 6 
#
# 1 102.8481 63.5363 17.4694 0.0000 0.0000 0.0000
# 2 63.5363 120.7071 35.4230 0.0000 0.0000 0.0000
# 3 17.4694 35.4230 65.5731 0.0000 0.0000 0.0000
# 4 0.0000 0.0000 0.0000 16.5339 0.0000 0.0000
# 5 0.0000 0.0000 0.0000 0.0000 8.1511 0.0000
# 6 0.0000 0.0000 0.0000 0.0000 0.0000 7.6748
#
#
#
# Elastic Compliance Matrix: (Units=1/GPa)
#
#
# Indices 1 2 3 4 5 6 
#
# 1 0.014413 -0.007677 0.000307 0.000000 0.000000 0.000000
# 2 -0.007677 0.013934 -0.005482 0.000000 0.000000 0.000000
# 3 0.000307 -0.005482 0.018130 0.000000 0.000000 0.000000
# 4 0.000000 0.000000 0.000000 0.060482 0.000000 0.000000
# 5 0.000000 0.000000 0.000000 0.000000 0.122683 0.000000
# 6 0.000000 0.000000 0.000000 0.000000 0.000000 0.130296
#
#
# Mechanical properties :
#
#
# Convention : Reuss Voigt Hill
#
# Bulk Modulus (GPa) = 48.13763 57.99842 53.06803
# Shear Modulus (GPa) = 12.73668 17.98526 15.36097
#
# Velocity S-wave (km/s) = 2.80374 3.33172 3.07907
# Velocity P-wave (km/s) = 6.33968 7.11314 6.73752
#
# Compressibility (1/GPa) = 0.02077377
#
# Stress axis : x y z
#
# Youngs Moduli (GPa) = 69.37965 71.76587 55.15786
#
# Poissons Ratio (x) = 0.55094 -0.01695
# Poissons Ratio (y) = 0.53262 0.30238
# Poissons Ratio (z) = -0.02131 0.39343
#
# Static dielectric constant tensor:
#      x y z
#    x 1.569770 0.000000 0.000000 
#    y 0.000000 1.551750 0.000000 
#    z 0.000000 0.000000 1.516320 
# 
# From -- ./inp_files/41270.got.cif
#   From: 2010.05.17/outbox.cif.g08.bks.cpg/sg69_21_cif.got.tgz:41270.got - 2010.06.03 19:29:58.
