data_PCOD9511314
_publ_section_title
;
Structure prediction by ZEFSAII (Michael W. Deem and Ramdas Pophale) SiO2 
 PCOD9511314
Probable space group: F M M M
;
_chemical_formula_sum "Si O2"
_cell_formula_units_Z 160
_cell_length_a 14.465903
_cell_length_b 25.630047
_cell_length_c 21.321899
_cell_angle_alpha 90.000000
_cell_angle_beta 90.000000
_cell_angle_gamma 90.000000
_cell_volume 7905.345094
_symmetry_space_group_name_H-M "F M M M"
_symmetry_group_IT_number 69
_symmetry_cell_setting 'orthorhombic'
loop_
_space_group_symop_operation_xyz
x,y,z
-x,-y,z
x,-y,-z
-x,y,-z
-x,-y,-z
x,y,-z
-x,y,z
x,-y,z
x,1/2+y,1/2+z
-x,1/2-y,1/2+z
x,1/2-y,1/2-z
-x,1/2+y,1/2-z
-x,1/2-y,1/2-z
x,1/2+y,1/2-z
-x,1/2+y,1/2+z
x,1/2-y,1/2+z
1/2+x,y,1/2+z
1/2-x,-y,1/2+z
1/2+x,-y,1/2-z
1/2-x,y,1/2-z
1/2-x,-y,1/2-z
1/2+x,y,1/2-z
1/2-x,y,1/2+z
1/2+x,-y,1/2+z
1/2+x,1/2+y,z
1/2-x,1/2-y,z
1/2+x,1/2-y,-z
1/2-x,1/2+y,-z
1/2-x,1/2-y,-z
1/2+x,1/2+y,-z
1/2-x,1/2+y,z
1/2+x,1/2-y,z
loop_
_atom_site_type_symbol
_atom_site_label
_atom_site_fract_x
_atom_site_fract_y
_atom_site_fract_z
Si Si1 0.112656 0.284150 0.810911
Si Si2 0.710875 0.500000 0.070401
Si Si3 0.388130 0.103035 0.615605
Si Si4 0.608355 0.608050 0.259194
Si Si5 0.173175 0.000000 0.305130
Si Si6 0.887247 0.717931 0.429850
O O1 0.137247 0.250000 0.750000
O O2 0.146252 0.342756 0.797687
O O3 0.143804 0.256714 0.874817
O O4 0.000000 0.284336 0.813983
O O5 0.651008 0.447725 0.081425
O O6 0.784879 0.500000 0.125946
O O7 0.748397 0.500000 0.000000
O O8 0.500000 0.099965 0.614526
O O9 0.355078 0.102933 0.688198
O O10 0.360574 0.158277 0.585617
O O11 0.500000 0.619395 0.250649
O O12 0.618929 0.553357 0.293581
O O13 0.250000 0.000000 0.250000
O O14 0.858346 0.732624 0.500000
O O15 0.000000 0.718257 0.428781
#
# Coordination Sequence:
#
# PCOD9511314 Si02
#       6
#    32  16  32  32  16  32
#     4   9  15  27  49  77 108 138 171 214 263 311
#     4  12  25  38  53  76 111 150 182 221 273 327
#     4  10  18  31  54  85 116 144 174 215 271 330
#     4  10  19  34  59  86 109 137 180 230 268 307
#     4  12  23  39  57  77 107 144 186 226 264 319
#     4   9  16  26  44  76 115 145 171 210 262 320
#
# _framework density 20.239471000000002
#
# number of rings (size 3 to 8) (size 9 to 14) (size 15 to 20)
#    0.000    2.000    4.000    1.200    0.000    3.200 
#    0.000    1.000    0.000    6.600    0.000    2.800 
#    0.000    0.000    0.000    0.000    0.000    0.000 
#
# Total GULP energy -223437.744440 kJ/mol
# GULP energy per Si atom -5585.943611 kJ/mol
# Density = 2.019340 g / cm^3
# Si number density = 20.239471 Si / 1000 Ang^3
#
#
#
# Elastic Constant Matrix: (Units=GPa)
#
#
# Indices 1 2 3 4 5 6 
#
# 1 30.1907 -3.8843 8.0757 0.0000 0.0000 0.0000
# 2 -3.8843 135.8362 68.1799 0.0000 0.0000 0.0000
# 3 8.0757 68.1799 187.8140 0.0000 0.0000 0.0000
# 4 0.0000 0.0000 0.0000 25.0186 0.0000 0.0000
# 5 0.0000 0.0000 0.0000 0.0000 11.0336 0.0000
# 6 0.0000 0.0000 0.0000 0.0000 0.0000 -12.5457
#
#
#
# Elastic Compliance Matrix: (Units=1/GPa)
#
#
# Indices 1 2 3 4 5 6 
#
# 1 0.033984 0.002085 -0.002218 0.000000 0.000000 0.000000
# 2 0.002085 0.009130 -0.003404 0.000000 0.000000 0.000000
# 3 -0.002218 -0.003404 0.006656 0.000000 0.000000 0.000000
# 4 0.000000 0.000000 0.000000 0.039970 0.000000 0.000000
# 5 0.000000 0.000000 0.000000 0.000000 0.090632 0.000000
# 6 0.000000 0.000000 0.000000 0.000000 0.000000 -0.079708
#
#
# Mechanical properties :
#
#
# Convention : Reuss Voigt Hill
#
# Bulk Modulus (GPa) = 23.42149 55.39816 39.40982
# Shear Modulus (GPa) = 40.99361 23.46593 32.22977
#
# Velocity S-wave (km/s) = 4.50536 3.40871 3.99484
# Velocity P-wave (km/s) = 6.21785 6.55158 6.38689
#
# Compressibility (1/GPa) = 0.04269584
#
# Stress axis : x y z
#
# Youngs Moduli (GPa) = 29.42522 109.52898 150.25136
#
# Poissons Ratio (x) = -0.22839 0.33329
# Poissons Ratio (y) = -0.06136 0.51146
# Poissons Ratio (z) = 0.06527 0.37284
#
# Static dielectric constant tensor:
#      x y z
#    x 1.745420 0.000000 0.000000 
#    y 0.000000 1.708090 0.000000 
#    z 0.000000 0.000000 1.702560 
# 
# From -- ./inp_files/23189.got.cif
#   From: 2010.05.17/outbox.cif.g08.bks.cpg/sg69_12_cif.got.tgz:23189.got - 2010.06.03 19:29:58.
