data_PCOD9511427
_publ_section_title
;
Structure prediction by ZEFSAII (Michael W. Deem and Ramdas Pophale) SiO2 
 PCOD9511427
Probable space group: F M M M
;
_chemical_formula_sum "Si O2"
_cell_formula_units_Z 160
_cell_length_a 22.263437
_cell_length_b 20.325189
_cell_length_c 14.721603
_cell_angle_alpha 90.000000
_cell_angle_beta 90.000000
_cell_angle_gamma 90.000000
_cell_volume 6661.651445
_symmetry_space_group_name_H-M "F M M M"
_symmetry_group_IT_number 69
_symmetry_cell_setting 'orthorhombic'
loop_
_space_group_symop_operation_xyz
x,y,z
-x,-y,z
x,-y,-z
-x,y,-z
-x,-y,-z
x,y,-z
-x,y,z
x,-y,z
x,1/2+y,1/2+z
-x,1/2-y,1/2+z
x,1/2-y,1/2-z
-x,1/2+y,1/2-z
-x,1/2-y,1/2-z
x,1/2+y,1/2-z
-x,1/2+y,1/2+z
x,1/2-y,1/2+z
1/2+x,y,1/2+z
1/2-x,-y,1/2+z
1/2+x,-y,1/2-z
1/2-x,y,1/2-z
1/2-x,-y,1/2-z
1/2+x,y,1/2-z
1/2-x,y,1/2+z
1/2+x,-y,1/2+z
1/2+x,1/2+y,z
1/2-x,1/2-y,z
1/2+x,1/2-y,-z
1/2-x,1/2+y,-z
1/2-x,1/2-y,-z
1/2+x,1/2+y,-z
1/2-x,1/2+y,z
1/2+x,1/2-y,z
loop_
_atom_site_type_symbol
_atom_site_label
_atom_site_fract_x
_atom_site_fract_y
_atom_site_fract_z
Si Si1 0.570742 0.882599 0.107594
Si Si2 0.500000 0.577804 0.889293
Si Si3 0.872568 0.127770 0.102989
Si Si4 0.744505 0.606075 0.607879
Si Si5 0.852566 0.000000 0.329854
Si Si6 0.835596 0.228214 0.352451
O O1 0.500000 0.874080 0.115375
O O2 0.606705 0.818397 0.137413
O O3 0.595369 0.943024 0.164197
O O4 0.585240 0.895672 0.000000
O O5 0.500000 0.500000 0.868758
O O6 0.562136 0.611844 0.857210
O O7 0.500000 0.584519 0.000000
O O8 0.812215 0.096862 0.145223
O O9 0.854797 0.204348 0.099195
O O10 0.874928 0.101771 0.000000
O O11 0.744625 0.591970 0.500000
O O12 0.698806 0.557297 0.654355
O O13 0.719345 0.680900 0.617549
O O14 0.824678 0.250000 0.250000
#
# Coordination Sequence:
#
# PCOD9511427 Si02
#       6
#    32  16  32  32  16  32
#     4  10  20  35  60  89 120 155 196 242 294 358
#     4   9  20  38  61  88 114 147 197 250 300 350
#     4  10  21  37  61  87 116 152 196 249 297 347
#     4  10  20  35  61  91 120 152 195 244 297 358
#     4  10  18  33  58  92 121 147 187 244 305 355
#     4  11  23  38  58  85 121 157 197 242 294 353
#
# _framework density 24.018066999999999
#
# number of rings (size 3 to 8) (size 9 to 14) (size 15 to 20)
#    0.000    1.900    0.000    5.700    2.800    4.400 
#    0.000    0.000    8.800    4.800    0.000    0.000 
#    0.000    0.000    0.000    0.000    0.000    0.000 
#
# Total GULP energy -222717.157303 kJ/mol
# GULP energy per Si atom -5567.928933 kJ/mol
# Density = 2.396340 g / cm^3
# Si number density = 24.018067 Si / 1000 Ang^3
#
#
#
# Elastic Constant Matrix: (Units=GPa)
#
#
# Indices 1 2 3 4 5 6 
#
# 1 216.7673 45.3050 26.0803 0.0000 0.0000 0.0000
# 2 45.3050 66.9637 10.4725 0.0000 0.0000 0.0000
# 3 26.0803 10.4725 88.2072 0.0000 0.0000 0.0000
# 4 0.0000 0.0000 0.0000 -393.7143 0.0000 0.0000
# 5 0.0000 0.0000 0.0000 0.0000 -12.3872 0.0000
# 6 0.0000 0.0000 0.0000 0.0000 0.0000 17.7439
#
#
#
# Elastic Compliance Matrix: (Units=1/GPa)
#
#
# Indices 1 2 3 4 5 6 
#
# 1 0.005496 -0.003530 -0.001206 0.000000 0.000000 0.000000
# 2 -0.003530 0.017483 -0.001032 0.000000 0.000000 0.000000
# 3 -0.001206 -0.001032 0.011816 0.000000 0.000000 0.000000
# 4 0.000000 0.000000 0.000000 -0.002540 0.000000 0.000000
# 5 0.000000 0.000000 0.000000 0.000000 -0.080729 0.000000
# 6 0.000000 0.000000 0.000000 0.000000 0.000000 0.056357
#
#
# Mechanical properties :
#
#
# Convention : Reuss Voigt Hill
#
# Bulk Modulus (GPa) = 42.99316 59.51710 51.25513
# Shear Modulus (GPa) = 184.00811 -58.33283 62.83764
#
# Velocity S-wave (km/s) = 8.76234 -4.93354 5.12049
# Velocity P-wave (km/s) = 10.96863 2.76027 7.50639
#
# Compressibility (1/GPa) = 0.02325951
#
# Stress axis : x y z
#
# Youngs Moduli (GPa) = 181.94792 57.19839 84.63078
#
# Poissons Ratio (x) = 0.20190 0.10206
# Poissons Ratio (y) = 0.64225 0.08734
# Poissons Ratio (z) = 0.21942 0.05903
#
# Static dielectric constant tensor:
#      x y z
#    x 1.912650 0.000000 0.000000 
#    y 0.000000 1.865920 0.000000 
#    z 0.000000 0.000000 2.026920 
# 
# From -- ./inp_files/24633.got.cif
#   From: 2010.05.17/outbox.cif.g08.bks.cpg/sg69_13_cif.got.tgz:24633.got - 2010.06.03 19:29:58.
