data_PCOD9511294
_publ_section_title
;
Structure prediction by ZEFSAII (Michael W. Deem and Ramdas Pophale) SiO2 
 PCOD9511294
Probable space group: F M M M
;
_chemical_formula_sum "Si O2"
_cell_formula_units_Z 208
_cell_length_a 16.483610
_cell_length_b 28.557437
_cell_length_c 25.951361
_cell_angle_alpha 90.000000
_cell_angle_beta 90.000000
_cell_angle_gamma 90.000000
_cell_volume 12216.075187
_symmetry_space_group_name_H-M "F M M M"
_symmetry_group_IT_number 69
_symmetry_cell_setting 'orthorhombic'
loop_
_space_group_symop_operation_xyz
x,y,z
-x,-y,z
x,-y,-z
-x,y,-z
-x,-y,-z
x,y,-z
-x,y,z
x,-y,z
x,1/2+y,1/2+z
-x,1/2-y,1/2+z
x,1/2-y,1/2-z
-x,1/2+y,1/2-z
-x,1/2-y,1/2-z
x,1/2+y,1/2-z
-x,1/2+y,1/2+z
x,1/2-y,1/2+z
1/2+x,y,1/2+z
1/2-x,-y,1/2+z
1/2+x,-y,1/2-z
1/2-x,y,1/2-z
1/2-x,-y,1/2-z
1/2+x,y,1/2-z
1/2-x,y,1/2+z
1/2+x,-y,1/2+z
1/2+x,1/2+y,z
1/2-x,1/2-y,z
1/2+x,1/2-y,-z
1/2-x,1/2+y,-z
1/2-x,1/2-y,-z
1/2+x,1/2+y,-z
1/2-x,1/2+y,z
1/2+x,1/2-y,z
loop_
_atom_site_type_symbol
_atom_site_label
_atom_site_fract_x
_atom_site_fract_y
_atom_site_fract_z
Si Si1 0.828428 0.183964 0.062109
Si Si2 0.855775 0.286299 0.937650
Si Si3 0.500000 0.651217 0.439103
Si Si4 0.669514 0.054462 0.166028
Si Si5 0.000000 0.948416 0.395046
Si Si6 0.594724 0.056189 0.272912
Si Si7 0.833531 0.411179 0.378519
Si Si8 0.596000 0.000000 0.561763
O O1 0.872674 0.232462 0.077279
O O2 0.734508 0.196326 0.074109
O O3 0.850934 0.137442 0.092737
O O4 0.836454 0.176877 0.000000
O O5 0.921085 0.322895 0.917436
O O6 0.857972 0.285499 0.000000
O O7 0.500000 0.659749 0.500000
O O8 0.500000 0.596260 0.431056
O O9 0.581919 0.054928 0.138534
O O10 0.651422 0.069241 0.224671
O O11 0.738406 0.082821 0.136024
O O12 0.697146 0.000000 0.167145
O O13 0.000000 0.000000 0.419958
O O14 0.500000 0.064103 0.260467
O O15 0.619657 0.082462 0.324651
O O16 0.604087 0.000000 0.281201
O O17 0.861948 0.454139 0.414471
O O18 0.500000 0.000000 0.575408
O O19 0.603016 0.000000 0.500000
#
# Coordination Sequence:
#
# PCOD9511294 Si02
#       8
#    32  32  16  32  16  32  32  16
#     4   9  18  33  52  76 105 136 173 225 267 304
#     4   8  16  33  53  72 100 135 178 223 263 301
#     4  10  18  31  52  77 105 140 175 211 254 318
#     4  10  19  34  52  77 106 142 180 225 268 316
#     4  10  20  33  52  79 117 145 168 208 273 333
#     4  10  19  34  53  74 106 143 181 228 274 313
#     4  12  20  32  55  82 103 140 188 222 262 324
#     4  11  24  40  49  69 117 159 178 203 262 329
#
# _framework density 17.026744000000001
#
# number of rings (size 3 to 8) (size 9 to 14) (size 15 to 20)
#    0.000    2.077    2.308    3.231    0.000    1.385 
#    2.769    0.769    0.000    0.000    0.000   19.385 
#    0.000    0.000    0.000    0.000    0.000    0.000 
#
# Total GULP energy -289888.863877 kJ/mol
# GULP energy per Si atom -5574.785844 kJ/mol
# Density = 1.698799 g / cm^3
# Si number density = 17.026744 Si / 1000 Ang^3
#
#
#
# Elastic Constant Matrix: (Units=GPa)
#
#
# Indices 1 2 3 4 5 6 
#
# 1 65.0603 25.1510 18.7005 0.0000 0.0000 0.0000
# 2 25.1510 108.5674 22.7538 0.0000 0.0000 0.0000
# 3 18.7005 22.7538 40.1871 0.0000 0.0000 0.0000
# 4 0.0000 0.0000 0.0000 15.8290 0.0000 0.0000
# 5 0.0000 0.0000 0.0000 0.0000 18.2417 0.0000
# 6 0.0000 0.0000 0.0000 0.0000 0.0000 13.0186
#
#
#
# Elastic Compliance Matrix: (Units=1/GPa)
#
#
# Indices 1 2 3 4 5 6 
#
# 1 0.018470 -0.002811 -0.007003 0.000000 0.000000 0.000000
# 2 -0.002811 0.010879 -0.004851 0.000000 0.000000 0.000000
# 3 -0.007003 -0.004851 0.030889 0.000000 0.000000 0.000000
# 4 0.000000 0.000000 0.000000 0.063175 0.000000 0.000000
# 5 0.000000 0.000000 0.000000 0.000000 0.054819 0.000000
# 6 0.000000 0.000000 0.000000 0.000000 0.000000 0.076813
#
#
# Mechanical properties :
#
#
# Convention : Reuss Voigt Hill
#
# Bulk Modulus (GPa) = 32.35536 38.55837 35.45686
# Shear Modulus (GPa) = 16.96760 19.23185 18.09972
#
# Velocity S-wave (km/s) = 3.16021 3.36446 3.26393
# Velocity P-wave (km/s) = 5.68857 6.14717 5.92231
#
# Compressibility (1/GPa) = 0.03090678
#
# Stress axis : x y z
#
# Youngs Moduli (GPa) = 54.14189 91.92127 32.37368
#
# Poissons Ratio (x) = 0.25840 0.22672
# Poissons Ratio (y) = 0.15220 0.15706
# Poissons Ratio (z) = 0.37916 0.44596
#
# Static dielectric constant tensor:
#      x y z
#    x 1.610220 0.000000 0.000000 
#    y 0.000000 1.572600 0.000000 
#    z 0.000000 0.000000 1.565840 
# 
# From -- ./inp_files/42147.got.cif
#   From: 2010.05.17/outbox.cif.g08.bks.cpg/sg69_22_cif.got.tgz:42147.got - 2010.06.03 19:29:58.
