data_PCOD9511896
_publ_section_title
;
Structure prediction by ZEFSAII (Michael W. Deem and Ramdas Pophale) SiO2 
 PCOD9511896
Probable space group: F M M M
;
_chemical_formula_sum "Si O2"
_cell_formula_units_Z 176
_cell_length_a 28.149305
_cell_length_b 17.275044
_cell_length_c 20.864264
_cell_angle_alpha 90.000000
_cell_angle_beta 90.000000
_cell_angle_gamma 90.000000
_cell_volume 10145.884364
_symmetry_space_group_name_H-M "F M M M"
_symmetry_group_IT_number 69
_symmetry_cell_setting 'orthorhombic'
loop_
_space_group_symop_operation_xyz
x,y,z
-x,-y,z
x,-y,-z
-x,y,-z
-x,-y,-z
x,y,-z
-x,y,z
x,-y,z
x,1/2+y,1/2+z
-x,1/2-y,1/2+z
x,1/2-y,1/2-z
-x,1/2+y,1/2-z
-x,1/2-y,1/2-z
x,1/2+y,1/2-z
-x,1/2+y,1/2+z
x,1/2-y,1/2+z
1/2+x,y,1/2+z
1/2-x,-y,1/2+z
1/2+x,-y,1/2-z
1/2-x,y,1/2-z
1/2-x,-y,1/2-z
1/2+x,y,1/2-z
1/2-x,y,1/2+z
1/2+x,-y,1/2+z
1/2+x,1/2+y,z
1/2-x,1/2-y,z
1/2+x,1/2-y,-z
1/2-x,1/2+y,-z
1/2-x,1/2-y,-z
1/2+x,1/2+y,-z
1/2-x,1/2+y,z
1/2+x,1/2-y,z
loop_
_atom_site_type_symbol
_atom_site_label
_atom_site_fract_x
_atom_site_fract_y
_atom_site_fract_z
Si Si1 0.878187 0.092355 0.220951
Si Si2 0.056094 0.500000 0.923107
Si Si3 0.220345 0.830491 0.574524
Si Si4 0.946513 0.216661 0.177266
Si Si5 0.384276 0.854171 0.131673
Si Si6 0.724430 0.592371 0.813825
O O1 0.921220 0.134671 0.185973
O O2 0.874292 0.118796 0.295045
O O3 0.829782 0.119223 0.186732
O O4 0.882636 0.000000 0.219479
O O5 0.085063 0.424195 0.899195
O O6 0.000000 0.500000 0.901602
O O7 0.055880 0.500000 0.000000
O O8 0.222566 0.852908 0.500000
O O9 0.250000 0.750000 0.581058
O O10 0.165218 0.833478 0.596702
O O11 0.247309 0.886826 0.623007
O O12 0.947732 0.250000 0.250000
O O13 0.916104 0.277223 0.136494
O O14 0.000000 0.210940 0.153335
O O15 0.722884 0.500000 0.807338
O O16 0.750000 0.624215 0.750000
#
# Coordination Sequence:
#
# PCOD9511896 Si02
#       6
#    32  16  32  32  32  32
#     4  10  19  34  55  84 113 144 194 239 292 348
#     4  11  24  38  56  85 118 158 205 246 296 358
#     4  11  24  38  55  83 115 150 194 240 289 347
#     4   9  19  33  51  77 108 145 188 232 287 344
#     4  11  20  37  57  79 113 156 196 243 291 348
#     4  10  20  35  55  79 110 145 186 231 278 346
#
# _framework density 17.346935999999999
#
# number of rings (size 3 to 8) (size 9 to 14) (size 15 to 20)
#    0.000    1.727    2.727    2.182    1.273    1.818 
#    0.000    0.000    0.000    0.000    0.000    0.000 
#    0.000    0.000    0.000   23.091    0.000    0.000 
#
# Total GULP energy -245348.209819 kJ/mol
# GULP energy per Si atom -5576.095678 kJ/mol
# Density = 1.730745 g / cm^3
# Si number density = 17.346936 Si / 1000 Ang^3
#
#
#
# Elastic Constant Matrix: (Units=GPa)
#
#
# Indices 1 2 3 4 5 6 
#
# 1 165.1008 53.2137 57.1467 0.0000 0.0000 0.0000
# 2 53.2137 61.5822 30.0717 0.0000 0.0000 0.0000
# 3 57.1467 30.0717 69.4978 0.0000 0.0000 0.0000
# 4 0.0000 0.0000 0.0000 12.1926 0.0000 0.0000
# 5 0.0000 0.0000 0.0000 0.0000 20.7045 0.0000
# 6 0.0000 0.0000 0.0000 0.0000 0.0000 27.9577
#
#
#
# Elastic Compliance Matrix: (Units=1/GPa)
#
#
# Indices 1 2 3 4 5 6 
#
# 1 0.009862 -0.005784 -0.005606 0.000000 0.000000 0.000000
# 2 -0.005784 0.023981 -0.005621 0.000000 0.000000 0.000000
# 3 -0.005606 -0.005621 0.021431 0.000000 0.000000 0.000000
# 4 0.000000 0.000000 0.000000 0.082017 0.000000 0.000000
# 5 0.000000 0.000000 0.000000 0.000000 0.048299 0.000000
# 6 0.000000 0.000000 0.000000 0.000000 0.000000 0.035768
#
#
# Mechanical properties :
#
#
# Convention : Reuss Voigt Hill
#
# Bulk Modulus (GPa) = 47.05452 64.11610 55.58531
# Shear Modulus (GPa) = 19.05027 22.55420 20.80224
#
# Velocity S-wave (km/s) = 3.31749 3.60972 3.46669
# Velocity P-wave (km/s) = 6.46984 7.37663 6.93807
#
# Compressibility (1/GPa) = 0.02125194
#
# Stress axis : x y z
#
# Youngs Moduli (GPa) = 101.40296 41.69977 46.66140
#
# Poissons Ratio (x) = 0.24118 0.26160
# Poissons Ratio (y) = 0.58650 0.26227
# Poissons Ratio (z) = 0.56850 0.23438
#
# Static dielectric constant tensor:
#      x y z
#    x 1.612510 0.000000 0.000000 
#    y 0.000000 1.586950 0.000000 
#    z 0.000000 0.000000 1.560760 
# 
# From -- ./inp_files/26732.got.cif
#   From: 2010.05.17/outbox.cif.g08.bks.cpg/sg69_14_cif.got.tgz:26732.got - 2010.06.03 19:29:58.
