data_PCOD9511555
_publ_section_title
;
Structure prediction by ZEFSAII (Michael W. Deem and Ramdas Pophale) SiO2 
 PCOD9511555
Probable space group: F M M M
;
_chemical_formula_sum "Si O2"
_cell_formula_units_Z 160
_cell_length_a 25.317466
_cell_length_b 19.076487
_cell_length_c 21.244292
_cell_angle_alpha 90.000000
_cell_angle_beta 90.000000
_cell_angle_gamma 90.000000
_cell_volume 10260.319826
_symmetry_space_group_name_H-M "F M M M"
_symmetry_group_IT_number 69
_symmetry_cell_setting 'orthorhombic'
loop_
_space_group_symop_operation_xyz
x,y,z
-x,-y,z
x,-y,-z
-x,y,-z
-x,-y,-z
x,y,-z
-x,y,z
x,-y,z
x,1/2+y,1/2+z
-x,1/2-y,1/2+z
x,1/2-y,1/2-z
-x,1/2+y,1/2-z
-x,1/2-y,1/2-z
x,1/2+y,1/2-z
-x,1/2+y,1/2+z
x,1/2-y,1/2+z
1/2+x,y,1/2+z
1/2-x,-y,1/2+z
1/2+x,-y,1/2-z
1/2-x,y,1/2-z
1/2-x,-y,1/2-z
1/2+x,y,1/2-z
1/2-x,y,1/2+z
1/2+x,-y,1/2+z
1/2+x,1/2+y,z
1/2-x,1/2-y,z
1/2+x,1/2-y,-z
1/2-x,1/2+y,-z
1/2-x,1/2-y,-z
1/2+x,1/2+y,-z
1/2-x,1/2+y,z
1/2+x,1/2-y,z
loop_
_atom_site_type_symbol
_atom_site_label
_atom_site_fract_x
_atom_site_fract_y
_atom_site_fract_z
Si Si1 0.810231 0.271558 0.346025
Si Si2 0.790292 0.000000 0.308268
Si Si3 0.368334 0.374468 0.927870
Si Si4 0.654017 0.641313 0.268896
Si Si5 0.215767 0.500000 0.571506
Si Si6 0.562127 0.583584 0.811388
O O1 0.750000 0.250000 0.358091
O O2 0.840615 0.303143 0.405210
O O3 0.811934 0.331837 0.291660
O O4 0.841084 0.205306 0.317173
O O5 0.750000 0.000000 0.250000
O O6 0.823892 0.929403 0.299214
O O7 0.758934 0.000000 0.373877
O O8 0.322756 0.433340 0.921810
O O9 0.414239 0.394021 0.878960
O O10 0.385971 0.372802 0.000000
O O11 0.596638 0.624801 0.240233
O O12 0.237454 0.500000 0.500000
O O13 0.500000 0.597213 0.807025
O O14 0.571167 0.500000 0.803897
#
# Coordination Sequence:
#
# PCOD9511555 Si02
#       6
#    32  16  32  32  16  32
#     4  10  19  32  47  72 105 135 163 196 247 302
#     4  12  18  28  52  73  96 130 170 211 250 292
#     4  10  20  34  49  70 100 135 172 202 237 295
#     4  10  19  31  47  74  99 126 165 207 249 295
#     4  10  20  32  46  72 106 134 166 208 252 296
#     4  10  19  33  52  75 100 126 161 209 263 302
#
# _framework density 15.594056
#
# number of rings (size 3 to 8) (size 9 to 14) (size 15 to 20)
#    0.000    1.800    2.000    6.000    0.000    0.800 
#    0.000   10.000    0.000    0.000    0.000    0.000 
#    0.000    3.200    0.000    0.000    0.000    0.000 
#
# Total GULP energy -223153.984282 kJ/mol
# GULP energy per Si atom -5578.849607 kJ/mol
# Density = 1.555856 g / cm^3
# Si number density = 15.594056 Si / 1000 Ang^3
#
#
#
# Elastic Constant Matrix: (Units=GPa)
#
#
# Indices 1 2 3 4 5 6 
#
# 1 98.9887 41.7704 48.7759 0.0000 0.0000 0.0000
# 2 41.7704 87.2514 42.7578 0.0000 0.0000 0.0000
# 3 48.7759 42.7578 88.6535 0.0000 0.0000 0.0000
# 4 0.0000 0.0000 0.0000 -15.0832 0.0000 0.0000
# 5 0.0000 0.0000 0.0000 0.0000 18.0624 0.0000
# 6 0.0000 0.0000 0.0000 0.0000 0.0000 23.9949
#
#
#
# Elastic Compliance Matrix: (Units=1/GPa)
#
#
# Indices 1 2 3 4 5 6 
#
# 1 0.014891 -0.004078 -0.006226 0.000000 0.000000 0.000000
# 2 -0.004078 0.016125 -0.005534 0.000000 0.000000 0.000000
# 3 -0.006226 -0.005534 0.017374 0.000000 0.000000 0.000000
# 4 0.000000 0.000000 0.000000 -0.066299 0.000000 0.000000
# 5 0.000000 0.000000 0.000000 0.000000 0.055364 0.000000
# 6 0.000000 0.000000 0.000000 0.000000 0.000000 0.041675
#
#
# Mechanical properties :
#
#
# Convention : Reuss Voigt Hill
#
# Bulk Modulus (GPa) = 59.82534 60.16684 59.99609
# Shear Modulus (GPa) = 42.96400 14.83411 28.89906
#
# Velocity S-wave (km/s) = 5.25465 3.08761 4.30956
# Velocity P-wave (km/s) = 8.67540 7.16785 7.95741
#
# Compressibility (1/GPa) = 0.01671532
#
# Stress axis : x y z
#
# Youngs Moduli (GPa) = 67.15651 62.01531 57.55653
#
# Poissons Ratio (x) = 0.25287 0.35834
# Poissons Ratio (y) = 0.27384 0.31850
# Poissons Ratio (z) = 0.41811 0.34317
#
# Static dielectric constant tensor:
#      x y z
#    x 1.497870 0.000000 0.000000 
#    y 0.000000 1.542450 0.000000 
#    z 0.000000 0.000000 1.521360 
# 
# From -- ./inp_files/24939.got.cif
#   From: 2010.05.17/outbox.cif.g08.bks.cpg/sg69_13_cif.got.tgz:24939.got - 2010.06.03 19:29:58.
