data_PCOD9511903
_publ_section_title
;
Structure prediction by ZEFSAII (Michael W. Deem and Ramdas Pophale) SiO2 
 PCOD9511903
Probable space group: F M M M
;
_chemical_formula_sum "Si O2"
_cell_formula_units_Z 160
_cell_length_a 28.836091
_cell_length_b 16.047941
_cell_length_c 14.310700
_cell_angle_alpha 90.000000
_cell_angle_beta 90.000000
_cell_angle_gamma 90.000000
_cell_volume 6622.417915
_symmetry_space_group_name_H-M "F M M M"
_symmetry_group_IT_number 69
_symmetry_cell_setting 'orthorhombic'
loop_
_space_group_symop_operation_xyz
x,y,z
-x,-y,z
x,-y,-z
-x,y,-z
-x,-y,-z
x,y,-z
-x,y,z
x,-y,z
x,1/2+y,1/2+z
-x,1/2-y,1/2+z
x,1/2-y,1/2-z
-x,1/2+y,1/2-z
-x,1/2-y,1/2-z
x,1/2+y,1/2-z
-x,1/2+y,1/2+z
x,1/2-y,1/2+z
1/2+x,y,1/2+z
1/2-x,-y,1/2+z
1/2+x,-y,1/2-z
1/2-x,y,1/2-z
1/2-x,-y,1/2-z
1/2+x,y,1/2-z
1/2-x,y,1/2+z
1/2+x,-y,1/2+z
1/2+x,1/2+y,z
1/2-x,1/2-y,z
1/2+x,1/2-y,-z
1/2-x,1/2+y,-z
1/2-x,1/2-y,-z
1/2+x,1/2+y,-z
1/2-x,1/2+y,z
1/2+x,1/2-y,z
loop_
_atom_site_type_symbol
_atom_site_label
_atom_site_fract_x
_atom_site_fract_y
_atom_site_fract_z
Si Si1 0.605788 0.768134 0.859758
Si Si2 0.947867 0.410157 0.820427
Si Si3 0.774847 0.838878 0.112833
Si Si4 0.820967 0.910440 0.388567
Si Si5 0.873974 0.594366 0.349592
O O1 0.599869 0.750000 0.750000
O O2 0.565761 0.832896 0.885022
O O3 0.651811 0.824655 0.868471
O O4 0.607025 0.676623 0.902615
O O5 0.945801 0.500000 0.868848
O O6 0.909934 0.412758 0.737138
O O7 0.000000 0.399727 0.783070
O O8 0.750000 0.750000 0.135022
O O9 0.733014 0.901451 0.132222
O O10 0.821010 0.871340 0.165220
O O11 0.784992 0.837704 0.000000
O O12 0.825263 0.915482 0.500000
O O13 0.837717 0.000000 0.349267
O O14 0.870948 0.500000 0.388674
#
# Coordination Sequence:
#
# PCOD9511903 Si02
#       5
#    32  32  32  32  32
#     4  10  20  34  55  82 114 153 196 247 298 362
#     4   9  19  37  60  84 110 146 195 251 310 365
#     4  10  19  34  56  79 109 153 199 241 292 359
#     4  10  20  35  57  84 115 154 200 250 304 360
#     4  10  20  33  51  79 112 148 192 242 291 350
#
# _framework density 24.160359
#
# number of rings (size 3 to 8) (size 9 to 14) (size 15 to 20)
#    0.000    2.200    2.000    1.200    0.000    5.600 
#    0.000    7.000    0.000   12.000    0.000   11.200 
#    0.000    0.000    0.000    0.000    0.000    0.000 
#
# Total GULP energy -222696.694299 kJ/mol
# GULP energy per Si atom -5567.417357 kJ/mol
# Density = 2.410537 g / cm^3
# Si number density = 24.160359 Si / 1000 Ang^3
#
#
#
# Elastic Constant Matrix: (Units=GPa)
#
#
# Indices 1 2 3 4 5 6 
#
# 1 149.7684 63.0694 18.3388 0.0000 0.0000 0.0000
# 2 63.0694 284.9213 18.6417 0.0000 0.0000 0.0000
# 3 18.3388 18.6417 65.6115 0.0000 0.0000 0.0000
# 4 0.0000 0.0000 0.0000 -10.8240 0.0000 0.0000
# 5 0.0000 0.0000 0.0000 0.0000 -55.6510 0.0000
# 6 0.0000 0.0000 0.0000 0.0000 0.0000 61.7609
#
#
#
# Elastic Compliance Matrix: (Units=1/GPa)
#
#
# Indices 1 2 3 4 5 6 
#
# 1 0.007537 -0.001560 -0.001664 0.000000 0.000000 0.000000
# 2 -0.001560 0.003899 -0.000672 0.000000 0.000000 0.000000
# 3 -0.001664 -0.000672 0.015897 0.000000 0.000000 0.000000
# 4 0.000000 0.000000 0.000000 -0.092388 0.000000 0.000000
# 5 0.000000 0.000000 0.000000 0.000000 -0.017969 0.000000
# 6 0.000000 0.000000 0.000000 0.000000 0.000000 0.016191
#
#
# Mechanical properties :
#
#
# Convention : Reuss Voigt Hill
#
# Bulk Modulus (GPa) = 51.16849 77.82235 64.49542
# Shear Modulus (GPa) = -95.18918 25.74059 -34.72429
#
# Velocity S-wave (km/s) = -6.28366 3.26760 -3.79521
# Velocity P-wave (km/s) = 5.60547 6.82033 2.74733
#
# Compressibility (1/GPa) = 0.01954328
#
# Stress axis : x y z
#
# Youngs Moduli (GPa) = 132.67067 256.48047 62.90447
#
# Poissons Ratio (x) = 0.40001 0.10465
# Poissons Ratio (y) = 0.20692 0.04226
# Poissons Ratio (z) = 0.22072 0.17232
#
# Static dielectric constant tensor:
#      x y z
#    x 1.947390 0.000000 0.000000 
#    y 0.000000 2.058190 0.000000 
#    z 0.000000 0.000000 1.968010 
# 
# From -- ./inp_files/37765.got.cif
#   From: 2010.05.17/outbox.cif.g08.bks.cpg/sg69_19_cif.got.tgz:37765.got - 2010.06.03 19:29:58.
