data_PCOD9511220
_publ_section_title
;
Structure prediction by ZEFSAII (Michael W. Deem and Ramdas Pophale) SiO2 
 PCOD9511220
Probable space group: F M M M
;
_chemical_formula_sum "Si O2"
_cell_formula_units_Z 144
_cell_length_a 21.968590
_cell_length_b 13.885549
_cell_length_c 25.088977
_cell_angle_alpha 90.000000
_cell_angle_beta 90.000000
_cell_angle_gamma 90.000000
_cell_volume 7653.290395
_symmetry_space_group_name_H-M "F M M M"
_symmetry_group_IT_number 69
_symmetry_cell_setting 'orthorhombic'
loop_
_space_group_symop_operation_xyz
x,y,z
-x,-y,z
x,-y,-z
-x,y,-z
-x,-y,-z
x,y,-z
-x,y,z
x,-y,z
x,1/2+y,1/2+z
-x,1/2-y,1/2+z
x,1/2-y,1/2-z
-x,1/2+y,1/2-z
-x,1/2-y,1/2-z
x,1/2+y,1/2-z
-x,1/2+y,1/2+z
x,1/2-y,1/2+z
1/2+x,y,1/2+z
1/2-x,-y,1/2+z
1/2+x,-y,1/2-z
1/2-x,y,1/2-z
1/2-x,-y,1/2-z
1/2+x,y,1/2-z
1/2-x,y,1/2+z
1/2+x,-y,1/2+z
1/2+x,1/2+y,z
1/2-x,1/2-y,z
1/2+x,1/2-y,-z
1/2-x,1/2+y,-z
1/2-x,1/2-y,-z
1/2+x,1/2+y,-z
1/2-x,1/2+y,z
1/2+x,1/2-y,z
loop_
_atom_site_type_symbol
_atom_site_label
_atom_site_fract_x
_atom_site_fract_y
_atom_site_fract_z
Si Si1 0.571577 0.270776 0.188131
Si Si2 0.651475 0.382927 0.500000
Si Si3 0.930819 0.886402 0.401300
Si Si4 0.208525 0.882377 0.000000
Si Si5 0.000000 0.383428 0.441224
Si Si6 0.369152 0.384446 0.104359
O O1 0.500000 0.306969 0.184689
O O2 0.582196 0.250000 0.250000
O O3 0.574477 0.174146 0.152551
O O4 0.625069 0.337213 0.162682
O O5 0.650825 0.500000 0.500000
O O6 0.615750 0.353849 0.553165
O O7 0.721348 0.351872 0.500000
O O8 0.000000 0.874490 0.421571
O O9 0.921412 0.000000 0.391292
O O10 0.175293 0.854774 0.944311
O O11 0.206241 0.000000 0.000000
O O12 0.062956 0.357254 0.415009
O O13 0.000000 0.500000 0.443475
O O14 0.000000 0.343431 0.500000
O O15 0.363737 0.500000 0.109075
#
# Coordination Sequence:
#
# PCOD9511220 Si02
#       6
#    32  16  32  16  16  32
#     4  10  21  34  49  74 103 132 174 217 249 290
#     4   9  17  33  56  79 103 131 166 208 255 304
#     4   9  18  34  55  76 100 131 167 211 258 299
#     4   9  18  31  52  81 108 133 161 201 253 315
#     4   9  14  24  43  68 101 133 156 186 235 301
#     4  10  18  30  49  75 107 136 161 196 252 309
#
# _framework density 18.815435999999998
#
# number of rings (size 3 to 8) (size 9 to 14) (size 15 to 20)
#    0.000    2.556    2.222    0.333    0.000    3.111 
#    0.000    5.556    0.000    2.667    0.000    6.222 
#    0.000    0.000    0.000    0.000    0.000    0.000 
#
# Total GULP energy -200616.853919 kJ/mol
# GULP energy per Si atom -5572.690387 kJ/mol
# Density = 1.877261 g / cm^3
# Si number density = 18.815436 Si / 1000 Ang^3
#
#
#
# Elastic Constant Matrix: (Units=GPa)
#
#
# Indices 1 2 3 4 5 6 
#
# 1 104.9384 35.0791 75.9341 0.0000 0.0000 0.0000
# 2 35.0791 76.0516 40.4529 0.0000 0.0000 0.0000
# 3 75.9341 40.4529 164.4769 0.0000 0.0000 0.0000
# 4 0.0000 0.0000 0.0000 26.0625 0.0000 0.0000
# 5 0.0000 0.0000 0.0000 0.0000 4.4284 0.0000
# 6 0.0000 0.0000 0.0000 0.0000 0.0000 17.7645
#
#
#
# Elastic Compliance Matrix: (Units=1/GPa)
#
#
# Indices 1 2 3 4 5 6 
#
# 1 0.015195 -0.003771 -0.006088 0.000000 0.000000 0.000000
# 2 -0.003771 0.016064 -0.002210 0.000000 0.000000 0.000000
# 3 -0.006088 -0.002210 0.009434 0.000000 0.000000 0.000000
# 4 0.000000 0.000000 0.000000 0.038369 0.000000 0.000000
# 5 0.000000 0.000000 0.000000 0.000000 0.225814 0.000000
# 6 0.000000 0.000000 0.000000 0.000000 0.000000 0.056292
#
#
# Mechanical properties :
#
#
# Convention : Reuss Voigt Hill
#
# Bulk Modulus (GPa) = 60.40141 72.04433 66.22287
# Shear Modulus (GPa) = 12.79350 22.58446 17.68898
#
# Velocity S-wave (km/s) = 2.61041 3.46832 3.06948
# Velocity P-wave (km/s) = 6.42319 7.37646 6.91627
#
# Compressibility (1/GPa) = 0.01655591
#
# Stress axis : x y z
#
# Youngs Moduli (GPa) = 65.81137 62.25194 106.00011
#
# Poissons Ratio (x) = 0.23473 0.64529
# Poissons Ratio (y) = 0.24815 0.23427
# Poissons Ratio (z) = 0.40064 0.13758
#
# Static dielectric constant tensor:
#      x y z
#    x 1.643160 0.000000 0.000000 
#    y 0.000000 1.727290 0.000000 
#    z 0.000000 0.000000 1.696330 
# 
# From -- ./inp_files/36587.got.cif
#   From: 2010.05.17/outbox.cif.g08.bks.cpg/sg69_19_cif.got.tgz:36587.got - 2010.06.03 19:29:58.
