data_PCOD9511232
_publ_section_title
;
Structure prediction by ZEFSAII (Michael W. Deem and Ramdas Pophale) SiO2 
 PCOD9511232
Probable space group: F M M M
;
_chemical_formula_sum "Si O2"
_cell_formula_units_Z 120
_cell_length_a 31.870732
_cell_length_b 18.839290
_cell_length_c 10.907282
_cell_angle_alpha 90.000000
_cell_angle_beta 90.000000
_cell_angle_gamma 90.000000
_cell_volume 6548.971666
_symmetry_space_group_name_H-M "F M M M"
_symmetry_group_IT_number 69
_symmetry_cell_setting 'orthorhombic'
loop_
_space_group_symop_operation_xyz
x,y,z
-x,-y,z
x,-y,-z
-x,y,-z
-x,-y,-z
x,y,-z
-x,y,z
x,-y,z
x,1/2+y,1/2+z
-x,1/2-y,1/2+z
x,1/2-y,1/2-z
-x,1/2+y,1/2-z
-x,1/2-y,1/2-z
x,1/2+y,1/2-z
-x,1/2+y,1/2+z
x,1/2-y,1/2+z
1/2+x,y,1/2+z
1/2-x,-y,1/2+z
1/2+x,-y,1/2-z
1/2-x,y,1/2-z
1/2-x,-y,1/2-z
1/2+x,y,1/2-z
1/2-x,y,1/2+z
1/2+x,-y,1/2+z
1/2+x,1/2+y,z
1/2-x,1/2-y,z
1/2+x,1/2-y,-z
1/2-x,1/2+y,-z
1/2-x,1/2-y,-z
1/2+x,1/2+y,-z
1/2-x,1/2+y,z
1/2+x,1/2-y,z
loop_
_atom_site_type_symbol
_atom_site_label
_atom_site_fract_x
_atom_site_fract_y
_atom_site_fract_z
Si Si1 0.909466 0.333335 0.750615
Si Si2 0.048979 0.162618 0.500000
Si Si3 0.450575 0.835801 0.500000
Si Si4 0.750000 0.750000 0.250000
Si Si5 0.821489 0.847075 0.638453
Si Si6 0.780595 0.000000 0.365156
O O1 0.920905 0.250000 0.750000
O O2 0.929605 0.364102 0.874916
O O3 0.927781 0.362208 0.623557
O O4 0.859455 0.337036 0.767131
O O5 0.052548 0.249166 0.500000
O O6 0.000000 0.145435 0.500000
O O7 0.500000 0.852958 0.500000
O O8 0.781139 0.799796 0.327999
O O9 0.835773 0.828064 0.500000
O O10 0.807879 0.928864 0.640242
O O11 0.750000 0.000000 0.250000
O O12 0.759062 0.000000 0.500000
#
# Coordination Sequence:
#
# PCOD9511232 Si02
#       6
#    32  16  16   8  32  16
#     4  10  18  30  50  76 111 142 181 230 271 329
#     4   9  16  28  48  73 106 145 177 220 282 337
#     4   9  18  30  46  77 112 143 175 220 284 335
#     4  12  22  34  60  82 118 144 188 236 290 328
#     4  11  22  38  56  84 112 151 190 231 280 333
#     4  10  22  42  60  78 111 150 194 232 275 334
#
# _framework density 18.323487
#
# number of rings (size 3 to 8) (size 9 to 14) (size 15 to 20)
#    0.000    1.867    4.000    1.200    0.000    3.200 
#    4.800    0.000    0.000    0.000    0.000    5.600 
#    0.000    0.000    0.000    0.000    0.000    0.000 
#
# Total GULP energy -167225.625106 kJ/mol
# GULP energy per Si atom -5574.187504 kJ/mol
# Density = 1.828178 g / cm^3
# Si number density = 18.323487 Si / 1000 Ang^3
#
#
#
# Elastic Constant Matrix: (Units=GPa)
#
#
# Indices 1 2 3 4 5 6 
#
# 1 113.9704 3.4490 80.8643 0.0000 0.0000 0.0000
# 2 3.4490 43.3803 15.8059 0.0000 0.0000 0.0000
# 3 80.8643 15.8059 172.5625 0.0000 0.0000 0.0000
# 4 0.0000 0.0000 0.0000 9.3480 0.0000 0.0000
# 5 0.0000 0.0000 0.0000 0.0000 40.9078 0.0000
# 6 0.0000 0.0000 0.0000 0.0000 0.0000 4.6921
#
#
#
# Elastic Compliance Matrix: (Units=1/GPa)
#
#
# Indices 1 2 3 4 5 6 
#
# 1 0.013209 0.001247 -0.006304 0.000000 0.000000 0.000000
# 2 0.001247 0.023965 -0.002779 0.000000 0.000000 0.000000
# 3 -0.006304 -0.002779 0.009004 0.000000 0.000000 0.000000
# 4 0.000000 0.000000 0.000000 0.106975 0.000000 0.000000
# 5 0.000000 0.000000 0.000000 0.000000 0.024445 0.000000
# 6 0.000000 0.000000 0.000000 0.000000 0.000000 0.213124
#
#
# Mechanical properties :
#
#
# Convention : Reuss Voigt Hill
#
# Bulk Modulus (GPa) = 32.78148 58.90573 45.84361
# Shear Modulus (GPa) = 12.00292 26.30917 19.15605
#
# Velocity S-wave (km/s) = 2.56218 3.79333 3.23683
# Velocity P-wave (km/s) = 5.16549 7.16961 6.24842
#
# Compressibility (1/GPa) = 0.03050503
#
# Stress axis : x y z
#
# Youngs Moduli (GPa) = 75.70312 41.72668 111.06392
#
# Poissons Ratio (x) = -0.05202 0.70018
# Poissons Ratio (y) = -0.09438 0.30869
# Poissons Ratio (z) = 0.47725 0.11597
#
# Static dielectric constant tensor:
#      x y z
#    x 1.614810 0.000000 0.000000 
#    y 0.000000 1.601360 0.000000 
#    z 0.000000 0.000000 1.671970 
# 
# From -- ./inp_files/12139.got.cif
#   From: 2010.05.17/outbox.cif.g08.bks.cpg/sg69_7_cif.got.tgz:12139.got - 2010.06.03 19:29:58.
