data_PCOD9511017
_publ_section_title
;
Structure prediction by ZEFSAII (Michael W. Deem and Ramdas Pophale) SiO2 
 PCOD9511017
Probable space group: F M M M
;
_chemical_formula_sum "Si O2"
_cell_formula_units_Z 104
_cell_length_a 5.298349
_cell_length_b 31.789602
_cell_length_c 34.844908
_cell_angle_alpha 90.000000
_cell_angle_beta 90.000000
_cell_angle_gamma 90.000000
_cell_volume 5869.011690
_symmetry_space_group_name_H-M "F M M M"
_symmetry_group_IT_number 69
_symmetry_cell_setting 'orthorhombic'
loop_
_space_group_symop_operation_xyz
x,y,z
-x,-y,z
x,-y,-z
-x,y,-z
-x,-y,-z
x,y,-z
-x,y,z
x,-y,z
x,1/2+y,1/2+z
-x,1/2-y,1/2+z
x,1/2-y,1/2-z
-x,1/2+y,1/2-z
-x,1/2-y,1/2-z
x,1/2+y,1/2-z
-x,1/2+y,1/2+z
x,1/2-y,1/2+z
1/2+x,y,1/2+z
1/2-x,-y,1/2+z
1/2+x,-y,1/2-z
1/2-x,y,1/2-z
1/2-x,-y,1/2-z
1/2+x,y,1/2-z
1/2-x,y,1/2+z
1/2+x,-y,1/2+z
1/2+x,1/2+y,z
1/2-x,1/2-y,z
1/2+x,1/2-y,-z
1/2-x,1/2+y,-z
1/2-x,1/2-y,-z
1/2+x,1/2+y,-z
1/2-x,1/2+y,z
1/2+x,1/2-y,z
loop_
_atom_site_type_symbol
_atom_site_label
_atom_site_fract_x
_atom_site_fract_y
_atom_site_fract_z
Si Si1 0.500000 0.720400 0.500000
Si Si2 0.000000 0.134094 0.275082
Si Si3 0.000000 0.232197 0.293499
Si Si4 0.500000 0.854331 0.938195
Si Si5 0.500000 0.407842 0.957309
Si Si6 0.000000 0.100162 0.639696
Si Si7 0.500000 0.048544 0.618841
O O1 0.750000 0.750000 0.500000
O O2 0.500000 0.689665 0.462013
O O3 0.750000 0.125672 0.250000
O O4 0.000000 0.111640 0.315792
O O5 0.000000 0.182989 0.287226
O O6 0.000000 0.250000 0.250000
O O7 0.250000 0.250000 0.312846
O O8 0.752209 0.879123 0.950920
O O9 0.500000 0.860852 0.891326
O O10 0.500000 0.445105 0.926861
O O11 0.500000 0.424248 0.000000
O O12 0.250083 0.072808 0.632361
O O13 0.500000 0.000000 0.630135
#
# Coordination Sequence:
#
# PCOD9511017 Si02
#       7
#     8  16  16  16  16  16  16
#     4  12  22  34  58  80 113 160 207 236 270 316
#     4  12  21  35  60  84 112 147 194 236 283 353
#     4  10  16  30  49  77 107 135 166 214 284 334
#     4  10  20  37  54  79 116 154 194 231 277 326
#     4  10  17  32  59  85 109 148 182 228 284 340
#     4  10  23  39  59  85 113 151 192 228 286 352
#     4  10  21  38  60  84 116 148 180 231 292 343
#
# _framework density 17.720188
#
# number of rings (size 3 to 8) (size 9 to 14) (size 15 to 20)
#    0.000    1.538    4.615    2.308    0.000    0.308 
#    0.000    1.538    0.000   14.769    0.000    0.000 
#    0.000    0.000    0.000    0.000    0.000    0.000 
#
# Total GULP energy -144871.740220 kJ/mol
# GULP energy per Si atom -5571.990008 kJ/mol
# Density = 1.767986 g / cm^3
# Si number density = 17.720188 Si / 1000 Ang^3
#
#
#
# Elastic Constant Matrix: (Units=GPa)
#
#
# Indices 1 2 3 4 5 6 
#
# 1 177.1146 43.7111 57.0249 0.0000 0.0000 0.0000
# 2 43.7111 90.8382 54.6765 0.0000 0.0000 0.0000
# 3 57.0249 54.6765 148.2121 0.0000 0.0000 0.0000
# 4 0.0000 0.0000 0.0000 16.4135 0.0000 0.0000
# 5 0.0000 0.0000 0.0000 0.0000 48.2802 0.0000
# 6 0.0000 0.0000 0.0000 0.0000 0.0000 18.2107
#
#
#
# Elastic Compliance Matrix: (Units=1/GPa)
#
#
# Indices 1 2 3 4 5 6 
#
# 1 0.006761 -0.002169 -0.001801 0.000000 0.000000 0.000000
# 2 -0.002169 0.014847 -0.004642 0.000000 0.000000 0.000000
# 3 -0.001801 -0.004642 0.009153 0.000000 0.000000 0.000000
# 4 0.000000 0.000000 0.000000 0.060925 0.000000 0.000000
# 5 0.000000 0.000000 0.000000 0.000000 0.020712 0.000000
# 6 0.000000 0.000000 0.000000 0.000000 0.000000 0.054913
#
#
# Mechanical properties :
#
#
# Convention : Reuss Voigt Hill
#
# Bulk Modulus (GPa) = 73.88282 80.77666 77.32974
# Shear Modulus (GPa) = 26.44819 33.96439 30.20629
#
# Velocity S-wave (km/s) = 3.86754 4.38277 4.13319
# Velocity P-wave (km/s) = 7.85675 8.44364 8.15547
#
# Compressibility (1/GPa) = 0.01353495
#
# Stress axis : x y z
#
# Youngs Moduli (GPa) = 147.89891 67.35451 109.25755
#
# Poissons Ratio (x) = 0.14612 0.19679
# Poissons Ratio (y) = 0.32086 0.50722
# Poissons Ratio (z) = 0.26639 0.31269
#
# Static dielectric constant tensor:
#      x y z
#    x 1.622750 0.000000 0.000000 
#    y 0.000000 1.556320 0.000000 
#    z 0.000000 0.000000 1.604210 
# 
# From -- ./inp_files/896.got.cif
#   From: 2010.05.17/outbox.cif.g08.bks.cpg/sg69_1_cif.got.tgz:896.got - 2010.06.03 19:29:58.
