data_PCOD9511598
_publ_section_title
;
Structure prediction by ZEFSAII (Michael W. Deem and Ramdas Pophale) SiO2 
 PCOD9511598
Probable space group: F M M M
;
_chemical_formula_sum "Si O2"
_cell_formula_units_Z 160
_cell_length_a 25.310711
_cell_length_b 18.436329
_cell_length_c 18.913801
_cell_angle_alpha 90.000000
_cell_angle_beta 90.000000
_cell_angle_gamma 90.000000
_cell_volume 8825.871701
_symmetry_space_group_name_H-M "F M M M"
_symmetry_group_IT_number 69
_symmetry_cell_setting 'orthorhombic'
loop_
_space_group_symop_operation_xyz
x,y,z
-x,-y,z
x,-y,-z
-x,y,-z
-x,-y,-z
x,y,-z
-x,y,z
x,-y,z
x,1/2+y,1/2+z
-x,1/2-y,1/2+z
x,1/2-y,1/2-z
-x,1/2+y,1/2-z
-x,1/2-y,1/2-z
x,1/2+y,1/2-z
-x,1/2+y,1/2+z
x,1/2-y,1/2+z
1/2+x,y,1/2+z
1/2-x,-y,1/2+z
1/2+x,-y,1/2-z
1/2-x,y,1/2-z
1/2-x,-y,1/2-z
1/2+x,y,1/2-z
1/2-x,y,1/2+z
1/2+x,-y,1/2+z
1/2+x,1/2+y,z
1/2-x,1/2-y,z
1/2+x,1/2-y,-z
1/2-x,1/2+y,-z
1/2-x,1/2-y,-z
1/2+x,1/2+y,-z
1/2-x,1/2+y,z
1/2+x,1/2-y,z
loop_
_atom_site_type_symbol
_atom_site_label
_atom_site_fract_x
_atom_site_fract_y
_atom_site_fract_z
Si Si1 0.604034 0.827808 0.664833
Si Si2 0.500000 0.672886 0.080664
Si Si3 0.213133 0.318932 0.582368
Si Si4 0.399939 0.653585 0.324908
Si Si5 0.500000 0.649886 0.417596
Si Si6 0.187779 0.914093 0.579718
O O1 0.553608 0.851517 0.619037
O O2 0.660860 0.834047 0.627298
O O3 0.597913 0.740824 0.672921
O O4 0.600493 0.864284 0.741917
O O5 0.500000 0.761628 0.080989
O O6 0.500000 0.649150 0.000000
O O7 0.198310 0.305133 0.500000
O O8 0.250000 0.250000 0.604670
O O9 0.252352 0.386981 0.585751
O O10 0.448930 0.626595 0.372385
O O11 0.347674 0.625752 0.363055
O O12 0.500000 0.626172 0.500000
O O13 0.169799 0.893358 0.500000
O O14 0.183670 0.000000 0.586994
#
# Coordination Sequence:
#
# PCOD9511598 Si02
#       6
#    32  16  32  32  16  32
#     4  10  19  31  50  79 109 141 174 223 277 324
#     4   9  17  29  49  77 108 135 171 220 274 325
#     4  10  19  33  54  77 104 140 187 228 264 316
#     4  10  19  32  49  76 109 141 177 224 271 325
#     4   9  17  29  50  74 102 142 182 219 267 322
#     4  10  21  37  55  77 108 145 184 227 271 319
#
# _framework density 18.128520999999999
#
# number of rings (size 3 to 8) (size 9 to 14) (size 15 to 20)
#    0.000    2.200    2.000    1.800    0.000    4.800 
#    0.000    2.500    0.000    1.800    0.000    2.100 
#    0.000    6.400    0.000    0.000    0.000    0.000 
#
# Total GULP energy -222965.526649 kJ/mol
# GULP energy per Si atom -5574.138166 kJ/mol
# Density = 1.808726 g / cm^3
# Si number density = 18.128521 Si / 1000 Ang^3
#
#
#
# Elastic Constant Matrix: (Units=GPa)
#
#
# Indices 1 2 3 4 5 6 
#
# 1 137.5159 5.1654 106.7526 0.0000 0.0000 0.0000
# 2 5.1654 13.3140 21.7014 0.0000 0.0000 0.0000
# 3 106.7526 21.7014 181.7973 0.0000 0.0000 0.0000
# 4 0.0000 0.0000 0.0000 11.2541 0.0000 0.0000
# 5 0.0000 0.0000 0.0000 0.0000 -15.8592 0.0000
# 6 0.0000 0.0000 0.0000 0.0000 0.0000 1.0806
#
#
#
# Elastic Compliance Matrix: (Units=1/GPa)
#
#
# Indices 1 2 3 4 5 6 
#
# 1 0.014394 0.010171 -0.009666 0.000000 0.000000 0.000000
# 2 0.010171 0.100441 -0.017963 0.000000 0.000000 0.000000
# 3 -0.009666 -0.017963 0.013321 0.000000 0.000000 0.000000
# 4 0.000000 0.000000 0.000000 0.088856 0.000000 0.000000
# 5 0.000000 0.000000 0.000000 0.000000 -0.063055 0.000000
# 6 0.000000 0.000000 0.000000 0.000000 0.000000 0.925436
#
#
# Mechanical properties :
#
#
# Convention : Reuss Voigt Hill
#
# Bulk Modulus (GPa) = 10.72489 66.65179 38.68834
# Shear Modulus (GPa) = 4.36533 12.56228 8.46381
#
# Velocity S-wave (km/s) = 1.55345 2.63526 2.16308
# Velocity P-wave (km/s) = 3.02432 6.79011 5.25605
#
# Compressibility (1/GPa) = 0.09324105
#
# Stress axis : x y z
#
# Youngs Moduli (GPa) = 69.47510 9.95607 75.06992
#
# Poissons Ratio (x) = -0.10127 0.72564
# Poissons Ratio (y) = -0.70666 1.34845
# Poissons Ratio (z) = 0.67156 0.17884
#
# Static dielectric constant tensor:
#      x y z
#    x 1.619720 0.000000 0.000000 
#    y 0.000000 1.606590 0.000000 
#    z 0.000000 0.000000 1.641750 
# 
# From -- ./inp_files/24940.got.cif
#   From: 2010.05.17/outbox.cif.g08.bks.cpg/sg69_13_cif.got.tgz:24940.got - 2010.06.03 19:29:58.
