data_PCOD9511962
_publ_section_title
;
Structure prediction by ZEFSAII (Michael W. Deem and Ramdas Pophale) SiO2 
 PCOD9511962
Probable space group: F M M M
;
_chemical_formula_sum "Si O2"
_cell_formula_units_Z 136
_cell_length_a 11.796841
_cell_length_b 14.689675
_cell_length_c 33.611890
_cell_angle_alpha 90.000000
_cell_angle_beta 90.000000
_cell_angle_gamma 90.000000
_cell_volume 5824.663586
_symmetry_space_group_name_H-M "F M M M"
_symmetry_group_IT_number 69
_symmetry_cell_setting 'orthorhombic'
loop_
_space_group_symop_operation_xyz
x,y,z
-x,-y,z
x,-y,-z
-x,y,-z
-x,-y,-z
x,y,-z
-x,y,z
x,-y,z
x,1/2+y,1/2+z
-x,1/2-y,1/2+z
x,1/2-y,1/2-z
-x,1/2+y,1/2-z
-x,1/2-y,1/2-z
x,1/2+y,1/2-z
-x,1/2+y,1/2+z
x,1/2-y,1/2+z
1/2+x,y,1/2+z
1/2-x,-y,1/2+z
1/2+x,-y,1/2-z
1/2-x,y,1/2-z
1/2-x,-y,1/2-z
1/2+x,y,1/2-z
1/2-x,y,1/2+z
1/2+x,-y,1/2+z
1/2+x,1/2+y,z
1/2-x,1/2-y,z
1/2+x,1/2-y,-z
1/2-x,1/2+y,-z
1/2-x,1/2-y,-z
1/2+x,1/2+y,-z
1/2-x,1/2+y,z
1/2+x,1/2-y,z
loop_
_atom_site_type_symbol
_atom_site_label
_atom_site_fract_x
_atom_site_fract_y
_atom_site_fract_z
Si Si1 0.697902 0.891655 0.644975
Si Si2 0.373637 0.391512 0.415436
Si Si3 0.244549 0.641520 0.000000
Si Si4 0.500000 0.105575 0.581887
Si Si5 0.000000 0.865578 0.000000
Si Si6 0.869826 0.851241 0.232287
O O1 0.809244 0.853580 0.623283
O O2 0.607197 0.884686 0.609729
O O3 0.653395 0.848017 0.685184
O O4 0.710192 0.000000 0.654198
O O5 0.500000 0.356159 0.416865
O O6 0.375974 0.500000 0.408746
O O7 0.316277 0.381746 0.458609
O O8 0.250000 0.750000 0.000000
O O9 0.370197 0.599101 0.000000
O O10 0.500000 0.172959 0.544622
O O11 0.500000 0.000000 0.566166
O O12 0.874473 0.750000 0.250000
O O13 0.750000 0.892003 0.250000
O O14 0.000000 0.889775 0.238638
#
# Coordination Sequence:
#
# PCOD9511962 Si02
#       6
#    32  32  16  16   8  32
#     4  10  20  38  65  95 123 161 213 272 329 383
#     4  10  22  42  68  95 129 176 226 279 335 391
#     4  12  26  40  58  91 138 180 225 273 323 389
#     4  10  19  34  61  93 125 157 208 273 320 370
#     4  12  23  38  60  94 129 180 228 256 320 390
#     4  10  22  41  63  90 126 166 209 263 329 406
#
# _framework density 23.348987999999999
#
# number of rings (size 3 to 8) (size 9 to 14) (size 15 to 20)
#    0.000    1.647    3.529    0.882    1.647    3.294 
#    4.235    0.000    0.000    0.000    0.000    0.000 
#    0.000    0.000    0.000    0.000    0.000    0.000 
#
# Total GULP energy -189604.504051 kJ/mol
# GULP energy per Si atom -5576.603060 kJ/mol
# Density = 2.329584 g / cm^3
# Si number density = 23.348988 Si / 1000 Ang^3
#
#
#
# Elastic Constant Matrix: (Units=GPa)
#
#
# Indices 1 2 3 4 5 6 
#
# 1 211.4593 17.1091 68.4564 0.0000 0.0000 0.0000
# 2 17.1091 77.4511 36.6446 0.0000 0.0000 0.0000
# 3 68.4564 36.6446 177.2778 0.0000 0.0000 0.0000
# 4 0.0000 0.0000 0.0000 34.6357 0.0000 0.0000
# 5 0.0000 0.0000 0.0000 0.0000 30.4593 0.0000
# 6 0.0000 0.0000 0.0000 0.0000 0.0000 1.6244
#
#
#
# Elastic Compliance Matrix: (Units=1/GPa)
#
#
# Indices 1 2 3 4 5 6 
#
# 1 0.005408 -0.000229 -0.002041 0.000000 0.000000 0.000000
# 2 -0.000229 0.014321 -0.002872 0.000000 0.000000 0.000000
# 3 -0.002041 -0.002872 0.007023 0.000000 0.000000 0.000000
# 4 0.000000 0.000000 0.000000 0.028872 0.000000 0.000000
# 5 0.000000 0.000000 0.000000 0.000000 0.032831 0.000000
# 6 0.000000 0.000000 0.000000 0.000000 0.000000 0.615627
#
#
# Mechanical properties :
#
#
# Convention : Reuss Voigt Hill
#
# Bulk Modulus (GPa) = 60.72405 78.95649 69.84027
# Shear Modulus (GPa) = 6.94585 36.27575 21.61080
#
# Velocity S-wave (km/s) = 1.72663 3.94589 3.04560
# Velocity P-wave (km/s) = 5.48075 7.39252 6.50722
#
# Compressibility (1/GPa) = 0.01646794
#
# Stress axis : x y z
#
# Youngs Moduli (GPa) = 184.89935 69.82912 142.39616
#
# Poissons Ratio (x) = 0.01599 0.29065
# Poissons Ratio (y) = 0.04234 0.40893
# Poissons Ratio (z) = 0.37740 0.20053
#
# Static dielectric constant tensor:
#      x y z
#    x 1.976480 0.000000 0.000000 
#    y 0.000000 1.944060 0.000000 
#    z 0.000000 0.000000 1.812440 
# 
# From -- ./inp_files/40064.got.cif
#   From: 2010.05.17/outbox.cif.g08.bks.cpg/sg69_21_cif.got.tgz:40064.got - 2010.06.03 19:29:58.
