data_PCOD9511158
_publ_section_title
;
Structure prediction by ZEFSAII (Michael W. Deem and Ramdas Pophale) SiO2 
 PCOD9511158
Probable space group: F M M M
;
_chemical_formula_sum "Si O2"
_cell_formula_units_Z 160
_cell_length_a 27.623774
_cell_length_b 17.836046
_cell_length_c 15.046887
_cell_angle_alpha 90.000000
_cell_angle_beta 90.000000
_cell_angle_gamma 90.000000
_cell_volume 7413.584730
_symmetry_space_group_name_H-M "F M M M"
_symmetry_group_IT_number 69
_symmetry_cell_setting 'orthorhombic'
loop_
_space_group_symop_operation_xyz
x,y,z
-x,-y,z
x,-y,-z
-x,y,-z
-x,-y,-z
x,y,-z
-x,y,z
x,-y,z
x,1/2+y,1/2+z
-x,1/2-y,1/2+z
x,1/2-y,1/2-z
-x,1/2+y,1/2-z
-x,1/2-y,1/2-z
x,1/2+y,1/2-z
-x,1/2+y,1/2+z
x,1/2-y,1/2+z
1/2+x,y,1/2+z
1/2-x,-y,1/2+z
1/2+x,-y,1/2-z
1/2-x,y,1/2-z
1/2-x,-y,1/2-z
1/2+x,y,1/2-z
1/2-x,y,1/2+z
1/2+x,-y,1/2+z
1/2+x,1/2+y,z
1/2-x,1/2-y,z
1/2+x,1/2-y,-z
1/2-x,1/2+y,-z
1/2-x,1/2-y,-z
1/2+x,1/2+y,-z
1/2-x,1/2+y,z
1/2+x,1/2-y,z
loop_
_atom_site_type_symbol
_atom_site_label
_atom_site_fract_x
_atom_site_fract_y
_atom_site_fract_z
Si Si1 0.823316 0.083666 0.398715
Si Si2 0.833471 0.500000 0.399331
Si Si3 0.354264 0.762218 0.892611
Si Si4 0.276601 0.641350 0.156709
Si Si5 0.445024 0.000000 0.369715
Si Si6 0.054023 0.162977 0.892470
O O1 0.840918 0.076932 0.500000
O O2 0.851715 0.153255 0.355596
O O3 0.768199 0.113367 0.402720
O O4 0.824990 0.000000 0.358487
O O5 0.813422 0.500000 0.500000
O O6 0.814710 0.426462 0.349646
O O7 0.890974 0.500000 0.408577
O O8 0.306491 0.715314 0.866959
O O9 0.402550 0.717691 0.867493
O O10 0.353957 0.765823 0.000000
O O11 0.250000 0.648650 0.250000
O O12 0.444418 0.086036 0.335849
O O13 0.500000 0.000000 0.409922
O O14 0.000000 0.195596 0.883850
O O15 0.059813 0.144031 0.000000
#
# Coordination Sequence:
#
# PCOD9511158 Si02
#       6
#    32  16  32  32  16  32
#     4  10  21  37  56  76 104 146 196 241 280 330
#     4  12  21  34  56  81 119 160 189 224 274 329
#     4  10  20  35  56  81 110 151 192 229 282 339
#     4  12  24  36  52  80 115 150 190 230 279 332
#     4  10  18  28  50  85 118 146 180 222 274 340
#     4   9  16  27  47  79 114 142 178 231 283 337
#
# _framework density 21.582001999999999
#
# number of rings (size 3 to 8) (size 9 to 14) (size 15 to 20)
#    0.000    1.600    3.000    3.600    0.000    5.400 
#    0.000    0.000    0.000    0.600    0.000    8.400 
#    0.000    0.000    0.000    0.000    0.000   12.200 
#
# Total GULP energy -222832.326969 kJ/mol
# GULP energy per Si atom -5570.808174 kJ/mol
# Density = 2.153288 g / cm^3
# Si number density = 21.582002 Si / 1000 Ang^3
#
#
#
# Elastic Constant Matrix: (Units=GPa)
#
#
# Indices 1 2 3 4 5 6 
#
# 1 143.8569 87.7527 11.8335 0.0000 0.0000 0.0000
# 2 87.7527 214.9906 19.8331 0.0000 0.0000 0.0000
# 3 11.8335 19.8331 39.4241 0.0000 0.0000 0.0000
# 4 0.0000 0.0000 0.0000 18.7255 0.0000 0.0000
# 5 0.0000 0.0000 0.0000 0.0000 -5.1915 0.0000
# 6 0.0000 0.0000 0.0000 0.0000 0.0000 36.5019
#
#
#
# Elastic Compliance Matrix: (Units=1/GPa)
#
#
# Indices 1 2 3 4 5 6 
#
# 1 0.009288 -0.003706 -0.000924 0.000000 0.000000 0.000000
# 2 -0.003706 0.006356 -0.002085 0.000000 0.000000 0.000000
# 3 -0.000924 -0.002085 0.026692 0.000000 0.000000 0.000000
# 4 0.000000 0.000000 0.000000 0.053403 0.000000 0.000000
# 5 0.000000 0.000000 0.000000 0.000000 -0.192621 0.000000
# 6 0.000000 0.000000 0.000000 0.000000 0.000000 0.027396
#
#
# Mechanical properties :
#
#
# Convention : Reuss Voigt Hill
#
# Bulk Modulus (GPa) = 34.59458 70.79003 52.69230
# Shear Modulus (GPa) = -107.70822 28.59733 -39.55545
#
# Velocity S-wave (km/s) = -7.07212 3.64408 -4.28576
# Velocity P-wave (km/s) = 7.11493 7.11178 0.14975
#
# Compressibility (1/GPa) = 0.02890626
#
# Stress axis : x y z
#
# Youngs Moduli (GPa) = 107.66719 157.32289 37.46508
#
# Poissons Ratio (x) = 0.58301 0.03460
# Poissons Ratio (y) = 0.39900 0.07813
# Poissons Ratio (z) = 0.09944 0.32807
#
# Static dielectric constant tensor:
#      x y z
#    x 1.758790 0.000000 0.000000 
#    y 0.000000 1.846240 0.000000 
#    z 0.000000 0.000000 1.864530 
# 
# From -- ./inp_files/26679.got.cif
#   From: 2010.05.17/outbox.cif.g08.bks.cpg/sg69_14_cif.got.tgz:26679.got - 2010.06.03 19:29:58.
