data_PCOD9511563
_publ_section_title
;
Structure prediction by ZEFSAII (Michael W. Deem and Ramdas Pophale) SiO2 
 PCOD9511563
Probable space group: F M M M
;
_chemical_formula_sum "Si O2"
_cell_formula_units_Z 160
_cell_length_a 14.772157
_cell_length_b 33.234304
_cell_length_c 14.459023
_cell_angle_alpha 90.000000
_cell_angle_beta 90.000000
_cell_angle_gamma 90.000000
_cell_volume 7098.546824
_symmetry_space_group_name_H-M "F M M M"
_symmetry_group_IT_number 69
_symmetry_cell_setting 'orthorhombic'
loop_
_space_group_symop_operation_xyz
x,y,z
-x,-y,z
x,-y,-z
-x,y,-z
-x,-y,-z
x,y,-z
-x,y,z
x,-y,z
x,1/2+y,1/2+z
-x,1/2-y,1/2+z
x,1/2-y,1/2-z
-x,1/2+y,1/2-z
-x,1/2-y,1/2-z
x,1/2+y,1/2-z
-x,1/2+y,1/2+z
x,1/2-y,1/2+z
1/2+x,y,1/2+z
1/2-x,-y,1/2+z
1/2+x,-y,1/2-z
1/2-x,y,1/2-z
1/2-x,-y,1/2-z
1/2+x,y,1/2-z
1/2-x,y,1/2+z
1/2+x,-y,1/2+z
1/2+x,1/2+y,z
1/2-x,1/2-y,z
1/2+x,1/2-y,-z
1/2-x,1/2+y,-z
1/2-x,1/2-y,-z
1/2+x,1/2+y,-z
1/2-x,1/2+y,z
1/2+x,1/2-y,z
loop_
_atom_site_type_symbol
_atom_site_label
_atom_site_fract_x
_atom_site_fract_y
_atom_site_fract_z
Si Si1 0.843676 0.104262 0.896915
Si Si2 0.500000 0.451650 0.604980
Si Si3 0.801916 0.454141 0.847179
Si Si4 0.896262 0.770297 0.612797
Si Si5 0.000000 0.954296 0.887177
Si Si6 0.288951 0.810187 0.613491
O O1 0.751066 0.079652 0.902490
O O2 0.825001 0.147040 0.851199
O O3 0.914382 0.072031 0.858817
O O4 0.878440 0.113513 0.000000
O O5 0.500000 0.500000 0.598884
O O6 0.500000 0.435572 0.500000
O O7 0.593605 0.441952 0.654207
O O8 0.794924 0.500000 0.885117
O O9 0.750000 0.454868 0.750000
O O10 0.898682 0.771758 0.500000
O O11 0.814292 0.799945 0.642326
O O12 0.856751 0.726181 0.637916
O O13 0.000000 0.776976 0.644551
O O14 0.000000 0.000000 0.850262
O O15 0.000000 0.957912 0.000000
O O16 0.286408 0.811460 0.500000
#
# Coordination Sequence:
#
# PCOD9511563 Si02
#       6
#    32  16  32  32  16  32
#     4  10  19  31  48  72 103 136 176 230 281 335
#     4   9  18  35  59  83 105 140 193 240 282 342
#     4  10  21  36  54  76 105 143 185 232 287 342
#     4   8  13  23  40  60  91 128 159 202 263 333
#     4   9  18  29  43  67  96 129 167 208 265 329
#     4   8  15  25  38  64  94 126 167 208 265 331
#
# _framework density 22.539825
#
# number of rings (size 3 to 8) (size 9 to 14) (size 15 to 20)
#    0.000    3.000    0.000    2.400    1.400    2.800 
#    1.800    2.000    0.000    0.000    0.000    2.800 
#    0.000    1.600    0.000    0.000    0.000    0.000 
#
# Total GULP energy -223098.827457 kJ/mol
# GULP energy per Si atom -5577.470686 kJ/mol
# Density = 2.248852 g / cm^3
# Si number density = 22.539825 Si / 1000 Ang^3
#
#
#
# Elastic Constant Matrix: (Units=GPa)
#
#
# Indices 1 2 3 4 5 6 
#
# 1 210.3303 76.9731 14.6074 0.0000 0.0000 0.0000
# 2 76.9731 157.2616 6.5576 0.0000 0.0000 0.0000
# 3 14.6074 6.5576 64.7161 0.0000 0.0000 0.0000
# 4 0.0000 0.0000 0.0000 5.2941 0.0000 0.0000
# 5 0.0000 0.0000 0.0000 0.0000 8.4303 0.0000
# 6 0.0000 0.0000 0.0000 0.0000 0.0000 15.9941
#
#
#
# Elastic Compliance Matrix: (Units=1/GPa)
#
#
# Indices 1 2 3 4 5 6 
#
# 1 0.005860 -0.002825 -0.001036 0.000000 0.000000 0.000000
# 2 -0.002825 0.007748 -0.000147 0.000000 0.000000 0.000000
# 3 -0.001036 -0.000147 0.015701 0.000000 0.000000 0.000000
# 4 0.000000 0.000000 0.000000 0.188889 0.000000 0.000000
# 5 0.000000 0.000000 0.000000 0.000000 0.118619 0.000000
# 6 0.000000 0.000000 0.000000 0.000000 0.000000 0.062523
#
#
# Mechanical properties :
#
#
# Convention : Reuss Voigt Hill
#
# Bulk Modulus (GPa) = 46.96819 69.84268 58.40544
# Shear Modulus (GPa) = 12.06401 28.22171 20.14286
#
# Velocity S-wave (km/s) = 2.31602 3.54232 2.99265
# Velocity P-wave (km/s) = 5.29481 6.91262 6.15708
#
# Compressibility (1/GPa) = 0.02129100
#
# Stress axis : x y z
#
# Youngs Moduli (GPa) = 170.63932 129.06928 63.69022
#
# Poissons Ratio (x) = 0.36464 0.06601
# Poissons Ratio (y) = 0.48208 0.00939
# Poissons Ratio (z) = 0.17687 0.01902
#
# Static dielectric constant tensor:
#      x y z
#    x 1.796050 0.000000 0.000000 
#    y 0.000000 1.817830 0.000000 
#    z 0.000000 0.000000 1.886400 
# 
# From -- ./inp_files/21870.got.cif
#   From: 2010.05.17/outbox.cif.g08.bks.cpg/sg69_11_cif.got.tgz:21870.got - 2010.06.03 19:29:58.
