data_PCOD9511754
_publ_section_title
;
Structure prediction by ZEFSAII (Michael W. Deem and Ramdas Pophale) SiO2 
 PCOD9511754
Probable space group: F M M M
;
_chemical_formula_sum "Si O2"
_cell_formula_units_Z 160
_cell_length_a 29.797790
_cell_length_b 8.630674
_cell_length_c 33.419686
_cell_angle_alpha 90.000000
_cell_angle_beta 90.000000
_cell_angle_gamma 90.000000
_cell_volume 8594.708128
_symmetry_space_group_name_H-M "F M M M"
_symmetry_group_IT_number 69
_symmetry_cell_setting 'orthorhombic'
loop_
_space_group_symop_operation_xyz
x,y,z
-x,-y,z
x,-y,-z
-x,y,-z
-x,-y,-z
x,y,-z
-x,y,z
x,-y,z
x,1/2+y,1/2+z
-x,1/2-y,1/2+z
x,1/2-y,1/2-z
-x,1/2+y,1/2-z
-x,1/2-y,1/2-z
x,1/2+y,1/2-z
-x,1/2+y,1/2+z
x,1/2-y,1/2+z
1/2+x,y,1/2+z
1/2-x,-y,1/2+z
1/2+x,-y,1/2-z
1/2-x,y,1/2-z
1/2-x,-y,1/2-z
1/2+x,y,1/2-z
1/2-x,y,1/2+z
1/2+x,-y,1/2+z
1/2+x,1/2+y,z
1/2-x,1/2-y,z
1/2+x,1/2-y,-z
1/2-x,1/2+y,-z
1/2-x,1/2-y,-z
1/2+x,1/2+y,-z
1/2-x,1/2+y,z
1/2+x,1/2-y,z
loop_
_atom_site_type_symbol
_atom_site_label
_atom_site_fract_x
_atom_site_fract_y
_atom_site_fract_z
Si Si1 0.051330 0.812362 0.205225
Si Si2 0.917864 0.826556 0.500000
Si Si3 0.201523 0.184297 0.586994
Si Si4 0.949473 0.676265 0.912742
Si Si5 0.175133 0.320502 0.500000
Si Si6 0.378634 0.321035 0.138614
O O1 0.057644 0.750000 0.250000
O O2 0.092557 0.760079 0.176791
O O3 0.000000 0.766001 0.192972
O O4 0.052070 0.000000 0.204921
O O5 0.946717 0.816469 0.539645
O O6 0.878358 0.703248 0.500000
O O7 0.896215 0.000000 0.500000
O O8 0.250000 0.250000 0.598576
O O9 0.191199 0.246111 0.541933
O O10 0.164298 0.236809 0.619497
O O11 0.202060 0.000000 0.585217
O O12 0.935087 0.500000 0.901294
O O13 0.916171 0.801844 0.895530
O O14 0.000000 0.699611 0.899206
O O15 0.188249 0.500000 0.500000
O O16 0.366984 0.500000 0.145662
#
# Coordination Sequence:
#
# PCOD9511754 Si02
#       6
#    32  16  32  32  16  32
#     4   9  19  36  59  88 122 157 192 231 276 332
#     4  10  19  33  51  73 107 150 192 236 280 329
#     4  12  25  42  62  85 113 149 192 242 294 347
#     4  10  20  33  51  76 109 151 194 235 280 333
#     4  12  23  38  59  84 112 148 193 244 296 344
#     4  11  22  37  57  84 117 150 187 237 290 341
#
# _framework density 18.616105000000001
#
# number of rings (size 3 to 8) (size 9 to 14) (size 15 to 20)
#    0.000    1.400    2.000    4.500    0.000    4.000 
#    0.000    2.000    0.000    2.400    0.000    4.200 
#    0.000    0.000    0.000    0.000    0.000    0.000 
#
# Total GULP energy -223143.047743 kJ/mol
# GULP energy per Si atom -5578.576194 kJ/mol
# Density = 1.857373 g / cm^3
# Si number density = 18.616105 Si / 1000 Ang^3
#
#
#
# Elastic Constant Matrix: (Units=GPa)
#
#
# Indices 1 2 3 4 5 6 
#
# 1 127.6429 47.9558 61.0514 0.0002 0.0001 -0.0003
# 2 47.9558 78.3183 35.0162 0.0003 0.0001 -0.0007
# 3 61.0514 35.0162 120.6822 0.0000 0.0000 0.0000
# 4 0.0002 0.0003 0.0000 22.9525 0.0000 -0.0001
# 5 0.0001 0.0001 0.0000 0.0000 -2.3113 -0.0001
# 6 -0.0003 -0.0007 0.0000 -0.0001 -0.0001 10.8993
#
#
#
# Elastic Compliance Matrix: (Units=1/GPa)
#
#
# Indices 1 2 3 4 5 6 
#
# 1 0.011999 -0.005324 -0.004525 0.000000 0.000000 0.000000
# 2 -0.005324 0.017034 -0.002249 0.000000 0.000000 0.000001
# 3 -0.004525 -0.002249 0.011228 0.000000 0.000000 0.000000
# 4 0.000000 0.000000 0.000000 0.043568 0.000001 0.000000
# 5 0.000000 0.000000 0.000000 0.000001 -0.432653 -0.000004
# 6 0.000000 0.000001 0.000000 0.000000 -0.000004 0.091749
#
#
# Mechanical properties :
#
#
# Convention : Reuss Voigt Hill
#
# Bulk Modulus (GPa) = 62.25015 68.29891 65.27453
# Shear Modulus (GPa) = -21.97583 18.48277 -1.74653
#
# Velocity S-wave (km/s) = -3.43953 3.15435 -0.96965
# Velocity P-wave (km/s) = 4.21161 7.07349 5.82117
#
# Compressibility (1/GPa) = 0.01606422
#
# Stress axis : x y z
#
# Youngs Moduli (GPa) = 83.33983 58.70630 89.06186
#
# Poissons Ratio (x) = 0.31255 0.40304
# Poissons Ratio (y) = 0.44370 0.20031
# Poissons Ratio (z) = 0.37715 0.13204
#
# Static dielectric constant tensor:
#      x y z
#    x 1.641860 0.000000 0.000000 
#    y 0.000000 1.677980 0.000000 
#    z 0.000000 0.000000 1.657000 
# 
# From -- ./inp_files/47515.got.cif
#   From: 2010.05.17/outbox.cif.g08.bks.cpg/sg69_24_cif.got.tgz:47515.got - 2010.06.03 19:29:58.
