data_PCOD9511714
_publ_section_title
;
Structure prediction by ZEFSAII (Michael W. Deem and Ramdas Pophale) SiO2 
 PCOD9511714
Probable space group: F M M M
;
_chemical_formula_sum "Si O2"
_cell_formula_units_Z 160
_cell_length_a 18.705444
_cell_length_b 17.321994
_cell_length_c 26.823086
_cell_angle_alpha 90.000000
_cell_angle_beta 90.000000
_cell_angle_gamma 90.000000
_cell_volume 8691.098002
_symmetry_space_group_name_H-M "F M M M"
_symmetry_group_IT_number 69
_symmetry_cell_setting 'orthorhombic'
loop_
_space_group_symop_operation_xyz
x,y,z
-x,-y,z
x,-y,-z
-x,y,-z
-x,-y,-z
x,y,-z
-x,y,z
x,-y,z
x,1/2+y,1/2+z
-x,1/2-y,1/2+z
x,1/2-y,1/2-z
-x,1/2+y,1/2-z
-x,1/2-y,1/2-z
x,1/2+y,1/2-z
-x,1/2+y,1/2+z
x,1/2-y,1/2+z
1/2+x,y,1/2+z
1/2-x,-y,1/2+z
1/2+x,-y,1/2-z
1/2-x,y,1/2-z
1/2-x,-y,1/2-z
1/2+x,y,1/2-z
1/2-x,y,1/2+z
1/2+x,-y,1/2+z
1/2+x,1/2+y,z
1/2-x,1/2-y,z
1/2+x,1/2-y,-z
1/2-x,1/2+y,-z
1/2-x,1/2-y,-z
1/2+x,1/2+y,-z
1/2-x,1/2+y,z
1/2+x,1/2-y,z
loop_
_atom_site_type_symbol
_atom_site_label
_atom_site_fract_x
_atom_site_fract_y
_atom_site_fract_z
Si Si1 0.917394 0.594294 0.814191
Si Si2 0.415229 0.338775 0.000000
Si Si3 0.414155 0.589432 0.795024
Si Si4 0.144282 0.090236 0.102443
Si Si5 0.321884 0.303547 0.500000
Si Si6 0.686612 0.409697 0.596271
O O1 0.917578 0.500000 0.811780
O O2 0.893730 0.622304 0.759124
O O3 0.863641 0.615860 0.858107
O O4 0.000000 0.617654 0.823345
O O5 0.381246 0.373669 0.949495
O O6 0.500000 0.350446 0.000000
O O7 0.390832 0.250555 0.000000
O O8 0.500000 0.587867 0.794981
O O9 0.388239 0.500000 0.795767
O O10 0.388964 0.625240 0.847028
O O11 0.229412 0.094701 0.108524
O O12 0.123041 0.000000 0.099551
O O13 0.250000 0.250000 0.500000
O O14 0.323182 0.356935 0.451636
O O15 0.670387 0.500000 0.585505
#
# Coordination Sequence:
#
# PCOD9511714 Si02
#       6
#    32  16  32  32  16  32
#     4   8  15  29  50  79 112 142 177 225 274 317
#     4  12  25  38  55  80 107 147 191 225 269 328
#     4   8  14  26  46  75 113 148 175 217 274 319
#     4  10  19  32  53  83 115 147 183 224 270 324
#     4  12  23  41  57  73 109 148 176 223 275 321
#     4  10  20  35  59  84 107 141 182 223 273 328
#
# _framework density 18.409642000000002
#
# number of rings (size 3 to 8) (size 9 to 14) (size 15 to 20)
#    0.000    2.400    2.000    2.400    0.000    4.800 
#    0.000    4.000    0.000    4.200    0.000    4.200 
#    0.000    0.000    0.000    0.000    0.000    0.000 
#
# Total GULP energy -222896.221854 kJ/mol
# GULP energy per Si atom -5572.405546 kJ/mol
# Density = 1.836774 g / cm^3
# Si number density = 18.409642 Si / 1000 Ang^3
#
#
#
# Elastic Constant Matrix: (Units=GPa)
#
#
# Indices 1 2 3 4 5 6 
#
# 1 66.1291 21.2578 71.5443 0.0000 0.0000 0.0000
# 2 21.2578 30.0087 50.0765 0.0000 0.0000 0.0000
# 3 71.5443 50.0765 215.4863 0.0000 0.0000 0.0000
# 4 0.0000 0.0000 0.0000 -14.5183 0.0000 0.0000
# 5 0.0000 0.0000 0.0000 0.0000 28.9450 0.0000
# 6 0.0000 0.0000 0.0000 0.0000 0.0000 17.0811
#
#
#
# Elastic Compliance Matrix: (Units=1/GPa)
#
#
# Indices 1 2 3 4 5 6 
#
# 1 0.024267 -0.006118 -0.006635 0.000000 0.000000 0.000000
# 2 -0.006118 0.055975 -0.010977 0.000000 0.000000 0.000000
# 3 -0.006635 -0.010977 0.009394 0.000000 0.000000 0.000000
# 4 0.000000 0.000000 0.000000 -0.068879 0.000000 0.000000
# 5 0.000000 0.000000 0.000000 0.000000 0.034548 0.000000
# 6 0.000000 0.000000 0.000000 0.000000 0.000000 0.058544
#
#
# Mechanical properties :
#
#
# Convention : Reuss Voigt Hill
#
# Bulk Modulus (GPa) = 23.70990 66.37568 45.04279
# Shear Modulus (GPa) = 28.51135 17.55128 23.03132
#
# Velocity S-wave (km/s) = 3.93965 3.09103 3.54085
# Velocity P-wave (km/s) = 5.79667 6.99088 6.42160
#
# Compressibility (1/GPa) = 0.04217648
#
# Stress axis : x y z
#
# Youngs Moduli (GPa) = 41.20776 17.86526 106.44550
#
# Poissons Ratio (x) = 0.10930 0.70630
# Poissons Ratio (y) = 0.25211 1.16840
# Poissons Ratio (z) = 0.27342 0.19610
#
# Static dielectric constant tensor:
#      x y z
#    x 1.622910 0.000000 0.000000 
#    y 0.000000 1.643360 0.000000 
#    z 0.000000 0.000000 1.658830 
# 
# From -- ./inp_files/24926.got.cif
#   From: 2010.05.17/outbox.cif.g08.bks.cpg/sg69_13_cif.got.tgz:24926.got - 2010.06.03 19:29:58.
