data_PCOD9511620
_publ_section_title
;
Structure prediction by ZEFSAII (Michael W. Deem and Ramdas Pophale) SiO2 
 PCOD9511620
Probable space group: F M M M
;
_chemical_formula_sum "Si O2"
_cell_formula_units_Z 160
_cell_length_a 24.347484
_cell_length_b 21.512578
_cell_length_c 15.106713
_cell_angle_alpha 90.000000
_cell_angle_beta 90.000000
_cell_angle_gamma 90.000000
_cell_volume 7912.551061
_symmetry_space_group_name_H-M "F M M M"
_symmetry_group_IT_number 69
_symmetry_cell_setting 'orthorhombic'
loop_
_space_group_symop_operation_xyz
x,y,z
-x,-y,z
x,-y,-z
-x,y,-z
-x,-y,-z
x,y,-z
-x,y,z
x,-y,z
x,1/2+y,1/2+z
-x,1/2-y,1/2+z
x,1/2-y,1/2-z
-x,1/2+y,1/2-z
-x,1/2-y,1/2-z
x,1/2+y,1/2-z
-x,1/2+y,1/2+z
x,1/2-y,1/2+z
1/2+x,y,1/2+z
1/2-x,-y,1/2+z
1/2+x,-y,1/2-z
1/2-x,y,1/2-z
1/2-x,-y,1/2-z
1/2+x,y,1/2-z
1/2-x,y,1/2+z
1/2+x,-y,1/2+z
1/2+x,1/2+y,z
1/2-x,1/2-y,z
1/2+x,1/2-y,-z
1/2-x,1/2+y,-z
1/2-x,1/2-y,-z
1/2+x,1/2+y,-z
1/2-x,1/2+y,z
1/2+x,1/2-y,z
loop_
_atom_site_type_symbol
_atom_site_label
_atom_site_fract_x
_atom_site_fract_y
_atom_site_fract_z
Si Si1 0.785846 0.568401 0.896150
Si Si2 0.000000 0.739611 0.371063
Si Si3 0.621111 0.231677 0.096981
Si Si4 0.119424 0.114586 0.723097
Si Si5 0.500000 0.636154 0.714818
Si Si6 0.179981 0.855926 0.897708
O O1 0.760575 0.500000 0.880905
O O2 0.839141 0.575621 0.836323
O O3 0.741303 0.621419 0.876101
O O4 0.799690 0.572469 0.000000
O O5 0.062532 0.731742 0.404987
O O6 0.000000 0.689857 0.290869
O O7 0.000000 0.815660 0.366979
O O8 0.621348 0.183578 0.177757
O O9 0.668861 0.282377 0.106542
O O10 0.626977 0.200830 0.000000
O O11 0.055556 0.097769 0.718609
O O12 0.140568 0.115806 0.823189
O O13 0.169012 0.874990 0.000000
#
# Coordination Sequence:
#
# PCOD9511620 Si02
#       6
#    32  16  32  32  16  32
#     4  10  23  43  63  82 106 142 192 245 294 343
#     4   9  15  30  50  76 119 155 186 218 269 329
#     4  10  19  31  53  86 120 154 189 227 280 339
#     4  11  20  36  58  83 119 154 186 232 285 340
#     4   9  18  30  53  83 115 148 189 222 266 336
#     4  10  21  35  55  84 114 149 193 236 278 336
#
# _framework density 20.221039000000001
#
# number of rings (size 3 to 8) (size 9 to 14) (size 15 to 20)
#    0.000    2.000    2.000    2.100    0.000    2.400 
#    0.000    7.500    0.000    1.200    0.000    0.700 
#    0.000    9.600    0.000    0.000    0.000    0.000 
#
# Total GULP energy -222789.106809 kJ/mol
# GULP energy per Si atom -5569.727670 kJ/mol
# Density = 2.017502 g / cm^3
# Si number density = 20.221039 Si / 1000 Ang^3
#
#
#
# Elastic Constant Matrix: (Units=GPa)
#
#
# Indices 1 2 3 4 5 6 
#
# 1 120.0093 33.7953 47.6433 0.0000 0.0000 0.0000
# 2 33.7953 39.2483 8.2556 0.0000 0.0000 0.0000
# 3 47.6433 8.2556 74.1653 0.0000 0.0000 0.0000
# 4 0.0000 0.0000 0.0000 12.9781 0.0000 0.0000
# 5 0.0000 0.0000 0.0000 0.0000 66.7704 0.0000
# 6 0.0000 0.0000 0.0000 0.0000 0.0000 -4.3961
#
#
#
# Elastic Compliance Matrix: (Units=1/GPa)
#
#
# Indices 1 2 3 4 5 6 
#
# 1 0.014658 -0.010896 -0.008203 0.000000 0.000000 0.000000
# 2 -0.010896 0.034189 0.003194 0.000000 0.000000 0.000000
# 3 -0.008203 0.003194 0.018397 0.000000 0.000000 0.000000
# 4 0.000000 0.000000 0.000000 0.077053 0.000000 0.000000
# 5 0.000000 0.000000 0.000000 0.000000 0.014977 0.000000
# 6 0.000000 0.000000 0.000000 0.000000 0.000000 -0.227473
#
#
# Mechanical properties :
#
#
# Convention : Reuss Voigt Hill
#
# Bulk Modulus (GPa) = 28.22170 45.86792 37.04481
# Shear Modulus (GPa) = -203.43111 24.65239 -89.38936
#
# Velocity S-wave (km/s) = -10.04102 3.49541 -6.65598
# Velocity P-wave (km/s) = 10.97463 6.24684 6.38042
#
# Compressibility (1/GPa) = 0.03543372
#
# Stress axis : x y z
#
# Youngs Moduli (GPa) = 68.22414 29.24925 54.35522
#
# Poissons Ratio (x) = 0.31869 0.44588
# Poissons Ratio (y) = 0.74335 -0.17359
# Poissons Ratio (z) = 0.55965 -0.09341
#
# Static dielectric constant tensor:
#      x y z
#    x 1.746470 0.000000 0.000000 
#    y 0.000000 1.717820 0.000000 
#    z 0.000000 0.000000 1.794110 
# 
# From -- ./inp_files/26900.got.cif
#   From: 2010.05.17/outbox.cif.g08.bks.cpg/sg69_14_cif.got.tgz:26900.got - 2010.06.03 19:29:58.
