data_PCOD9511055
_publ_section_title
;
Structure prediction by ZEFSAII (Michael W. Deem and Ramdas Pophale) SiO2 
 PCOD9511055
Probable space group: F M M M
;
_chemical_formula_sum "Si O2"
_cell_formula_units_Z 128
_cell_length_a 14.467479
_cell_length_b 25.395764
_cell_length_c 15.514165
_cell_angle_alpha 90.000000
_cell_angle_beta 90.000000
_cell_angle_gamma 90.000000
_cell_volume 5700.100977
_symmetry_space_group_name_H-M "F M M M"
_symmetry_group_IT_number 69
_symmetry_cell_setting 'orthorhombic'
loop_
_space_group_symop_operation_xyz
x,y,z
-x,-y,z
x,-y,-z
-x,y,-z
-x,-y,-z
x,y,-z
-x,y,z
x,-y,z
x,1/2+y,1/2+z
-x,1/2-y,1/2+z
x,1/2-y,1/2-z
-x,1/2+y,1/2-z
-x,1/2-y,1/2-z
x,1/2+y,1/2-z
-x,1/2+y,1/2+z
x,1/2-y,1/2+z
1/2+x,y,1/2+z
1/2-x,-y,1/2+z
1/2+x,-y,1/2-z
1/2-x,y,1/2-z
1/2-x,-y,1/2-z
1/2+x,y,1/2-z
1/2-x,y,1/2+z
1/2+x,-y,1/2+z
1/2+x,1/2+y,z
1/2-x,1/2-y,z
1/2+x,1/2-y,-z
1/2-x,1/2+y,-z
1/2-x,1/2-y,-z
1/2+x,1/2+y,-z
1/2-x,1/2+y,z
1/2+x,1/2-y,z
loop_
_atom_site_type_symbol
_atom_site_label
_atom_site_fract_x
_atom_site_fract_y
_atom_site_fract_z
Si Si1 0.890050 0.386392 0.665226
Si Si2 0.646835 0.500000 0.788704
Si Si3 0.113316 0.115466 0.362157
Si Si4 0.111688 0.201826 0.500000
Si Si5 0.372087 0.000000 0.901143
Si Si6 0.613650 0.822236 0.500000
O O1 0.871935 0.448446 0.656524
O O2 0.859815 0.374910 0.763134
O O3 0.854298 0.352199 0.586175
O O4 0.000000 0.378309 0.666315
O O5 0.750000 0.500000 0.750000
O O6 0.590553 0.500000 0.698646
O O7 0.136330 0.166176 0.418194
O O8 0.000000 0.106996 0.368888
O O9 0.160697 0.061547 0.395910
O O10 0.144080 0.261698 0.500000
O O11 0.000000 0.205105 0.500000
O O12 0.408151 0.000000 0.000000
O O13 0.500000 0.823394 0.500000
#
# Coordination Sequence:
#
# PCOD9511055 Si02
#       6
#    32  16  32  16  16  16
#     4   9  18  33  52  75 103 135 167 205 251 304
#     4  10  21  36  51  75 102 126 163 207 258 308
#     4   9  16  25  43  72 104 132 159 202 259 304
#     4   9  16  25  41  71 106 137 170 208 251 296
#     4  10  17  28  46  69  95 126 160 201 256 314
#     4   9  18  31  47  71 104 139 178 210 240 290
#
# _framework density 22.455742999999998
#
# number of rings (size 3 to 8) (size 9 to 14) (size 15 to 20)
#    0.000    2.750    1.250    0.750    0.000    5.000 
#    2.250    6.875    0.000    0.000    0.000   21.000 
#    0.000    0.000    0.000    0.000    0.000    0.000 
#
# Total GULP energy -178140.403843 kJ/mol
# GULP energy per Si atom -5566.887620 kJ/mol
# Density = 2.240463 g / cm^3
# Si number density = 22.455743 Si / 1000 Ang^3
#
#
#
# Elastic Constant Matrix: (Units=GPa)
#
#
# Indices 1 2 3 4 5 6 
#
# 1 68.8745 -14.2975 27.7289 0.0000 0.0000 0.0000
# 2 -14.2975 239.0735 154.0333 0.0000 0.0000 0.0000
# 3 27.7289 154.0333 194.1040 0.0000 0.0000 0.0000
# 4 0.0000 0.0000 0.0000 34.9758 0.0000 0.0000
# 5 0.0000 0.0000 0.0000 0.0000 -3.0069 0.0000
# 6 0.0000 0.0000 0.0000 0.0000 0.0000 11.2033
#
#
#
# Elastic Compliance Matrix: (Units=1/GPa)
#
#
# Indices 1 2 3 4 5 6 
#
# 1 0.018645 0.005793 -0.007261 0.000000 0.000000 0.000000
# 2 0.005793 0.010359 -0.009048 0.000000 0.000000 0.000000
# 3 -0.007261 -0.009048 0.013369 0.000000 0.000000 0.000000
# 4 0.000000 0.000000 0.000000 0.028591 0.000000 0.000000
# 5 0.000000 0.000000 0.000000 0.000000 -0.332572 0.000000
# 6 0.000000 0.000000 0.000000 0.000000 0.000000 0.089260
#
#
# Mechanical properties :
#
#
# Convention : Reuss Voigt Hill
#
# Bulk Modulus (GPa) = 46.85649 92.99790 69.92720
# Shear Modulus (GPa) = -34.67321 30.94026 -1.86648
#
# Velocity S-wave (km/s) = -3.93373 3.71594 -0.91268
# Velocity P-wave (km/s) = 0.52837 7.74046 5.48607
#
# Compressibility (1/GPa) = 0.02134176
#
# Stress axis : x y z
#
# Youngs Moduli (GPa) = 53.63412 96.53722 74.79944
#
# Poissons Ratio (x) = -0.55924 0.54309
# Poissons Ratio (y) = -0.31070 0.67677
# Poissons Ratio (z) = 0.38942 0.87345
#
# Static dielectric constant tensor:
#      x y z
#    x 1.959290 0.000000 0.000000 
#    y 0.000000 1.801710 0.000000 
#    z 0.000000 0.000000 1.818270 
# 
# From -- ./inp_files/24415.got.cif
#   From: 2010.05.17/outbox.cif.g08.bks.cpg/sg69_13_cif.got.tgz:24415.got - 2010.06.03 19:29:58.
