data_PCOD9511822
_publ_section_title
;
Structure prediction by ZEFSAII (Michael W. Deem and Ramdas Pophale) SiO2 
 PCOD9511822
Probable space group: F M M M
;
_chemical_formula_sum "Si O2"
_cell_formula_units_Z 192
_cell_length_a 27.875070
_cell_length_b 20.591845
_cell_length_c 19.494737
_cell_angle_alpha 90.000000
_cell_angle_beta 90.000000
_cell_angle_gamma 90.000000
_cell_volume 11189.961898
_symmetry_space_group_name_H-M "F M M M"
_symmetry_group_IT_number 69
_symmetry_cell_setting 'orthorhombic'
loop_
_space_group_symop_operation_xyz
x,y,z
-x,-y,z
x,-y,-z
-x,y,-z
-x,-y,-z
x,y,-z
-x,y,z
x,-y,z
x,1/2+y,1/2+z
-x,1/2-y,1/2+z
x,1/2-y,1/2-z
-x,1/2+y,1/2-z
-x,1/2-y,1/2-z
x,1/2+y,1/2-z
-x,1/2+y,1/2+z
x,1/2-y,1/2+z
1/2+x,y,1/2+z
1/2-x,-y,1/2+z
1/2+x,-y,1/2-z
1/2-x,y,1/2-z
1/2-x,-y,1/2-z
1/2+x,y,1/2-z
1/2-x,y,1/2+z
1/2+x,-y,1/2+z
1/2+x,1/2+y,z
1/2-x,1/2-y,z
1/2+x,1/2-y,-z
1/2-x,1/2+y,-z
1/2-x,1/2-y,-z
1/2+x,1/2+y,-z
1/2-x,1/2+y,z
1/2+x,1/2-y,z
loop_
_atom_site_type_symbol
_atom_site_label
_atom_site_fract_x
_atom_site_fract_y
_atom_site_fract_z
Si Si1 0.285882 0.075721 0.313348
Si Si2 0.556216 0.187847 0.199944
Si Si3 0.106032 0.753971 0.078498
Si Si4 0.712644 0.308047 0.918506
Si Si5 0.056804 0.391666 0.576853
Si Si6 0.103187 0.927958 0.216602
O O1 0.250000 0.086109 0.250000
O O2 0.277818 0.128394 0.372968
O O3 0.340120 0.084573 0.286286
O O4 0.281301 0.000000 0.335949
O O5 0.500000 0.181093 0.183267
O O6 0.561356 0.250000 0.250000
O O7 0.587439 0.202225 0.132729
O O8 0.575480 0.125961 0.240658
O O9 0.158816 0.781721 0.095370
O O10 0.069996 0.815455 0.081672
O O11 0.107112 0.730218 0.000000
O O12 0.750000 0.250000 0.903668
O O13 0.715362 0.322786 0.000000
O O14 0.070922 0.413116 0.500000
O O15 0.084523 0.425037 0.638395
O O16 0.000000 0.400950 0.584631
O O17 0.094609 0.000000 0.244394
#
# Coordination Sequence:
#
# PCOD9511822 Si02
#       6
#    32  32  32  32  32  32
#     4  10  22  39  58  82 113 150 190 229 277 340
#     4  11  21  34  55  82 112 151 192 225 267 329
#     4  10  20  36  57  83 113 144 184 234 282 330
#     4  10  21  37  59  87 114 142 183 234 287 338
#     4  10  19  33  55  83 117 153 185 221 272 337
#     4  11  23  38  56  81 116 152 187 234 283 330
#
# _framework density 17.158235999999999
#
# number of rings (size 3 to 8) (size 9 to 14) (size 15 to 20)
#    0.000    1.667    3.333    1.000    2.333    3.333 
#    0.000    2.500    0.000    0.500    0.000    1.167 
#    0.000    0.000    0.000    0.000    0.000    0.000 
#
# Total GULP energy -267989.831070 kJ/mol
# GULP energy per Si atom -5583.121481 kJ/mol
# Density = 1.711918 g / cm^3
# Si number density = 17.158236 Si / 1000 Ang^3
#
#
#
# Elastic Constant Matrix: (Units=GPa)
#
#
# Indices 1 2 3 4 5 6 
#
# 1 97.3333 47.4519 62.1517 0.0000 0.0000 0.0000
# 2 47.4519 111.3946 65.1433 0.0000 0.0000 0.0000
# 3 62.1517 65.1433 104.5446 0.0000 0.0000 0.0000
# 4 0.0000 0.0000 0.0000 -6.6960 0.0000 0.0000
# 5 0.0000 0.0000 0.0000 0.0000 25.2458 0.0000
# 6 0.0000 0.0000 0.0000 0.0000 0.0000 47.6694
#
#
#
# Elastic Compliance Matrix: (Units=1/GPa)
#
#
# Indices 1 2 3 4 5 6 
#
# 1 0.016861 -0.002078 -0.008729 0.000000 0.000000 0.000000
# 2 -0.002078 0.014380 -0.007725 0.000000 0.000000 0.000000
# 3 -0.008729 -0.007725 0.019568 0.000000 0.000000 0.000000
# 4 0.000000 0.000000 0.000000 -0.149343 0.000000 0.000000
# 5 0.000000 0.000000 0.000000 0.000000 0.039611 0.000000
# 6 0.000000 0.000000 0.000000 0.000000 0.000000 0.020978
#
#
# Mechanical properties :
#
#
# Convention : Reuss Voigt Hill
#
# Bulk Modulus (GPa) = 72.75247 73.64072 73.19659
# Shear Modulus (GPa) = 1351.51332 22.47888 686.99610
#
# Velocity S-wave (km/s) = 28.09602 3.62345 20.03142
# Velocity P-wave (km/s) = 33.09090 7.77930 24.03669
#
# Compressibility (1/GPa) = 0.01374524
#
# Stress axis : x y z
#
# Youngs Moduli (GPa) = 59.30918 69.54235 51.10279
#
# Poissons Ratio (x) = 0.14448 0.44608
# Poissons Ratio (y) = 0.12322 0.39477
# Poissons Ratio (z) = 0.51772 0.53722
#
# Static dielectric constant tensor:
#      x y z
#    x 1.571820 0.000000 0.000000 
#    y 0.000000 1.577550 0.000000 
#    z 0.000000 0.000000 1.576460 
# 
# From -- ./inp_files/32832.got.cif
#   From: 2010.05.17/outbox.cif.g08.bks.cpg/sg69_17_cif.got.tgz:32832.got - 2010.06.03 19:29:58.
