data_PCOD9511307
_publ_section_title
;
Structure prediction by ZEFSAII (Michael W. Deem and Ramdas Pophale) SiO2 
 PCOD9511307
Probable space group: F M M M
;
_chemical_formula_sum "Si O2"
_cell_formula_units_Z 224
_cell_length_a 31.661055
_cell_length_b 21.113002
_cell_length_c 16.989151
_cell_angle_alpha 90.000000
_cell_angle_beta 90.000000
_cell_angle_gamma 90.000000
_cell_volume 11356.566476
_symmetry_space_group_name_H-M "F M M M"
_symmetry_group_IT_number 69
_symmetry_cell_setting 'orthorhombic'
loop_
_space_group_symop_operation_xyz
x,y,z
-x,-y,z
x,-y,-z
-x,y,-z
-x,-y,-z
x,y,-z
-x,y,z
x,-y,z
x,1/2+y,1/2+z
-x,1/2-y,1/2+z
x,1/2-y,1/2-z
-x,1/2+y,1/2-z
-x,1/2-y,1/2-z
x,1/2+y,1/2-z
-x,1/2+y,1/2+z
x,1/2-y,1/2+z
1/2+x,y,1/2+z
1/2-x,-y,1/2+z
1/2+x,-y,1/2-z
1/2-x,y,1/2-z
1/2-x,-y,1/2-z
1/2+x,y,1/2-z
1/2-x,y,1/2+z
1/2+x,-y,1/2+z
1/2+x,1/2+y,z
1/2-x,1/2-y,z
1/2+x,1/2-y,-z
1/2-x,1/2+y,-z
1/2-x,1/2-y,-z
1/2+x,1/2+y,-z
1/2-x,1/2+y,z
1/2+x,1/2-y,z
loop_
_atom_site_type_symbol
_atom_site_label
_atom_site_fract_x
_atom_site_fract_y
_atom_site_fract_z
Si Si1 0.869209 0.316721 0.209338
Si Si2 0.453876 0.855987 0.238484
Si Si3 0.689774 0.625503 0.406496
Si Si4 0.451815 0.379916 0.910322
Si Si5 0.367277 0.927446 0.660208
Si Si6 0.547654 0.000000 0.810091
Si Si7 0.224673 0.570974 0.405763
Si Si8 0.634308 0.500000 0.406994
O O1 0.864186 0.250000 0.250000
O O2 0.917926 0.325888 0.185267
O O3 0.835735 0.322513 0.140641
O O4 0.865840 0.375251 0.270955
O O5 0.500000 0.838989 0.209707
O O6 0.450396 0.836926 0.330927
O O7 0.450552 0.933301 0.236883
O O8 0.689605 0.636424 0.500000
O O9 0.737802 0.616274 0.377695
O O10 0.663105 0.561263 0.390522
O O11 0.500000 0.408806 0.905951
O O12 0.409027 0.420035 0.894335
O O13 0.448793 0.354517 0.000000
O O14 0.323619 0.915621 0.614259
O O15 0.366471 0.000000 0.690193
O O16 0.589090 0.000000 0.864434
O O17 0.500000 0.000000 0.846861
O O18 0.228757 0.569517 0.500000
O O19 0.234046 0.500000 0.375935
O O20 0.625930 0.500000 0.500000
#
# Coordination Sequence:
#
# PCOD9511307 Si02
#       8
#    32  32  32  32  32  16  32  16
#     4  11  24  40  59  83 114 151 194 238 287 346
#     4   9  19  34  55  80 112 152 192 233 286 343
#     4  10  20  36  60  86 114 148 191 239 291 347
#     4   9  18  31  49  79 116 149 185 230 279 333
#     4  10  22  36  56  82 113 150 188 239 292 339
#     4  10  18  31  53  85 119 147 179 236 296 353
#     4   9  17  33  57  88 120 149 188 237 290 345
#     4  10  18  31  58  89 113 145 184 237 293 345
#
# _framework density 19.724271000000002
#
# number of rings (size 3 to 8) (size 9 to 14) (size 15 to 20)
#    0.000    2.286    2.143    0.429    5.000    2.143 
#    0.000    7.143    0.000    2.143    0.000    0.000 
#    0.000    0.000    0.000    0.000    0.000    0.000 
#
# Total GULP energy -311745.598401 kJ/mol
# GULP energy per Si atom -5566.885686 kJ/mol
# Density = 1.967938 g / cm^3
# Si number density = 19.724271 Si / 1000 Ang^3
#
#
#
# Elastic Constant Matrix: (Units=GPa)
#
#
# Indices 1 2 3 4 5 6 
#
# 1 184.0575 29.0771 39.6250 0.0000 0.0000 0.0000
# 2 29.0771 51.0186 9.4273 0.0000 0.0000 0.0000
# 3 39.6250 9.4273 26.0361 0.0000 0.0000 0.0000
# 4 0.0000 0.0000 0.0000 11.6886 0.0000 0.0000
# 5 0.0000 0.0000 0.0000 0.0000 31.0600 0.0000
# 6 0.0000 0.0000 0.0000 0.0000 0.0000 2.4442
#
#
#
# Elastic Compliance Matrix: (Units=1/GPa)
#
#
# Indices 1 2 3 4 5 6 
#
# 1 0.008390 -0.002596 -0.011829 0.000000 0.000000 0.000000
# 2 -0.002596 0.021809 -0.003946 0.000000 0.000000 0.000000
# 3 -0.011829 -0.003946 0.057839 0.000000 0.000000 0.000000
# 4 0.000000 0.000000 0.000000 0.085553 0.000000 0.000000
# 5 0.000000 0.000000 0.000000 0.000000 0.032196 0.000000
# 6 0.000000 0.000000 0.000000 0.000000 0.000000 0.409128
#
#
# Mechanical properties :
#
#
# Convention : Reuss Voigt Hill
#
# Bulk Modulus (GPa) = 19.49427 46.37455 32.93441
# Shear Modulus (GPa) = 7.47657 21.23742 14.35700
#
# Velocity S-wave (km/s) = 1.94904 3.28489 2.70086
# Velocity P-wave (km/s) = 3.86909 6.16034 5.14391
#
# Compressibility (1/GPa) = 0.05129712
#
# Stress axis : x y z
#
# Youngs Moduli (GPa) = 119.19377 45.85190 17.28931
#
# Poissons Ratio (x) = 0.11902 0.20451
# Poissons Ratio (y) = 0.30941 0.06823
# Poissons Ratio (z) = 1.40989 0.18094
#
# Static dielectric constant tensor:
#      x y z
#    x 1.776190 0.000000 0.000000 
#    y 0.000000 1.697210 0.000000 
#    z 0.000000 0.000000 1.699150 
# 
# From -- ./inp_files/27982.got.cif
#   From: 2010.05.17/outbox.cif.g08.bks.cpg/sg69_14_cif.got.tgz:27982.got - 2010.06.03 19:29:58.
