data_PCOD9511280
_publ_section_title
;
Structure prediction by ZEFSAII (Michael W. Deem and Ramdas Pophale) SiO2 
 PCOD9511280
Probable space group: F M M M
;
_chemical_formula_sum "Si O2"
_cell_formula_units_Z 232
_cell_length_a 27.040822
_cell_length_b 26.326286
_cell_length_c 20.398344
_cell_angle_alpha 90.000000
_cell_angle_beta 90.000000
_cell_angle_gamma 90.000000
_cell_volume 14521.263158
_symmetry_space_group_name_H-M "F M M M"
_symmetry_group_IT_number 69
_symmetry_cell_setting 'orthorhombic'
loop_
_space_group_symop_operation_xyz
x,y,z
-x,-y,z
x,-y,-z
-x,y,-z
-x,-y,-z
x,y,-z
-x,y,z
x,-y,z
x,1/2+y,1/2+z
-x,1/2-y,1/2+z
x,1/2-y,1/2-z
-x,1/2+y,1/2-z
-x,1/2-y,1/2-z
x,1/2+y,1/2-z
-x,1/2+y,1/2+z
x,1/2-y,1/2+z
1/2+x,y,1/2+z
1/2-x,-y,1/2+z
1/2+x,-y,1/2-z
1/2-x,y,1/2-z
1/2-x,-y,1/2-z
1/2+x,y,1/2-z
1/2-x,y,1/2+z
1/2+x,-y,1/2+z
1/2+x,1/2+y,z
1/2-x,1/2-y,z
1/2+x,1/2-y,-z
1/2-x,1/2+y,-z
1/2-x,1/2-y,-z
1/2+x,1/2+y,-z
1/2-x,1/2+y,z
1/2+x,1/2-y,z
loop_
_atom_site_type_symbol
_atom_site_label
_atom_site_fract_x
_atom_site_fract_y
_atom_site_fract_z
Si Si1 0.713416 0.557472 0.811658
Si Si2 0.941386 0.556883 0.795352
Si Si3 0.750000 0.750000 0.750000
Si Si4 0.748536 0.370297 0.075619
Si Si5 0.676097 0.206445 0.643526
Si Si6 0.629638 0.634708 0.235160
Si Si7 0.557600 0.383227 0.425179
Si Si8 0.649109 0.320709 0.379169
O O1 0.697716 0.500000 0.826486
O O2 0.750000 0.556162 0.750000
O O3 0.738735 0.583877 0.874096
O O4 0.669606 0.593694 0.788239
O O5 0.921371 0.500000 0.783143
O O6 0.918213 0.601317 0.751484
O O7 0.932220 0.573697 0.870756
O O8 0.000000 0.555562 0.785859
O O9 0.715465 0.782947 0.702379
O O10 0.706963 0.327692 0.092771
O O11 0.802794 0.347531 0.090110
O O12 0.744873 0.385116 0.000000
O O13 0.631087 0.176248 0.677589
O O14 0.658476 0.260611 0.617404
O O15 0.645198 0.662046 0.303013
O O16 0.562326 0.401201 0.500000
O O17 0.500000 0.366895 0.415832
O O18 0.598389 0.339843 0.412230
#
# Coordination Sequence:
#
# PCOD9511280 Si02
#       8
#    32  32   8  32  32  32  32  32
#     4  10  20  34  52  71  94 131 168 200 242 296
#     4   9  18  32  51  73  97 124 157 205 254 291
#     4  12  16  32  50  72  92 132 166 204 232 288
#     4  11  22  33  47  73 104 130 163 208 247 288
#     4  11  20  30  51  73 100 128 164 200 246 292
#     4  10  18  31  51  74  95 124 162 206 241 292
#     4   9  19  33  47  65  92 128 167 201 237 288
#     4  11  18  31  49  69  96 126 163 201 246 285
#
# _framework density 15.976572000000001
#
# number of rings (size 3 to 8) (size 9 to 14) (size 15 to 20)
#    0.000    1.793    4.138    0.828    1.931    2.207 
#    0.000    2.069    0.000    4.966    0.000    0.000 
#    0.000    4.966    0.000   30.345    0.000    0.000 
#
# Total GULP energy -323275.183192 kJ/mol
# GULP energy per Si atom -5573.710055 kJ/mol
# Density = 1.594021 g / cm^3
# Si number density = 15.976572 Si / 1000 Ang^3
#
#
#
# Elastic Constant Matrix: (Units=GPa)
#
#
# Indices 1 2 3 4 5 6 
#
# 1 39.9332 11.9580 15.6225 0.0000 0.0000 0.0000
# 2 11.9580 66.7684 8.8817 0.0000 0.0000 0.0000
# 3 15.6225 8.8817 58.3789 0.0000 0.0000 0.0000
# 4 0.0000 0.0000 0.0000 -61.9285 0.0000 0.0000
# 5 0.0000 0.0000 0.0000 0.0000 13.3054 0.0000
# 6 0.0000 0.0000 0.0000 0.0000 0.0000 23.3164
#
#
#
# Elastic Compliance Matrix: (Units=1/GPa)
#
#
# Indices 1 2 3 4 5 6 
#
# 1 0.029113 -0.004264 -0.007142 0.000000 0.000000 0.000000
# 2 -0.004264 0.015911 -0.001280 0.000000 0.000000 0.000000
# 3 -0.007142 -0.001280 0.019235 0.000000 0.000000 0.000000
# 4 0.000000 0.000000 0.000000 -0.016148 0.000000 0.000000
# 5 0.000000 0.000000 0.000000 0.000000 0.075157 0.000000
# 6 0.000000 0.000000 0.000000 0.000000 0.000000 0.042888
#
#
# Mechanical properties :
#
#
# Convention : Reuss Voigt Hill
#
# Bulk Modulus (GPa) = 25.71489 26.44499 26.07994
# Shear Modulus (GPa) = 24.45095 3.51320 13.98208
#
# Velocity S-wave (km/s) = 3.91631 1.48450 2.96152
# Velocity P-wave (km/s) = 6.04816 4.41889 5.29655
#
# Compressibility (1/GPa) = 0.03888798
#
# Stress axis : x y z
#
# Youngs Moduli (GPa) = 34.34926 62.84955 51.98746
#
# Poissons Ratio (x) = 0.26799 0.37129
# Poissons Ratio (y) = 0.14646 0.06652
# Poissons Ratio (z) = 0.24532 0.08042
#
# Static dielectric constant tensor:
#      x y z
#    x 1.538680 0.000000 0.000000 
#    y 0.000000 1.550390 0.000000 
#    z 0.000000 0.000000 1.537480 
# 
# From -- ./inp_files/28105.got.cif
#   From: 2010.05.17/outbox.cif.g08.bks.cpg/sg69_15_cif.got.tgz:28105.got - 2010.06.03 19:29:58.
