data_PCOD9511218
_publ_section_title
;
Structure prediction by ZEFSAII (Michael W. Deem and Ramdas Pophale) SiO2 
 PCOD9511218
Probable space group: F M M M
;
_chemical_formula_sum "Si O2"
_cell_formula_units_Z 192
_cell_length_a 22.168062
_cell_length_b 14.874197
_cell_length_c 28.652706
_cell_angle_alpha 90.000000
_cell_angle_beta 90.000000
_cell_angle_gamma 90.000000
_cell_volume 9447.717530
_symmetry_space_group_name_H-M "F M M M"
_symmetry_group_IT_number 69
_symmetry_cell_setting 'orthorhombic'
loop_
_space_group_symop_operation_xyz
x,y,z
-x,-y,z
x,-y,-z
-x,y,-z
-x,-y,-z
x,y,-z
-x,y,z
x,-y,z
x,1/2+y,1/2+z
-x,1/2-y,1/2+z
x,1/2-y,1/2-z
-x,1/2+y,1/2-z
-x,1/2-y,1/2-z
x,1/2+y,1/2-z
-x,1/2+y,1/2+z
x,1/2-y,1/2+z
1/2+x,y,1/2+z
1/2-x,-y,1/2+z
1/2+x,-y,1/2-z
1/2-x,y,1/2-z
1/2-x,-y,1/2-z
1/2+x,y,1/2-z
1/2-x,y,1/2+z
1/2+x,-y,1/2+z
1/2+x,1/2+y,z
1/2-x,1/2-y,z
1/2+x,1/2-y,-z
1/2-x,1/2+y,-z
1/2-x,1/2-y,-z
1/2+x,1/2+y,-z
1/2-x,1/2+y,z
1/2+x,1/2-y,z
loop_
_atom_site_type_symbol
_atom_site_label
_atom_site_fract_x
_atom_site_fract_y
_atom_site_fract_z
Si Si1 0.878698 0.108767 0.221896
Si Si2 0.703758 0.331485 0.850548
Si Si3 0.630320 0.890750 0.092875
Si Si4 0.000000 0.391147 0.776988
Si Si5 0.814952 0.600500 0.188962
Si Si6 0.257384 0.108981 0.551996
Si Si7 0.000000 0.890045 0.386306
O O1 0.859700 0.159724 0.174853
O O2 0.941061 0.134025 0.247197
O O3 0.828690 0.137696 0.260487
O O4 0.879201 0.000000 0.213338
O O5 0.750000 0.250000 0.839957
O O6 0.745952 0.406534 0.826075
O O7 0.704915 0.348625 0.905697
O O8 0.649975 0.859555 0.144696
O O9 0.686824 0.865318 0.060497
O O10 0.561412 0.861514 0.087595
O O11 0.630344 0.000000 0.091840
O O12 0.000000 0.500000 0.779506
O O13 0.000000 0.361564 0.831441
O O14 0.841225 0.500000 0.192412
O O15 0.275883 0.135139 0.500000
O O16 0.260901 0.000000 0.555846
O O17 0.000000 0.000000 0.385629
#
# Coordination Sequence:
#
# PCOD9511218 Si02
#       7
#    32  32  32  16  32  32  16
#     4  10  18  30  49  74 102 133 174 211 247 290
#     4  11  22  32  46  69  99 133 163 202 249 304
#     4   8  13  22  40  66  93 119 146 183 233 284
#     4   9  16  26  46  75 102 133 168 208 245 281
#     4   9  16  28  46  67  93 126 165 203 239 280
#     4   9  18  34  53  71  90 115 155 209 263 308
#     4   9  12  20  39  67  97 124 153 186 231 284
#
# _framework density 20.322368999999998
#
# number of rings (size 3 to 8) (size 9 to 14) (size 15 to 20)
#    0.000    2.667    1.667    3.000    0.000    3.000 
#    0.000    0.417    0.000    8.500    0.000    0.583 
#    0.000    3.333    0.000    0.000    0.000    0.000 
#
# Total GULP energy -267327.968962 kJ/mol
# GULP energy per Si atom -5569.332687 kJ/mol
# Density = 2.027611 g / cm^3
# Si number density = 20.322369 Si / 1000 Ang^3
#
#
#
# Elastic Constant Matrix: (Units=GPa)
#
#
# Indices 1 2 3 4 5 6 
#
# 1 18.0876 -18.9542 -1.6560 0.0000 0.0000 0.0000
# 2 -18.9542 52.8716 0.7163 0.0000 0.0000 0.0000
# 3 -1.6560 0.7163 100.3887 0.0000 0.0000 0.0000
# 4 0.0000 0.0000 0.0000 4.6543 0.0000 0.0000
# 5 0.0000 0.0000 0.0000 0.0000 17.3069 0.0000
# 6 0.0000 0.0000 0.0000 0.0000 0.0000 5.3867
#
#
#
# Elastic Compliance Matrix: (Units=1/GPa)
#
#
# Indices 1 2 3 4 5 6 
#
# 1 0.088707 0.031784 0.001237 0.000000 0.000000 0.000000
# 2 0.031784 0.030304 0.000308 0.000000 0.000000 0.000000
# 3 0.001237 0.000308 0.009979 0.000000 0.000000 0.000000
# 4 0.000000 0.000000 0.000000 0.214853 0.000000 0.000000
# 5 0.000000 0.000000 0.000000 0.000000 0.057781 0.000000
# 6 0.000000 0.000000 0.000000 0.000000 0.000000 0.185642
#
#
# Mechanical properties :
#
#
# Convention : Reuss Voigt Hill
#
# Bulk Modulus (GPa) = 5.11123 14.61779 9.86451
# Shear Modulus (GPa) = 8.53498 18.21903 13.37700
#
# Velocity S-wave (km/s) = 2.05156 2.99741 2.56840
# Velocity P-wave (km/s) = 2.85174 4.38040 3.69596
#
# Compressibility (1/GPa) = 0.19564750
#
# Stress axis : x y z
#
# Youngs Moduli (GPa) = 11.27310 32.99898 100.20559
#
# Poissons Ratio (x) = -1.04884 -0.12390
# Poissons Ratio (y) = -0.35831 -0.03087
# Poissons Ratio (z) = -0.01394 -0.01017
#
# Static dielectric constant tensor:
#      x y z
#    x 1.789110 0.000000 0.000000 
#    y 0.000000 1.913160 0.000000 
#    z 0.000000 0.000000 1.735120 
# 
# From -- ./inp_files/43213.got.cif
#   From: 2010.05.17/outbox.cif.g08.bks.cpg/sg69_22_cif.got.tgz:43213.got - 2010.06.03 19:29:58.
