data_PCOD9511741
_publ_section_title
;
Structure prediction by ZEFSAII (Michael W. Deem and Ramdas Pophale) SiO2 
 PCOD9511741
Probable space group: F M M M
;
_chemical_formula_sum "Si O2"
_cell_formula_units_Z 160
_cell_length_a 25.106685
_cell_length_b 16.202195
_cell_length_c 20.381046
_cell_angle_alpha 90.000000
_cell_angle_beta 90.000000
_cell_angle_gamma 90.000000
_cell_volume 8290.671313
_symmetry_space_group_name_H-M "F M M M"
_symmetry_group_IT_number 69
_symmetry_cell_setting 'orthorhombic'
loop_
_space_group_symop_operation_xyz
x,y,z
-x,-y,z
x,-y,-z
-x,y,-z
-x,-y,-z
x,y,-z
-x,y,z
x,-y,z
x,1/2+y,1/2+z
-x,1/2-y,1/2+z
x,1/2-y,1/2-z
-x,1/2+y,1/2-z
-x,1/2-y,1/2-z
x,1/2+y,1/2-z
-x,1/2+y,1/2+z
x,1/2-y,1/2+z
1/2+x,y,1/2+z
1/2-x,-y,1/2+z
1/2+x,-y,1/2-z
1/2-x,y,1/2-z
1/2-x,-y,1/2-z
1/2+x,y,1/2-z
1/2-x,y,1/2+z
1/2+x,-y,1/2+z
1/2+x,1/2+y,z
1/2-x,1/2-y,z
1/2+x,1/2-y,-z
1/2-x,1/2+y,-z
1/2-x,1/2-y,-z
1/2+x,1/2+y,-z
1/2-x,1/2+y,z
1/2+x,1/2-y,z
loop_
_atom_site_type_symbol
_atom_site_label
_atom_site_fract_x
_atom_site_fract_y
_atom_site_fract_z
Si Si1 0.773459 0.159128 0.500000
Si Si2 0.353560 0.599221 0.393860
Si Si3 0.162778 0.093675 0.000000
Si Si4 0.500000 0.399540 0.921997
Si Si5 0.113760 0.900088 0.131930
Si Si6 0.687798 0.348478 0.253015
Si Si7 0.060072 0.100271 0.500000
O O1 0.750000 0.250000 0.500000
O O2 0.808021 0.142380 0.436251
O O3 0.725489 0.095100 0.500000
O O4 0.348932 0.500000 0.399402
O O5 0.342485 0.623641 0.319182
O O6 0.407364 0.622892 0.433792
O O7 0.142680 0.132996 0.933442
O O8 0.141538 0.000000 0.000000
O O9 0.500000 0.500000 0.924805
O O10 0.447423 0.374567 0.881116
O O11 0.500000 0.373696 0.000000
O O12 0.149573 0.874249 0.193129
O O13 0.114095 0.000000 0.133252
O O14 0.691273 0.250000 0.250000
O O15 0.750000 0.379737 0.250000
O O16 0.000000 0.132372 0.500000
O O17 0.058018 0.000000 0.500000
#
# Coordination Sequence:
#
# PCOD9511741 Si02
#       7
#    16  32  16  16  32  32  16
#     4  11  23  33  59  88 119 152 192 250 304 361
#     4  10  21  39  61  88 120 156 200 252 302 356
#     4  10  19  32  56  86 114 146 194 236 285 355
#     4   9  16  34  61  90 118 145 189 248 299 351
#     4  10  20  36  61  88 116 152 192 240 293 354
#     4  11  25  40  58  82 123 163 201 244 300 362
#     4   8  16  36  66  92 113 144 197 256 301 346
#
# _framework density 19.298798999999999
#
# number of rings (size 3 to 8) (size 9 to 14) (size 15 to 20)
#    0.000    2.000    1.000    3.300    5.600    3.200 
#    1.800    0.500    0.000    0.000    0.000    0.000 
#    0.000    0.000    0.000    0.000    0.000    0.000 
#
# Total GULP energy -222945.003791 kJ/mol
# GULP energy per Si atom -5573.625095 kJ/mol
# Density = 1.925487 g / cm^3
# Si number density = 19.298799 Si / 1000 Ang^3
#
#
#
# Elastic Constant Matrix: (Units=GPa)
#
#
# Indices 1 2 3 4 5 6 
#
# 1 189.4873 24.3595 112.4847 0.0000 0.0000 0.0000
# 2 24.3595 46.2005 25.5664 0.0000 0.0000 0.0000
# 3 112.4847 25.5664 207.2938 0.0000 0.0000 0.0000
# 4 0.0000 0.0000 0.0000 -11.3360 0.0000 0.0000
# 5 0.0000 0.0000 0.0000 0.0000 8.8662 0.0000
# 6 0.0000 0.0000 0.0000 0.0000 0.0000 4.7060
#
#
#
# Elastic Compliance Matrix: (Units=1/GPa)
#
#
# Indices 1 2 3 4 5 6 
#
# 1 0.007943 -0.001935 -0.004072 0.000000 0.000000 0.000000
# 2 -0.001935 0.023702 -0.001873 0.000000 0.000000 0.000000
# 3 -0.004072 -0.001873 0.007264 0.000000 0.000000 0.000000
# 4 0.000000 0.000000 0.000000 -0.088214 0.000000 0.000000
# 5 0.000000 0.000000 0.000000 0.000000 0.112788 0.000000
# 6 0.000000 0.000000 0.000000 0.000000 0.000000 0.212494
#
#
# Mechanical properties :
#
#
# Convention : Reuss Voigt Hill
#
# Bulk Modulus (GPa) = 43.19712 85.31142 64.25427
# Shear Modulus (GPa) = 16.69708 19.15196 17.92452
#
# Velocity S-wave (km/s) = 2.94460 3.15364 3.05091
# Velocity P-wave (km/s) = 5.83033 7.58697 6.76590
#
# Compressibility (1/GPa) = 0.02314969
#
# Stress axis : x y z
#
# Youngs Moduli (GPa) = 125.89471 42.19124 137.65594
#
# Poissons Ratio (x) = 0.08164 0.56048
# Poissons Ratio (y) = 0.24360 0.25786
# Poissons Ratio (z) = 0.51259 0.07903
#
# Static dielectric constant tensor:
#      x y z
#    x 1.703380 0.000000 0.000000 
#    y 0.000000 1.699810 0.000000 
#    z 0.000000 0.000000 1.680700 
# 
# From -- ./inp_files/26694.got.cif
#   From: 2010.05.17/outbox.cif.g08.bks.cpg/sg69_14_cif.got.tgz:26694.got - 2010.06.03 19:29:58.
