data_PCOD9511852
_publ_section_title
;
Structure prediction by ZEFSAII (Michael W. Deem and Ramdas Pophale) SiO2 
 PCOD9511852
Probable space group: F M M M
;
_chemical_formula_sum "Si O2"
_cell_formula_units_Z 192
_cell_length_a 17.461810
_cell_length_b 18.792330
_cell_length_c 30.273996
_cell_angle_alpha 90.000000
_cell_angle_beta 90.000000
_cell_angle_gamma 90.000000
_cell_volume 9934.354143
_symmetry_space_group_name_H-M "F M M M"
_symmetry_group_IT_number 69
_symmetry_cell_setting 'orthorhombic'
loop_
_space_group_symop_operation_xyz
x,y,z
-x,-y,z
x,-y,-z
-x,y,-z
-x,-y,-z
x,y,-z
-x,y,z
x,-y,z
x,1/2+y,1/2+z
-x,1/2-y,1/2+z
x,1/2-y,1/2-z
-x,1/2+y,1/2-z
-x,1/2-y,1/2-z
x,1/2+y,1/2-z
-x,1/2+y,1/2+z
x,1/2-y,1/2+z
1/2+x,y,1/2+z
1/2-x,-y,1/2+z
1/2+x,-y,1/2-z
1/2-x,y,1/2-z
1/2-x,-y,1/2-z
1/2+x,y,1/2-z
1/2-x,y,1/2+z
1/2+x,-y,1/2+z
1/2+x,1/2+y,z
1/2-x,1/2-y,z
1/2+x,1/2-y,-z
1/2-x,1/2+y,-z
1/2-x,1/2-y,-z
1/2+x,1/2+y,-z
1/2-x,1/2+y,z
1/2+x,1/2-y,z
loop_
_atom_site_type_symbol
_atom_site_label
_atom_site_fract_x
_atom_site_fract_y
_atom_site_fract_z
Si Si1 0.914402 0.294481 0.404769
Si Si2 0.584930 0.165022 0.743791
Si Si3 0.642674 0.080917 0.172278
Si Si4 0.187524 0.142834 0.500000
Si Si5 0.708363 0.326376 0.169694
Si Si6 0.414622 0.124509 0.080317
Si Si7 0.142522 0.311521 0.500000
O O1 0.846748 0.318655 0.372619
O O2 0.909716 0.208629 0.407869
O O3 0.902046 0.323020 0.454403
O O4 0.000000 0.312521 0.388703
O O5 0.500000 0.143844 0.727793
O O6 0.584326 0.250000 0.750000
O O7 0.601424 0.127346 0.790220
O O8 0.653806 0.151507 0.710072
O O9 0.724843 0.116775 0.163750
O O10 0.598438 0.084669 0.126015
O O11 0.649547 0.000000 0.187390
O O12 0.149156 0.110045 0.456471
O O13 0.163693 0.226935 0.500000
O O14 0.278831 0.144305 0.500000
O O15 0.750000 0.250000 0.177856
O O16 0.500000 0.111358 0.062542
#
# Coordination Sequence:
#
# PCOD9511852 Si02
#       7
#    32  32  32  16  32  32  16
#     4  10  19  33  57  91 123 159 203 250 305 358
#     4  11  23  40  63  89 116 154 201 247 295 353
#     4  12  26  41  61  89 122 160 201 249 309 368
#     4   9  17  29  52  84 118 166 204 244 293 355
#     4  12  22  38  63  87 118 156 200 253 300 355
#     4  10  19  34  55  84 123 162 203 247 297 360
#     4   9  17  27  51  85 131 157 193 256 310 343
#
# _framework density 19.326872999999999
#
# number of rings (size 3 to 8) (size 9 to 14) (size 15 to 20)
#    0.000    1.333    3.333    3.000    2.333    7.333 
#    0.000    0.417    0.000    2.500    0.000    0.000 
#    0.000    2.667    0.000    0.000    0.000    0.000 
#
# Total GULP energy -268167.883669 kJ/mol
# GULP energy per Si atom -5586.830910 kJ/mol
# Density = 1.928288 g / cm^3
# Si number density = 19.326873 Si / 1000 Ang^3
#
#
#
# Elastic Constant Matrix: (Units=GPa)
#
#
# Indices 1 2 3 4 5 6 
#
# 1 107.3112 24.6136 24.9718 0.0000 0.0000 0.0000
# 2 24.6136 66.3977 21.8909 0.0000 0.0000 0.0000
# 3 24.9718 21.8909 92.5880 0.0000 0.0000 0.0000
# 4 0.0000 0.0000 0.0000 6.8356 0.0000 0.0000
# 5 0.0000 0.0000 0.0000 0.0000 85.0347 0.0000
# 6 0.0000 0.0000 0.0000 0.0000 0.0000 -2.9268
#
#
#
# Elastic Compliance Matrix: (Units=1/GPa)
#
#
# Indices 1 2 3 4 5 6 
#
# 1 0.010542 -0.003222 -0.002082 0.000000 0.000000 0.000000
# 2 -0.003222 0.017319 -0.003226 0.000000 0.000000 0.000000
# 3 -0.002082 -0.003226 0.012125 0.000000 0.000000 0.000000
# 4 0.000000 0.000000 0.000000 0.146293 0.000000 0.000000
# 5 0.000000 0.000000 0.000000 0.000000 0.011760 0.000000
# 6 0.000000 0.000000 0.000000 0.000000 0.000000 -0.341670
#
#
# Mechanical properties :
#
#
# Convention : Reuss Voigt Hill
#
# Bulk Modulus (GPa) = 43.61630 45.47219 44.54424
# Shear Modulus (GPa) = -42.04119 30.77674 -5.63223
#
# Velocity S-wave (km/s) = -4.66904 3.99486 -1.70895
# Velocity P-wave (km/s) = 2.53966 6.69758 4.38222
#
# Compressibility (1/GPa) = 0.02292721
#
# Stress axis : x y z
#
# Youngs Moduli (GPa) = 94.85848 57.74151 82.47671
#
# Poissons Ratio (x) = 0.18602 0.17168
# Poissons Ratio (y) = 0.30560 0.26605
# Poissons Ratio (z) = 0.19745 0.18626
#
# Static dielectric constant tensor:
#      x y z
#    x 1.673110 0.000000 0.000000 
#    y 0.000000 1.656290 0.000000 
#    z 0.000000 0.000000 1.680640 
# 
# From -- ./inp_files/46401.got.cif
#   From: 2010.05.17/outbox.cif.g08.bks.cpg/sg69_24_cif.got.tgz:46401.got - 2010.06.03 19:29:58.
