data_PCOD9511236
_publ_section_title
;
Structure prediction by ZEFSAII (Michael W. Deem and Ramdas Pophale) SiO2 
 PCOD9511236
Probable space group: F M M M
;
_chemical_formula_sum "Si O2"
_cell_formula_units_Z 192
_cell_length_a 14.458722
_cell_length_b 21.613935
_cell_length_c 25.975228
_cell_angle_alpha 90.000000
_cell_angle_beta 90.000000
_cell_angle_gamma 90.000000
_cell_volume 8117.515320
_symmetry_space_group_name_H-M "F M M M"
_symmetry_group_IT_number 69
_symmetry_cell_setting 'orthorhombic'
loop_
_space_group_symop_operation_xyz
x,y,z
-x,-y,z
x,-y,-z
-x,y,-z
-x,-y,-z
x,y,-z
-x,y,z
x,-y,z
x,1/2+y,1/2+z
-x,1/2-y,1/2+z
x,1/2-y,1/2-z
-x,1/2+y,1/2-z
-x,1/2-y,1/2-z
x,1/2+y,1/2-z
-x,1/2+y,1/2+z
x,1/2-y,1/2+z
1/2+x,y,1/2+z
1/2-x,-y,1/2+z
1/2+x,-y,1/2-z
1/2-x,y,1/2-z
1/2-x,-y,1/2-z
1/2+x,y,1/2-z
1/2-x,y,1/2+z
1/2+x,-y,1/2+z
1/2+x,1/2+y,z
1/2-x,1/2-y,z
1/2+x,1/2-y,-z
1/2-x,1/2+y,-z
1/2-x,1/2-y,-z
1/2+x,1/2+y,-z
1/2-x,1/2+y,z
1/2+x,1/2-y,z
loop_
_atom_site_type_symbol
_atom_site_label
_atom_site_fract_x
_atom_site_fract_y
_atom_site_fract_z
Si Si1 0.647890 0.304022 0.901105
Si Si2 0.649766 0.405301 0.737688
Si Si3 0.142985 0.677697 0.941365
Si Si4 0.140674 0.933956 0.630771
Si Si5 0.635032 0.928445 0.646765
Si Si6 0.605384 0.721670 0.305629
O O1 0.747982 0.315796 0.926611
O O2 0.604964 0.247330 0.933536
O O3 0.605185 0.371581 0.890235
O O4 0.649845 0.269509 0.845377
O O5 0.750000 0.432426 0.750000
O O6 0.602675 0.436213 0.688932
O O7 0.607297 0.408626 0.794619
O O8 0.663318 0.338643 0.709938
O O9 0.109497 0.624941 0.902160
O O10 0.131289 0.658452 0.000000
O O11 0.252830 0.929291 0.638960
O O12 0.121486 0.000000 0.605078
O O13 0.605796 0.000000 0.637940
O O14 0.500000 0.706920 0.323033
O O15 0.595328 0.750000 0.250000
#
# Coordination Sequence:
#
# PCOD9511236 Si02
#       6
#    32  32  32  32  32  32
#     4  10  18  32  50  70 101 137 168 214 268 316
#     4  10  18  30  51  76 105 137 179 209 254 317
#     4  10  20  32  52  80 103 128 177 238 276 310
#     4   9  17  29  47  76 110 138 167 210 272 328
#     4   9  17  28  46  74 104 135 170 212 254 311
#     4  11  22  33  49  77 110 141 178 220 260 315
#
# _framework density 23.652557000000002
#
# number of rings (size 3 to 8) (size 9 to 14) (size 15 to 20)
#    0.000    2.167    3.333    1.500    2.333    2.667 
#    0.000    0.000    0.000    7.000    0.000    0.000 
#    0.000    1.333    0.000   13.667    0.000    0.000 
#
# Total GULP energy -267282.377878 kJ/mol
# GULP energy per Si atom -5568.382872 kJ/mol
# Density = 2.359872 g / cm^3
# Si number density = 23.652557 Si / 1000 Ang^3
#
#
#
# Elastic Constant Matrix: (Units=GPa)
#
#
# Indices 1 2 3 4 5 6 
#
# 1 102.4016 9.6341 13.4270 0.0000 0.0000 0.0000
# 2 9.6341 199.4455 52.2909 0.0000 0.0000 0.0000
# 3 13.4270 52.2909 133.2472 0.0000 0.0000 0.0000
# 4 0.0000 0.0000 0.0000 12.7601 0.0000 0.0000
# 5 0.0000 0.0000 0.0000 0.0000 -64.5932 0.0000
# 6 0.0000 0.0000 0.0000 0.0000 0.0000 -27.6445
#
#
#
# Elastic Compliance Matrix: (Units=1/GPa)
#
#
# Indices 1 2 3 4 5 6 
#
# 1 0.009907 -0.000242 -0.000903 0.000000 0.000000 0.000000
# 2 -0.000242 0.005595 -0.002171 0.000000 0.000000 0.000000
# 3 -0.000903 -0.002171 0.008448 0.000000 0.000000 0.000000
# 4 0.000000 0.000000 0.000000 0.078370 0.000000 0.000000
# 5 0.000000 0.000000 0.000000 0.000000 -0.015482 0.000000
# 6 0.000000 0.000000 0.000000 0.000000 0.000000 -0.036174
#
#
# Mechanical properties :
#
#
# Convention : Reuss Voigt Hill
#
# Bulk Modulus (GPa) = 57.74758 65.08870 61.41814
# Shear Modulus (GPa) = 79.27833 8.08730 43.68282
#
# Velocity S-wave (km/s) = 5.79574 1.85112 4.30217
# Velocity P-wave (km/s) = 8.32199 5.66986 7.12049
#
# Compressibility (1/GPa) = 0.01731674
#
# Stress axis : x y z
#
# Youngs Moduli (GPa) = 100.94215 178.73617 118.37170
#
# Poissons Ratio (x) = 0.04320 0.10694
# Poissons Ratio (y) = 0.02440 0.25702
# Poissons Ratio (z) = 0.09119 0.38808
#
# Static dielectric constant tensor:
#      x y z
#    x 1.945640 0.000000 0.000000 
#    y 0.000000 2.050340 0.000000 
#    z 0.000000 0.000000 1.863790 
# 
# From -- ./inp_files/42786.got.cif
#   From: 2010.05.17/outbox.cif.g08.bks.cpg/sg69_22_cif.got.tgz:42786.got - 2010.06.03 19:29:58.
