data_PCOD9511628
_publ_section_title
;
Structure prediction by ZEFSAII (Michael W. Deem and Ramdas Pophale) SiO2 
 PCOD9511628
Probable space group: F M M M
;
_chemical_formula_sum "Si O2"
_cell_formula_units_Z 208
_cell_length_a 33.281959
_cell_length_b 18.271261
_cell_length_c 19.487590
_cell_angle_alpha 90.000000
_cell_angle_beta 90.000000
_cell_angle_gamma 90.000000
_cell_volume 11850.468947
_symmetry_space_group_name_H-M "F M M M"
_symmetry_group_IT_number 69
_symmetry_cell_setting 'orthorhombic'
loop_
_space_group_symop_operation_xyz
x,y,z
-x,-y,z
x,-y,-z
-x,y,-z
-x,-y,-z
x,y,-z
-x,y,z
x,-y,z
x,1/2+y,1/2+z
-x,1/2-y,1/2+z
x,1/2-y,1/2-z
-x,1/2+y,1/2-z
-x,1/2-y,1/2-z
x,1/2+y,1/2-z
-x,1/2+y,1/2+z
x,1/2-y,1/2+z
1/2+x,y,1/2+z
1/2-x,-y,1/2+z
1/2+x,-y,1/2-z
1/2-x,y,1/2-z
1/2-x,-y,1/2-z
1/2+x,y,1/2-z
1/2-x,y,1/2+z
1/2+x,-y,1/2+z
1/2+x,1/2+y,z
1/2-x,1/2-y,z
1/2+x,1/2-y,-z
1/2-x,1/2+y,-z
1/2-x,1/2-y,-z
1/2+x,1/2+y,-z
1/2-x,1/2+y,z
1/2+x,1/2-y,z
loop_
_atom_site_type_symbol
_atom_site_label
_atom_site_fract_x
_atom_site_fract_y
_atom_site_fract_z
Si Si1 0.454515 0.412961 0.500000
Si Si2 0.321738 0.588271 0.200694
Si Si3 0.266353 0.089122 0.423184
Si Si4 0.817830 0.588719 0.143119
Si Si5 0.406194 0.856642 0.869717
Si Si6 0.914900 0.414238 0.716385
Si Si7 0.955325 0.276261 0.329325
O O1 0.543251 0.500000 0.500000
O O2 0.500000 0.383281 0.500000
O O3 0.569484 0.389444 0.567317
O O4 0.318443 0.500000 0.199111
O O5 0.295488 0.616515 0.137428
O O6 0.308246 0.609079 0.277576
O O7 0.368986 0.605155 0.196146
O O8 0.276340 0.114476 0.500000
O O9 0.220418 0.105952 0.403321
O O10 0.269036 0.000000 0.423394
O O11 0.824827 0.500000 0.141168
O O12 0.858824 0.628813 0.122311
O O13 0.417828 0.896045 0.797655
O O14 0.420931 0.773028 0.863275
O O15 0.921620 0.500000 0.705608
O O16 0.944050 0.361229 0.674704
O O17 0.956152 0.250000 0.250000
O O18 0.000000 0.263485 0.358134
#
# Coordination Sequence:
#
# PCOD9511628 Si02
#       7
#    16  32  32  32  32  32  32
#     4  11  22  32  46  70 103 144 179 207 248 305
#     4   8  14  26  43  65  96 130 165 206 255 305
#     4   9  16  24  39  67 100 130 163 207 254 300
#     4   9  16  26  43  67  96 133 173 212 248 291
#     4  10  19  32  48  70 104 140 172 207 248 305
#     4   9  17  31  53  78 100 128 169 218 263 302
#     4   9  18  32  50  72  98 129 165 207 257 307
#
# _framework density 17.552047999999999
#
# number of rings (size 3 to 8) (size 9 to 14) (size 15 to 20)
#    0.000    2.846    0.000    3.231    1.077    2.769 
#    0.000    0.000    1.692    0.923    0.000    6.462 
#    0.000    1.846    0.000    0.000    0.000    0.000 
#
# Total GULP energy -289652.727155 kJ/mol
# GULP energy per Si atom -5570.244753 kJ/mol
# Density = 1.751210 g / cm^3
# Si number density = 17.552048 Si / 1000 Ang^3
#
#
#
# Elastic Constant Matrix: (Units=GPa)
#
#
# Indices 1 2 3 4 5 6 
#
# 1 94.5683 31.1942 71.7168 0.0000 0.0000 0.0000
# 2 31.1942 58.1535 15.8751 0.0000 0.0000 0.0000
# 3 71.7168 15.8751 90.6902 0.0000 0.0000 0.0000
# 4 0.0000 0.0000 0.0000 12.3475 0.0000 0.0000
# 5 0.0000 0.0000 0.0000 0.0000 -11.0753 0.0000
# 6 0.0000 0.0000 0.0000 0.0000 0.0000 12.2780
#
#
#
# Elastic Compliance Matrix: (Units=1/GPa)
#
#
# Indices 1 2 3 4 5 6 
#
# 1 0.031665 -0.010659 -0.023174 0.000000 0.000000 0.000000
# 2 -0.010659 0.021647 0.004640 0.000000 0.000000 0.000000
# 3 -0.023174 0.004640 0.028540 0.000000 0.000000 0.000000
# 4 0.000000 0.000000 0.000000 0.080988 0.000000 0.000000
# 5 0.000000 0.000000 0.000000 0.000000 -0.090291 0.000000
# 6 0.000000 0.000000 0.000000 0.000000 0.000000 0.081447
#
#
# Mechanical properties :
#
#
# Convention : Reuss Voigt Hill
#
# Bulk Modulus (GPa) = 42.61679 53.44267 48.02973
# Shear Modulus (GPa) = 22.70611 11.01842 16.86226
#
# Velocity S-wave (km/s) = 3.60063 2.50823 3.10288
# Velocity P-wave (km/s) = 6.45128 6.23719 6.34513
#
# Compressibility (1/GPa) = 0.02346493
#
# Stress axis : x y z
#
# Youngs Moduli (GPa) = 31.58078 46.19601 35.03811
#
# Poissons Ratio (x) = 0.49241 0.81198
# Poissons Ratio (y) = 0.33662 -0.16257
# Poissons Ratio (z) = 0.73186 -0.21434
#
# Static dielectric constant tensor:
#      x y z
#    x 1.604870 0.000000 0.000000 
#    y 0.000000 1.597060 0.000000 
#    z 0.000000 0.000000 1.590750 
# 
# From -- ./inp_files/33980.got.cif
#   From: 2010.05.17/outbox.cif.g08.bks.cpg/sg69_17_cif.got.tgz:33980.got - 2010.06.03 19:29:58.
