data_PCOD9511179
_publ_section_title
;
Structure prediction by ZEFSAII (Michael W. Deem and Ramdas Pophale) SiO2 
 PCOD9511179
Probable space group: F M M M
;
_chemical_formula_sum "Si O2"
_cell_formula_units_Z 120
_cell_length_a 15.777968
_cell_length_b 25.741064
_cell_length_c 14.871206
_cell_angle_alpha 90.000000
_cell_angle_beta 90.000000
_cell_angle_gamma 90.000000
_cell_volume 6039.816649
_symmetry_space_group_name_H-M "F M M M"
_symmetry_group_IT_number 69
_symmetry_cell_setting 'orthorhombic'
loop_
_space_group_symop_operation_xyz
x,y,z
-x,-y,z
x,-y,-z
-x,y,-z
-x,-y,-z
x,y,-z
-x,y,z
x,-y,z
x,1/2+y,1/2+z
-x,1/2-y,1/2+z
x,1/2-y,1/2-z
-x,1/2+y,1/2-z
-x,1/2-y,1/2-z
x,1/2+y,1/2-z
-x,1/2+y,1/2+z
x,1/2-y,1/2+z
1/2+x,y,1/2+z
1/2-x,-y,1/2+z
1/2+x,-y,1/2-z
1/2-x,y,1/2-z
1/2-x,-y,1/2-z
1/2+x,y,1/2-z
1/2-x,y,1/2+z
1/2+x,-y,1/2+z
1/2+x,1/2+y,z
1/2-x,1/2-y,z
1/2+x,1/2-y,-z
1/2-x,1/2+y,-z
1/2-x,1/2-y,-z
1/2+x,1/2+y,-z
1/2-x,1/2+y,z
1/2+x,1/2-y,z
loop_
_atom_site_type_symbol
_atom_site_label
_atom_site_fract_x
_atom_site_fract_y
_atom_site_fract_z
Si Si1 0.000000 0.196509 0.607867
Si Si2 0.309911 0.500000 0.892738
Si Si3 0.184634 0.292196 0.108896
Si Si4 0.000000 0.000000 0.826081
Si Si5 0.000000 0.081292 0.671671
Si Si6 0.685874 0.411061 0.392146
O O1 0.912210 0.224775 0.625870
O O2 0.000000 0.181724 0.500000
O O3 0.000000 0.143660 0.664878
O O4 0.409733 0.500000 0.875287
O O5 0.259154 0.449402 0.858337
O O6 0.298760 0.500000 0.000000
O O7 0.250000 0.250000 0.143732
O O8 0.194990 0.351616 0.141347
O O9 0.194235 0.294272 0.000000
O O10 0.000000 0.948276 0.765258
O O11 0.091076 0.067802 0.627674
O O12 0.692360 0.408301 0.500000
#
# Coordination Sequence:
#
# PCOD9511179 Si02
#       6
#    16  16  32   8  16  32
#     4   8  14  26  43  68 105 136 156 196 254 296
#     4  10  22  39  53  67  94 131 169 204 247 304
#     4   8  13  23  42  71 102 128 160 200 240 281
#     4  12  25  36  49  70  96 134 170 206 249 294
#     4  10  18  29  49  77 103 122 156 204 252 301
#     4   9  17  31  52  76 103 134 164 204 253 293
#
# _framework density 19.868153
#
# number of rings (size 3 to 8) (size 9 to 14) (size 15 to 20)
#    0.000    2.933    0.000    3.800    0.000    2.133 
#    0.000    5.667    0.000    6.400    0.000   22.400 
#    0.000    0.000    0.000    0.000    0.000    4.267 
#
# Total GULP energy -167089.004311 kJ/mol
# GULP energy per Si atom -5569.633477 kJ/mol
# Density = 1.982293 g / cm^3
# Si number density = 19.868153 Si / 1000 Ang^3
#
#
#
# Elastic Constant Matrix: (Units=GPa)
#
#
# Indices 1 2 3 4 5 6 
#
# 1 197.0214 98.5355 13.1726 0.0000 0.0000 0.0000
# 2 98.5355 97.6204 12.6917 0.0000 0.0000 0.0000
# 3 13.1726 12.6917 29.1017 0.0000 0.0000 0.0000
# 4 0.0000 0.0000 0.0000 1.9551 0.0000 0.0000
# 5 0.0000 0.0000 0.0000 0.0000 -8.5317 0.0000
# 6 0.0000 0.0000 0.0000 0.0000 0.0000 35.6848
#
#
#
# Elastic Compliance Matrix: (Units=1/GPa)
#
#
# Indices 1 2 3 4 5 6 
#
# 1 0.010250 -0.010329 -0.000135 0.000000 0.000000 0.000000
# 2 -0.010329 0.021267 -0.004600 0.000000 0.000000 0.000000
# 3 -0.000135 -0.004600 0.036430 0.000000 0.000000 0.000000
# 4 0.000000 0.000000 0.000000 0.511473 0.000000 0.000000
# 5 0.000000 0.000000 0.000000 0.000000 -0.117210 0.000000
# 6 0.000000 0.000000 0.000000 0.000000 0.000000 0.028023
#
#
# Mechanical properties :
#
#
# Convention : Reuss Voigt Hill
#
# Bulk Modulus (GPa) = 26.44126 63.61590 45.02858
# Shear Modulus (GPa) = 9.38145 19.11123 14.24634
#
# Velocity S-wave (km/s) = 2.17534 3.10482 2.68067
# Velocity P-wave (km/s) = 4.43246 6.70386 5.68280
#
# Compressibility (1/GPa) = 0.03781968
#
# Stress axis : x y z
#
# Youngs Moduli (GPa) = 97.55752 47.02012 27.45027
#
# Poissons Ratio (x) = 0.48567 0.00371
# Poissons Ratio (y) = 1.00766 0.12627
# Poissons Ratio (z) = 0.01318 0.21628
#
# Static dielectric constant tensor:
#      x y z
#    x 1.721950 0.000000 0.000000 
#    y 0.000000 1.730340 0.000000 
#    z 0.000000 0.000000 1.701750 
# 
# From -- ./inp_files/14479.got.cif
#   From: 2010.05.17/outbox.cif.g08.bks.cpg/sg69_8_cif.got.tgz:14479.got - 2010.06.03 19:29:58.
