data_PCOD9511918
_publ_section_title
;
Structure prediction by ZEFSAII (Michael W. Deem and Ramdas Pophale) SiO2 
 PCOD9511918
Probable space group: F M M M
;
_chemical_formula_sum "Si O2"
_cell_formula_units_Z 192
_cell_length_a 20.037473
_cell_length_b 31.308139
_cell_length_c 18.102895
_cell_angle_alpha 90.000000
_cell_angle_beta 90.000000
_cell_angle_gamma 90.000000
_cell_volume 11356.597555
_symmetry_space_group_name_H-M "F M M M"
_symmetry_group_IT_number 69
_symmetry_cell_setting 'orthorhombic'
loop_
_space_group_symop_operation_xyz
x,y,z
-x,-y,z
x,-y,-z
-x,y,-z
-x,-y,-z
x,y,-z
-x,y,z
x,-y,z
x,1/2+y,1/2+z
-x,1/2-y,1/2+z
x,1/2-y,1/2-z
-x,1/2+y,1/2-z
-x,1/2-y,1/2-z
x,1/2+y,1/2-z
-x,1/2+y,1/2+z
x,1/2-y,1/2+z
1/2+x,y,1/2+z
1/2-x,-y,1/2+z
1/2+x,-y,1/2-z
1/2-x,y,1/2-z
1/2-x,-y,1/2-z
1/2+x,y,1/2-z
1/2-x,y,1/2+z
1/2+x,-y,1/2+z
1/2+x,1/2+y,z
1/2-x,1/2-y,z
1/2+x,1/2-y,-z
1/2-x,1/2+y,-z
1/2-x,1/2-y,-z
1/2+x,1/2+y,-z
1/2-x,1/2+y,z
1/2+x,1/2-y,z
loop_
_atom_site_type_symbol
_atom_site_label
_atom_site_fract_x
_atom_site_fract_y
_atom_site_fract_z
Si Si1 0.114593 0.000000 0.588880
Si Si2 0.321666 0.406600 0.911482
Si Si3 0.578277 0.131295 0.703927
Si Si4 0.309402 0.151243 0.915756
Si Si5 0.074129 0.908088 0.362914
Si Si6 0.269874 0.000000 0.410516
Si Si7 0.674870 0.200708 0.771619
O O1 0.081153 0.042512 0.618838
O O2 0.111391 0.000000 0.500000
O O3 0.192430 0.000000 0.611643
O O4 0.384007 0.389460 0.865205
O O5 0.258296 0.375206 0.897829
O O6 0.303274 0.455162 0.888006
O O7 0.333242 0.406562 0.000000
O O8 0.500000 0.139569 0.690244
O O9 0.583443 0.100797 0.775881
O O10 0.619519 0.173052 0.729284
O O11 0.369140 0.117347 0.906437
O O12 0.326194 0.188785 0.858257
O O13 0.304558 0.166110 0.000000
O O14 0.000000 0.892665 0.382951
O O15 0.270645 0.000000 0.500000
O O16 0.667066 0.250000 0.750000
O O17 0.750000 0.187417 0.750000
#
# Coordination Sequence:
#
# PCOD9511918 Si02
#       7
#    16  32  32  32  32  16  32
#     4  11  19  31  49  76 114 147 183 228 275 327
#     4  10  19  35  57  81 108 144 190 235 273 316
#     4  10  22  39  57  79 109 147 187 228 277 331
#     4  10  19  34  57  82 111 144 184 226 270 326
#     4  10  21  33  49  77 114 151 184 223 276 334
#     4   9  18  32  51  78 108 142 186 231 272 314
#     4  10  20  37  60  85 113 142 177 220 276 342
#
# _framework density 16.906472999999998
#
# number of rings (size 3 to 8) (size 9 to 14) (size 15 to 20)
#    0.000    2.000    3.333    0.750    0.000    3.000 
#    0.000    4.583    0.000    1.500    0.000    0.000 
#    0.000    0.000    0.000    0.000    0.000    0.000 
#
# Total GULP energy -267645.421318 kJ/mol
# GULP energy per Si atom -5575.946277 kJ/mol
# Density = 1.686799 g / cm^3
# Si number density = 16.906473 Si / 1000 Ang^3
#
#
#
# Elastic Constant Matrix: (Units=GPa)
#
#
# Indices 1 2 3 4 5 6 
#
# 1 133.4932 45.2551 48.8621 0.0000 0.0000 0.0000
# 2 45.2551 97.0585 59.8323 0.0000 0.0000 0.0000
# 3 48.8621 59.8323 65.8156 0.0000 0.0000 0.0000
# 4 0.0000 0.0000 0.0000 12.5551 0.0000 0.0000
# 5 0.0000 0.0000 0.0000 0.0000 23.9833 0.0000
# 6 0.0000 0.0000 0.0000 0.0000 0.0000 14.6427
#
#
#
# Elastic Compliance Matrix: (Units=1/GPa)
#
#
# Indices 1 2 3 4 5 6 
#
# 1 0.010288 -0.000201 -0.007455 0.000000 0.000000 0.000000
# 2 -0.000201 0.023442 -0.021161 0.000000 0.000000 0.000000
# 3 -0.007455 -0.021161 0.039966 0.000000 0.000000 0.000000
# 4 0.000000 0.000000 0.000000 0.079649 0.000000 0.000000
# 5 0.000000 0.000000 0.000000 0.000000 0.041696 0.000000
# 6 0.000000 0.000000 0.000000 0.000000 0.000000 0.068293
#
#
# Mechanical properties :
#
#
# Convention : Reuss Voigt Hill
#
# Bulk Modulus (GPa) = 62.26296 67.14070 64.70183
# Shear Modulus (GPa) = 15.32224 19.73075 17.52650
#
# Velocity S-wave (km/s) = 3.01374 3.41992 3.22323
# Velocity P-wave (km/s) = 7.00129 7.44270 7.22536
#
# Compressibility (1/GPa) = 0.01606091
#
# Stress axis : x y z
#
# Youngs Moduli (GPa) = 97.20117 42.65837 25.02115
#
# Poissons Ratio (x) = 0.00859 0.18653
# Poissons Ratio (y) = 0.01957 0.52948
# Poissons Ratio (z) = 0.72462 0.90271
#
# Static dielectric constant tensor:
#      x y z
#    x 1.568640 0.000000 0.000000 
#    y 0.000000 1.553710 0.000000 
#    z 0.000000 0.000000 1.578210 
# 
# From -- ./inp_files/23715.got.cif
#   From: 2010.05.17/outbox.cif.g08.bks.cpg/sg69_12_cif.got.tgz:23715.got - 2010.06.03 19:29:58.
