data_PCOD9511369
_publ_section_title
;
Structure prediction by ZEFSAII (Michael W. Deem and Ramdas Pophale) SiO2 
 PCOD9511369
Probable space group: F M M M
;
_chemical_formula_sum "Si O2"
_cell_formula_units_Z 144
_cell_length_a 19.756130
_cell_length_b 20.047823
_cell_length_c 19.789000
_cell_angle_alpha 90.000000
_cell_angle_beta 90.000000
_cell_angle_gamma 90.000000
_cell_volume 7837.777727
_symmetry_space_group_name_H-M "F M M M"
_symmetry_group_IT_number 69
_symmetry_cell_setting 'orthorhombic'
loop_
_space_group_symop_operation_xyz
x,y,z
-x,-y,z
x,-y,-z
-x,y,-z
-x,-y,-z
x,y,-z
-x,y,z
x,-y,z
x,1/2+y,1/2+z
-x,1/2-y,1/2+z
x,1/2-y,1/2-z
-x,1/2+y,1/2-z
-x,1/2-y,1/2-z
x,1/2+y,1/2-z
-x,1/2+y,1/2+z
x,1/2-y,1/2+z
1/2+x,y,1/2+z
1/2-x,-y,1/2+z
1/2+x,-y,1/2-z
1/2-x,y,1/2-z
1/2-x,-y,1/2-z
1/2+x,y,1/2-z
1/2-x,y,1/2+z
1/2+x,-y,1/2+z
1/2+x,1/2+y,z
1/2-x,1/2-y,z
1/2+x,1/2-y,-z
1/2-x,1/2+y,-z
1/2-x,1/2-y,-z
1/2+x,1/2+y,-z
1/2-x,1/2+y,z
1/2+x,1/2-y,z
loop_
_atom_site_type_symbol
_atom_site_label
_atom_site_fract_x
_atom_site_fract_y
_atom_site_fract_z
Si Si1 0.858079 0.857366 0.577790
Si Si2 0.316228 0.577818 0.703836
Si Si3 0.000000 0.074900 0.581768
Si Si4 0.420676 0.674541 0.223803
Si Si5 0.579463 0.214822 0.575219
O O1 0.843736 0.875566 0.500000
O O2 0.806023 0.886965 0.631183
O O3 0.871492 0.778513 0.580470
O O4 0.930671 0.888560 0.598884
O O5 0.334187 0.500000 0.694577
O O6 0.250000 0.581341 0.750000
O O7 0.374052 0.620722 0.740490
O O8 0.000000 0.072534 0.500000
O O9 0.000000 0.000000 0.608564
O O10 0.500000 0.663413 0.238719
O O11 0.404944 0.750000 0.250000
O O12 0.410918 0.672466 0.142689
O O13 0.588828 0.184856 0.500000
O O14 0.500000 0.237700 0.577505
#
# Coordination Sequence:
#
# PCOD9511369 Si02
#       5
#    32  32  16  32  32
#     4  10  18  32  54  83 115 146 181 227 290 356
#     4  11  25  41  55  78 117 159 196 235 284 341
#     4   9  16  24  42  77 114 142 170 213 278 351
#     4  10  20  36  59  86 113 147 190 233 283 342
#     4   9  16  30  54  84 117 145 176 229 290 342
#
# _framework density 18.372554999999998
#
# number of rings (size 3 to 8) (size 9 to 14) (size 15 to 20)
#    0.000    2.111    3.333    0.667    1.556    2.222 
#    0.000    1.111    0.000    4.667    0.000    3.111 
#    0.000    0.000    0.000    0.000    0.000    0.000 
#
# Total GULP energy -200760.830195 kJ/mol
# GULP energy per Si atom -5576.689728 kJ/mol
# Density = 1.833074 g / cm^3
# Si number density = 18.372555 Si / 1000 Ang^3
#
#
#
# Elastic Constant Matrix: (Units=GPa)
#
#
# Indices 1 2 3 4 5 6 
#
# 1 26.3667 20.7170 33.7900 0.0000 0.0000 0.0000
# 2 20.7170 47.9759 35.9615 0.0000 0.0000 0.0000
# 3 33.7900 35.9615 154.8731 0.0000 0.0000 0.0000
# 4 0.0000 0.0000 0.0000 17.4763 0.0000 0.0000
# 5 0.0000 0.0000 0.0000 0.0000 27.8350 0.0000
# 6 0.0000 0.0000 0.0000 0.0000 0.0000 22.4149
#
#
#
# Elastic Compliance Matrix: (Units=1/GPa)
#
#
# Indices 1 2 3 4 5 6 
#
# 1 0.067505 -0.021927 -0.009637 0.000000 0.000000 0.000000
# 2 -0.021927 0.032358 -0.002730 0.000000 0.000000 0.000000
# 3 -0.009637 -0.002730 0.009193 0.000000 0.000000 0.000000
# 4 0.000000 0.000000 0.000000 0.057220 0.000000 0.000000
# 5 0.000000 0.000000 0.000000 0.000000 0.035926 0.000000
# 6 0.000000 0.000000 0.000000 0.000000 0.000000 0.044613
#
#
# Mechanical properties :
#
#
# Convention : Reuss Voigt Hill
#
# Bulk Modulus (GPa) = 24.70943 45.57252 35.14098
# Shear Modulus (GPa) = 15.20253 22.79504 18.99879
#
# Velocity S-wave (km/s) = 2.87968 3.52619 3.21921
# Velocity P-wave (km/s) = 4.95328 6.43718 5.74336
#
# Compressibility (1/GPa) = 0.04047038
#
# Stress axis : x y z
#
# Youngs Moduli (GPa) = 14.81371 30.90396 108.77533
#
# Poissons Ratio (x) = 0.67762 1.04824
# Poissons Ratio (y) = 0.32482 0.29692
# Poissons Ratio (z) = 0.14276 0.08436
#
# Static dielectric constant tensor:
#      x y z
#    x 1.631630 0.000000 0.000000 
#    y 0.000000 1.618110 0.000000 
#    z 0.000000 0.000000 1.682910 
# 
# From -- ./inp_files/24458.got.cif
#   From: 2010.05.17/outbox.cif.g08.bks.cpg/sg69_13_cif.got.tgz:24458.got - 2010.06.03 19:29:58.
