data_PCOD9511718
_publ_section_title
;
Structure prediction by ZEFSAII (Michael W. Deem and Ramdas Pophale) SiO2 
 PCOD9511718
Probable space group: F M M M
;
_chemical_formula_sum "Si O2"
_cell_formula_units_Z 108
_cell_length_a 14.737596
_cell_length_b 15.402594
_cell_length_c 23.936804
_cell_angle_alpha 90.000000
_cell_angle_beta 90.000000
_cell_angle_gamma 90.000000
_cell_volume 5433.587670
_symmetry_space_group_name_H-M "F M M M"
_symmetry_group_IT_number 69
_symmetry_cell_setting 'orthorhombic'
loop_
_space_group_symop_operation_xyz
x,y,z
-x,-y,z
x,-y,-z
-x,y,-z
-x,-y,-z
x,y,-z
-x,y,z
x,-y,z
x,1/2+y,1/2+z
-x,1/2-y,1/2+z
x,1/2-y,1/2-z
-x,1/2+y,1/2-z
-x,1/2-y,1/2-z
x,1/2+y,1/2-z
-x,1/2+y,1/2+z
x,1/2-y,1/2+z
1/2+x,y,1/2+z
1/2-x,-y,1/2+z
1/2+x,-y,1/2-z
1/2-x,y,1/2-z
1/2-x,-y,1/2-z
1/2+x,y,1/2-z
1/2-x,y,1/2+z
1/2+x,-y,1/2+z
1/2+x,1/2+y,z
1/2-x,1/2-y,z
1/2+x,1/2-y,-z
1/2-x,1/2+y,-z
1/2-x,1/2-y,-z
1/2+x,1/2+y,-z
1/2-x,1/2+y,z
1/2+x,1/2-y,z
loop_
_atom_site_type_symbol
_atom_site_label
_atom_site_fract_x
_atom_site_fract_y
_atom_site_fract_z
Si Si1 0.827414 0.000000 0.066455
Si Si2 0.627188 0.500000 0.609134
Si Si3 0.107328 0.308425 0.562688
Si Si4 0.000000 0.000000 0.500000
Si Si5 0.250000 0.250000 0.750000
Si Si6 0.894951 0.815456 0.663813
O O1 0.734157 0.000000 0.099001
O O2 0.877592 0.909203 0.077805
O O3 0.810603 0.000000 0.000000
O O4 0.577717 0.500000 0.549492
O O5 0.602509 0.586559 0.642194
O O6 0.145462 0.292317 0.500000
O O7 0.137311 0.244423 0.611601
O O8 0.000000 0.292981 0.558581
O O9 0.180091 0.195744 0.711645
O O10 0.000000 0.790571 0.678976
#
# Coordination Sequence:
#
# PCOD9511718 Si02
#       6
#    16  16  32   4   8  32
#     4  10  19  32  53  89 129 167 198 239 297 379
#     4  12  24  40  64  95 129 166 202 252 316 385
#     4   9  19  35  61  92 128 162 202 255 320 382
#     4  12  24  40  64  96 138 162 196 248 318 396
#     4  12  26  46  66  86 120 170 222 272 300 358
#     4  11  24  43  65  92 124 165 213 261 316 372
#
# _framework density 19.876370000000001
#
# number of rings (size 3 to 8) (size 9 to 14) (size 15 to 20)
#    0.000    1.481    2.222    2.667    2.074    2.370 
#    0.000    5.185    0.000    3.556    0.000    0.000 
#    0.000    0.000    0.000    0.000    0.000    0.000 
#
# Total GULP energy -150430.830778 kJ/mol
# GULP energy per Si atom -5571.512251 kJ/mol
# Density = 1.983113 g / cm^3
# Si number density = 19.876370 Si / 1000 Ang^3
#
#
#
# Elastic Constant Matrix: (Units=GPa)
#
#
# Indices 1 2 3 4 5 6 
#
# 1 93.2174 21.2191 60.3187 0.0000 0.0000 0.0000
# 2 21.2191 120.1305 76.0620 0.0000 0.0000 0.0000
# 3 60.3187 76.0620 125.2396 0.0000 0.0000 0.0000
# 4 0.0000 0.0000 0.0000 0.9095 0.0000 0.0000
# 5 0.0000 0.0000 0.0000 0.0000 45.4842 0.0000
# 6 0.0000 0.0000 0.0000 0.0000 0.0000 42.1429
#
#
#
# Elastic Compliance Matrix: (Units=1/GPa)
#
#
# Indices 1 2 3 4 5 6 
#
# 1 0.016406 0.003420 -0.009979 0.000000 0.000000 0.000000
# 2 0.003420 0.014238 -0.010295 0.000000 0.000000 0.000000
# 3 -0.009979 -0.010295 0.019043 0.000000 0.000000 0.000000
# 4 0.000000 0.000000 0.000000 1.099497 0.000000 0.000000
# 5 0.000000 0.000000 0.000000 0.000000 0.021986 0.000000
# 6 0.000000 0.000000 0.000000 0.000000 0.000000 0.023729
#
#
# Mechanical properties :
#
#
# Convention : Reuss Voigt Hill
#
# Bulk Modulus (GPa) = 62.57413 72.64302 67.60858
# Shear Modulus (GPa) = 4.05208 29.77316 16.91262
#
# Velocity S-wave (km/s) = 1.42936 3.87449 2.92017
# Velocity P-wave (km/s) = 5.85441 7.52611 6.74227
#
# Compressibility (1/GPa) = 0.01598104
#
# Stress axis : x y z
#
# Youngs Moduli (GPa) = 60.95270 70.23271 52.51222
#
# Poissons Ratio (x) = -0.24022 0.52402
# Poissons Ratio (y) = -0.20848 0.54060
# Poissons Ratio (z) = 0.60824 0.72303
#
# Static dielectric constant tensor:
#      x y z
#    x 1.721550 0.000000 0.000000 
#    y 0.000000 1.687300 0.000000 
#    z 0.000000 0.000000 1.702780 
# 
# From -- ./inp_files/35537.got.cif
#   From: 2010.05.17/outbox.cif.g08.bks.cpg/sg69_18_cif.got.tgz:35537.got - 2010.06.03 19:29:58.
