data_PCOD9511463
_publ_section_title
;
Structure prediction by ZEFSAII (Michael W. Deem and Ramdas Pophale) SiO2 
 PCOD9511463
Probable space group: F M M M
;
_chemical_formula_sum "Si O2"
_cell_formula_units_Z 192
_cell_length_a 22.151082
_cell_length_b 14.776501
_cell_length_c 25.947268
_cell_angle_alpha 90.000000
_cell_angle_beta 90.000000
_cell_angle_gamma 90.000000
_cell_volume 8492.942618
_symmetry_space_group_name_H-M "F M M M"
_symmetry_group_IT_number 69
_symmetry_cell_setting 'orthorhombic'
loop_
_space_group_symop_operation_xyz
x,y,z
-x,-y,z
x,-y,-z
-x,y,-z
-x,-y,-z
x,y,-z
-x,y,z
x,-y,z
x,1/2+y,1/2+z
-x,1/2-y,1/2+z
x,1/2-y,1/2-z
-x,1/2+y,1/2-z
-x,1/2-y,1/2-z
x,1/2+y,1/2-z
-x,1/2+y,1/2+z
x,1/2-y,1/2+z
1/2+x,y,1/2+z
1/2-x,-y,1/2+z
1/2+x,-y,1/2-z
1/2-x,y,1/2-z
1/2-x,-y,1/2-z
1/2+x,y,1/2-z
1/2-x,y,1/2+z
1/2+x,-y,1/2+z
1/2+x,1/2+y,z
1/2-x,1/2-y,z
1/2+x,1/2-y,-z
1/2-x,1/2+y,-z
1/2-x,1/2-y,-z
1/2+x,1/2+y,-z
1/2-x,1/2+y,z
1/2+x,1/2-y,z
loop_
_atom_site_type_symbol
_atom_site_label
_atom_site_fract_x
_atom_site_fract_y
_atom_site_fract_z
Si Si1 0.351727 0.596765 0.673677
Si Si2 0.430981 0.355869 0.765618
Si Si3 0.753948 0.141216 0.108532
Si Si4 0.567212 0.312075 0.500000
Si Si5 0.104799 0.397736 0.383757
Si Si6 0.935119 0.291355 0.106411
Si Si7 0.205486 0.834583 0.500000
O O1 0.373634 0.500000 0.653158
O O2 0.377286 0.603113 0.731080
O O3 0.282099 0.604506 0.658197
O O4 0.383081 0.678281 0.643605
O O5 0.500000 0.388434 0.755284
O O6 0.430795 0.250000 0.750000
O O7 0.415567 0.377383 0.824890
O O8 0.750000 0.250000 0.111556
O O9 0.823134 0.110579 0.109513
O O10 0.720876 0.115813 0.054200
O O11 0.500000 0.264204 0.500000
O O12 0.564688 0.355232 0.443408
O O13 0.638956 0.290474 0.500000
O O14 0.086071 0.500000 0.397740
O O15 0.076354 0.311157 0.413017
O O16 0.000000 0.295160 0.132937
O O17 0.250000 0.750000 0.500000
#
# Coordination Sequence:
#
# PCOD9511463 Si02
#       7
#    32  32  32  16  32  32  16
#     4  12  24  40  65  98 131 168 217 269 327 390
#     4  11  23  43  68  95 130 174 222 270 327 395
#     4  11  21  42  67  93 132 174 222 274 335 391
#     4  10  20  38  66  98 132 176 222 277 340 399
#     4  12  25  42  65  97 132 173 223 275 332 393
#     4  11  22  41  65  93 132 175 217 268 329 394
#     4  10  18  36  69  96 126 177 231 274 333 402
#
# _framework density 22.607005999999998
#
# number of rings (size 3 to 8) (size 9 to 14) (size 15 to 20)
#    0.000    0.833    5.000    3.000    0.000    4.000 
#    0.000    7.500    0.000    3.000    0.000    0.000 
#    0.000    0.000    0.000    0.000    0.000    0.000 
#
# Total GULP energy -267330.343631 kJ/mol
# GULP energy per Si atom -5569.382159 kJ/mol
# Density = 2.255555 g / cm^3
# Si number density = 22.607006 Si / 1000 Ang^3
#
#
#
# Elastic Constant Matrix: (Units=GPa)
#
#
# Indices 1 2 3 4 5 6 
#
# 1 136.6272 -14.4029 19.3654 0.0000 0.0000 0.0000
# 2 -14.4029 79.5147 -18.4155 0.0000 0.0000 0.0000
# 3 19.3654 -18.4155 83.0077 0.0000 0.0000 0.0000
# 4 0.0000 0.0000 0.0000 -5.1059 0.0000 0.0000
# 5 0.0000 0.0000 0.0000 0.0000 39.1744 0.0000
# 6 0.0000 0.0000 0.0000 0.0000 0.0000 -5.4314
#
#
#
# Elastic Compliance Matrix: (Units=1/GPa)
#
#
# Indices 1 2 3 4 5 6 
#
# 1 0.007648 0.001025 -0.001557 0.000000 0.000000 0.000000
# 2 0.001025 0.013395 0.002733 0.000000 0.000000 0.000000
# 3 -0.001557 0.002733 0.013017 0.000000 0.000000 0.000000
# 4 0.000000 0.000000 0.000000 -0.195852 0.000000 0.000000
# 5 0.000000 0.000000 0.000000 0.000000 0.025527 0.000000
# 6 0.000000 0.000000 0.000000 0.000000 0.000000 -0.184115
#
#
# Mechanical properties :
#
#
# Convention : Reuss Voigt Hill
#
# Bulk Modulus (GPa) = 26.00099 30.24929 28.12514
# Shear Modulus (GPa) = -16.02761 26.56760 5.27000
#
# Velocity S-wave (km/s) = -2.66553 3.43183 1.52846
# Velocity P-wave (km/s) = 1.43278 5.39563 3.94751
#
# Compressibility (1/GPa) = 0.03846007
#
# Stress axis : x y z
#
# Youngs Moduli (GPa) = 130.75517 74.65596 76.82542
#
# Poissons Ratio (x) = -0.07650 0.11961
# Poissons Ratio (y) = -0.13399 -0.20993
# Poissons Ratio (z) = 0.20357 -0.20400
#
# Static dielectric constant tensor:
#      x y z
#    x 1.841150 0.000000 0.000000 
#    y 0.000000 1.966480 0.000000 
#    z 0.000000 0.000000 1.883460 
# 
# From -- ./inp_files/43234.got.cif
#   From: 2010.05.17/outbox.cif.g08.bks.cpg/sg69_22_cif.got.tgz:43234.got - 2010.06.03 19:29:58.
