data_PCOD9511956
_publ_section_title
;
Structure prediction by ZEFSAII (Michael W. Deem and Ramdas Pophale) SiO2 
 PCOD9511956
Probable space group: F M M M
;
_chemical_formula_sum "Si O2"
_cell_formula_units_Z 136
_cell_length_a 23.687795
_cell_length_b 13.485493
_cell_length_c 21.474776
_cell_angle_alpha 90.000000
_cell_angle_beta 90.000000
_cell_angle_gamma 90.000000
_cell_volume 6859.936669
_symmetry_space_group_name_H-M "F M M M"
_symmetry_group_IT_number 69
_symmetry_cell_setting 'orthorhombic'
loop_
_space_group_symop_operation_xyz
x,y,z
-x,-y,z
x,-y,-z
-x,y,-z
-x,-y,-z
x,y,-z
-x,y,z
x,-y,z
x,1/2+y,1/2+z
-x,1/2-y,1/2+z
x,1/2-y,1/2-z
-x,1/2+y,1/2-z
-x,1/2-y,1/2-z
x,1/2+y,1/2-z
-x,1/2+y,1/2+z
x,1/2-y,1/2+z
1/2+x,y,1/2+z
1/2-x,-y,1/2+z
1/2+x,-y,1/2-z
1/2-x,y,1/2-z
1/2-x,-y,1/2-z
1/2+x,y,1/2-z
1/2-x,y,1/2+z
1/2+x,-y,1/2+z
1/2+x,1/2+y,z
1/2-x,1/2-y,z
1/2+x,1/2-y,-z
1/2-x,1/2+y,-z
1/2-x,1/2-y,-z
1/2+x,1/2+y,-z
1/2-x,1/2+y,z
1/2+x,1/2-y,z
loop_
_atom_site_type_symbol
_atom_site_label
_atom_site_fract_x
_atom_site_fract_y
_atom_site_fract_z
Si Si1 0.798673 0.883774 0.428335
Si Si2 0.000000 0.000000 0.851765
Si Si3 0.886483 0.000000 0.927275
Si Si4 0.286599 0.615897 0.187953
Si Si5 0.000000 0.713959 0.679964
Si Si6 0.376488 0.782726 0.375005
O O1 0.778670 0.867642 0.500000
O O2 0.752246 0.869504 0.373798
O O3 0.848906 0.807715 0.412511
O O4 0.815616 0.000000 0.424243
O O5 0.947045 0.000000 0.896050
O O6 0.000000 0.096404 0.811562
O O7 0.866106 0.110887 0.909091
O O8 0.886894 0.000000 0.000000
O O9 0.306059 0.500000 0.187938
O O10 0.250000 0.628446 0.250000
O O11 0.338105 0.692607 0.185135
O O12 0.000000 0.750000 0.750000
O O13 0.058210 0.736411 0.642617
#
# Coordination Sequence:
#
# PCOD9511956 Si02
#       6
#    32   8  16  32  16  32
#     4  10  23  42  63  92 130 170 211 257 312 376
#     4   8  19  40  56  84 120 152 203 252 294 370
#     4  10  19  34  61  89 117 154 193 252 313 363
#     4  10  22  40  64  95 127 163 207 260 320 380
#     4  10  24  41  61  91 124 165 208 257 314 370
#     4  11  22  40  62  93 124 160 210 259 310 377
#
# _framework density 19.825256
#
# number of rings (size 3 to 8) (size 9 to 14) (size 15 to 20)
#    0.000    1.882    1.176    1.588    3.294    3.765 
#    2.118    1.765    0.000    1.412    0.000    0.000 
#    0.000    0.000    0.000    0.000    0.000    0.000 
#
# Total GULP energy -189497.339126 kJ/mol
# GULP energy per Si atom -5573.451151 kJ/mol
# Density = 1.978013 g / cm^3
# Si number density = 19.825256 Si / 1000 Ang^3
#
#
#
# Elastic Constant Matrix: (Units=GPa)
#
#
# Indices 1 2 3 4 5 6 
#
# 1 123.5353 41.3030 51.7871 0.0000 0.0000 0.0000
# 2 41.3030 140.3618 52.9733 0.0000 0.0000 0.0000
# 3 51.7871 52.9733 138.8412 0.0000 0.0000 0.0000
# 4 0.0000 0.0000 0.0000 28.2268 0.0000 0.0000
# 5 0.0000 0.0000 0.0000 0.0000 22.0155 0.0000
# 6 0.0000 0.0000 0.0000 0.0000 0.0000 21.0947
#
#
#
# Elastic Compliance Matrix: (Units=1/GPa)
#
#
# Indices 1 2 3 4 5 6 
#
# 1 0.009965 -0.001787 -0.003035 0.000000 0.000000 0.000000
# 2 -0.001787 0.008643 -0.002631 0.000000 0.000000 0.000000
# 3 -0.003035 -0.002631 0.009338 0.000000 0.000000 0.000000
# 4 0.000000 0.000000 0.000000 0.035427 0.000000 0.000000
# 5 0.000000 0.000000 0.000000 0.000000 0.045423 0.000000
# 6 0.000000 0.000000 0.000000 0.000000 0.000000 0.047405
#
#
# Mechanical properties :
#
#
# Convention : Reuss Voigt Hill
#
# Bulk Modulus (GPa) = 76.68610 77.20721 76.94666
# Shear Modulus (GPa) = 28.49747 31.37906 29.93827
#
# Velocity S-wave (km/s) = 3.79546 3.98274 3.89023
# Velocity P-wave (km/s) = 7.61396 7.75745 7.68604
#
# Compressibility (1/GPa) = 0.01304017
#
# Stress axis : x y z
#
# Youngs Moduli (GPa) = 100.35586 115.69680 107.08399
#
# Poissons Ratio (x) = 0.20672 0.32500
# Poissons Ratio (y) = 0.17931 0.28177
# Poissons Ratio (z) = 0.30458 0.30443
#
# Static dielectric constant tensor:
#      x y z
#    x 1.730380 0.000000 0.000000 
#    y 0.000000 1.186960 0.000000 
#    z 0.000000 0.000000 1.717510 
# 
# From -- ./inp_files/32514.got.cif
#   From: 2010.05.17/outbox.cif.g08.bks.cpg/sg69_17_cif.got.tgz:32514.got - 2010.06.03 19:29:58.
