data_PCOD9511879
_publ_section_title
;
Structure prediction by ZEFSAII (Michael W. Deem and Ramdas Pophale) SiO2 
 PCOD9511879
Probable space group: F M M M
;
_chemical_formula_sum "Si O2"
_cell_formula_units_Z 176
_cell_length_a 28.104560
_cell_length_b 19.441727
_cell_length_c 17.050199
_cell_angle_alpha 90.000000
_cell_angle_beta 90.000000
_cell_angle_gamma 90.000000
_cell_volume 9316.248904
_symmetry_space_group_name_H-M "F M M M"
_symmetry_group_IT_number 69
_symmetry_cell_setting 'orthorhombic'
loop_
_space_group_symop_operation_xyz
x,y,z
-x,-y,z
x,-y,-z
-x,y,-z
-x,-y,-z
x,y,-z
-x,y,z
x,-y,z
x,1/2+y,1/2+z
-x,1/2-y,1/2+z
x,1/2-y,1/2-z
-x,1/2+y,1/2-z
-x,1/2-y,1/2-z
x,1/2+y,1/2-z
-x,1/2+y,1/2+z
x,1/2-y,1/2+z
1/2+x,y,1/2+z
1/2-x,-y,1/2+z
1/2+x,-y,1/2-z
1/2-x,y,1/2-z
1/2-x,-y,1/2-z
1/2+x,y,1/2-z
1/2-x,y,1/2+z
1/2+x,-y,1/2+z
1/2+x,1/2+y,z
1/2-x,1/2-y,z
1/2+x,1/2-y,-z
1/2-x,1/2+y,-z
1/2-x,1/2-y,-z
1/2+x,1/2+y,-z
1/2-x,1/2+y,z
1/2+x,1/2-y,z
loop_
_atom_site_type_symbol
_atom_site_label
_atom_site_fract_x
_atom_site_fract_y
_atom_site_fract_z
Si Si1 0.443936 0.180130 0.595097
Si Si2 0.000000 0.921713 0.404248
Si Si3 0.765184 0.083064 0.086980
Si Si4 0.170582 0.919769 0.669757
Si Si5 0.136253 0.919938 0.849119
Si Si6 0.910385 0.667876 0.905714
O O1 0.440601 0.174008 0.500000
O O2 0.500000 0.176260 0.615065
O O3 0.410978 0.122922 0.634617
O O4 0.422781 0.254576 0.618263
O O5 0.953347 0.881235 0.378566
O O6 0.000000 0.922007 0.500000
O O7 0.000000 0.000000 0.377245
O O8 0.725288 0.099004 0.151419
O O9 0.818480 0.108662 0.102389
O O10 0.769403 0.000000 0.088578
O O11 0.748579 0.103445 0.000000
O O12 0.154826 0.917577 0.759858
O O13 0.137519 0.866289 0.624585
O O14 0.163906 0.000000 0.643048
O O15 0.127951 0.000000 0.869663
O O16 0.910132 0.667303 0.000000
#
# Coordination Sequence:
#
# PCOD9511879 Si02
#       6
#    32  16  32  32  32  32
#     4  10  21  39  60  79 106 146 191 241 288 326
#     4   9  16  28  50  77 105 139 178 223 271 319
#     4   9  17  32  57  85 111 143 184 230 281 335
#     4  10  20  34  54  84 118 149 178 221 280 339
#     4  10  21  37  56  82 114 148 188 233 281 334
#     4  10  19  34  54  80 111 144 185 228 275 334
#
# _framework density 18.891724
#
# number of rings (size 3 to 8) (size 9 to 14) (size 15 to 20)
#    0.000    2.273    0.909    2.182    0.000    6.182 
#    1.636    2.727    0.000    5.455    0.000    0.000 
#    0.000    0.000    0.000    0.000    0.000    0.000 
#
# Total GULP energy -245405.905767 kJ/mol
# GULP energy per Si atom -5577.406949 kJ/mol
# Density = 1.884873 g / cm^3
# Si number density = 18.891724 Si / 1000 Ang^3
#
#
#
# Elastic Constant Matrix: (Units=GPa)
#
#
# Indices 1 2 3 4 5 6 
#
# 1 123.7475 62.1760 28.5112 0.0000 0.0000 0.0000
# 2 62.1760 95.9241 28.6492 0.0000 0.0000 0.0000
# 3 28.5112 28.6492 29.3794 0.0000 0.0000 0.0000
# 4 0.0000 0.0000 0.0000 19.0104 0.0000 0.0000
# 5 0.0000 0.0000 0.0000 0.0000 9.4842 0.0000
# 6 0.0000 0.0000 0.0000 0.0000 0.0000 6.5401
#
#
#
# Elastic Compliance Matrix: (Units=1/GPa)
#
#
# Indices 1 2 3 4 5 6 
#
# 1 0.012706 -0.006424 -0.006066 0.000000 0.000000 0.000000
# 2 -0.006424 0.017957 -0.011276 0.000000 0.000000 0.000000
# 3 -0.006066 -0.011276 0.050920 0.000000 0.000000 0.000000
# 4 0.000000 0.000000 0.000000 0.052603 0.000000 0.000000
# 5 0.000000 0.000000 0.000000 0.000000 0.105439 0.000000
# 6 0.000000 0.000000 0.000000 0.000000 0.000000 0.152902
#
#
# Mechanical properties :
#
#
# Convention : Reuss Voigt Hill
#
# Bulk Modulus (GPa) = 29.36839 54.19153 41.77996
# Shear Modulus (GPa) = 11.07639 15.65459 13.36549
#
# Velocity S-wave (km/s) = 2.42401 2.88175 2.66273
# Velocity P-wave (km/s) = 4.83878 6.31033 5.62290
#
# Compressibility (1/GPa) = 0.03405021
#
# Stress axis : x y z
#
# Youngs Moduli (GPa) = 78.70005 55.68946 19.63852
#
# Poissons Ratio (x) = 0.35776 0.11914
# Poissons Ratio (y) = 0.50559 0.22144
# Poissons Ratio (z) = 0.47743 0.62795
#
# Static dielectric constant tensor:
#      x y z
#    x 1.651470 0.000000 0.000000 
#    y 0.000000 1.637290 0.000000 
#    z 0.000000 0.000000 1.680830 
# 
# From -- ./inp_files/26753.got.cif
#   From: 2010.05.17/outbox.cif.g08.bks.cpg/sg69_14_cif.got.tgz:26753.got - 2010.06.03 19:29:58.
