data_PCOD9511111
_publ_section_title
;
Structure prediction by ZEFSAII (Michael W. Deem and Ramdas Pophale) SiO2 
 PCOD9511111
Probable space group: F M M M
;
_chemical_formula_sum "Si O2"
_cell_formula_units_Z 128
_cell_length_a 20.511698
_cell_length_b 30.352139
_cell_length_c 14.424704
_cell_angle_alpha 90.000000
_cell_angle_beta 90.000000
_cell_angle_gamma 90.000000
_cell_volume 8980.444353
_symmetry_space_group_name_H-M "F M M M"
_symmetry_group_IT_number 69
_symmetry_cell_setting 'orthorhombic'
loop_
_space_group_symop_operation_xyz
x,y,z
-x,-y,z
x,-y,-z
-x,y,-z
-x,-y,-z
x,y,-z
-x,y,z
x,-y,z
x,1/2+y,1/2+z
-x,1/2-y,1/2+z
x,1/2-y,1/2-z
-x,1/2+y,1/2-z
-x,1/2-y,1/2-z
x,1/2+y,1/2-z
-x,1/2+y,1/2+z
x,1/2-y,1/2+z
1/2+x,y,1/2+z
1/2-x,-y,1/2+z
1/2+x,-y,1/2-z
1/2-x,y,1/2-z
1/2-x,-y,1/2-z
1/2+x,y,1/2-z
1/2-x,y,1/2+z
1/2+x,-y,1/2+z
1/2+x,1/2+y,z
1/2-x,1/2-y,z
1/2+x,1/2-y,-z
1/2-x,1/2+y,-z
1/2-x,1/2-y,-z
1/2+x,1/2+y,-z
1/2-x,1/2+y,z
1/2+x,1/2-y,z
loop_
_atom_site_type_symbol
_atom_site_label
_atom_site_fract_x
_atom_site_fract_y
_atom_site_fract_z
Si Si1 0.573419 0.696497 0.000000
Si Si2 0.821910 0.299265 0.209363
Si Si3 0.680215 0.726920 0.500000
Si Si4 0.579191 0.950768 0.392713
Si Si5 0.423559 0.359391 0.811519
O O1 0.625191 0.735416 0.000000
O O2 0.580162 0.665889 0.090016
O O3 0.500000 0.715029 0.000000
O O4 0.836281 0.250000 0.250000
O O5 0.750000 0.310116 0.250000
O O6 0.876090 0.332958 0.244636
O O7 0.822964 0.298106 0.097901
O O8 0.750000 0.750000 0.500000
O O9 0.599588 0.944190 0.500000
O O10 0.500000 0.950153 0.393771
O O11 0.598431 0.909602 0.329907
O O12 0.599513 0.000000 0.363524
O O13 0.500000 0.358801 0.782973
#
# Coordination Sequence:
#
# PCOD9511111 Si02
#       5
#    16  32  16  32  32
#     4  10  18  26  43  68  94 120 149 190 230 264
#     4  11  21  33  48  66  89 123 158 191 226 272
#     4  12  20  34  48  63  88 122 162 193 220 267
#     4   8  13  23  42  69  98 123 149 186 230 274
#     4  10  18  29  45  69  97 124 153 188 233 275
#
# _framework density 14.253193
#
# number of rings (size 3 to 8) (size 9 to 14) (size 15 to 20)
#    0.000    2.000    6.250    0.750    0.000    1.500 
#    0.000    0.000    0.000    0.750    0.000    0.875 
#    0.000    4.000    0.000    0.000    0.000    0.000 
#
# Total GULP energy -178228.336446 kJ/mol
# GULP energy per Si atom -5569.635514 kJ/mol
# Density = 1.422075 g / cm^3
# Si number density = 14.253193 Si / 1000 Ang^3
#
#
#
# Elastic Constant Matrix: (Units=GPa)
#
#
# Indices 1 2 3 4 5 6 
#
# 1 72.6765 64.7832 42.9094 0.0000 0.0000 0.0000
# 2 64.7832 100.4635 52.8987 0.0000 0.0000 0.0000
# 3 42.9094 52.8987 106.6997 0.0000 0.0000 0.0000
# 4 0.0000 0.0000 0.0000 20.4608 0.0000 0.0000
# 5 0.0000 0.0000 0.0000 0.0000 14.2018 0.0000
# 6 0.0000 0.0000 0.0000 0.0000 0.0000 11.1512
#
#
#
# Elastic Compliance Matrix: (Units=1/GPa)
#
#
# Indices 1 2 3 4 5 6 
#
# 1 0.033423 -0.019589 -0.003729 0.000000 0.000000 0.000000
# 2 -0.019589 0.024951 -0.004492 0.000000 0.000000 0.000000
# 3 -0.003729 -0.004492 0.013099 0.000000 0.000000 0.000000
# 4 0.000000 0.000000 0.000000 0.048874 0.000000 0.000000
# 5 0.000000 0.000000 0.000000 0.000000 0.070414 0.000000
# 6 0.000000 0.000000 0.000000 0.000000 0.000000 0.089677
#
#
# Mechanical properties :
#
#
# Convention : Reuss Voigt Hill
#
# Bulk Modulus (GPa) = 63.08463 66.78027 64.93245
# Shear Modulus (GPa) = 14.64807 17.11265 15.88036
#
# Velocity S-wave (km/s) = 3.20926 3.46875 3.34153
# Velocity P-wave (km/s) = 7.62158 7.93710 7.78094
#
# Compressibility (1/GPa) = 0.01585172
#
# Stress axis : x y z
#
# Youngs Moduli (GPa) = 29.91976 40.07867 76.34121
#
# Poissons Ratio (x) = 0.78509 0.28471
# Poissons Ratio (y) = 0.58609 0.34295
# Poissons Ratio (z) = 0.11159 0.18005
#
# Static dielectric constant tensor:
#      x y z
#    x 1.456030 0.000000 0.000000 
#    y 0.000000 1.475670 0.000000 
#    z 0.000000 0.000000 1.625150 
# 
# From -- ./inp_files/15466.got.cif
#   From: 2010.05.17/outbox.cif.g08.bks.cpg/sg69_8_cif.got.tgz:15466.got - 2010.06.03 19:29:58.
