data_PCOD9511132
_publ_section_title
;
Structure prediction by ZEFSAII (Michael W. Deem and Ramdas Pophale) SiO2 
 PCOD9511132
Probable space group: F M M M
;
_chemical_formula_sum "Si O2"
_cell_formula_units_Z 192
_cell_length_a 13.560787
_cell_length_b 25.835426
_cell_length_c 30.249360
_cell_angle_alpha 90.000000
_cell_angle_beta 90.000000
_cell_angle_gamma 90.000000
_cell_volume 10597.824225
_symmetry_space_group_name_H-M "F M M M"
_symmetry_group_IT_number 69
_symmetry_cell_setting 'orthorhombic'
loop_
_space_group_symop_operation_xyz
x,y,z
-x,-y,z
x,-y,-z
-x,y,-z
-x,-y,-z
x,y,-z
-x,y,z
x,-y,z
x,1/2+y,1/2+z
-x,1/2-y,1/2+z
x,1/2-y,1/2-z
-x,1/2+y,1/2-z
-x,1/2-y,1/2-z
x,1/2+y,1/2-z
-x,1/2+y,1/2+z
x,1/2-y,1/2+z
1/2+x,y,1/2+z
1/2-x,-y,1/2+z
1/2+x,-y,1/2-z
1/2-x,y,1/2-z
1/2-x,-y,1/2-z
1/2+x,y,1/2-z
1/2-x,y,1/2+z
1/2+x,-y,1/2+z
1/2+x,1/2+y,z
1/2-x,1/2-y,z
1/2+x,1/2-y,-z
1/2-x,1/2+y,-z
1/2-x,1/2-y,-z
1/2+x,1/2+y,-z
1/2-x,1/2+y,z
1/2+x,1/2-y,z
loop_
_atom_site_type_symbol
_atom_site_label
_atom_site_fract_x
_atom_site_fract_y
_atom_site_fract_z
Si Si1 0.812816 0.090047 0.819538
Si Si2 0.614561 0.405967 0.722061
Si Si3 0.117965 0.785687 0.709744
Si Si4 0.118573 0.555858 0.414702
Si Si5 0.880030 0.299896 0.643437
Si Si6 0.619934 0.165322 0.548379
O O1 0.700392 0.072399 0.809469
O O2 0.868682 0.079219 0.773311
O O3 0.853310 0.062864 0.863339
O O4 0.831178 0.151283 0.831165
O O5 0.500000 0.414528 0.710098
O O6 0.641403 0.344941 0.718165
O O7 0.149906 0.750000 0.750000
O O8 0.144655 0.754892 0.665526
O O9 0.000000 0.785458 0.710165
O O10 0.153844 0.500000 0.431011
O O11 0.152304 0.606255 0.441521
O O12 0.000000 0.556389 0.417267
O O13 0.852225 0.302891 0.592001
O O14 0.000000 0.307671 0.647123
O O15 0.654576 0.182332 0.500000
O O16 0.500000 0.165628 0.547483
#
# Coordination Sequence:
#
# PCOD9511132 Si02
#       6
#    32  32  32  32  32  32
#     4  10  18  28  43  60  81 116 147 176 219 269
#     4  10  19  29  40  59  85 112 148 190 220 248
#     4   9  15  24  39  58  84 114 146 186 218 246
#     4   9  17  29  46  66  88 112 139 174 216 268
#     4   9  15  25  40  60  88 118 145 174 213 261
#     4   8  14  24  40  64  93 120 142 168 211 268
#
# _framework density 18.116927
#
# number of rings (size 3 to 8) (size 9 to 14) (size 15 to 20)
#    0.000    2.833    1.667    2.500    0.000    1.000 
#    0.000    3.333    0.000    1.500    0.000    9.333 
#    0.000   16.000    0.000    6.000    0.000    0.667 
#
# Total GULP energy -267301.042737 kJ/mol
# GULP energy per Si atom -5568.771724 kJ/mol
# Density = 1.807569 g / cm^3
# Si number density = 18.116927 Si / 1000 Ang^3
#
#
#
# Elastic Constant Matrix: (Units=GPa)
#
#
# Indices 1 2 3 4 5 6 
#
# 1 70.6566 -8.5658 2.4959 0.0000 0.0000 0.0000
# 2 -8.5658 21.6914 3.7487 0.0000 0.0000 0.0000
# 3 2.4959 3.7487 96.8700 0.0000 0.0000 0.0000
# 4 0.0000 0.0000 0.0000 4.4743 0.0000 0.0000
# 5 0.0000 0.0000 0.0000 0.0000 8.1971 0.0000
# 6 0.0000 0.0000 0.0000 0.0000 0.0000 -1.9890
#
#
#
# Elastic Compliance Matrix: (Units=1/GPa)
#
#
# Indices 1 2 3 4 5 6 
#
# 1 0.014901 0.005991 -0.000616 0.000000 0.000000 0.000000
# 2 0.005991 0.048820 -0.002044 0.000000 0.000000 0.000000
# 3 -0.000616 -0.002044 0.010418 0.000000 0.000000 0.000000
# 4 0.000000 0.000000 0.000000 0.223497 0.000000 0.000000
# 5 0.000000 0.000000 0.000000 0.000000 0.121994 0.000000
# 6 0.000000 0.000000 0.000000 0.000000 0.000000 -0.502771
#
#
# Mechanical properties :
#
#
# Convention : Reuss Voigt Hill
#
# Bulk Modulus (GPa) = 12.37593 20.50839 16.44216
# Shear Modulus (GPa) = -79.53073 14.90577 -32.31248
#
# Velocity S-wave (km/s) = -6.63279 2.87148 -4.22779
# Velocity P-wave (km/s) = 7.19809 4.72636 3.83888
#
# Compressibility (1/GPa) = 0.08080201
#
# Stress axis : x y z
#
# Youngs Moduli (GPa) = 67.10963 20.48332 95.98711
#
# Poissons Ratio (x) = -0.12271 0.05911
# Poissons Ratio (y) = -0.40204 0.19616
# Poissons Ratio (z) = 0.04132 0.04186
#
# Static dielectric constant tensor:
#      x y z
#    x 1.643430 0.000000 0.000000 
#    y 0.000000 1.687850 0.000000 
#    z 0.000000 0.000000 1.632670 
# 
# From -- ./inp_files/45954.got.cif
#   From: 2010.05.17/outbox.cif.g08.bks.cpg/sg69_23_cif.got.tgz:45954.got - 2010.06.03 19:29:58.
