data_PCOD9511936
_publ_section_title
;
Structure prediction by ZEFSAII (Michael W. Deem and Ramdas Pophale) SiO2 
 PCOD9511936
Probable space group: F M M M
;
_chemical_formula_sum "Si O2"
_cell_formula_units_Z 160
_cell_length_a 19.758429
_cell_length_b 20.822321
_cell_length_c 19.263365
_cell_angle_alpha 90.000000
_cell_angle_beta 90.000000
_cell_angle_gamma 90.000000
_cell_volume 7925.263338
_symmetry_space_group_name_H-M "F M M M"
_symmetry_group_IT_number 69
_symmetry_cell_setting 'orthorhombic'
loop_
_space_group_symop_operation_xyz
x,y,z
-x,-y,z
x,-y,-z
-x,y,-z
-x,-y,-z
x,y,-z
-x,y,z
x,-y,z
x,1/2+y,1/2+z
-x,1/2-y,1/2+z
x,1/2-y,1/2-z
-x,1/2+y,1/2-z
-x,1/2-y,1/2-z
x,1/2+y,1/2-z
-x,1/2+y,1/2+z
x,1/2-y,1/2+z
1/2+x,y,1/2+z
1/2-x,-y,1/2+z
1/2+x,-y,1/2-z
1/2-x,y,1/2-z
1/2-x,-y,1/2-z
1/2+x,y,1/2-z
1/2-x,y,1/2+z
1/2+x,-y,1/2+z
1/2+x,1/2+y,z
1/2-x,1/2-y,z
1/2+x,1/2-y,-z
1/2-x,1/2+y,-z
1/2-x,1/2-y,-z
1/2+x,1/2+y,-z
1/2-x,1/2+y,z
1/2+x,1/2-y,z
loop_
_atom_site_type_symbol
_atom_site_label
_atom_site_fract_x
_atom_site_fract_y
_atom_site_fract_z
Si Si1 0.282257 0.814377 0.825835
Si Si2 0.576489 0.841825 0.207062
Si Si3 0.718846 0.924839 0.582336
Si Si4 0.923631 0.924548 0.153276
Si Si5 0.918896 0.571809 0.073763
O O1 0.250000 0.827752 0.750000
O O2 0.250000 0.750000 0.856311
O O3 0.360314 0.797283 0.809549
O O4 0.264679 0.875007 0.874432
O O5 0.500000 0.815640 0.201230
O O6 0.582747 0.878711 0.279864
O O7 0.588623 0.892853 0.145642
O O8 0.727458 0.916787 0.500000
O O9 0.640057 0.912960 0.603362
O O10 0.732446 0.000000 0.599690
O O11 0.000000 0.914925 0.124084
O O12 0.920197 0.000000 0.174748
O O13 0.890767 0.500000 0.077105
O O14 0.000000 0.567102 0.068208
O O15 0.895227 0.601515 0.000000
#
# Coordination Sequence:
#
# PCOD9511936 Si02
#       5
#    32  32  32  32  32
#     4  11  24  43  62  87 125 163 204 249 303 368
#     4  10  19  34  58  86 114 154 201 248 299 361
#     4  10  22  40  63  92 123 162 210 253 303 366
#     4   9  17  31  55  89 124 158 201 254 307 357
#     4   8  14  25  44  76 118 155 186 230 289 349
#
# _framework density 20.188604000000002
#
# number of rings (size 3 to 8) (size 9 to 14) (size 15 to 20)
#    0.000    2.400    2.000    1.200    0.000    6.000 
#    0.000    7.000    0.000    0.000    0.000    0.000 
#    0.000    0.000    0.000    0.000    0.000    0.000 
#
# Total GULP energy -222837.979033 kJ/mol
# GULP energy per Si atom -5570.949476 kJ/mol
# Density = 2.014265 g / cm^3
# Si number density = 20.188604 Si / 1000 Ang^3
#
#
#
# Elastic Constant Matrix: (Units=GPa)
#
#
# Indices 1 2 3 4 5 6 
#
# 1 174.7897 35.5002 17.1078 0.0000 0.0000 0.0000
# 2 35.5002 73.6543 37.1120 0.0000 0.0000 0.0000
# 3 17.1078 37.1120 79.9373 0.0000 0.0000 0.0000
# 4 0.0000 0.0000 0.0000 22.6207 0.0000 0.0000
# 5 0.0000 0.0000 0.0000 0.0000 16.0806 0.0000
# 6 0.0000 0.0000 0.0000 0.0000 0.0000 11.7959
#
#
#
# Elastic Compliance Matrix: (Units=1/GPa)
#
#
# Indices 1 2 3 4 5 6 
#
# 1 0.006342 -0.003098 0.000081 0.000000 0.000000 0.000000
# 2 -0.003098 0.019236 -0.008267 0.000000 0.000000 0.000000
# 3 0.000081 -0.008267 0.016331 0.000000 0.000000 0.000000
# 4 0.000000 0.000000 0.000000 0.044207 0.000000 0.000000
# 5 0.000000 0.000000 0.000000 0.000000 0.062187 0.000000
# 6 0.000000 0.000000 0.000000 0.000000 0.000000 0.084776
#
#
# Mechanical properties :
#
#
# Convention : Reuss Voigt Hill
#
# Bulk Modulus (GPa) = 51.70592 56.42460 54.06526
# Shear Modulus (GPa) = 19.07715 26.01019 22.54367
#
# Velocity S-wave (km/s) = 3.07733 3.59327 3.34526
# Velocity P-wave (km/s) = 6.18819 6.72494 6.46214
#
# Compressibility (1/GPa) = 0.01934015
#
# Stress axis : x y z
#
# Youngs Moduli (GPa) = 157.66921 51.98678 61.23392
#
# Poissons Ratio (x) = 0.16104 -0.00494
# Poissons Ratio (y) = 0.48840 0.50625
# Poissons Ratio (z) = -0.01273 0.42980
#
# Static dielectric constant tensor:
#      x y z
#    x 1.805630 0.000000 0.000000 
#    y 0.000000 1.866340 0.000000 
#    z 0.000000 0.000000 1.692920 
# 
# From -- ./inp_files/24588.got.cif
#   From: 2010.05.17/outbox.cif.g08.bks.cpg/sg69_13_cif.got.tgz:24588.got - 2010.06.03 19:29:58.
