data_PCOD9511743
_publ_section_title
;
Structure prediction by ZEFSAII (Michael W. Deem and Ramdas Pophale) SiO2 
 PCOD9511743
Probable space group: F M M M
;
_chemical_formula_sum "Si O2"
_cell_formula_units_Z 144
_cell_length_a 18.638940
_cell_length_b 19.975215
_cell_length_c 18.254630
_cell_angle_alpha 90.000000
_cell_angle_beta 90.000000
_cell_angle_gamma 90.000000
_cell_volume 6796.506045
_symmetry_space_group_name_H-M "F M M M"
_symmetry_group_IT_number 69
_symmetry_cell_setting 'orthorhombic'
loop_
_space_group_symop_operation_xyz
x,y,z
-x,-y,z
x,-y,-z
-x,y,-z
-x,-y,-z
x,y,-z
-x,y,z
x,-y,z
x,1/2+y,1/2+z
-x,1/2-y,1/2+z
x,1/2-y,1/2-z
-x,1/2+y,1/2-z
-x,1/2-y,1/2-z
x,1/2+y,1/2-z
-x,1/2+y,1/2+z
x,1/2-y,1/2+z
1/2+x,y,1/2+z
1/2-x,-y,1/2+z
1/2+x,-y,1/2-z
1/2-x,y,1/2-z
1/2-x,-y,1/2-z
1/2+x,y,1/2-z
1/2-x,y,1/2+z
1/2+x,-y,1/2+z
1/2+x,1/2+y,z
1/2-x,1/2-y,z
1/2+x,1/2-y,-z
1/2-x,1/2+y,-z
1/2-x,1/2-y,-z
1/2+x,1/2+y,-z
1/2-x,1/2+y,z
1/2+x,1/2-y,z
loop_
_atom_site_type_symbol
_atom_site_label
_atom_site_fract_x
_atom_site_fract_y
_atom_site_fract_z
Si Si1 0.579959 0.233864 0.413033
Si Si2 0.712696 0.500000 0.871992
Si Si3 0.633620 0.364735 0.649329
Si Si4 0.720675 0.352768 0.082920
Si Si5 0.919035 0.079211 0.500000
Si Si6 0.360590 0.500000 0.722675
O O1 0.585927 0.254406 0.500000
O O2 0.500000 0.204909 0.404506
O O3 0.588490 0.297078 0.358753
O O4 0.646799 0.184980 0.399516
O O5 0.708086 0.567865 0.916539
O O6 0.654255 0.500000 0.808122
O O7 0.787711 0.500000 0.826487
O O8 0.717425 0.342788 0.644370
O O9 0.622361 0.399388 0.571043
O O10 0.610293 0.425202 0.703022
O O11 0.742495 0.331435 0.000000
O O12 0.000000 0.106811 0.500000
O O13 0.924192 0.000000 0.500000
#
# Coordination Sequence:
#
# PCOD9511743 Si02
#       6
#    32  16  32  32  16  16
#     4  10  20  33  50  78 112 140 169 218 273 319
#     4   9  19  36  54  76 107 135 174 234 266 302
#     4  11  18  31  53  79 111 141 173 213 258 320
#     4  10  19  32  57  83 103 133 181 224 270 314
#     4  11  20  28  45  80 119 146 169 208 261 320
#     4   9  20  33  52  80 107 140 178 210 265 318
#
# _framework density 21.187356999999999
#
# number of rings (size 3 to 8) (size 9 to 14) (size 15 to 20)
#    0.000    1.889    3.333    1.667    0.000    1.778 
#    0.000    1.667    0.000   14.667    0.000    0.000 
#    0.000    0.000    0.000    0.000    0.000    0.000 
#
# Total GULP energy -200605.796680 kJ/mol
# GULP energy per Si atom -5572.383241 kJ/mol
# Density = 2.113913 g / cm^3
# Si number density = 21.187357 Si / 1000 Ang^3
#
#
#
# Elastic Constant Matrix: (Units=GPa)
#
#
# Indices 1 2 3 4 5 6 
#
# 1 99.2118 28.8488 -1.2075 0.0000 0.0000 0.0000
# 2 28.8488 85.6856 -6.5796 0.0000 0.0000 0.0000
# 3 -1.2075 -6.5796 30.1004 0.0000 0.0000 0.0000
# 4 0.0000 0.0000 0.0000 -26.2379 0.0000 0.0000
# 5 0.0000 0.0000 0.0000 0.0000 8.7816 0.0000
# 6 0.0000 0.0000 0.0000 0.0000 0.0000 25.3227
#
#
#
# Elastic Compliance Matrix: (Units=1/GPa)
#
#
# Indices 1 2 3 4 5 6 
#
# 1 0.011178 -0.003793 -0.000381 0.000000 0.000000 0.000000
# 2 -0.003793 0.013157 0.002724 0.000000 0.000000 0.000000
# 3 -0.000381 0.002724 0.033802 0.000000 0.000000 0.000000
# 4 0.000000 0.000000 0.000000 -0.038113 0.000000 0.000000
# 5 0.000000 0.000000 0.000000 0.000000 0.113875 0.000000
# 6 0.000000 0.000000 0.000000 0.000000 0.000000 0.039490
#
#
# Mechanical properties :
#
#
# Convention : Reuss Voigt Hill
#
# Bulk Modulus (GPa) = 18.10359 28.56902 23.33630
# Shear Modulus (GPa) = 25.68054 14.50235 20.09145
#
# Velocity S-wave (km/s) = 3.48526 2.61910 3.08275
# Velocity P-wave (km/s) = 4.97585 4.76020 4.86922
#
# Compressibility (1/GPa) = 0.05523766
#
# Stress axis : x y z
#
# Youngs Moduli (GPa) = 89.46469 76.00752 29.58384
#
# Poissons Ratio (x) = 0.28826 0.01126
# Poissons Ratio (y) = 0.33930 -0.08058
# Poissons Ratio (z) = 0.03405 -0.20702
#
# Static dielectric constant tensor:
#      x y z
#    x 1.854170 0.000000 0.000000 
#    y 0.000000 1.812260 0.000000 
#    z 0.000000 0.000000 1.264710 
# 
# From -- ./inp_files/30762.got.cif
#   From: 2010.05.17/outbox.cif.g08.bks.cpg/sg69_16_cif.got.tgz:30762.got - 2010.06.03 19:29:58.
