data_PCOD9511580
_publ_section_title
;
Structure prediction by ZEFSAII (Michael W. Deem and Ramdas Pophale) SiO2 
 PCOD9511580
Probable space group: F M M M
;
_chemical_formula_sum "Si O2"
_cell_formula_units_Z 128
_cell_length_a 26.106299
_cell_length_b 8.098425
_cell_length_c 37.801668
_cell_angle_alpha 90.000000
_cell_angle_beta 90.000000
_cell_angle_gamma 90.000000
_cell_volume 7992.025038
_symmetry_space_group_name_H-M "F M M M"
_symmetry_group_IT_number 69
_symmetry_cell_setting 'orthorhombic'
loop_
_space_group_symop_operation_xyz
x,y,z
-x,-y,z
x,-y,-z
-x,y,-z
-x,-y,-z
x,y,-z
-x,y,z
x,-y,z
x,1/2+y,1/2+z
-x,1/2-y,1/2+z
x,1/2-y,1/2-z
-x,1/2+y,1/2-z
-x,1/2-y,1/2-z
x,1/2+y,1/2-z
-x,1/2+y,1/2+z
x,1/2-y,1/2+z
1/2+x,y,1/2+z
1/2-x,-y,1/2+z
1/2+x,-y,1/2-z
1/2-x,y,1/2-z
1/2-x,-y,1/2-z
1/2+x,y,1/2-z
1/2-x,y,1/2+z
1/2+x,-y,1/2+z
1/2+x,1/2+y,z
1/2-x,1/2-y,z
1/2+x,1/2-y,-z
1/2-x,1/2+y,-z
1/2-x,1/2-y,-z
1/2+x,1/2+y,-z
1/2-x,1/2+y,z
1/2+x,1/2-y,z
loop_
_atom_site_type_symbol
_atom_site_label
_atom_site_fract_x
_atom_site_fract_y
_atom_site_fract_z
Si Si1 0.062256 0.000000 0.040557
Si Si2 0.938234 0.186609 0.587846
Si Si3 0.597436 0.802380 0.663418
Si Si4 0.807800 0.303223 0.290231
Si Si5 0.500000 0.802406 0.209168
O O1 0.077474 0.166158 0.061466
O O2 0.000000 0.000000 0.039983
O O3 0.079962 0.000000 0.000000
O O4 0.913281 0.217423 0.626001
O O5 0.000000 0.198921 0.592492
O O6 0.927167 0.000000 0.575296
O O7 0.649094 0.742562 0.682706
O O8 0.549977 0.765916 0.689315
O O9 0.600198 0.000000 0.657689
O O10 0.809514 0.500000 0.290808
O O11 0.819245 0.250000 0.250000
O O12 0.750000 0.250000 0.298805
O O13 0.500000 0.750000 0.250000
O O14 0.500000 0.000000 0.206564
#
# Coordination Sequence:
#
# PCOD9511580 Si02
#       5
#    16  32  32  32  16
#     4   9  18  32  50  72 104 139 170 208 246 300
#     4  10  19  31  49  74 102 138 174 205 254 303
#     4  11  21  34  51  71  99 135 170 216 260 306
#     4  10  21  35  52  70  94 130 172 218 267 310
#     4  12  24  34  46  70  96 131 176 216 259 306
#
# _framework density 16.015967
#
# number of rings (size 3 to 8) (size 9 to 14) (size 15 to 20)
#    0.000    1.625    2.500    4.125    0.000    6.500 
#    0.000    2.500    0.000    0.000    0.000    0.000 
#    0.000    1.000    0.500    0.000    0.000    0.000 
#
# Total GULP energy -178624.724556 kJ/mol
# GULP energy per Si atom -5582.022642 kJ/mol
# Density = 1.597951 g / cm^3
# Si number density = 16.015967 Si / 1000 Ang^3
#
#
#
# Elastic Constant Matrix: (Units=GPa)
#
#
# Indices 1 2 3 4 5 6 
#
# 1 62.0101 28.2785 48.2066 0.0001 0.0002 -0.0008
# 2 28.2785 100.4634 52.0423 0.0000 0.0003 -0.0004
# 3 48.2066 52.0423 125.1123 0.0000 0.0000 0.0000
# 4 0.0001 0.0000 0.0000 15.1345 -0.0001 0.0000
# 5 0.0002 0.0003 0.0000 -0.0001 14.6519 -0.0002
# 6 -0.0008 -0.0004 0.0000 0.0000 -0.0002 16.4128
#
#
#
# Elastic Compliance Matrix: (Units=1/GPa)
#
#
# Indices 1 2 3 4 5 6 
#
# 1 0.023487 -0.002451 -0.008030 0.000000 0.000000 0.000001
# 2 -0.002451 0.012944 -0.004440 0.000000 0.000000 0.000000
# 3 -0.008030 -0.004440 0.012933 0.000000 0.000000 0.000000
# 4 0.000000 0.000000 0.000000 0.066074 0.000000 0.000000
# 5 0.000000 0.000000 0.000000 0.000000 0.068250 0.000001
# 6 0.000001 0.000000 0.000000 0.000000 0.000001 0.060928
#
#
# Mechanical properties :
#
#
# Convention : Reuss Voigt Hill
#
# Bulk Modulus (GPa) = 51.22377 60.51562 55.86970
# Shear Modulus (GPa) = 17.79577 19.84375 18.81976
#
# Velocity S-wave (km/s) = 3.33697 3.52376 3.43164
# Velocity P-wave (km/s) = 6.84833 7.37716 7.11765
#
# Compressibility (1/GPa) = 0.01952219
#
# Stress axis : x y z
#
# Youngs Moduli (GPa) = 42.57719 77.25770 77.31860
#
# Poissons Ratio (x) = 0.18939 0.62086
# Poissons Ratio (y) = 0.10437 0.34326
# Poissons Ratio (z) = 0.34189 0.34299
#
# Static dielectric constant tensor:
#      x y z
#    x 1.528180 0.000000 0.000000 
#    y 0.000000 1.563630 0.000000 
#    z 0.000000 0.000000 1.516690 
# 
# From -- ./inp_files/5459.got.cif
#   From: 2010.05.17/outbox.cif.g08.bks.cpg/sg69_3_cif.got.tgz:5459.got - 2010.06.03 19:29:58.
