data_PCOD9511811
_publ_section_title
;
Structure prediction by ZEFSAII (Michael W. Deem and Ramdas Pophale) SiO2 
 PCOD9511811
Probable space group: F M M M
;
_chemical_formula_sum "Si O2"
_cell_formula_units_Z 208
_cell_length_a 18.869973
_cell_length_b 19.745522
_cell_length_c 26.601518
_cell_angle_alpha 90.000000
_cell_angle_beta 90.000000
_cell_angle_gamma 90.000000
_cell_volume 9911.658225
_symmetry_space_group_name_H-M "F M M M"
_symmetry_group_IT_number 69
_symmetry_cell_setting 'orthorhombic'
loop_
_space_group_symop_operation_xyz
x,y,z
-x,-y,z
x,-y,-z
-x,y,-z
-x,-y,-z
x,y,-z
-x,y,z
x,-y,z
x,1/2+y,1/2+z
-x,1/2-y,1/2+z
x,1/2-y,1/2-z
-x,1/2+y,1/2-z
-x,1/2-y,1/2-z
x,1/2+y,1/2-z
-x,1/2+y,1/2+z
x,1/2-y,1/2+z
1/2+x,y,1/2+z
1/2-x,-y,1/2+z
1/2+x,-y,1/2-z
1/2-x,y,1/2-z
1/2-x,-y,1/2-z
1/2+x,y,1/2-z
1/2-x,y,1/2+z
1/2+x,-y,1/2+z
1/2+x,1/2+y,z
1/2-x,1/2-y,z
1/2+x,1/2-y,-z
1/2-x,1/2+y,-z
1/2-x,1/2-y,-z
1/2+x,1/2+y,-z
1/2-x,1/2+y,z
1/2+x,1/2-y,z
loop_
_atom_site_type_symbol
_atom_site_label
_atom_site_fract_x
_atom_site_fract_y
_atom_site_fract_z
Si Si1 0.664144 0.874160 0.799865
Si Si2 0.853931 0.075944 0.592997
Si Si3 0.667516 0.272241 0.944180
Si Si4 0.500000 0.577771 0.440445
Si Si5 0.805908 0.422088 0.579922
Si Si6 0.825909 0.875878 0.189499
Si Si7 0.415589 0.750761 0.156991
O O1 0.650799 0.922914 0.846792
O O2 0.745084 0.847797 0.807074
O O3 0.659770 0.906045 0.744610
O O4 0.610456 0.812665 0.808474
O O5 0.926954 0.110366 0.577421
O O6 0.777224 0.097542 0.573899
O O7 0.859109 0.000000 0.572769
O O8 0.750000 0.250000 0.937419
O O9 0.658126 0.354598 0.942070
O O10 0.623741 0.244573 0.897004
O O11 0.645971 0.248910 0.000000
O O12 0.500000 0.500000 0.419919
O O13 0.500000 0.575336 0.500000
O O14 0.817286 0.500000 0.561960
O O15 0.824129 0.421243 0.639553
O O16 0.882611 0.817233 0.180592
O O17 0.500000 0.748454 0.152481
#
# Coordination Sequence:
#
# PCOD9511811 Si02
#       7
#    32  32  32  16  32  32  32
#     4  10  19  33  55  78 108 144 186 224 268 333
#     4   9  18  31  48  74 107 141 176 217 267 325
#     4  10  21  39  61  82 111 149 188 236 297 351
#     4   9  18  32  46  62  97 146 180 208 259 320
#     4   9  18  34  58  86 113 141 188 244 285 337
#     4   9  19  35  54  79 108 145 180 226 280 328
#     4  11  22  35  54  79 109 141 183 231 281 341
#
# _framework density 20.985389000000001
#
# number of rings (size 3 to 8) (size 9 to 14) (size 15 to 20)
#    0.000    2.385    0.000    3.692    1.077    4.308 
#    0.000    5.385    0.000    7.385    0.000    4.308 
#    0.000    0.000    0.000    0.000    0.000    0.000 
#
# Total GULP energy -289740.873183 kJ/mol
# GULP energy per Si atom -5571.939869 kJ/mol
# Density = 2.093763 g / cm^3
# Si number density = 20.985389 Si / 1000 Ang^3
#
#
#
# Elastic Constant Matrix: (Units=GPa)
#
#
# Indices 1 2 3 4 5 6 
#
# 1 77.8373 6.2056 27.6933 0.0000 0.0000 0.0000
# 2 6.2056 78.2655 -6.5997 0.0000 0.0000 0.0000
# 3 27.6933 -6.5997 96.9993 0.0000 0.0000 0.0000
# 4 0.0000 0.0000 0.0000 13.9789 0.0000 0.0000
# 5 0.0000 0.0000 0.0000 0.0000 19.1109 0.0000
# 6 0.0000 0.0000 0.0000 0.0000 0.0000 -46.5909
#
#
#
# Elastic Compliance Matrix: (Units=1/GPa)
#
#
# Indices 1 2 3 4 5 6 
#
# 1 0.014474 -0.001505 -0.004235 0.000000 0.000000 0.000000
# 2 -0.001505 0.013007 0.001315 0.000000 0.000000 0.000000
# 3 -0.004235 0.001315 0.011608 0.000000 0.000000 0.000000
# 4 0.000000 0.000000 0.000000 0.071536 0.000000 0.000000
# 5 0.000000 0.000000 0.000000 0.000000 0.052326 0.000000
# 6 0.000000 0.000000 0.000000 0.000000 0.000000 -0.021463
#
#
# Mechanical properties :
#
#
# Convention : Reuss Voigt Hill
#
# Bulk Modulus (GPa) = 33.06954 34.18891 33.62923
# Shear Modulus (GPa) = 31.16866 12.35329 21.76098
#
# Velocity S-wave (km/s) = 3.85808 2.42887 3.22368
# Velocity P-wave (km/s) = 5.96984 4.91864 5.46955
#
# Compressibility (1/GPa) = 0.03023931
#
# Stress axis : x y z
#
# Youngs Moduli (GPa) = 69.08981 76.88056 86.14897
#
# Poissons Ratio (x) = 0.11568 0.36481
# Poissons Ratio (y) = 0.10396 -0.11325
# Poissons Ratio (z) = 0.29257 -0.10107
#
# Static dielectric constant tensor:
#      x y z
#    x 1.758690 0.000000 0.000000 
#    y 0.000000 1.785780 0.000000 
#    z 0.000000 0.000000 1.774470 
# 
# From -- ./inp_files/42025.got.cif
#   From: 2010.05.17/outbox.cif.g08.bks.cpg/sg69_22_cif.got.tgz:42025.got - 2010.06.03 19:29:58.
