data_PCOD9511310
_publ_section_title
;
Structure prediction by ZEFSAII (Michael W. Deem and Ramdas Pophale) SiO2 
 PCOD9511310
Probable space group: F M M M
;
_chemical_formula_sum "Si O2"
_cell_formula_units_Z 144
_cell_length_a 19.365005
_cell_length_b 22.753180
_cell_length_c 14.820535
_cell_angle_alpha 90.000000
_cell_angle_beta 90.000000
_cell_angle_gamma 90.000000
_cell_volume 6530.156616
_symmetry_space_group_name_H-M "F M M M"
_symmetry_group_IT_number 69
_symmetry_cell_setting 'orthorhombic'
loop_
_space_group_symop_operation_xyz
x,y,z
-x,-y,z
x,-y,-z
-x,y,-z
-x,-y,-z
x,y,-z
-x,y,z
x,-y,z
x,1/2+y,1/2+z
-x,1/2-y,1/2+z
x,1/2-y,1/2-z
-x,1/2+y,1/2-z
-x,1/2-y,1/2-z
x,1/2+y,1/2-z
-x,1/2+y,1/2+z
x,1/2-y,1/2+z
1/2+x,y,1/2+z
1/2-x,-y,1/2+z
1/2+x,-y,1/2-z
1/2-x,y,1/2-z
1/2-x,-y,1/2-z
1/2+x,y,1/2-z
1/2-x,y,1/2+z
1/2+x,-y,1/2+z
1/2+x,1/2+y,z
1/2-x,1/2-y,z
1/2+x,1/2-y,-z
1/2-x,1/2+y,-z
1/2-x,1/2-y,-z
1/2+x,1/2+y,-z
1/2-x,1/2+y,z
1/2+x,1/2-y,z
loop_
_atom_site_type_symbol
_atom_site_label
_atom_site_fract_x
_atom_site_fract_y
_atom_site_fract_z
Si Si1 0.784644 0.933705 0.651658
Si Si2 0.579353 0.266008 0.890336
Si Si3 0.580156 0.500000 0.890110
Si Si4 0.420643 0.867996 0.890193
Si Si5 0.150742 0.619165 0.397013
O O1 0.750000 0.934724 0.750000
O O2 0.861922 0.910071 0.648041
O O3 0.732497 0.890168 0.601117
O O4 0.781291 0.000000 0.614617
O O5 0.500000 0.280105 0.866975
O O6 0.594028 0.199418 0.861288
O O7 0.627103 0.318979 0.856482
O O8 0.583435 0.263284 0.000000
O O9 0.500000 0.500000 0.865923
O O10 0.617065 0.559618 0.857797
O O11 0.585298 0.500000 0.000000
O O12 0.500000 0.882039 0.864877
O O13 0.417199 0.870897 0.000000
O O14 0.124742 0.620883 0.500000
#
# Coordination Sequence:
#
# PCOD9511310 Si02
#       5
#    32  32  16  32  32
#     4  11  24  40  55  75 114 151 184 234 294 346
#     4   8  15  30  54  85 117 143 175 228 285 332
#     4   9  16  26  45  76 107 137 177 218 254 308
#     4   9  19  38  64  89 111 144 194 243 283 331
#     4  10  18  31  54  81 109 144 184 227 278 337
#
# _framework density 22.051538000000001
#
# number of rings (size 3 to 8) (size 9 to 14) (size 15 to 20)
#    0.000    2.556    1.111    2.667    0.000    5.333 
#    0.000    8.889    0.000    2.667    0.000    0.000 
#    0.000    0.000    0.000    0.000    0.000    0.000 
#
# Total GULP energy -200947.855307 kJ/mol
# GULP energy per Si atom -5581.884870 kJ/mol
# Density = 2.200135 g / cm^3
# Si number density = 22.051538 Si / 1000 Ang^3
#
#
#
# Elastic Constant Matrix: (Units=GPa)
#
#
# Indices 1 2 3 4 5 6 
#
# 1 137.8267 71.5708 21.2454 0.0000 0.0000 0.0000
# 2 71.5708 78.5209 18.6574 0.0000 0.0000 0.0000
# 3 21.2454 18.6574 51.1485 0.0000 0.0000 0.0000
# 4 0.0000 0.0000 0.0000 -39.9324 0.0000 0.0000
# 5 0.0000 0.0000 0.0000 0.0000 6.3721 0.0000
# 6 0.0000 0.0000 0.0000 0.0000 0.0000 46.3273
#
#
#
# Elastic Compliance Matrix: (Units=1/GPa)
#
#
# Indices 1 2 3 4 5 6 
#
# 1 0.013849 -0.012325 -0.001257 0.000000 0.000000 0.000000
# 2 -0.012325 0.024912 -0.003968 0.000000 0.000000 0.000000
# 3 -0.001257 -0.003968 0.021520 0.000000 0.000000 0.000000
# 4 0.000000 0.000000 0.000000 -0.025042 0.000000 0.000000
# 5 0.000000 0.000000 0.000000 0.000000 0.156934 0.000000
# 6 0.000000 0.000000 0.000000 0.000000 0.000000 0.021586
#
#
# Mechanical properties :
#
#
# Convention : Reuss Voigt Hill
#
# Bulk Modulus (GPa) = 39.70970 54.49369 47.10170
# Shear Modulus (GPa) = 19.43617 12.95490 16.19554
#
# Velocity S-wave (km/s) = 2.97206 2.42643 2.71300
# Velocity P-wave (km/s) = 5.46116 5.71102 5.58749
#
# Compressibility (1/GPa) = 0.02518276
#
# Stress axis : x y z
#
# Youngs Moduli (GPa) = 72.20619 40.14110 46.46775
#
# Poissons Ratio (x) = 0.49473 0.05840
# Poissons Ratio (y) = 0.88992 0.18438
# Poissons Ratio (z) = 0.09075 0.15927
#
# Static dielectric constant tensor:
#      x y z
#    x 1.778440 0.000000 0.000000 
#    y 0.000000 1.797640 0.000000 
#    z 0.000000 0.000000 1.895130 
# 
# From -- ./inp_files/22854.got.cif
#   From: 2010.05.17/outbox.cif.g08.bks.cpg/sg69_12_cif.got.tgz:22854.got - 2010.06.03 19:29:58.
