data_PCOD9511648
_publ_section_title
;
Structure prediction by ZEFSAII (Michael W. Deem and Ramdas Pophale) SiO2 
 PCOD9511648
Probable space group: F M M M
;
_chemical_formula_sum "Si O2"
_cell_formula_units_Z 224
_cell_length_a 19.153956
_cell_length_b 30.059281
_cell_length_c 20.622435
_cell_angle_alpha 90.000000
_cell_angle_beta 90.000000
_cell_angle_gamma 90.000000
_cell_volume 11873.452445
_symmetry_space_group_name_H-M "F M M M"
_symmetry_group_IT_number 69
_symmetry_cell_setting 'orthorhombic'
loop_
_space_group_symop_operation_xyz
x,y,z
-x,-y,z
x,-y,-z
-x,y,-z
-x,-y,-z
x,y,-z
-x,y,z
x,-y,z
x,1/2+y,1/2+z
-x,1/2-y,1/2+z
x,1/2-y,1/2-z
-x,1/2+y,1/2-z
-x,1/2-y,1/2-z
x,1/2+y,1/2-z
-x,1/2+y,1/2+z
x,1/2-y,1/2+z
1/2+x,y,1/2+z
1/2-x,-y,1/2+z
1/2+x,-y,1/2-z
1/2-x,y,1/2-z
1/2-x,-y,1/2-z
1/2+x,y,1/2-z
1/2-x,y,1/2+z
1/2+x,-y,1/2+z
1/2+x,1/2+y,z
1/2-x,1/2-y,z
1/2+x,1/2-y,-z
1/2-x,1/2+y,-z
1/2-x,1/2-y,-z
1/2+x,1/2+y,-z
1/2-x,1/2+y,z
1/2+x,1/2-y,z
loop_
_atom_site_type_symbol
_atom_site_label
_atom_site_fract_x
_atom_site_fract_y
_atom_site_fract_z
Si Si1 0.815536 0.592878 0.700481
Si Si2 0.424154 0.597877 0.425216
Si Si3 0.834029 0.000000 0.253674
Si Si4 0.733844 0.110769 0.922736
Si Si5 0.575545 0.000000 0.878740
Si Si6 0.289245 0.708334 0.576104
Si Si7 0.418702 0.322990 0.210065
Si Si8 0.579581 0.772370 0.847486
O O1 0.750000 0.600313 0.750000
O O2 0.853853 0.547219 0.721676
O O3 0.782349 0.586103 0.628769
O O4 0.866661 0.635522 0.702917
O O5 0.424360 0.612584 0.500000
O O6 0.500000 0.611900 0.395929
O O7 0.347199 0.608997 0.399641
O O8 0.423080 0.544329 0.420878
O O9 0.750000 0.000000 0.250000
O O10 0.863352 0.000000 0.326362
O O11 0.752067 0.162757 0.915767
O O12 0.737532 0.098560 0.000000
O O13 0.500000 0.000000 0.843494
O O14 0.296423 0.715477 0.500000
O O15 0.250000 0.750000 0.606927
O O16 0.366163 0.706794 0.603962
O O17 0.500000 0.336467 0.200684
O O18 0.404934 0.279999 0.164415
O O19 0.413771 0.300187 0.280983
O O20 0.500000 0.775498 0.869509
#
# Coordination Sequence:
#
# PCOD9511648 Si02
#       8
#    32  32  16  32  16  32  32  32
#     4  11  21  36  56  76 103 139 176 216 267 320
#     4   9  17  30  49  73 103 139 174 203 238 296
#     4  10  22  35  48  71 102 131 170 218 261 309
#     4  10  21  35  52  77 106 137 174 215 257 302
#     4  10  19  32  50  74 105 136 166 205 256 307
#     4  10  20  33  49  72 104 137 168 204 248 304
#     4   9  19  35  55  77 102 132 170 219 263 307
#     4   9  18  33  52  77 105 133 170 211 255 309
#
# _framework density 18.865615999999999
#
# number of rings (size 3 to 8) (size 9 to 14) (size 15 to 20)
#    0.000    2.286    0.000    4.500    0.000    2.286 
#    0.000    7.500    0.000    1.286    0.000    0.000 
#    0.000    1.714    0.000    0.000    0.000    0.000 
#
# Total GULP energy -311969.102586 kJ/mol
# GULP energy per Si atom -5570.876832 kJ/mol
# Density = 1.882268 g / cm^3
# Si number density = 18.865616 Si / 1000 Ang^3
#
#
#
# Elastic Constant Matrix: (Units=GPa)
#
#
# Indices 1 2 3 4 5 6 
#
# 1 56.0422 26.9738 10.0151 0.0000 0.0000 0.0000
# 2 26.9738 81.9612 12.5038 0.0000 0.0000 0.0000
# 3 10.0151 12.5038 30.6468 0.0000 0.0000 0.0000
# 4 0.0000 0.0000 0.0000 17.5623 0.0000 0.0000
# 5 0.0000 0.0000 0.0000 0.0000 23.6483 0.0000
# 6 0.0000 0.0000 0.0000 0.0000 0.0000 31.8127
#
#
#
# Elastic Compliance Matrix: (Units=1/GPa)
#
#
# Indices 1 2 3 4 5 6 
#
# 1 0.021761 -0.006480 -0.004467 0.000000 0.000000 0.000000
# 2 -0.006480 0.014940 -0.003978 0.000000 0.000000 0.000000
# 3 -0.004467 -0.003978 0.035713 0.000000 0.000000 0.000000
# 4 0.000000 0.000000 0.000000 0.056940 0.000000 0.000000
# 5 0.000000 0.000000 0.000000 0.000000 0.042286 0.000000
# 6 0.000000 0.000000 0.000000 0.000000 0.000000 0.031434
#
#
# Mechanical properties :
#
#
# Convention : Reuss Voigt Hill
#
# Bulk Modulus (GPa) = 23.49454 29.73730 26.61592
# Shear Modulus (GPa) = 20.23363 22.54849 21.39106
#
# Velocity S-wave (km/s) = 3.27848 3.46094 3.37094
# Velocity P-wave (km/s) = 5.17802 5.63629 5.41201
#
# Compressibility (1/GPa) = 0.04256308
#
# Stress axis : x y z
#
# Youngs Moduli (GPa) = 45.95380 66.93259 28.00123
#
# Poissons Ratio (x) = 0.43373 0.12509
# Poissons Ratio (y) = 0.29779 0.11139
# Poissons Ratio (z) = 0.20529 0.26626
#
# Static dielectric constant tensor:
#      x y z
#    x 1.686520 0.000000 0.000000 
#    y 0.000000 1.718980 0.000000 
#    z 0.000000 0.000000 1.661630 
# 
# From -- ./inp_files/31227.got.cif
#   From: 2010.05.17/outbox.cif.g08.bks.cpg/sg69_16_cif.got.tgz:31227.got - 2010.06.03 19:29:58.
