data_PCOD9511418
_publ_section_title
;
Structure prediction by ZEFSAII (Michael W. Deem and Ramdas Pophale) SiO2 
 PCOD9511418
Probable space group: F M M M
;
_chemical_formula_sum "Si O2"
_cell_formula_units_Z 100
_cell_length_a 24.417967
_cell_length_b 8.046239
_cell_length_c 22.922445
_cell_angle_alpha 90.000000
_cell_angle_beta 90.000000
_cell_angle_gamma 90.000000
_cell_volume 4503.636915
_symmetry_space_group_name_H-M "F M M M"
_symmetry_group_IT_number 69
_symmetry_cell_setting 'orthorhombic'
loop_
_space_group_symop_operation_xyz
x,y,z
-x,-y,z
x,-y,-z
-x,y,-z
-x,-y,-z
x,y,-z
-x,y,z
x,-y,z
x,1/2+y,1/2+z
-x,1/2-y,1/2+z
x,1/2-y,1/2-z
-x,1/2+y,1/2-z
-x,1/2-y,1/2-z
x,1/2+y,1/2-z
-x,1/2+y,1/2+z
x,1/2-y,1/2+z
1/2+x,y,1/2+z
1/2-x,-y,1/2+z
1/2+x,-y,1/2-z
1/2-x,y,1/2-z
1/2-x,-y,1/2-z
1/2+x,y,1/2-z
1/2-x,y,1/2+z
1/2+x,-y,1/2+z
1/2+x,1/2+y,z
1/2-x,1/2-y,z
1/2+x,1/2-y,-z
1/2-x,1/2+y,-z
1/2-x,1/2-y,-z
1/2+x,1/2+y,-z
1/2-x,1/2+y,z
1/2+x,1/2-y,z
loop_
_atom_site_type_symbol
_atom_site_label
_atom_site_fract_x
_atom_site_fract_y
_atom_site_fract_z
Si Si1 0.000000 0.000000 0.500000
Si Si2 0.186620 0.304968 0.373068
Si Si3 0.313750 0.801729 0.000000
Si Si4 0.416576 0.308932 0.685047
Si Si5 0.500000 0.687666 0.092764
O O1 0.000000 0.151918 0.449812
O O2 0.183858 0.500000 0.362610
O O3 0.250000 0.250000 0.370465
O O4 0.164834 0.266532 0.438795
O O5 0.147811 0.211597 0.328157
O O6 0.250000 0.750000 0.000000
O O7 0.319190 0.000000 0.000000
O O8 0.432280 0.500000 0.678784
O O9 0.429285 0.250000 0.750000
O O10 0.448274 0.205648 0.636158
O O11 0.500000 0.500000 0.067392
#
# Coordination Sequence:
#
# PCOD9511418 Si02
#       5
#     4  32  16  32  16
#     4  12  26  52  76 118 148 184 230 302 364 432
#     4  11  22  39  62  96 135 184 239 297 360 423
#     4  10  18  33  56  85 122 171 220 282 342 413
#     4  12  25  46  71 103 141 189 243 297 356 428
#     4  12  26  50  78 111 148 187 236 293 364 432
#
# _framework density 22.204274999999999
#
# number of rings (size 3 to 8) (size 9 to 14) (size 15 to 20)
#    0.000    0.640    1.600    9.840    0.000    1.920 
#    2.880    6.400    0.000    0.000    0.000    0.000 
#    0.000    0.000    0.000    0.000    0.000    0.000 
#
# Total GULP energy -139596.028638 kJ/mol
# GULP energy per Si atom -5583.841146 kJ/mol
# Density = 2.215374 g / cm^3
# Si number density = 22.204275 Si / 1000 Ang^3
#
#
#
# Elastic Constant Matrix: (Units=GPa)
#
#
# Indices 1 2 3 4 5 6 
#
# 1 80.6013 14.5448 33.5403 0.0000 0.0000 0.0000
# 2 14.5448 177.6590 39.0450 0.0000 0.0000 0.0000
# 3 33.5403 39.0450 125.4183 0.0000 0.0000 0.0000
# 4 0.0000 0.0000 0.0000 40.1510 0.0000 0.0000
# 5 0.0000 0.0000 0.0000 0.0000 -85.5531 0.0000
# 6 0.0000 0.0000 0.0000 0.0000 0.0000 27.8958
#
#
#
# Elastic Compliance Matrix: (Units=1/GPa)
#
#
# Indices 1 2 3 4 5 6 
#
# 1 0.013980 -0.000347 -0.003631 0.000000 0.000000 0.000000
# 2 -0.000347 0.006051 -0.001791 0.000000 0.000000 0.000000
# 3 -0.003631 -0.001791 0.009502 0.000000 0.000000 0.000000
# 4 0.000000 0.000000 0.000000 0.024906 0.000000 0.000000
# 5 0.000000 0.000000 0.000000 0.000000 -0.011689 0.000000
# 6 0.000000 0.000000 0.000000 0.000000 0.000000 0.035848
#
#
# Mechanical properties :
#
#
# Convention : Reuss Voigt Hill
#
# Bulk Modulus (GPa) = 55.56794 61.99322 58.78058
# Shear Modulus (GPa) = 52.01116 16.26865 34.13991
#
# Velocity S-wave (km/s) = 4.84508 2.70974 3.92540
# Velocity P-wave (km/s) = 7.50865 6.14576 6.86113
#
# Compressibility (1/GPa) = 0.01799599
#
# Stress axis : x y z
#
# Youngs Moduli (GPa) = 71.52996 165.26857 105.24251
#
# Poissons Ratio (x) = 0.05728 0.38211
# Poissons Ratio (y) = 0.02479 0.18849
# Poissons Ratio (z) = 0.25971 0.29600
#
# Static dielectric constant tensor:
#      x y z
#    x 1.853970 0.000000 0.000000 
#    y 0.000000 1.778140 0.000000 
#    z 0.000000 0.000000 1.801090 
# 
# From -- ./inp_files/33130.got.cif
#   From: 2010.05.17/outbox.cif.g08.bks.cpg/sg69_17_cif.got.tgz:33130.got - 2010.06.03 19:29:58.
