data_PCOD9511022
_publ_section_title
;
Structure prediction by ZEFSAII (Michael W. Deem and Ramdas Pophale) SiO2 
 PCOD9511022
Probable space group: F M M M
;
_chemical_formula_sum "Si O2"
_cell_formula_units_Z 108
_cell_length_a 19.035666
_cell_length_b 11.134602
_cell_length_c 25.151551
_cell_angle_alpha 90.000000
_cell_angle_beta 90.000000
_cell_angle_gamma 90.000000
_cell_volume 5330.986044
_symmetry_space_group_name_H-M "F M M M"
_symmetry_group_IT_number 69
_symmetry_cell_setting 'orthorhombic'
loop_
_space_group_symop_operation_xyz
x,y,z
-x,-y,z
x,-y,-z
-x,y,-z
-x,-y,-z
x,y,-z
-x,y,z
x,-y,z
x,1/2+y,1/2+z
-x,1/2-y,1/2+z
x,1/2-y,1/2-z
-x,1/2+y,1/2-z
-x,1/2-y,1/2-z
x,1/2+y,1/2-z
-x,1/2+y,1/2+z
x,1/2-y,1/2+z
1/2+x,y,1/2+z
1/2-x,-y,1/2+z
1/2+x,-y,1/2-z
1/2-x,y,1/2-z
1/2-x,-y,1/2-z
1/2+x,y,1/2-z
1/2-x,y,1/2+z
1/2+x,-y,1/2+z
1/2+x,1/2+y,z
1/2-x,1/2-y,z
1/2+x,1/2-y,-z
1/2-x,1/2+y,-z
1/2-x,1/2-y,-z
1/2+x,1/2+y,-z
1/2-x,1/2+y,z
1/2+x,1/2-y,z
loop_
_atom_site_type_symbol
_atom_site_label
_atom_site_fract_x
_atom_site_fract_y
_atom_site_fract_z
Si Si1 0.585375 0.131702 0.218684
Si Si2 0.371515 0.000000 0.413084
Si Si3 0.753189 0.000000 0.000000
Si Si4 0.883421 0.863824 0.500000
Si Si5 0.000000 0.500000 0.500000
Si Si6 0.582657 0.752405 0.387458
O O1 0.500000 0.129676 0.223499
O O2 0.609737 0.250000 0.250000
O O3 0.602528 0.155223 0.156742
O O4 0.610630 0.000000 0.235944
O O5 0.377523 0.877597 0.380416
O O6 0.302172 0.000000 0.448816
O O7 0.438020 0.000000 0.453664
O O8 0.700100 0.887277 0.000000
O O9 0.905590 0.794484 0.447203
O O10 0.913502 0.000000 0.500000
O O11 0.500000 0.776135 0.380393
#
# Coordination Sequence:
#
# PCOD9511022 Si02
#       6
#    32  16   8  16   4  32
#     4   9  19  34  54  82 120 154 191 237 295 357
#     4  11  21  34  56  80 116 142 196 239 290 350
#     4   9  24  39  51  78 115 162 202 228 287 348
#     4  10  22  37  51  78 113 156 189 233 281 346
#     4  10  16  32  48  80 112 144 174 236 292 334
#     4  11  21  33  57  86 117 151 190 240 298 347
#
# _framework density 20.258918000000001
#
# number of rings (size 3 to 8) (size 9 to 14) (size 15 to 20)
#    0.444    1.481    1.481    3.111    2.074    4.741 
#    0.000    0.000    0.000    0.000    0.000    6.222 
#    0.000    0.000    0.000    0.000    0.000    0.000 
#
# Total GULP energy -150392.634329 kJ/mol
# GULP energy per Si atom -5570.097568 kJ/mol
# Density = 2.021281 g / cm^3
# Si number density = 20.258918 Si / 1000 Ang^3
#
#
#
# Elastic Constant Matrix: (Units=GPa)
#
#
# Indices 1 2 3 4 5 6 
#
# 1 37.9660 -4.1608 -12.8014 0.0000 0.0000 0.0000
# 2 -4.1608 171.2935 41.3228 0.0000 0.0000 0.0000
# 3 -12.8014 41.3228 71.9177 0.0000 0.0000 0.0000
# 4 0.0000 0.0000 0.0000 16.7611 0.0000 0.0000
# 5 0.0000 0.0000 0.0000 0.0000 -1.3563 0.0000
# 6 0.0000 0.0000 0.0000 0.0000 0.0000 12.3936
#
#
#
# Elastic Compliance Matrix: (Units=1/GPa)
#
#
# Indices 1 2 3 4 5 6 
#
# 1 0.028076 -0.000608 0.005347 0.000000 0.000000 0.000000
# 2 -0.000608 0.006791 -0.004010 0.000000 0.000000 0.000000
# 3 0.005347 -0.004010 0.017161 0.000000 0.000000 0.000000
# 4 0.000000 0.000000 0.000000 0.059662 0.000000 0.000000
# 5 0.000000 0.000000 0.000000 0.000000 -0.737326 0.000000
# 6 0.000000 0.000000 0.000000 0.000000 0.000000 0.080687
#
#
# Mechanical properties :
#
#
# Convention : Reuss Voigt Hill
#
# Bulk Modulus (GPa) = 18.69701 36.65536 27.67618
# Shear Modulus (GPa) = -9.45930 22.68081 6.61076
#
# Velocity S-wave (km/s) = -2.16318 3.34959 1.80837
# Velocity P-wave (km/s) = 1.73492 5.75260 4.24867
#
# Compressibility (1/GPa) = 0.05348450
#
# Stress axis : x y z
#
# Youngs Moduli (GPa) = 35.61821 147.26409 58.27315
#
# Poissons Ratio (x) = 0.08952 -0.31157
# Poissons Ratio (y) = 0.02165 0.23367
# Poissons Ratio (z) = -0.19044 0.59052
#
# Static dielectric constant tensor:
#      x y z
#    x 1.676470 0.000000 0.000000 
#    y 0.000000 1.800490 0.000000 
#    z 0.000000 0.000000 1.727120 
# 
# From -- ./inp_files/36986.got.cif
#   From: 2010.05.17/outbox.cif.g08.bks.cpg/sg69_19_cif.got.tgz:36986.got - 2010.06.03 19:29:58.
