data_PCOD9511821
_publ_section_title
;
Structure prediction by ZEFSAII (Michael W. Deem and Ramdas Pophale) SiO2 
 PCOD9511821
Probable space group: F M M M
;
_chemical_formula_sum "Si O2"
_cell_formula_units_Z 144
_cell_length_a 19.608527
_cell_length_b 17.863529
_cell_length_c 21.016322
_cell_angle_alpha 90.000000
_cell_angle_beta 90.000000
_cell_angle_gamma 90.000000
_cell_volume 7361.544534
_symmetry_space_group_name_H-M "F M M M"
_symmetry_group_IT_number 69
_symmetry_cell_setting 'orthorhombic'
loop_
_space_group_symop_operation_xyz
x,y,z
-x,-y,z
x,-y,-z
-x,y,-z
-x,-y,-z
x,y,-z
-x,y,z
x,-y,z
x,1/2+y,1/2+z
-x,1/2-y,1/2+z
x,1/2-y,1/2-z
-x,1/2+y,1/2-z
-x,1/2-y,1/2-z
x,1/2+y,1/2-z
-x,1/2+y,1/2+z
x,1/2-y,1/2+z
1/2+x,y,1/2+z
1/2-x,-y,1/2+z
1/2+x,-y,1/2-z
1/2-x,y,1/2-z
1/2-x,-y,1/2-z
1/2+x,y,1/2-z
1/2-x,y,1/2+z
1/2+x,-y,1/2+z
1/2+x,1/2+y,z
1/2-x,1/2-y,z
1/2+x,1/2-y,-z
1/2-x,1/2+y,-z
1/2-x,1/2-y,-z
1/2+x,1/2+y,-z
1/2-x,1/2+y,z
1/2+x,1/2-y,z
loop_
_atom_site_type_symbol
_atom_site_label
_atom_site_fract_x
_atom_site_fract_y
_atom_site_fract_z
Si Si1 0.921118 0.584635 0.268199
Si Si2 0.709348 0.086099 0.811649
Si Si3 0.417273 0.415405 0.000000
Si Si4 0.081590 0.807333 0.115592
Si Si5 0.310323 0.310087 0.427604
O O1 0.914056 0.500000 0.296884
O O2 0.869253 0.588015 0.210307
O O3 0.905023 0.649879 0.318335
O O4 0.000000 0.592623 0.249457
O O5 0.750000 0.117321 0.750000
O O6 0.714970 0.128511 0.877602
O O7 0.731759 0.000000 0.818869
O O8 0.398297 0.367151 0.938708
O O9 0.390812 0.500000 0.000000
O O10 0.500000 0.419822 0.000000
O O11 0.124620 0.733267 0.102038
O O12 0.000000 0.793931 0.111357
O O13 0.324734 0.336034 0.500000
O O14 0.250000 0.250000 0.431271
#
# Coordination Sequence:
#
# PCOD9511821 Si02
#       5
#    32  32  16  32  32
#     4   9  18  33  55  85 117 146 187 242 288 332
#     4  10  22  41  63  83 108 148 195 237 284 347
#     4   9  16  28  49  78 113 153 189 222 270 330
#     4  10  19  33  55  83 116 154 192 232 283 342
#     4  11  24  40  58  82 118 150 184 236 291 343
#
# _framework density 19.561112000000001
#
# number of rings (size 3 to 8) (size 9 to 14) (size 15 to 20)
#    0.000    2.111    1.111    2.000    0.000    7.111 
#    0.000    3.333    0.000    0.000    0.000    4.667 
#    0.000    0.000    0.000    0.000    0.000    0.000 
#
# Total GULP energy -200907.376897 kJ/mol
# GULP energy per Si atom -5580.760469 kJ/mol
# Density = 1.951659 g / cm^3
# Si number density = 19.561112 Si / 1000 Ang^3
#
#
#
# Elastic Constant Matrix: (Units=GPa)
#
#
# Indices 1 2 3 4 5 6 
#
# 1 51.8223 15.7256 26.5819 0.0000 0.0000 0.0000
# 2 15.7256 61.2090 49.2765 0.0000 0.0000 0.0000
# 3 26.5819 49.2765 93.4335 0.0000 0.0000 0.0000
# 4 0.0000 0.0000 0.0000 6.6438 0.0000 0.0000
# 5 0.0000 0.0000 0.0000 0.0000 18.0503 0.0000
# 6 0.0000 0.0000 0.0000 0.0000 0.0000 24.1448
#
#
#
# Elastic Compliance Matrix: (Units=1/GPa)
#
#
# Indices 1 2 3 4 5 6 
#
# 1 0.022636 -0.001097 -0.005862 0.000000 0.000000 0.000000
# 2 -0.001097 0.028446 -0.014690 0.000000 0.000000 0.000000
# 3 -0.005862 -0.014690 0.020118 0.000000 0.000000 0.000000
# 4 0.000000 0.000000 0.000000 0.150516 0.000000 0.000000
# 5 0.000000 0.000000 0.000000 0.000000 0.055401 0.000000
# 6 0.000000 0.000000 0.000000 0.000000 0.000000 0.041417
#
#
# Mechanical properties :
#
#
# Convention : Reuss Voigt Hill
#
# Bulk Modulus (GPa) = 35.83860 43.29254 39.56557
# Shear Modulus (GPa) = 13.47234 17.42651 15.44943
#
# Velocity S-wave (km/s) = 2.62722 2.98799 2.81339
# Velocity P-wave (km/s) = 5.25016 5.83816 5.55195
#
# Compressibility (1/GPa) = 0.02790288
#
# Stress axis : x y z
#
# Youngs Moduli (GPa) = 44.17701 35.15492 49.70690
#
# Poissons Ratio (x) = 0.03855 0.29136
# Poissons Ratio (y) = 0.04845 0.73020
# Poissons Ratio (z) = 0.25895 0.51643
#
# Static dielectric constant tensor:
#      x y z
#    x 1.709650 0.000000 0.000000 
#    y 0.000000 1.698060 0.000000 
#    z 0.000000 0.000000 1.678530 
# 
# From -- ./inp_files/24436.got.cif
#   From: 2010.05.17/outbox.cif.g08.bks.cpg/sg69_13_cif.got.tgz:24436.got - 2010.06.03 19:29:58.
