data_PCOD9511873
_publ_section_title
;
Structure prediction by ZEFSAII (Michael W. Deem and Ramdas Pophale) SiO2 
 PCOD9511873
Probable space group: F M M M
;
_chemical_formula_sum "Si O2"
_cell_formula_units_Z 192
_cell_length_a 29.197868
_cell_length_b 26.405553
_cell_length_c 14.826922
_cell_angle_alpha 90.000000
_cell_angle_beta 90.000000
_cell_angle_gamma 90.000000
_cell_volume 11431.347075
_symmetry_space_group_name_H-M "F M M M"
_symmetry_group_IT_number 69
_symmetry_cell_setting 'orthorhombic'
loop_
_space_group_symop_operation_xyz
x,y,z
-x,-y,z
x,-y,-z
-x,y,-z
-x,-y,-z
x,y,-z
-x,y,z
x,-y,z
x,1/2+y,1/2+z
-x,1/2-y,1/2+z
x,1/2-y,1/2-z
-x,1/2+y,1/2-z
-x,1/2-y,1/2-z
x,1/2+y,1/2-z
-x,1/2+y,1/2+z
x,1/2-y,1/2+z
1/2+x,y,1/2+z
1/2-x,-y,1/2+z
1/2+x,-y,1/2-z
1/2-x,y,1/2-z
1/2-x,-y,1/2-z
1/2+x,y,1/2-z
1/2-x,y,1/2+z
1/2+x,-y,1/2+z
1/2+x,1/2+y,z
1/2-x,1/2-y,z
1/2+x,1/2-y,-z
1/2-x,1/2+y,-z
1/2-x,1/2-y,-z
1/2+x,1/2+y,-z
1/2-x,1/2+y,z
1/2+x,1/2-y,z
loop_
_atom_site_type_symbol
_atom_site_label
_atom_site_fract_x
_atom_site_fract_y
_atom_site_fract_z
Si Si1 0.500000 0.885744 0.391153
Si Si2 0.601208 0.235872 0.599669
Si Si3 0.906917 0.558300 0.391279
Si Si4 0.647138 0.146815 0.692207
Si Si5 0.340327 0.838691 0.899826
Si Si6 0.242710 0.307236 0.642524
Si Si7 0.500000 0.733220 0.852235
O O1 0.500000 0.883640 0.500000
O O2 0.544993 0.916349 0.363005
O O3 0.500000 0.827786 0.360188
O O4 0.607536 0.212662 0.500000
O O5 0.611786 0.192737 0.672523
O O6 0.636217 0.282747 0.607238
O O7 0.548166 0.251899 0.606757
O O8 0.905430 0.559175 0.500000
O O9 0.903663 0.500000 0.362356
O O10 0.868470 0.594930 0.352399
O O11 0.649637 0.138756 0.800372
O O12 0.692870 0.167552 0.641150
O O13 0.285158 0.836718 0.899372
O O14 0.354906 0.858313 0.000000
O O15 0.250000 0.304505 0.750000
O O16 0.250000 0.250000 0.608122
O O17 0.500000 0.750000 0.750000
#
# Coordination Sequence:
#
# PCOD9511873 Si02
#       7
#    16  32  32  32  32  32  16
#     4  10  19  34  54  77 108 145 178 213 267 323
#     4  11  21  32  48  73 105 145 182 215 256 314
#     4  10  21  36  56  81 105 133 177 230 278 323
#     4  11  19  33  54  76 107 139 173 220 274 316
#     4  10  21  33  48  73 108 144 180 213 250 314
#     4   9  17  30  49  73 104 139 173 211 257 311
#     4  12  22  31  47  74 113 151 177 203 251 322
#
# _framework density 16.795921
#
# number of rings (size 3 to 8) (size 9 to 14) (size 15 to 20)
#    0.000    1.667    3.333    3.000    0.000    2.667 
#    0.000    0.000    0.000    5.000    0.000    0.000 
#    0.000    1.333    0.000    0.000    0.000    0.000 
#
# Total GULP energy -267285.750395 kJ/mol
# GULP energy per Si atom -5568.453133 kJ/mol
# Density = 1.675769 g / cm^3
# Si number density = 16.795921 Si / 1000 Ang^3
#
#
#
# Elastic Constant Matrix: (Units=GPa)
#
#
# Indices 1 2 3 4 5 6 
#
# 1 101.9652 37.5574 18.7877 0.0000 0.0000 0.0000
# 2 37.5574 70.2939 10.6421 0.0000 0.0000 0.0000
# 3 18.7877 10.6421 72.2272 0.0000 0.0000 0.0000
# 4 0.0000 0.0000 0.0000 18.5830 0.0000 0.0000
# 5 0.0000 0.0000 0.0000 0.0000 20.4215 0.0000
# 6 0.0000 0.0000 0.0000 0.0000 0.0000 11.1366
#
#
#
# Elastic Compliance Matrix: (Units=1/GPa)
#
#
# Indices 1 2 3 4 5 6 
#
# 1 0.012584 -0.006370 -0.002335 0.000000 0.000000 0.000000
# 2 -0.006370 0.017775 -0.000962 0.000000 0.000000 0.000000
# 3 -0.002335 -0.000962 0.014594 0.000000 0.000000 0.000000
# 4 0.000000 0.000000 0.000000 0.053813 0.000000 0.000000
# 5 0.000000 0.000000 0.000000 0.000000 0.048968 0.000000
# 6 0.000000 0.000000 0.000000 0.000000 0.000000 0.089794
#
#
# Mechanical properties :
#
#
# Convention : Reuss Voigt Hill
#
# Bulk Modulus (GPa) = 39.03259 42.05118 40.54188
# Shear Modulus (GPa) = 18.83943 21.86151 20.35047
#
# Velocity S-wave (km/s) = 3.35276 3.61168 3.48463
# Velocity P-wave (km/s) = 6.18691 6.51791 6.35457
#
# Compressibility (1/GPa) = 0.02561962
#
# Stress axis : x y z
#
# Youngs Moduli (GPa) = 79.46788 56.25880 68.52016
#
# Poissons Ratio (x) = 0.35836 0.15997
# Poissons Ratio (y) = 0.50620 0.06592
# Poissons Ratio (z) = 0.18553 0.05412
#
# Static dielectric constant tensor:
#      x y z
#    x 1.625210 0.000000 0.000000 
#    y 0.000000 1.527220 0.000000 
#    z 0.000000 0.000000 1.646020 
# 
# From -- ./inp_files/19839.got.cif
#   From: 2010.05.17/outbox.cif.g08.bks.cpg/sg69_10_cif.got.tgz:19839.got - 2010.06.03 19:29:58.
