data_PCOD9511864
_publ_section_title
;
Structure prediction by ZEFSAII (Michael W. Deem and Ramdas Pophale) SiO2 
 PCOD9511864
Probable space group: F M M M
;
_chemical_formula_sum "Si O2"
_cell_formula_units_Z 88
_cell_length_a 13.887346
_cell_length_b 17.802526
_cell_length_c 20.238273
_cell_angle_alpha 90.000000
_cell_angle_beta 90.000000
_cell_angle_gamma 90.000000
_cell_volume 5003.504960
_symmetry_space_group_name_H-M "F M M M"
_symmetry_group_IT_number 69
_symmetry_cell_setting 'orthorhombic'
loop_
_space_group_symop_operation_xyz
x,y,z
-x,-y,z
x,-y,-z
-x,y,-z
-x,-y,-z
x,y,-z
-x,y,z
x,-y,z
x,1/2+y,1/2+z
-x,1/2-y,1/2+z
x,1/2-y,1/2-z
-x,1/2+y,1/2-z
-x,1/2-y,1/2-z
x,1/2+y,1/2-z
-x,1/2+y,1/2+z
x,1/2-y,1/2+z
1/2+x,y,1/2+z
1/2-x,-y,1/2+z
1/2+x,-y,1/2-z
1/2-x,y,1/2-z
1/2-x,-y,1/2-z
1/2+x,y,1/2-z
1/2-x,y,1/2+z
1/2+x,-y,1/2+z
1/2+x,1/2+y,z
1/2-x,1/2-y,z
1/2+x,1/2-y,-z
1/2-x,1/2+y,-z
1/2-x,1/2-y,-z
1/2+x,1/2+y,-z
1/2-x,1/2+y,z
1/2+x,1/2-y,z
loop_
_atom_site_type_symbol
_atom_site_label
_atom_site_fract_x
_atom_site_fract_y
_atom_site_fract_z
Si Si1 0.391445 0.302197 0.423044
Si Si2 0.384859 0.000000 0.422477
Si Si3 0.807998 0.345432 0.368684
Si Si4 0.250000 0.250000 0.250000
O O1 0.388252 0.322271 0.500000
O O2 0.500000 0.314342 0.398299
O O3 0.305675 0.344680 0.386032
O O4 0.362625 0.214580 0.415348
O O5 0.349327 0.926466 0.383553
O O6 0.500000 0.000000 0.423878
O O7 0.351680 0.000000 0.500000
O O8 0.811969 0.305144 0.297084
#
# Coordination Sequence:
#
# PCOD9511864 Si02
#       4
#    32  16  32   8
#     4   9  16  29  51  76 101 135 178 217 255 300
#     4  11  22  35  55  83 109 132 163 213 276 322
#     4  10  19  34  52  75 106 137 172 215 256 302
#     4   8  20  38  56  72 100 144 184 214 238 294
#
# _framework density 17.587671
#
# number of rings (size 3 to 8) (size 9 to 14) (size 15 to 20)
#    0.000    2.727    0.000    5.455    0.000    3.636 
#    0.000   23.636    0.000    3.273    0.000    0.000 
#    0.000    0.000    0.000    0.000    0.000    0.000 
#
# Total GULP energy -122482.842558 kJ/mol
# GULP energy per Si atom -5567.401934 kJ/mol
# Density = 1.754764 g / cm^3
# Si number density = 17.587671 Si / 1000 Ang^3
#
#
#
# Elastic Constant Matrix: (Units=GPa)
#
#
# Indices 1 2 3 4 5 6 
#
# 1 121.4383 32.6315 25.2661 0.0000 0.0000 0.0000
# 2 32.6315 122.3910 41.5740 0.0000 0.0000 0.0000
# 3 25.2661 41.5740 88.7787 0.0000 0.0000 0.0000
# 4 0.0000 0.0000 0.0000 1073.1176 0.0000 0.0000
# 5 0.0000 0.0000 0.0000 0.0000 -1.6972 0.0000
# 6 0.0000 0.0000 0.0000 0.0000 0.0000 8.0333
#
#
#
# Elastic Compliance Matrix: (Units=1/GPa)
#
#
# Indices 1 2 3 4 5 6 
#
# 1 0.009087 -0.001836 -0.001726 0.000000 0.000000 0.000000
# 2 -0.001836 0.010087 -0.004201 0.000000 0.000000 0.000000
# 3 -0.001726 -0.004201 0.013723 0.000000 0.000000 0.000000
# 4 0.000000 0.000000 0.000000 0.000932 0.000000 0.000000
# 5 0.000000 0.000000 0.000000 0.000000 -0.589194 0.000000
# 6 0.000000 0.000000 0.000000 0.000000 0.000000 0.124483
#
#
# Mechanical properties :
#
#
# Convention : Reuss Voigt Hill
#
# Bulk Modulus (GPa) = 57.57207 59.06124 58.31666
# Shear Modulus (GPa) = -12.20805 231.43315 109.61255
#
# Velocity S-wave (km/s) = -2.63748 11.48364 7.90309
# Velocity P-wave (km/s) = 4.85080 14.47363 10.79389
#
# Compressibility (1/GPa) = 0.01736953
#
# Stress axis : x y z
#
# Youngs Moduli (GPa) = 110.04428 99.13566 72.87283
#
# Poissons Ratio (x) = 0.18206 0.12579
# Poissons Ratio (y) = 0.20209 0.30614
# Poissons Ratio (z) = 0.18996 0.41647
#
# Static dielectric constant tensor:
#      x y z
#    x 1.615190 0.000000 0.000000 
#    y 0.000000 1.582630 0.000000 
#    z 0.000000 0.000000 1.642050 
# 
# From -- ./inp_files/21343.got.cif
#   From: 2010.05.17/outbox.cif.g08.bks.cpg/sg69_11_cif.got.tgz:21343.got - 2010.06.03 19:29:58.
