data_PCOD9511675
_publ_section_title
;
Structure prediction by ZEFSAII (Michael W. Deem and Ramdas Pophale) SiO2 
 PCOD9511675
Probable space group: F M M M
;
_chemical_formula_sum "Si O2"
_cell_formula_units_Z 192
_cell_length_a 19.029506
_cell_length_b 21.789227
_cell_length_c 26.065954
_cell_angle_alpha 90.000000
_cell_angle_beta 90.000000
_cell_angle_gamma 90.000000
_cell_volume 10807.940924
_symmetry_space_group_name_H-M "F M M M"
_symmetry_group_IT_number 69
_symmetry_cell_setting 'orthorhombic'
loop_
_space_group_symop_operation_xyz
x,y,z
-x,-y,z
x,-y,-z
-x,y,-z
-x,-y,-z
x,y,-z
-x,y,z
x,-y,z
x,1/2+y,1/2+z
-x,1/2-y,1/2+z
x,1/2-y,1/2-z
-x,1/2+y,1/2-z
-x,1/2-y,1/2-z
x,1/2+y,1/2-z
-x,1/2+y,1/2+z
x,1/2-y,1/2+z
1/2+x,y,1/2+z
1/2-x,-y,1/2+z
1/2+x,-y,1/2-z
1/2-x,y,1/2-z
1/2-x,-y,1/2-z
1/2+x,y,1/2-z
1/2-x,y,1/2+z
1/2+x,-y,1/2+z
1/2+x,1/2+y,z
1/2-x,1/2-y,z
1/2+x,1/2-y,-z
1/2-x,1/2+y,-z
1/2-x,1/2-y,-z
1/2+x,1/2+y,-z
1/2-x,1/2+y,z
1/2+x,1/2-y,z
loop_
_atom_site_type_symbol
_atom_site_label
_atom_site_fract_x
_atom_site_fract_y
_atom_site_fract_z
Si Si1 0.081684 0.500000 0.086637
Si Si2 0.084673 0.631491 0.751367
Si Si3 0.837940 0.308580 0.844559
Si Si4 0.084959 0.500000 0.798098
Si Si5 0.675386 0.835989 0.347822
Si Si6 0.185903 0.427093 0.559080
Si Si7 0.153349 0.882051 0.445394
O O1 0.114664 0.500000 0.144024
O O2 0.103168 0.560225 0.057184
O O3 0.000000 0.500000 0.094396
O O4 0.113091 0.675862 0.796368
O O5 0.103765 0.562595 0.769653
O O6 0.126581 0.645056 0.699503
O O7 0.000000 0.636531 0.745852
O O8 0.759167 0.335588 0.834470
O O9 0.836664 0.236419 0.856457
O O10 0.862276 0.341423 0.896322
O O11 0.000000 0.500000 0.800243
O O12 0.659752 0.880515 0.396467
O O13 0.160275 0.416480 0.500000
O O14 0.175968 0.500000 0.570525
O O15 0.268786 0.411078 0.558103
O O16 0.148141 0.848843 0.500000
#
# Coordination Sequence:
#
# PCOD9511675 Si02
#       7
#    16  32  32  16  32  32  32
#     4  11  19  32  50  74 113 150 181 220 270 321
#     4  11  22  38  58  80 109 144 182 222 271 325
#     4  10  21  38  53  79 116 145 178 224 269 312
#     4   9  20  35  52  76 107 140 175 224 269 313
#     4  10  22  36  57  82 109 144 181 222 270 326
#     4   9  18  34  56  81 108 136 176 231 277 315
#     4  10  19  32  52  77 107 146 185 217 259 320
#
# _framework density 17.764716
#
# number of rings (size 3 to 8) (size 9 to 14) (size 15 to 20)
#    0.000    2.000    2.500    1.250    1.167    4.000 
#    0.000    4.167    0.000    0.500    0.000    3.500 
#    0.000    0.000    0.000    0.000    0.000    0.000 
#
# Total GULP energy -267457.839611 kJ/mol
# GULP energy per Si atom -5572.038325 kJ/mol
# Density = 1.772428 g / cm^3
# Si number density = 17.764716 Si / 1000 Ang^3
#
#
#
# Elastic Constant Matrix: (Units=GPa)
#
#
# Indices 1 2 3 4 5 6 
#
# 1 39.3521 23.8908 52.5857 0.0000 0.0000 0.0000
# 2 23.8908 88.8009 74.5168 0.0000 0.0000 0.0000
# 3 52.5857 74.5168 165.5994 0.0000 0.0000 0.0000
# 4 0.0000 0.0000 0.0000 108.3429 0.0000 0.0000
# 5 0.0000 0.0000 0.0000 0.0000 10.1771 0.0000
# 6 0.0000 0.0000 0.0000 0.0000 0.0000 21.7339
#
#
#
# Elastic Compliance Matrix: (Units=1/GPa)
#
#
# Indices 1 2 3 4 5 6 
#
# 1 0.044145 -0.000182 -0.013936 0.000000 0.000000 0.000000
# 2 -0.000182 0.018094 -0.008084 0.000000 0.000000 0.000000
# 3 -0.013936 -0.008084 0.014102 0.000000 0.000000 0.000000
# 4 0.000000 0.000000 0.000000 0.009230 0.000000 0.000000
# 5 0.000000 0.000000 0.000000 0.000000 0.098259 0.000000
# 6 0.000000 0.000000 0.000000 0.000000 0.000000 0.046011
#
#
# Mechanical properties :
#
#
# Convention : Reuss Voigt Hill
#
# Bulk Modulus (GPa) = 31.31295 66.19324 48.75310
# Shear Modulus (GPa) = 17.55057 37.56806 27.55932
#
# Velocity S-wave (km/s) = 3.14657 4.60364 3.94299
# Velocity P-wave (km/s) = 5.55571 8.09938 6.94499
#
# Compressibility (1/GPa) = 0.03193567
#
# Stress axis : x y z
#
# Youngs Moduli (GPa) = 22.65267 55.26742 70.91338
#
# Poissons Ratio (x) = 0.01007 0.98826
# Poissons Ratio (y) = 0.00413 0.57327
# Poissons Ratio (z) = 0.31569 0.44678
#
# Static dielectric constant tensor:
#      x y z
#    x 1.597680 0.000000 0.000000 
#    y 0.000000 1.608450 0.000000 
#    z 0.000000 0.000000 1.645820 
# 
# From -- ./inp_files/37381.got.cif
#   From: 2010.05.17/outbox.cif.g08.bks.cpg/sg69_19_cif.got.tgz:37381.got - 2010.06.03 19:29:58.
