data_PCOD9511700
_publ_section_title
;
Structure prediction by ZEFSAII (Michael W. Deem and Ramdas Pophale) SiO2 
 PCOD9511700
Probable space group: F M M M
;
_chemical_formula_sum "Si O2"
_cell_formula_units_Z 160
_cell_length_a 23.995537
_cell_length_b 11.405632
_cell_length_c 31.441489
_cell_angle_alpha 90.000000
_cell_angle_beta 90.000000
_cell_angle_gamma 90.000000
_cell_volume 8605.040797
_symmetry_space_group_name_H-M "F M M M"
_symmetry_group_IT_number 69
_symmetry_cell_setting 'orthorhombic'
loop_
_space_group_symop_operation_xyz
x,y,z
-x,-y,z
x,-y,-z
-x,y,-z
-x,-y,-z
x,y,-z
-x,y,z
x,-y,z
x,1/2+y,1/2+z
-x,1/2-y,1/2+z
x,1/2-y,1/2-z
-x,1/2+y,1/2-z
-x,1/2-y,1/2-z
x,1/2+y,1/2-z
-x,1/2+y,1/2+z
x,1/2-y,1/2+z
1/2+x,y,1/2+z
1/2-x,-y,1/2+z
1/2+x,-y,1/2-z
1/2-x,y,1/2-z
1/2-x,-y,1/2-z
1/2+x,y,1/2-z
1/2-x,y,1/2+z
1/2+x,-y,1/2+z
1/2+x,1/2+y,z
1/2-x,1/2-y,z
1/2+x,1/2-y,-z
1/2-x,1/2+y,-z
1/2-x,1/2-y,-z
1/2+x,1/2+y,-z
1/2-x,1/2+y,z
1/2+x,1/2-y,z
loop_
_atom_site_type_symbol
_atom_site_label
_atom_site_fract_x
_atom_site_fract_y
_atom_site_fract_z
Si Si1 0.560063 0.190028 0.703825
Si Si2 0.604340 0.364757 0.362680
Si Si3 0.065389 0.358086 0.953171
Si Si4 0.765717 0.870677 0.356302
Si Si5 0.818445 0.128017 0.776605
O O1 0.500000 0.130331 0.698065
O O2 0.558641 0.250000 0.750000
O O3 0.566910 0.288372 0.668010
O O4 0.619346 0.125744 0.703894
O O5 0.586156 0.500000 0.361275
O O6 0.599009 0.321754 0.411368
O O7 0.668379 0.361039 0.347472
O O8 0.068513 0.500000 0.954511
O O9 0.000000 0.328317 0.947587
O O10 0.083454 0.315356 0.000000
O O11 0.750000 0.750000 0.380159
O O12 0.727139 0.869494 0.314153
O O13 0.757353 0.000000 0.376480
O O14 0.814022 0.250000 0.750000
O O15 0.812422 0.000000 0.753765
#
# Coordination Sequence:
#
# PCOD9511700 Si02
#       5
#    32  32  32  32  32
#     4  10  21  34  49  71 103 140 179 222 268 320
#     4  10  19  32  53  78 108 146 185 224 276 333
#     4   8  14  26  47  78 113 144 178 225 277 327
#     4  10  20  35  53  76 103 138 179 225 271 320
#     4  10  22  38  55  75 101 137 186 238 283 325
#
# _framework density 18.593753
#
# number of rings (size 3 to 8) (size 9 to 14) (size 15 to 20)
#    0.000    2.400    2.000    1.200    0.000    6.800 
#    0.000    6.000    0.000    0.600    0.000    0.000 
#    0.000    0.800    0.000   11.000    0.000    4.000 
#
# Total GULP energy -222701.003546 kJ/mol
# GULP energy per Si atom -5567.525089 kJ/mol
# Density = 1.855143 g / cm^3
# Si number density = 18.593753 Si / 1000 Ang^3
#
#
#
# Elastic Constant Matrix: (Units=GPa)
#
#
# Indices 1 2 3 4 5 6 
#
# 1 134.1113 17.4191 48.2576 0.0000 0.0000 0.0000
# 2 17.4191 116.4101 28.8464 0.0000 0.0000 0.0000
# 3 48.2576 28.8464 107.3030 0.0000 0.0000 0.0000
# 4 0.0000 0.0000 0.0000 14.0089 0.0000 0.0000
# 5 0.0000 0.0000 0.0000 0.0000 15.9002 0.0000
# 6 0.0000 0.0000 0.0000 0.0000 0.0000 7.1364
#
#
#
# Elastic Compliance Matrix: (Units=1/GPa)
#
#
# Indices 1 2 3 4 5 6 
#
# 1 0.008911 -0.000365 -0.003909 0.000000 0.000000 0.000000
# 2 -0.000365 0.009218 -0.002314 0.000000 0.000000 0.000000
# 3 -0.003909 -0.002314 0.011700 0.000000 0.000000 0.000000
# 4 0.000000 0.000000 0.000000 0.071383 0.000000 0.000000
# 5 0.000000 0.000000 0.000000 0.000000 0.062892 0.000000
# 6 0.000000 0.000000 0.000000 0.000000 0.000000 0.140126
#
#
# Mechanical properties :
#
#
# Convention : Reuss Voigt Hill
#
# Bulk Modulus (GPa) = 60.05185 60.76342 60.40763
# Shear Modulus (GPa) = 15.48192 24.96252 20.22222
#
# Velocity S-wave (km/s) = 2.88868 3.66802 3.30143
# Velocity P-wave (km/s) = 6.59491 7.11966 6.86230
#
# Compressibility (1/GPa) = 0.01665228
#
# Stress axis : x y z
#
# Youngs Moduli (GPa) = 112.22635 108.47944 85.47231
#
# Poissons Ratio (x) = 0.03955 0.33414
# Poissons Ratio (y) = 0.04092 0.19780
# Poissons Ratio (z) = 0.43873 0.25104
#
# Static dielectric constant tensor:
#      x y z
#    x 1.678800 0.000000 0.000000 
#    y 0.000000 1.505420 0.000000 
#    z 0.000000 0.000000 1.687800 
# 
# From -- ./inp_files/46944.got.cif
#   From: 2010.05.17/outbox.cif.g08.bks.cpg/sg69_24_cif.got.tgz:46944.got - 2010.06.03 19:29:58.
