data_PCOD9511715
_publ_section_title
;
Structure prediction by ZEFSAII (Michael W. Deem and Ramdas Pophale) SiO2 
 PCOD9511715
Probable space group: F M M M
;
_chemical_formula_sum "Si O2"
_cell_formula_units_Z 184
_cell_length_a 17.957731
_cell_length_b 24.186407
_cell_length_c 21.941527
_cell_angle_alpha 90.000000
_cell_angle_beta 90.000000
_cell_angle_gamma 90.000000
_cell_volume 9529.929044
_symmetry_space_group_name_H-M "F M M M"
_symmetry_group_IT_number 69
_symmetry_cell_setting 'orthorhombic'
loop_
_space_group_symop_operation_xyz
x,y,z
-x,-y,z
x,-y,-z
-x,y,-z
-x,-y,-z
x,y,-z
-x,y,z
x,-y,z
x,1/2+y,1/2+z
-x,1/2-y,1/2+z
x,1/2-y,1/2-z
-x,1/2+y,1/2-z
-x,1/2-y,1/2-z
x,1/2+y,1/2-z
-x,1/2+y,1/2+z
x,1/2-y,1/2+z
1/2+x,y,1/2+z
1/2-x,-y,1/2+z
1/2+x,-y,1/2-z
1/2-x,y,1/2-z
1/2-x,-y,1/2-z
1/2+x,y,1/2-z
1/2-x,y,1/2+z
1/2+x,-y,1/2+z
1/2+x,1/2+y,z
1/2-x,1/2-y,z
1/2+x,1/2-y,-z
1/2-x,1/2+y,-z
1/2-x,1/2-y,-z
1/2+x,1/2+y,-z
1/2-x,1/2+y,z
1/2+x,1/2-y,z
loop_
_atom_site_type_symbol
_atom_site_label
_atom_site_fract_x
_atom_site_fract_y
_atom_site_fract_z
Si Si1 0.084070 0.758144 0.567927
Si Si2 0.583540 0.063440 0.425882
Si Si3 0.590304 0.564686 0.363265
Si Si4 0.663817 0.830267 0.840086
Si Si5 0.802452 0.343970 0.429047
Si Si6 0.250000 0.250000 0.750000
Si Si7 0.084047 0.566971 0.000000
O O1 0.093132 0.783523 0.500000
O O2 0.098607 0.800550 0.621786
O O3 0.144420 0.709668 0.573155
O O4 0.000000 0.735796 0.570811
O O5 0.582922 0.065258 0.500000
O O6 0.500000 0.079395 0.405956
O O7 0.647582 0.104888 0.406660
O O8 0.596950 0.000000 0.408079
O O9 0.500000 0.569799 0.360757
O O10 0.607404 0.500000 0.351628
O O11 0.632263 0.609589 0.322106
O O12 0.615680 0.579097 0.433193
O O13 0.731927 0.836041 0.887149
O O14 0.696269 0.790162 0.788715
O O15 0.781547 0.352334 0.500000
O O16 0.078799 0.500000 0.000000
O O17 0.000000 0.589837 0.000000
#
# Coordination Sequence:
#
# PCOD9511715 Si02
#       7
#    32  32  32  32  32   8  16
#     4  10  20  35  58  88 116 146 188 239 303 369
#     4   8  14  26  46  75 114 155 186 217 270 346
#     4   9  19  36  60  92 124 154 190 235 294 362
#     4  12  23  40  60  80 117 160 198 247 295 348
#     4  10  19  32  53  83 117 150 188 239 299 362
#     4  12  28  48  58  76 116 160 218 264 296 340
#     4   7  12  26  50  85 128 156 171 208 276 359
#
# _framework density 19.307593000000001
#
# number of rings (size 3 to 8) (size 9 to 14) (size 15 to 20)
#    0.000    2.348    1.739    3.130    2.435    4.174 
#    0.000    2.174    0.000    0.000    0.000    2.435 
#    0.000    0.000    0.000    0.000    0.000    0.000 
#
# Total GULP energy -256532.164140 kJ/mol
# GULP energy per Si atom -5576.786177 kJ/mol
# Density = 1.926365 g / cm^3
# Si number density = 19.307593 Si / 1000 Ang^3
#
#
#
# Elastic Constant Matrix: (Units=GPa)
#
#
# Indices 1 2 3 4 5 6 
#
# 1 73.0864 41.0471 25.9668 0.0000 0.0000 0.0000
# 2 41.0471 102.5729 41.4961 0.0000 0.0000 0.0000
# 3 25.9668 41.4961 38.1928 0.0000 0.0000 0.0000
# 4 0.0000 0.0000 0.0000 3.8069 0.0000 0.0000
# 5 0.0000 0.0000 0.0000 0.0000 -0.4822 0.0000
# 6 0.0000 0.0000 0.0000 0.0000 0.0000 46.0986
#
#
#
# Elastic Compliance Matrix: (Units=1/GPa)
#
#
# Indices 1 2 3 4 5 6 
#
# 1 0.019023 -0.004247 -0.008319 0.000000 0.000000 0.000000
# 2 -0.004247 0.018343 -0.017042 0.000000 0.000000 0.000000
# 3 -0.008319 -0.017042 0.050355 0.000000 0.000000 0.000000
# 4 0.000000 0.000000 0.000000 0.262679 0.000000 0.000000
# 5 0.000000 0.000000 0.000000 0.000000 -2.073934 0.000000
# 6 0.000000 0.000000 0.000000 0.000000 0.000000 0.021693
#
#
# Mechanical properties :
#
#
# Convention : Reuss Voigt Hill
#
# Bulk Modulus (GPa) = 35.08189 47.87467 41.47828
# Shear Modulus (GPa) = -3.06162 16.90748 6.92293
#
# Velocity S-wave (km/s) = -1.26062 2.96242 1.89562
# Velocity P-wave (km/s) = 4.01131 6.04573 5.13037
#
# Compressibility (1/GPa) = 0.02850474
#
# Stress axis : x y z
#
# Youngs Moduli (GPa) = 52.56661 54.51618 19.85885
#
# Poissons Ratio (x) = 0.23153 0.16521
# Poissons Ratio (y) = 0.22325 0.33844
# Poissons Ratio (z) = 0.43732 0.92907
#
# Static dielectric constant tensor:
#      x y z
#    x 1.675230 0.000000 0.000000 
#    y 0.000000 1.719890 0.000000 
#    z 0.000000 0.000000 1.686050 
# 
# From -- ./inp_files/36737.got.cif
#   From: 2010.05.17/outbox.cif.g08.bks.cpg/sg69_19_cif.got.tgz:36737.got - 2010.06.03 19:29:58.
