data_PCOD9511948
_publ_section_title
;
Structure prediction by ZEFSAII (Michael W. Deem and Ramdas Pophale) SiO2 
 PCOD9511948
Probable space group: F M M M
;
_chemical_formula_sum "Si O2"
_cell_formula_units_Z 136
_cell_length_a 25.047641
_cell_length_b 15.106975
_cell_length_c 16.364714
_cell_angle_alpha 90.000000
_cell_angle_beta 90.000000
_cell_angle_gamma 90.000000
_cell_volume 6192.311003
_symmetry_space_group_name_H-M "F M M M"
_symmetry_group_IT_number 69
_symmetry_cell_setting 'orthorhombic'
loop_
_space_group_symop_operation_xyz
x,y,z
-x,-y,z
x,-y,-z
-x,y,-z
-x,-y,-z
x,y,-z
-x,y,z
x,-y,z
x,1/2+y,1/2+z
-x,1/2-y,1/2+z
x,1/2-y,1/2-z
-x,1/2+y,1/2-z
-x,1/2-y,1/2-z
x,1/2+y,1/2-z
-x,1/2+y,1/2+z
x,1/2-y,1/2+z
1/2+x,y,1/2+z
1/2-x,-y,1/2+z
1/2+x,-y,1/2-z
1/2-x,y,1/2-z
1/2-x,-y,1/2-z
1/2+x,y,1/2-z
1/2-x,y,1/2+z
1/2+x,-y,1/2+z
1/2+x,1/2+y,z
1/2-x,1/2-y,z
1/2+x,1/2-y,-z
1/2-x,1/2+y,-z
1/2-x,1/2-y,-z
1/2+x,1/2+y,-z
1/2-x,1/2+y,z
1/2+x,1/2-y,z
loop_
_atom_site_type_symbol
_atom_site_label
_atom_site_fract_x
_atom_site_fract_y
_atom_site_fract_z
Si Si1 0.000000 0.322734 0.676180
Si Si2 0.682266 0.399209 0.354556
Si Si3 0.294480 0.894107 0.595319
Si Si4 0.893515 0.108002 0.500000
Si Si5 0.500000 0.776508 0.000000
Si Si6 0.116848 0.844576 0.794762
O O1 0.000000 0.250000 0.750000
O O2 0.056164 0.373174 0.688393
O O3 0.000000 0.279034 0.585342
O O4 0.691858 0.500000 0.381620
O O5 0.741836 0.361273 0.356311
O O6 0.641047 0.364547 0.421415
O O7 0.652502 0.399453 0.268772
O O8 0.283424 0.880362 0.500000
O O9 0.347598 0.844984 0.624340
O O10 0.303446 0.000000 0.607940
O O11 0.948566 0.160096 0.500000
O O12 0.901835 0.000000 0.500000
O O13 0.114674 0.750000 0.750000
#
# Coordination Sequence:
#
# PCOD9511948 Si02
#       6
#    16  32  32  16   8  32
#     4  10  24  43  60  82 122 165 210 247 304 371
#     4  10  20  38  62  89 123 159 197 249 310 364
#     4  10  21  40  64  91 126 163 201 250 311 373
#     4  10  19  34  59  90 115 149 205 254 296 360
#     4  12  23  40  62  80 123 170 194 252 320 360
#     4  11  23  40  60  88 122 164 208 253 301 366
#
# _framework density 21.962720999999998
#
# number of rings (size 3 to 8) (size 9 to 14) (size 15 to 20)
#    0.000    1.647    1.176    4.412    1.647    3.765 
#    2.118    4.706    0.000    1.412    0.000    0.000 
#    0.000    0.000    0.000    0.000    0.000    0.000 
#
# Total GULP energy -189808.866119 kJ/mol
# GULP energy per Si atom -5582.613709 kJ/mol
# Density = 2.191273 g / cm^3
# Si number density = 21.962721 Si / 1000 Ang^3
#
#
#
# Elastic Constant Matrix: (Units=GPa)
#
#
# Indices 1 2 3 4 5 6 
#
# 1 214.4143 22.1306 39.0432 0.0000 0.0000 0.0000
# 2 22.1306 44.3106 8.3307 0.0000 0.0000 0.0000
# 3 39.0432 8.3307 107.4538 0.0000 0.0000 0.0000
# 4 0.0000 0.0000 0.0000 28.6937 0.0000 0.0000
# 5 0.0000 0.0000 0.0000 0.0000 37.5145 0.0000
# 6 0.0000 0.0000 0.0000 0.0000 0.0000 24.6381
#
#
#
# Elastic Compliance Matrix: (Units=1/GPa)
#
#
# Indices 1 2 3 4 5 6 
#
# 1 0.005212 -0.002280 -0.001717 0.000000 0.000000 0.000000
# 2 -0.002280 0.023899 -0.001024 0.000000 0.000000 0.000000
# 3 -0.001717 -0.001024 0.010010 0.000000 0.000000 0.000000
# 4 0.000000 0.000000 0.000000 0.034851 0.000000 0.000000
# 5 0.000000 0.000000 0.000000 0.000000 0.026656 0.000000
# 6 0.000000 0.000000 0.000000 0.000000 0.000000 0.040588
#
#
# Mechanical properties :
#
#
# Convention : Reuss Voigt Hill
#
# Bulk Modulus (GPa) = 34.39053 56.13198 45.26125
# Shear Modulus (GPa) = 31.06529 37.94753 34.50641
#
# Velocity S-wave (km/s) = 3.76501 4.16121 3.96806
# Velocity P-wave (km/s) = 5.88158 6.97860 6.45344
#
# Compressibility (1/GPa) = 0.02907777
#
# Stress axis : x y z
#
# Youngs Moduli (GPa) = 191.86996 41.84209 99.90423
#
# Poissons Ratio (x) = 0.09541 0.17153
# Poissons Ratio (y) = 0.43751 0.10234
# Poissons Ratio (z) = 0.32943 0.04286
#
# Static dielectric constant tensor:
#      x y z
#    x 1.811930 0.000000 0.000000 
#    y 0.000000 1.846340 0.000000 
#    z 0.000000 0.000000 1.903110 
# 
# From -- ./inp_files/22607.got.cif
#   From: 2010.05.17/outbox.cif.g08.bks.cpg/sg69_12_cif.got.tgz:22607.got - 2010.06.03 19:29:58.
