data_PCOD9511511
_publ_section_title
;
Structure prediction by ZEFSAII (Michael W. Deem and Ramdas Pophale) SiO2 
 PCOD9511511
Probable space group: F M M M
;
_chemical_formula_sum "Si O2"
_cell_formula_units_Z 208
_cell_length_a 27.439862
_cell_length_b 17.712867
_cell_length_c 26.229510
_cell_angle_alpha 90.000000
_cell_angle_beta 90.000000
_cell_angle_gamma 90.000000
_cell_volume 12748.555004
_symmetry_space_group_name_H-M "F M M M"
_symmetry_group_IT_number 69
_symmetry_cell_setting 'orthorhombic'
loop_
_space_group_symop_operation_xyz
x,y,z
-x,-y,z
x,-y,-z
-x,y,-z
-x,-y,-z
x,y,-z
-x,y,z
x,-y,z
x,1/2+y,1/2+z
-x,1/2-y,1/2+z
x,1/2-y,1/2-z
-x,1/2+y,1/2-z
-x,1/2-y,1/2-z
x,1/2+y,1/2-z
-x,1/2+y,1/2+z
x,1/2-y,1/2+z
1/2+x,y,1/2+z
1/2-x,-y,1/2+z
1/2+x,-y,1/2-z
1/2-x,y,1/2-z
1/2-x,-y,1/2-z
1/2+x,y,1/2-z
1/2-x,y,1/2+z
1/2+x,-y,1/2+z
1/2+x,1/2+y,z
1/2-x,1/2-y,z
1/2+x,1/2-y,-z
1/2-x,1/2+y,-z
1/2-x,1/2-y,-z
1/2+x,1/2+y,-z
1/2-x,1/2+y,z
1/2+x,1/2-y,z
loop_
_atom_site_type_symbol
_atom_site_label
_atom_site_fract_x
_atom_site_fract_y
_atom_site_fract_z
Si Si1 0.685957 0.584588 0.632598
Si Si2 0.807693 0.235061 0.691121
Si Si3 0.057483 0.089576 0.059426
Si Si4 0.776967 0.912515 0.057898
Si Si5 0.861898 0.807879 0.902217
Si Si6 0.105738 0.144452 0.560008
Si Si7 0.000000 0.087270 0.561635
O O1 0.688660 0.500000 0.653199
O O2 0.682820 0.648745 0.675021
O O3 0.733746 0.599125 0.598014
O O4 0.640663 0.593191 0.594286
O O5 0.818939 0.250000 0.750000
O O6 0.750000 0.250000 0.683131
O O7 0.839548 0.285681 0.652541
O O8 0.091099 0.138483 0.096064
O O9 0.000000 0.104296 0.066233
O O10 0.065444 0.000000 0.065928
O O11 0.069561 0.107866 0.000000
O O12 0.819951 0.854070 0.068458
O O13 0.793977 0.000000 0.062799
O O14 0.758746 0.903074 0.000000
O O15 0.877014 0.729948 0.929511
O O16 0.110537 0.127186 0.500000
O O17 0.049764 0.129797 0.575811
O O18 0.000000 0.084884 0.500000
O O19 0.000000 0.000000 0.579473
#
# Coordination Sequence:
#
# PCOD9511511 Si02
#       7
#    32  32  32  32  32  32  16
#     4  10  20  35  53  77 104 135 173 206 255 319
#     4  10  21  40  57  74 102 133 171 228 278 308
#     4   9  18  32  51  78 114 149 175 208 256 310
#     4  10  19  30  47  75 112 145 170 202 246 308
#     4  11  20  32  52  76 103 138 182 217 255 315
#     4  10  20  30  48  75 105 141 173 209 250 297
#     4   9  18  32  46  66  98 135 175 209 241 286
#
# _framework density 16.315574999999999
#
# number of rings (size 3 to 8) (size 9 to 14) (size 15 to 20)
#    0.000    2.077    1.538    3.231    1.077    2.769 
#    0.000    5.385    0.000    0.462    0.000    0.000 
#    0.000    0.000    0.000    0.000    0.000    0.000 
#
# Total GULP energy -290065.817477 kJ/mol
# GULP energy per Si atom -5578.188798 kJ/mol
# Density = 1.627844 g / cm^3
# Si number density = 16.315575 Si / 1000 Ang^3
#
#
#
# Elastic Constant Matrix: (Units=GPa)
#
#
# Indices 1 2 3 4 5 6 
#
# 1 87.9967 47.3604 34.4547 0.0000 0.0000 0.0000
# 2 47.3604 89.4908 53.1982 0.0000 0.0000 0.0000
# 3 34.4547 53.1982 94.3600 0.0000 0.0000 0.0000
# 4 0.0000 0.0000 0.0000 11.1417 0.0000 0.0000
# 5 0.0000 0.0000 0.0000 0.0000 15.4081 0.0000
# 6 0.0000 0.0000 0.0000 0.0000 0.0000 26.4238
#
#
#
# Elastic Compliance Matrix: (Units=1/GPa)
#
#
# Indices 1 2 3 4 5 6 
#
# 1 0.016051 -0.007536 -0.001612 0.000000 0.000000 0.000000
# 2 -0.007536 0.020345 -0.008719 0.000000 0.000000 0.000000
# 3 -0.001612 -0.008719 0.016102 0.000000 0.000000 0.000000
# 4 0.000000 0.000000 0.000000 0.089753 0.000000 0.000000
# 5 0.000000 0.000000 0.000000 0.000000 0.064901 0.000000
# 6 0.000000 0.000000 0.000000 0.000000 0.000000 0.037845
#
#
# Mechanical properties :
#
#
# Convention : Reuss Voigt Hill
#
# Bulk Modulus (GPa) = 59.64998 60.20823 59.92910
# Shear Modulus (GPa) = 17.46302 19.71701 18.59002
#
# Velocity S-wave (km/s) = 3.27514 3.48009 3.37917
# Velocity P-wave (km/s) = 7.13733 7.28906 7.21360
#
# Compressibility (1/GPa) = 0.01676447
#
# Stress axis : x y z
#
# Youngs Moduli (GPa) = 62.29974 49.15094 62.10521
#
# Poissons Ratio (x) = 0.37042 0.10013
# Poissons Ratio (y) = 0.46951 0.54147
# Poissons Ratio (z) = 0.10044 0.42852
#
# Static dielectric constant tensor:
#      x y z
#    x 1.552790 0.000000 0.000000 
#    y 0.000000 1.566900 0.000000 
#    z 0.000000 0.000000 1.515520 
# 
# From -- ./inp_files/26978.got.cif
#   From: 2010.05.17/outbox.cif.g08.bks.cpg/sg69_14_cif.got.tgz:26978.got - 2010.06.03 19:29:58.
