data_PCOD9511710
_publ_section_title
;
Structure prediction by ZEFSAII (Michael W. Deem and Ramdas Pophale) SiO2 
 PCOD9511710
Probable space group: F M M M
;
_chemical_formula_sum "Si O2"
_cell_formula_units_Z 200
_cell_length_a 30.719094
_cell_length_b 17.428463
_cell_length_c 20.906660
_cell_angle_alpha 90.000000
_cell_angle_beta 90.000000
_cell_angle_gamma 90.000000
_cell_volume 11193.145472
_symmetry_space_group_name_H-M "F M M M"
_symmetry_group_IT_number 69
_symmetry_cell_setting 'orthorhombic'
loop_
_space_group_symop_operation_xyz
x,y,z
-x,-y,z
x,-y,-z
-x,y,-z
-x,-y,-z
x,y,-z
-x,y,z
x,-y,z
x,1/2+y,1/2+z
-x,1/2-y,1/2+z
x,1/2-y,1/2-z
-x,1/2+y,1/2-z
-x,1/2-y,1/2-z
x,1/2+y,1/2-z
-x,1/2+y,1/2+z
x,1/2-y,1/2+z
1/2+x,y,1/2+z
1/2-x,-y,1/2+z
1/2+x,-y,1/2-z
1/2-x,y,1/2-z
1/2-x,-y,1/2-z
1/2+x,y,1/2-z
1/2-x,y,1/2+z
1/2+x,-y,1/2+z
1/2+x,1/2+y,z
1/2-x,1/2-y,z
1/2+x,1/2-y,-z
1/2-x,1/2+y,-z
1/2-x,1/2-y,-z
1/2+x,1/2+y,-z
1/2-x,1/2+y,z
1/2+x,1/2-y,z
loop_
_atom_site_type_symbol
_atom_site_label
_atom_site_fract_x
_atom_site_fract_y
_atom_site_fract_z
Si Si1 0.452251 0.910642 0.306476
Si Si2 0.136496 0.641407 0.368239
Si Si3 0.569751 0.910665 0.841662
Si Si4 0.500000 0.330347 0.571554
Si Si5 0.301862 0.415504 0.243994
Si Si6 0.094478 0.090620 0.000000
Si Si7 0.855012 0.203810 0.686824
Si Si8 0.000000 0.322066 0.500000
O O1 0.500000 0.882804 0.327282
O O2 0.410212 0.868190 0.332819
O O3 0.450334 0.909034 0.229676
O O4 0.448319 0.000000 0.326400
O O5 0.173464 0.599564 0.324396
O O6 0.123946 0.611776 0.438265
O O7 0.149803 0.730682 0.365857
O O8 0.540632 0.862596 0.890037
O O9 0.613850 0.863740 0.835406
O O10 0.573724 0.000000 0.859934
O O11 0.500000 0.363353 0.500000
O O12 0.500000 0.238846 0.559299
O O13 0.318811 0.500000 0.265048
O O14 0.250000 0.419697 0.250000
O O15 0.314032 0.342699 0.287175
O O16 0.046270 0.131977 0.000000
O O17 0.085865 0.000000 0.000000
O O18 0.871616 0.250000 0.750000
#
# Coordination Sequence:
#
# PCOD9511710 Si02
#       8
#    32  32  32  16  32  16  32   8
#     4  10  19  32  53  82 115 149 197 256 298 357
#     4  11  23  39  59  89 124 161 209 255 312 374
#     4  11  19  33  54  76 108 152 199 244 302 362
#     4  10  23  39  54  76 113 153 199 255 302 356
#     4  10  20  37  65  98 127 155 194 253 317 379
#     4  12  25  42  64  84 120 175 215 256 311 371
#     4  10  20  34  55  85 119 153 187 244 304 357
#     4  10  25  44  55  80 122 160 216 266 297 358
#
# _framework density 17.868078000000001
#
# number of rings (size 3 to 8) (size 9 to 14) (size 15 to 20)
#    0.240    1.280    4.000    3.240    1.120    3.520 
#    1.440    1.200    0.000    1.920    0.000    1.120 
#    0.000    0.000    0.000    0.000    0.000    0.000 
#
# Total GULP energy -278396.549890 kJ/mol
# GULP energy per Si atom -5567.930998 kJ/mol
# Density = 1.782741 g / cm^3
# Si number density = 17.868078 Si / 1000 Ang^3
#
#
#
# Elastic Constant Matrix: (Units=GPa)
#
#
# Indices 1 2 3 4 5 6 
#
# 1 95.8474 45.0616 40.0588 0.0000 0.0000 0.0000
# 2 45.0616 143.9552 43.0153 0.0000 0.0000 0.0000
# 3 40.0588 43.0153 71.2037 0.0000 0.0000 0.0000
# 4 0.0000 0.0000 0.0000 15.1459 0.0000 0.0000
# 5 0.0000 0.0000 0.0000 0.0000 14.0878 0.0000
# 6 0.0000 0.0000 0.0000 0.0000 0.0000 14.9538
#
#
#
# Elastic Compliance Matrix: (Units=1/GPa)
#
#
# Indices 1 2 3 4 5 6 
#
# 1 0.014363 -0.002540 -0.006546 0.000000 0.000000 0.000000
# 2 -0.002540 0.008926 -0.003963 0.000000 0.000000 0.000000
# 3 -0.006546 -0.003963 0.020121 0.000000 0.000000 0.000000
# 4 0.000000 0.000000 0.000000 0.066025 0.000000 0.000000
# 5 0.000000 0.000000 0.000000 0.000000 0.070984 0.000000
# 6 0.000000 0.000000 0.000000 0.000000 0.000000 0.066873
#
#
# Mechanical properties :
#
#
# Convention : Reuss Voigt Hill
#
# Bulk Modulus (GPa) = 57.76497 63.03084 60.39791
# Shear Modulus (GPa) = 17.91078 21.02886 19.46982
#
# Velocity S-wave (km/s) = 3.16949 3.43431 3.30455
# Velocity P-wave (km/s) = 6.76705 7.14691 6.95957
#
# Compressibility (1/GPa) = 0.01731153
#
# Stress axis : x y z
#
# Youngs Moduli (GPa) = 69.62145 112.03266 49.69817
#
# Poissons Ratio (x) = 0.28456 0.32534
# Poissons Ratio (y) = 0.17684 0.19697
# Poissons Ratio (z) = 0.45576 0.44402
#
# Static dielectric constant tensor:
#      x y z
#    x 1.735560 0.000000 0.000000 
#    y 0.000000 1.636430 0.000000 
#    z 0.000000 0.000000 1.720370 
# 
# From -- ./inp_files/34041.got.cif
#   From: 2010.05.17/outbox.cif.g08.bks.cpg/sg69_18_cif.got.tgz:34041.got - 2010.06.03 19:29:58.
