data_PCOD9511892
_publ_section_title
;
Structure prediction by ZEFSAII (Michael W. Deem and Ramdas Pophale) SiO2 
 PCOD9511892
Probable space group: F M M M
;
_chemical_formula_sum "Si O2"
_cell_formula_units_Z 192
_cell_length_a 32.169054
_cell_length_b 19.247751
_cell_length_c 17.115375
_cell_angle_alpha 90.000000
_cell_angle_beta 90.000000
_cell_angle_gamma 90.000000
_cell_volume 10597.531119
_symmetry_space_group_name_H-M "F M M M"
_symmetry_group_IT_number 69
_symmetry_cell_setting 'orthorhombic'
loop_
_space_group_symop_operation_xyz
x,y,z
-x,-y,z
x,-y,-z
-x,y,-z
-x,-y,-z
x,y,-z
-x,y,z
x,-y,z
x,1/2+y,1/2+z
-x,1/2-y,1/2+z
x,1/2-y,1/2-z
-x,1/2+y,1/2-z
-x,1/2-y,1/2-z
x,1/2+y,1/2-z
-x,1/2+y,1/2+z
x,1/2-y,1/2+z
1/2+x,y,1/2+z
1/2-x,-y,1/2+z
1/2+x,-y,1/2-z
1/2-x,y,1/2-z
1/2-x,-y,1/2-z
1/2+x,y,1/2-z
1/2-x,y,1/2+z
1/2+x,-y,1/2+z
1/2+x,1/2+y,z
1/2-x,1/2-y,z
1/2+x,1/2-y,-z
1/2-x,1/2+y,-z
1/2-x,1/2-y,-z
1/2+x,1/2+y,-z
1/2-x,1/2+y,z
1/2+x,1/2-y,z
loop_
_atom_site_type_symbol
_atom_site_label
_atom_site_fract_x
_atom_site_fract_y
_atom_site_fract_z
Si Si1 0.000000 0.198631 0.409832
Si Si2 0.701409 0.330526 0.231747
Si Si3 0.408321 0.693021 0.591236
Si Si4 0.076499 0.921233 0.818044
Si Si5 0.860126 0.332205 0.406918
Si Si6 0.361075 0.921439 0.171650
Si Si7 0.000000 0.682904 0.690436
O O1 0.954773 0.177881 0.376512
O O2 0.000000 0.281048 0.394972
O O3 0.000000 0.177132 0.500000
O O4 0.692283 0.250000 0.250000
O O5 0.750000 0.340618 0.250000
O O6 0.681519 0.341665 0.145279
O O7 0.677220 0.381720 0.289519
O O8 0.414341 0.707235 0.500000
O O9 0.384250 0.761519 0.621190
O O10 0.379893 0.626597 0.604657
O O11 0.107588 0.893126 0.885003
O O12 0.104228 0.922580 0.739779
O O13 0.039841 0.866310 0.805018
O O14 0.061924 0.000000 0.833578
O O15 0.852194 0.328367 0.500000
O O16 0.351668 0.000000 0.148240
O O17 0.000000 0.750000 0.750000
#
# Coordination Sequence:
#
# PCOD9511892 Si02
#       7
#    16  32  32  32  32  32  16
#     4  10  20  33  51  79 109 144 194 235 276 329
#     4  10  20  37  61  87 116 146 184 231 290 353
#     4  10  19  34  55  81 110 147 193 239 281 334
#     4  10  22  35  52  80 115 152 193 242 295 344
#     4  10  20  36  60  84 113 150 194 236 283 347
#     4  10  21  37  56  80 109 147 189 234 290 349
#     4  12  21  31  54  80 112 155 199 247 290 334
#
# _framework density 18.117426999999999
#
# number of rings (size 3 to 8) (size 9 to 14) (size 15 to 20)
#    0.000    1.833    3.333    1.250    0.000    1.000 
#    0.000    3.750    0.000    3.000    0.000    0.000 
#    0.000    0.000    0.000    0.000    0.000    0.000 
#
# Total GULP energy -267294.417787 kJ/mol
# GULP energy per Si atom -5568.633704 kJ/mol
# Density = 1.807619 g / cm^3
# Si number density = 18.117427 Si / 1000 Ang^3
#
#
#
# Elastic Constant Matrix: (Units=GPa)
#
#
# Indices 1 2 3 4 5 6 
#
# 1 117.0424 47.0052 43.7335 0.0000 0.0000 0.0000
# 2 47.0052 108.0091 -1.2892 0.0000 0.0000 0.0000
# 3 43.7335 -1.2892 37.4574 0.0000 0.0000 0.0000
# 4 0.0000 0.0000 0.0000 16.6495 0.0000 0.0000
# 5 0.0000 0.0000 0.0000 0.0000 13.0588 0.0000
# 6 0.0000 0.0000 0.0000 0.0000 0.0000 44.7640
#
#
#
# Elastic Compliance Matrix: (Units=1/GPa)
#
#
# Indices 1 2 3 4 5 6 
#
# 1 0.022632 -0.010169 -0.026774 0.000000 0.000000 0.000000
# 2 -0.010169 0.013831 0.012349 0.000000 0.000000 0.000000
# 3 -0.026774 0.012349 0.058383 0.000000 0.000000 0.000000
# 4 0.000000 0.000000 0.000000 0.060062 0.000000 0.000000
# 5 0.000000 0.000000 0.000000 0.000000 0.076576 0.000000
# 6 0.000000 0.000000 0.000000 0.000000 0.000000 0.022339
#
#
# Mechanical properties :
#
#
# Convention : Reuss Voigt Hill
#
# Bulk Modulus (GPa) = 21.90226 49.04532 35.47379
# Shear Modulus (GPa) = 15.71178 26.43176 21.07177
#
# Velocity S-wave (km/s) = 2.94805 3.82372 3.41408
# Velocity P-wave (km/s) = 4.86861 6.82818 5.92989
#
# Compressibility (1/GPa) = 0.04565739
#
# Stress axis : x y z
#
# Youngs Moduli (GPa) = 44.18458 72.29914 17.12834
#
# Poissons Ratio (x) = 0.73522 0.45860
# Poissons Ratio (y) = 0.44932 -0.21152
# Poissons Ratio (z) = 1.18302 -0.89282
#
# Static dielectric constant tensor:
#      x y z
#    x 1.649360 0.000000 0.000000 
#    y 0.000000 1.615350 0.000000 
#    z 0.000000 0.000000 1.657050 
# 
# From -- ./inp_files/23686.got.cif
#   From: 2010.05.17/outbox.cif.g08.bks.cpg/sg69_12_cif.got.tgz:23686.got - 2010.06.03 19:29:58.
