data_PCOD9511935
_publ_section_title
;
Structure prediction by ZEFSAII (Michael W. Deem and Ramdas Pophale) SiO2 
 PCOD9511935
Probable space group: F M M M
;
_chemical_formula_sum "Si O2"
_cell_formula_units_Z 192
_cell_length_a 19.373539
_cell_length_b 19.859306
_cell_length_c 27.734924
_cell_angle_alpha 90.000000
_cell_angle_beta 90.000000
_cell_angle_gamma 90.000000
_cell_volume 10670.874424
_symmetry_space_group_name_H-M "F M M M"
_symmetry_group_IT_number 69
_symmetry_cell_setting 'orthorhombic'
loop_
_space_group_symop_operation_xyz
x,y,z
-x,-y,z
x,-y,-z
-x,y,-z
-x,-y,-z
x,y,-z
-x,y,z
x,-y,z
x,1/2+y,1/2+z
-x,1/2-y,1/2+z
x,1/2-y,1/2-z
-x,1/2+y,1/2-z
-x,1/2-y,1/2-z
x,1/2+y,1/2-z
-x,1/2+y,1/2+z
x,1/2-y,1/2+z
1/2+x,y,1/2+z
1/2-x,-y,1/2+z
1/2+x,-y,1/2-z
1/2-x,y,1/2-z
1/2-x,-y,1/2-z
1/2+x,y,1/2-z
1/2-x,y,1/2+z
1/2+x,-y,1/2+z
1/2+x,1/2+y,z
1/2-x,1/2-y,z
1/2+x,1/2-y,-z
1/2-x,1/2+y,-z
1/2-x,1/2-y,-z
1/2+x,1/2+y,-z
1/2-x,1/2+y,z
1/2+x,1/2-y,z
loop_
_atom_site_type_symbol
_atom_site_label
_atom_site_fract_x
_atom_site_fract_y
_atom_site_fract_z
Si Si1 0.080171 0.798350 0.608142
Si Si2 0.653961 0.079125 0.056734
Si Si3 0.578817 0.836212 0.443851
Si Si4 0.671701 0.278202 0.697399
Si Si5 0.217885 0.926208 0.302815
Si Si6 0.802718 0.422487 0.601468
O O1 0.112438 0.868237 0.589476
O O2 0.085113 0.743406 0.565633
O O3 0.121551 0.765037 0.652748
O O4 0.000000 0.807617 0.620763
O O5 0.734733 0.090132 0.069027
O O6 0.639176 0.000000 0.067123
O O7 0.640981 0.090389 0.000000
O O8 0.589604 0.851476 0.500000
O O9 0.500000 0.855014 0.430797
O O10 0.635382 0.874713 0.412845
O O11 0.651250 0.250000 0.750000
O O12 0.750000 0.250000 0.688919
O O13 0.672751 0.359458 0.698201
O O14 0.250000 0.929535 0.250000
O O15 0.275773 0.915120 0.343776
O O16 0.185978 0.000000 0.313576
O O17 0.823461 0.500000 0.594261
#
# Coordination Sequence:
#
# PCOD9511935 Si02
#       6
#    32  32  32  32  32  32
#     4  11  24  39  57  83 118 156 192 236 292 345
#     4  10  21  37  59  87 116 150 196 245 289 339
#     4  10  22  38  55  80 118 162 200 236 285 344
#     4  11  21  36  60  88 112 146 193 237 284 346
#     4  10  19  34  58  86 113 142 181 234 289 341
#     4  10  20  36  60  88 115 147 192 244 291 339
#
# _framework density 17.992902000000001
#
# number of rings (size 3 to 8) (size 9 to 14) (size 15 to 20)
#    0.000    1.667    3.333    2.000    0.000    3.000 
#    0.000    3.333    0.000    0.000    0.000    0.000 
#    0.000    0.000    0.000    0.000    0.000    0.000 
#
# Total GULP energy -267646.820009 kJ/mol
# GULP energy per Si atom -5575.975417 kJ/mol
# Density = 1.795195 g / cm^3
# Si number density = 17.992902 Si / 1000 Ang^3
#
#
#
# Elastic Constant Matrix: (Units=GPa)
#
#
# Indices 1 2 3 4 5 6 
#
# 1 67.3307 48.5867 43.7602 0.0000 0.0000 0.0000
# 2 48.5867 98.7143 31.7848 0.0000 0.0000 0.0000
# 3 43.7602 31.7848 102.8476 0.0000 0.0000 0.0000
# 4 0.0000 0.0000 0.0000 30.7954 0.0000 0.0000
# 5 0.0000 0.0000 0.0000 0.0000 11.8833 0.0000
# 6 0.0000 0.0000 0.0000 0.0000 0.0000 61.2112
#
#
#
# Elastic Compliance Matrix: (Units=1/GPa)
#
#
# Indices 1 2 3 4 5 6 
#
# 1 0.028669 -0.011308 -0.008703 0.000000 0.000000 0.000000
# 2 -0.011308 0.015710 -0.000044 0.000000 0.000000 0.000000
# 3 -0.008703 -0.000044 0.013440 0.000000 0.000000 0.000000
# 4 0.000000 0.000000 0.000000 0.032472 0.000000 0.000000
# 5 0.000000 0.000000 0.000000 0.000000 0.084152 0.000000
# 6 0.000000 0.000000 0.000000 0.000000 0.000000 0.016337
#
#
# Mechanical properties :
#
#
# Convention : Reuss Voigt Hill
#
# Bulk Modulus (GPa) = 56.47128 57.46180 56.96654
# Shear Modulus (GPa) = 21.11546 30.42869 25.77208
#
# Velocity S-wave (km/s) = 3.42942 4.11682 3.78874
# Velocity P-wave (km/s) = 6.86547 7.38937 7.13223
#
# Compressibility (1/GPa) = 0.01770812
#
# Stress axis : x y z
#
# Youngs Moduli (GPa) = 34.88098 63.65287 74.40585
#
# Poissons Ratio (x) = 0.71981 0.64759
# Poissons Ratio (y) = 0.39445 0.00325
# Poissons Ratio (z) = 0.30358 0.00278
#
# Static dielectric constant tensor:
#      x y z
#    x 1.586940 0.000000 0.000000 
#    y 0.000000 1.654980 0.000000 
#    z 0.000000 0.000000 1.639890 
# 
# From -- ./inp_files/33502.got.cif
#   From: 2010.05.17/outbox.cif.g08.bks.cpg/sg69_17_cif.got.tgz:33502.got - 2010.06.03 19:29:58.
