data_PCOD9511993
_publ_section_title
;
Structure prediction by ZEFSAII (Michael W. Deem and Ramdas Pophale) SiO2 
 PCOD9511993
Probable space group: F M M M
;
_chemical_formula_sum "Si O2"
_cell_formula_units_Z 168
_cell_length_a 26.703413
_cell_length_b 20.027078
_cell_length_c 15.119035
_cell_angle_alpha 90.000000
_cell_angle_beta 90.000000
_cell_angle_gamma 90.000000
_cell_volume 8085.528912
_symmetry_space_group_name_H-M "F M M M"
_symmetry_group_IT_number 69
_symmetry_cell_setting 'orthorhombic'
loop_
_space_group_symop_operation_xyz
x,y,z
-x,-y,z
x,-y,-z
-x,y,-z
-x,-y,-z
x,y,-z
-x,y,z
x,-y,z
x,1/2+y,1/2+z
-x,1/2-y,1/2+z
x,1/2-y,1/2-z
-x,1/2+y,1/2-z
-x,1/2-y,1/2-z
x,1/2+y,1/2-z
-x,1/2+y,1/2+z
x,1/2-y,1/2+z
1/2+x,y,1/2+z
1/2-x,-y,1/2+z
1/2+x,-y,1/2-z
1/2-x,y,1/2-z
1/2-x,-y,1/2-z
1/2+x,y,1/2-z
1/2-x,y,1/2+z
1/2+x,-y,1/2+z
1/2+x,1/2+y,z
1/2-x,1/2-y,z
1/2+x,1/2-y,-z
1/2-x,1/2+y,-z
1/2-x,1/2-y,-z
1/2+x,1/2+y,-z
1/2-x,1/2+y,z
1/2+x,1/2-y,z
loop_
_atom_site_type_symbol
_atom_site_label
_atom_site_fract_x
_atom_site_fract_y
_atom_site_fract_z
Si Si1 0.190489 0.605866 0.844452
Si Si2 0.658671 0.000000 0.500000
Si Si3 0.301482 0.600100 0.139164
Si Si4 0.663615 0.252097 0.105783
Si Si5 0.446013 0.781528 0.107969
Si Si6 0.419538 0.571761 0.396670
O O1 0.243602 0.584205 0.884036
O O2 0.190303 0.585254 0.742129
O O3 0.187035 0.686517 0.850164
O O4 0.140600 0.578905 0.890038
O O5 0.662914 0.058107 0.423155
O O6 0.309970 0.678819 0.126356
O O7 0.605054 0.255232 0.133792
O O8 0.665670 0.240497 0.000000
O O9 0.500000 0.754112 0.135954
O O10 0.440849 0.858614 0.139160
O O11 0.445674 0.782493 0.000000
O O12 0.433520 0.570555 0.500000
O O13 0.434527 0.500000 0.357508
#
# Coordination Sequence:
#
# PCOD9511993 Si02
#       6
#    32   8  32  32  32  32
#     4  10  22  35  57  78 110 149 189 234 273 326
#     4  12  28  38  54  80 111 160 187 232 270 326
#     4  11  24  38  53  79 113 151 193 230 277 325
#     4  10  19  35  58  84 110 144 187 235 287 328
#     4   8  15  29  50  79 108 136 177 225 279 338
#     4   9  18  29  48  77 110 148 180 217 274 339
#
# _framework density 20.777861999999999
#
# number of rings (size 3 to 8) (size 9 to 14) (size 15 to 20)
#    0.000    2.286    0.952    2.857    5.333    3.429 
#    0.000    1.905    0.000    9.143    0.000    1.333 
#    0.000    0.000    0.000    0.000    0.000    0.000 
#
# Total GULP energy -233946.871559 kJ/mol
# GULP energy per Si atom -5570.163609 kJ/mol
# Density = 2.073057 g / cm^3
# Si number density = 20.777862 Si / 1000 Ang^3
#
#
#
# Elastic Constant Matrix: (Units=GPa)
#
#
# Indices 1 2 3 4 5 6 
#
# 1 84.1415 -5.6658 -4.8119 0.0000 0.0000 0.0000
# 2 -5.6658 76.7759 5.4518 0.0000 0.0000 0.0000
# 3 -4.8119 5.4518 56.2769 0.0000 0.0000 0.0000
# 4 0.0000 0.0000 0.0000 70.8644 0.0000 0.0000
# 5 0.0000 0.0000 0.0000 0.0000 14.4435 0.0000
# 6 0.0000 0.0000 0.0000 0.0000 0.0000 4.3277
#
#
#
# Elastic Compliance Matrix: (Units=1/GPa)
#
#
# Indices 1 2 3 4 5 6 
#
# 1 0.011994 0.000818 0.000946 0.000000 0.000000 0.000000
# 2 0.000818 0.013171 -0.001206 0.000000 0.000000 0.000000
# 3 0.000946 -0.001206 0.017967 0.000000 0.000000 0.000000
# 4 0.000000 0.000000 0.000000 0.014111 0.000000 0.000000
# 5 0.000000 0.000000 0.000000 0.000000 0.069235 0.000000
# 6 0.000000 0.000000 0.000000 0.000000 0.000000 0.231071
#
#
# Mechanical properties :
#
#
# Convention : Reuss Voigt Hill
#
# Bulk Modulus (GPa) = 22.59973 23.01583 22.80778
# Shear Modulus (GPa) = 13.47046 32.74180 23.10613
#
# Velocity S-wave (km/s) = 2.54895 3.97394 3.33837
# Velocity P-wave (km/s) = 4.42304 5.67075 5.08531
#
# Compressibility (1/GPa) = 0.04424832
#
# Stress axis : x y z
#
# Youngs Moduli (GPa) = 83.37551 75.92485 55.65750
#
# Poissons Ratio (x) = -0.06210 -0.05267
# Poissons Ratio (y) = -0.06819 0.06712
# Poissons Ratio (z) = -0.07890 0.09156
#
# Static dielectric constant tensor:
#      x y z
#    x 1.771750 0.000000 0.000000 
#    y 0.000000 1.755310 0.000000 
#    z 0.000000 0.000000 1.750760 
# 
# From -- ./inp_files/16849.got.cif
#   From: 2010.05.17/outbox.cif.g08.bks.cpg/sg69_9_cif.got.tgz:16849.got - 2010.06.03 19:29:58.
