data_PCOD9511270
_publ_section_title
;
Structure prediction by ZEFSAII (Michael W. Deem and Ramdas Pophale) SiO2 
 PCOD9511270
Probable space group: F M M M
;
_chemical_formula_sum "Si O2"
_cell_formula_units_Z 208
_cell_length_a 25.735829
_cell_length_b 27.519871
_cell_length_c 17.807998
_cell_angle_alpha 90.000000
_cell_angle_beta 90.000000
_cell_angle_gamma 90.000000
_cell_volume 12612.455713
_symmetry_space_group_name_H-M "F M M M"
_symmetry_group_IT_number 69
_symmetry_cell_setting 'orthorhombic'
loop_
_space_group_symop_operation_xyz
x,y,z
-x,-y,z
x,-y,-z
-x,y,-z
-x,-y,-z
x,y,-z
-x,y,z
x,-y,z
x,1/2+y,1/2+z
-x,1/2-y,1/2+z
x,1/2-y,1/2-z
-x,1/2+y,1/2-z
-x,1/2-y,1/2-z
x,1/2+y,1/2-z
-x,1/2+y,1/2+z
x,1/2-y,1/2+z
1/2+x,y,1/2+z
1/2-x,-y,1/2+z
1/2+x,-y,1/2-z
1/2-x,y,1/2-z
1/2-x,-y,1/2-z
1/2+x,y,1/2-z
1/2-x,y,1/2+z
1/2+x,-y,1/2+z
1/2+x,1/2+y,z
1/2-x,1/2-y,z
1/2+x,1/2-y,-z
1/2-x,1/2+y,-z
1/2-x,1/2-y,-z
1/2+x,1/2+y,-z
1/2-x,1/2+y,z
1/2+x,1/2-y,z
loop_
_atom_site_type_symbol
_atom_site_label
_atom_site_fract_x
_atom_site_fract_y
_atom_site_fract_z
Si Si1 0.500000 0.942091 0.082173
Si Si2 0.557912 0.860988 0.762542
Si Si3 0.086685 0.307862 0.085074
Si Si4 0.766021 0.804253 0.162459
Si Si5 0.382634 0.282732 0.824922
Si Si6 0.109703 0.942570 0.332084
Si Si7 0.687784 0.375903 0.414845
O O1 0.444105 0.933195 0.120689
O O2 0.500000 0.000000 0.075232
O O3 0.500000 0.918869 0.000000
O O4 0.500000 0.879000 0.748805
O O5 0.558688 0.833133 0.843694
O O6 0.575806 0.821963 0.701747
O O7 0.598425 0.905494 0.764352
O O8 0.096675 0.252737 0.110624
O O9 0.141925 0.335567 0.084433
O O10 0.065324 0.311538 0.000000
O O11 0.750000 0.805718 0.250000
O O12 0.750000 0.750000 0.134160
O O13 0.827887 0.806795 0.154803
O O14 0.735528 0.848252 0.123557
O O15 0.371924 0.250000 0.750000
O O16 0.160301 0.921538 0.373954
O O17 0.113111 0.000000 0.317316
O O18 0.700358 0.389319 0.500000
#
# Coordination Sequence:
#
# PCOD9511270 Si02
#       7
#    16  32  32  32  32  32  32
#     4   9  16  26  44  66  89 122 161 195 228 271
#     4  10  20  33  48  70  97 131 165 204 248 294
#     4   9  18  30  44  68 100 130 163 201 240 291
#     4  11  17  29  49  68  91 130 168 207 245 282
#     4  10  18  31  49  69  96 130 168 203 247 296
#     4  10  19  33  49  69  97 129 164 200 239 286
#     4  10  20  31  46  72 102 129 161 204 247 287
#
# _framework density 16.491634000000001
#
# number of rings (size 3 to 8) (size 9 to 14) (size 15 to 20)
#    0.000    2.077    3.846    2.308    0.000    5.538 
#    0.000    0.000    0.000    4.154    0.000    0.000 
#    0.000    0.615    0.000    1.385    0.000    0.462 
#
# Total GULP energy -289534.238730 kJ/mol
# GULP energy per Si atom -5567.966129 kJ/mol
# Density = 1.645410 g / cm^3
# Si number density = 16.491634 Si / 1000 Ang^3
#
#
#
# Elastic Constant Matrix: (Units=GPa)
#
#
# Indices 1 2 3 4 5 6 
#
# 1 49.3189 25.5428 6.3290 0.0000 0.0000 0.0000
# 2 25.5428 98.6307 24.2492 0.0000 0.0000 0.0000
# 3 6.3290 24.2492 24.9556 0.0000 0.0000 0.0000
# 4 0.0000 0.0000 0.0000 9.6442 0.0000 0.0000
# 5 0.0000 0.0000 0.0000 0.0000 4.5472 0.0000
# 6 0.0000 0.0000 0.0000 0.0000 0.0000 27.5610
#
#
#
# Elastic Compliance Matrix: (Units=1/GPa)
#
#
# Indices 1 2 3 4 5 6 
#
# 1 0.023417 -0.006050 -0.000060 0.000000 0.000000 0.000000
# 2 -0.006050 0.014884 -0.012929 0.000000 0.000000 0.000000
# 3 -0.000060 -0.012929 0.052649 0.000000 0.000000 0.000000
# 4 0.000000 0.000000 0.000000 0.103689 0.000000 0.000000
# 5 0.000000 0.000000 0.000000 0.000000 0.219914 0.000000
# 6 0.000000 0.000000 0.000000 0.000000 0.000000 0.036283
#
#
# Mechanical properties :
#
#
# Convention : Reuss Voigt Hill
#
# Bulk Modulus (GPa) = 18.91320 31.68301 25.29810
# Shear Modulus (GPa) = 9.87092 16.13611 13.00351
#
# Velocity S-wave (km/s) = 2.44916 3.13140 2.81106
# Velocity P-wave (km/s) = 4.41488 5.68573 5.09012
#
# Compressibility (1/GPa) = 0.05287314
#
# Stress axis : x y z
#
# Youngs Moduli (GPa) = 42.70383 67.18575 18.99365
#
# Poissons Ratio (x) = 0.40644 0.00115
# Poissons Ratio (y) = 0.25834 0.24556
# Poissons Ratio (z) = 0.00258 0.86862
#
# Static dielectric constant tensor:
#      x y z
#    x 1.567090 0.000000 0.000000 
#    y 0.000000 1.566150 0.000000 
#    z 0.000000 0.000000 1.585560 
# 
# From -- ./inp_files/26138.got.cif
#   From: 2010.05.17/outbox.cif.g08.bks.cpg/sg69_14_cif.got.tgz:26138.got - 2010.06.03 19:29:58.
