data_PCOD9511247
_publ_section_title
;
Structure prediction by ZEFSAII (Michael W. Deem and Ramdas Pophale) SiO2 
 PCOD9511247
Probable space group: F M M M
;
_chemical_formula_sum "Si O2"
_cell_formula_units_Z 144
_cell_length_a 13.249833
_cell_length_b 20.056990
_cell_length_c 29.972147
_cell_angle_alpha 90.000000
_cell_angle_beta 90.000000
_cell_angle_gamma 90.000000
_cell_volume 7965.151055
_symmetry_space_group_name_H-M "F M M M"
_symmetry_group_IT_number 69
_symmetry_cell_setting 'orthorhombic'
loop_
_space_group_symop_operation_xyz
x,y,z
-x,-y,z
x,-y,-z
-x,y,-z
-x,-y,-z
x,y,-z
-x,y,z
x,-y,z
x,1/2+y,1/2+z
-x,1/2-y,1/2+z
x,1/2-y,1/2-z
-x,1/2+y,1/2-z
-x,1/2-y,1/2-z
x,1/2+y,1/2-z
-x,1/2+y,1/2+z
x,1/2-y,1/2+z
1/2+x,y,1/2+z
1/2-x,-y,1/2+z
1/2+x,-y,1/2-z
1/2-x,y,1/2-z
1/2-x,-y,1/2-z
1/2+x,y,1/2-z
1/2-x,y,1/2+z
1/2+x,-y,1/2+z
1/2+x,1/2+y,z
1/2-x,1/2-y,z
1/2+x,1/2-y,-z
1/2-x,1/2+y,-z
1/2-x,1/2-y,-z
1/2+x,1/2+y,-z
1/2-x,1/2+y,z
1/2+x,1/2-y,z
loop_
_atom_site_type_symbol
_atom_site_label
_atom_site_fract_x
_atom_site_fract_y
_atom_site_fract_z
Si Si1 0.500000 0.922149 0.553334
Si Si2 0.377988 0.424015 0.198892
Si Si3 0.120670 0.181376 0.273796
Si Si4 0.327056 0.150242 0.607625
Si Si5 0.618656 0.195239 0.877180
O O1 0.500000 0.918671 0.500000
O O2 0.599499 0.886292 0.572903
O O3 0.500000 0.000000 0.567241
O O4 0.500000 0.424459 0.195733
O O5 0.342601 0.500000 0.202706
O O6 0.352131 0.379642 0.241853
O O7 0.339770 0.389656 0.153874
O O8 0.149198 0.250000 0.250000
O O9 0.148820 0.181666 0.325515
O O10 0.000000 0.181255 0.275179
O O11 0.367691 0.225712 0.614750
O O12 0.207894 0.157548 0.596068
O O13 0.500000 0.177790 0.884337
#
# Coordination Sequence:
#
# PCOD9511247 Si02
#       5
#    16  32  32  32  32
#     4  11  24  44  70  95 118 142 185 252 317 375
#     4  10  18  30  51  79 114 155 204 258 296 332
#     4   9  16  29  48  76 115 162 209 246 285 335
#     4  11  20  35  60  88 115 154 198 243 301 361
#     4  10  20  35  56  84 124 163 199 239 288 352
#
# _framework density 18.078754
#
# number of rings (size 3 to 8) (size 9 to 14) (size 15 to 20)
#    0.000    1.889    4.444    0.667    0.000    0.889 
#    0.000    5.556    0.000    5.333    0.000    1.556 
#    0.000    0.000    0.000    0.000    0.000    0.000 
#
# Total GULP energy -200828.740961 kJ/mol
# GULP energy per Si atom -5578.576138 kJ/mol
# Density = 1.803761 g / cm^3
# Si number density = 18.078754 Si / 1000 Ang^3
#
#
#
# Elastic Constant Matrix: (Units=GPa)
#
#
# Indices 1 2 3 4 5 6 
#
# 1 144.2252 49.8981 40.8543 0.0000 0.0000 0.0000
# 2 49.8981 124.2861 39.7518 0.0000 0.0000 0.0000
# 3 40.8543 39.7518 53.4684 0.0000 0.0000 0.0000
# 4 0.0000 0.0000 0.0000 5.6493 0.0000 0.0000
# 5 0.0000 0.0000 0.0000 0.0000 -4.3678 0.0000
# 6 0.0000 0.0000 0.0000 0.0000 0.0000 -134.4772
#
#
#
# Elastic Compliance Matrix: (Units=1/GPa)
#
#
# Indices 1 2 3 4 5 6 
#
# 1 0.009176 -0.001891 -0.005605 0.000000 0.000000 0.000000
# 2 -0.001891 0.010946 -0.006693 0.000000 0.000000 0.000000
# 3 -0.005605 -0.006693 0.027961 0.000000 0.000000 0.000000
# 4 0.000000 0.000000 0.000000 0.177014 0.000000 0.000000
# 5 0.000000 0.000000 0.000000 0.000000 -0.228948 0.000000
# 6 0.000000 0.000000 0.000000 0.000000 0.000000 -0.007436
#
#
# Mechanical properties :
#
#
# Convention : Reuss Voigt Hill
#
# Bulk Modulus (GPa) = 50.74910 64.77646 57.76278
# Shear Modulus (GPa) = 211.34521 -13.87412 98.73555
#
# Velocity S-wave (km/s) = 10.82388 -2.77325 7.39815
# Velocity P-wave (km/s) = 13.57720 5.06492 10.24680
#
# Compressibility (1/GPa) = 0.01970478
#
# Stress axis : x y z
#
# Youngs Moduli (GPa) = 108.98509 91.35892 35.76385
#
# Poissons Ratio (x) = 0.17277 0.20045
# Poissons Ratio (y) = 0.20610 0.23936
# Poissons Ratio (z) = 0.61085 0.61145
#
# Static dielectric constant tensor:
#      x y z
#    x 1.688220 0.000000 0.000000 
#    y 0.000000 1.626990 0.000000 
#    z 0.000000 0.000000 1.849500 
# 
# From -- ./inp_files/45611.got.cif
#   From: 2010.05.17/outbox.cif.g08.bks.cpg/sg69_23_cif.got.tgz:45611.got - 2010.06.03 19:29:58.
