data_PCOD9511841
_publ_section_title
;
Structure prediction by ZEFSAII (Michael W. Deem and Ramdas Pophale) SiO2 
 PCOD9511841
Probable space group: F M M M
;
_chemical_formula_sum "Si O2"
_cell_formula_units_Z 144
_cell_length_a 23.248825
_cell_length_b 19.900734
_cell_length_c 16.700096
_cell_angle_alpha 90.000000
_cell_angle_beta 90.000000
_cell_angle_gamma 90.000000
_cell_volume 7726.611408
_symmetry_space_group_name_H-M "F M M M"
_symmetry_group_IT_number 69
_symmetry_cell_setting 'orthorhombic'
loop_
_space_group_symop_operation_xyz
x,y,z
-x,-y,z
x,-y,-z
-x,y,-z
-x,-y,-z
x,y,-z
-x,y,z
x,-y,z
x,1/2+y,1/2+z
-x,1/2-y,1/2+z
x,1/2-y,1/2-z
-x,1/2+y,1/2-z
-x,1/2-y,1/2-z
x,1/2+y,1/2-z
-x,1/2+y,1/2+z
x,1/2-y,1/2+z
1/2+x,y,1/2+z
1/2-x,-y,1/2+z
1/2+x,-y,1/2-z
1/2-x,y,1/2-z
1/2-x,-y,1/2-z
1/2+x,y,1/2-z
1/2-x,y,1/2+z
1/2+x,-y,1/2+z
1/2+x,1/2+y,z
1/2-x,1/2-y,z
1/2+x,1/2-y,-z
1/2-x,1/2+y,-z
1/2-x,1/2-y,-z
1/2+x,1/2+y,-z
1/2-x,1/2+y,z
1/2+x,1/2-y,z
loop_
_atom_site_type_symbol
_atom_site_label
_atom_site_fract_x
_atom_site_fract_y
_atom_site_fract_z
Si Si1 0.750000 0.250000 0.871994
Si Si2 0.066122 0.500000 0.717817
Si Si3 0.068650 0.578984 0.000000
Si Si4 0.349704 0.750000 0.750000
Si Si5 0.771857 0.399103 0.910179
Si Si6 0.613721 0.885073 0.828664
Si Si7 0.670648 0.000000 0.594656
O O1 0.694954 0.271193 0.819134
O O2 0.766187 0.318724 0.914593
O O3 0.078390 0.436114 0.774414
O O4 0.113847 0.500000 0.648061
O O5 0.000000 0.500000 0.690120
O O6 0.089545 0.614756 0.918951
O O7 0.086726 0.500000 0.000000
O O8 0.000000 0.579128 0.000000
O O9 0.383960 0.812876 0.785721
O O10 0.820821 0.411058 0.843902
O O11 0.712468 0.436197 0.889738
O O12 0.788394 0.422641 0.000000
O O13 0.656520 0.000000 0.500000
#
# Coordination Sequence:
#
# PCOD9511841 Si02
#       7
#    16  16  16  16  32  32  16
#     4   9  17  32  52  81 124 159 190 229 287 378
#     4  12  25  41  61  83 112 164 213 253 301 356
#     4  11  22  38  60  89 122 163 207 256 307 360
#     4   9  20  34  55  86 118 158 199 239 306 354
#     4  10  19  33  56  90 122 150 187 238 305 362
#     4  11  21  37  62  92 124 158 200 251 304 372
#     4  10  23  38  58  88 119 151 195 252 303 360
#
# _framework density 18.636889
#
# number of rings (size 3 to 8) (size 9 to 14) (size 15 to 20)
#    0.000    1.667    2.222    3.000    0.000    3.778 
#    0.000    2.222    2.444    0.000    0.000    0.000 
#    0.000    0.000    0.000    0.000    0.000    0.000 
#
# Total GULP energy -200820.788337 kJ/mol
# GULP energy per Si atom -5578.355232 kJ/mol
# Density = 1.859447 g / cm^3
# Si number density = 18.636889 Si / 1000 Ang^3
#
#
#
# Elastic Constant Matrix: (Units=GPa)
#
#
# Indices 1 2 3 4 5 6 
#
# 1 111.4253 43.7700 52.1476 0.0000 0.0000 0.0000
# 2 43.7700 117.4486 52.5241 0.0000 0.0000 0.0000
# 3 52.1476 52.5241 99.2107 0.0000 0.0000 0.0000
# 4 0.0000 0.0000 0.0000 25.0587 0.0000 0.0000
# 5 0.0000 0.0000 0.0000 0.0000 -14.0410 0.0000
# 6 0.0000 0.0000 0.0000 0.0000 0.0000 15.4426
#
#
#
# Elastic Compliance Matrix: (Units=1/GPa)
#
#
# Indices 1 2 3 4 5 6 
#
# 1 0.012330 -0.002223 -0.005304 0.000000 0.000000 0.000000
# 2 -0.002223 0.011556 -0.004950 0.000000 0.000000 0.000000
# 3 -0.005304 -0.004950 0.015488 0.000000 0.000000 0.000000
# 4 0.000000 0.000000 0.000000 0.039906 0.000000 0.000000
# 5 0.000000 0.000000 0.000000 0.000000 -0.071220 0.000000
# 6 0.000000 0.000000 0.000000 0.000000 0.000000 0.064756
#
#
# Mechanical properties :
#
#
# Convention : Reuss Voigt Hill
#
# Bulk Modulus (GPa) = 69.34409 69.44088 69.39248
# Shear Modulus (GPa) = 48.74369 17.26827 33.00598
#
# Velocity S-wave (km/s) = 5.11969 3.04725 4.21289
# Velocity P-wave (km/s) = 8.49924 7.05137 7.80893
#
# Compressibility (1/GPa) = 0.01442084
#
# Stress axis : x y z
#
# Youngs Moduli (GPa) = 81.10132 86.53223 64.56615
#
# Poissons Ratio (x) = 0.19237 0.34247
# Poissons Ratio (y) = 0.18030 0.31958
# Poissons Ratio (z) = 0.43017 0.42831
#
# Static dielectric constant tensor:
#      x y z
#    x 1.653980 0.000000 0.000000 
#    y 0.000000 1.670050 0.000000 
#    z 0.000000 0.000000 1.661900 
# 
# From -- ./inp_files/25784.got.cif
#   From: 2010.05.17/outbox.cif.g08.bks.cpg/sg69_13_cif.got.tgz:25784.got - 2010.06.03 19:29:58.
