data_PCOD9511248
_publ_section_title
;
Structure prediction by ZEFSAII (Michael W. Deem and Ramdas Pophale) SiO2 
 PCOD9511248
Probable space group: F M M M
;
_chemical_formula_sum "Si O2"
_cell_formula_units_Z 112
_cell_length_a 11.723610
_cell_length_b 28.679762
_cell_length_c 14.008881
_cell_angle_alpha 90.000000
_cell_angle_beta 90.000000
_cell_angle_gamma 90.000000
_cell_volume 4710.210886
_symmetry_space_group_name_H-M "F M M M"
_symmetry_group_IT_number 69
_symmetry_cell_setting 'orthorhombic'
loop_
_space_group_symop_operation_xyz
x,y,z
-x,-y,z
x,-y,-z
-x,y,-z
-x,-y,-z
x,y,-z
-x,y,z
x,-y,z
x,1/2+y,1/2+z
-x,1/2-y,1/2+z
x,1/2-y,1/2-z
-x,1/2+y,1/2-z
-x,1/2-y,1/2-z
x,1/2+y,1/2-z
-x,1/2+y,1/2+z
x,1/2-y,1/2+z
1/2+x,y,1/2+z
1/2-x,-y,1/2+z
1/2+x,-y,1/2-z
1/2-x,y,1/2-z
1/2-x,-y,1/2-z
1/2+x,y,1/2-z
1/2-x,y,1/2+z
1/2+x,-y,1/2+z
1/2+x,1/2+y,z
1/2-x,1/2-y,z
1/2+x,1/2-y,-z
1/2-x,1/2+y,-z
1/2-x,1/2-y,-z
1/2+x,1/2+y,-z
1/2-x,1/2+y,z
1/2+x,1/2-y,z
loop_
_atom_site_type_symbol
_atom_site_label
_atom_site_fract_x
_atom_site_fract_y
_atom_site_fract_z
Si Si1 0.631069 0.272017 0.354395
Si Si2 0.305038 0.876627 0.115561
Si Si3 0.132141 0.949067 0.883748
Si Si4 0.000000 0.948114 0.384460
O O1 0.500000 0.266042 0.394609
O O2 0.624948 0.250000 0.250000
O O3 0.750000 0.250000 0.396940
O O4 0.656712 0.326949 0.346909
O O5 0.187260 0.900246 0.146626
O O6 0.391787 0.917703 0.140935
O O7 0.305935 0.870979 0.000000
O O8 0.000000 0.948856 0.858989
O O9 0.181113 0.000000 0.853908
O O10 0.141792 0.949199 0.000000
O O11 0.000000 0.951278 0.500000
O O12 0.000000 0.000000 0.346095
#
# Coordination Sequence:
#
# PCOD9511248 Si02
#       4
#    32  32  32  16
#     4  10  22  40  58  76 104 142 197 241 287 338
#     4  10  18  30  51  80 113 145 181 227 275 324
#     4   8  14  25  43  73 116 157 185 212 260 335
#     4   9  16  26  45  78 116 142 162 201 264 331
#
# _framework density 23.778130000000001
#
# number of rings (size 3 to 8) (size 9 to 14) (size 15 to 20)
#    0.000    2.714    1.429    1.714    0.000    5.143 
#    0.000    0.000    0.000    0.000    0.000   16.000 
#    0.000    0.000    0.000    0.000    0.000    1.714 
#
# Total GULP energy -156228.656508 kJ/mol
# GULP energy per Si atom -5579.594875 kJ/mol
# Density = 2.372401 g / cm^3
# Si number density = 23.778130 Si / 1000 Ang^3
#
#
#
# Elastic Constant Matrix: (Units=GPa)
#
#
# Indices 1 2 3 4 5 6 
#
# 1 150.9525 81.3550 20.6539 0.0000 0.0000 0.0000
# 2 81.3550 227.5524 38.4488 0.0000 0.0000 0.0000
# 3 20.6539 38.4488 100.9589 0.0000 0.0000 0.0000
# 4 0.0000 0.0000 0.0000 29.5141 0.0000 0.0000
# 5 0.0000 0.0000 0.0000 0.0000 3.4247 0.0000
# 6 0.0000 0.0000 0.0000 0.0000 0.0000 -65.2788
#
#
#
# Elastic Compliance Matrix: (Units=1/GPa)
#
#
# Indices 1 2 3 4 5 6 
#
# 1 0.008240 -0.002844 -0.000603 0.000000 0.000000 0.000000
# 2 -0.002844 0.005679 -0.001581 0.000000 0.000000 0.000000
# 3 -0.000603 -0.001581 0.010630 0.000000 0.000000 0.000000
# 4 0.000000 0.000000 0.000000 0.033882 0.000000 0.000000
# 5 0.000000 0.000000 0.000000 0.000000 0.291993 0.000000
# 6 0.000000 0.000000 0.000000 0.000000 0.000000 -0.015319
#
#
# Mechanical properties :
#
#
# Convention : Reuss Voigt Hill
#
# Bulk Modulus (GPa) = 68.99475 84.48657 76.74066
# Shear Modulus (GPa) = 14.28608 16.13241 15.20924
#
# Velocity S-wave (km/s) = 2.45380 2.60754 2.53184
# Velocity P-wave (km/s) = 6.09157 6.68387 6.39458
#
# Compressibility (1/GPa) = 0.01449386
#
# Stress axis : x y z
#
# Youngs Moduli (GPa) = 121.36115 176.10213 94.07082
#
# Poissons Ratio (x) = 0.50086 0.05668
# Poissons Ratio (y) = 0.34517 0.14870
# Poissons Ratio (z) = 0.07313 0.27837
#
# Static dielectric constant tensor:
#      x y z
#    x 2.105930 0.000000 0.000000 
#    y 0.000000 1.815460 0.000000 
#    z 0.000000 0.000000 1.982290 
# 
# From -- ./inp_files/8289.got.cif
#   From: 2010.05.17/outbox.cif.g08.bks.cpg/sg69_5_cif.got.tgz:8289.got - 2010.06.03 19:29:58.
