data_PCOD9511831
_publ_section_title
;
Structure prediction by ZEFSAII (Michael W. Deem and Ramdas Pophale) SiO2 
 PCOD9511831
Probable space group: F M M M
;
_chemical_formula_sum "Si O2"
_cell_formula_units_Z 160
_cell_length_a 17.752681
_cell_length_b 17.017157
_cell_length_c 28.230711
_cell_angle_alpha 90.000000
_cell_angle_beta 90.000000
_cell_angle_gamma 90.000000
_cell_volume 8528.502303
_symmetry_space_group_name_H-M "F M M M"
_symmetry_group_IT_number 69
_symmetry_cell_setting 'orthorhombic'
loop_
_space_group_symop_operation_xyz
x,y,z
-x,-y,z
x,-y,-z
-x,y,-z
-x,-y,-z
x,y,-z
-x,y,z
x,-y,z
x,1/2+y,1/2+z
-x,1/2-y,1/2+z
x,1/2-y,1/2-z
-x,1/2+y,1/2-z
-x,1/2-y,1/2-z
x,1/2+y,1/2-z
-x,1/2+y,1/2+z
x,1/2-y,1/2+z
1/2+x,y,1/2+z
1/2-x,-y,1/2+z
1/2+x,-y,1/2-z
1/2-x,y,1/2-z
1/2-x,-y,1/2-z
1/2+x,y,1/2-z
1/2-x,y,1/2+z
1/2+x,-y,1/2+z
1/2+x,1/2+y,z
1/2-x,1/2-y,z
1/2+x,1/2-y,-z
1/2-x,1/2+y,-z
1/2-x,1/2-y,-z
1/2+x,1/2+y,-z
1/2-x,1/2+y,z
1/2+x,1/2-y,z
loop_
_atom_site_type_symbol
_atom_site_label
_atom_site_fract_x
_atom_site_fract_y
_atom_site_fract_z
Si Si1 0.909097 0.415077 0.943631
Si Si2 0.213027 0.591530 0.800605
Si Si3 0.588826 0.760564 0.556757
Si Si4 0.187314 0.681838 0.630686
Si Si5 0.585127 0.218159 0.196519
O O1 0.881834 0.500000 0.923864
O O2 0.886760 0.328071 0.926238
O O3 0.000000 0.415466 0.939700
O O4 0.892132 0.415755 0.000000
O O5 0.196206 0.500000 0.798477
O O6 0.250000 0.615557 0.750000
O O7 0.270952 0.611009 0.843052
O O8 0.138531 0.642872 0.807082
O O9 0.594707 0.761764 0.500000
O O10 0.500000 0.771669 0.568147
O O11 0.644562 0.822871 0.580807
O O12 0.250000 0.750000 0.627624
O O13 0.122015 0.714215 0.664967
O O14 0.500000 0.200437 0.181917
O O15 0.585169 0.250000 0.250000
#
# Coordination Sequence:
#
# PCOD9511831 Si02
#       5
#    32  32  32  32  32
#     4   7  10  19  38  65  98 136 175 217 269 323
#     4  10  20  36  57  80 111 147 184 229 282 340
#     4   9  17  30  49  75 108 147 193 241 286 334
#     4  10  20  33  54  78 107 146 188 235 279 338
#     4  10  19  33  56  83 111 142 179 227 279 337
#
# _framework density 18.760622000000001
#
# number of rings (size 3 to 8) (size 9 to 14) (size 15 to 20)
#    0.000    2.800    2.000    2.400    0.000    0.800 
#    0.000    4.000    0.000    7.800    0.000    1.400 
#    0.000    0.000    0.000    3.000    0.000    0.000 
#
# Total GULP energy -222875.254392 kJ/mol
# GULP energy per Si atom -5571.881360 kJ/mol
# Density = 1.871792 g / cm^3
# Si number density = 18.760622 Si / 1000 Ang^3
#
#
#
# Elastic Constant Matrix: (Units=GPa)
#
#
# Indices 1 2 3 4 5 6 
#
# 1 97.3239 31.5124 28.0413 0.0000 0.0000 0.0000
# 2 31.5124 39.8161 5.6379 0.0000 0.0000 0.0000
# 3 28.0413 5.6379 57.8658 0.0000 0.0000 0.0000
# 4 0.0000 0.0000 0.0000 16.9220 0.0000 0.0000
# 5 0.0000 0.0000 0.0000 0.0000 28.8773 0.0000
# 6 0.0000 0.0000 0.0000 0.0000 0.0000 7.0488
#
#
#
# Elastic Compliance Matrix: (Units=1/GPa)
#
#
# Indices 1 2 3 4 5 6 
#
# 1 0.015964 -0.011701 -0.006596 0.000000 0.000000 0.000000
# 2 -0.011701 0.034043 0.002353 0.000000 0.000000 0.000000
# 3 -0.006596 0.002353 0.020248 0.000000 0.000000 0.000000
# 4 0.000000 0.000000 0.000000 0.059095 0.000000 0.000000
# 5 0.000000 0.000000 0.000000 0.000000 0.034629 0.000000
# 6 0.000000 0.000000 0.000000 0.000000 0.000000 0.141868
#
#
# Mechanical properties :
#
#
# Convention : Reuss Voigt Hill
#
# Bulk Modulus (GPa) = 26.06316 36.15432 31.10874
# Shear Modulus (GPa) = 14.26438 19.22390 16.74414
#
# Velocity S-wave (km/s) = 2.76041 3.20456 2.99074
# Velocity P-wave (km/s) = 4.90739 5.74504 5.34266
#
# Compressibility (1/GPa) = 0.03836834
#
# Stress axis : x y z
#
# Youngs Moduli (GPa) = 62.64095 29.37484 49.38641
#
# Poissons Ratio (x) = 0.34371 0.32575
# Poissons Ratio (y) = 0.73294 -0.11622
# Poissons Ratio (z) = 0.41318 -0.06913
#
# Static dielectric constant tensor:
#      x y z
#    x 1.634080 0.000000 0.000000 
#    y 0.000000 1.667280 0.000000 
#    z 0.000000 0.000000 1.722060 
# 
# From -- ./inp_files/23134.got.cif
#   From: 2010.05.17/outbox.cif.g08.bks.cpg/sg69_12_cif.got.tgz:23134.got - 2010.06.03 19:29:58.
