data_PCOD9511195
_publ_section_title
;
Structure prediction by ZEFSAII (Michael W. Deem and Ramdas Pophale) SiO2 
 PCOD9511195
Probable space group: F M M M
;
_chemical_formula_sum "Si O2"
_cell_formula_units_Z 208
_cell_length_a 23.066442
_cell_length_b 17.292376
_cell_length_c 28.719146
_cell_angle_alpha 90.000000
_cell_angle_beta 90.000000
_cell_angle_gamma 90.000000
_cell_volume 11455.308811
_symmetry_space_group_name_H-M "F M M M"
_symmetry_group_IT_number 69
_symmetry_cell_setting 'orthorhombic'
loop_
_space_group_symop_operation_xyz
x,y,z
-x,-y,z
x,-y,-z
-x,y,-z
-x,-y,-z
x,y,-z
-x,y,z
x,-y,z
x,1/2+y,1/2+z
-x,1/2-y,1/2+z
x,1/2-y,1/2-z
-x,1/2+y,1/2-z
-x,1/2-y,1/2-z
x,1/2+y,1/2-z
-x,1/2+y,1/2+z
x,1/2-y,1/2+z
1/2+x,y,1/2+z
1/2-x,-y,1/2+z
1/2+x,-y,1/2-z
1/2-x,y,1/2-z
1/2-x,-y,1/2-z
1/2+x,y,1/2-z
1/2-x,y,1/2+z
1/2+x,-y,1/2+z
1/2+x,1/2+y,z
1/2-x,1/2-y,z
1/2+x,1/2-y,-z
1/2-x,1/2+y,-z
1/2-x,1/2-y,-z
1/2+x,1/2+y,-z
1/2-x,1/2+y,z
1/2+x,1/2-y,z
loop_
_atom_site_type_symbol
_atom_site_label
_atom_site_fract_x
_atom_site_fract_y
_atom_site_fract_z
Si Si1 0.933448 0.218761 0.054726
Si Si2 0.685883 0.094025 0.807224
Si Si3 0.622973 0.091703 0.390977
Si Si4 0.569088 0.500000 0.555762
Si Si5 0.139347 0.144589 0.403033
Si Si6 0.820753 0.593792 0.298310
Si Si7 0.757170 0.408588 0.445502
O O1 0.924901 0.137720 0.080698
O O2 0.891605 0.277832 0.080988
O O3 0.000000 0.245111 0.057785
O O4 0.918508 0.213374 0.000000
O O5 0.649862 0.133048 0.848177
O O6 0.754273 0.114894 0.810767
O O7 0.667167 0.116208 0.754915
O O8 0.682024 0.000000 0.812109
O O9 0.634930 0.119192 0.338136
O O10 0.683867 0.105163 0.417729
O O11 0.611916 0.000000 0.390806
O O12 0.500000 0.500000 0.564321
O O13 0.578256 0.500000 0.500000
O O14 0.600049 0.425313 0.577422
O O15 0.202721 0.137721 0.426154
O O16 0.820923 0.500000 0.298944
O O17 0.765847 0.393736 0.500000
O O18 0.742923 0.500000 0.439508
#
# Coordination Sequence:
#
# PCOD9511195 Si02
#       7
#    32  32  32  16  32  32  32
#     4  11  26  44  58  77 109 151 201 248 286 336
#     4   9  15  29  54  88 121 154 185 219 274 339
#     4  10  20  38  62  86 111 142 186 242 303 353
#     4  11  22  34  52  77 110 162 211 230 258 326
#     4  12  20  34  56  82 119 155 188 232 278 332
#     4   8  15  29  55  88 120 146 182 230 281 342
#     4  10  18  29  51  85 118 143 175 225 284 346
#
# _framework density 18.157520000000002
#
# number of rings (size 3 to 8) (size 9 to 14) (size 15 to 20)
#    0.000    1.923    3.077    3.231    0.000    3.077 
#    0.000    3.077    0.000    4.615    0.000    0.000 
#    0.000    0.000    0.000    0.000    0.000    0.000 
#
# Total GULP energy -290286.527477 kJ/mol
# GULP energy per Si atom -5582.433221 kJ/mol
# Density = 1.811619 g / cm^3
# Si number density = 18.157520 Si / 1000 Ang^3
#
#
#
# Elastic Constant Matrix: (Units=GPa)
#
#
# Indices 1 2 3 4 5 6 
#
# 1 26.8893 7.6079 31.9048 0.0000 0.0000 0.0000
# 2 7.6079 30.8817 27.6042 0.0000 0.0000 0.0000
# 3 31.9048 27.6042 144.5390 0.0000 0.0000 0.0000
# 4 0.0000 0.0000 0.0000 20.5075 0.0000 0.0000
# 5 0.0000 0.0000 0.0000 0.0000 16.6523 0.0000
# 6 0.0000 0.0000 0.0000 0.0000 0.0000 42.7328
#
#
#
# Elastic Compliance Matrix: (Units=1/GPa)
#
#
# Indices 1 2 3 4 5 6 
#
# 1 0.050614 -0.002994 -0.010601 0.000000 0.000000 0.000000
# 2 -0.002994 0.039225 -0.006830 0.000000 0.000000 0.000000
# 3 -0.010601 -0.006830 0.010563 0.000000 0.000000 0.000000
# 4 0.000000 0.000000 0.000000 0.048763 0.000000 0.000000
# 5 0.000000 0.000000 0.000000 0.000000 0.060052 0.000000
# 6 0.000000 0.000000 0.000000 0.000000 0.000000 0.023401
#
#
# Mechanical properties :
#
#
# Convention : Reuss Voigt Hill
#
# Bulk Modulus (GPa) = 16.79183 37.39376 27.09279
# Shear Modulus (GPa) = 17.04637 24.99139 21.01888
#
# Velocity S-wave (km/s) = 3.06732 3.71397 3.40602
# Velocity P-wave (km/s) = 4.67039 6.24741 5.51556
#
# Compressibility (1/GPa) = 0.05955278
#
# Stress axis : x y z
#
# Youngs Moduli (GPa) = 19.75719 25.49425 94.67043
#
# Poissons Ratio (x) = 0.07632 1.00357
# Poissons Ratio (y) = 0.05914 0.64663
# Poissons Ratio (z) = 0.20944 0.17413
#
# Static dielectric constant tensor:
#      x y z
#    x 1.595800 0.000000 0.000000 
#    y 0.000000 1.661870 0.000000 
#    z 0.000000 0.000000 1.633880 
# 
# From -- ./inp_files/43290.got.cif
#   From: 2010.05.17/outbox.cif.g08.bks.cpg/sg69_22_cif.got.tgz:43290.got - 2010.06.03 19:29:58.
