data_PCOD9511557
_publ_section_title
;
Structure prediction by ZEFSAII (Michael W. Deem and Ramdas Pophale) SiO2 
 PCOD9511557
Probable space group: F M M M
;
_chemical_formula_sum "Si O2"
_cell_formula_units_Z 192
_cell_length_a 30.675976
_cell_length_b 19.955427
_cell_length_c 14.829521
_cell_angle_alpha 90.000000
_cell_angle_beta 90.000000
_cell_angle_gamma 90.000000
_cell_volume 9077.923901
_symmetry_space_group_name_H-M "F M M M"
_symmetry_group_IT_number 69
_symmetry_cell_setting 'orthorhombic'
loop_
_space_group_symop_operation_xyz
x,y,z
-x,-y,z
x,-y,-z
-x,y,-z
-x,-y,-z
x,y,-z
-x,y,z
x,-y,z
x,1/2+y,1/2+z
-x,1/2-y,1/2+z
x,1/2-y,1/2-z
-x,1/2+y,1/2-z
-x,1/2-y,1/2-z
x,1/2+y,1/2-z
-x,1/2+y,1/2+z
x,1/2-y,1/2+z
1/2+x,y,1/2+z
1/2-x,-y,1/2+z
1/2+x,-y,1/2-z
1/2-x,y,1/2-z
1/2-x,-y,1/2-z
1/2+x,y,1/2-z
1/2-x,y,1/2+z
1/2+x,-y,1/2+z
1/2+x,1/2+y,z
1/2-x,1/2-y,z
1/2+x,1/2-y,-z
1/2-x,1/2+y,-z
1/2-x,1/2-y,-z
1/2+x,1/2+y,-z
1/2-x,1/2+y,z
1/2+x,1/2-y,z
loop_
_atom_site_type_symbol
_atom_site_label
_atom_site_fract_x
_atom_site_fract_y
_atom_site_fract_z
Si Si1 0.700836 0.424582 0.107294
Si Si2 0.373301 0.676752 0.356181
Si Si3 0.119738 0.672911 0.640469
Si Si4 0.549737 0.427318 0.143108
Si Si5 0.049771 0.422652 0.862689
Si Si6 0.771497 0.678648 0.891149
O O1 0.695071 0.500000 0.144661
O O2 0.660260 0.374839 0.119433
O O3 0.742039 0.382749 0.142376
O O4 0.706862 0.431353 0.000000
O O5 0.381238 0.678063 0.248881
O O6 0.378569 0.751730 0.394087
O O7 0.410010 0.624851 0.391305
O O8 0.321757 0.664253 0.367946
O O9 0.077538 0.633620 0.608375
O O10 0.500000 0.424529 0.113992
O O11 0.568573 0.500000 0.117630
O O12 0.549919 0.424157 0.252745
O O13 0.056029 0.500000 0.891473
O O14 0.000000 0.401905 0.888544
O O15 0.750000 0.750000 0.860116
O O16 0.769217 0.681071 0.000000
#
# Coordination Sequence:
#
# PCOD9511557 Si02
#       6
#    32  32  32  32  32  32
#     4  10  21  37  56  76 100 136 180 219 261 318
#     4  10  20  31  50  79 105 135 173 215 267 314
#     4  10  19  31  47  77 109 132 167 218 269 310
#     4   8  14  26  45  68  98 136 171 206 254 312
#     4   8  15  29  48  71 102 138 172 209 258 315
#     4  10  20  37  56  72  98 139 179 215 257 312
#
# _framework density 21.150210999999999
#
# number of rings (size 3 to 8) (size 9 to 14) (size 15 to 20)
#    0.000    2.667    1.667    1.500    0.000    2.667 
#    0.000    4.167    0.000    1.000    0.000    5.833 
#    0.000    0.000    0.000    0.000    0.000    0.000 
#
# Total GULP energy -267670.802692 kJ/mol
# GULP energy per Si atom -5576.475056 kJ/mol
# Density = 2.110207 g / cm^3
# Si number density = 21.150211 Si / 1000 Ang^3
#
#
#
# Elastic Constant Matrix: (Units=GPa)
#
#
# Indices 1 2 3 4 5 6 
#
# 1 170.2774 117.9768 -3.5657 0.0000 0.0000 0.0000
# 2 117.9768 188.8687 5.3491 0.0000 0.0000 0.0000
# 3 -3.5657 5.3491 61.7507 0.0000 0.0000 0.0000
# 4 0.0000 0.0000 0.0000 1.8563 0.0000 0.0000
# 5 0.0000 0.0000 0.0000 0.0000 26.3225 0.0000
# 6 0.0000 0.0000 0.0000 0.0000 0.0000 49.7079
#
#
#
# Elastic Compliance Matrix: (Units=1/GPa)
#
#
# Indices 1 2 3 4 5 6 
#
# 1 0.010437 -0.006553 0.001170 0.000000 0.000000 0.000000
# 2 -0.006553 0.009422 -0.001195 0.000000 0.000000 0.000000
# 3 0.001170 -0.001195 0.016365 0.000000 0.000000 0.000000
# 4 0.000000 0.000000 0.000000 0.538713 0.000000 0.000000
# 5 0.000000 0.000000 0.000000 0.000000 0.037990 0.000000
# 6 0.000000 0.000000 0.000000 0.000000 0.000000 0.020118
#
#
# Mechanical properties :
#
#
# Convention : Reuss Voigt Hill
#
# Bulk Modulus (GPa) = 43.34592 73.37969 58.36280
# Shear Modulus (GPa) = 7.64655 35.65310 21.64982
#
# Velocity S-wave (km/s) = 1.90347 4.11019 3.20288
# Velocity P-wave (km/s) = 5.03684 7.56933 6.42902
#
# Compressibility (1/GPa) = 0.02307022
#
# Stress axis : x y z
#
# Youngs Moduli (GPa) = 95.80869 106.13695 61.10527
#
# Poissons Ratio (x) = 0.69551 -0.07151
# Poissons Ratio (y) = 0.62783 0.07299
# Poissons Ratio (z) = -0.11213 0.12678
#
# Static dielectric constant tensor:
#      x y z
#    x 1.757500 0.000000 0.000000 
#    y 0.000000 1.760740 0.000000 
#    z 0.000000 0.000000 1.814490 
# 
# From -- ./inp_files/32854.got.cif
#   From: 2010.05.17/outbox.cif.g08.bks.cpg/sg69_17_cif.got.tgz:32854.got - 2010.06.03 19:29:58.
