data_PCOD9511180
_publ_section_title
;
Structure prediction by ZEFSAII (Michael W. Deem and Ramdas Pophale) SiO2 
 PCOD9511180
Probable space group: F M M M
;
_chemical_formula_sum "Si O2"
_cell_formula_units_Z 160
_cell_length_a 35.806241
_cell_length_b 25.725395
_cell_length_c 7.425061
_cell_angle_alpha 90.000000
_cell_angle_beta 90.000000
_cell_angle_gamma 90.000000
_cell_volume 6839.444161
_symmetry_space_group_name_H-M "F M M M"
_symmetry_group_IT_number 69
_symmetry_cell_setting 'orthorhombic'
loop_
_space_group_symop_operation_xyz
x,y,z
-x,-y,z
x,-y,-z
-x,y,-z
-x,-y,-z
x,y,-z
-x,y,z
x,-y,z
x,1/2+y,1/2+z
-x,1/2-y,1/2+z
x,1/2-y,1/2-z
-x,1/2+y,1/2-z
-x,1/2-y,1/2-z
x,1/2+y,1/2-z
-x,1/2+y,1/2+z
x,1/2-y,1/2+z
1/2+x,y,1/2+z
1/2-x,-y,1/2+z
1/2+x,-y,1/2-z
1/2-x,y,1/2-z
1/2-x,-y,1/2-z
1/2+x,y,1/2-z
1/2-x,y,1/2+z
1/2+x,-y,1/2+z
1/2+x,1/2+y,z
1/2-x,1/2-y,z
1/2+x,1/2-y,-z
1/2-x,1/2+y,-z
1/2-x,1/2-y,-z
1/2+x,1/2+y,-z
1/2-x,1/2+y,z
1/2+x,1/2-y,z
loop_
_atom_site_type_symbol
_atom_site_label
_atom_site_fract_x
_atom_site_fract_y
_atom_site_fract_z
Si Si1 0.793167 0.169312 0.716103
Si Si2 0.956162 0.000000 0.719399
Si Si3 0.128387 0.805118 0.284757
Si Si4 0.794196 0.445931 0.214793
Si Si5 0.500000 0.312077 0.715187
Si Si6 0.931342 0.114751 0.279690
O O1 0.794694 0.169171 0.500000
O O2 0.750000 0.184232 0.750000
O O3 0.829334 0.198702 0.788035
O O4 0.802042 0.111030 0.784234
O O5 0.938034 0.944958 0.778014
O O6 0.954834 0.000000 0.500000
O O7 0.000000 0.000000 0.769653
O O8 0.130145 0.810218 0.500000
O O9 0.108618 0.750000 0.250000
O O10 0.106269 0.855820 0.220762
O O11 0.811234 0.500000 0.284429
O O12 0.750000 0.449430 0.250000
O O13 0.800906 0.444935 0.000000
O O14 0.500000 0.316257 0.500000
O O15 0.500000 0.250000 0.750000
O O16 0.464235 0.345610 0.777248
O O17 0.931448 0.113252 0.500000
#
# Coordination Sequence:
#
# PCOD9511180 Si02
#       6
#    32  16  32  32  16  32
#     4   9  18  32  49  70  96 126 166 213 259 307
#     4   9  14  26  50  80 111 138 164 206 260 306
#     4  10  21  36  51  72 103 136 172 215 258 304
#     4   8  13  23  40  61  85 112 142 182 234 289
#     4  10  18  29  49  77 107 138 173 208 242 294
#     4   9  17  30  49  76 108 137 168 208 255 304
#
# _framework density 23.393713000000002
#
# number of rings (size 3 to 8) (size 9 to 14) (size 15 to 20)
#    0.000    2.900    1.000    0.600    0.000    1.200 
#    1.800    2.000    0.000    0.000    0.000    3.500 
#    0.000    0.000    0.000    0.000    0.000    0.000 
#
# Total GULP energy -222752.357190 kJ/mol
# GULP energy per Si atom -5568.808930 kJ/mol
# Density = 2.334047 g / cm^3
# Si number density = 23.393713 Si / 1000 Ang^3
#
#
#
# Elastic Constant Matrix: (Units=GPa)
#
#
# Indices 1 2 3 4 5 6 
#
# 1 130.1260 83.3740 5.1998 0.0034 -0.0001 -0.0001
# 2 83.3740 236.7640 -4.2540 -0.0067 -0.0001 0.0000
# 3 5.1998 -4.2540 78.8578 -0.0157 -0.0003 -0.0002
# 4 0.0034 -0.0067 -0.0157 13.6417 -0.0001 0.0000
# 5 -0.0001 -0.0001 -0.0003 -0.0001 -3.8863 0.0014
# 6 -0.0001 0.0000 -0.0002 0.0000 0.0014 25.4254
#
#
#
# Elastic Compliance Matrix: (Units=1/GPa)
#
#
# Indices 1 2 3 4 5 6 
#
# 1 0.009980 -0.003530 -0.000849 -0.000005 0.000000 0.000000
# 2 -0.003530 0.005476 0.000528 0.000004 0.000000 0.000000
# 3 -0.000849 0.000528 0.012765 0.000015 -0.000001 0.000000
# 4 -0.000005 0.000004 0.000015 0.073305 -0.000002 0.000000
# 5 0.000000 0.000000 -0.000001 -0.000002 -0.257313 0.000014
# 6 0.000000 0.000000 0.000000 0.000000 0.000014 0.039331
#
#
# Mechanical properties :
#
#
# Convention : Reuss Voigt Hill
#
# Bulk Modulus (GPa) = 48.72880 68.26528 58.49704
# Shear Modulus (GPa) = -49.06054 31.13136 -8.96459
#
# Velocity S-wave (km/s) = -4.58445 3.65191 -1.95969
# Velocity P-wave (km/s) = 2.67355 6.85758 4.46534
#
# Compressibility (1/GPa) = 0.02052174
#
# Stress axis : x y z
#
# Youngs Moduli (GPa) = 100.19724 182.61322 78.33617
#
# Poissons Ratio (x) = 0.64457 0.06647
# Poissons Ratio (y) = 0.35367 -0.04137
# Poissons Ratio (z) = 0.08502 -0.09645
#
# Static dielectric constant tensor:
#      x y z
#    x 1.889770 0.000000 0.000000 
#    y 0.000000 1.965040 0.000000 
#    z 0.000000 0.000000 1.936340 
# 
# From -- ./inp_files/11508.got.cif
#   From: 2010.05.17/outbox.cif.g08.bks.cpg/sg69_6_cif.got.tgz:11508.got - 2010.06.03 19:29:58.
