data_PCOD9511258
_publ_section_title
;
Structure prediction by ZEFSAII (Michael W. Deem and Ramdas Pophale) SiO2 
 PCOD9511258
Probable space group: F M M M
;
_chemical_formula_sum "Si O2"
_cell_formula_units_Z 136
_cell_length_a 17.815495
_cell_length_b 19.309450
_cell_length_c 20.042045
_cell_angle_alpha 90.000000
_cell_angle_beta 90.000000
_cell_angle_gamma 90.000000
_cell_volume 6894.611990
_symmetry_space_group_name_H-M "F M M M"
_symmetry_group_IT_number 69
_symmetry_cell_setting 'orthorhombic'
loop_
_space_group_symop_operation_xyz
x,y,z
-x,-y,z
x,-y,-z
-x,y,-z
-x,-y,-z
x,y,-z
-x,y,z
x,-y,z
x,1/2+y,1/2+z
-x,1/2-y,1/2+z
x,1/2-y,1/2-z
-x,1/2+y,1/2-z
-x,1/2-y,1/2-z
x,1/2+y,1/2-z
-x,1/2+y,1/2+z
x,1/2-y,1/2+z
1/2+x,y,1/2+z
1/2-x,-y,1/2+z
1/2+x,-y,1/2-z
1/2-x,y,1/2-z
1/2-x,-y,1/2-z
1/2+x,y,1/2-z
1/2-x,y,1/2+z
1/2+x,-y,1/2+z
1/2+x,1/2+y,z
1/2-x,1/2-y,z
1/2+x,1/2-y,-z
1/2-x,1/2+y,-z
1/2-x,1/2-y,-z
1/2+x,1/2+y,-z
1/2-x,1/2+y,z
1/2+x,1/2-y,z
loop_
_atom_site_type_symbol
_atom_site_label
_atom_site_fract_x
_atom_site_fract_y
_atom_site_fract_z
Si Si1 0.913334 0.083560 0.255744
Si Si2 0.087174 0.893170 0.000000
Si Si3 0.814843 0.420015 0.370950
Si Si4 0.874236 0.000000 0.500000
Si Si5 0.912642 0.772317 0.500000
Si Si6 0.849172 0.626409 0.104219
O O1 0.859560 0.103205 0.194496
O O2 0.888012 0.118248 0.324336
O O3 0.000000 0.099628 0.240339
O O4 0.907532 0.000000 0.263543
O O5 0.130260 0.918430 0.065658
O O6 0.091192 0.809982 0.000000
O O7 0.000000 0.914068 0.000000
O O8 0.790462 0.500000 0.360442
O O9 0.740303 0.377359 0.386289
O O10 0.872020 0.061119 0.557879
O O11 0.874026 0.805570 0.435324
O O12 0.000000 0.793629 0.500000
#
# Coordination Sequence:
#
# PCOD9511258 Si02
#       6
#    32  16  32   8  16  32
#     4  10  20  35  55  87 123 156 191 235 293 350
#     4  11  24  42  59  81 116 157 201 247 289 339
#     4  11  22  36  62  89 119 151 194 243 293 348
#     4  10  18  30  53  86 113 152 180 226 284 338
#     4  10  24  41  58  83 117 157 199 241 289 346
#     4  11  20  36  60  86 122 152 191 237 292 346
#
# _framework density 19.725548
#
# number of rings (size 3 to 8) (size 9 to 14) (size 15 to 20)
#    0.000    1.412    2.353    3.882    0.000    5.647 
#    0.000    2.941    0.000    7.059    0.000    0.000 
#    0.000    0.000    0.000    0.000    0.000    0.000 
#
# Total GULP energy -189571.663725 kJ/mol
# GULP energy per Si atom -5575.637168 kJ/mol
# Density = 1.968065 g / cm^3
# Si number density = 19.725548 Si / 1000 Ang^3
#
#
#
# Elastic Constant Matrix: (Units=GPa)
#
#
# Indices 1 2 3 4 5 6 
#
# 1 116.2861 27.3439 32.3954 0.0000 0.0000 0.0000
# 2 27.3439 45.5661 18.8986 0.0000 0.0000 0.0000
# 3 32.3954 18.8986 136.3589 0.0000 0.0000 0.0000
# 4 0.0000 0.0000 0.0000 -3.6656 0.0000 0.0000
# 5 0.0000 0.0000 0.0000 0.0000 32.7126 0.0000
# 6 0.0000 0.0000 0.0000 0.0000 0.0000 13.4750
#
#
#
# Elastic Compliance Matrix: (Units=1/GPa)
#
#
# Indices 1 2 3 4 5 6 
#
# 1 0.010370 -0.005519 -0.001699 0.000000 0.000000 0.000000
# 2 -0.005519 0.026221 -0.002323 0.000000 0.000000 0.000000
# 3 -0.001699 -0.002323 0.008059 0.000000 0.000000 0.000000
# 4 0.000000 0.000000 0.000000 -0.272804 0.000000 0.000000
# 5 0.000000 0.000000 0.000000 0.000000 0.030569 0.000000
# 6 0.000000 0.000000 0.000000 0.000000 0.000000 0.074211
#
#
# Mechanical properties :
#
#
# Convention : Reuss Voigt Hill
#
# Bulk Modulus (GPa) = 39.10862 50.60965 44.85913
# Shear Modulus (GPa) = -52.20913 23.14263 -14.53325
#
# Velocity S-wave (km/s) = -5.15027 3.42896 -2.71730
# Velocity P-wave (km/s) = 3.93669 6.43348 3.59806
#
# Compressibility (1/GPa) = 0.02556981
#
# Stress axis : x y z
#
# Youngs Moduli (GPa) = 96.42805 38.13689 124.08236
#
# Poissons Ratio (x) = 0.21046 0.21080
# Poissons Ratio (y) = 0.53215 0.28825
# Poissons Ratio (z) = 0.16382 0.08859
#
# Static dielectric constant tensor:
#      x y z
#    x 1.701380 0.000000 0.000000 
#    y 0.000000 1.669720 0.000000 
#    z 0.000000 0.000000 1.655480 
# 
# From -- ./inp_files/22627.got.cif
#   From: 2010.05.17/outbox.cif.g08.bks.cpg/sg69_12_cif.got.tgz:22627.got - 2010.06.03 19:29:58.
