data_PCOD9511813
_publ_section_title
;
Structure prediction by ZEFSAII (Michael W. Deem and Ramdas Pophale) SiO2 
 PCOD9511813
Probable space group: F M M M
;
_chemical_formula_sum "Si O2"
_cell_formula_units_Z 128
_cell_length_a 17.839821
_cell_length_b 21.368358
_cell_length_c 14.831901
_cell_angle_alpha 90.000000
_cell_angle_beta 90.000000
_cell_angle_gamma 90.000000
_cell_volume 5654.034597
_symmetry_space_group_name_H-M "F M M M"
_symmetry_group_IT_number 69
_symmetry_cell_setting 'orthorhombic'
loop_
_space_group_symop_operation_xyz
x,y,z
-x,-y,z
x,-y,-z
-x,y,-z
-x,-y,-z
x,y,-z
-x,y,z
x,-y,z
x,1/2+y,1/2+z
-x,1/2-y,1/2+z
x,1/2-y,1/2-z
-x,1/2+y,1/2-z
-x,1/2-y,1/2-z
x,1/2+y,1/2-z
-x,1/2+y,1/2+z
x,1/2-y,1/2+z
1/2+x,y,1/2+z
1/2-x,-y,1/2+z
1/2+x,-y,1/2-z
1/2-x,y,1/2-z
1/2-x,-y,1/2-z
1/2+x,y,1/2-z
1/2-x,y,1/2+z
1/2+x,-y,1/2+z
1/2+x,1/2+y,z
1/2-x,1/2-y,z
1/2+x,1/2-y,-z
1/2-x,1/2+y,-z
1/2-x,1/2-y,-z
1/2+x,1/2+y,-z
1/2-x,1/2+y,z
1/2+x,1/2-y,z
loop_
_atom_site_type_symbol
_atom_site_label
_atom_site_fract_x
_atom_site_fract_y
_atom_site_fract_z
Si Si1 0.655492 0.500000 0.400340
Si Si2 0.588151 0.613733 0.109507
Si Si3 0.808757 0.500000 0.333863
Si Si4 0.663679 0.254712 0.890080
Si Si5 0.086412 0.872377 0.609924
O O1 0.619958 0.500000 0.500000
O O2 0.744233 0.500000 0.408841
O O3 0.628021 0.564965 0.358412
O O4 0.500000 0.608900 0.132445
O O5 0.638680 0.560000 0.153512
O O6 0.621816 0.681425 0.134951
O O7 0.593613 0.607502 0.000000
O O8 0.750000 0.500000 0.250000
O O9 0.750000 0.250000 0.861700
O O10 0.622161 0.192240 0.858103
O O11 0.663190 0.254148 0.000000
O O12 0.091370 0.870362 0.500000
O O13 0.000000 0.876172 0.634880
#
# Coordination Sequence:
#
# PCOD9511813 Si02
#       5
#    16  32  16  32  32
#     4  10  19  33  55  80 107 144 190 235 280 339
#     4  10  20  37  63  91 117 150 197 250 300 351
#     4  12  25  39  55  79 112 150 186 235 299 363
#     4   9  16  27  49  84 120 148 180 233 296 347
#     4   9  16  27  46  77 113 142 175 225 281 334
#
# _framework density 22.638701000000001
#
# number of rings (size 3 to 8) (size 9 to 14) (size 15 to 20)
#    0.000    2.250    0.000    4.125    0.000    9.500 
#    0.000    2.500    0.000    6.750    0.000    8.750 
#    0.000    0.000    0.000    0.000    0.000    0.000 
#
# Total GULP energy -178820.920698 kJ/mol
# GULP energy per Si atom -5588.153772 kJ/mol
# Density = 2.258717 g / cm^3
# Si number density = 22.638701 Si / 1000 Ang^3
#
#
#
# Elastic Constant Matrix: (Units=GPa)
#
#
# Indices 1 2 3 4 5 6 
#
# 1 236.2422 160.2875 29.5871 0.0000 0.0000 0.0000
# 2 160.2875 279.1406 31.2485 0.0000 0.0000 0.0000
# 3 29.5871 31.2485 91.9081 0.0000 0.0000 0.0000
# 4 0.0000 0.0000 0.0000 -10.9757 0.0000 0.0000
# 5 0.0000 0.0000 0.0000 0.0000 10.6434 0.0000
# 6 0.0000 0.0000 0.0000 0.0000 0.0000 61.5918
#
#
#
# Elastic Compliance Matrix: (Units=1/GPa)
#
#
# Indices 1 2 3 4 5 6 
#
# 1 0.007009 -0.003921 -0.000923 0.000000 0.000000 0.000000
# 2 -0.003921 0.005918 -0.000750 0.000000 0.000000 0.000000
# 3 -0.000923 -0.000750 0.011433 0.000000 0.000000 0.000000
# 4 0.000000 0.000000 0.000000 -0.091110 0.000000 0.000000
# 5 0.000000 0.000000 0.000000 0.000000 0.093955 0.000000
# 6 0.000000 0.000000 0.000000 0.000000 0.000000 0.016236
#
#
# Mechanical properties :
#
#
# Convention : Reuss Voigt Hill
#
# Bulk Modulus (GPa) = 75.92330 116.61523 96.26927
# Shear Modulus (GPa) = 84.71751 37.99641 61.35696
#
# Velocity S-wave (km/s) = 6.12395 4.10125 5.21167
# Velocity P-wave (km/s) = 9.14404 8.60525 8.87873
#
# Compressibility (1/GPa) = 0.01317119
#
# Stress axis : x y z
#
# Youngs Moduli (GPa) = 142.66879 168.97190 87.46978
#
# Poissons Ratio (x) = 0.66262 0.08075
# Poissons Ratio (y) = 0.55947 0.06558
# Poissons Ratio (z) = 0.13170 0.12669
#
# Static dielectric constant tensor:
#      x y z
#    x 1.764830 0.000000 0.000000 
#    y 0.000000 1.792950 0.000000 
#    z 0.000000 0.000000 2.039150 
# 
# From -- ./inp_files/30686.got.cif
#   From: 2010.05.17/outbox.cif.g08.bks.cpg/sg69_16_cif.got.tgz:30686.got - 2010.06.03 19:29:58.
