data_PCOD9511881
_publ_section_title
;
Structure prediction by ZEFSAII (Michael W. Deem and Ramdas Pophale) SiO2 
 PCOD9511881
Probable space group: F M M M
;
_chemical_formula_sum "Si O2"
_cell_formula_units_Z 160
_cell_length_a 19.459402
_cell_length_b 25.924936
_cell_length_c 18.196227
_cell_angle_alpha 90.000000
_cell_angle_beta 90.000000
_cell_angle_gamma 90.000000
_cell_volume 9179.700859
_symmetry_space_group_name_H-M "F M M M"
_symmetry_group_IT_number 69
_symmetry_cell_setting 'orthorhombic'
loop_
_space_group_symop_operation_xyz
x,y,z
-x,-y,z
x,-y,-z
-x,y,-z
-x,-y,-z
x,y,-z
-x,y,z
x,-y,z
x,1/2+y,1/2+z
-x,1/2-y,1/2+z
x,1/2-y,1/2-z
-x,1/2+y,1/2-z
-x,1/2-y,1/2-z
x,1/2+y,1/2-z
-x,1/2+y,1/2+z
x,1/2-y,1/2+z
1/2+x,y,1/2+z
1/2-x,-y,1/2+z
1/2+x,-y,1/2-z
1/2-x,y,1/2-z
1/2-x,-y,1/2-z
1/2+x,y,1/2-z
1/2-x,y,1/2+z
1/2+x,-y,1/2+z
1/2+x,1/2+y,z
1/2-x,1/2-y,z
1/2+x,1/2-y,-z
1/2-x,1/2+y,-z
1/2-x,1/2-y,-z
1/2+x,1/2+y,-z
1/2-x,1/2+y,z
1/2+x,1/2-y,z
loop_
_atom_site_type_symbol
_atom_site_label
_atom_site_fract_x
_atom_site_fract_y
_atom_site_fract_z
Si Si1 0.421077 0.206753 0.310519
Si Si2 0.078006 0.500000 0.326911
Si Si3 0.275948 0.899407 0.165413
Si Si4 0.922538 0.099520 0.722363
Si Si5 0.715161 0.500000 0.087165
Si Si6 0.206440 0.697654 0.586072
O O1 0.500000 0.216304 0.333726
O O2 0.402714 0.250000 0.250000
O O3 0.418430 0.151272 0.270912
O O4 0.367087 0.206436 0.376066
O O5 0.086490 0.449802 0.275410
O O6 0.135425 0.500000 0.388923
O O7 0.000000 0.500000 0.355596
O O8 0.250000 0.901369 0.250000
O O9 0.358706 0.899009 0.167284
O O10 0.248993 0.949554 0.123266
O O11 0.244873 0.848642 0.127875
O O12 0.000000 0.096851 0.690664
O O13 0.722995 0.500000 0.000000
O O14 0.199610 0.685188 0.500000
O O15 0.250000 0.750000 0.593506
#
# Coordination Sequence:
#
# PCOD9511881 Si02
#       6
#    32  16  32  32  16  32
#     4  10  20  35  57  85 113 148 192 232 280 342
#     4  10  19  34  54  81 116 148 183 227 285 344
#     4  12  21  37  63  84 110 152 195 235 280 339
#     4  10  20  34  56  86 111 139 188 241 278 325
#     4  12  24  37  56  85 120 151 187 236 289 343
#     4  11  24  38  56  86 120 151 188 237 292 343
#
# _framework density 17.429762
#
# number of rings (size 3 to 8) (size 9 to 14) (size 15 to 20)
#    0.000    1.200    4.000    2.700    0.000    0.600 
#    0.000    0.000    0.000   10.200    0.000    0.000 
#    0.000    0.000    0.000    0.000    0.000    0.000 
#
# Total GULP energy -223444.356046 kJ/mol
# GULP energy per Si atom -5586.108901 kJ/mol
# Density = 1.739009 g / cm^3
# Si number density = 17.429762 Si / 1000 Ang^3
#
#
#
# Elastic Constant Matrix: (Units=GPa)
#
#
# Indices 1 2 3 4 5 6 
#
# 1 151.1497 34.3207 85.6115 0.0000 0.0000 0.0000
# 2 34.3207 124.6759 71.3189 0.0000 0.0000 0.0000
# 3 85.6115 71.3189 130.8468 0.0000 0.0000 0.0000
# 4 0.0000 0.0000 0.0000 24.7078 0.0000 0.0000
# 5 0.0000 0.0000 0.0000 0.0000 75.1019 0.0000
# 6 0.0000 0.0000 0.0000 0.0000 0.0000 38.2678
#
#
#
# Elastic Compliance Matrix: (Units=1/GPa)
#
#
# Indices 1 2 3 4 5 6 
#
# 1 0.010711 0.001541 -0.007848 0.000000 0.000000 0.000000
# 2 0.001541 0.011876 -0.007481 0.000000 0.000000 0.000000
# 3 -0.007848 -0.007481 0.016855 0.000000 0.000000 0.000000
# 4 0.000000 0.000000 0.000000 0.040473 0.000000 0.000000
# 5 0.000000 0.000000 0.000000 0.000000 0.013315 0.000000
# 6 0.000000 0.000000 0.000000 0.000000 0.000000 0.026132
#
#
# Mechanical properties :
#
#
# Convention : Reuss Voigt Hill
#
# Bulk Modulus (GPa) = 84.27846 87.68605 85.98226
# Shear Modulus (GPa) = 33.13563 41.97691 37.55627
#
# Velocity S-wave (km/s) = 4.36488 4.91281 4.64693
# Velocity P-wave (km/s) = 8.59425 9.08837 8.84476
#
# Compressibility (1/GPa) = 0.01186543
#
# Stress axis : x y z
#
# Youngs Moduli (GPa) = 93.35977 84.20189 59.32906
#
# Poissons Ratio (x) = -0.12974 0.46562
# Poissons Ratio (y) = -0.14385 0.44386
# Poissons Ratio (z) = 0.73269 0.62994
#
# Static dielectric constant tensor:
#      x y z
#    x 1.616460 0.000000 0.000000 
#    y 0.000000 1.579250 0.000000 
#    z 0.000000 0.000000 1.545160 
# 
# From -- ./inp_files/23223.got.cif
#   From: 2010.05.17/outbox.cif.g08.bks.cpg/sg69_12_cif.got.tgz:23223.got - 2010.06.03 19:29:58.
