data_PCOD9511833
_publ_section_title
;
Structure prediction by ZEFSAII (Michael W. Deem and Ramdas Pophale) SiO2 
 PCOD9511833
Probable space group: F M M M
;
_chemical_formula_sum "Si O2"
_cell_formula_units_Z 112
_cell_length_a 17.473783
_cell_length_b 10.234605
_cell_length_c 33.807065
_cell_angle_alpha 90.000000
_cell_angle_beta 90.000000
_cell_angle_gamma 90.000000
_cell_volume 6045.963105
_symmetry_space_group_name_H-M "F M M M"
_symmetry_group_IT_number 69
_symmetry_cell_setting 'orthorhombic'
loop_
_space_group_symop_operation_xyz
x,y,z
-x,-y,z
x,-y,-z
-x,y,-z
-x,-y,-z
x,y,-z
-x,y,z
x,-y,z
x,1/2+y,1/2+z
-x,1/2-y,1/2+z
x,1/2-y,1/2-z
-x,1/2+y,1/2-z
-x,1/2-y,1/2-z
x,1/2+y,1/2-z
-x,1/2+y,1/2+z
x,1/2-y,1/2+z
1/2+x,y,1/2+z
1/2-x,-y,1/2+z
1/2+x,-y,1/2-z
1/2-x,y,1/2-z
1/2-x,-y,1/2-z
1/2+x,y,1/2-z
1/2-x,y,1/2+z
1/2+x,-y,1/2+z
1/2+x,1/2+y,z
1/2-x,1/2-y,z
1/2+x,1/2-y,-z
1/2-x,1/2+y,-z
1/2-x,1/2-y,-z
1/2+x,1/2+y,-z
1/2-x,1/2+y,z
1/2+x,1/2-y,z
loop_
_atom_site_type_symbol
_atom_site_label
_atom_site_fract_x
_atom_site_fract_y
_atom_site_fract_z
Si Si1 0.093383 0.000000 0.810955
Si Si2 0.592467 0.219497 0.158218
Si Si3 0.086554 0.342047 0.000000
Si Si4 0.320787 0.847206 0.921285
Si Si5 0.093000 0.000000 0.720241
O O1 0.117027 0.132397 0.832728
O O2 0.119909 0.000000 0.765368
O O3 0.000000 0.000000 0.810203
O O4 0.500000 0.215440 0.155542
O O5 0.627733 0.167583 0.117771
O O6 0.615235 0.126778 0.194854
O O7 0.131496 0.307037 0.039771
O O8 0.082171 0.500000 0.000000
O O9 0.000000 0.290647 0.000000
O O10 0.250000 0.750000 0.917496
O O11 0.298380 0.000000 0.925450
O O12 0.000000 0.000000 0.721977
#
# Coordination Sequence:
#
# PCOD9511833 Si02
#       5
#    16  32  16  32  16
#     4   9  18  30  51  84 115 144 181 239 296 327
#     4  10  19  33  56  83 112 146 190 237 280 330
#     4   9  19  38  65  91 112 139 184 232 273 324
#     4  11  23  38  59  84 115 152 186 225 276 333
#     4   9  16  30  53  82 111 142 189 239 284 331
#
# _framework density 18.524757000000001
#
# number of rings (size 3 to 8) (size 9 to 14) (size 15 to 20)
#    0.000    2.143    1.429    2.143    2.000    4.571 
#    0.000    0.000    0.000    6.000    0.000    0.000 
#    0.000    0.000    0.000    0.000    0.000    0.000 
#
# Total GULP energy -156271.811814 kJ/mol
# GULP energy per Si atom -5581.136136 kJ/mol
# Density = 1.848259 g / cm^3
# Si number density = 18.524757 Si / 1000 Ang^3
#
#
#
# Elastic Constant Matrix: (Units=GPa)
#
#
# Indices 1 2 3 4 5 6 
#
# 1 39.5324 26.0863 21.1454 0.0000 0.0000 0.0000
# 2 26.0863 114.2937 24.2160 0.0000 0.0000 0.0000
# 3 21.1454 24.2160 103.0941 0.0000 0.0000 0.0000
# 4 0.0000 0.0000 0.0000 16.5156 0.0000 0.0000
# 5 0.0000 0.0000 0.0000 0.0000 -23.5420 0.0000
# 6 0.0000 0.0000 0.0000 0.0000 0.0000 18.4738
#
#
#
# Elastic Compliance Matrix: (Units=1/GPa)
#
#
# Indices 1 2 3 4 5 6 
#
# 1 0.032166 -0.006255 -0.005128 0.000000 0.000000 0.000000
# 2 -0.006255 0.010424 -0.001166 0.000000 0.000000 0.000000
# 3 -0.005128 -0.001166 0.011026 0.000000 0.000000 0.000000
# 4 0.000000 0.000000 0.000000 0.060549 0.000000 0.000000
# 5 0.000000 0.000000 0.000000 0.000000 -0.042477 0.000000
# 6 0.000000 0.000000 0.000000 0.000000 0.000000 0.054131
#
#
# Mechanical properties :
#
#
# Convention : Reuss Voigt Hill
#
# Bulk Modulus (GPa) = 35.06559 44.42396 39.74478
# Shear Modulus (GPa) = 31.16778 14.65431 22.91104
#
# Velocity S-wave (km/s) = 4.10627 2.81564 3.52060
# Velocity P-wave (km/s) = 6.43833 5.88246 6.16666
#
# Compressibility (1/GPa) = 0.02851799
#
# Stress axis : x y z
#
# Youngs Moduli (GPa) = 31.08843 95.93263 90.69876
#
# Poissons Ratio (x) = 0.60006 0.46513
# Poissons Ratio (y) = 0.19446 0.10571
# Poissons Ratio (z) = 0.15943 0.11181
#
# Static dielectric constant tensor:
#      x y z
#    x 1.630020 0.000000 0.000000 
#    y 0.000000 1.632580 0.000000 
#    z 0.000000 0.000000 1.617560 
# 
# From -- ./inp_files/7425.got.cif
#   From: 2010.05.17/outbox.cif.g08.bks.cpg/sg69_4_cif.got.tgz:7425.got - 2010.06.03 19:29:58.
