data_PCOD9511817
_publ_section_title
;
Structure prediction by ZEFSAII (Michael W. Deem and Ramdas Pophale) SiO2 
 PCOD9511817
Probable space group: F M M M
;
_chemical_formula_sum "Si O2"
_cell_formula_units_Z 96
_cell_length_a 16.352126
_cell_length_b 17.314341
_cell_length_c 14.992663
_cell_angle_alpha 90.000000
_cell_angle_beta 90.000000
_cell_angle_gamma 90.000000
_cell_volume 4244.816987
_symmetry_space_group_name_H-M "F M M M"
_symmetry_group_IT_number 69
_symmetry_cell_setting 'orthorhombic'
loop_
_space_group_symop_operation_xyz
x,y,z
-x,-y,z
x,-y,-z
-x,y,-z
-x,-y,-z
x,y,-z
-x,y,z
x,-y,z
x,1/2+y,1/2+z
-x,1/2-y,1/2+z
x,1/2-y,1/2-z
-x,1/2+y,1/2-z
-x,1/2-y,1/2-z
x,1/2+y,1/2-z
-x,1/2+y,1/2+z
x,1/2-y,1/2+z
1/2+x,y,1/2+z
1/2-x,-y,1/2+z
1/2+x,-y,1/2-z
1/2-x,y,1/2-z
1/2-x,-y,1/2-z
1/2+x,y,1/2-z
1/2-x,y,1/2+z
1/2+x,-y,1/2+z
1/2+x,1/2+y,z
1/2-x,1/2-y,z
1/2+x,1/2-y,-z
1/2-x,1/2+y,-z
1/2-x,1/2-y,-z
1/2+x,1/2+y,-z
1/2-x,1/2+y,z
1/2+x,1/2-y,z
loop_
_atom_site_type_symbol
_atom_site_label
_atom_site_fract_x
_atom_site_fract_y
_atom_site_fract_z
Si Si1 0.648258 0.409541 0.608863
Si Si2 0.500000 0.802181 0.161373
Si Si3 0.328115 0.092743 0.396970
Si Si4 0.500000 0.141573 0.400810
O O1 0.646098 0.406307 0.500000
O O2 0.636149 0.500000 0.633022
O O3 0.578703 0.355396 0.647447
O O4 0.739338 0.384190 0.639043
O O5 0.500000 0.750000 0.250000
O O6 0.500000 0.733015 0.090801
O O7 0.329944 0.121006 0.500000
O O8 0.414477 0.117521 0.355982
O O9 0.326673 0.000000 0.398303
O O10 0.500000 0.103965 0.500000
#
# Coordination Sequence:
#
# PCOD9511817 Si02
#       4
#    32  16  32  16
#     4   9  18  37  65  88 106 140 195 247 281 321
#     4  12  25  37  49  77 118 152 182 231 297 351
#     4   8  15  30  56  87 111 137 182 235 279 324
#     4  10  19  33  55  82 115 150 180 221 282 349
#
# _framework density 22.615815000000001
#
# number of rings (size 3 to 8) (size 9 to 14) (size 15 to 20)
#    0.000    2.667    0.000    4.500    0.000    4.667 
#    0.000   11.667    0.000    4.000    0.000    0.000 
#    0.000    0.000    0.000    0.000    0.000    0.000 
#
# Total GULP energy -133900.850114 kJ/mol
# GULP energy per Si atom -5579.202088 kJ/mol
# Density = 2.256434 g / cm^3
# Si number density = 22.615815 Si / 1000 Ang^3
#
#
#
# Elastic Constant Matrix: (Units=GPa)
#
#
# Indices 1 2 3 4 5 6 
#
# 1 300.6680 96.7150 21.9812 0.0000 0.0000 0.0000
# 2 96.7150 68.1554 10.9041 0.0000 0.0000 0.0000
# 3 21.9812 10.9041 66.1496 0.0000 0.0000 0.0000
# 4 0.0000 0.0000 0.0000 17.0715 0.0000 0.0000
# 5 0.0000 0.0000 0.0000 0.0000 195.1129 0.0000
# 6 0.0000 0.0000 0.0000 0.0000 0.0000 33.7332
#
#
#
# Elastic Compliance Matrix: (Units=1/GPa)
#
#
# Indices 1 2 3 4 5 6 
#
# 1 0.006144 -0.008619 -0.000621 0.000000 0.000000 0.000000
# 2 -0.008619 0.027161 -0.001613 0.000000 0.000000 0.000000
# 3 -0.000621 -0.001613 0.015589 0.000000 0.000000 0.000000
# 4 0.000000 0.000000 0.000000 0.058577 0.000000 0.000000
# 5 0.000000 0.000000 0.000000 0.000000 0.005125 0.000000
# 6 0.000000 0.000000 0.000000 0.000000 0.000000 0.029644
#
#
# Mechanical properties :
#
#
# Convention : Reuss Voigt Hill
#
# Bulk Modulus (GPa) = 36.78043 77.13039 56.95541
# Shear Modulus (GPa) = 28.90023 69.54172 49.22098
#
# Velocity S-wave (km/s) = 3.57862 5.55121 4.67025
# Velocity P-wave (km/s) = 5.77701 8.67563 7.37022
#
# Compressibility (1/GPa) = 0.02718837
#
# Stress axis : x y z
#
# Youngs Moduli (GPa) = 162.76848 36.81775 64.14594
#
# Poissons Ratio (x) = 0.31732 0.03982
# Poissons Ratio (y) = 1.40287 0.10348
# Poissons Ratio (z) = 0.10105 0.05939
#
# Static dielectric constant tensor:
#      x y z
#    x 1.869760 0.000000 0.000000 
#    y 0.000000 1.761500 0.000000 
#    z 0.000000 0.000000 1.971330 
# 
# From -- ./inp_files/29405.got.cif
#   From: 2010.05.17/outbox.cif.g08.bks.cpg/sg69_15_cif.got.tgz:29405.got - 2010.06.03 19:29:58.
