data_PCOD9511123
_publ_section_title
;
Structure prediction by ZEFSAII (Michael W. Deem and Ramdas Pophale) SiO2 
 PCOD9511123
Probable space group: F M M M
;
_chemical_formula_sum "Si O2"
_cell_formula_units_Z 144
_cell_length_a 19.356296
_cell_length_b 24.109119
_cell_length_c 17.641820
_cell_angle_alpha 90.000000
_cell_angle_beta 90.000000
_cell_angle_gamma 90.000000
_cell_volume 8232.788945
_symmetry_space_group_name_H-M "F M M M"
_symmetry_group_IT_number 69
_symmetry_cell_setting 'orthorhombic'
loop_
_space_group_symop_operation_xyz
x,y,z
-x,-y,z
x,-y,-z
-x,y,-z
-x,-y,-z
x,y,-z
-x,y,z
x,-y,z
x,1/2+y,1/2+z
-x,1/2-y,1/2+z
x,1/2-y,1/2-z
-x,1/2+y,1/2-z
-x,1/2-y,1/2-z
x,1/2+y,1/2-z
-x,1/2+y,1/2+z
x,1/2-y,1/2+z
1/2+x,y,1/2+z
1/2-x,-y,1/2+z
1/2+x,-y,1/2-z
1/2-x,y,1/2-z
1/2-x,-y,1/2-z
1/2+x,y,1/2-z
1/2-x,y,1/2+z
1/2+x,-y,1/2+z
1/2+x,1/2+y,z
1/2-x,1/2-y,z
1/2+x,1/2-y,-z
1/2-x,1/2+y,-z
1/2-x,1/2-y,-z
1/2+x,1/2+y,-z
1/2-x,1/2+y,z
1/2+x,1/2-y,z
loop_
_atom_site_type_symbol
_atom_site_label
_atom_site_fract_x
_atom_site_fract_y
_atom_site_fract_z
Si Si1 0.167704 0.938146 0.233023
Si Si2 0.845494 0.365237 0.874550
Si Si3 0.917831 0.063181 0.500000
Si Si4 0.818609 0.628541 0.411058
Si Si5 0.333853 0.754824 0.661870
O O1 0.250000 0.940908 0.250000
O O2 0.144576 0.889906 0.290315
O O3 0.156448 0.918967 0.146787
O O4 0.139705 0.000000 0.248110
O O5 0.764803 0.370088 0.898740
O O6 0.862276 0.300192 0.878341
O O7 0.889663 0.403656 0.928479
O O8 0.000000 0.062036 0.500000
O O9 0.891436 0.000000 0.500000
O O10 0.832897 0.620945 0.500000
O O11 0.847749 0.687222 0.379634
O O12 0.354802 0.750000 0.750000
O O13 0.250000 0.750000 0.661797
#
# Coordination Sequence:
#
# PCOD9511123 Si02
#       5
#    32  32  16  32  32
#     4   9  17  28  42  63  95 132 164 190 230 295
#     4  10  18  32  49  66  93 133 162 201 247 285
#     4  11  24  38  51  70  94 126 176 223 248 277
#     4  10  18  27  43  75 104 128 159 189 233 298
#     4   9  16  27  46  70  98 126 157 191 235 298
#
# _framework density 17.491035
#
# number of rings (size 3 to 8) (size 9 to 14) (size 15 to 20)
#    0.000    2.333    3.333    0.667    1.556    2.667 
#    0.000    0.000    0.000    0.667    0.000    0.000 
#    0.000    0.000    0.000    4.667    0.000    0.000 
#
# Total GULP energy -200483.778062 kJ/mol
# GULP energy per Si atom -5568.993835 kJ/mol
# Density = 1.745122 g / cm^3
# Si number density = 17.491035 Si / 1000 Ang^3
#
#
#
# Elastic Constant Matrix: (Units=GPa)
#
#
# Indices 1 2 3 4 5 6 
#
# 1 10.3783 17.6844 5.5555 0.0000 0.0000 0.0000
# 2 17.6844 123.5586 39.5089 0.0000 0.0000 0.0000
# 3 5.5555 39.5089 125.9888 0.0000 0.0000 0.0000
# 4 0.0000 0.0000 0.0000 24.1105 0.0000 0.0000
# 5 0.0000 0.0000 0.0000 0.0000 0.0135 0.0000
# 6 0.0000 0.0000 0.0000 0.0000 0.0000 9.8985
#
#
#
# Elastic Compliance Matrix: (Units=1/GPa)
#
#
# Indices 1 2 3 4 5 6 
#
# 1 0.127435 -0.018275 0.000112 0.000000 0.000000 0.000000
# 2 -0.018275 0.011616 -0.002837 0.000000 0.000000 0.000000
# 3 0.000112 -0.002837 0.008822 0.000000 0.000000 0.000000
# 4 0.000000 0.000000 0.000000 0.041476 0.000000 0.000000
# 5 0.000000 0.000000 0.000000 0.000000 73.893396 0.000000
# 6 0.000000 0.000000 0.000000 0.000000 0.000000 0.101025
#
#
# Mechanical properties :
#
#
# Convention : Reuss Voigt Hill
#
# Bulk Modulus (GPa) = 9.44533 42.82481 26.13507
# Shear Modulus (GPa) = 0.06733 19.94965 10.00849
#
# Velocity S-wave (km/s) = 0.19641 3.38089 2.39468
# Velocity P-wave (km/s) = 2.33736 6.30694 4.75609
#
# Compressibility (1/GPa) = 0.10587240
#
# Stress axis : x y z
#
# Youngs Moduli (GPa) = 7.84715 86.08783 113.35428
#
# Poissons Ratio (x) = 1.57325 -0.01265
# Poissons Ratio (y) = 0.14341 0.32157
# Poissons Ratio (z) = -0.00088 0.24422
#
# Static dielectric constant tensor:
#      x y z
#    x 1.572520 0.000000 0.000000 
#    y 0.000000 1.608470 0.000000 
#    z 0.000000 0.000000 1.635960 
# 
# From -- ./inp_files/24807.got.cif
#   From: 2010.05.17/outbox.cif.g08.bks.cpg/sg69_13_cif.got.tgz:24807.got - 2010.06.03 19:29:58.
