data_PCOD9511575
_publ_section_title
;
Structure prediction by ZEFSAII (Michael W. Deem and Ramdas Pophale) SiO2 
 PCOD9511575
Probable space group: F M M M
;
_chemical_formula_sum "Si O2"
_cell_formula_units_Z 192
_cell_length_a 15.708790
_cell_length_b 28.721330
_cell_length_c 29.808851
_cell_angle_alpha 90.000000
_cell_angle_beta 90.000000
_cell_angle_gamma 90.000000
_cell_volume 13449.078147
_symmetry_space_group_name_H-M "F M M M"
_symmetry_group_IT_number 69
_symmetry_cell_setting 'orthorhombic'
loop_
_space_group_symop_operation_xyz
x,y,z
-x,-y,z
x,-y,-z
-x,y,-z
-x,-y,-z
x,y,-z
-x,y,z
x,-y,z
x,1/2+y,1/2+z
-x,1/2-y,1/2+z
x,1/2-y,1/2-z
-x,1/2+y,1/2-z
-x,1/2-y,1/2-z
x,1/2+y,1/2-z
-x,1/2+y,1/2+z
x,1/2-y,1/2+z
1/2+x,y,1/2+z
1/2-x,-y,1/2+z
1/2+x,-y,1/2-z
1/2-x,y,1/2-z
1/2-x,-y,1/2-z
1/2+x,y,1/2-z
1/2-x,y,1/2+z
1/2+x,-y,1/2+z
1/2+x,1/2+y,z
1/2-x,1/2-y,z
1/2+x,1/2-y,-z
1/2-x,1/2+y,-z
1/2-x,1/2-y,-z
1/2+x,1/2+y,-z
1/2-x,1/2+y,z
1/2+x,1/2-y,z
loop_
_atom_site_type_symbol
_atom_site_label
_atom_site_fract_x
_atom_site_fract_y
_atom_site_fract_z
Si Si1 0.102266 0.345031 0.949086
Si Si2 0.829720 0.284816 0.132830
Si Si3 0.099911 0.449329 0.067514
Si Si4 0.901097 0.447354 0.175450
Si Si5 0.325639 0.358184 0.285097
Si Si6 0.500000 0.323269 0.248539
Si Si7 0.500000 0.746007 0.827676
O O1 0.150304 0.314981 0.911638
O O2 0.132092 0.399138 0.948234
O O3 0.000000 0.344904 0.938447
O O4 0.112477 0.327456 0.000000
O O5 0.750000 0.250000 0.128706
O O6 0.817316 0.320588 0.174643
O O7 0.915028 0.255600 0.144289
O O8 0.136112 0.500000 0.053493
O O9 0.103886 0.447627 0.121489
O O10 0.000000 0.450191 0.054760
O O11 0.885116 0.500000 0.191282
O O12 0.836943 0.409307 0.194089
O O13 0.000000 0.435262 0.186066
O O14 0.250000 0.353635 0.250000
O O15 0.413272 0.349732 0.258454
O O16 0.500000 0.302322 0.198816
O O17 0.500000 0.283300 0.286941
#
# Coordination Sequence:
#
# PCOD9511575 Si02
#       7
#    32  32  32  32  32  16  16
#     4  10  19  31  49  71  94 123 160 192 231 287
#     4  11  21  33  49  66  93 125 159 201 241 274
#     4   8  14  25  45  69  93 121 152 186 230 282
#     4   9  16  28  47  68  92 125 157 185 228 283
#     4  11  20  30  48  70  93 122 162 196 233 279
#     4   9  18  30  45  64  88 117 151 200 234 266
#     4   9  18  32  47  62  86 118 156 194 240 269
#
# _framework density 14.276071
#
# number of rings (size 3 to 8) (size 9 to 14) (size 15 to 20)
#    0.000    2.333    3.333    2.000    0.000    2.667 
#    0.000    1.667    0.000    0.000    0.000    0.000 
#    0.000    0.000    0.000    0.000    0.000    1.917 
#
# Total GULP energy -267221.397076 kJ/mol
# GULP energy per Si atom -5567.112439 kJ/mol
# Density = 1.424358 g / cm^3
# Si number density = 14.276071 Si / 1000 Ang^3
#
#
#
# Elastic Constant Matrix: (Units=GPa)
#
#
# Indices 1 2 3 4 5 6 
#
# 1 82.2793 45.3568 45.7460 0.0000 0.0000 0.0000
# 2 45.3568 86.6370 55.0326 0.0000 0.0000 0.0000
# 3 45.7460 55.0326 87.7407 0.0000 0.0000 0.0000
# 4 0.0000 0.0000 0.0000 15.3934 0.0000 0.0000
# 5 0.0000 0.0000 0.0000 0.0000 12.9096 0.0000
# 6 0.0000 0.0000 0.0000 0.0000 0.0000 21.9883
#
#
#
# Elastic Compliance Matrix: (Units=1/GPa)
#
#
# Indices 1 2 3 4 5 6 
#
# 1 0.018832 -0.006021 -0.006042 0.000000 0.000000 0.000000
# 2 -0.006021 0.021112 -0.010102 0.000000 0.000000 0.000000
# 3 -0.006042 -0.010102 0.020884 0.000000 0.000000 0.000000
# 4 0.000000 0.000000 0.000000 0.064963 0.000000 0.000000
# 5 0.000000 0.000000 0.000000 0.000000 0.077462 0.000000
# 6 0.000000 0.000000 0.000000 0.000000 0.000000 0.045479
#
#
# Mechanical properties :
#
#
# Convention : Reuss Voigt Hill
#
# Bulk Modulus (GPa) = 60.61887 60.99195 60.80541
# Shear Modulus (GPa) = 16.74696 17.42636 17.08666
#
# Velocity S-wave (km/s) = 3.42874 3.49760 3.46334
# Velocity P-wave (km/s) = 7.63080 7.68940 7.66015
#
# Compressibility (1/GPa) = 0.01649651
#
# Stress axis : x y z
#
# Youngs Moduli (GPa) = 53.10043 47.36682 47.88392
#
# Poissons Ratio (x) = 0.28520 0.28932
# Poissons Ratio (y) = 0.31973 0.48374
# Poissons Ratio (z) = 0.32084 0.47852
#
# Static dielectric constant tensor:
#      x y z
#    x 1.443980 0.000000 0.000000 
#    y 0.000000 1.500460 0.000000 
#    z 0.000000 0.000000 1.476170 
# 
# From -- ./inp_files/45966.got.cif
#   From: 2010.05.17/outbox.cif.g08.bks.cpg/sg69_23_cif.got.tgz:45966.got - 2010.06.03 19:29:58.
