data_PCOD9511617
_publ_section_title
;
Structure prediction by ZEFSAII (Michael W. Deem and Ramdas Pophale) SiO2 
 PCOD9511617
Probable space group: F M M M
;
_chemical_formula_sum "Si O2"
_cell_formula_units_Z 176
_cell_length_a 15.792472
_cell_length_b 21.252670
_cell_length_c 27.496325
_cell_angle_alpha 90.000000
_cell_angle_beta 90.000000
_cell_angle_gamma 90.000000
_cell_volume 9228.651939
_symmetry_space_group_name_H-M "F M M M"
_symmetry_group_IT_number 69
_symmetry_cell_setting 'orthorhombic'
loop_
_space_group_symop_operation_xyz
x,y,z
-x,-y,z
x,-y,-z
-x,y,-z
-x,-y,-z
x,y,-z
-x,y,z
x,-y,z
x,1/2+y,1/2+z
-x,1/2-y,1/2+z
x,1/2-y,1/2-z
-x,1/2+y,1/2-z
-x,1/2-y,1/2-z
x,1/2+y,1/2-z
-x,1/2+y,1/2+z
x,1/2-y,1/2+z
1/2+x,y,1/2+z
1/2-x,-y,1/2+z
1/2+x,-y,1/2-z
1/2-x,y,1/2-z
1/2-x,-y,1/2-z
1/2+x,y,1/2-z
1/2-x,y,1/2+z
1/2+x,-y,1/2+z
1/2+x,1/2+y,z
1/2-x,1/2-y,z
1/2+x,1/2-y,-z
1/2-x,1/2+y,-z
1/2-x,1/2-y,-z
1/2+x,1/2+y,-z
1/2-x,1/2+y,z
1/2+x,1/2-y,z
loop_
_atom_site_type_symbol
_atom_site_label
_atom_site_fract_x
_atom_site_fract_y
_atom_site_fract_z
Si Si1 0.593173 0.795736 0.703514
Si Si2 0.296769 0.815733 0.056185
Si Si3 0.595819 0.672818 0.353106
Si Si4 0.182314 0.928503 0.907613
Si Si5 0.000000 0.075773 0.944083
Si Si6 0.745076 0.106719 0.303561
O O1 0.500000 0.827444 0.703206
O O2 0.595105 0.750000 0.750000
O O3 0.598665 0.746574 0.659733
O O4 0.674275 0.839373 0.703495
O O5 0.250000 0.750000 0.070334
O O6 0.374682 0.830431 0.091483
O O7 0.235326 0.875205 0.064839
O O8 0.320171 0.810159 0.000000
O O9 0.500000 0.650527 0.344452
O O10 0.664913 0.636387 0.320200
O O11 0.084937 0.908408 0.915058
O O12 0.211321 0.928918 0.851304
O O13 0.192815 0.000000 0.926806
O O14 0.000000 0.000000 0.947572
O O15 0.000000 0.100073 0.000000
O O16 0.750000 0.075829 0.250000
#
# Coordination Sequence:
#
# PCOD9511617 Si02
#       6
#    32  32  32  32  16  32
#     4  10  19  31  53  83 115 155 201 243 299 364
#     4  10  21  39  61  87 119 154 196 249 305 358
#     4  10  20  34  52  80 118 156 196 243 294 352
#     4  10  22  39  61  90 122 160 204 248 303 373
#     4   9  18  36  62  90 119 152 197 251 307 374
#     4  11  21  33  55  81 117 159 200 253 297 346
#
# _framework density 19.071041000000001
#
# number of rings (size 3 to 8) (size 9 to 14) (size 15 to 20)
#    0.000    1.909    1.818    3.273    1.273    1.818 
#    1.636    0.000    0.000    8.727    0.000    5.091 
#    0.000    0.000    0.000    0.000    0.000    0.000 
#
# Total GULP energy -245300.798351 kJ/mol
# GULP energy per Si atom -5575.018144 kJ/mol
# Density = 1.902763 g / cm^3
# Si number density = 19.071041 Si / 1000 Ang^3
#
#
#
# Elastic Constant Matrix: (Units=GPa)
#
#
# Indices 1 2 3 4 5 6 
#
# 1 146.9191 33.8957 39.9991 0.0000 0.0000 0.0000
# 2 33.8957 63.5545 4.3860 0.0000 0.0000 0.0000
# 3 39.9991 4.3860 92.0574 0.0000 0.0000 0.0000
# 4 0.0000 0.0000 0.0000 12.1703 0.0000 0.0000
# 5 0.0000 0.0000 0.0000 0.0000 16.2746 0.0000
# 6 0.0000 0.0000 0.0000 0.0000 0.0000 12.1995
#
#
#
# Elastic Compliance Matrix: (Units=1/GPa)
#
#
# Indices 1 2 3 4 5 6 
#
# 1 0.008820 -0.004454 -0.003620 0.000000 0.000000 0.000000
# 2 -0.004454 0.018036 0.001076 0.000000 0.000000 0.000000
# 3 -0.003620 0.001076 0.012384 0.000000 0.000000 0.000000
# 4 0.000000 0.000000 0.000000 0.082167 0.000000 0.000000
# 5 0.000000 0.000000 0.000000 0.000000 0.061445 0.000000
# 6 0.000000 0.000000 0.000000 0.000000 0.000000 0.081971
#
#
# Mechanical properties :
#
#
# Convention : Reuss Voigt Hill
#
# Bulk Modulus (GPa) = 39.61359 51.01028 45.31193
# Shear Modulus (GPa) = 17.40747 23.07891 20.24319
#
# Velocity S-wave (km/s) = 3.02449 3.48250 3.26154
# Velocity P-wave (km/s) = 5.74573 6.55561 6.16398
#
# Compressibility (1/GPa) = 0.02524386
#
# Stress axis : x y z
#
# Youngs Moduli (GPa) = 113.38421 55.44553 80.74684
#
# Poissons Ratio (x) = 0.24695 0.29230
# Poissons Ratio (y) = 0.50501 -0.08688
# Poissons Ratio (z) = 0.41044 -0.05966
#
# Static dielectric constant tensor:
#      x y z
#    x 1.670210 0.000000 0.000000 
#    y 0.000000 1.662520 0.000000 
#    z 0.000000 0.000000 1.716330 
# 
# From -- ./inp_files/41125.got.cif
#   From: 2010.05.17/outbox.cif.g08.bks.cpg/sg69_21_cif.got.tgz:41125.got - 2010.06.03 19:29:58.
