data_PCOD9511477
_publ_section_title
;
Structure prediction by ZEFSAII (Michael W. Deem and Ramdas Pophale) SiO2 
 PCOD9511477
Probable space group: F M M M
;
_chemical_formula_sum "Si O2"
_cell_formula_units_Z 176
_cell_length_a 20.604830
_cell_length_b 35.360097
_cell_length_c 14.115973
_cell_angle_alpha 90.000000
_cell_angle_beta 90.000000
_cell_angle_gamma 90.000000
_cell_volume 10284.739652
_symmetry_space_group_name_H-M "F M M M"
_symmetry_group_IT_number 69
_symmetry_cell_setting 'orthorhombic'
loop_
_space_group_symop_operation_xyz
x,y,z
-x,-y,z
x,-y,-z
-x,y,-z
-x,-y,-z
x,y,-z
-x,y,z
x,-y,z
x,1/2+y,1/2+z
-x,1/2-y,1/2+z
x,1/2-y,1/2-z
-x,1/2+y,1/2-z
-x,1/2-y,1/2-z
x,1/2+y,1/2-z
-x,1/2+y,1/2+z
x,1/2-y,1/2+z
1/2+x,y,1/2+z
1/2-x,-y,1/2+z
1/2+x,-y,1/2-z
1/2-x,y,1/2-z
1/2-x,-y,1/2-z
1/2+x,y,1/2-z
1/2-x,y,1/2+z
1/2+x,-y,1/2+z
1/2+x,1/2+y,z
1/2-x,1/2-y,z
1/2+x,1/2-y,-z
1/2-x,1/2+y,-z
1/2-x,1/2-y,-z
1/2+x,1/2+y,-z
1/2-x,1/2+y,z
1/2+x,1/2-y,z
loop_
_atom_site_type_symbol
_atom_site_label
_atom_site_fract_x
_atom_site_fract_y
_atom_site_fract_z
Si Si1 0.216298 0.454321 0.110756
Si Si2 0.922891 0.000000 0.891903
Si Si3 0.575120 0.223925 0.613995
Si Si4 0.921302 0.193243 0.606890
Si Si5 0.851254 0.430925 0.701898
Si Si6 0.078444 0.352366 0.287924
O O1 0.221592 0.500000 0.122385
O O2 0.164844 0.439163 0.187660
O O3 0.284347 0.436164 0.143864
O O4 0.202668 0.446672 0.000000
O O5 0.897873 0.036730 0.837869
O O6 0.000000 0.000000 0.895354
O O7 0.897091 0.000000 0.000000
O O8 0.575528 0.223516 0.500000
O O9 0.500000 0.223834 0.646959
O O10 0.602507 0.265212 0.640743
O O11 0.601050 0.184319 0.652162
O O12 0.898586 0.186289 0.500000
O O13 0.907272 0.160376 0.680296
O O14 0.000000 0.196425 0.603562
O O15 0.883882 0.390337 0.688267
O O16 0.000000 0.357402 0.299579
#
# Coordination Sequence:
#
# PCOD9511477 Si02
#       6
#    32  16  32  32  32  32
#     4  10  20  38  62  76  87 121 175 229 264 287
#     4  11  22  35  53  77 109 143 163 184 238 315
#     4   8  14  25  41  63  95 135 174 203 231 280
#     4   8  14  26  43  63  93 136 177 204 230 278
#     4  11  20  35  53  78 104 129 166 213 253 301
#     4  10  19  28  44  73 109 139 158 192 249 307
#
# _framework density 17.112732999999999
#
# number of rings (size 3 to 8) (size 9 to 14) (size 15 to 20)
#    0.000    2.455    1.818    3.273    0.000    4.364 
#    0.000    1.818    0.000    2.182    0.000   10.182 
#    0.000   17.455    0.000    0.000    0.000    0.000 
#
# Total GULP energy -245102.544965 kJ/mol
# GULP energy per Si atom -5570.512386 kJ/mol
# Density = 1.707378 g / cm^3
# Si number density = 17.112733 Si / 1000 Ang^3
#
#
#
# Elastic Constant Matrix: (Units=GPa)
#
#
# Indices 1 2 3 4 5 6 
#
# 1 31.2032 21.0239 14.1716 0.0000 0.0000 0.0000
# 2 21.0239 104.5086 14.0473 0.0000 0.0000 0.0000
# 3 14.1716 14.0473 66.4521 0.0000 0.0000 0.0000
# 4 0.0000 0.0000 0.0000 88.4548 0.0000 0.0000
# 5 0.0000 0.0000 0.0000 0.0000 13.7101 0.0000
# 6 0.0000 0.0000 0.0000 0.0000 0.0000 -140.6031
#
#
#
# Elastic Compliance Matrix: (Units=1/GPa)
#
#
# Indices 1 2 3 4 5 6 
#
# 1 0.040032 -0.007108 -0.007035 0.000000 0.000000 0.000000
# 2 -0.007108 0.011110 -0.000833 0.000000 0.000000 0.000000
# 3 -0.007035 -0.000833 0.016725 0.000000 0.000000 0.000000
# 4 0.000000 0.000000 0.000000 0.011305 0.000000 0.000000
# 5 0.000000 0.000000 0.000000 0.000000 0.072939 0.000000
# 6 0.000000 0.000000 0.000000 0.000000 0.000000 -0.007112
#
#
# Mechanical properties :
#
#
# Convention : Reuss Voigt Hill
#
# Bulk Modulus (GPa) = 26.37371 33.40551 29.88961
# Shear Modulus (GPa) = 26.65415 2.50711 14.58063
#
# Velocity S-wave (km/s) = 3.95088 1.21171 2.92213
# Velocity P-wave (km/s) = 6.02144 4.63906 5.37488
#
# Compressibility (1/GPa) = 0.03791655
#
# Stress axis : x y z
#
# Youngs Moduli (GPa) = 24.98009 90.00595 59.79176
#
# Poissons Ratio (x) = 0.63973 0.42062
# Poissons Ratio (y) = 0.17755 0.04980
# Poissons Ratio (z) = 0.17573 0.07496
#
# Static dielectric constant tensor:
#      x y z
#    x 1.562050 0.000000 0.000000 
#    y 0.000000 1.578600 0.000000 
#    z 0.000000 0.000000 1.618030 
# 
# From -- ./inp_files/18261.got.cif
#   From: 2010.05.17/outbox.cif.g08.bks.cpg/sg69_10_cif.got.tgz:18261.got - 2010.06.03 19:29:58.
