data_PCOD9511362
_publ_section_title
;
Structure prediction by ZEFSAII (Michael W. Deem and Ramdas Pophale) SiO2 
 PCOD9511362
Probable space group: F M M M
;
_chemical_formula_sum "Si O2"
_cell_formula_units_Z 96
_cell_length_a 9.235743
_cell_length_b 24.970633
_cell_length_c 21.402123
_cell_angle_alpha 90.000000
_cell_angle_beta 90.000000
_cell_angle_gamma 90.000000
_cell_volume 4935.807878
_symmetry_space_group_name_H-M "F M M M"
_symmetry_group_IT_number 69
_symmetry_cell_setting 'orthorhombic'
loop_
_space_group_symop_operation_xyz
x,y,z
-x,-y,z
x,-y,-z
-x,y,-z
-x,-y,-z
x,y,-z
-x,y,z
x,-y,z
x,1/2+y,1/2+z
-x,1/2-y,1/2+z
x,1/2-y,1/2-z
-x,1/2+y,1/2-z
-x,1/2-y,1/2-z
x,1/2+y,1/2-z
-x,1/2+y,1/2+z
x,1/2-y,1/2+z
1/2+x,y,1/2+z
1/2-x,-y,1/2+z
1/2+x,-y,1/2-z
1/2-x,y,1/2-z
1/2-x,-y,1/2-z
1/2+x,y,1/2-z
1/2-x,y,1/2+z
1/2+x,-y,1/2+z
1/2+x,1/2+y,z
1/2-x,1/2-y,z
1/2+x,1/2-y,-z
1/2-x,1/2+y,-z
1/2-x,1/2-y,-z
1/2+x,1/2+y,-z
1/2-x,1/2+y,z
1/2+x,1/2-y,z
loop_
_atom_site_type_symbol
_atom_site_label
_atom_site_fract_x
_atom_site_fract_y
_atom_site_fract_z
Si Si1 0.500000 0.636059 0.771795
Si Si2 0.748294 0.136607 0.626494
Si Si3 0.000000 0.215225 0.334568
Si Si4 0.500000 0.936715 0.148234
Si Si5 0.000000 0.691658 0.566529
O O1 0.357937 0.628438 0.814123
O O2 0.500000 0.694651 0.737960
O O3 0.500000 0.592949 0.715907
O O4 0.856153 0.185649 0.640598
O O5 0.854587 0.086622 0.616422
O O6 0.640753 0.154534 0.572368
O O7 0.000000 0.271450 0.371105
O O8 0.500000 0.000000 0.152929
O O9 0.000000 0.721207 0.500000
#
# Coordination Sequence:
#
# PCOD9511362 Si02
#       5
#    16  32  16  16  16
#     4   9  18  34  53  84 119 146 174 205 260 321
#     4   9  20  35  52  81 115 142 175 217 262 318
#     4  10  18  32  54  79 110 145 179 212 252 311
#     4  10  19  35  59  83 107 136 173 219 272 327
#     4  11  23  38  55  74 102 145 188 226 268 309
#
# _framework density 19.449703
#
# number of rings (size 3 to 8) (size 9 to 14) (size 15 to 20)
#    0.000    2.667    0.000    5.000    0.000    8.000 
#    0.000   18.333    0.000    5.000    0.000    0.000 
#    0.000    0.000    0.000    0.000    0.000    0.000 
#
# Total GULP energy -133672.474363 kJ/mol
# GULP energy per Si atom -5569.686432 kJ/mol
# Density = 1.940543 g / cm^3
# Si number density = 19.449703 Si / 1000 Ang^3
#
#
#
# Elastic Constant Matrix: (Units=GPa)
#
#
# Indices 1 2 3 4 5 6 
#
# 1 151.1739 38.5352 21.5503 0.0000 0.0000 0.0000
# 2 38.5352 126.9227 17.3093 0.0000 0.0000 0.0000
# 3 21.5503 17.3093 79.8692 0.0000 0.0000 0.0000
# 4 0.0000 0.0000 0.0000 9.0461 0.0000 0.0000
# 5 0.0000 0.0000 0.0000 0.0000 -7.1885 0.0000
# 6 0.0000 0.0000 0.0000 0.0000 0.0000 6.6058
#
#
#
# Elastic Compliance Matrix: (Units=1/GPa)
#
#
# Indices 1 2 3 4 5 6 
#
# 1 0.007350 -0.002021 -0.001545 0.000000 0.000000 0.000000
# 2 -0.002021 0.008674 -0.001335 0.000000 0.000000 0.000000
# 3 -0.001545 -0.001335 0.013227 0.000000 0.000000 0.000000
# 4 0.000000 0.000000 0.000000 0.110544 0.000000 0.000000
# 5 0.000000 0.000000 0.000000 0.000000 -0.139111 0.000000
# 6 0.000000 0.000000 0.000000 0.000000 0.000000 0.151383
#
#
# Mechanical properties :
#
#
# Convention : Reuss Voigt Hill
#
# Bulk Modulus (GPa) = 51.41464 56.97283 54.19373
# Shear Modulus (GPa) = 29.69952 20.39742 25.04847
#
# Velocity S-wave (km/s) = 3.91191 3.24192 3.59257
# Velocity P-wave (km/s) = 6.84808 6.58554 6.71809
#
# Compressibility (1/GPa) = 0.01944971
#
# Stress axis : x y z
#
# Youngs Moduli (GPa) = 136.04842 115.28188 75.60490
#
# Poissons Ratio (x) = 0.23297 0.11683
# Poissons Ratio (y) = 0.27494 0.10090
# Poissons Ratio (z) = 0.21023 0.15386
#
# Static dielectric constant tensor:
#      x y z
#    x 1.716240 0.000000 0.000000 
#    y 0.000000 1.678770 0.000000 
#    z 0.000000 0.000000 1.714390 
# 
# From -- ./inp_files/3559.got.cif
#   From: 2010.05.17/outbox.cif.g08.bks.cpg/sg69_2_cif.got.tgz:3559.got - 2010.06.03 19:29:58.
