data_PCOD9511867
_publ_section_title
;
Structure prediction by ZEFSAII (Michael W. Deem and Ramdas Pophale) SiO2 
 PCOD9511867
Probable space group: F M M M
;
_chemical_formula_sum "Si O2"
_cell_formula_units_Z 144
_cell_length_a 7.791404
_cell_length_b 34.770084
_cell_length_c 26.090691
_cell_angle_alpha 90.000000
_cell_angle_beta 90.000000
_cell_angle_gamma 90.000000
_cell_volume 7068.170957
_symmetry_space_group_name_H-M "F M M M"
_symmetry_group_IT_number 69
_symmetry_cell_setting 'orthorhombic'
loop_
_space_group_symop_operation_xyz
x,y,z
-x,-y,z
x,-y,-z
-x,y,-z
-x,-y,-z
x,y,-z
-x,y,z
x,-y,z
x,1/2+y,1/2+z
-x,1/2-y,1/2+z
x,1/2-y,1/2-z
-x,1/2+y,1/2-z
-x,1/2-y,1/2-z
x,1/2+y,1/2-z
-x,1/2+y,1/2+z
x,1/2-y,1/2+z
1/2+x,y,1/2+z
1/2-x,-y,1/2+z
1/2+x,-y,1/2-z
1/2-x,y,1/2-z
1/2-x,-y,1/2-z
1/2+x,y,1/2-z
1/2-x,y,1/2+z
1/2+x,-y,1/2+z
1/2+x,1/2+y,z
1/2-x,1/2-y,z
1/2+x,1/2-y,-z
1/2-x,1/2+y,-z
1/2-x,1/2-y,-z
1/2+x,1/2+y,-z
1/2-x,1/2+y,z
1/2+x,1/2-y,z
loop_
_atom_site_type_symbol
_atom_site_label
_atom_site_fract_x
_atom_site_fract_y
_atom_site_fract_z
Si Si1 0.289739 0.541167 0.167629
Si Si2 0.797509 0.354676 0.916986
Si Si3 0.294221 0.205435 0.000000
Si Si4 0.700155 0.439849 0.055336
Si Si5 0.204265 0.874275 0.194528
O O1 0.500000 0.541822 0.168491
O O2 0.233833 0.500000 0.189470
O O3 0.231274 0.543186 0.108221
O O4 0.229992 0.581299 0.191889
O O5 0.735011 0.318403 0.949924
O O6 0.710743 0.393832 0.936773
O O7 0.770665 0.352757 0.855957
O O8 0.000000 0.359539 0.926546
O O9 0.250000 0.250000 0.000000
O O10 0.500000 0.203779 0.000000
O O11 0.500000 0.450866 0.053822
O O12 0.777088 0.449875 0.000000
O O13 0.250000 0.857957 0.250000
O O14 0.000000 0.875526 0.189684
#
# Coordination Sequence:
#
# PCOD9511867 Si02
#       5
#    32  32  16  32  32
#     4   8  15  27  42  65  98 132 171 219 267 313
#     4  10  19  34  53  77 107 138 171 210 252 302
#     4  10  22  36  56  86 115 142 167 197 248 303
#     4   9  16  26  44  69  96 133 176 214 258 308
#     4  10  20  34  53  77 100 135 180 222 266 309
#
# _framework density 20.373021000000001
#
# number of rings (size 3 to 8) (size 9 to 14) (size 15 to 20)
#    0.000    2.667    1.111    2.667    0.000    2.667 
#    0.000    2.222    0.000   16.667    0.000   10.889 
#    0.000    0.000    0.000    0.000    0.000    0.000 
#
# Total GULP energy -200777.717798 kJ/mol
# GULP energy per Si atom -5577.158828 kJ/mol
# Density = 2.032665 g / cm^3
# Si number density = 20.373021 Si / 1000 Ang^3
#
#
#
# Elastic Constant Matrix: (Units=GPa)
#
#
# Indices 1 2 3 4 5 6 
#
# 1 38.1344 2.0438 -2.6827 0.0000 0.0000 0.0000
# 2 2.0438 116.2578 44.3153 0.0000 0.0000 0.0000
# 3 -2.6827 44.3153 154.3058 0.0000 0.0000 0.0000
# 4 0.0000 0.0000 0.0000 17.3730 0.0000 0.0000
# 5 0.0000 0.0000 0.0000 0.0000 16.3989 0.0000
# 6 0.0000 0.0000 0.0000 0.0000 0.0000 -12.6937
#
#
#
# Elastic Compliance Matrix: (Units=1/GPa)
#
#
# Indices 1 2 3 4 5 6 
#
# 1 0.026308 -0.000715 0.000663 0.000000 0.000000 0.000000
# 2 -0.000715 0.009678 -0.002792 0.000000 0.000000 0.000000
# 3 0.000663 -0.002792 0.007294 0.000000 0.000000 0.000000
# 4 0.000000 0.000000 0.000000 0.057561 0.000000 0.000000
# 5 0.000000 0.000000 0.000000 0.000000 0.060980 0.000000
# 6 0.000000 0.000000 0.000000 0.000000 0.000000 -0.078780
#
#
# Mechanical properties :
#
#
# Convention : Reuss Voigt Hill
#
# Bulk Modulus (GPa) = 26.60163 44.00564 35.30363
# Shear Modulus (GPa) = 49.37776 21.88377 35.63076
#
# Velocity S-wave (km/s) = 4.92843 3.28099 4.18654
# Velocity P-wave (km/s) = 6.74326 6.00000 6.38246
#
# Compressibility (1/GPa) = 0.03759169
#
# Stress axis : x y z
#
# Youngs Moduli (GPa) = 38.01127 103.32290 137.09914
#
# Poissons Ratio (x) = 0.07389 -0.09086
# Poissons Ratio (y) = 0.02718 0.38278
# Poissons Ratio (z) = -0.02519 0.28848
#
# Static dielectric constant tensor:
#      x y z
#    x 1.751640 0.000000 0.000000 
#    y 0.000000 1.707920 0.000000 
#    z 0.000000 0.000000 1.772020 
# 
# From -- ./inp_files/44524.got.cif
#   From: 2010.05.17/outbox.cif.g08.bks.cpg/sg69_23_cif.got.tgz:44524.got - 2010.06.03 19:29:58.
