data_PCOD9511431
_publ_section_title
;
Structure prediction by ZEFSAII (Michael W. Deem and Ramdas Pophale) SiO2 
 PCOD9511431
Probable space group: F M M M
;
_chemical_formula_sum "Si O2"
_cell_formula_units_Z 136
_cell_length_a 19.038796
_cell_length_b 23.180524
_cell_length_c 13.654066
_cell_angle_alpha 90.000000
_cell_angle_beta 90.000000
_cell_angle_gamma 90.000000
_cell_volume 6025.938948
_symmetry_space_group_name_H-M "F M M M"
_symmetry_group_IT_number 69
_symmetry_cell_setting 'orthorhombic'
loop_
_space_group_symop_operation_xyz
x,y,z
-x,-y,z
x,-y,-z
-x,y,-z
-x,-y,-z
x,y,-z
-x,y,z
x,-y,z
x,1/2+y,1/2+z
-x,1/2-y,1/2+z
x,1/2-y,1/2-z
-x,1/2+y,1/2-z
-x,1/2-y,1/2-z
x,1/2+y,1/2-z
-x,1/2+y,1/2+z
x,1/2-y,1/2+z
1/2+x,y,1/2+z
1/2-x,-y,1/2+z
1/2+x,-y,1/2-z
1/2-x,y,1/2-z
1/2-x,-y,1/2-z
1/2+x,y,1/2-z
1/2-x,y,1/2+z
1/2+x,-y,1/2+z
1/2+x,1/2+y,z
1/2-x,1/2-y,z
1/2+x,1/2-y,-z
1/2-x,1/2+y,-z
1/2-x,1/2-y,-z
1/2+x,1/2+y,-z
1/2-x,1/2+y,z
1/2+x,1/2-y,z
loop_
_atom_site_type_symbol
_atom_site_label
_atom_site_fract_x
_atom_site_fract_y
_atom_site_fract_z
Si Si1 0.500000 0.398108 0.000000
Si Si2 0.386248 0.637961 0.390414
Si Si3 0.753254 0.435766 0.612359
Si Si4 0.608891 0.382644 0.818421
Si Si5 0.670485 0.264414 0.886945
O O1 0.439753 0.396642 0.088706
O O2 0.413422 0.623540 0.500000
O O3 0.307701 0.611439 0.384226
O O4 0.421657 0.614541 0.291590
O O5 0.376527 0.706976 0.385268
O O6 0.778467 0.435331 0.500000
O O7 0.725710 0.500000 0.632597
O O8 0.820748 0.420907 0.676013
O O9 0.635737 0.316744 0.830148
O O10 0.750000 0.250000 0.856221
O O11 0.675812 0.283752 0.000000
#
# Coordination Sequence:
#
# PCOD9511431 Si02
#       5
#     8  32  32  32  32
#     4  12  28  44  63  88 124 182 215 258 292 368
#     4  10  22  36  61  96 123 161 203 261 328 377
#     4  10  20  37  63  98 133 159 201 266 324 368
#     4  12  22  41  61  88 130 172 214 251 310 373
#     4  10  18  33  61  93 122 155 208 264 320 376
#
# _framework density 22.569095999999998
#
# number of rings (size 3 to 8) (size 9 to 14) (size 15 to 20)
#    0.000    1.412    4.706    1.412    0.000    2.824 
#    0.000    4.118    0.000    0.000    0.000    0.000 
#    0.000    5.647    0.000    0.000    0.000    0.000 
#
# Total GULP energy -189352.700190 kJ/mol
# GULP energy per Si atom -5569.197064 kJ/mol
# Density = 2.251773 g / cm^3
# Si number density = 22.569096 Si / 1000 Ang^3
#
#
#
# Elastic Constant Matrix: (Units=GPa)
#
#
# Indices 1 2 3 4 5 6 
#
# 1 71.7386 -6.9426 10.8228 0.0000 0.0000 0.0000
# 2 -6.9426 65.4064 -22.9060 0.0000 0.0000 0.0000
# 3 10.8228 -22.9060 223.7926 0.0000 0.0000 0.0000
# 4 0.0000 0.0000 0.0000 21.5820 0.0000 0.0000
# 5 0.0000 0.0000 0.0000 0.0000 2.0340 0.0000
# 6 0.0000 0.0000 0.0000 0.0000 0.0000 229.2313
#
#
#
# Elastic Compliance Matrix: (Units=1/GPa)
#
#
# Indices 1 2 3 4 5 6 
#
# 1 0.014149 0.001309 -0.000550 0.000000 0.000000 0.000000
# 2 0.001309 0.015979 0.001572 0.000000 0.000000 0.000000
# 3 -0.000550 0.001572 0.004656 0.000000 0.000000 0.000000
# 4 0.000000 0.000000 0.000000 0.046335 0.000000 0.000000
# 5 0.000000 0.000000 0.000000 0.000000 0.491633 0.000000
# 6 0.000000 0.000000 0.000000 0.000000 0.000000 0.004362
#
#
# Mechanical properties :
#
#
# Convention : Reuss Voigt Hill
#
# Bulk Modulus (GPa) = 25.35122 35.87623 30.61372
# Shear Modulus (GPa) = 8.53824 75.90036 42.21930
#
# Velocity S-wave (km/s) = 1.94714 5.80545 4.32981
# Velocity P-wave (km/s) = 4.03884 7.80181 6.21211
#
# Compressibility (1/GPa) = 0.03944584
#
# Stress axis : x y z
#
# Youngs Moduli (GPa) = 70.67531 62.58380 214.77893
#
# Poissons Ratio (x) = -0.08193 0.11819
# Poissons Ratio (y) = -0.09253 -0.33766
# Poissons Ratio (z) = 0.03889 -0.09839
#
# Static dielectric constant tensor:
#      x y z
#    x 1.772280 0.000000 0.000000 
#    y 0.000000 1.791800 0.000000 
#    z 0.000000 0.000000 1.933950 
# 
# From -- ./inp_files/16570.got.cif
#   From: 2010.05.17/outbox.cif.g08.bks.cpg/sg69_9_cif.got.tgz:16570.got - 2010.06.03 19:29:58.
