data_PCOD9511721
_publ_section_title
;
Structure prediction by ZEFSAII (Michael W. Deem and Ramdas Pophale) SiO2 
 PCOD9511721
Probable space group: F M M M
;
_chemical_formula_sum "Si O2"
_cell_formula_units_Z 136
_cell_length_a 26.655188
_cell_length_b 19.821411
_cell_length_c 15.113428
_cell_angle_alpha 90.000000
_cell_angle_beta 90.000000
_cell_angle_gamma 90.000000
_cell_volume 7985.080489
_symmetry_space_group_name_H-M "F M M M"
_symmetry_group_IT_number 69
_symmetry_cell_setting 'orthorhombic'
loop_
_space_group_symop_operation_xyz
x,y,z
-x,-y,z
x,-y,-z
-x,y,-z
-x,-y,-z
x,y,-z
-x,y,z
x,-y,z
x,1/2+y,1/2+z
-x,1/2-y,1/2+z
x,1/2-y,1/2-z
-x,1/2+y,1/2-z
-x,1/2-y,1/2-z
x,1/2+y,1/2-z
-x,1/2+y,1/2+z
x,1/2-y,1/2+z
1/2+x,y,1/2+z
1/2-x,-y,1/2+z
1/2+x,-y,1/2-z
1/2-x,y,1/2-z
1/2-x,-y,1/2-z
1/2+x,y,1/2-z
1/2-x,y,1/2+z
1/2+x,-y,1/2+z
1/2+x,1/2+y,z
1/2-x,1/2-y,z
1/2+x,1/2-y,-z
1/2-x,1/2+y,-z
1/2-x,1/2-y,-z
1/2+x,1/2+y,-z
1/2-x,1/2+y,z
1/2+x,1/2-y,z
loop_
_atom_site_type_symbol
_atom_site_label
_atom_site_fract_x
_atom_site_fract_y
_atom_site_fract_z
Si Si1 0.560034 0.000000 0.188405
Si Si2 0.439520 0.129440 0.690959
Si Si3 0.886472 0.500000 0.000000
Si Si4 0.439398 0.924976 0.500000
Si Si5 0.777801 0.682963 0.156513
Si Si6 0.870085 0.750000 0.250000
Si Si7 0.211145 0.577908 0.000000
O O1 0.573513 0.933221 0.244590
O O2 0.500000 0.000000 0.181239
O O3 0.582880 0.000000 0.090723
O O4 0.500000 0.140333 0.697601
O O5 0.426383 0.109958 0.590874
O O6 0.406855 0.194119 0.711378
O O7 0.848659 0.563647 0.000000
O O8 0.500000 0.929571 0.500000
O O9 0.418380 0.000000 0.500000
O O10 0.750000 0.665758 0.250000
O O11 0.750000 0.750000 0.120660
O O12 0.833015 0.710053 0.183002
O O13 0.776327 0.622170 0.086773
O O14 0.231947 0.500000 0.000000
#
# Coordination Sequence:
#
# PCOD9511721 Si02
#       7
#    16  32   8  16  32  16  16
#     4  10  19  33  52  73 109 152 187 228 268 325
#     4  10  19  32  54  80 112 148 187 232 276 319
#     4  10  21  32  50  82 110 138 188 212 273 320
#     4   9  16  31  51  76 105 144 190 227 271 319
#     4   9  20  39  61  79 106 146 179 218 278 332
#     4  10  20  34  54  80 114 148 184 224 270 322
#     4  10  21  35  60  87 108 139 175 222 272 323
#
# _framework density 17.031763999999999
#
# number of rings (size 3 to 8) (size 9 to 14) (size 15 to 20)
#    0.353    2.235    1.176    2.294    0.000    1.412 
#    0.000    2.353    2.588    8.471    0.000    0.000 
#    0.000    0.000    0.000    0.000    0.000    0.000 
#
# Total GULP energy -189282.428448 kJ/mol
# GULP energy per Si atom -5567.130248 kJ/mol
# Density = 1.699300 g / cm^3
# Si number density = 17.031764 Si / 1000 Ang^3
#
#
#
# Elastic Constant Matrix: (Units=GPa)
#
#
# Indices 1 2 3 4 5 6 
#
# 1 55.8124 63.4028 54.3178 0.0000 0.0000 0.0000
# 2 63.4028 166.6101 106.2374 0.0000 0.0000 0.0000
# 3 54.3178 106.2374 156.7116 0.0000 0.0000 0.0000
# 4 0.0000 0.0000 0.0000 11.9953 0.0000 0.0000
# 5 0.0000 0.0000 0.0000 0.0000 -3.6660 0.0000
# 6 0.0000 0.0000 0.0000 0.0000 0.0000 22.6198
#
#
#
# Elastic Compliance Matrix: (Units=1/GPa)
#
#
# Indices 1 2 3 4 5 6 
#
# 1 0.033880 -0.009520 -0.005289 0.000000 0.000000 0.000000
# 2 -0.009520 0.013247 -0.005681 0.000000 0.000000 0.000000
# 3 -0.005289 -0.005681 0.012065 0.000000 0.000000 0.000000
# 4 0.000000 0.000000 0.000000 0.083366 0.000000 0.000000
# 5 0.000000 0.000000 0.000000 0.000000 -0.272780 0.000000
# 6 0.000000 0.000000 0.000000 0.000000 0.000000 0.044209
#
#
# Mechanical properties :
#
#
# Convention : Reuss Voigt Hill
#
# Bulk Modulus (GPa) = 54.90816 91.89447 73.40131
# Shear Modulus (GPa) = -128.32933 16.53489 -55.89722
#
# Velocity S-wave (km/s) = -8.68969 3.11919 -5.73504
# Velocity P-wave (km/s) = 8.26875 8.18806 0.81481
#
# Compressibility (1/GPa) = 0.01821223
#
# Stress axis : x y z
#
# Youngs Moduli (GPa) = 29.51629 75.48801 82.88150
#
# Poissons Ratio (x) = 0.71866 0.43837
# Poissons Ratio (y) = 0.28100 0.47082
# Poissons Ratio (z) = 0.15611 0.42882
#
# Static dielectric constant tensor:
#      x y z
#    x 1.576800 0.000000 0.000000 
#    y 0.000000 1.550460 0.000000 
#    z 0.000000 0.000000 1.556770 
# 
# From -- ./inp_files/17597.got.cif
#   From: 2010.05.17/outbox.cif.g08.bks.cpg/sg69_9_cif.got.tgz:17597.got - 2010.06.03 19:29:58.
