data_PCOD9511528
_publ_section_title
;
Structure prediction by ZEFSAII (Michael W. Deem and Ramdas Pophale) SiO2 
 PCOD9511528
Probable space group: F M M M
;
_chemical_formula_sum "Si O2"
_cell_formula_units_Z 192
_cell_length_a 14.523273
_cell_length_b 21.831903
_cell_length_c 32.576567
_cell_angle_alpha 90.000000
_cell_angle_beta 90.000000
_cell_angle_gamma 90.000000
_cell_volume 10329.074491
_symmetry_space_group_name_H-M "F M M M"
_symmetry_group_IT_number 69
_symmetry_cell_setting 'orthorhombic'
loop_
_space_group_symop_operation_xyz
x,y,z
-x,-y,z
x,-y,-z
-x,y,-z
-x,-y,-z
x,y,-z
-x,y,z
x,-y,z
x,1/2+y,1/2+z
-x,1/2-y,1/2+z
x,1/2-y,1/2-z
-x,1/2+y,1/2-z
-x,1/2-y,1/2-z
x,1/2+y,1/2-z
-x,1/2+y,1/2+z
x,1/2-y,1/2+z
1/2+x,y,1/2+z
1/2-x,-y,1/2+z
1/2+x,-y,1/2-z
1/2-x,y,1/2-z
1/2-x,-y,1/2-z
1/2+x,y,1/2-z
1/2-x,y,1/2+z
1/2+x,-y,1/2+z
1/2+x,1/2+y,z
1/2-x,1/2-y,z
1/2+x,1/2-y,-z
1/2-x,1/2+y,-z
1/2-x,1/2-y,-z
1/2+x,1/2+y,-z
1/2-x,1/2+y,z
1/2+x,1/2-y,z
loop_
_atom_site_type_symbol
_atom_site_label
_atom_site_fract_x
_atom_site_fract_y
_atom_site_fract_z
Si Si1 0.390563 0.241192 0.165285
Si Si2 0.105164 0.571263 0.920307
Si Si3 0.221151 0.929809 0.867172
Si Si4 0.102894 0.635429 0.000000
Si Si5 0.267259 0.343219 0.201921
Si Si6 0.892177 0.676860 0.410808
Si Si7 0.146032 0.227367 0.000000
O O1 0.500000 0.229661 0.170154
O O2 0.353693 0.298585 0.192317
O O3 0.321722 0.187623 0.179481
O O4 0.372512 0.263948 0.118395
O O5 0.103303 0.500000 0.933348
O O6 0.173459 0.575147 0.882367
O O7 0.144718 0.611193 0.957832
O O8 0.000000 0.590551 0.910786
O O9 0.214569 0.907079 0.820557
O O10 0.164702 0.880562 0.893868
O O11 0.191565 0.000000 0.873017
O O12 0.094885 0.707748 0.000000
O O13 0.000000 0.607362 0.000000
O O14 0.250000 0.346693 0.250000
O O15 0.874027 0.691458 0.458241
O O16 0.000000 0.664037 0.405148
O O17 0.250000 0.250000 0.000000
#
# Coordination Sequence:
#
# PCOD9511528 Si02
#       7
#    32  32  32  16  32  32  16
#     4   9  19  35  59  84 115 152 183 220 279 350
#     4   9  18  33  52  77 111 149 190 232 275 334
#     4  10  22  39  58  78 106 148 197 241 287 339
#     4  10  19  30  50  77 107 143 180 219 275 323
#     4  10  21  35  56  85 114 141 184 238 287 348
#     4  10  22  39  57  83 116 152 192 232 276 330
#     4  12  24  33  54  85 120 149 180 235 281 330
#
# _framework density 18.588307
#
# number of rings (size 3 to 8) (size 9 to 14) (size 15 to 20)
#    0.000    2.167    0.000    3.000    7.000    3.667 
#    0.000    1.250    0.000    1.000    0.000    4.667 
#    0.000    0.000    0.000    0.000    0.000    0.000 
#
# Total GULP energy -267706.281716 kJ/mol
# GULP energy per Si atom -5577.214202 kJ/mol
# Density = 1.854600 g / cm^3
# Si number density = 18.588307 Si / 1000 Ang^3
#
#
#
# Elastic Constant Matrix: (Units=GPa)
#
#
# Indices 1 2 3 4 5 6 
#
# 1 92.0136 24.0227 16.8357 0.0000 0.0000 0.0000
# 2 24.0227 82.4965 44.6600 0.0000 0.0000 0.0000
# 3 16.8357 44.6600 127.0265 0.0000 0.0000 0.0000
# 4 0.0000 0.0000 0.0000 15.1358 0.0000 0.0000
# 5 0.0000 0.0000 0.0000 0.0000 15.6930 0.0000
# 6 0.0000 0.0000 0.0000 0.0000 0.0000 21.6819
#
#
#
# Elastic Compliance Matrix: (Units=1/GPa)
#
#
# Indices 1 2 3 4 5 6 
#
# 1 0.011782 -0.003193 -0.000439 0.000000 0.000000 0.000000
# 2 -0.003193 0.015837 -0.005145 0.000000 0.000000 0.000000
# 3 -0.000439 -0.005145 0.009739 0.000000 0.000000 0.000000
# 4 0.000000 0.000000 0.000000 0.066069 0.000000 0.000000
# 5 0.000000 0.000000 0.000000 0.000000 0.063723 0.000000
# 6 0.000000 0.000000 0.000000 0.000000 0.000000 0.046121
#
#
# Mechanical properties :
#
#
# Convention : Reuss Voigt Hill
#
# Bulk Modulus (GPa) = 50.49388 52.50815 51.50102
# Shear Modulus (GPa) = 21.05924 24.90336 22.98130
#
# Velocity S-wave (km/s) = 3.36955 3.66421 3.51996
# Velocity P-wave (km/s) = 6.50860 6.79788 6.65481
#
# Compressibility (1/GPa) = 0.01980438
#
# Stress axis : x y z
#
# Youngs Moduli (GPa) = 84.87561 63.14463 102.67698
#
# Poissons Ratio (x) = 0.20164 0.04506
# Poissons Ratio (y) = 0.27103 0.52823
# Poissons Ratio (z) = 0.03725 0.32486
#
# Static dielectric constant tensor:
#      x y z
#    x 1.627860 0.000000 0.000000 
#    y 0.000000 1.656450 0.000000 
#    z 0.000000 0.000000 1.654570 
# 
# From -- ./inp_files/41138.got.cif
#   From: 2010.05.17/outbox.cif.g08.bks.cpg/sg69_21_cif.got.tgz:41138.got - 2010.06.03 19:29:58.
