data_PCOD9511699
_publ_section_title
;
Structure prediction by ZEFSAII (Michael W. Deem and Ramdas Pophale) SiO2 
 PCOD9511699
Probable space group: F M M M
;
_chemical_formula_sum "Si O2"
_cell_formula_units_Z 208
_cell_length_a 16.875213
_cell_length_b 21.420918
_cell_length_c 30.127104
_cell_angle_alpha 90.000000
_cell_angle_beta 90.000000
_cell_angle_gamma 90.000000
_cell_volume 10890.422496
_symmetry_space_group_name_H-M "F M M M"
_symmetry_group_IT_number 69
_symmetry_cell_setting 'orthorhombic'
loop_
_space_group_symop_operation_xyz
x,y,z
-x,-y,z
x,-y,-z
-x,y,-z
-x,-y,-z
x,y,-z
-x,y,z
x,-y,z
x,1/2+y,1/2+z
-x,1/2-y,1/2+z
x,1/2-y,1/2-z
-x,1/2+y,1/2-z
-x,1/2-y,1/2-z
x,1/2+y,1/2-z
-x,1/2+y,1/2+z
x,1/2-y,1/2+z
1/2+x,y,1/2+z
1/2-x,-y,1/2+z
1/2+x,-y,1/2-z
1/2-x,y,1/2-z
1/2-x,-y,1/2-z
1/2+x,y,1/2-z
1/2-x,y,1/2+z
1/2+x,-y,1/2+z
1/2+x,1/2+y,z
1/2-x,1/2-y,z
1/2+x,1/2-y,-z
1/2-x,1/2+y,-z
1/2-x,1/2-y,-z
1/2+x,1/2+y,-z
1/2-x,1/2+y,z
1/2+x,1/2-y,z
loop_
_atom_site_type_symbol
_atom_site_label
_atom_site_fract_x
_atom_site_fract_y
_atom_site_fract_z
Si Si1 0.594761 0.637704 0.863793
Si Si2 0.903625 0.862504 0.551728
Si Si3 0.904727 0.070646 0.225301
Si Si4 0.336921 0.272566 0.627150
Si Si5 0.403451 0.427043 0.951720
Si Si6 0.663661 0.686286 0.272567
Si Si7 0.409331 0.500000 0.446277
O O1 0.500000 0.629773 0.864090
O O2 0.624813 0.598431 0.821818
O O3 0.613683 0.710289 0.862120
O O4 0.626894 0.610743 0.909955
O O5 0.881238 0.849749 0.500000
O O6 0.874125 0.813273 0.587865
O O7 0.874133 0.932406 0.564877
O O8 0.000000 0.863795 0.552350
O O9 0.881986 0.123362 0.260492
O O10 0.000000 0.067597 0.223268
O O11 0.875550 0.000000 0.233158
O O12 0.250000 0.250000 0.613517
O O13 0.329930 0.306615 0.674673
O O14 0.500000 0.423646 0.951787
O O15 0.383655 0.500000 0.947396
O O16 0.376150 0.404364 0.000000
O O17 0.628589 0.750000 0.250000
O O18 0.750000 0.681106 0.250000
O O19 0.500000 0.500000 0.429269
O O20 0.413462 0.500000 0.500000
#
# Coordination Sequence:
#
# PCOD9511699 Si02
#       7
#    32  32  32  32  32  32  16
#     4  10  19  32  53  78 106 145 185 227 287 350
#     4   9  19  37  62  91 120 151 190 237 291 351
#     4  10  21  36  57  86 114 140 183 245 301 350
#     4  12  23  37  58  82 114 151 196 236 285 342
#     4   8  14  26  46  72 101 133 171 215 260 314
#     4  11  21  42  62  78 109 158 200 241 286 344
#     4   7  12  30  60  86 111 148 187 227 284 345
#
# _framework density 19.099350000000001
#
# number of rings (size 3 to 8) (size 9 to 14) (size 15 to 20)
#    0.000    2.231    3.077    2.308    0.000    4.615 
#    1.385    1.538    3.385    0.000    0.000    0.000 
#    0.000    0.000    0.000    0.000    0.000    0.000 
#
# Total GULP energy -289837.462861 kJ/mol
# GULP energy per Si atom -5573.797363 kJ/mol
# Density = 1.905588 g / cm^3
# Si number density = 19.099350 Si / 1000 Ang^3
#
#
#
# Elastic Constant Matrix: (Units=GPa)
#
#
# Indices 1 2 3 4 5 6 
#
# 1 10.0779 21.5324 24.6915 0.0000 0.0000 0.0000
# 2 21.5324 143.7275 67.1164 0.0000 0.0000 0.0000
# 3 24.6915 67.1164 118.7762 0.0000 0.0000 0.0000
# 4 0.0000 0.0000 0.0000 31.5517 0.0000 0.0000
# 5 0.0000 0.0000 0.0000 0.0000 13.2361 0.0000
# 6 0.0000 0.0000 0.0000 0.0000 0.0000 -1.7827
#
#
#
# Elastic Compliance Matrix: (Units=1/GPa)
#
#
# Indices 1 2 3 4 5 6 
#
# 1 0.227172 -0.016275 -0.038028 0.000000 0.000000 0.000000
# 2 -0.016275 0.010618 -0.002616 0.000000 0.000000 0.000000
# 3 -0.038028 -0.002616 0.017803 0.000000 0.000000 0.000000
# 4 0.000000 0.000000 0.000000 0.031694 0.000000 0.000000
# 5 0.000000 0.000000 0.000000 0.000000 0.075551 0.000000
# 6 0.000000 0.000000 0.000000 0.000000 0.000000 -0.560934
#
#
# Mechanical properties :
#
#
# Convention : Reuss Voigt Hill
#
# Bulk Modulus (GPa) = 7.05456 55.47358 31.26407
# Shear Modulus (GPa) = -135.11430 19.21711 -57.94859
#
# Velocity S-wave (km/s) = -8.42000 3.17545 -5.51421
# Velocity P-wave (km/s) = 9.53032 6.52323 4.91297
#
# Compressibility (1/GPa) = 0.14175235
#
# Stress axis : x y z
#
# Youngs Moduli (GPa) = 4.40195 94.18301 56.17034
#
# Poissons Ratio (x) = 1.53287 2.13607
# Poissons Ratio (y) = 0.07164 0.14696
# Poissons Ratio (z) = 0.16740 0.24641
#
# Static dielectric constant tensor:
#      x y z
#    x 1.701970 0.000000 0.000000 
#    y 0.000000 1.681610 0.000000 
#    z 0.000000 0.000000 1.671000 
# 
# From -- ./inp_files/46489.got.cif
#   From: 2010.05.17/outbox.cif.g08.bks.cpg/sg69_24_cif.got.tgz:46489.got - 2010.06.03 19:29:58.
