data_PCOD9511797
_publ_section_title
;
Structure prediction by ZEFSAII (Michael W. Deem and Ramdas Pophale) SiO2 
 PCOD9511797
Probable space group: F M M M
;
_chemical_formula_sum "Si O2"
_cell_formula_units_Z 192
_cell_length_a 25.054981
_cell_length_b 21.671054
_cell_length_c 19.466873
_cell_angle_alpha 90.000000
_cell_angle_beta 90.000000
_cell_angle_gamma 90.000000
_cell_volume 10569.886105
_symmetry_space_group_name_H-M "F M M M"
_symmetry_group_IT_number 69
_symmetry_cell_setting 'orthorhombic'
loop_
_space_group_symop_operation_xyz
x,y,z
-x,-y,z
x,-y,-z
-x,y,-z
-x,-y,-z
x,y,-z
-x,y,z
x,-y,z
x,1/2+y,1/2+z
-x,1/2-y,1/2+z
x,1/2-y,1/2-z
-x,1/2+y,1/2-z
-x,1/2-y,1/2-z
x,1/2+y,1/2-z
-x,1/2+y,1/2+z
x,1/2-y,1/2+z
1/2+x,y,1/2+z
1/2-x,-y,1/2+z
1/2+x,-y,1/2-z
1/2-x,y,1/2-z
1/2-x,-y,1/2-z
1/2+x,y,1/2-z
1/2-x,y,1/2+z
1/2+x,-y,1/2+z
1/2+x,1/2+y,z
1/2-x,1/2-y,z
1/2+x,1/2-y,-z
1/2-x,1/2+y,-z
1/2-x,1/2-y,-z
1/2+x,1/2+y,-z
1/2-x,1/2+y,z
1/2+x,1/2-y,z
loop_
_atom_site_type_symbol
_atom_site_label
_atom_site_fract_x
_atom_site_fract_y
_atom_site_fract_z
Si Si1 0.206299 0.195169 0.076128
Si Si2 0.741185 0.069917 0.636317
Si Si3 0.441152 0.572963 0.299641
Si Si4 0.326532 0.889201 0.230866
Si Si5 0.561857 0.158100 0.921218
Si Si6 0.362115 0.233558 0.821396
O O1 0.250000 0.250000 0.078661
O O2 0.231401 0.127314 0.085860
O O3 0.166508 0.211181 0.138462
O O4 0.181125 0.198490 0.000000
O O5 0.703825 0.087131 0.701978
O O6 0.800807 0.073470 0.667454
O O7 0.730082 0.000000 0.612584
O O8 0.500000 0.594597 0.275654
O O9 0.439190 0.500000 0.293363
O O10 0.389604 0.600480 0.262387
O O11 0.436509 0.594387 0.378790
O O12 0.319915 0.817985 0.206671
O O13 0.500000 0.178900 0.920182
O O14 0.599388 0.202340 0.876746
O O15 0.579068 0.152935 0.000000
O O16 0.390958 0.250000 0.750000
#
# Coordination Sequence:
#
# PCOD9511797 Si02
#       6
#    32  32  32  32  32  32
#     4  11  23  38  55  78 107 142 183 224 272 329
#     4  11  21  34  55  80 110 144 181 226 273 326
#     4   9  17  30  49  75 108 142 176 213 258 316
#     4  10  19  33  54  80 108 139 180 222 272 320
#     4   9  19  34  51  75 108 142 175 216 268 318
#     4  11  20  34  58  80 103 138 182 228 264 323
#
# _framework density 18.164812999999999
#
# number of rings (size 3 to 8) (size 9 to 14) (size 15 to 20)
#    0.000    1.833    3.333    2.500    0.000    1.333 
#    0.000    1.667    0.000    2.000    0.000    0.000 
#    0.000    0.000    0.000    7.000    0.000    0.000 
#
# Total GULP energy -267266.262364 kJ/mol
# GULP energy per Si atom -5568.047133 kJ/mol
# Density = 1.812347 g / cm^3
# Si number density = 18.164813 Si / 1000 Ang^3
#
#
#
# Elastic Constant Matrix: (Units=GPa)
#
#
# Indices 1 2 3 4 5 6 
#
# 1 62.5127 6.9564 10.9933 0.0000 0.0000 0.0000
# 2 6.9564 100.1808 2.3753 0.0000 0.0000 0.0000
# 3 10.9933 2.3753 65.3217 0.0000 0.0000 0.0000
# 4 0.0000 0.0000 0.0000 10.7065 0.0000 0.0000
# 5 0.0000 0.0000 0.0000 0.0000 22.0186 0.0000
# 6 0.0000 0.0000 0.0000 0.0000 0.0000 20.4949
#
#
#
# Elastic Compliance Matrix: (Units=1/GPa)
#
#
# Indices 1 2 3 4 5 6 
#
# 1 0.016602 -0.001088 -0.002755 0.000000 0.000000 0.000000
# 2 -0.001088 0.010062 -0.000183 0.000000 0.000000 0.000000
# 3 -0.002755 -0.000183 0.015779 0.000000 0.000000 0.000000
# 4 0.000000 0.000000 0.000000 0.093401 0.000000 0.000000
# 5 0.000000 0.000000 0.000000 0.000000 0.045416 0.000000
# 6 0.000000 0.000000 0.000000 0.000000 0.000000 0.048793
#
#
# Mechanical properties :
#
#
# Convention : Reuss Voigt Hill
#
# Bulk Modulus (GPa) = 29.07549 29.85172 29.46361
# Shear Modulus (GPa) = 20.03469 24.49002 22.26235
#
# Velocity S-wave (km/s) = 3.32466 3.67578 3.50462
# Velocity P-wave (km/s) = 5.54788 5.87237 5.71243
#
# Compressibility (1/GPa) = 0.03439323
#
# Stress axis : x y z
#
# Youngs Moduli (GPa) = 60.23310 99.38580 63.37513
#
# Poissons Ratio (x) = 0.10808 0.17457
# Poissons Ratio (y) = 0.06550 0.01159
# Poissons Ratio (z) = 0.16591 0.01817
#
# Static dielectric constant tensor:
#      x y z
#    x 1.667090 0.000000 0.000000 
#    y 0.000000 1.674150 0.000000 
#    z 0.000000 0.000000 1.630080 
# 
# From -- ./inp_files/32127.got.cif
#   From: 2010.05.17/outbox.cif.g08.bks.cpg/sg69_17_cif.got.tgz:32127.got - 2010.06.03 19:29:58.
