data_PCOD9511185
_publ_section_title
;
Structure prediction by ZEFSAII (Michael W. Deem and Ramdas Pophale) SiO2 
 PCOD9511185
Probable space group: F M M M
;
_chemical_formula_sum "Si O2"
_cell_formula_units_Z 168
_cell_length_a 22.284302
_cell_length_b 13.938399
_cell_length_c 28.555486
_cell_angle_alpha 90.000000
_cell_angle_beta 90.000000
_cell_angle_gamma 90.000000
_cell_volume 8869.547910
_symmetry_space_group_name_H-M "F M M M"
_symmetry_group_IT_number 69
_symmetry_cell_setting 'orthorhombic'
loop_
_space_group_symop_operation_xyz
x,y,z
-x,-y,z
x,-y,-z
-x,y,-z
-x,-y,-z
x,y,-z
-x,y,z
x,-y,z
x,1/2+y,1/2+z
-x,1/2-y,1/2+z
x,1/2-y,1/2-z
-x,1/2+y,1/2-z
-x,1/2-y,1/2-z
x,1/2+y,1/2-z
-x,1/2+y,1/2+z
x,1/2-y,1/2+z
1/2+x,y,1/2+z
1/2-x,-y,1/2+z
1/2+x,-y,1/2-z
1/2-x,y,1/2-z
1/2-x,-y,1/2-z
1/2+x,y,1/2-z
1/2-x,y,1/2+z
1/2+x,-y,1/2+z
1/2+x,1/2+y,z
1/2-x,1/2-y,z
1/2+x,1/2-y,-z
1/2-x,1/2+y,-z
1/2-x,1/2-y,-z
1/2+x,1/2+y,-z
1/2-x,1/2+y,z
1/2+x,1/2-y,z
loop_
_atom_site_type_symbol
_atom_site_label
_atom_site_fract_x
_atom_site_fract_y
_atom_site_fract_z
Si Si1 0.247612 0.894117 0.602082
Si Si2 0.317533 0.388076 0.263574
Si Si3 0.862830 0.000000 0.500000
Si Si4 0.071286 0.500000 0.900767
Si Si5 0.633466 0.108111 0.661688
Si Si6 0.866986 0.187984 0.359761
Si Si7 0.749014 0.137447 0.000000
O O1 0.298871 0.888098 0.640730
O O2 0.193718 0.819406 0.608696
O O3 0.275462 0.891606 0.550186
O O4 0.219040 0.000000 0.607335
O O5 0.313809 0.500000 0.277698
O O6 0.250000 0.358744 0.250000
O O7 0.358915 0.383066 0.217568
O O8 0.343277 0.330658 0.307165
O O9 0.901482 0.000000 0.546893
O O10 0.817209 0.090284 0.500000
O O11 0.092759 0.401809 0.875299
O O12 0.000000 0.500000 0.902812
O O13 0.605100 0.205177 0.640398
O O14 0.610159 0.000000 0.651047
O O15 0.750000 0.250000 0.000000
#
# Coordination Sequence:
#
# PCOD9511185 Si02
#       7
#    32  32   8  16  32  32  16
#     4  11  19  32  48  77 117 160 186 224 281 358
#     4  10  18  29  49  83 121 156 188 225 287 369
#     4  12  23  44  60  88 126 158 191 250 300 336
#     4  12  27  44  65  85 105 152 217 267 304 331
#     4  10  22  31  49  84 124 155 189 219 284 377
#     4  12  19  36  56  79 117 151 195 251 296 339
#     4  12  20  31  53  82 117 155 183 211 286 369
#
# _framework density 18.941213999999999
#
# number of rings (size 3 to 8) (size 9 to 14) (size 15 to 20)
#    0.000    0.952    6.667    2.429    0.000    0.762 
#    0.000    0.000    0.000    2.857    0.000    0.000 
#    0.000    1.524    0.000    0.000    0.000    0.000 
#
# Total GULP energy -234316.954759 kJ/mol
# GULP energy per Si atom -5578.975113 kJ/mol
# Density = 1.889810 g / cm^3
# Si number density = 18.941214 Si / 1000 Ang^3
#
#
#
# Elastic Constant Matrix: (Units=GPa)
#
#
# Indices 1 2 3 4 5 6 
#
# 1 42.8365 19.3587 13.0827 0.0000 0.0000 0.0000
# 2 19.3587 177.6794 21.4099 0.0000 0.0000 0.0000
# 3 13.0827 21.4099 109.9081 0.0000 0.0000 0.0000
# 4 0.0000 0.0000 0.0000 26.4414 0.0000 0.0000
# 5 0.0000 0.0000 0.0000 0.0000 5.8913 0.0000
# 6 0.0000 0.0000 0.0000 0.0000 0.0000 6.5296
#
#
#
# Elastic Compliance Matrix: (Units=1/GPa)
#
#
# Indices 1 2 3 4 5 6 
#
# 1 0.025220 -0.002443 -0.002526 0.000000 0.000000 0.000000
# 2 -0.002443 0.006000 -0.000878 0.000000 0.000000 0.000000
# 3 -0.002526 -0.000878 0.009570 0.000000 0.000000 0.000000
# 4 0.000000 0.000000 0.000000 0.037820 0.000000 0.000000
# 5 0.000000 0.000000 0.000000 0.000000 0.169741 0.000000
# 6 0.000000 0.000000 0.000000 0.000000 0.000000 0.153149
#
#
# Mechanical properties :
#
#
# Convention : Reuss Voigt Hill
#
# Bulk Modulus (GPa) = 34.36934 48.68074 41.52504
# Shear Modulus (GPa) = 11.82333 26.21065 19.01699
#
# Velocity S-wave (km/s) = 2.50113 3.72397 3.17203
# Velocity P-wave (km/s) = 5.15030 6.65187 5.94865
#
# Compressibility (1/GPa) = 0.02909570
#
# Stress axis : x y z
#
# Youngs Moduli (GPa) = 39.65061 166.66320 104.49080
#
# Poissons Ratio (x) = 0.40723 0.26395
# Poissons Ratio (y) = 0.09688 0.09174
# Poissons Ratio (z) = 0.10016 0.14632
#
# Static dielectric constant tensor:
#      x y z
#    x 1.611240 0.000000 0.000000 
#    y 0.000000 1.749580 0.000000 
#    z 0.000000 0.000000 1.681270 
# 
# From -- ./inp_files/42632.got.cif
#   From: 2010.05.17/outbox.cif.g08.bks.cpg/sg69_22_cif.got.tgz:42632.got - 2010.06.03 19:29:58.
