data_PCOD9511863
_publ_section_title
;
Structure prediction by ZEFSAII (Michael W. Deem and Ramdas Pophale) SiO2 
 PCOD9511863
Probable space group: F M M M
;
_chemical_formula_sum "Si O2"
_cell_formula_units_Z 144
_cell_length_a 25.467585
_cell_length_b 24.287490
_cell_length_c 13.725271
_cell_angle_alpha 90.000000
_cell_angle_beta 90.000000
_cell_angle_gamma 90.000000
_cell_volume 8489.680128
_symmetry_space_group_name_H-M "F M M M"
_symmetry_group_IT_number 69
_symmetry_cell_setting 'orthorhombic'
loop_
_space_group_symop_operation_xyz
x,y,z
-x,-y,z
x,-y,-z
-x,y,-z
-x,-y,-z
x,y,-z
-x,y,z
x,-y,z
x,1/2+y,1/2+z
-x,1/2-y,1/2+z
x,1/2-y,1/2-z
-x,1/2+y,1/2-z
-x,1/2-y,1/2-z
x,1/2+y,1/2-z
-x,1/2+y,1/2+z
x,1/2-y,1/2+z
1/2+x,y,1/2+z
1/2-x,-y,1/2+z
1/2+x,-y,1/2-z
1/2-x,y,1/2-z
1/2-x,-y,1/2-z
1/2+x,y,1/2-z
1/2-x,y,1/2+z
1/2+x,-y,1/2+z
1/2+x,1/2+y,z
1/2-x,1/2-y,z
1/2+x,1/2-y,-z
1/2-x,1/2+y,-z
1/2-x,1/2-y,-z
1/2+x,1/2+y,-z
1/2-x,1/2+y,z
1/2+x,1/2-y,z
loop_
_atom_site_type_symbol
_atom_site_label
_atom_site_fract_x
_atom_site_fract_y
_atom_site_fract_z
Si Si1 0.000000 0.936638 0.118123
Si Si2 0.387007 0.891718 0.617176
Si Si3 0.322785 0.288834 0.882293
Si Si4 0.688140 0.939733 0.227115
Si Si5 0.207022 0.169402 0.617127
O O1 0.946086 0.906901 0.146508
O O2 0.000000 0.000000 0.151605
O O3 0.000000 0.937552 0.000000
O O4 0.381405 0.899372 0.500000
O O5 0.370500 0.829048 0.641309
O O6 0.346171 0.929334 0.676228
O O7 0.268234 0.319607 0.854991
O O8 0.321838 0.225515 0.849603
O O9 0.320700 0.285375 0.000000
O O10 0.750000 0.941285 0.250000
O O11 0.682850 0.886032 0.159794
O O12 0.673971 0.000000 0.185567
O O13 0.205783 0.166070 0.500000
#
# Coordination Sequence:
#
# PCOD9511863 Si02
#       5
#    16  32  32  32  32
#     4   9  18  32  52  73  97 139 180 207 255 313
#     4  10  19  34  52  75 104 132 167 215 256 299
#     4   8  15  29  51  72  94 128 166 206 252 294
#     4  11  22  31  44  72 103 136 171 201 254 313
#     4   9  17  32  49  70  99 131 169 203 242 305
#
# _framework density 16.961770000000001
#
# number of rings (size 3 to 8) (size 9 to 14) (size 15 to 20)
#    0.000    2.556    2.222    2.000    0.000    2.667 
#    0.000    2.222    0.000    2.667    0.000    2.333 
#    0.000    2.667    0.000    0.000    0.000    0.000 
#
# Total GULP energy -200629.339738 kJ/mol
# GULP energy per Si atom -5573.037215 kJ/mol
# Density = 1.692316 g / cm^3
# Si number density = 16.961770 Si / 1000 Ang^3
#
#
#
# Elastic Constant Matrix: (Units=GPa)
#
#
# Indices 1 2 3 4 5 6 
#
# 1 117.0775 63.5417 27.7018 0.0000 0.0000 0.0000
# 2 63.5417 181.2765 39.6207 0.0000 0.0000 0.0000
# 3 27.7018 39.6207 53.5019 0.0000 0.0000 0.0000
# 4 0.0000 0.0000 0.0000 20.2391 0.0000 0.0000
# 5 0.0000 0.0000 0.0000 0.0000 17.4217 0.0000
# 6 0.0000 0.0000 0.0000 0.0000 0.0000 58.1855
#
#
#
# Elastic Compliance Matrix: (Units=1/GPa)
#
#
# Indices 1 2 3 4 5 6 
#
# 1 0.011044 -0.003128 -0.003402 0.000000 0.000000 0.000000
# 2 -0.003128 0.007467 -0.003911 0.000000 0.000000 0.000000
# 3 -0.003402 -0.003911 0.023348 0.000000 0.000000 0.000000
# 4 0.000000 0.000000 0.000000 0.049409 0.000000 0.000000
# 5 0.000000 0.000000 0.000000 0.000000 0.057400 0.000000
# 6 0.000000 0.000000 0.000000 0.000000 0.000000 0.017186
#
#
# Mechanical properties :
#
#
# Convention : Reuss Voigt Hill
#
# Bulk Modulus (GPa) = 47.66637 68.17603 57.92120
# Shear Modulus (GPa) = 25.80930 33.90203 29.85567
#
# Velocity S-wave (km/s) = 3.90502 4.47557 4.19999
# Velocity P-wave (km/s) = 6.96387 8.18467 7.59883
#
# Compressibility (1/GPa) = 0.02097915
#
# Stress axis : x y z
#
# Youngs Moduli (GPa) = 90.54919 133.91482 42.82936
#
# Poissons Ratio (x) = 0.41882 0.14571
# Poissons Ratio (y) = 0.28319 0.16749
# Poissons Ratio (z) = 0.30805 0.52369
#
# Static dielectric constant tensor:
#      x y z
#    x 1.544700 0.000000 0.000000 
#    y 0.000000 1.620120 0.000000 
#    z 0.000000 0.000000 1.619370 
# 
# From -- ./inp_files/26846.got.cif
#   From: 2010.05.17/outbox.cif.g08.bks.cpg/sg69_14_cif.got.tgz:26846.got - 2010.06.03 19:29:58.
