data_PCOD9511698
_publ_section_title
;
Structure prediction by ZEFSAII (Michael W. Deem and Ramdas Pophale) SiO2 
 PCOD9511698
Probable space group: F M M M
;
_chemical_formula_sum "Si O2"
_cell_formula_units_Z 160
_cell_length_a 8.593568
_cell_length_b 39.219332
_cell_length_c 27.012848
_cell_angle_alpha 90.000000
_cell_angle_beta 90.000000
_cell_angle_gamma 90.000000
_cell_volume 9104.248117
_symmetry_space_group_name_H-M "F M M M"
_symmetry_group_IT_number 69
_symmetry_cell_setting 'orthorhombic'
loop_
_space_group_symop_operation_xyz
x,y,z
-x,-y,z
x,-y,-z
-x,y,-z
-x,-y,-z
x,y,-z
-x,y,z
x,-y,z
x,1/2+y,1/2+z
-x,1/2-y,1/2+z
x,1/2-y,1/2-z
-x,1/2+y,1/2-z
-x,1/2-y,1/2-z
x,1/2+y,1/2-z
-x,1/2+y,1/2+z
x,1/2-y,1/2+z
1/2+x,y,1/2+z
1/2-x,-y,1/2+z
1/2+x,-y,1/2-z
1/2-x,y,1/2-z
1/2-x,-y,1/2-z
1/2+x,y,1/2-z
1/2-x,y,1/2+z
1/2+x,-y,1/2+z
1/2+x,1/2+y,z
1/2-x,1/2-y,z
1/2+x,1/2-y,-z
1/2-x,1/2+y,-z
1/2-x,1/2-y,-z
1/2+x,1/2+y,-z
1/2-x,1/2+y,z
1/2+x,1/2-y,z
loop_
_atom_site_type_symbol
_atom_site_label
_atom_site_fract_x
_atom_site_fract_y
_atom_site_fract_z
Si Si1 0.310925 0.337500 0.892497
Si Si2 0.684177 0.334058 0.000000
Si Si3 0.814054 0.460624 0.303122
Si Si4 0.814439 0.914538 0.609204
Si Si5 0.313134 0.711940 0.196486
Si Si6 0.813209 0.409944 0.000000
O O1 0.500000 0.339555 0.893252
O O2 0.256853 0.322718 0.946023
O O3 0.245922 0.375674 0.886814
O O4 0.264772 0.313471 0.847204
O O5 0.719974 0.374467 0.000000
O O6 0.500000 0.327766 0.000000
O O7 0.761725 0.500000 0.309634
O O8 0.750000 0.448575 0.250000
O O9 0.757741 0.437745 0.348405
O O10 0.000000 0.460128 0.301211
O O11 0.777752 0.926909 0.552877
O O12 0.000000 0.914559 0.614662
O O13 0.500000 0.713154 0.198350
O O14 0.250000 0.700709 0.250000
O O15 0.250000 0.750000 0.187564
O O16 0.000000 0.402553 0.000000
#
# Coordination Sequence:
#
# PCOD9511698 Si02
#       6
#    32  16  32  32  32  16
#     4   9  18  32  51  74  99 128 164 204 245 291
#     4   8  14  28  49  70  94 126 161 199 243 288
#     4  10  21  37  55  74  99 132 168 206 250 299
#     4  10  19  32  53  78 104 133 166 206 247 291
#     4  10  20  34  51  70  95 128 163 200 243 292
#     4   8  16  30  47  72 103 133 164 198 243 292
#
# _framework density 17.574213
#
# number of rings (size 3 to 8) (size 9 to 14) (size 15 to 20)
#    0.000    2.600    0.000    2.400    0.000    4.400 
#    0.000    3.000    0.000    3.000    0.000    0.000 
#    0.000    0.000    0.000    0.000    0.000    0.000 
#
# Total GULP energy -222857.928127 kJ/mol
# GULP energy per Si atom -5571.448203 kJ/mol
# Density = 1.753421 g / cm^3
# Si number density = 17.574213 Si / 1000 Ang^3
#
#
#
# Elastic Constant Matrix: (Units=GPa)
#
#
# Indices 1 2 3 4 5 6 
#
# 1 31.9985 18.0891 41.8966 0.0000 0.0000 0.0000
# 2 18.0891 53.4851 86.3225 0.0000 0.0000 0.0000
# 3 41.8966 86.3225 213.6740 0.0000 0.0000 0.0000
# 4 0.0000 0.0000 0.0000 -83.0196 0.0000 0.0000
# 5 0.0000 0.0000 0.0000 0.0000 24.1084 0.0000
# 6 0.0000 0.0000 0.0000 0.0000 0.0000 16.9242
#
#
#
# Elastic Compliance Matrix: (Units=1/GPa)
#
#
# Indices 1 2 3 4 5 6 
#
# 1 0.042175 -0.002636 -0.007205 0.000000 0.000000 0.000000
# 2 -0.002636 0.053895 -0.021256 0.000000 0.000000 0.000000
# 3 -0.007205 -0.021256 0.014680 0.000000 0.000000 0.000000
# 4 0.000000 0.000000 0.000000 -0.012045 0.000000 0.000000
# 5 0.000000 0.000000 0.000000 0.000000 0.041479 0.000000
# 6 0.000000 0.000000 0.000000 0.000000 0.000000 0.059087
#
#
# Mechanical properties :
#
#
# Convention : Reuss Voigt Hill
#
# Bulk Modulus (GPa) = 20.59475 65.75269 43.17372
# Shear Modulus (GPa) = 18.00832 1.79256 9.90044
#
# Velocity S-wave (km/s) = 3.20457 1.01104 2.37608
# Velocity P-wave (km/s) = 5.04346 6.23366 5.66988
#
# Compressibility (1/GPa) = 0.04855606
#
# Stress axis : x y z
#
# Youngs Moduli (GPa) = 23.71087 18.55469 68.11988
#
# Poissons Ratio (x) = 0.04891 0.49078
# Poissons Ratio (y) = 0.06250 1.44797
# Poissons Ratio (z) = 0.17083 0.39440
#
# Static dielectric constant tensor:
#      x y z
#    x 1.596950 0.000000 0.000000 
#    y 0.000000 1.559840 0.000000 
#    z 0.000000 0.000000 1.637030 
# 
# From -- ./inp_files/44613.got.cif
#   From: 2010.05.17/outbox.cif.g08.bks.cpg/sg69_23_cif.got.tgz:44613.got - 2010.06.03 19:29:58.
