data_PCOD9511262
_publ_section_title
;
Structure prediction by ZEFSAII (Michael W. Deem and Ramdas Pophale) SiO2 
 PCOD9511262
Probable space group: F M M M
;
_chemical_formula_sum "Si O2"
_cell_formula_units_Z 176
_cell_length_a 23.831113
_cell_length_b 15.464442
_cell_length_c 23.962496
_cell_angle_alpha 90.000000
_cell_angle_beta 90.000000
_cell_angle_gamma 90.000000
_cell_volume 8831.015223
_symmetry_space_group_name_H-M "F M M M"
_symmetry_group_IT_number 69
_symmetry_cell_setting 'orthorhombic'
loop_
_space_group_symop_operation_xyz
x,y,z
-x,-y,z
x,-y,-z
-x,y,-z
-x,-y,-z
x,y,-z
-x,y,z
x,-y,z
x,1/2+y,1/2+z
-x,1/2-y,1/2+z
x,1/2-y,1/2-z
-x,1/2+y,1/2-z
-x,1/2-y,1/2-z
x,1/2+y,1/2-z
-x,1/2+y,1/2+z
x,1/2-y,1/2+z
1/2+x,y,1/2+z
1/2-x,-y,1/2+z
1/2+x,-y,1/2-z
1/2-x,y,1/2-z
1/2-x,-y,1/2-z
1/2+x,y,1/2-z
1/2-x,y,1/2+z
1/2+x,-y,1/2+z
1/2+x,1/2+y,z
1/2-x,1/2-y,z
1/2+x,1/2-y,-z
1/2-x,1/2+y,-z
1/2-x,1/2-y,-z
1/2+x,1/2+y,-z
1/2-x,1/2+y,z
1/2+x,1/2-y,z
loop_
_atom_site_type_symbol
_atom_site_label
_atom_site_fract_x
_atom_site_fract_y
_atom_site_fract_z
Si Si1 0.654576 0.903033 0.882010
Si Si2 0.062386 0.224879 0.624906
Si Si3 0.260048 0.851590 0.315407
Si Si4 0.060334 0.240368 0.500000
Si Si5 0.127087 0.595999 0.623008
Si Si6 0.291637 0.395642 0.500000
Si Si7 0.665046 0.364896 0.000000
O O1 0.611534 0.836685 0.853320
O O2 0.712390 0.902189 0.848428
O O3 0.631053 0.000000 0.884423
O O4 0.673638 0.876047 0.944342
O O5 0.058665 0.195213 0.559757
O O6 0.083148 0.324505 0.625744
O O7 0.000000 0.216758 0.649220
O O8 0.250000 0.864464 0.250000
O O9 0.250000 0.750000 0.328101
O O10 0.320939 0.880344 0.336792
O O11 0.118856 0.289846 0.500000
O O12 0.000000 0.292657 0.500000
O O13 0.104850 0.500000 0.636263
O O14 0.151335 0.592650 0.559729
O O15 0.280187 0.500000 0.500000
O O16 0.231478 0.348955 0.500000
#
# Coordination Sequence:
#
# PCOD9511262 Si02
#       7
#    32  32  32  16  32  16  16
#     4  11  22  37  59  88 119 153 193 234 287 347
#     4  10  21  38  56  81 116 155 199 241 283 333
#     4  11  23  40  61  87 120 153 188 235 292 350
#     4   8  17  33  51  75 115 163 201 229 271 338
#     4  11  21  36  59  88 120 154 192 233 287 345
#     4  10  19  31  52  87 123 150 184 235 288 344
#     4  10  18  30  54  87 122 154 187 236 285 337
#
# _framework density 19.929758
#
# number of rings (size 3 to 8) (size 9 to 14) (size 15 to 20)
#    0.000    1.636    3.636    1.909    0.000    2.182 
#    0.000    2.727    0.000   12.273    0.000    2.545 
#    0.000    0.000    0.000    0.000    0.000    0.000 
#
# Total GULP energy -245258.864089 kJ/mol
# GULP energy per Si atom -5574.065093 kJ/mol
# Density = 1.988440 g / cm^3
# Si number density = 19.929758 Si / 1000 Ang^3
#
#
#
# Elastic Constant Matrix: (Units=GPa)
#
#
# Indices 1 2 3 4 5 6 
#
# 1 119.2107 38.6980 -3.1641 0.0000 0.0000 0.0000
# 2 38.6980 74.5149 12.1826 0.0000 0.0000 0.0000
# 3 -3.1641 12.1826 37.9555 0.0000 0.0000 0.0000
# 4 0.0000 0.0000 0.0000 -818.9480 0.0000 0.0000
# 5 0.0000 0.0000 0.0000 0.0000 6.3163 0.0000
# 6 0.0000 0.0000 0.0000 0.0000 0.0000 7.3724
#
#
#
# Elastic Compliance Matrix: (Units=1/GPa)
#
#
# Indices 1 2 3 4 5 6 
#
# 1 0.010351 -0.005822 0.002732 0.000000 0.000000 0.000000
# 2 -0.005822 0.017438 -0.006083 0.000000 0.000000 0.000000
# 3 0.002732 -0.006083 0.028527 0.000000 0.000000 0.000000
# 4 0.000000 0.000000 0.000000 -0.001221 0.000000 0.000000
# 5 0.000000 0.000000 0.000000 0.000000 0.158321 0.000000
# 6 0.000000 0.000000 0.000000 0.000000 0.000000 0.135641
#
#
# Mechanical properties :
#
#
# Convention : Reuss Voigt Hill
#
# Bulk Modulus (GPa) = 26.33673 36.34600 31.34136
# Shear Modulus (GPa) = 13.15581 -148.78757 -67.81588
#
# Velocity S-wave (km/s) = 2.57205 -8.64974 -5.83963
# Velocity P-wave (km/s) = 4.69724 9.02667 5.45054
#
# Compressibility (1/GPa) = 0.03796979
#
# Stress axis : x y z
#
# Youngs Moduli (GPa) = 96.60890 57.34521 35.05491
#
# Poissons Ratio (x) = 0.33388 -0.09576
# Poissons Ratio (y) = 0.56248 0.21322
# Poissons Ratio (z) = -0.26390 0.34880
#
# Static dielectric constant tensor:
#      x y z
#    x 1.719760 0.000000 0.000000 
#    y 0.000000 1.767830 0.000000 
#    z 0.000000 0.000000 1.735270 
# 
# From -- ./inp_files/43186.got.cif
#   From: 2010.05.17/outbox.cif.g08.bks.cpg/sg69_22_cif.got.tgz:43186.got - 2010.06.03 19:29:58.
