data_PCOD9511780
_publ_section_title
;
Structure prediction by ZEFSAII (Michael W. Deem and Ramdas Pophale) SiO2 
 PCOD9511780
Probable space group: F M M M
;
_chemical_formula_sum "Si O2"
_cell_formula_units_Z 192
_cell_length_a 18.949693
_cell_length_b 28.390866
_cell_length_c 20.939583
_cell_angle_alpha 90.000000
_cell_angle_beta 90.000000
_cell_angle_gamma 90.000000
_cell_volume 11265.457852
_symmetry_space_group_name_H-M "F M M M"
_symmetry_group_IT_number 69
_symmetry_cell_setting 'orthorhombic'
loop_
_space_group_symop_operation_xyz
x,y,z
-x,-y,z
x,-y,-z
-x,y,-z
-x,-y,-z
x,y,-z
-x,y,z
x,-y,z
x,1/2+y,1/2+z
-x,1/2-y,1/2+z
x,1/2-y,1/2-z
-x,1/2+y,1/2-z
-x,1/2-y,1/2-z
x,1/2+y,1/2-z
-x,1/2+y,1/2+z
x,1/2-y,1/2+z
1/2+x,y,1/2+z
1/2-x,-y,1/2+z
1/2+x,-y,1/2-z
1/2-x,y,1/2-z
1/2-x,-y,1/2-z
1/2+x,y,1/2-z
1/2-x,y,1/2+z
1/2+x,-y,1/2+z
1/2+x,1/2+y,z
1/2-x,1/2-y,z
1/2+x,1/2-y,-z
1/2-x,1/2+y,-z
1/2-x,1/2-y,-z
1/2+x,1/2+y,-z
1/2-x,1/2+y,z
1/2+x,1/2-y,z
loop_
_atom_site_type_symbol
_atom_site_label
_atom_site_fract_x
_atom_site_fract_y
_atom_site_fract_z
Si Si1 0.418512 0.608404 0.750598
Si Si2 0.080735 0.443911 0.613500
Si Si3 0.829570 0.701105 0.719276
Si Si4 0.700297 0.555805 0.309709
Si Si5 0.276799 0.596835 0.931200
Si Si6 0.801195 0.295034 0.570847
O O1 0.500000 0.616297 0.735064
O O2 0.415433 0.576135 0.814478
O O3 0.377498 0.656848 0.763148
O O4 0.374550 0.580642 0.697766
O O5 0.095872 0.500000 0.612560
O O6 0.140208 0.415588 0.575544
O O7 0.000000 0.437179 0.590872
O O8 0.854498 0.750000 0.750000
O O9 0.750000 0.694026 0.750000
O O10 0.833552 0.706642 0.642206
O O11 0.692689 0.500000 0.307145
O O12 0.750000 0.570330 0.250000
O O13 0.738819 0.571751 0.373316
O O14 0.266266 0.653040 0.927843
O O15 0.251824 0.579747 0.000000
O O16 0.838665 0.293843 0.500000
O O17 0.750000 0.250000 0.569830
#
# Coordination Sequence:
#
# PCOD9511780 Si02
#       6
#    32  32  32  32  32  32
#     4  11  22  36  56  82 115 151 189 232 286 344
#     4  10  20  34  53  80 118 158 188 219 272 346
#     4  11  20  34  59  86 112 144 186 240 289 333
#     4  11  21  35  57  82 111 148 191 239 280 327
#     4  11  22  36  57  85 116 150 190 238 285 334
#     4  10  19  33  53  81 112 145 182 222 276 343
#
# _framework density 17.043248999999999
#
# number of rings (size 3 to 8) (size 9 to 14) (size 15 to 20)
#    0.000    1.333    5.000    2.500    0.000    3.000 
#    0.000    0.833    0.000    1.000    0.000    1.167 
#    0.000    0.000    0.000    0.000    0.000    0.000 
#
# Total GULP energy -267495.818156 kJ/mol
# GULP energy per Si atom -5572.829545 kJ/mol
# Density = 1.700446 g / cm^3
# Si number density = 17.043249 Si / 1000 Ang^3
#
#
#
# Elastic Constant Matrix: (Units=GPa)
#
#
# Indices 1 2 3 4 5 6 
#
# 1 84.7802 50.7964 37.6966 0.0000 0.0000 0.0000
# 2 50.7964 100.8150 21.1926 0.0000 0.0000 0.0000
# 3 37.6966 21.1926 126.6679 0.0000 0.0000 0.0000
# 4 0.0000 0.0000 0.0000-1064.6963 0.0000 0.0000
# 5 0.0000 0.0000 0.0000 0.0000 -45.3031 0.0000
# 6 0.0000 0.0000 0.0000 0.0000 0.0000 18.6273
#
#
#
# Elastic Compliance Matrix: (Units=1/GPa)
#
#
# Indices 1 2 3 4 5 6 
#
# 1 0.018792 -0.008595 -0.004155 0.000000 0.000000 0.000000
# 2 -0.008595 0.014212 0.000180 0.000000 0.000000 0.000000
# 3 -0.004155 0.000180 0.009101 0.000000 0.000000 0.000000
# 4 0.000000 0.000000 0.000000 -0.000939 0.000000 0.000000
# 5 0.000000 0.000000 0.000000 0.000000 -0.022074 0.000000
# 6 0.000000 0.000000 0.000000 0.000000 0.000000 0.053685
#
#
# Mechanical properties :
#
#
# Convention : Reuss Voigt Hill
#
# Bulk Modulus (GPa) = 58.94155 59.07048 59.00601
# Shear Modulus (GPa) = 48.27551 -204.76924 -78.24686
#
# Velocity S-wave (km/s) = 5.32793 -10.97304 -6.78310
# Velocity P-wave (km/s) = 8.51514 11.21647 5.16244
#
# Compressibility (1/GPa) = 0.01696596
#
# Stress axis : x y z
#
# Youngs Moduli (GPa) = 53.21291 70.36253 109.87895
#
# Poissons Ratio (x) = 0.60479 0.45650
# Poissons Ratio (y) = 0.45738 -0.01980
# Poissons Ratio (z) = 0.22108 -0.01268
#
# Static dielectric constant tensor:
#      x y z
#    x 1.575000 0.000000 0.000000 
#    y 0.000000 1.567160 0.000000 
#    z 0.000000 0.000000 1.616860 
# 
# From -- ./inp_files/32164.got.cif
#   From: 2010.05.17/outbox.cif.g08.bks.cpg/sg69_17_cif.got.tgz:32164.got - 2010.06.03 19:29:58.
