data_PCOD9511782
_publ_section_title
;
Structure prediction by ZEFSAII (Michael W. Deem and Ramdas Pophale) SiO2 
 PCOD9511782
Probable space group: F M M M
;
_chemical_formula_sum "Si O2"
_cell_formula_units_Z 112
_cell_length_a 23.831668
_cell_length_b 27.352059
_cell_length_c 8.432844
_cell_angle_alpha 90.000000
_cell_angle_beta 90.000000
_cell_angle_gamma 90.000000
_cell_volume 5496.908793
_symmetry_space_group_name_H-M "F M M M"
_symmetry_group_IT_number 69
_symmetry_cell_setting 'orthorhombic'
loop_
_space_group_symop_operation_xyz
x,y,z
-x,-y,z
x,-y,-z
-x,y,-z
-x,-y,-z
x,y,-z
-x,y,z
x,-y,z
x,1/2+y,1/2+z
-x,1/2-y,1/2+z
x,1/2-y,1/2-z
-x,1/2+y,1/2-z
-x,1/2-y,1/2-z
x,1/2+y,1/2-z
-x,1/2+y,1/2+z
x,1/2-y,1/2+z
1/2+x,y,1/2+z
1/2-x,-y,1/2+z
1/2+x,-y,1/2-z
1/2-x,y,1/2-z
1/2-x,-y,1/2-z
1/2+x,y,1/2-z
1/2-x,y,1/2+z
1/2+x,-y,1/2+z
1/2+x,1/2+y,z
1/2-x,1/2-y,z
1/2+x,1/2-y,-z
1/2-x,1/2+y,-z
1/2-x,1/2-y,-z
1/2+x,1/2+y,-z
1/2-x,1/2+y,z
1/2+x,1/2-y,z
loop_
_atom_site_type_symbol
_atom_site_label
_atom_site_fract_x
_atom_site_fract_y
_atom_site_fract_z
Si Si1 0.500000 0.557052 0.690576
Si Si2 0.625565 0.305032 0.309904
Si Si3 0.313397 0.000000 0.809840
Si Si4 0.500000 0.804665 0.809638
Si Si5 0.620440 0.905284 0.311263
O O1 0.500000 0.500000 0.738986
O O2 0.500000 0.559549 0.500000
O O3 0.442951 0.582557 0.749106
O O4 0.627215 0.302570 0.500000
O O5 0.640416 0.250000 0.250000
O O6 0.561868 0.318144 0.253649
O O7 0.651894 0.355868 0.251858
O O8 0.250000 0.000000 0.750000
O O9 0.344417 0.952063 0.744819
O O10 0.316297 0.000000 0.000000
O O11 0.500000 0.750000 0.750000
O O12 0.500000 0.810701 0.000000
O O13 0.617888 0.902147 0.500000
#
# Coordination Sequence:
#
# PCOD9511782 Si02
#       5
#    16  32  16  16  32
#     4  11  22  37  59  88 126 168 207 254 311 367
#     4  10  19  33  53  81 119 162 205 250 300 358
#     4  12  26  47  70  93 120 156 202 256 310 366
#     4   8  15  26  43  68 105 151 197 237 282 338
#     4  12  24  39  62  93 127 165 207 253 307 369
#
# _framework density 20.375088000000002
#
# number of rings (size 3 to 8) (size 9 to 14) (size 15 to 20)
#    0.000    1.286    1.429    6.000    0.000    2.857 
#    0.000    2.857    0.000    0.857    0.000    6.000 
#    0.000    0.000    0.000    0.000    0.000    0.000 
#
# Total GULP energy -155922.846929 kJ/mol
# GULP energy per Si atom -5568.673105 kJ/mol
# Density = 2.032871 g / cm^3
# Si number density = 20.375088 Si / 1000 Ang^3
#
#
#
# Elastic Constant Matrix: (Units=GPa)
#
#
# Indices 1 2 3 4 5 6 
#
# 1 62.0162 35.9373 12.8888 -0.0002 0.0006 0.0006
# 2 35.9373 242.5578 62.4217 0.0001 0.0002 0.0003
# 3 12.8888 62.4217 95.7772 -0.0001 0.0011 0.0014
# 4 -0.0002 0.0001 -0.0001 36.7706 0.0005 0.0005
# 5 0.0006 0.0002 0.0011 0.0005 22.4385 -0.0008
# 6 0.0006 0.0003 0.0014 0.0005 -0.0008 -4.6308
#
#
#
# Elastic Compliance Matrix: (Units=1/GPa)
#
#
# Indices 1 2 3 4 5 6 
#
# 1 0.017691 -0.002413 -0.000808 0.000000 0.000000 0.000002
# 2 -0.002413 0.005283 -0.003118 0.000000 0.000000 -0.000001
# 3 -0.000808 -0.003118 0.012582 0.000000 -0.000001 0.000003
# 4 0.000000 0.000000 0.000000 0.027196 -0.000001 0.000003
# 5 0.000000 0.000000 -0.000001 -0.000001 0.044566 -0.000008
# 6 0.000002 -0.000001 0.000003 0.000003 -0.000008 -0.215947
#
#
# Mechanical properties :
#
#
# Convention : Reuss Voigt Hill
#
# Bulk Modulus (GPa) = 43.71187 69.20518 56.45853
# Shear Modulus (GPa) = -56.60890 30.18924 -13.20983
#
# Velocity S-wave (km/s) = -5.27671 3.85343 -2.54900
# Velocity P-wave (km/s) = 3.95282 7.33743 4.37110
#
# Compressibility (1/GPa) = 0.02287708
#
# Stress axis : x y z
#
# Youngs Moduli (GPa) = 56.52546 189.29592 79.47930
#
# Poissons Ratio (x) = 0.45681 0.06421
# Poissons Ratio (y) = 0.13641 0.24783
# Poissons Ratio (z) = 0.04567 0.59027
#
# Static dielectric constant tensor:
#      x y z
#    x 1.676450 0.000000 0.000000 
#    y 0.000000 1.832170 0.000000 
#    z 0.000000 0.000000 1.702410 
# 
# From -- ./inp_files/3800.got.cif
#   From: 2010.05.17/outbox.cif.g08.bks.cpg/sg69_2_cif.got.tgz:3800.got - 2010.06.03 19:29:58.
