data_PCOD9511272
_publ_section_title
;
Structure prediction by ZEFSAII (Michael W. Deem and Ramdas Pophale) SiO2 
 PCOD9511272
Probable space group: F M M M
;
_chemical_formula_sum "Si O2"
_cell_formula_units_Z 128
_cell_length_a 19.611347
_cell_length_b 16.669297
_cell_length_c 23.930603
_cell_angle_alpha 90.000000
_cell_angle_beta 90.000000
_cell_angle_gamma 90.000000
_cell_volume 7823.090435
_symmetry_space_group_name_H-M "F M M M"
_symmetry_group_IT_number 69
_symmetry_cell_setting 'orthorhombic'
loop_
_space_group_symop_operation_xyz
x,y,z
-x,-y,z
x,-y,-z
-x,y,-z
-x,-y,-z
x,y,-z
-x,y,z
x,-y,z
x,1/2+y,1/2+z
-x,1/2-y,1/2+z
x,1/2-y,1/2-z
-x,1/2+y,1/2-z
-x,1/2-y,1/2-z
x,1/2+y,1/2-z
-x,1/2+y,1/2+z
x,1/2-y,1/2+z
1/2+x,y,1/2+z
1/2-x,-y,1/2+z
1/2+x,-y,1/2-z
1/2-x,y,1/2-z
1/2-x,-y,1/2-z
1/2+x,y,1/2-z
1/2-x,y,1/2+z
1/2+x,-y,1/2+z
1/2+x,1/2+y,z
1/2-x,1/2-y,z
1/2+x,1/2-y,-z
1/2-x,1/2+y,-z
1/2-x,1/2-y,-z
1/2+x,1/2+y,-z
1/2-x,1/2+y,z
1/2+x,1/2-y,z
loop_
_atom_site_type_symbol
_atom_site_label
_atom_site_fract_x
_atom_site_fract_y
_atom_site_fract_z
Si Si1 0.353895 0.657296 0.766388
Si Si2 0.733175 0.405138 0.664584
Si Si3 0.000000 0.097554 0.378291
Si Si4 0.359219 0.902139 0.936147
Si Si5 0.000000 0.903754 0.751966
O O1 0.352915 0.750000 0.750000
O O2 0.323262 0.609033 0.713116
O O3 0.300715 0.640519 0.815911
O O4 0.430300 0.628953 0.777995
O O5 0.747748 0.500000 0.662349
O O6 0.700372 0.378065 0.606373
O O7 0.068316 0.123586 0.410124
O O8 0.000000 0.122085 0.313510
O O9 0.000000 0.000000 0.378424
O O10 0.359872 0.000000 0.936041
O O11 0.351232 0.875820 0.000000
O O12 0.000000 0.000000 0.753925
#
# Coordination Sequence:
#
# PCOD9511272 Si02
#       5
#    32  32  16  32  16
#     4  11  21  32  47  69 100 129 161 198 241 284
#     4  10  18  31  49  70  96 131 164 196 235 281
#     4   9  15  25  42  68  97 122 150 190 239 287
#     4   9  16  26  44  71  98 123 158 201 242 281
#     4  11  19  32  51  73  94 125 162 195 240 296
#
# _framework density 16.361820000000002
#
# number of rings (size 3 to 8) (size 9 to 14) (size 15 to 20)
#    0.000    2.000    2.500    5.250    0.000    1.500 
#    0.000    0.000    0.000    3.000    0.000    0.875 
#    0.000    5.000    0.000    0.000    0.000    0.000 
#
# Total GULP energy -178522.322327 kJ/mol
# GULP energy per Si atom -5578.822573 kJ/mol
# Density = 1.632458 g / cm^3
# Si number density = 16.361820 Si / 1000 Ang^3
#
#
#
# Elastic Constant Matrix: (Units=GPa)
#
#
# Indices 1 2 3 4 5 6 
#
# 1 158.4175 34.8825 56.5931 0.0000 0.0000 0.0000
# 2 34.8825 53.1457 4.4012 0.0000 0.0000 0.0000
# 3 56.5931 4.4012 80.7706 0.0000 0.0000 0.0000
# 4 0.0000 0.0000 0.0000 -0.3908 0.0000 0.0000
# 5 0.0000 0.0000 0.0000 0.0000 20.1048 0.0000
# 6 0.0000 0.0000 0.0000 0.0000 0.0000 17.8029
#
#
#
# Elastic Compliance Matrix: (Units=1/GPa)
#
#
# Indices 1 2 3 4 5 6 
#
# 1 0.010035 -0.006031 -0.006702 0.000000 0.000000 0.000000
# 2 -0.006031 0.022527 0.002999 0.000000 0.000000 0.000000
# 3 -0.006702 0.002999 0.016914 0.000000 0.000000 0.000000
# 4 0.000000 0.000000 0.000000 -2.558668 0.000000 0.000000
# 5 0.000000 0.000000 0.000000 0.000000 0.049739 0.000000
# 6 0.000000 0.000000 0.000000 0.000000 0.000000 0.056170
#
#
# Mechanical properties :
#
#
# Convention : Reuss Voigt Hill
#
# Bulk Modulus (GPa) = 33.32847 53.78749 43.55798
# Shear Modulus (GPa) = -2.10632 20.60052 9.24710
#
# Velocity S-wave (km/s) = -1.13584 3.55217 2.37990
# Velocity P-wave (km/s) = 4.32362 7.05472 5.85076
#
# Compressibility (1/GPa) = 0.03000438
#
# Stress axis : x y z
#
# Youngs Moduli (GPa) = 99.65223 44.39190 59.12427
#
# Poissons Ratio (x) = 0.26775 0.39628
# Poissons Ratio (y) = 0.60104 -0.17729
# Poissons Ratio (z) = 0.66791 -0.13311
#
# Static dielectric constant tensor:
#      x y z
#    x 1.556150 0.000000 0.000000 
#    y 0.000000 1.544440 0.000000 
#    z 0.000000 0.000000 1.548620 
# 
# From -- ./inp_files/15330.got.cif
#   From: 2010.05.17/outbox.cif.g08.bks.cpg/sg69_8_cif.got.tgz:15330.got - 2010.06.03 19:29:58.
