data_PCOD9511058
_publ_section_title
;
Structure prediction by ZEFSAII (Michael W. Deem and Ramdas Pophale) SiO2 
 PCOD9511058
Probable space group: F M M M
;
_chemical_formula_sum "Si O2"
_cell_formula_units_Z 136
_cell_length_a 30.072838
_cell_length_b 21.857787
_cell_length_c 14.035730
_cell_angle_alpha 90.000000
_cell_angle_beta 90.000000
_cell_angle_gamma 90.000000
_cell_volume 9226.045872
_symmetry_space_group_name_H-M "F M M M"
_symmetry_group_IT_number 69
_symmetry_cell_setting 'orthorhombic'
loop_
_space_group_symop_operation_xyz
x,y,z
-x,-y,z
x,-y,-z
-x,y,-z
-x,-y,-z
x,y,-z
-x,y,z
x,-y,z
x,1/2+y,1/2+z
-x,1/2-y,1/2+z
x,1/2-y,1/2-z
-x,1/2+y,1/2-z
-x,1/2-y,1/2-z
x,1/2+y,1/2-z
-x,1/2+y,1/2+z
x,1/2-y,1/2+z
1/2+x,y,1/2+z
1/2-x,-y,1/2+z
1/2+x,-y,1/2-z
1/2-x,y,1/2-z
1/2-x,-y,1/2-z
1/2+x,y,1/2-z
1/2-x,y,1/2+z
1/2+x,-y,1/2+z
1/2+x,1/2+y,z
1/2-x,1/2-y,z
1/2+x,1/2-y,-z
1/2-x,1/2+y,-z
1/2-x,1/2-y,-z
1/2+x,1/2+y,-z
1/2-x,1/2+y,z
1/2+x,1/2-y,z
loop_
_atom_site_type_symbol
_atom_site_label
_atom_site_fract_x
_atom_site_fract_y
_atom_site_fract_z
Si Si1 0.250000 0.250000 0.750000
Si Si2 0.640750 0.926601 0.797135
Si Si3 0.192606 0.572139 0.608717
Si Si4 0.782320 0.849768 0.389536
Si Si5 0.950330 0.925764 0.610648
O O1 0.220728 0.207271 0.681401
O O2 0.656158 0.914085 0.688915
O O3 0.676251 0.892467 0.863366
O O4 0.590973 0.906710 0.824348
O O5 0.643896 0.000000 0.812098
O O6 0.177563 0.582926 0.500000
O O7 0.203929 0.500000 0.617242
O O8 0.236993 0.611341 0.625249
O O9 0.784109 0.831165 0.500000
O O10 0.942628 0.908441 0.500000
O O11 0.000000 0.904951 0.638611
O O12 0.951115 0.000000 0.612693
#
# Coordination Sequence:
#
# PCOD9511058 Si02
#       5
#     8  32  32  32  32
#     4  12  22  36  42  58  90 128 150 186 216 250
#     4  10  17  28  47  69  91 116 146 179 220 267
#     4   9  17  29  45  65  89 115 145 183 222 260
#     4  11  21  32  46  64  88 118 152 184 216 259
#     4   8  14  24  39  63  93 117 136 167 217 271
#
# _framework density 14.740876
#
# number of rings (size 3 to 8) (size 9 to 14) (size 15 to 20)
#    0.000    2.353    2.353    2.471    0.000    4.235 
#    0.000    0.000    0.000    0.706    0.000    5.765 
#    0.000    0.000    0.000    0.000    0.000    0.000 
#
# Total GULP energy -189408.242460 kJ/mol
# GULP energy per Si atom -5570.830661 kJ/mol
# Density = 1.470733 g / cm^3
# Si number density = 14.740876 Si / 1000 Ang^3
#
#
#
# Elastic Constant Matrix: (Units=GPa)
#
#
# Indices 1 2 3 4 5 6 
#
# 1 127.0107 29.8281 71.2796 0.0000 0.0000 0.0000
# 2 29.8281 28.2820 37.5231 0.0000 0.0000 0.0000
# 3 71.2796 37.5231 109.7077 0.0000 0.0000 0.0000
# 4 0.0000 0.0000 0.0000 19.9859 0.0000 0.0000
# 5 0.0000 0.0000 0.0000 0.0000 22.7578 0.0000
# 6 0.0000 0.0000 0.0000 0.0000 0.0000 1.0254
#
#
#
# Elastic Compliance Matrix: (Units=1/GPa)
#
#
# Indices 1 2 3 4 5 6 
#
# 1 0.012694 -0.004477 -0.006716 0.000000 0.000000 0.000000
# 2 -0.004477 0.066312 -0.019772 0.000000 0.000000 0.000000
# 3 -0.006716 -0.019772 0.020241 0.000000 0.000000 0.000000
# 4 0.000000 0.000000 0.000000 0.050035 0.000000 0.000000
# 5 0.000000 0.000000 0.000000 0.000000 0.043941 0.000000
# 6 0.000000 0.000000 0.000000 0.000000 0.000000 0.975182
#
#
# Mechanical properties :
#
#
# Convention : Reuss Voigt Hill
#
# Bulk Modulus (GPa) = 26.79725 60.25134 43.52430
# Shear Modulus (GPa) = 4.02325 17.17846 10.60086
#
# Velocity S-wave (km/s) = 1.65386 3.41744 2.68460
# Velocity P-wave (km/s) = 4.67604 7.51893 6.26097
#
# Compressibility (1/GPa) = 0.03731726
#
# Stress axis : x y z
#
# Youngs Moduli (GPa) = 78.77697 15.08018 49.40391
#
# Poissons Ratio (x) = 0.06752 0.33181
# Poissons Ratio (y) = 0.35270 0.97680
# Poissons Ratio (z) = 0.52909 0.29816
#
# Static dielectric constant tensor:
#      x y z
#    x 1.473370 0.000000 0.000000 
#    y 0.000000 1.479240 0.000000 
#    z 0.000000 0.000000 1.510030 
# 
# From -- ./inp_files/17523.got.cif
#   From: 2010.05.17/outbox.cif.g08.bks.cpg/sg69_9_cif.got.tgz:17523.got - 2010.06.03 19:29:58.
