data_PCOD9511541
_publ_section_title
;
Structure prediction by ZEFSAII (Michael W. Deem and Ramdas Pophale) SiO2 
 PCOD9511541
Probable space group: F M M M
;
_chemical_formula_sum "Si O2"
_cell_formula_units_Z 128
_cell_length_a 9.985172
_cell_length_b 27.899662
_cell_length_c 29.456228
_cell_angle_alpha 90.000000
_cell_angle_beta 90.000000
_cell_angle_gamma 90.000000
_cell_volume 8206.002121
_symmetry_space_group_name_H-M "F M M M"
_symmetry_group_IT_number 69
_symmetry_cell_setting 'orthorhombic'
loop_
_space_group_symop_operation_xyz
x,y,z
-x,-y,z
x,-y,-z
-x,y,-z
-x,-y,-z
x,y,-z
-x,y,z
x,-y,z
x,1/2+y,1/2+z
-x,1/2-y,1/2+z
x,1/2-y,1/2-z
-x,1/2+y,1/2-z
-x,1/2-y,1/2-z
x,1/2+y,1/2-z
-x,1/2+y,1/2+z
x,1/2-y,1/2+z
1/2+x,y,1/2+z
1/2-x,-y,1/2+z
1/2+x,-y,1/2-z
1/2-x,y,1/2-z
1/2-x,-y,1/2-z
1/2+x,y,1/2-z
1/2-x,y,1/2+z
1/2+x,-y,1/2+z
1/2+x,1/2+y,z
1/2-x,1/2-y,z
1/2+x,1/2-y,-z
1/2-x,1/2+y,-z
1/2-x,1/2-y,-z
1/2+x,1/2+y,-z
1/2-x,1/2+y,z
1/2+x,1/2-y,z
loop_
_atom_site_type_symbol
_atom_site_label
_atom_site_fract_x
_atom_site_fract_y
_atom_site_fract_z
Si Si1 0.000000 0.676405 0.444947
Si Si2 0.344702 0.441756 0.208422
Si Si3 0.500000 0.214554 0.945176
Si Si4 0.284380 0.635613 0.554511
Si Si5 0.152021 0.943664 0.625643
O O1 0.000000 0.731222 0.427745
O O2 0.132884 0.647994 0.432673
O O3 0.000000 0.679420 0.500000
O O4 0.500000 0.425384 0.209960
O O5 0.349012 0.500000 0.210646
O O6 0.250000 0.425597 0.250000
O O7 0.264272 0.429879 0.162450
O O8 0.627605 0.182254 0.933170
O O9 0.500000 0.218036 0.000000
O O10 0.295256 0.628757 0.500000
O O11 0.333800 0.589694 0.581835
O O12 0.000000 0.938239 0.644286
O O13 0.169164 0.000000 0.614759
#
# Coordination Sequence:
#
# PCOD9511541 Si02
#       5
#    16  32  16  32  32
#     4   9  18  30  47  67  90 119 155 205 255 286
#     4   9  17  30  49  70  92 119 153 195 240 280
#     4   9  16  30  49  67  88 119 159 203 247 282
#     4  10  19  31  46  68  96 128 164 198 233 278
#     4  10  20  32  46  66  96 132 165 195 227 272
#
# _framework density 15.598338999999999
#
# number of rings (size 3 to 8) (size 9 to 14) (size 15 to 20)
#    0.000    2.500    1.250    1.500    1.750    6.500 
#    0.000    1.250    0.000    2.250    0.000    0.000 
#    0.000    6.000    0.000    0.000    0.000    0.000 
#
# Total GULP energy -178194.269461 kJ/mol
# GULP energy per Si atom -5568.570921 kJ/mol
# Density = 1.556284 g / cm^3
# Si number density = 15.598339 Si / 1000 Ang^3
#
#
#
# Elastic Constant Matrix: (Units=GPa)
#
#
# Indices 1 2 3 4 5 6 
#
# 1 133.9215 25.9736 31.1160 0.0000 0.0000 0.0000
# 2 25.9736 47.6617 26.2259 0.0000 0.0000 0.0000
# 3 31.1160 26.2259 49.7012 0.0000 0.0000 0.0000
# 4 0.0000 0.0000 0.0000 -0.9963 0.0000 0.0000
# 5 0.0000 0.0000 0.0000 0.0000 17.3334 0.0000
# 6 0.0000 0.0000 0.0000 0.0000 0.0000 10.9676
#
#
#
# Elastic Compliance Matrix: (Units=1/GPa)
#
#
# Indices 1 2 3 4 5 6 
#
# 1 0.008949 -0.002528 -0.004269 0.000000 0.000000 0.000000
# 2 -0.002528 0.030280 -0.014395 0.000000 0.000000 0.000000
# 3 -0.004269 -0.014395 0.030389 0.000000 0.000000 0.000000
# 4 0.000000 0.000000 0.000000 -1.003681 0.000000 0.000000
# 5 0.000000 0.000000 0.000000 0.000000 0.057692 0.000000
# 6 0.000000 0.000000 0.000000 0.000000 0.000000 0.091178
#
#
# Mechanical properties :
#
#
# Convention : Reuss Voigt Hill
#
# Bulk Modulus (GPa) = 36.71904 44.21282 40.46593
# Shear Modulus (GPa) = -6.81448 15.32553 4.25553
#
# Velocity S-wave (km/s) = -2.09242 3.13790 1.65352
# Velocity P-wave (km/s) = 4.21353 6.44474 5.44465
#
# Compressibility (1/GPa) = 0.02723383
#
# Stress axis : x y z
#
# Youngs Moduli (GPa) = 111.74192 33.02534 32.90700
#
# Poissons Ratio (x) = 0.08349 0.14047
# Poissons Ratio (y) = 0.28249 0.47370
# Poissons Ratio (z) = 0.47700 0.47540
#
# Static dielectric constant tensor:
#      x y z
#    x 1.561550 0.000000 0.000000 
#    y 0.000000 1.491510 0.000000 
#    z 0.000000 0.000000 1.506690 
# 
# From -- ./inp_files/4785.got.cif
#   From: 2010.05.17/outbox.cif.g08.bks.cpg/sg69_3_cif.got.tgz:4785.got - 2010.06.03 19:29:58.
