data_PCOD9511469
_publ_section_title
;
Structure prediction by ZEFSAII (Michael W. Deem and Ramdas Pophale) SiO2 
 PCOD9511469
Probable space group: F M M M
;
_chemical_formula_sum "Si O2"
_cell_formula_units_Z 176
_cell_length_a 25.752127
_cell_length_b 18.184220
_cell_length_c 18.116964
_cell_angle_alpha 90.000000
_cell_angle_beta 90.000000
_cell_angle_gamma 90.000000
_cell_volume 8483.854347
_symmetry_space_group_name_H-M "F M M M"
_symmetry_group_IT_number 69
_symmetry_cell_setting 'orthorhombic'
loop_
_space_group_symop_operation_xyz
x,y,z
-x,-y,z
x,-y,-z
-x,y,-z
-x,-y,-z
x,y,-z
-x,y,z
x,-y,z
x,1/2+y,1/2+z
-x,1/2-y,1/2+z
x,1/2-y,1/2-z
-x,1/2+y,1/2-z
-x,1/2-y,1/2-z
x,1/2+y,1/2-z
-x,1/2+y,1/2+z
x,1/2-y,1/2+z
1/2+x,y,1/2+z
1/2-x,-y,1/2+z
1/2+x,-y,1/2-z
1/2-x,y,1/2-z
1/2-x,-y,1/2-z
1/2+x,y,1/2-z
1/2-x,y,1/2+z
1/2+x,-y,1/2+z
1/2+x,1/2+y,z
1/2-x,1/2-y,z
1/2+x,1/2-y,-z
1/2-x,1/2+y,-z
1/2-x,1/2-y,-z
1/2+x,1/2+y,-z
1/2-x,1/2+y,z
1/2+x,1/2-y,z
loop_
_atom_site_type_symbol
_atom_site_label
_atom_site_fract_x
_atom_site_fract_y
_atom_site_fract_z
Si Si1 0.061405 0.412062 0.000000
Si Si2 0.368581 0.638739 0.630605
Si Si3 0.207443 0.316062 0.500000
Si Si4 0.859137 0.916417 0.787208
Si Si5 0.190889 0.219485 0.842301
Si Si6 0.059788 0.910925 0.916564
Si Si7 0.296312 0.914503 0.000000
O O1 0.084582 0.372277 0.927236
O O2 0.076408 0.500000 0.000000
O O3 0.000000 0.408617 0.000000
O O4 0.376298 0.587684 0.701796
O O5 0.352008 0.716782 0.666193
O O6 0.321121 0.618572 0.574737
O O7 0.250000 0.250000 0.500000
O O8 0.178751 0.305515 0.574822
O O9 0.236713 0.392853 0.500000
O O10 0.814924 0.854773 0.796153
O O11 0.903828 0.894216 0.846307
O O12 0.842635 0.000000 0.804125
O O13 0.250000 0.250000 0.836222
O O14 0.000000 0.886030 0.905610
O O15 0.058856 0.000000 0.918782
O O16 0.076295 0.887149 0.000000
O O17 0.305328 0.000000 0.000000
#
# Coordination Sequence:
#
# PCOD9511469 Si02
#       7
#    16  32  16  32  32  32  16
#     4  10  22  42  70 100 128 164 214 267 316 372
#     4  11  21  41  63  89 129 167 206 254 322 380
#     4  10  18  40  60  83 109 156 209 246 304 366
#     4  11  24  38  60  96 128 161 211 266 313 371
#     4  11  23  43  64  86 125 174 214 257 316 381
#     4   8  16  35  60  85 117 156 196 245 309 371
#     4  11  20  36  64  88 112 152 206 260 303 358
#
# _framework density 20.745287000000001
#
# number of rings (size 3 to 8) (size 9 to 14) (size 15 to 20)
#    0.000    1.727    3.636    3.818    1.273    2.909 
#    0.000    3.636    0.000    2.182    0.000    0.000 
#    0.000    0.000    0.000    0.000    0.000    0.000 
#
# Total GULP energy -245132.217748 kJ/mol
# GULP energy per Si atom -5571.186767 kJ/mol
# Density = 2.069807 g / cm^3
# Si number density = 20.745287 Si / 1000 Ang^3
#
#
#
# Elastic Constant Matrix: (Units=GPa)
#
#
# Indices 1 2 3 4 5 6 
#
# 1 71.9420 52.0061 25.2636 0.0000 0.0000 0.0000
# 2 52.0061 100.7847 33.0997 0.0000 0.0000 0.0000
# 3 25.2636 33.0997 145.8878 0.0000 0.0000 0.0000
# 4 0.0000 0.0000 0.0000 536.1227 0.0000 0.0000
# 5 0.0000 0.0000 0.0000 0.0000 0.0379 0.0000
# 6 0.0000 0.0000 0.0000 0.0000 0.0000 24.0537
#
#
#
# Elastic Compliance Matrix: (Units=1/GPa)
#
#
# Indices 1 2 3 4 5 6 
#
# 1 0.022416 -0.011121 -0.001359 0.000000 0.000000 0.000000
# 2 -0.011121 0.016238 -0.001758 0.000000 0.000000 0.000000
# 3 -0.001359 -0.001758 0.007489 0.000000 0.000000 0.000000
# 4 0.000000 0.000000 0.000000 0.001865 0.000000 0.000000
# 5 0.000000 0.000000 0.000000 0.000000 26.351726 0.000000
# 6 0.000000 0.000000 0.000000 0.000000 0.000000 0.041574
#
#
# Mechanical properties :
#
#
# Convention : Reuss Voigt Hill
#
# Bulk Modulus (GPa) = 56.60143 59.92814 58.26478
# Shear Modulus (GPa) = 0.18885 125.92586 63.05736
#
# Velocity S-wave (km/s) = 0.30205 7.79953 5.51924
# Velocity P-wave (km/s) = 5.24069 10.49098 8.29233
#
# Compressibility (1/GPa) = 0.01766740
#
# Stress axis : x y z
#
# Youngs Moduli (GPa) = 44.61016 61.58341 133.53237
#
# Poissons Ratio (x) = 0.68486 0.18143
# Poissons Ratio (y) = 0.49611 0.23480
# Poissons Ratio (z) = 0.06061 0.10829
#
# Static dielectric constant tensor:
#      x y z
#    x 1.767310 0.000000 0.000000 
#    y 0.000000 1.785230 0.000000 
#    z 0.000000 0.000000 1.776050 
# 
# From -- ./inp_files/26790.got.cif
#   From: 2010.05.17/outbox.cif.g08.bks.cpg/sg69_14_cif.got.tgz:26790.got - 2010.06.03 19:29:58.
