data_PCOD9511664
_publ_section_title
;
Structure prediction by ZEFSAII (Michael W. Deem and Ramdas Pophale) SiO2 
 PCOD9511664
Probable space group: F M M M
;
_chemical_formula_sum "Si O2"
_cell_formula_units_Z 168
_cell_length_a 18.366137
_cell_length_b 28.064462
_cell_length_c 16.837521
_cell_angle_alpha 90.000000
_cell_angle_beta 90.000000
_cell_angle_gamma 90.000000
_cell_volume 8678.660331
_symmetry_space_group_name_H-M "F M M M"
_symmetry_group_IT_number 69
_symmetry_cell_setting 'orthorhombic'
loop_
_space_group_symop_operation_xyz
x,y,z
-x,-y,z
x,-y,-z
-x,y,-z
-x,-y,-z
x,y,-z
-x,y,z
x,-y,z
x,1/2+y,1/2+z
-x,1/2-y,1/2+z
x,1/2-y,1/2-z
-x,1/2+y,1/2-z
-x,1/2-y,1/2-z
x,1/2+y,1/2-z
-x,1/2+y,1/2+z
x,1/2-y,1/2+z
1/2+x,y,1/2+z
1/2-x,-y,1/2+z
1/2+x,-y,1/2-z
1/2-x,y,1/2-z
1/2-x,-y,1/2-z
1/2+x,y,1/2-z
1/2-x,y,1/2+z
1/2+x,-y,1/2+z
1/2+x,1/2+y,z
1/2-x,1/2-y,z
1/2+x,1/2-y,-z
1/2-x,1/2+y,-z
1/2-x,1/2-y,-z
1/2+x,1/2+y,-z
1/2-x,1/2+y,z
1/2+x,1/2-y,z
loop_
_atom_site_type_symbol
_atom_site_label
_atom_site_fract_x
_atom_site_fract_y
_atom_site_fract_z
Si Si1 0.416089 0.762211 0.093610
Si Si2 0.378904 0.573352 0.093993
Si Si3 0.829254 0.348036 0.844159
Si Si4 0.708988 0.447124 0.595383
Si Si5 0.500000 0.500000 0.147704
Si Si6 0.662863 0.171409 0.342819
O O1 0.500000 0.758638 0.118066
O O2 0.385711 0.814640 0.111027
O O3 0.368949 0.722966 0.139236
O O4 0.410639 0.752309 0.000000
O O5 0.295348 0.558618 0.112338
O O6 0.436215 0.541636 0.140641
O O7 0.381362 0.629533 0.113153
O O8 0.391779 0.564857 0.000000
O O9 0.832867 0.403818 0.863971
O O10 0.747382 0.332090 0.868388
O O11 0.838239 0.339553 0.750648
O O12 0.701334 0.443008 0.500000
O O13 0.685504 0.500000 0.619989
#
# Coordination Sequence:
#
# PCOD9511664 Si02
#       6
#    32  32  32  32   8  32
#     4  11  24  40  60  85 113 147 187 234 288 345
#     4  10  19  32  51  80 116 153 192 230 275 332
#     4  10  21  39  60  85 114 149 188 237 286 334
#     4   9  17  33  57  84 111 144 191 238 278 325
#     4  12  21  32  52  78 118 162 193 236 283 332
#     4  10  22  38  57  86 115 151 190 230 282 342
#
# _framework density 19.357827
#
# number of rings (size 3 to 8) (size 9 to 14) (size 15 to 20)
#    0.000    1.905    0.952    3.143    1.333    6.095 
#    1.714    1.905    0.000    0.571    0.000    2.667 
#    0.000    0.000    0.000    0.000    0.000    0.000 
#
# Total GULP energy -234111.724750 kJ/mol
# GULP energy per Si atom -5574.088685 kJ/mol
# Density = 1.931377 g / cm^3
# Si number density = 19.357827 Si / 1000 Ang^3
#
#
#
# Elastic Constant Matrix: (Units=GPa)
#
#
# Indices 1 2 3 4 5 6 
#
# 1 35.7250 38.1547 14.2014 0.0000 0.0000 0.0000
# 2 38.1547 147.7928 23.7289 0.0000 0.0000 0.0000
# 3 14.2014 23.7289 18.2090 0.0000 0.0000 0.0000
# 4 0.0000 0.0000 0.0000 -248.7080 0.0000 0.0000
# 5 0.0000 0.0000 0.0000 0.0000 9.5936 0.0000
# 6 0.0000 0.0000 0.0000 0.0000 0.0000 66.1290
#
#
#
# Elastic Compliance Matrix: (Units=1/GPa)
#
#
# Indices 1 2 3 4 5 6 
#
# 1 0.046847 -0.007876 -0.026273 0.000000 0.000000 0.000000
# 2 -0.007876 0.009881 -0.006733 0.000000 0.000000 0.000000
# 3 -0.026273 -0.006733 0.084183 0.000000 0.000000 0.000000
# 4 0.000000 0.000000 0.000000 -0.004021 0.000000 0.000000
# 5 0.000000 0.000000 0.000000 0.000000 0.104236 0.000000
# 6 0.000000 0.000000 0.000000 0.000000 0.000000 0.015122
#
#
# Mechanical properties :
#
#
# Convention : Reuss Voigt Hill
#
# Bulk Modulus (GPa) = 16.90727 39.32184 28.11455
# Shear Modulus (GPa) = 13.97708 -26.22097 -6.12195
#
# Velocity S-wave (km/s) = 2.68999 -3.68440 -1.78028
# Velocity P-wave (km/s) = 4.28965 1.50249 3.21392
#
# Compressibility (1/GPa) = 0.05914616
#
# Stress axis : x y z
#
# Youngs Moduli (GPa) = 21.34597 101.20880 11.87888
#
# Poissons Ratio (x) = 0.79712 0.31210
# Poissons Ratio (y) = 0.16812 0.07998
# Poissons Ratio (z) = 0.56083 0.68146
#
# Static dielectric constant tensor:
#      x y z
#    x 1.653190 0.000000 0.000000 
#    y 0.000000 1.678800 0.000000 
#    z 0.000000 0.000000 1.681270 
# 
# From -- ./inp_files/16865.got.cif
#   From: 2010.05.17/outbox.cif.g08.bks.cpg/sg69_9_cif.got.tgz:16865.got - 2010.06.03 19:29:58.
