data_PCOD9511912
_publ_section_title
;
Structure prediction by ZEFSAII (Michael W. Deem and Ramdas Pophale) SiO2 
 PCOD9511912
Probable space group: F M M M
;
_chemical_formula_sum "Si O2"
_cell_formula_units_Z 144
_cell_length_a 20.086576
_cell_length_b 14.131918
_cell_length_c 25.758224
_cell_angle_alpha 90.000000
_cell_angle_beta 90.000000
_cell_angle_gamma 90.000000
_cell_volume 7311.776987
_symmetry_space_group_name_H-M "F M M M"
_symmetry_group_IT_number 69
_symmetry_cell_setting 'orthorhombic'
loop_
_space_group_symop_operation_xyz
x,y,z
-x,-y,z
x,-y,-z
-x,y,-z
-x,-y,-z
x,y,-z
-x,y,z
x,-y,z
x,1/2+y,1/2+z
-x,1/2-y,1/2+z
x,1/2-y,1/2-z
-x,1/2+y,1/2-z
-x,1/2-y,1/2-z
x,1/2+y,1/2-z
-x,1/2+y,1/2+z
x,1/2-y,1/2+z
1/2+x,y,1/2+z
1/2-x,-y,1/2+z
1/2+x,-y,1/2-z
1/2-x,y,1/2-z
1/2-x,-y,1/2-z
1/2+x,y,1/2-z
1/2-x,y,1/2+z
1/2+x,-y,1/2+z
1/2+x,1/2+y,z
1/2-x,1/2-y,z
1/2+x,1/2-y,-z
1/2-x,1/2+y,-z
1/2-x,1/2-y,-z
1/2+x,1/2+y,-z
1/2-x,1/2+y,z
1/2+x,1/2-y,z
loop_
_atom_site_type_symbol
_atom_site_label
_atom_site_fract_x
_atom_site_fract_y
_atom_site_fract_z
Si Si1 0.926835 0.113239 0.894401
Si Si2 0.847957 0.385906 0.106609
Si Si3 0.287669 0.385096 0.941734
Si Si4 0.422627 0.764830 0.808628
Si Si5 0.423938 0.614917 0.500000
O O1 0.862143 0.143204 0.926571
O O2 0.922053 0.165796 0.839554
O O3 0.000000 0.137274 0.917024
O O4 0.924353 0.000000 0.888810
O O5 0.851538 0.500000 0.111893
O O6 0.771288 0.357456 0.096950
O O7 0.880597 0.336048 0.155941
O O8 0.887043 0.359598 0.053477
O O9 0.287021 0.500000 0.942088
O O10 0.271569 0.354543 0.000000
O O11 0.500000 0.797176 0.806609
O O12 0.398817 0.750000 0.750000
O O13 0.424723 0.500000 0.500000
O O14 0.500000 0.648668 0.500000
#
# Coordination Sequence:
#
# PCOD9511912 Si02
#       5
#    32  32  32  32  16
#     4   9  19  37  58  78 105 145 194 241 279 322
#     4  10  19  34  56  86 119 148 180 225 287 351
#     4   9  17  33  57  83 114 149 182 225 284 344
#     4  10  22  39  57  80 111 148 194 240 280 331
#     4   9  16  28  50  79 112 146 176 213 270 339
#
# _framework density 19.694254000000001
#
# number of rings (size 3 to 8) (size 9 to 14) (size 15 to 20)
#    0.000    2.556    1.111    0.667    0.000    3.556 
#    2.000    7.778    0.000    4.000    0.000    0.000 
#    0.000    0.000    0.000    0.000    0.000    0.000 
#
# Total GULP energy -200943.752987 kJ/mol
# GULP energy per Si atom -5581.770916 kJ/mol
# Density = 1.964943 g / cm^3
# Si number density = 19.694254 Si / 1000 Ang^3
#
#
#
# Elastic Constant Matrix: (Units=GPa)
#
#
# Indices 1 2 3 4 5 6 
#
# 1 152.0856 43.1690 75.9467 0.0000 0.0000 0.0000
# 2 43.1690 77.8978 39.3620 0.0000 0.0000 0.0000
# 3 75.9467 39.3620 134.5962 0.0000 0.0000 0.0000
# 4 0.0000 0.0000 0.0000 26.8529 0.0000 0.0000
# 5 0.0000 0.0000 0.0000 0.0000 16.2568 0.0000
# 6 0.0000 0.0000 0.0000 0.0000 0.0000 19.0798
#
#
#
# Elastic Compliance Matrix: (Units=1/GPa)
#
#
# Indices 1 2 3 4 5 6 
#
# 1 0.009745 -0.003077 -0.004599 0.000000 0.000000 0.000000
# 2 -0.003077 0.016035 -0.002953 0.000000 0.000000 0.000000
# 3 -0.004599 -0.002953 0.010888 0.000000 0.000000 0.000000
# 4 0.000000 0.000000 0.000000 0.037240 0.000000 0.000000
# 5 0.000000 0.000000 0.000000 0.000000 0.061513 0.000000
# 6 0.000000 0.000000 0.000000 0.000000 0.000000 0.052411
#
#
# Mechanical properties :
#
#
# Convention : Reuss Voigt Hill
#
# Bulk Modulus (GPa) = 64.89163 75.72611 70.30887
# Shear Modulus (GPa) = 23.33975 26.17801 24.75888
#
# Velocity S-wave (km/s) = 3.44627 3.64980 3.54950
# Velocity P-wave (km/s) = 6.98976 7.50305 7.25095
#
# Compressibility (1/GPa) = 0.01541031
#
# Stress axis : x y z
#
# Youngs Moduli (GPa) = 102.61534 62.36514 91.84154
#
# Poissons Ratio (x) = 0.19187 0.42238
# Poissons Ratio (y) = 0.31571 0.27123
# Poissons Ratio (z) = 0.47193 0.18418
#
# Static dielectric constant tensor:
#      x y z
#    x 1.722220 0.000000 0.000000 
#    y 0.000000 1.732590 0.000000 
#    z 0.000000 0.000000 1.640480 
# 
# From -- ./inp_files/22865.got.cif
#   From: 2010.05.17/outbox.cif.g08.bks.cpg/sg69_12_cif.got.tgz:22865.got - 2010.06.03 19:29:58.
