data_PCOD9511906
_publ_section_title
;
Structure prediction by ZEFSAII (Michael W. Deem and Ramdas Pophale) SiO2 
 PCOD9511906
Probable space group: F M M M
;
_chemical_formula_sum "Si O2"
_cell_formula_units_Z 160
_cell_length_a 15.230623
_cell_length_b 25.645907
_cell_length_c 21.112703
_cell_angle_alpha 90.000000
_cell_angle_beta 90.000000
_cell_angle_gamma 90.000000
_cell_volume 8246.688107
_symmetry_space_group_name_H-M "F M M M"
_symmetry_group_IT_number 69
_symmetry_cell_setting 'orthorhombic'
loop_
_space_group_symop_operation_xyz
x,y,z
-x,-y,z
x,-y,-z
-x,y,-z
-x,-y,-z
x,y,-z
-x,y,z
x,-y,z
x,1/2+y,1/2+z
-x,1/2-y,1/2+z
x,1/2-y,1/2-z
-x,1/2+y,1/2-z
-x,1/2-y,1/2-z
x,1/2+y,1/2-z
-x,1/2+y,1/2+z
x,1/2-y,1/2+z
1/2+x,y,1/2+z
1/2-x,-y,1/2+z
1/2+x,-y,1/2-z
1/2-x,y,1/2-z
1/2-x,-y,1/2-z
1/2+x,y,1/2-z
1/2-x,y,1/2+z
1/2+x,-y,1/2+z
1/2+x,1/2+y,z
1/2-x,1/2-y,z
1/2+x,1/2-y,-z
1/2-x,1/2+y,-z
1/2-x,1/2-y,-z
1/2+x,1/2+y,-z
1/2-x,1/2+y,z
1/2+x,1/2-y,z
loop_
_atom_site_type_symbol
_atom_site_label
_atom_site_fract_x
_atom_site_fract_y
_atom_site_fract_z
Si Si1 0.398651 0.397678 0.889267
Si Si2 0.670924 0.000000 0.803107
Si Si3 0.607435 0.782850 0.569901
Si Si4 0.144899 0.391767 0.242536
Si Si5 0.212216 0.000000 0.925926
Si Si6 0.395143 0.718680 0.310694
O O1 0.500000 0.405053 0.908141
O O2 0.365938 0.342688 0.917186
O O3 0.393804 0.390909 0.813205
O O4 0.344046 0.447861 0.910948
O O5 0.750000 0.000000 0.750000
O O6 0.620863 0.053480 0.789599
O O7 0.711527 0.000000 0.873096
O O8 0.634681 0.766276 0.500000
O O9 0.500000 0.783416 0.571456
O O10 0.638887 0.744413 0.624983
O O11 0.250000 0.389874 0.250000
O O12 0.119824 0.341979 0.201306
O O13 0.237672 0.000000 0.000000
O O14 0.500000 0.726806 0.311533
O O15 0.359634 0.750000 0.250000
#
# Coordination Sequence:
#
# PCOD9511906 Si02
#       6
#    32  16  32  32  16  32
#     4  11  20  34  57  86 114 145 183 229 279 334
#     4  10  20  40  56  73 109 153 184 222 270 330
#     4   9  18  33  52  77 113 146 170 214 281 335
#     4  11  20  36  59  78 109 147 190 226 271 321
#     4  12  23  37  56  84 116 151 186 226 281 341
#     4  10  19  34  56  82 108 138 184 230 270 320
#
# _framework density 19.401727999999999
#
# number of rings (size 3 to 8) (size 9 to 14) (size 15 to 20)
#    0.000    1.600    6.000    1.500    0.000    2.000 
#    0.000    2.500    0.000    1.200    0.000    0.000 
#    0.000    6.400    0.000    0.000    0.000    0.000 
#
# Total GULP energy -223342.632257 kJ/mol
# GULP energy per Si atom -5583.565806 kJ/mol
# Density = 1.935757 g / cm^3
# Si number density = 19.401728 Si / 1000 Ang^3
#
#
#
# Elastic Constant Matrix: (Units=GPa)
#
#
# Indices 1 2 3 4 5 6 
#
# 1 19.5534 -7.2520 9.5313 0.0000 0.0000 0.0000
# 2 -7.2520 152.4589 91.6585 0.0000 0.0000 0.0000
# 3 9.5313 91.6585 172.8169 0.0000 0.0000 0.0000
# 4 0.0000 0.0000 0.0000 22.1622 0.0000 0.0000
# 5 0.0000 0.0000 0.0000 0.0000 8.9051 0.0000
# 6 0.0000 0.0000 0.0000 0.0000 0.0000 4.0975
#
#
#
# Elastic Compliance Matrix: (Units=1/GPa)
#
#
# Indices 1 2 3 4 5 6 
#
# 1 0.056918 0.006746 -0.006717 0.000000 0.000000 0.000000
# 2 0.006746 0.010429 -0.005903 0.000000 0.000000 0.000000
# 3 -0.006717 -0.005903 0.009288 0.000000 0.000000 0.000000
# 4 0.000000 0.000000 0.000000 0.045122 0.000000 0.000000
# 5 0.000000 0.000000 0.000000 0.000000 0.112295 0.000000
# 6 0.000000 0.000000 0.000000 0.000000 0.000000 0.244054
#
#
# Mechanical properties :
#
#
# Convention : Reuss Voigt Hill
#
# Bulk Modulus (GPa) = 15.41168 59.18941 37.30054
# Shear Modulus (GPa) = 9.77547 23.75904 16.76726
#
# Velocity S-wave (km/s) = 2.24709 3.50320 2.94294
# Velocity P-wave (km/s) = 3.83317 6.85104 5.55112
#
# Compressibility (1/GPa) = 0.06488587
#
# Stress axis : x y z
#
# Youngs Moduli (GPa) = 17.56908 95.88470 107.66572
#
# Poissons Ratio (x) = -0.64681 0.72318
# Poissons Ratio (y) = -0.11852 0.63560
# Poissons Ratio (z) = 0.11801 0.56605
#
# Static dielectric constant tensor:
#      x y z
#    x 1.716950 0.000000 0.000000 
#    y 0.000000 1.706000 0.000000 
#    z 0.000000 0.000000 1.704330 
# 
# From -- ./inp_files/31026.got.cif
#   From: 2010.05.17/outbox.cif.g08.bks.cpg/sg69_16_cif.got.tgz:31026.got - 2010.06.03 19:29:58.
