data_PCOD9511296
_publ_section_title
;
Structure prediction by ZEFSAII (Michael W. Deem and Ramdas Pophale) SiO2 
 PCOD9511296
Probable space group: F M M M
;
_chemical_formula_sum "Si O2"
_cell_formula_units_Z 192
_cell_length_a 20.971025
_cell_length_b 14.130643
_cell_length_c 26.394590
_cell_angle_alpha 90.000000
_cell_angle_beta 90.000000
_cell_angle_gamma 90.000000
_cell_volume 7821.616218
_symmetry_space_group_name_H-M "F M M M"
_symmetry_group_IT_number 69
_symmetry_cell_setting 'orthorhombic'
loop_
_space_group_symop_operation_xyz
x,y,z
-x,-y,z
x,-y,-z
-x,y,-z
-x,-y,-z
x,y,-z
-x,y,z
x,-y,z
x,1/2+y,1/2+z
-x,1/2-y,1/2+z
x,1/2-y,1/2-z
-x,1/2+y,1/2-z
-x,1/2-y,1/2-z
x,1/2+y,1/2-z
-x,1/2+y,1/2+z
x,1/2-y,1/2+z
1/2+x,y,1/2+z
1/2-x,-y,1/2+z
1/2+x,-y,1/2-z
1/2-x,y,1/2-z
1/2-x,-y,1/2-z
1/2+x,y,1/2-z
1/2-x,y,1/2+z
1/2+x,-y,1/2+z
1/2+x,1/2+y,z
1/2-x,1/2-y,z
1/2+x,1/2-y,-z
1/2-x,1/2+y,-z
1/2-x,1/2-y,-z
1/2+x,1/2+y,-z
1/2-x,1/2+y,z
1/2+x,1/2-y,z
loop_
_atom_site_type_symbol
_atom_site_label
_atom_site_fract_x
_atom_site_fract_y
_atom_site_fract_z
Si Si1 0.500000 0.116148 0.940516
Si Si2 0.123156 0.391390 0.395662
Si Si3 0.871591 0.107504 0.386145
Si Si4 0.075460 0.612318 0.500000
Si Si5 0.571688 0.615344 0.210361
Si Si6 0.688058 0.114836 0.782738
Si Si7 0.749690 0.362656 0.056411
O O1 0.437339 0.146442 0.908829
O O2 0.500000 0.000000 0.942253
O O3 0.500000 0.146936 0.000000
O O4 0.099437 0.500000 0.396471
O O5 0.101499 0.345090 0.448123
O O6 0.094974 0.350194 0.344655
O O7 0.199342 0.393855 0.400915
O O8 0.830688 0.150266 0.339168
O O9 0.820317 0.104788 0.431075
O O10 0.887579 0.000000 0.369787
O O11 0.092736 0.500000 0.500000
O O12 0.000000 0.617740 0.500000
O O13 0.500000 0.646841 0.221572
O O14 0.570911 0.500000 0.209125
O O15 0.625424 0.639045 0.250527
O O16 0.750000 0.145640 0.750000
O O17 0.695392 0.000000 0.786388
O O18 0.750000 0.250000 0.056580
O O19 0.729864 0.394247 0.000000
#
# Coordination Sequence:
#
# PCOD9511296 Si02
#       7
#    16  32  32  16  32  32  32
#     4   9  18  32  52  82 110 135 177 232 284 329
#     4  10  18  31  52  78 106 140 180 218 264 320
#     4  10  20  34  58  83 109 144 184 230 277 326
#     4   9  16  26  45  74 106 133 169 216 256 304
#     4   9  17  28  48  79 116 146 172 216 271 318
#     4   9  17  29  47  78 114 144 177 219 268 322
#     4  11  23  37  54  76 109 142 180 226 280 332
#
# _framework density 24.547357000000002
#
# number of rings (size 3 to 8) (size 9 to 14) (size 15 to 20)
#    0.000    2.333    0.833    2.500    1.167    6.333 
#    0.000    0.000    3.667    4.500    0.000    1.167 
#    0.000    0.000    0.000    0.000    0.000    0.000 
#
# Total GULP energy -268177.606083 kJ/mol
# GULP energy per Si atom -5587.033460 kJ/mol
# Density = 2.449149 g / cm^3
# Si number density = 24.547357 Si / 1000 Ang^3
#
#
#
# Elastic Constant Matrix: (Units=GPa)
#
#
# Indices 1 2 3 4 5 6 
#
# 1 190.0528 -4.5653 66.0426 0.0000 0.0000 0.0000
# 2 -4.5653 89.5482 4.6501 0.0000 0.0000 0.0000
# 3 66.0426 4.6501 126.5415 0.0000 0.0000 0.0000
# 4 0.0000 0.0000 0.0000 -4.6176 0.0000 0.0000
# 5 0.0000 0.0000 0.0000 0.0000 35.0180 0.0000
# 6 0.0000 0.0000 0.0000 0.0000 0.0000 -24.0221
#
#
#
# Elastic Compliance Matrix: (Units=1/GPa)
#
#
# Indices 1 2 3 4 5 6 
#
# 1 0.006450 0.000505 -0.003385 0.000000 0.000000 0.000000
# 2 0.000505 0.011228 -0.000676 0.000000 0.000000 0.000000
# 3 -0.003385 -0.000676 0.009694 0.000000 0.000000 0.000000
# 4 0.000000 0.000000 0.000000 -0.216562 0.000000 0.000000
# 5 0.000000 0.000000 0.000000 0.000000 0.028557 0.000000
# 6 0.000000 0.000000 0.000000 0.000000 0.000000 -0.041628
#
#
# Mechanical properties :
#
#
# Convention : Reuss Voigt Hill
#
# Bulk Modulus (GPa) = 49.35937 59.82193 54.59065
# Shear Modulus (GPa) = -26.53991 23.94333 -1.29829
#
# Velocity S-wave (km/s) = -3.29168 3.12652 -0.72804
# Velocity P-wave (km/s) = 2.38842 6.12016 4.64548
#
# Compressibility (1/GPa) = 0.02025958
#
# Stress axis : x y z
#
# Youngs Moduli (GPa) = 155.03786 89.06310 103.15708
#
# Poissons Ratio (x) = -0.04494 0.34917
# Poissons Ratio (y) = -0.07823 0.06973
# Poissons Ratio (z) = 0.52478 0.06020
#
# Static dielectric constant tensor:
#      x y z
#    x 1.923550 0.000000 0.000000 
#    y 0.000000 1.987460 0.000000 
#    z 0.000000 0.000000 1.973590 
# 
# From -- ./inp_files/37380.got.cif
#   From: 2010.05.17/outbox.cif.g08.bks.cpg/sg69_19_cif.got.tgz:37380.got - 2010.06.03 19:29:58.
