data_PCOD9511119
_publ_section_title
;
Structure prediction by ZEFSAII (Michael W. Deem and Ramdas Pophale) SiO2 
 PCOD9511119
Probable space group: F M M M
;
_chemical_formula_sum "Si O2"
_cell_formula_units_Z 160
_cell_length_a 14.198499
_cell_length_b 20.486537
_cell_length_c 25.655718
_cell_angle_alpha 90.000000
_cell_angle_beta 90.000000
_cell_angle_gamma 90.000000
_cell_volume 7462.685867
_symmetry_space_group_name_H-M "F M M M"
_symmetry_group_IT_number 69
_symmetry_cell_setting 'orthorhombic'
loop_
_space_group_symop_operation_xyz
x,y,z
-x,-y,z
x,-y,-z
-x,y,-z
-x,-y,-z
x,y,-z
-x,y,z
x,-y,z
x,1/2+y,1/2+z
-x,1/2-y,1/2+z
x,1/2-y,1/2-z
-x,1/2+y,1/2-z
-x,1/2-y,1/2-z
x,1/2+y,1/2-z
-x,1/2+y,1/2+z
x,1/2-y,1/2+z
1/2+x,y,1/2+z
1/2-x,-y,1/2+z
1/2+x,-y,1/2-z
1/2-x,y,1/2-z
1/2-x,-y,1/2-z
1/2+x,y,1/2-z
1/2-x,y,1/2+z
1/2+x,-y,1/2+z
1/2+x,1/2+y,z
1/2-x,1/2-y,z
1/2+x,1/2-y,-z
1/2-x,1/2+y,-z
1/2-x,1/2-y,-z
1/2+x,1/2+y,-z
1/2-x,1/2+y,z
1/2+x,1/2-y,z
loop_
_atom_site_type_symbol
_atom_site_label
_atom_site_fract_x
_atom_site_fract_y
_atom_site_fract_z
Si Si1 0.101798 0.389674 0.939913
Si Si2 0.388457 0.069884 0.668013
Si Si3 0.885848 0.209256 0.200638
Si Si4 0.309278 0.896109 0.559978
Si Si5 0.108829 0.261188 0.584231
O O1 0.203263 0.413100 0.921111
O O2 0.109648 0.310858 0.938920
O O3 0.000000 0.406863 0.915329
O O4 0.097986 0.410594 0.000000
O O5 0.500000 0.069248 0.678457
O O6 0.349207 0.135316 0.694670
O O7 0.375398 0.077636 0.605623
O O8 0.348359 0.000000 0.684466
O O9 0.853223 0.250000 0.250000
O O10 0.866820 0.243787 0.145436
O O11 0.000000 0.205485 0.204403
O O12 0.323255 0.917696 0.500000
O O13 0.326477 0.817603 0.560628
O O14 0.000000 0.284696 0.579744
#
# Coordination Sequence:
#
# PCOD9511119 Si02
#       5
#    32  32  32  32  32
#     4   9  17  28  42  62  90 124 163 208 255 300
#     4   9  18  31  47  71 103 134 163 201 251 305
#     4   8  14  26  45  69  97 129 165 202 243 298
#     4  10  18  27  42  64  94 135 175 206 244 299
#     4   9  16  25  40  65  95 125 160 207 259 306
#
# _framework density 21.440002
#
# number of rings (size 3 to 8) (size 9 to 14) (size 15 to 20)
#    0.000    3.000    0.000    3.000    0.000    4.400 
#    0.000    1.000    0.000   10.200    0.000    5.600 
#    0.000    4.800    0.000    0.200    0.000   13.000 
#
# Total GULP energy -222872.918079 kJ/mol
# GULP energy per Si atom -5571.822952 kJ/mol
# Density = 2.139120 g / cm^3
# Si number density = 21.440002 Si / 1000 Ang^3
#
#
#
# Elastic Constant Matrix: (Units=GPa)
#
#
# Indices 1 2 3 4 5 6 
#
# 1 66.8896 -12.5693 1.4103 0.0000 0.0000 0.0000
# 2 -12.5693 69.7764 39.9898 0.0000 0.0000 0.0000
# 3 1.4103 39.9898 89.2685 0.0000 0.0000 0.0000
# 4 0.0000 0.0000 0.0000 -25.7615 0.0000 0.0000
# 5 0.0000 0.0000 0.0000 0.0000 -21.8563 0.0000
# 6 0.0000 0.0000 0.0000 0.0000 0.0000 -1.0225
#
#
#
# Elastic Compliance Matrix: (Units=1/GPa)
#
#
# Indices 1 2 3 4 5 6 
#
# 1 0.015746 0.004008 -0.002044 0.000000 0.000000 0.000000
# 2 0.004008 0.020302 -0.009158 0.000000 0.000000 0.000000
# 3 -0.002044 -0.009158 0.015337 0.000000 0.000000 0.000000
# 4 0.000000 0.000000 0.000000 -0.038818 0.000000 0.000000
# 5 0.000000 0.000000 0.000000 0.000000 -0.045753 0.000000
# 6 0.000000 0.000000 0.000000 0.000000 0.000000 -0.978023
#
#
# Mechanical properties :
#
#
# Convention : Reuss Voigt Hill
#
# Bulk Modulus (GPa) = 27.02934 31.51069 29.27001
# Shear Modulus (GPa) = -5.07878 3.41218 -0.83330
#
# Velocity S-wave (km/s) = -1.54077 1.26292 -0.62411
# Velocity P-wave (km/s) = 3.07718 4.10557 3.62799
#
# Compressibility (1/GPa) = 0.03699684
#
# Stress axis : x y z
#
# Youngs Moduli (GPa) = 63.50705 49.25591 65.20165
#
# Poissons Ratio (x) = -0.19742 0.13329
# Poissons Ratio (y) = -0.25454 0.59712
# Poissons Ratio (z) = 0.12983 0.45109
#
# Static dielectric constant tensor:
#      x y z
#    x 1.864160 0.000000 0.000000 
#    y 0.000000 1.831050 0.000000 
#    z 0.000000 0.000000 1.753270 
# 
# From -- ./inp_files/17748.got.cif
#   From: 2010.05.17/outbox.cif.g08.bks.cpg/sg69_9_cif.got.tgz:17748.got - 2010.06.03 19:29:58.
