data_PCOD9511108
_publ_section_title
;
Structure prediction by ZEFSAII (Michael W. Deem and Ramdas Pophale) SiO2 
 PCOD9511108
Probable space group: F M M M
;
_chemical_formula_sum "Si O2"
_cell_formula_units_Z 144
_cell_length_a 19.224649
_cell_length_b 11.395705
_cell_length_c 28.217288
_cell_angle_alpha 90.000000
_cell_angle_beta 90.000000
_cell_angle_gamma 90.000000
_cell_volume 6181.799118
_symmetry_space_group_name_H-M "F M M M"
_symmetry_group_IT_number 69
_symmetry_cell_setting 'orthorhombic'
loop_
_space_group_symop_operation_xyz
x,y,z
-x,-y,z
x,-y,-z
-x,y,-z
-x,-y,-z
x,y,-z
-x,y,z
x,-y,z
x,1/2+y,1/2+z
-x,1/2-y,1/2+z
x,1/2-y,1/2-z
-x,1/2+y,1/2-z
-x,1/2-y,1/2-z
x,1/2+y,1/2-z
-x,1/2+y,1/2+z
x,1/2-y,1/2+z
1/2+x,y,1/2+z
1/2-x,-y,1/2+z
1/2+x,-y,1/2-z
1/2-x,y,1/2-z
1/2-x,-y,1/2-z
1/2+x,y,1/2-z
1/2-x,y,1/2+z
1/2+x,-y,1/2+z
1/2+x,1/2+y,z
1/2-x,1/2-y,z
1/2+x,1/2-y,-z
1/2-x,1/2+y,-z
1/2-x,1/2-y,-z
1/2+x,1/2+y,-z
1/2-x,1/2+y,z
1/2+x,1/2-y,z
loop_
_atom_site_type_symbol
_atom_site_label
_atom_site_fract_x
_atom_site_fract_y
_atom_site_fract_z
Si Si1 0.616381 0.126425 0.094526
Si Si2 0.919037 0.873614 0.233835
Si Si3 0.108210 0.872874 0.122181
Si Si4 0.743983 0.125836 0.165334
Si Si5 0.208472 0.628354 0.000000
O O1 0.581448 0.253647 0.098885
O O2 0.670920 0.124245 0.138271
O O3 0.660638 0.128665 0.046505
O O4 0.578921 0.000000 0.096075
O O5 0.888052 0.750000 0.250000
O O6 0.915412 0.872964 0.176978
O O7 0.000000 0.873208 0.248832
O O8 0.890020 0.000000 0.250389
O O9 0.192907 0.869429 0.126544
O O10 0.088812 0.000000 0.101504
O O11 0.750000 0.250000 0.191479
O O12 0.753828 0.000000 0.189858
O O13 0.250000 0.750000 0.000000
O O14 0.246525 0.500000 0.000000
#
# Coordination Sequence:
#
# PCOD9511108 Si02
#       5
#    32  32  32  32  16
#     4   9  17  27  40  61  89 119 149 181 214 248
#     4   9  18  32  49  69  90 109 133 172 221 268
#     4   9  16  27  44  63  84 112 143 174 212 258
#     4   8  13  22  36  54  77 107 139 166 195 234
#     4  10  18  26  38  60  91 124 155 187 220 251
#
# _framework density 23.29419
#
# number of rings (size 3 to 8) (size 9 to 14) (size 15 to 20)
#    0.000    3.111    0.000    2.000    0.000    3.556 
#    0.000    0.000    0.000    6.000    0.000   36.556 
#    0.000    6.222    0.000    0.000    0.000    0.000 
#
# Total GULP energy -200504.061338 kJ/mol
# GULP energy per Si atom -5569.557259 kJ/mol
# Density = 2.324117 g / cm^3
# Si number density = 23.294190 Si / 1000 Ang^3
#
#
#
# Elastic Constant Matrix: (Units=GPa)
#
#
# Indices 1 2 3 4 5 6 
#
# 1 71.6682 15.5874 1.9060 0.0000 0.0000 0.0000
# 2 15.5874 378.4065 43.0005 0.0000 0.0000 0.0000
# 3 1.9060 43.0005 41.7473 0.0000 0.0000 0.0000
# 4 0.0000 0.0000 0.0000 21.4788 0.0000 0.0000
# 5 0.0000 0.0000 0.0000 0.0000 -13.4554 0.0000
# 6 0.0000 0.0000 0.0000 0.0000 0.0000 -21.0449
#
#
#
# Elastic Compliance Matrix: (Units=1/GPa)
#
#
# Indices 1 2 3 4 5 6 
#
# 1 0.014079 -0.000574 -0.000051 0.000000 0.000000 0.000000
# 2 -0.000574 0.003016 -0.003081 0.000000 0.000000 0.000000
# 3 -0.000051 -0.003081 0.027129 0.000000 0.000000 0.000000
# 4 0.000000 0.000000 0.000000 0.046558 0.000000 0.000000
# 5 0.000000 0.000000 0.000000 0.000000 -0.074320 0.000000
# 6 0.000000 0.000000 0.000000 0.000000 0.000000 -0.047517
#
#
# Mechanical properties :
#
#
# Convention : Reuss Voigt Hill
#
# Bulk Modulus (GPa) = 27.16473 68.08998 47.62736
# Shear Modulus (GPa) = -439.71031 26.15090 -206.77971
#
# Velocity S-wave (km/s) = -13.75404 3.35421 -9.43194
# Velocity P-wave (km/s) = 15.50950 6.65544 9.90580
#
# Compressibility (1/GPa) = 0.03681244
#
# Stress axis : x y z
#
# Youngs Moduli (GPa) = 71.02563 331.52201 36.86067
#
# Poissons Ratio (x) = 0.19033 0.00190
# Poissons Ratio (y) = 0.04078 0.11356
# Poissons Ratio (z) = 0.00365 1.02133
#
# Static dielectric constant tensor:
#      x y z
#    x 1.885750 0.000000 0.000000 
#    y 0.000000 2.010250 0.000000 
#    z 0.000000 0.000000 1.798850 
# 
# From -- ./inp_files/35143.got.cif
#   From: 2010.05.17/outbox.cif.g08.bks.cpg/sg69_18_cif.got.tgz:35143.got - 2010.06.03 19:29:58.
