data_PCOD9511673
_publ_section_title
;
Structure prediction by ZEFSAII (Michael W. Deem and Ramdas Pophale) SiO2 
 PCOD9511673
Probable space group: F M M M
;
_chemical_formula_sum "Si O2"
_cell_formula_units_Z 160
_cell_length_a 18.095105
_cell_length_b 31.700256
_cell_length_c 15.911866
_cell_angle_alpha 90.000000
_cell_angle_beta 90.000000
_cell_angle_gamma 90.000000
_cell_volume 9127.355996
_symmetry_space_group_name_H-M "F M M M"
_symmetry_group_IT_number 69
_symmetry_cell_setting 'orthorhombic'
loop_
_space_group_symop_operation_xyz
x,y,z
-x,-y,z
x,-y,-z
-x,y,-z
-x,-y,-z
x,y,-z
-x,y,z
x,-y,z
x,1/2+y,1/2+z
-x,1/2-y,1/2+z
x,1/2-y,1/2-z
-x,1/2+y,1/2-z
-x,1/2-y,1/2-z
x,1/2+y,1/2-z
-x,1/2+y,1/2+z
x,1/2-y,1/2+z
1/2+x,y,1/2+z
1/2-x,-y,1/2+z
1/2+x,-y,1/2-z
1/2-x,y,1/2-z
1/2-x,-y,1/2-z
1/2+x,y,1/2-z
1/2-x,y,1/2+z
1/2+x,-y,1/2+z
1/2+x,1/2+y,z
1/2-x,1/2-y,z
1/2+x,1/2-y,-z
1/2-x,1/2+y,-z
1/2-x,1/2-y,-z
1/2+x,1/2+y,-z
1/2-x,1/2+y,z
1/2+x,1/2-y,z
loop_
_atom_site_type_symbol
_atom_site_label
_atom_site_fract_x
_atom_site_fract_y
_atom_site_fract_z
Si Si1 0.700454 0.117669 0.833927
Si Si2 0.698959 0.046948 0.405527
Si Si3 0.738195 0.297370 0.101048
Si Si4 0.916456 0.582903 0.281976
Si Si5 0.080537 0.164566 0.900862
O O1 0.750000 0.117305 0.750000
O O2 0.741603 0.084180 0.893734
O O3 0.707904 0.165390 0.867125
O O4 0.621984 0.099830 0.803139
O O5 0.666878 0.050661 0.500000
O O6 0.637781 0.051825 0.332669
O O7 0.732163 0.000000 0.398250
O O8 0.750000 0.250000 0.133028
O O9 0.653838 0.310014 0.121714
O O10 0.745070 0.296755 0.000000
O O11 0.918868 0.622949 0.344826
O O12 0.000000 0.567516 0.269727
O O13 0.000000 0.185687 0.888748
O O14 0.086231 0.153995 0.000000
#
# Coordination Sequence:
#
# PCOD9511673 Si02
#       5
#    32  32  32  32  32
#     4  10  19  33  51  74 106 139 167 211 261 320
#     4  10  20  34  55  80 103 133 176 220 262 309
#     4  10  19  32  52  76  99 134 183 225 258 301
#     4  10  20  33  50  76 108 139 168 206 263 319
#     4   9  16  29  49  72 101 134 166 208 263 312
#
# _framework density 17.529720000000001
#
# number of rings (size 3 to 8) (size 9 to 14) (size 15 to 20)
#    0.000    2.200    4.000    1.200    0.000    5.600 
#    0.000    2.000    0.000    6.000    0.000    1.400 
#    0.000    0.000    0.000    0.000    0.000    0.000 
#
# Total GULP energy -222702.748745 kJ/mol
# GULP energy per Si atom -5567.568719 kJ/mol
# Density = 1.748982 g / cm^3
# Si number density = 17.529720 Si / 1000 Ang^3
#
#
#
# Elastic Constant Matrix: (Units=GPa)
#
#
# Indices 1 2 3 4 5 6 
#
# 1 62.2202 19.5250 18.8239 0.0000 0.0000 0.0000
# 2 19.5250 105.3085 23.5896 0.0000 0.0000 0.0000
# 3 18.8239 23.5896 35.0439 0.0000 0.0000 0.0000
# 4 0.0000 0.0000 0.0000 14.6378 0.0000 0.0000
# 5 0.0000 0.0000 0.0000 0.0000 20.4790 0.0000
# 6 0.0000 0.0000 0.0000 0.0000 0.0000 14.2907
#
#
#
# Elastic Compliance Matrix: (Units=1/GPa)
#
#
# Indices 1 2 3 4 5 6 
#
# 1 0.019386 -0.001486 -0.009413 0.000000 0.000000 0.000000
# 2 -0.001486 0.011296 -0.006806 0.000000 0.000000 0.000000
# 3 -0.009413 -0.006806 0.038173 0.000000 0.000000 0.000000
# 4 0.000000 0.000000 0.000000 0.068316 0.000000 0.000000
# 5 0.000000 0.000000 0.000000 0.000000 0.048831 0.000000
# 6 0.000000 0.000000 0.000000 0.000000 0.000000 0.069975
#
#
# Mechanical properties :
#
#
# Convention : Reuss Voigt Hill
#
# Bulk Modulus (GPa) = 29.89899 36.27216 33.08557
# Shear Modulus (GPa) = 16.52702 19.25711 17.89207
#
# Velocity S-wave (km/s) = 3.07384 3.31802 3.19826
# Velocity P-wave (km/s) = 5.44896 5.95111 5.70556
#
# Compressibility (1/GPa) = 0.03344595
#
# Stress axis : x y z
#
# Youngs Moduli (GPa) = 51.58362 88.52778 26.19641
#
# Poissons Ratio (x) = 0.13153 0.24659
# Poissons Ratio (y) = 0.07664 0.17829
# Poissons Ratio (z) = 0.48556 0.60249
#
# Static dielectric constant tensor:
#      x y z
#    x 1.637510 0.000000 0.000000 
#    y 0.000000 1.610220 0.000000 
#    z 0.000000 0.000000 1.618590 
# 
# From -- ./inp_files/23142.got.cif
#   From: 2010.05.17/outbox.cif.g08.bks.cpg/sg69_12_cif.got.tgz:23142.got - 2010.06.03 19:29:58.
