data_PCOD9511514
_publ_section_title
;
Structure prediction by ZEFSAII (Michael W. Deem and Ramdas Pophale) SiO2 
 PCOD9511514
Probable space group: F M M M
;
_chemical_formula_sum "Si O2"
_cell_formula_units_Z 144
_cell_length_a 31.814593
_cell_length_b 14.194498
_cell_length_c 14.201407
_cell_angle_alpha 90.000000
_cell_angle_beta 90.000000
_cell_angle_gamma 90.000000
_cell_volume 6413.244299
_symmetry_space_group_name_H-M "F M M M"
_symmetry_group_IT_number 69
_symmetry_cell_setting 'orthorhombic'
loop_
_space_group_symop_operation_xyz
x,y,z
-x,-y,z
x,-y,-z
-x,y,-z
-x,-y,-z
x,y,-z
-x,y,z
x,-y,z
x,1/2+y,1/2+z
-x,1/2-y,1/2+z
x,1/2-y,1/2-z
-x,1/2+y,1/2-z
-x,1/2-y,1/2-z
x,1/2+y,1/2-z
-x,1/2+y,1/2+z
x,1/2-y,1/2+z
1/2+x,y,1/2+z
1/2-x,-y,1/2+z
1/2+x,-y,1/2-z
1/2-x,y,1/2-z
1/2-x,-y,1/2-z
1/2+x,y,1/2-z
1/2-x,y,1/2+z
1/2+x,-y,1/2+z
1/2+x,1/2+y,z
1/2-x,1/2-y,z
1/2+x,1/2-y,-z
1/2-x,1/2+y,-z
1/2-x,1/2-y,-z
1/2+x,1/2+y,-z
1/2-x,1/2+y,z
1/2+x,1/2-y,z
loop_
_atom_site_type_symbol
_atom_site_label
_atom_site_fract_x
_atom_site_fract_y
_atom_site_fract_z
Si Si1 0.819494 0.757512 0.636913
Si Si2 0.744696 0.393747 0.136069
Si Si3 0.450612 0.500000 0.385171
Si Si4 0.549980 0.602877 0.886301
Si Si5 0.915343 0.700329 0.892147
O O1 0.821595 0.750000 0.750000
O O2 0.784769 0.833162 0.606138
O O3 0.798484 0.658220 0.609038
O O4 0.865225 0.787961 0.605134
O O5 0.745828 0.500000 0.104385
O O6 0.750000 0.393117 0.250000
O O7 0.500000 0.500000 0.360961
O O8 0.446972 0.500000 0.500000
O O9 0.429798 0.598901 0.352573
O O10 0.500000 0.605644 0.871262
O O11 0.565571 0.500000 0.851663
O O12 0.568712 0.700797 0.848964
O O13 0.557055 0.602189 0.000000
O O14 0.931893 0.699946 0.000000
#
# Coordination Sequence:
#
# PCOD9511514 Si02
#       5
#    32  32  16  32  32
#     4   9  18  31  48  72  94 121 162 199 242 287
#     4   8  15  30  50  67  90 126 164 200 230 281
#     4   9  18  32  50  72  97 132 173 205 240 287
#     4   8  14  26  45  67  90 120 157 195 236 281
#     4  10  19  30  48  74 101 126 159 207 245 285
#
# _framework density 22.453534000000001
#
# number of rings (size 3 to 8) (size 9 to 14) (size 15 to 20)
#    0.000    3.222    0.000    2.667    1.556    3.556 
#    0.000    2.222    0.000    4.000    0.000    0.000 
#    0.000    0.000    0.000    0.000    0.000    0.000 
#
# Total GULP energy -200824.028012 kJ/mol
# GULP energy per Si atom -5578.445223 kJ/mol
# Density = 2.240243 g / cm^3
# Si number density = 22.453534 Si / 1000 Ang^3
#
#
#
# Elastic Constant Matrix: (Units=GPa)
#
#
# Indices 1 2 3 4 5 6 
#
# 1 103.2851 96.6285 -2.0550 0.0000 0.0000 0.0000
# 2 96.6285 271.1844 24.7539 0.0000 0.0000 0.0000
# 3 -2.0550 24.7539 88.8326 0.0000 0.0000 0.0000
# 4 0.0000 0.0000 0.0000 3.3415 0.0000 0.0000
# 5 0.0000 0.0000 0.0000 0.0000 16.6365 0.0000
# 6 0.0000 0.0000 0.0000 0.0000 0.0000 20.1470
#
#
#
# Elastic Compliance Matrix: (Units=1/GPa)
#
#
# Indices 1 2 3 4 5 6 
#
# 1 0.014817 -0.005450 0.001861 0.000000 0.000000 0.000000
# 2 -0.005450 0.005788 -0.001739 0.000000 0.000000 0.000000
# 3 0.001861 -0.001739 0.011785 0.000000 0.000000 0.000000
# 4 0.000000 0.000000 0.000000 0.299266 0.000000 0.000000
# 5 0.000000 0.000000 0.000000 0.000000 0.060109 0.000000
# 6 0.000000 0.000000 0.000000 0.000000 0.000000 0.049635
#
#
# Mechanical properties :
#
#
# Convention : Reuss Voigt Hill
#
# Bulk Modulus (GPa) = 46.00718 77.99522 62.00120
# Shear Modulus (GPa) = 10.88614 30.95665 20.92140
#
# Velocity S-wave (km/s) = 2.20427 3.71711 3.05579
# Velocity P-wave (km/s) = 5.19739 7.29618 6.33432
#
# Compressibility (1/GPa) = 0.02173574
#
# Stress axis : x y z
#
# Youngs Moduli (GPa) = 67.48831 172.76899 84.85533
#
# Poissons Ratio (x) = 0.94153 -0.15795
# Poissons Ratio (y) = 0.36779 0.14756
# Poissons Ratio (z) = -0.12562 0.30044
#
# Static dielectric constant tensor:
#      x y z
#    x 1.753220 0.000000 0.000000 
#    y 0.000000 1.836640 0.000000 
#    z 0.000000 0.000000 1.919500 
# 
# From -- ./inp_files/27366.got.cif
#   From: 2010.05.17/outbox.cif.g08.bks.cpg/sg69_14_cif.got.tgz:27366.got - 2010.06.03 19:29:58.
