data_PCOD9511471
_publ_section_title
;
Structure prediction by ZEFSAII (Michael W. Deem and Ramdas Pophale) SiO2 
 PCOD9511471
Probable space group: F M M M
;
_chemical_formula_sum "Si O2"
_cell_formula_units_Z 88
_cell_length_a 14.249249
_cell_length_b 23.367815
_cell_length_c 15.186570
_cell_angle_alpha 90.000000
_cell_angle_beta 90.000000
_cell_angle_gamma 90.000000
_cell_volume 5056.730142
_symmetry_space_group_name_H-M "F M M M"
_symmetry_group_IT_number 69
_symmetry_cell_setting 'orthorhombic'
loop_
_space_group_symop_operation_xyz
x,y,z
-x,-y,z
x,-y,-z
-x,y,-z
-x,-y,-z
x,y,-z
-x,y,z
x,-y,z
x,1/2+y,1/2+z
-x,1/2-y,1/2+z
x,1/2-y,1/2-z
-x,1/2+y,1/2-z
-x,1/2-y,1/2-z
x,1/2+y,1/2-z
-x,1/2+y,1/2+z
x,1/2-y,1/2+z
1/2+x,y,1/2+z
1/2-x,-y,1/2+z
1/2+x,-y,1/2-z
1/2-x,y,1/2-z
1/2-x,-y,1/2-z
1/2+x,y,1/2-z
1/2-x,y,1/2+z
1/2+x,-y,1/2+z
1/2+x,1/2+y,z
1/2-x,1/2-y,z
1/2+x,1/2-y,-z
1/2-x,1/2+y,-z
1/2-x,1/2-y,-z
1/2+x,1/2+y,-z
1/2-x,1/2+y,z
1/2+x,1/2-y,z
loop_
_atom_site_type_symbol
_atom_site_label
_atom_site_fract_x
_atom_site_fract_y
_atom_site_fract_z
Si Si1 0.710288 0.315721 0.000000
Si Si2 0.000000 0.784690 0.000000
Si Si3 0.500000 0.174200 0.896755
Si Si4 0.111160 0.000000 0.605983
Si Si5 0.809119 0.878153 0.661127
O O1 0.750000 0.250000 0.000000
O O2 0.749288 0.349029 0.915998
O O3 0.598049 0.316426 0.000000
O O4 0.000000 0.741449 0.083348
O O5 0.408392 0.154763 0.845175
O O6 0.500000 0.149616 0.000000
O O7 0.162889 0.943566 0.640927
O O8 0.115030 0.000000 0.500000
O O9 0.000000 0.000000 0.630579
O O10 0.750000 0.873360 0.750000
#
# Coordination Sequence:
#
# PCOD9511471 Si02
#       5
#    16   8  16  16  32
#     4  12  22  43  63  95 135 173 214 271 325 376
#     4  10  22  40  68  84 134 180 218 260 314 392
#     4  10  18  42  68  91 124 175 226 256 303 398
#     4  11  21  40  74  95 123 173 219 269 321 385
#     4  12  24  39  68 101 130 166 219 273 325 379
#
# _framework density 17.402550999999999
#
# number of rings (size 3 to 8) (size 9 to 14) (size 15 to 20)
#    0.545    0.182    9.091    0.545    0.000    2.182 
#    0.000    1.818    0.000    1.091    0.000    0.000 
#    0.000    0.000    0.000    0.000    0.000    0.000 
#
# Total GULP energy -122766.517876 kJ/mol
# GULP energy per Si atom -5580.296267 kJ/mol
# Density = 1.736294 g / cm^3
# Si number density = 17.402551 Si / 1000 Ang^3
#
#
#
# Elastic Constant Matrix: (Units=GPa)
#
#
# Indices 1 2 3 4 5 6 
#
# 1 213.0270 75.0532 91.9714 0.0000 0.0000 0.0000
# 2 75.0532 105.0161 60.6898 0.0000 0.0000 0.0000
# 3 91.9714 60.6898 147.2885 0.0000 0.0000 0.0000
# 4 0.0000 0.0000 0.0000 43.4180 0.0000 0.0000
# 5 0.0000 0.0000 0.0000 0.0000 40.1557 0.0000
# 6 0.0000 0.0000 0.0000 0.0000 0.0000 40.3577
#
#
#
# Elastic Compliance Matrix: (Units=1/GPa)
#
#
# Indices 1 2 3 4 5 6 
#
# 1 0.007228 -0.003357 -0.003130 0.000000 0.000000 0.000000
# 2 -0.003357 0.014058 -0.003696 0.000000 0.000000 0.000000
# 3 -0.003130 -0.003696 0.010267 0.000000 0.000000 0.000000
# 4 0.000000 0.000000 0.000000 0.023032 0.000000 0.000000
# 5 0.000000 0.000000 0.000000 0.000000 0.024903 0.000000
# 6 0.000000 0.000000 0.000000 0.000000 0.000000 0.024778
#
#
# Mechanical properties :
#
#
# Convention : Reuss Voigt Hill
#
# Bulk Modulus (GPa) = 89.39755 102.30671 95.85213
# Shear Modulus (GPa) = 38.95218 40.62744 39.78981
#
# Velocity S-wave (km/s) = 4.73620 4.83698 4.78686
# Velocity P-wave (km/s) = 9.02168 9.49269 9.26018
#
# Compressibility (1/GPa) = 0.01118599
#
# Stress axis : x y z
#
# Youngs Moduli (GPa) = 138.34159 71.13604 97.39785
#
# Poissons Ratio (x) = 0.23880 0.30490
# Poissons Ratio (y) = 0.46441 0.36000
# Poissons Ratio (z) = 0.43307 0.26293
#
# Static dielectric constant tensor:
#      x y z
#    x 1.562620 0.000000 0.000000 
#    y 0.000000 1.606970 0.000000 
#    z 0.000000 0.000000 1.572900 
# 
# From -- ./inp_files/7156.got.cif
#   From: 2010.05.17/outbox.cif.g08.bks.cpg/sg69_4_cif.got.tgz:7156.got - 2010.06.03 19:29:58.
