data_PCOD9511007
_publ_section_title
;
Structure prediction by ZEFSAII (Michael W. Deem and Ramdas Pophale) SiO2 
 PCOD9511007
Probable space group: F M M M
;
_chemical_formula_sum "Si O2"
_cell_formula_units_Z 192
_cell_length_a 30.161105
_cell_length_b 14.127589
_cell_length_c 24.171157
_cell_angle_alpha 90.000000
_cell_angle_beta 90.000000
_cell_angle_gamma 90.000000
_cell_volume 10299.419316
_symmetry_space_group_name_H-M "F M M M"
_symmetry_group_IT_number 69
_symmetry_cell_setting 'orthorhombic'
loop_
_space_group_symop_operation_xyz
x,y,z
-x,-y,z
x,-y,-z
-x,y,-z
-x,-y,-z
x,y,-z
-x,y,z
x,-y,z
x,1/2+y,1/2+z
-x,1/2-y,1/2+z
x,1/2-y,1/2-z
-x,1/2+y,1/2-z
-x,1/2-y,1/2-z
x,1/2+y,1/2-z
-x,1/2+y,1/2+z
x,1/2-y,1/2+z
1/2+x,y,1/2+z
1/2-x,-y,1/2+z
1/2+x,-y,1/2-z
1/2-x,y,1/2-z
1/2-x,-y,1/2-z
1/2+x,y,1/2-z
1/2-x,y,1/2+z
1/2+x,-y,1/2+z
1/2+x,1/2+y,z
1/2-x,1/2-y,z
1/2+x,1/2-y,-z
1/2-x,1/2+y,-z
1/2-x,1/2-y,-z
1/2+x,1/2+y,-z
1/2-x,1/2+y,z
1/2+x,1/2-y,z
loop_
_atom_site_type_symbol
_atom_site_label
_atom_site_fract_x
_atom_site_fract_y
_atom_site_fract_z
Si Si1 0.551469 0.757665 0.500000
Si Si2 0.668543 0.892459 0.616116
Si Si3 0.389077 0.887211 0.787466
Si Si4 0.951216 0.800173 0.378075
Si Si5 0.798576 0.884131 0.229291
Si Si6 0.570696 0.394292 0.169650
Si Si7 0.137059 0.115648 0.000000
O O1 0.500000 0.790888 0.500000
O O2 0.557558 0.698338 0.443589
O O3 0.587824 0.840772 0.500000
O O4 0.695339 0.847613 0.666553
O O5 0.619106 0.898279 0.641373
O O6 0.662505 0.851389 0.555234
O O7 0.685344 0.000000 0.608173
O O8 0.411899 0.841496 0.840627
O O9 0.339755 0.855424 0.768657
O O10 0.420330 0.870286 0.733880
O O11 0.387156 0.000000 0.795518
O O12 0.953411 0.689913 0.360904
O O13 0.000000 0.843276 0.366578
O O14 0.750000 0.860262 0.250000
O O15 0.801917 0.000000 0.226505
O O16 0.551751 0.500000 0.165684
O O17 0.134172 0.000000 0.000000
#
# Coordination Sequence:
#
# PCOD9511007 Si02
#       7
#    16  32  32  32  32  32  16
#     4  10  22  35  47  69  95 134 190 229 260 307
#     4   8  14  24  43  72 101 131 163 194 248 322
#     4   9  19  34  53  77 104 135 174 219 267 316
#     4  11  22  35  51  72 101 139 184 226 264 310
#     4   8  14  28  52  80 107 132 164 214 271 326
#     4   9  17  31  50  75 104 132 167 211 265 326
#     4  10  16  27  48  72 102 139 171 206 261 327
#
# _framework density 18.641828
#
# number of rings (size 3 to 8) (size 9 to 14) (size 15 to 20)
#    0.000    2.833    1.667    2.500    0.000    2.167 
#    0.000    3.750    0.000   10.500    0.000    4.667 
#    0.000    0.000    0.000    0.000    0.000    0.000 
#
# Total GULP energy -267373.852889 kJ/mol
# GULP energy per Si atom -5570.288602 kJ/mol
# Density = 1.859940 g / cm^3
# Si number density = 18.641828 Si / 1000 Ang^3
#
#
#
# Elastic Constant Matrix: (Units=GPa)
#
#
# Indices 1 2 3 4 5 6 
#
# 1 89.3533 8.8331 78.9260 0.0000 0.0000 0.0000
# 2 8.8331 38.0198 28.8145 0.0000 0.0000 0.0000
# 3 78.9260 28.8145 182.8782 0.0000 0.0000 0.0000
# 4 0.0000 0.0000 0.0000 18.8922 0.0000 0.0000
# 5 0.0000 0.0000 0.0000 0.0000 22.4415 0.0000
# 6 0.0000 0.0000 0.0000 0.0000 0.0000 13.6506
#
#
#
# Elastic Compliance Matrix: (Units=1/GPa)
#
#
# Indices 1 2 3 4 5 6 
#
# 1 0.018214 0.001960 -0.008170 0.000000 0.000000 0.000000
# 2 0.001960 0.030080 -0.005585 0.000000 0.000000 0.000000
# 3 -0.008170 -0.005585 0.009874 0.000000 0.000000 0.000000
# 4 0.000000 0.000000 0.000000 0.052932 0.000000 0.000000
# 5 0.000000 0.000000 0.000000 0.000000 0.044560 0.000000
# 6 0.000000 0.000000 0.000000 0.000000 0.000000 0.073257
#
#
# Mechanical properties :
#
#
# Convention : Reuss Voigt Hill
#
# Bulk Modulus (GPa) = 28.92027 60.37762 44.64894
# Shear Modulus (GPa) = 18.93710 23.90872 21.42291
#
# Velocity S-wave (km/s) = 3.19068 3.58513 3.39364
# Velocity P-wave (km/s) = 5.39641 7.04245 6.27365
#
# Compressibility (1/GPa) = 0.03457783
#
# Stress axis : x y z
#
# Youngs Moduli (GPa) = 54.90297 33.24503 101.27696
#
# Poissons Ratio (x) = -0.06516 0.82738
# Poissons Ratio (y) = -0.10760 0.56566
# Poissons Ratio (z) = 0.44853 0.18568
#
# Static dielectric constant tensor:
#      x y z
#    x 1.674340 0.000000 0.000000 
#    y 0.000000 1.690820 0.000000 
#    z 0.000000 0.000000 1.670300 
# 
# From -- ./inp_files/39022.got.cif
#   From: 2010.05.17/outbox.cif.g08.bks.cpg/sg69_20_cif.got.tgz:39022.got - 2010.06.03 19:29:58.
