data_PCOD9511567
_publ_section_title
;
Structure prediction by ZEFSAII (Michael W. Deem and Ramdas Pophale) SiO2 
 PCOD9511567
Probable space group: F M M M
;
_chemical_formula_sum "Si O2"
_cell_formula_units_Z 192
_cell_length_a 19.390262
_cell_length_b 25.242865
_cell_length_c 21.603050
_cell_angle_alpha 90.000000
_cell_angle_beta 90.000000
_cell_angle_gamma 90.000000
_cell_volume 10573.953416
_symmetry_space_group_name_H-M "F M M M"
_symmetry_group_IT_number 69
_symmetry_cell_setting 'orthorhombic'
loop_
_space_group_symop_operation_xyz
x,y,z
-x,-y,z
x,-y,-z
-x,y,-z
-x,-y,-z
x,y,-z
-x,y,z
x,-y,z
x,1/2+y,1/2+z
-x,1/2-y,1/2+z
x,1/2-y,1/2-z
-x,1/2+y,1/2-z
-x,1/2-y,1/2-z
x,1/2+y,1/2-z
-x,1/2+y,1/2+z
x,1/2-y,1/2+z
1/2+x,y,1/2+z
1/2-x,-y,1/2+z
1/2+x,-y,1/2-z
1/2-x,y,1/2-z
1/2-x,-y,1/2-z
1/2+x,y,1/2-z
1/2-x,y,1/2+z
1/2+x,-y,1/2+z
1/2+x,1/2+y,z
1/2-x,1/2-y,z
1/2+x,1/2-y,-z
1/2-x,1/2+y,-z
1/2-x,1/2-y,-z
1/2+x,1/2+y,-z
1/2-x,1/2+y,z
1/2+x,1/2-y,z
loop_
_atom_site_type_symbol
_atom_site_label
_atom_site_fract_x
_atom_site_fract_y
_atom_site_fract_z
Si Si1 0.419818 0.855907 0.136075
Si Si2 0.797906 0.794499 0.069792
Si Si3 0.206196 0.061229 0.188342
Si Si4 0.420235 0.731275 0.850260
Si Si5 0.079161 0.869015 0.777866
Si Si6 0.789290 0.598053 0.929611
O O1 0.500000 0.859684 0.116278
O O2 0.402737 0.793437 0.145691
O O3 0.414139 0.879995 0.204902
O O4 0.365999 0.884280 0.090987
O O5 0.750000 0.750000 0.101068
O O6 0.869895 0.798292 0.103242
O O7 0.755639 0.848209 0.068595
O O8 0.812084 0.776195 0.000000
O O9 0.250000 0.076022 0.250000
O O10 0.138829 0.098603 0.187655
O O11 0.253223 0.066527 0.126727
O O12 0.185203 0.000000 0.195210
O O13 0.500000 0.728047 0.868025
O O14 0.413427 0.694625 0.789131
O O15 0.000000 0.882094 0.796564
O O16 0.788673 0.575678 0.000000
#
# Coordination Sequence:
#
# PCOD9511567 Si02
#       6
#    32  32  32  32  32  32
#     4  10  20  34  54  84 120 155 189 225 272 340
#     4  10  19  31  48  74 107 147 192 229 266 325
#     4  11  23  40  63  87 108 140 193 246 291 343
#     4  10  19  31  51  80 115 153 188 226 273 331
#     4  10  20  36  57  83 116 150 188 237 286 332
#     4  11  22  37  58  83 115 152 189 236 290 339
#
# _framework density 18.157824999999999
#
# number of rings (size 3 to 8) (size 9 to 14) (size 15 to 20)
#    0.000    1.667    5.000    0.500    0.000    3.333 
#    0.000    1.667    0.000    1.000    0.000    2.333 
#    0.000    0.000    0.000    0.000    0.000    0.000 
#
# Total GULP energy -267323.446183 kJ/mol
# GULP energy per Si atom -5569.238462 kJ/mol
# Density = 1.811650 g / cm^3
# Si number density = 18.157825 Si / 1000 Ang^3
#
#
#
# Elastic Constant Matrix: (Units=GPa)
#
#
# Indices 1 2 3 4 5 6 
#
# 1 83.7641 27.9908 40.9937 0.0000 0.0000 0.0000
# 2 27.9908 50.8032 5.0207 0.0000 0.0000 0.0000
# 3 40.9937 5.0207 88.7211 0.0000 0.0000 0.0000
# 4 0.0000 0.0000 0.0000 81.9732 0.0000 0.0000
# 5 0.0000 0.0000 0.0000 0.0000 -76.5418 0.0000
# 6 0.0000 0.0000 0.0000 0.0000 0.0000 18.6438
#
#
#
# Elastic Compliance Matrix: (Units=1/GPa)
#
#
# Indices 1 2 3 4 5 6 
#
# 1 0.019313 -0.009814 -0.008368 0.000000 0.000000 0.000000
# 2 -0.009814 0.024781 0.003132 0.000000 0.000000 0.000000
# 3 -0.008368 0.003132 0.014961 0.000000 0.000000 0.000000
# 4 0.000000 0.000000 0.000000 0.012199 0.000000 0.000000
# 5 0.000000 0.000000 0.000000 0.000000 -0.013065 0.000000
# 6 0.000000 0.000000 0.000000 0.000000 0.000000 0.053637
#
#
# Mechanical properties :
#
#
# Convention : Reuss Voigt Hill
#
# Bulk Modulus (GPa) = 34.53627 41.25541 37.89584
# Shear Modulus (GPa) = 32.98629 14.76724 23.87677
#
# Velocity S-wave (km/s) = 4.26683 2.85489 3.63017
# Velocity P-wave (km/s) = 6.58300 5.79974 6.20374
#
# Compressibility (1/GPa) = 0.02895507
#
# Stress axis : x y z
#
# Youngs Moduli (GPa) = 51.77841 40.35296 66.84227
#
# Poissons Ratio (x) = 0.39602 0.55935
# Poissons Ratio (y) = 0.50814 -0.20936
# Poissons Ratio (z) = 0.43330 -0.12639
#
# Static dielectric constant tensor:
#      x y z
#    x 1.619110 0.000000 0.000000 
#    y 0.000000 1.629150 0.000000 
#    z 0.000000 0.000000 1.649860 
# 
# From -- ./inp_files/32051.got.cif
#   From: 2010.05.17/outbox.cif.g08.bks.cpg/sg69_17_cif.got.tgz:32051.got - 2010.06.03 19:29:58.
