data_PCOD9511143
_publ_section_title
;
Structure prediction by ZEFSAII (Michael W. Deem and Ramdas Pophale) SiO2 
 PCOD9511143
Probable space group: F M M M
;
_chemical_formula_sum "Si O2"
_cell_formula_units_Z 176
_cell_length_a 14.168059
_cell_length_b 28.069258
_cell_length_c 25.229784
_cell_angle_alpha 90.000000
_cell_angle_beta 90.000000
_cell_angle_gamma 90.000000
_cell_volume 10033.554673
_symmetry_space_group_name_H-M "F M M M"
_symmetry_group_IT_number 69
_symmetry_cell_setting 'orthorhombic'
loop_
_space_group_symop_operation_xyz
x,y,z
-x,-y,z
x,-y,-z
-x,y,-z
-x,-y,-z
x,y,-z
-x,y,z
x,-y,z
x,1/2+y,1/2+z
-x,1/2-y,1/2+z
x,1/2-y,1/2-z
-x,1/2+y,1/2-z
-x,1/2-y,1/2-z
x,1/2+y,1/2-z
-x,1/2+y,1/2+z
x,1/2-y,1/2+z
1/2+x,y,1/2+z
1/2-x,-y,1/2+z
1/2+x,-y,1/2-z
1/2-x,y,1/2-z
1/2-x,-y,1/2-z
1/2+x,y,1/2-z
1/2-x,y,1/2+z
1/2+x,-y,1/2+z
1/2+x,1/2+y,z
1/2-x,1/2-y,z
1/2+x,1/2-y,-z
1/2-x,1/2+y,-z
1/2-x,1/2-y,-z
1/2+x,1/2+y,-z
1/2-x,1/2+y,z
1/2+x,1/2-y,z
loop_
_atom_site_type_symbol
_atom_site_label
_atom_site_fract_x
_atom_site_fract_y
_atom_site_fract_z
Si Si1 0.267236 0.696124 0.375328
Si Si2 0.394341 0.196748 0.773032
Si Si3 0.246050 0.443982 0.186094
Si Si4 0.109497 0.865619 0.167717
Si Si5 0.614458 0.446517 0.500000
Si Si6 0.886882 0.609861 0.894464
O O1 0.250000 0.750000 0.393184
O O2 0.313009 0.696315 0.316358
O O3 0.168411 0.668764 0.370775
O O4 0.342391 0.662065 0.403901
O O5 0.500000 0.188719 0.796201
O O6 0.394449 0.250000 0.750000
O O7 0.381844 0.158734 0.726084
O O8 0.240526 0.500000 0.172565
O O9 0.250000 0.440338 0.250000
O O10 0.339912 0.416583 0.167298
O O11 0.161522 0.414677 0.157267
O O12 0.000000 0.867877 0.154840
O O13 0.650818 0.500000 0.500000
O O14 0.500000 0.447738 0.500000
O O15 0.641017 0.420651 0.445836
O O16 0.000000 0.610569 0.889369
#
# Coordination Sequence:
#
# PCOD9511143 Si02
#       6
#    32  32  32  32  16  32
#     4  11  20  30  47  71 106 142 178 222 267 324
#     4  10  18  28  45  68  98 142 188 227 267 314
#     4  10  21  35  51  74 107 144 177 215 273 342
#     4  10  20  31  44  65  97 139 184 223 257 305
#     4   9  18  36  63  88 107 133 176 233 290 342
#     4  10  21  37  58  85 113 141 182 232 285 337
#
# _framework density 17.541142000000001
#
# number of rings (size 3 to 8) (size 9 to 14) (size 15 to 20)
#    0.000    1.909    1.818    3.818    0.000    4.364 
#    0.000    2.273    0.000    0.000    0.000   10.182 
#    0.000   17.455    0.000    0.000    0.000    0.000 
#
# Total GULP energy -245352.679045 kJ/mol
# GULP energy per Si atom -5576.197251 kJ/mol
# Density = 1.750122 g / cm^3
# Si number density = 17.541142 Si / 1000 Ang^3
#
#
#
# Elastic Constant Matrix: (Units=GPa)
#
#
# Indices 1 2 3 4 5 6 
#
# 1 120.1220 50.3715 16.1877 0.0000 0.0000 0.0000
# 2 50.3715 143.7846 26.7144 0.0000 0.0000 0.0000
# 3 16.1877 26.7144 51.5913 0.0000 0.0000 0.0000
# 4 0.0000 0.0000 0.0000 22.8012 0.0000 0.0000
# 5 0.0000 0.0000 0.0000 0.0000 -3.0137 0.0000
# 6 0.0000 0.0000 0.0000 0.0000 0.0000 23.0974
#
#
#
# Elastic Compliance Matrix: (Units=1/GPa)
#
#
# Indices 1 2 3 4 5 6 
#
# 1 0.009855 -0.003184 -0.001443 0.000000 0.000000 0.000000
# 2 -0.003184 0.008724 -0.003518 0.000000 0.000000 0.000000
# 3 -0.001443 -0.003518 0.021658 0.000000 0.000000 0.000000
# 4 0.000000 0.000000 0.000000 0.043857 0.000000 0.000000
# 5 0.000000 0.000000 0.000000 0.000000 -0.331814 0.000000
# 6 0.000000 0.000000 0.000000 0.000000 0.000000 0.043295
#
#
# Mechanical properties :
#
#
# Convention : Reuss Voigt Hill
#
# Bulk Modulus (GPa) = 41.76247 55.78279 48.77263
# Shear Modulus (GPa) = -27.75433 23.39192 -2.18120
#
# Velocity S-wave (km/s) = -3.98206 3.65574 -1.11632
# Velocity P-wave (km/s) = 1.64852 7.04907 5.11894
#
# Compressibility (1/GPa) = 0.02394494
#
# Stress axis : x y z
#
# Youngs Moduli (GPa) = 101.47542 114.62602 46.17285
#
# Poissons Ratio (x) = 0.36499 0.06664
# Poissons Ratio (y) = 0.32312 0.16245
# Poissons Ratio (z) = 0.14646 0.40329
#
# Static dielectric constant tensor:
#      x y z
#    x 1.605770 0.000000 0.000000 
#    y 0.000000 1.622920 0.000000 
#    z 0.000000 0.000000 1.597990 
# 
# From -- ./inp_files/41227.got.cif
#   From: 2010.05.17/outbox.cif.g08.bks.cpg/sg69_21_cif.got.tgz:41227.got - 2010.06.03 19:29:58.
