data_PCOD9511261
_publ_section_title
;
Structure prediction by ZEFSAII (Michael W. Deem and Ramdas Pophale) SiO2 
 PCOD9511261
Probable space group: F M M M
;
_chemical_formula_sum "Si O2"
_cell_formula_units_Z 132
_cell_length_a 30.885601
_cell_length_b 20.330104
_cell_length_c 12.178920
_cell_angle_alpha 90.000000
_cell_angle_beta 90.000000
_cell_angle_gamma 90.000000
_cell_volume 7647.234972
_symmetry_space_group_name_H-M "F M M M"
_symmetry_group_IT_number 69
_symmetry_cell_setting 'orthorhombic'
loop_
_space_group_symop_operation_xyz
x,y,z
-x,-y,z
x,-y,-z
-x,y,-z
-x,-y,-z
x,y,-z
-x,y,z
x,-y,z
x,1/2+y,1/2+z
-x,1/2-y,1/2+z
x,1/2-y,1/2-z
-x,1/2+y,1/2-z
-x,1/2-y,1/2-z
x,1/2+y,1/2-z
-x,1/2+y,1/2+z
x,1/2-y,1/2+z
1/2+x,y,1/2+z
1/2-x,-y,1/2+z
1/2+x,-y,1/2-z
1/2-x,y,1/2-z
1/2-x,-y,1/2-z
1/2+x,y,1/2-z
1/2-x,y,1/2+z
1/2+x,-y,1/2+z
1/2+x,1/2+y,z
1/2-x,1/2-y,z
1/2+x,1/2-y,-z
1/2-x,1/2+y,-z
1/2-x,1/2-y,-z
1/2+x,1/2+y,-z
1/2-x,1/2+y,z
1/2+x,1/2-y,z
loop_
_atom_site_type_symbol
_atom_site_label
_atom_site_fract_x
_atom_site_fract_y
_atom_site_fract_z
Si Si1 0.883680 0.078621 0.131586
Si Si2 0.550166 0.674371 0.741445
Si Si3 0.338332 0.079522 0.000000
Si Si4 0.500000 0.000000 0.000000
Si Si5 0.298758 0.920261 0.768088
Si Si6 0.936499 0.876633 0.500000
O O1 0.919381 0.123393 0.192767
O O2 0.836360 0.096746 0.180830
O O3 0.890818 0.000000 0.154336
O O4 0.885050 0.087476 0.000000
O O5 0.500000 0.668709 0.779255
O O6 0.564458 0.750000 0.750000
O O7 0.551841 0.658940 0.612510
O O8 0.314298 0.099402 0.111013
O O9 0.385774 0.109003 0.000000
O O10 0.341519 0.000000 0.000000
O O11 0.537298 0.056423 0.000000
O O12 0.250000 0.895719 0.750000
O O13 0.296808 0.000000 0.765561
#
# Coordination Sequence:
#
# PCOD9511261 Si02
#       6
#    32  32  16   4  32  16
#     4  10  22  38  58  85 118 154 193 240 289 347
#     4  11  25  41  60  83 117 157 197 241 289 353
#     4  10  18  30  54  85 116 143 185 244 298 351
#     4  12  24  32  68  96 122 148 186 272 308 342
#     4   9  18  31  52  83 118 151 185 235 294 353
#     4  12  22  38  60  93 116 149 197 250 303 341
#
# _framework density 17.261140999999999
#
# number of rings (size 3 to 8) (size 9 to 14) (size 15 to 20)
#    0.000    1.697    4.242    0.000    5.091    0.970 
#    0.000    1.212    0.000    0.727    0.000    3.394 
#    0.000    0.000    0.000    0.000    0.000    0.000 
#
# Total GULP energy -183738.585531 kJ/mol
# GULP energy per Si atom -5567.835925 kJ/mol
# Density = 1.722185 g / cm^3
# Si number density = 17.261141 Si / 1000 Ang^3
#
#
#
# Elastic Constant Matrix: (Units=GPa)
#
#
# Indices 1 2 3 4 5 6 
#
# 1 139.4012 42.5845 46.5229 0.0000 0.0000 0.0000
# 2 42.5845 91.2409 55.2429 0.0000 0.0000 0.0000
# 3 46.5229 55.2429 114.4208 0.0000 0.0000 0.0000
# 4 0.0000 0.0000 0.0000 -81.0226 0.0000 0.0000
# 5 0.0000 0.0000 0.0000 0.0000 39.0920 0.0000
# 6 0.0000 0.0000 0.0000 0.0000 0.0000 6.9295
#
#
#
# Elastic Compliance Matrix: (Units=1/GPa)
#
#
# Indices 1 2 3 4 5 6 
#
# 1 0.008756 -0.002729 -0.002243 0.000000 0.000000 0.000000
# 2 -0.002729 0.016338 -0.006778 0.000000 0.000000 0.000000
# 3 -0.002243 -0.006778 0.012924 0.000000 0.000000 0.000000
# 4 0.000000 0.000000 0.000000 -0.012342 0.000000 0.000000
# 5 0.000000 0.000000 0.000000 0.000000 0.025581 0.000000
# 6 0.000000 0.000000 0.000000 0.000000 0.000000 0.144311
#
#
# Mechanical properties :
#
#
# Convention : Reuss Voigt Hill
#
# Bulk Modulus (GPa) = 68.87990 70.41817 69.64904
# Shear Modulus (GPa) = 22.33085 6.38060 14.35572
#
# Velocity S-wave (km/s) = 3.60071 1.92472 2.88701
# Velocity P-wave (km/s) = 7.56823 6.76932 7.17990
#
# Compressibility (1/GPa) = 0.01451802
#
# Stress axis : x y z
#
# Youngs Moduli (GPa) = 114.21383 61.20854 77.37473
#
# Poissons Ratio (x) = 0.16702 0.17352
# Poissons Ratio (y) = 0.31165 0.52448
# Poissons Ratio (z) = 0.25613 0.41490
#
# Static dielectric constant tensor:
#      x y z
#    x 1.606560 0.000000 0.000000 
#    y 0.000000 1.563690 0.000000 
#    z 0.000000 0.000000 1.581060 
# 
# From -- ./inp_files/12183.got.cif
#   From: 2010.05.17/outbox.cif.g08.bks.cpg/sg69_7_cif.got.tgz:12183.got - 2010.06.03 19:29:58.
