data_PCOD9511478
_publ_section_title
;
Structure prediction by ZEFSAII (Michael W. Deem and Ramdas Pophale) SiO2 
 PCOD9511478
Probable space group: F M M M
;
_chemical_formula_sum "Si O2"
_cell_formula_units_Z 152
_cell_length_a 20.766941
_cell_length_b 13.946106
_cell_length_c 22.741172
_cell_angle_alpha 90.000000
_cell_angle_beta 90.000000
_cell_angle_gamma 90.000000
_cell_volume 6586.251854
_symmetry_space_group_name_H-M "F M M M"
_symmetry_group_IT_number 69
_symmetry_cell_setting 'orthorhombic'
loop_
_space_group_symop_operation_xyz
x,y,z
-x,-y,z
x,-y,-z
-x,y,-z
-x,-y,-z
x,y,-z
-x,y,z
x,-y,z
x,1/2+y,1/2+z
-x,1/2-y,1/2+z
x,1/2-y,1/2-z
-x,1/2+y,1/2-z
-x,1/2-y,1/2-z
x,1/2+y,1/2-z
-x,1/2+y,1/2+z
x,1/2-y,1/2+z
1/2+x,y,1/2+z
1/2-x,-y,1/2+z
1/2+x,-y,1/2-z
1/2-x,y,1/2-z
1/2-x,-y,1/2-z
1/2+x,y,1/2-z
1/2-x,y,1/2+z
1/2+x,-y,1/2+z
1/2+x,1/2+y,z
1/2-x,1/2-y,z
1/2+x,1/2-y,-z
1/2-x,1/2+y,-z
1/2-x,1/2-y,-z
1/2+x,1/2+y,-z
1/2-x,1/2+y,z
1/2+x,1/2-y,z
loop_
_atom_site_type_symbol
_atom_site_label
_atom_site_fract_x
_atom_site_fract_y
_atom_site_fract_z
Si Si1 0.602959 0.894241 0.724819
Si Si2 0.571960 0.500000 0.929735
Si Si3 0.342851 0.689401 0.069754
Si Si4 0.243909 0.391690 0.661822
Si Si5 0.250000 0.250000 0.750000
Si Si6 0.427485 0.202636 0.843553
O O1 0.676785 0.894759 0.699616
O O2 0.589944 0.875706 0.793927
O O3 0.572824 0.803527 0.692063
O O4 0.578320 0.000000 0.709929
O O5 0.500000 0.500000 0.905618
O O6 0.611330 0.596666 0.917643
O O7 0.566429 0.500000 0.000000
O O8 0.276632 0.653645 0.100091
O O9 0.376920 0.777655 0.103641
O O10 0.337300 0.703648 0.000000
O O11 0.268448 0.500000 0.658101
O O12 0.283996 0.317888 0.701824
O O13 0.500000 0.185413 0.865897
#
# Coordination Sequence:
#
# PCOD9511478 Si02
#       6
#    32  16  32  32   8  32
#     4   9  18  33  50  69 100 139 173 212 261 309
#     4   9  16  26  44  71 100 134 170 197 231 285
#     4  10  19  33  50  71 104 140 170 208 258 308
#     4  10  20  35  54  77 103 132 167 210 266 321
#     4  12  22  36  58  82 102 124 166 218 264 322
#     4  10  19  28  44  75 105 135 178 216 251 299
#
# _framework density 23.078375999999999
#
# number of rings (size 3 to 8) (size 9 to 14) (size 15 to 20)
#    0.000    2.211    1.053    4.737    1.474    2.947 
#    0.000    0.526    0.000    0.632    0.000    1.474 
#    0.000    0.000    0.000    0.000    0.000    0.000 
#
# Total GULP energy -212001.970249 kJ/mol
# GULP energy per Si atom -5578.999217 kJ/mol
# Density = 2.302585 g / cm^3
# Si number density = 23.078376 Si / 1000 Ang^3
#
#
#
# Elastic Constant Matrix: (Units=GPa)
#
#
# Indices 1 2 3 4 5 6 
#
# 1 56.1929 7.1513 8.9065 0.0000 0.0000 0.0000
# 2 7.1513 93.0842 31.6370 0.0000 0.0000 0.0000
# 3 8.9065 31.6370 178.4156 0.0000 0.0000 0.0000
# 4 0.0000 0.0000 0.0000 36.2673 0.0000 0.0000
# 5 0.0000 0.0000 0.0000 0.0000 24.0643 0.0000
# 6 0.0000 0.0000 0.0000 0.0000 0.0000 11.4331
#
#
#
# Elastic Compliance Matrix: (Units=1/GPa)
#
#
# Indices 1 2 3 4 5 6 
#
# 1 0.018053 -0.001150 -0.000697 0.000000 0.000000 0.000000
# 2 -0.001150 0.011505 -0.001983 0.000000 0.000000 0.000000
# 3 -0.000697 -0.001983 0.005991 0.000000 0.000000 0.000000
# 4 0.000000 0.000000 0.000000 0.027573 0.000000 0.000000
# 5 0.000000 0.000000 0.000000 0.000000 0.041555 0.000000
# 6 0.000000 0.000000 0.000000 0.000000 0.000000 0.087466
#
#
# Mechanical properties :
#
#
# Convention : Reuss Voigt Hill
#
# Bulk Modulus (GPa) = 35.85603 47.00914 41.43258
# Shear Modulus (GPa) = 23.91206 33.01946 28.46576
#
# Velocity S-wave (km/s) = 3.22238 3.78663 3.51584
# Velocity P-wave (km/s) = 5.42359 6.28742 5.87141
#
# Compressibility (1/GPa) = 0.02788932
#
# Stress axis : x y z
#
# Youngs Moduli (GPa) = 55.39334 86.91732 166.90927
#
# Poissons Ratio (x) = 0.09995 0.11638
# Poissons Ratio (y) = 0.06370 0.33093
# Poissons Ratio (z) = 0.03862 0.17233
#
# Static dielectric constant tensor:
#      x y z
#    x 1.984640 0.000000 0.000000 
#    y 0.000000 1.932920 0.000000 
#    z 0.000000 0.000000 1.882450 
# 
# From -- ./inp_files/37789.got.cif
#   From: 2010.05.17/outbox.cif.g08.bks.cpg/sg69_19_cif.got.tgz:37789.got - 2010.06.03 19:29:58.
