data_PCOD9511764
_publ_section_title
;
Structure prediction by ZEFSAII (Michael W. Deem and Ramdas Pophale) SiO2 
 PCOD9511764
Probable space group: F M M M
;
_chemical_formula_sum "Si O2"
_cell_formula_units_Z 192
_cell_length_a 19.050029
_cell_length_b 25.993019
_cell_length_c 21.821413
_cell_angle_alpha 90.000000
_cell_angle_beta 90.000000
_cell_angle_gamma 90.000000
_cell_volume 10805.260321
_symmetry_space_group_name_H-M "F M M M"
_symmetry_group_IT_number 69
_symmetry_cell_setting 'orthorhombic'
loop_
_space_group_symop_operation_xyz
x,y,z
-x,-y,z
x,-y,-z
-x,y,-z
-x,-y,-z
x,y,-z
-x,y,z
x,-y,z
x,1/2+y,1/2+z
-x,1/2-y,1/2+z
x,1/2-y,1/2-z
-x,1/2+y,1/2-z
-x,1/2-y,1/2-z
x,1/2+y,1/2-z
-x,1/2+y,1/2+z
x,1/2-y,1/2+z
1/2+x,y,1/2+z
1/2-x,-y,1/2+z
1/2+x,-y,1/2-z
1/2-x,y,1/2-z
1/2-x,-y,1/2-z
1/2+x,y,1/2-z
1/2-x,y,1/2+z
1/2+x,-y,1/2+z
1/2+x,1/2+y,z
1/2-x,1/2-y,z
1/2+x,1/2-y,-z
1/2-x,1/2+y,-z
1/2-x,1/2-y,-z
1/2+x,1/2+y,-z
1/2-x,1/2+y,z
1/2+x,1/2-y,z
loop_
_atom_site_type_symbol
_atom_site_label
_atom_site_fract_x
_atom_site_fract_y
_atom_site_fract_z
Si Si1 0.585127 0.763421 0.929228
Si Si2 0.301948 0.059324 0.067870
Si Si3 0.417564 0.371741 0.379837
Si Si4 0.337042 0.559400 0.862994
Si Si5 0.418627 0.441207 0.261588
Si Si6 0.419201 0.349547 0.926288
O O1 0.500000 0.759667 0.930771
O O2 0.602546 0.811884 0.886866
O O3 0.609849 0.706953 0.908355
O O4 0.607480 0.772875 0.000000
O O5 0.367576 0.096126 0.076036
O O6 0.244546 0.067524 0.120921
O O7 0.324636 0.000000 0.071303
O O8 0.269451 0.067048 0.000000
O O9 0.500000 0.376055 0.396276
O O10 0.409116 0.398602 0.313771
O O11 0.352901 0.500000 0.881364
O O12 0.363487 0.564582 0.793348
O O13 0.377963 0.602213 0.900873
O O14 0.500000 0.437227 0.239084
O O15 0.411199 0.500000 0.286198
O O16 0.500000 0.353367 0.905594
O O17 0.418735 0.349868 0.000000
#
# Coordination Sequence:
#
# PCOD9511764 Si02
#       6
#    32  32  32  32  32  32
#     4   8  15  29  49  73 100 129 163 207 256 302
#     4  10  21  34  49  74 104 132 168 212 254 302
#     4  10  19  33  53  74  99 133 170 209 255 301
#     4  10  20  34  50  69 102 140 167 202 253 301
#     4   9  18  32  51  76 102 131 173 215 245 289
#     4   9  17  30  50  75 100 128 168 214 253 297
#
# _framework density 17.769123
#
# number of rings (size 3 to 8) (size 9 to 14) (size 15 to 20)
#    0.000    2.667    0.000    3.000    0.000    4.667 
#    0.000    5.833    0.000    7.000    0.000    2.333 
#    0.000    0.000    0.000    0.000    0.000    0.000 
#
# Total GULP energy -267350.470399 kJ/mol
# GULP energy per Si atom -5569.801467 kJ/mol
# Density = 1.772868 g / cm^3
# Si number density = 17.769123 Si / 1000 Ang^3
#
#
#
# Elastic Constant Matrix: (Units=GPa)
#
#
# Indices 1 2 3 4 5 6 
#
# 1 43.8855 51.1367 26.1487 0.0000 0.0000 0.0000
# 2 51.1367 141.2718 42.7181 0.0000 0.0000 0.0000
# 3 26.1487 42.7181 50.3178 0.0000 0.0000 0.0000
# 4 0.0000 0.0000 0.0000 37.0978 0.0000 0.0000
# 5 0.0000 0.0000 0.0000 0.0000 30.1767 0.0000
# 6 0.0000 0.0000 0.0000 0.0000 0.0000 11.7595
#
#
#
# Elastic Compliance Matrix: (Units=1/GPa)
#
#
# Indices 1 2 3 4 5 6 
#
# 1 0.044798 -0.012345 -0.012800 0.000000 0.000000 0.000000
# 2 -0.012345 0.012925 -0.004558 0.000000 0.000000 0.000000
# 3 -0.012800 -0.004558 0.030395 0.000000 0.000000 0.000000
# 4 0.000000 0.000000 0.000000 0.026956 0.000000 0.000000
# 5 0.000000 0.000000 0.000000 0.000000 0.033138 0.000000
# 6 0.000000 0.000000 0.000000 0.000000 0.000000 0.085037
#
#
# Mechanical properties :
#
#
# Convention : Reuss Voigt Hill
#
# Bulk Modulus (GPa) = 34.82742 52.83131 43.82936
# Shear Modulus (GPa) = 16.54390 23.50491 20.02440
#
# Velocity S-wave (km/s) = 3.05462 3.64097 3.36061
# Velocity P-wave (km/s) = 5.66422 6.89001 6.30697
#
# Compressibility (1/GPa) = 0.02871301
#
# Stress axis : x y z
#
# Youngs Moduli (GPa) = 22.32222 77.36668 32.90063
#
# Poissons Ratio (x) = 0.95513 0.42111
# Poissons Ratio (y) = 0.27558 0.14995
# Poissons Ratio (z) = 0.28571 0.35261
#
# Static dielectric constant tensor:
#      x y z
#    x 1.610570 0.000000 0.000000 
#    y 0.000000 1.615170 0.000000 
#    z 0.000000 0.000000 1.610120 
# 
# From -- ./inp_files/32020.got.cif
#   From: 2010.05.17/outbox.cif.g08.bks.cpg/sg69_17_cif.got.tgz:32020.got - 2010.06.03 19:29:58.
