data_PCOD9511674
_publ_section_title
;
Structure prediction by ZEFSAII (Michael W. Deem and Ramdas Pophale) SiO2 
 PCOD9511674
Probable space group: F M M M
;
_chemical_formula_sum "Si O2"
_cell_formula_units_Z 240
_cell_length_a 24.625502
_cell_length_b 24.734895
_cell_length_c 20.991454
_cell_angle_alpha 90.000000
_cell_angle_beta 90.000000
_cell_angle_gamma 90.000000
_cell_volume 12786.087885
_symmetry_space_group_name_H-M "F M M M"
_symmetry_group_IT_number 69
_symmetry_cell_setting 'orthorhombic'
loop_
_space_group_symop_operation_xyz
x,y,z
-x,-y,z
x,-y,-z
-x,y,-z
-x,-y,-z
x,y,-z
-x,y,z
x,-y,z
x,1/2+y,1/2+z
-x,1/2-y,1/2+z
x,1/2-y,1/2-z
-x,1/2+y,1/2-z
-x,1/2-y,1/2-z
x,1/2+y,1/2-z
-x,1/2+y,1/2+z
x,1/2-y,1/2+z
1/2+x,y,1/2+z
1/2-x,-y,1/2+z
1/2+x,-y,1/2-z
1/2-x,y,1/2-z
1/2-x,-y,1/2-z
1/2+x,y,1/2-z
1/2-x,y,1/2+z
1/2+x,-y,1/2+z
1/2+x,1/2+y,z
1/2-x,1/2-y,z
1/2+x,1/2-y,-z
1/2-x,1/2+y,-z
1/2-x,1/2-y,-z
1/2+x,1/2+y,-z
1/2-x,1/2+y,z
1/2+x,1/2-y,z
loop_
_atom_site_type_symbol
_atom_site_label
_atom_site_fract_x
_atom_site_fract_y
_atom_site_fract_z
Si Si1 0.808542 0.231754 0.373496
Si Si2 0.936770 0.562074 0.375089
Si Si3 0.764187 0.371936 0.927082
Si Si4 0.649658 0.654072 0.873401
Si Si5 0.112026 0.809415 0.264794
Si Si6 0.561623 0.566022 0.500000
Si Si7 0.559497 0.581963 0.275767
Si Si8 0.362398 0.939280 0.113699
O O1 0.750000 0.250000 0.344272
O O2 0.788980 0.188555 0.425107
O O3 0.841969 0.283965 0.398522
O O4 0.844973 0.201517 0.320872
O O5 0.921218 0.500000 0.393833
O O6 0.897830 0.612367 0.394745
O O7 0.935991 0.564534 0.297651
O O8 0.000000 0.570467 0.394230
O O9 0.706503 0.372630 0.892318
O O10 0.807250 0.407077 0.888925
O O11 0.759491 0.390086 0.000000
O O12 0.641274 0.666269 0.798152
O O13 0.089228 0.750000 0.250000
O O14 0.066846 0.853404 0.280440
O O15 0.559280 0.500000 0.500000
O O16 0.500000 0.585605 0.500000
O O17 0.595004 0.583627 0.562077
O O18 0.500000 0.565345 0.299543
O O19 0.607706 0.560416 0.318998
O O20 0.350313 0.000000 0.093361
#
# Coordination Sequence:
#
# PCOD9511674 Si02
#       8
#    32  32  32  32  32  16  32  32
#     4   9  18  33  53  76 105 138 177 217 263 318
#     4   9  18  35  57  82 112 141 172 215 269 326
#     4  11  22  36  54  77 108 142 179 225 269 315
#     4   9  20  33  55  83 104 138 179 214 267 326
#     4   9  17  32  51  78 108 136 172 215 262 318
#     4   9  18  32  50  68  91 134 187 223 249 296
#     4  10  19  32  52  77 107 141 177 215 258 312
#     4  11  21  34  50  73 105 141 181 220 262 305
#
# _framework density 18.770402000000001
#
# number of rings (size 3 to 8) (size 9 to 14) (size 15 to 20)
#    0.000    2.333    2.000    0.800    0.000   10.667 
#    0.000    2.000    0.000    2.800    0.000    0.933 
#    0.000    0.000    0.000    0.000    0.000    0.000 
#
# Total GULP energy -334057.037905 kJ/mol
# GULP energy per Si atom -5567.617298 kJ/mol
# Density = 1.872768 g / cm^3
# Si number density = 18.770402 Si / 1000 Ang^3
#
#
#
# Elastic Constant Matrix: (Units=GPa)
#
#
# Indices 1 2 3 4 5 6 
#
# 1 102.3532 54.5641 8.1330 0.0000 0.0000 0.0000
# 2 54.5641 103.7824 1.7700 0.0000 0.0000 0.0000
# 3 8.1330 1.7700 5.7343 0.0000 0.0000 0.0000
# 4 0.0000 0.0000 0.0000 11.8769 0.0000 0.0000
# 5 0.0000 0.0000 0.0000 0.0000 15.0085 0.0000
# 6 0.0000 0.0000 0.0000 0.0000 0.0000 5.1390
#
#
#
# Elastic Compliance Matrix: (Units=1/GPa)
#
#
# Indices 1 2 3 4 5 6 
#
# 1 0.015487 -0.007809 -0.019555 0.000000 0.000000 0.000000
# 2 -0.007809 0.013624 0.006870 0.000000 0.000000 0.000000
# 3 -0.019555 0.006870 0.200004 0.000000 0.000000 0.000000
# 4 0.000000 0.000000 0.000000 0.084197 0.000000 0.000000
# 5 0.000000 0.000000 0.000000 0.000000 0.066629 0.000000
# 6 0.000000 0.000000 0.000000 0.000000 0.000000 0.194590
#
#
# Mechanical properties :
#
#
# Convention : Reuss Voigt Hill
#
# Bulk Modulus (GPa) = 5.31555 37.86713 21.59134
# Shear Modulus (GPa) = 7.37217 16.23174 11.80196
#
# Velocity S-wave (km/s) = 1.98396 2.94386 2.51022
# Velocity P-wave (km/s) = 2.84361 5.63673 4.46424
#
# Compressibility (1/GPa) = 0.18812729
#
# Stress axis : x y z
#
# Youngs Moduli (GPa) = 64.57155 73.40075 4.99991
#
# Poissons Ratio (x) = 0.57316 0.09777
# Poissons Ratio (y) = 0.50422 -0.03435
# Poissons Ratio (z) = 1.26268 -0.50426
#
# Static dielectric constant tensor:
#      x y z
#    x 1.627900 0.000000 0.000000 
#    y 0.000000 1.701510 0.000000 
#    z 0.000000 0.000000 1.647510 
# 
# From -- ./inp_files/33041.got.cif
#   From: 2010.05.17/outbox.cif.g08.bks.cpg/sg69_17_cif.got.tgz:33041.got - 2010.06.03 19:29:58.
