data_PCOD9511488
_publ_section_title
;
Structure prediction by ZEFSAII (Michael W. Deem and Ramdas Pophale) SiO2 
 PCOD9511488
Probable space group: F M M M
;
_chemical_formula_sum "Si O2"
_cell_formula_units_Z 144
_cell_length_a 33.246050
_cell_length_b 14.818851
_cell_length_c 14.427509
_cell_angle_alpha 90.000000
_cell_angle_beta 90.000000
_cell_angle_gamma 90.000000
_cell_volume 7107.975774
_symmetry_space_group_name_H-M "F M M M"
_symmetry_group_IT_number 69
_symmetry_cell_setting 'orthorhombic'
loop_
_space_group_symop_operation_xyz
x,y,z
-x,-y,z
x,-y,-z
-x,y,-z
-x,-y,-z
x,y,-z
-x,y,z
x,-y,z
x,1/2+y,1/2+z
-x,1/2-y,1/2+z
x,1/2-y,1/2-z
-x,1/2+y,1/2-z
-x,1/2-y,1/2-z
x,1/2+y,1/2-z
-x,1/2+y,1/2+z
x,1/2-y,1/2+z
1/2+x,y,1/2+z
1/2-x,-y,1/2+z
1/2+x,-y,1/2-z
1/2-x,y,1/2-z
1/2-x,-y,1/2-z
1/2+x,y,1/2-z
1/2-x,y,1/2+z
1/2+x,-y,1/2+z
1/2+x,1/2+y,z
1/2-x,1/2-y,z
1/2+x,1/2-y,-z
1/2-x,1/2+y,-z
1/2-x,1/2-y,-z
1/2+x,1/2+y,-z
1/2-x,1/2+y,z
1/2+x,1/2-y,z
loop_
_atom_site_type_symbol
_atom_site_label
_atom_site_fract_x
_atom_site_fract_y
_atom_site_fract_z
Si Si1 0.129957 0.390813 0.698112
Si Si2 0.787652 0.317972 0.000000
Si Si3 0.210069 0.892992 0.701119
Si Si4 0.542962 0.891262 0.696332
Si Si5 0.543244 0.209631 0.500000
Si Si6 0.869051 0.205197 0.000000
O O1 0.130692 0.500000 0.695609
O O2 0.168133 0.358032 0.756751
O O3 0.086018 0.363561 0.738385
O O4 0.132806 0.354475 0.593361
O O5 0.750000 0.250000 0.000000
O O6 0.786212 0.375256 0.093057
O O7 0.830154 0.267087 0.000000
O O8 0.250000 0.855602 0.750000
O O9 0.209462 0.000000 0.718161
O O10 0.500000 0.863142 0.740222
O O11 0.543075 0.852237 0.592052
O O12 0.542937 0.000000 0.692403
O O13 0.500000 0.260070 0.500000
O O14 0.587292 0.254970 0.500000
#
# Coordination Sequence:
#
# PCOD9511488 Si02
#       6
#    32  16  32  32  16  16
#     4   9  17  30  49  74 105 139 171 204 245 294
#     4  12  25  38  55  78 102 129 161 202 249 294
#     4  10  22  40  59  76  97 128 164 202 245 295
#     4   8  12  19  36  65  98 130 165 205 246 285
#     4   8  13  22  37  61  98 138 169 197 237 292
#     4  10  19  29  48  78 108 137 167 205 250 294
#
# _framework density 20.258931
#
# number of rings (size 3 to 8) (size 9 to 14) (size 15 to 20)
#    0.000    2.667    0.000    2.333    0.000    7.111 
#    0.000    4.444    0.000    1.333    0.000    6.222 
#    0.000    6.222    0.000    0.000    0.000    0.000 
#
# Total GULP energy -200639.465859 kJ/mol
# GULP energy per Si atom -5573.318496 kJ/mol
# Density = 2.021282 g / cm^3
# Si number density = 20.258931 Si / 1000 Ang^3
#
#
#
# Elastic Constant Matrix: (Units=GPa)
#
#
# Indices 1 2 3 4 5 6 
#
# 1 237.5531 13.9505 53.0843 0.0000 0.0000 0.0000
# 2 13.9505 31.0650 -14.0467 0.0000 0.0000 0.0000
# 3 53.0843 -14.0467 75.8272 0.0000 0.0000 0.0000
# 4 0.0000 0.0000 0.0000 81.7815 0.0000 0.0000
# 5 0.0000 0.0000 0.0000 0.0000 25.9793 0.0000
# 6 0.0000 0.0000 0.0000 0.0000 0.0000 2.1385
#
#
#
# Elastic Compliance Matrix: (Units=1/GPa)
#
#
# Indices 1 2 3 4 5 6 
#
# 1 0.005540 -0.004629 -0.004736 0.000000 0.000000 0.000000
# 2 -0.004629 0.039002 0.010466 0.000000 0.000000 0.000000
# 3 -0.004736 0.010466 0.018442 0.000000 0.000000 0.000000
# 4 0.000000 0.000000 0.000000 0.012228 0.000000 0.000000
# 5 0.000000 0.000000 0.000000 0.000000 0.038492 0.000000
# 6 0.000000 0.000000 0.000000 0.000000 0.000000 0.467627
#
#
# Mechanical properties :
#
#
# Convention : Reuss Voigt Hill
#
# Bulk Modulus (GPa) = 15.34098 50.04683 32.69390
# Shear Modulus (GPa) = 8.32145 41.41033 24.86589
#
# Velocity S-wave (km/s) = 2.02891 4.52603 3.50723
# Velocity P-wave (km/s) = 3.61628 7.21598 5.70736
#
# Compressibility (1/GPa) = 0.06518490
#
# Stress axis : x y z
#
# Youngs Moduli (GPa) = 180.51585 25.63996 54.22430
#
# Poissons Ratio (x) = 0.11869 0.25679
# Poissons Ratio (y) = 0.83562 -0.56749
# Poissons Ratio (z) = 0.85487 -0.26834
#
# Static dielectric constant tensor:
#      x y z
#    x 1.824680 0.000000 0.000000 
#    y 0.000000 1.691130 0.000000 
#    z 0.000000 0.000000 1.679050 
# 
# From -- ./inp_files/19520.got.cif
#   From: 2010.05.17/outbox.cif.g08.bks.cpg/sg69_10_cif.got.tgz:19520.got - 2010.06.03 19:29:58.
