data_PCOD9511235
_publ_section_title
;
Structure prediction by ZEFSAII (Michael W. Deem and Ramdas Pophale) SiO2 
 PCOD9511235
Probable space group: F M M M
;
_chemical_formula_sum "Si O2"
_cell_formula_units_Z 192
_cell_length_a 30.011197
_cell_length_b 20.293537
_cell_length_c 14.613926
_cell_angle_alpha 90.000000
_cell_angle_beta 90.000000
_cell_angle_gamma 90.000000
_cell_volume 8900.368115
_symmetry_space_group_name_H-M "F M M M"
_symmetry_group_IT_number 69
_symmetry_cell_setting 'orthorhombic'
loop_
_space_group_symop_operation_xyz
x,y,z
-x,-y,z
x,-y,-z
-x,y,-z
-x,-y,-z
x,y,-z
-x,y,z
x,-y,z
x,1/2+y,1/2+z
-x,1/2-y,1/2+z
x,1/2-y,1/2-z
-x,1/2+y,1/2-z
-x,1/2-y,1/2-z
x,1/2+y,1/2-z
-x,1/2+y,1/2+z
x,1/2-y,1/2+z
1/2+x,y,1/2+z
1/2-x,-y,1/2+z
1/2+x,-y,1/2-z
1/2-x,y,1/2-z
1/2-x,-y,1/2-z
1/2+x,y,1/2-z
1/2-x,y,1/2+z
1/2+x,-y,1/2+z
1/2+x,1/2+y,z
1/2-x,1/2-y,z
1/2+x,1/2-y,-z
1/2-x,1/2+y,-z
1/2-x,1/2-y,-z
1/2+x,1/2+y,-z
1/2-x,1/2+y,z
1/2+x,1/2-y,z
loop_
_atom_site_type_symbol
_atom_site_label
_atom_site_fract_x
_atom_site_fract_y
_atom_site_fract_z
Si Si1 0.000000 0.125817 0.388936
Si Si2 0.171716 0.074172 0.891517
Si Si3 0.592989 0.429190 0.612088
Si Si4 0.752604 0.324585 0.858292
Si Si5 0.647620 0.309044 0.391998
Si Si6 0.599629 0.823816 0.612241
Si Si7 0.000000 0.779434 0.887879
O O1 0.957594 0.083699 0.362505
O O2 0.000000 0.202239 0.358445
O O3 0.000000 0.130408 0.500000
O O4 0.214359 0.123460 0.883162
O O5 0.126923 0.111228 0.858246
O O6 0.178894 0.000000 0.853673
O O7 0.165845 0.067379 0.000000
O O8 0.595987 0.428702 0.500000
O O9 0.609914 0.500000 0.642920
O O10 0.616924 0.365034 0.648441
O O11 0.750000 0.319441 0.750000
O O12 0.750000 0.250000 0.896924
O O13 0.803398 0.339148 0.881413
O O14 0.639313 0.304048 0.500000
O O15 0.632001 0.237326 0.358032
O O16 0.598685 0.824585 0.500000
O O17 0.547880 0.811563 0.640223
O O18 0.000000 0.780265 0.000000
#
# Coordination Sequence:
#
# PCOD9511235 Si02
#       7
#    16  32  32  32  32  32  16
#     4   9  13  20  35  61  99 140 171 198 247 304
#     4  10  21  37  57  80 106 139 179 222 269 317
#     4   9  16  24  37  64 102 137 170 209 251 301
#     4  11  23  37  55  80 106 138 175 219 268 323
#     4  10  18  30  51  75 102 140 179 214 257 310
#     4   9  16  28  48  75 106 137 171 213 259 310
#     4   9  14  23  43  73 105 136 170 209 258 314
#
# _framework density 21.572141999999999
#
# number of rings (size 3 to 8) (size 9 to 14) (size 15 to 20)
#    0.000    2.333    3.333    0.750    0.000    2.667 
#    0.000    2.083    0.000    2.500    0.000    3.500 
#    0.000    0.000    0.000    0.000    0.000    0.000 
#
# Total GULP energy -267389.361533 kJ/mol
# GULP energy per Si atom -5570.611699 kJ/mol
# Density = 2.152304 g / cm^3
# Si number density = 21.572142 Si / 1000 Ang^3
#
#
#
# Elastic Constant Matrix: (Units=GPa)
#
#
# Indices 1 2 3 4 5 6 
#
# 1 100.1907 55.8478 -5.1534 0.0000 0.0000 0.0000
# 2 55.8478 157.7869 6.0245 0.0000 0.0000 0.0000
# 3 -5.1534 6.0245 48.6258 0.0000 0.0000 0.0000
# 4 0.0000 0.0000 0.0000 -0.6735 0.0000 0.0000
# 5 0.0000 0.0000 0.0000 0.0000 -2.1522 0.0000
# 6 0.0000 0.0000 0.0000 0.0000 0.0000 -3.3252
#
#
#
# Elastic Compliance Matrix: (Units=1/GPa)
#
#
# Indices 1 2 3 4 5 6 
#
# 1 0.012606 -0.004534 0.001898 0.000000 0.000000 0.000000
# 2 -0.004534 0.007999 -0.001472 0.000000 0.000000 0.000000
# 3 0.001898 -0.001472 0.020949 0.000000 0.000000 0.000000
# 4 0.000000 0.000000 0.000000 -1.484830 0.000000 0.000000
# 5 0.000000 0.000000 0.000000 0.000000 -0.464649 0.000000
# 6 0.000000 0.000000 0.000000 0.000000 0.000000 -0.300731
#
#
# Mechanical properties :
#
#
# Convention : Reuss Voigt Hill
#
# Bulk Modulus (GPa) = 29.99644 46.67125 38.33385
# Shear Modulus (GPa) = -2.28381 15.42879 6.57249
#
# Velocity S-wave (km/s) = -1.03004 2.67726 1.74739
# Velocity P-wave (km/s) = 3.53846 5.58918 4.67758
#
# Compressibility (1/GPa) = 0.03333729
#
# Stress axis : x y z
#
# Youngs Moduli (GPa) = 79.32686 125.01967 47.73577
#
# Poissons Ratio (x) = 0.56688 -0.09059
# Poissons Ratio (y) = 0.35969 0.07025
# Poissons Ratio (z) = -0.15054 0.18397
#
# Static dielectric constant tensor:
#      x y z
#    x 2.142950 0.000000 0.000000 
#    y 0.000000 1.871130 0.000000 
#    z 0.000000 0.000000 1.813690 
# 
# From -- ./inp_files/23692.got.cif
#   From: 2010.05.17/outbox.cif.g08.bks.cpg/sg69_12_cif.got.tgz:23692.got - 2010.06.03 19:29:58.
