data_PCOD9511682
_publ_section_title
;
Structure prediction by ZEFSAII (Michael W. Deem and Ramdas Pophale) SiO2 
 PCOD9511682
Probable space group: F M M M
;
_chemical_formula_sum "Si O2"
_cell_formula_units_Z 192
_cell_length_a 33.529367
_cell_length_b 14.502658
_cell_length_c 19.529924
_cell_angle_alpha 90.000000
_cell_angle_beta 90.000000
_cell_angle_gamma 90.000000
_cell_volume 9496.717372
_symmetry_space_group_name_H-M "F M M M"
_symmetry_group_IT_number 69
_symmetry_cell_setting 'orthorhombic'
loop_
_space_group_symop_operation_xyz
x,y,z
-x,-y,z
x,-y,-z
-x,y,-z
-x,-y,-z
x,y,-z
-x,y,z
x,-y,z
x,1/2+y,1/2+z
-x,1/2-y,1/2+z
x,1/2-y,1/2-z
-x,1/2+y,1/2-z
-x,1/2-y,1/2-z
x,1/2+y,1/2-z
-x,1/2+y,1/2+z
x,1/2-y,1/2+z
1/2+x,y,1/2+z
1/2-x,-y,1/2+z
1/2+x,-y,1/2-z
1/2-x,y,1/2-z
1/2-x,-y,1/2-z
1/2+x,y,1/2-z
1/2-x,y,1/2+z
1/2+x,-y,1/2+z
1/2+x,1/2+y,z
1/2-x,1/2-y,z
1/2+x,1/2-y,-z
1/2-x,1/2+y,-z
1/2-x,1/2-y,-z
1/2+x,1/2+y,-z
1/2-x,1/2+y,z
1/2+x,1/2-y,z
loop_
_atom_site_type_symbol
_atom_site_label
_atom_site_fract_x
_atom_site_fract_y
_atom_site_fract_z
Si Si1 0.727517 0.389170 0.000000
Si Si2 0.838284 0.607598 0.610510
Si Si3 0.542972 0.139757 0.257581
Si Si4 0.044214 0.604716 0.902351
Si Si5 0.124248 0.704549 0.894883
Si Si6 0.370499 0.896083 0.752488
Si Si7 0.317950 0.110758 0.000000
O O1 0.701406 0.368268 0.932381
O O2 0.731479 0.500000 0.000000
O O3 0.772499 0.353290 0.000000
O O4 0.848156 0.500000 0.595050
O O5 0.869082 0.687968 0.591045
O O6 0.837549 0.614642 0.693378
O O7 0.500000 0.114473 0.289872
O O8 0.543530 0.250000 0.250000
O O9 0.542945 0.102387 0.180276
O O10 0.586010 0.110084 0.285003
O O11 0.051268 0.500000 0.925318
O O12 0.081035 0.669721 0.918730
O O13 0.000000 0.634643 0.924117
O O14 0.128887 0.676472 0.814535
O O15 0.158009 0.648803 0.935130
O O16 0.367338 0.000000 0.781583
O O17 0.318630 0.000000 0.000000
#
# Coordination Sequence:
#
# PCOD9511682 Si02
#       7
#    16  32  32  32  32  32  16
#     4   9  21  43  63  82 110 139 177 227 279 339
#     4  10  21  37  57  79 107 148 191 231 277 328
#     4   9  15  23  39  66 101 139 178 220 265 315
#     4   9  17  30  48  72 108 150 183 217 270 330
#     4  11  20  34  57  84 116 148 186 230 270 323
#     4  10  19  32  52  79 110 143 183 229 278 329
#     4  11  23  39  63  91 114 139 173 222 282 337
#
# _framework density 20.217511999999999
#
# number of rings (size 3 to 8) (size 9 to 14) (size 15 to 20)
#    0.000    2.167    0.000    6.000    0.000    2.333 
#    0.000    1.250    0.000    9.000    0.000    1.750 
#    0.000   10.667    0.000    0.000    0.000    0.000 
#
# Total GULP energy -267568.957283 kJ/mol
# GULP energy per Si atom -5574.353277 kJ/mol
# Density = 2.017150 g / cm^3
# Si number density = 20.217512 Si / 1000 Ang^3
#
#
#
# Elastic Constant Matrix: (Units=GPa)
#
#
# Indices 1 2 3 4 5 6 
#
# 1 164.9623 56.8465 54.3072 0.0000 0.0000 0.0000
# 2 56.8465 134.3685 15.4376 0.0000 0.0000 0.0000
# 3 54.3072 15.4376 88.2090 0.0000 0.0000 0.0000
# 4 0.0000 0.0000 0.0000 9.9624 0.0000 0.0000
# 5 0.0000 0.0000 0.0000 0.0000 21.6818 0.0000
# 6 0.0000 0.0000 0.0000 0.0000 0.0000 42.6563
#
#
#
# Elastic Compliance Matrix: (Units=1/GPa)
#
#
# Indices 1 2 3 4 5 6 
#
# 1 0.008733 -0.003140 -0.004827 0.000000 0.000000 0.000000
# 2 -0.003140 0.008724 0.000406 0.000000 0.000000 0.000000
# 3 -0.004827 0.000406 0.014238 0.000000 0.000000 0.000000
# 4 0.000000 0.000000 0.000000 0.100377 0.000000 0.000000
# 5 0.000000 0.000000 0.000000 0.000000 0.046122 0.000000
# 6 0.000000 0.000000 0.000000 0.000000 0.000000 0.023443
#
#
# Mechanical properties :
#
#
# Convention : Reuss Voigt Hill
#
# Bulk Modulus (GPa) = 60.33896 71.19138 65.76517
# Shear Modulus (GPa) = 22.49384 32.25666 27.37525
#
# Velocity S-wave (km/s) = 3.33917 3.99868 3.68372
# Velocity P-wave (km/s) = 6.69152 7.52386 7.11986
#
# Compressibility (1/GPa) = 0.01657304
#
# Stress axis : x y z
#
# Youngs Moduli (GPa) = 114.50491 114.62629 70.23698
#
# Poissons Ratio (x) = 0.35994 0.33905
# Poissons Ratio (y) = 0.35956 -0.02855
# Poissons Ratio (z) = 0.55274 -0.04659
#
# Static dielectric constant tensor:
#      x y z
#    x 1.738900 0.000000 0.000000 
#    y 0.000000 1.759830 0.000000 
#    z 0.000000 0.000000 1.753710 
# 
# From -- ./inp_files/38994.got.cif
#   From: 2010.05.17/outbox.cif.g08.bks.cpg/sg69_20_cif.got.tgz:38994.got - 2010.06.03 19:29:58.
