data_PCOD9511978
_publ_section_title
;
Structure prediction by ZEFSAII (Michael W. Deem and Ramdas Pophale) SiO2 
 PCOD9511978
Probable space group: F M M M
;
_chemical_formula_sum "Si O2"
_cell_formula_units_Z 96
_cell_length_a 28.517620
_cell_length_b 14.940169
_cell_length_c 10.672742
_cell_angle_alpha 90.000000
_cell_angle_beta 90.000000
_cell_angle_gamma 90.000000
_cell_volume 4547.207776
_symmetry_space_group_name_H-M "F M M M"
_symmetry_group_IT_number 69
_symmetry_cell_setting 'orthorhombic'
loop_
_space_group_symop_operation_xyz
x,y,z
-x,-y,z
x,-y,-z
-x,y,-z
-x,-y,-z
x,y,-z
-x,y,z
x,-y,z
x,1/2+y,1/2+z
-x,1/2-y,1/2+z
x,1/2-y,1/2-z
-x,1/2+y,1/2-z
-x,1/2-y,1/2-z
x,1/2+y,1/2-z
-x,1/2+y,1/2+z
x,1/2-y,1/2+z
1/2+x,y,1/2+z
1/2-x,-y,1/2+z
1/2+x,-y,1/2-z
1/2-x,y,1/2-z
1/2-x,-y,1/2-z
1/2+x,y,1/2-z
1/2-x,y,1/2+z
1/2+x,-y,1/2+z
1/2+x,1/2+y,z
1/2-x,1/2-y,z
1/2+x,1/2-y,-z
1/2-x,1/2+y,-z
1/2-x,1/2-y,-z
1/2+x,1/2+y,-z
1/2-x,1/2+y,z
1/2+x,1/2-y,z
loop_
_atom_site_type_symbol
_atom_site_label
_atom_site_fract_x
_atom_site_fract_y
_atom_site_fract_z
Si Si1 0.051078 0.108723 0.146456
Si Si2 0.282788 0.161914 0.500000
Si Si3 0.652873 0.109609 0.731933
Si Si4 0.314900 0.098871 0.000000
O O1 0.098725 0.136084 0.213470
O O2 0.000000 0.138672 0.195115
O O3 0.050790 0.000000 0.150010
O O4 0.054431 0.133902 0.000000
O O5 0.250000 0.250000 0.500000
O O6 0.314842 0.148507 0.378114
O O7 0.240861 0.090986 0.500000
O O8 0.656601 0.000000 0.723503
O O9 0.669618 0.140350 0.868700
O O10 0.337052 0.000000 0.000000
#
# Coordination Sequence:
#
# PCOD9511978 Si02
#       4
#    32  16  32  16
#     4   8  13  24  48  81 109 134 170 216 266 320
#     4  12  24  36  53  77 103 143 188 233 274 316
#     4  10  19  35  56  80 111 143 178 223 272 322
#     4  10  22  36  53  77 107 146 184 219 270 330
#
# _framework density 21.111857000000001
#
# number of rings (size 3 to 8) (size 9 to 14) (size 15 to 20)
#    0.000    2.333    1.667    3.500    0.000    5.333 
#    0.000    0.833    0.000    5.000    0.000    7.000 
#    0.000    0.000    0.000    0.000    0.000    2.667 
#
# Total GULP energy -133877.747387 kJ/mol
# GULP energy per Si atom -5578.239474 kJ/mol
# Density = 2.106381 g / cm^3
# Si number density = 21.111857 Si / 1000 Ang^3
#
#
#
# Elastic Constant Matrix: (Units=GPa)
#
#
# Indices 1 2 3 4 5 6 
#
# 1 230.5943 19.8570 121.5001 0.0000 0.0000 0.0000
# 2 19.8570 77.9369 20.0875 0.0000 0.0000 0.0000
# 3 121.5001 20.0875 191.6971 0.0000 0.0000 0.0000
# 4 0.0000 0.0000 0.0000 -4.7680 0.0000 0.0000
# 5 0.0000 0.0000 0.0000 0.0000 -9.2316 0.0000
# 6 0.0000 0.0000 0.0000 0.0000 0.0000 0.0518
#
#
#
# Elastic Compliance Matrix: (Units=1/GPa)
#
#
# Indices 1 2 3 4 5 6 
#
# 1 0.006540 -0.000614 -0.004080 0.000000 0.000000 0.000000
# 2 -0.000614 0.013245 -0.000998 0.000000 0.000000 0.000000
# 3 -0.004080 -0.000998 0.007907 0.000000 0.000000 0.000000
# 4 0.000000 0.000000 0.000000 -0.209731 0.000000 0.000000
# 5 0.000000 0.000000 0.000000 0.000000 -0.108323 0.000000
# 6 0.000000 0.000000 0.000000 0.000000 0.000000 19.299631
#
#
# Mechanical properties :
#
#
# Convention : Reuss Voigt Hill
#
# Bulk Modulus (GPa) = 61.33073 91.45751 76.39412
# Shear Modulus (GPa) = 0.26280 19.79601 10.02940
#
# Velocity S-wave (km/s) = 0.35320 3.06547 2.18195
# Velocity P-wave (km/s) = 5.41108 7.47957 6.52778
#
# Compressibility (1/GPa) = 0.01630504
#
# Stress axis : x y z
#
# Youngs Moduli (GPa) = 152.91652 75.50142 126.46342
#
# Poissons Ratio (x) = 0.04639 0.51603
# Poissons Ratio (y) = 0.09396 0.12627
# Poissons Ratio (z) = 0.62397 0.07538
#
# Static dielectric constant tensor:
#      x y z
#    x 1.745390 0.000000 0.000000 
#    y 0.000000 1.937770 0.000000 
#    z 0.000000 0.000000 1.724940 
# 
# From -- ./inp_files/8128.got.cif
#   From: 2010.05.17/outbox.cif.g08.bks.cpg/sg69_5_cif.got.tgz:8128.got - 2010.06.03 19:29:58.
