data_PCOD9511301
_publ_section_title
;
Structure prediction by ZEFSAII (Michael W. Deem and Ramdas Pophale) SiO2 
 PCOD9511301
Probable space group: F M M M
;
_chemical_formula_sum "Si O2"
_cell_formula_units_Z 160
_cell_length_a 16.209643
_cell_length_b 30.757219
_cell_length_c 15.167957
_cell_angle_alpha 90.000000
_cell_angle_beta 90.000000
_cell_angle_gamma 90.000000
_cell_volume 7562.190331
_symmetry_space_group_name_H-M "F M M M"
_symmetry_group_IT_number 69
_symmetry_cell_setting 'orthorhombic'
loop_
_space_group_symop_operation_xyz
x,y,z
-x,-y,z
x,-y,-z
-x,y,-z
-x,-y,-z
x,y,-z
-x,y,z
x,-y,z
x,1/2+y,1/2+z
-x,1/2-y,1/2+z
x,1/2-y,1/2-z
-x,1/2+y,1/2-z
-x,1/2-y,1/2-z
x,1/2+y,1/2-z
-x,1/2+y,1/2+z
x,1/2-y,1/2+z
1/2+x,y,1/2+z
1/2-x,-y,1/2+z
1/2+x,-y,1/2-z
1/2-x,y,1/2-z
1/2-x,-y,1/2-z
1/2+x,y,1/2-z
1/2-x,y,1/2+z
1/2+x,-y,1/2+z
1/2+x,1/2+y,z
1/2-x,1/2-y,z
1/2+x,1/2-y,-z
1/2-x,1/2+y,-z
1/2-x,1/2-y,-z
1/2+x,1/2+y,-z
1/2-x,1/2+y,z
1/2+x,1/2-y,z
loop_
_atom_site_type_symbol
_atom_site_label
_atom_site_fract_x
_atom_site_fract_y
_atom_site_fract_z
Si Si1 0.822664 0.547864 0.675708
Si Si2 0.000000 0.367264 0.893055
Si Si3 0.903962 0.712525 0.394754
Si Si4 0.207246 0.858561 0.154509
Si Si5 0.500000 0.049334 0.226817
Si Si6 0.644020 0.695767 0.399460
O O1 0.820823 0.500000 0.632063
O O2 0.750000 0.546551 0.750000
O O3 0.804815 0.592136 0.622713
O O4 0.914194 0.553296 0.718272
O O5 0.000000 0.413672 0.846746
O O6 0.921444 0.338803 0.864140
O O7 0.000000 0.372494 0.000000
O O8 0.890444 0.705416 0.500000
O O9 0.876063 0.669030 0.345796
O O10 0.856829 0.755778 0.361550
O O11 0.000000 0.721649 0.381771
O O12 0.250000 0.860586 0.250000
O O13 0.269039 0.827925 0.100899
O O14 0.500000 0.000000 0.190571
O O15 0.616431 0.703332 0.500000
#
# Coordination Sequence:
#
# PCOD9511301 Si02
#       6
#    32  16  32  32  16  32
#     4   9  19  36  56  78 109 146 183 224 275 344
#     4  10  18  31  53  77 105 138 183 233 271 319
#     4  10  21  39  59  79 110 156 197 227 271 340
#     4  11  22  35  55  86 113 141 187 237 286 324
#     4  10  20  35  55  77 108 149 181 219 285 342
#     4  10  20  37  56  77 109 152 190 220 271 339
#
# _framework density 21.157892
#
# number of rings (size 3 to 8) (size 9 to 14) (size 15 to 20)
#    0.000    2.000    1.000    3.600    1.400    3.400 
#    1.800    1.000    0.000    3.600    0.000    1.400 
#    0.000    0.000    0.000    0.000    0.000    0.000 
#
# Total GULP energy -223073.747535 kJ/mol
# GULP energy per Si atom -5576.843688 kJ/mol
# Density = 2.110974 g / cm^3
# Si number density = 21.157892 Si / 1000 Ang^3
#
#
#
# Elastic Constant Matrix: (Units=GPa)
#
#
# Indices 1 2 3 4 5 6 
#
# 1 99.8110 25.6194 1.6725 0.0000 0.0000 0.0000
# 2 25.6194 206.9171 20.8433 0.0000 0.0000 0.0000
# 3 1.6725 20.8433 36.0508 0.0000 0.0000 0.0000
# 4 0.0000 0.0000 0.0000 21.0680 0.0000 0.0000
# 5 0.0000 0.0000 0.0000 0.0000 19.5599 0.0000
# 6 0.0000 0.0000 0.0000 0.0000 0.0000 42.8942
#
#
#
# Elastic Compliance Matrix: (Units=1/GPa)
#
#
# Indices 1 2 3 4 5 6 
#
# 1 0.010350 -0.001309 0.000277 0.000000 0.000000 0.000000
# 2 -0.001309 0.005297 -0.003002 0.000000 0.000000 0.000000
# 3 0.000277 -0.003002 0.029461 0.000000 0.000000 0.000000
# 4 0.000000 0.000000 0.000000 0.047465 0.000000 0.000000
# 5 0.000000 0.000000 0.000000 0.000000 0.051125 0.000000
# 6 0.000000 0.000000 0.000000 0.000000 0.000000 0.023313
#
#
# Mechanical properties :
#
#
# Convention : Reuss Voigt Hill
#
# Bulk Modulus (GPa) = 26.99777 48.78326 37.89051
# Shear Modulus (GPa) = 26.67681 36.34731 31.51206
#
# Velocity S-wave (km/s) = 3.55469 4.14926 3.86343
# Velocity P-wave (km/s) = 5.44386 6.78690 6.15214
#
# Compressibility (1/GPa) = 0.03704010
#
# Stress axis : x y z
#
# Youngs Moduli (GPa) = 96.61459 188.77252 33.94267
#
# Poissons Ratio (x) = 0.24718 -0.00940
# Poissons Ratio (y) = 0.12651 0.10190
# Poissons Ratio (z) = -0.02675 0.56670
#
# Static dielectric constant tensor:
#      x y z
#    x 1.869720 0.000000 0.000000 
#    y 0.000000 1.782530 0.000000 
#    z 0.000000 0.000000 1.781080 
# 
# From -- ./inp_files/15664.got.cif
#   From: 2010.05.17/outbox.cif.g08.bks.cpg/sg69_8_cif.got.tgz:15664.got - 2010.06.03 19:29:58.
