data_PCOD9511388
_publ_section_title
;
Structure prediction by ZEFSAII (Michael W. Deem and Ramdas Pophale) SiO2 
 PCOD9511388
Probable space group: F M M M
;
_chemical_formula_sum "Si O2"
_cell_formula_units_Z 208
_cell_length_a 23.610795
_cell_length_b 25.735015
_cell_length_c 16.116356
_cell_angle_alpha 90.000000
_cell_angle_beta 90.000000
_cell_angle_gamma 90.000000
_cell_volume 9792.687333
_symmetry_space_group_name_H-M "F M M M"
_symmetry_group_IT_number 69
_symmetry_cell_setting 'orthorhombic'
loop_
_space_group_symop_operation_xyz
x,y,z
-x,-y,z
x,-y,-z
-x,y,-z
-x,-y,-z
x,y,-z
-x,y,z
x,-y,z
x,1/2+y,1/2+z
-x,1/2-y,1/2+z
x,1/2-y,1/2-z
-x,1/2+y,1/2-z
-x,1/2-y,1/2-z
x,1/2+y,1/2-z
-x,1/2+y,1/2+z
x,1/2-y,1/2+z
1/2+x,y,1/2+z
1/2-x,-y,1/2+z
1/2+x,-y,1/2-z
1/2-x,y,1/2-z
1/2-x,-y,1/2-z
1/2+x,y,1/2-z
1/2-x,y,1/2+z
1/2+x,-y,1/2+z
1/2+x,1/2+y,z
1/2-x,1/2-y,z
1/2+x,1/2-y,-z
1/2-x,1/2+y,-z
1/2-x,1/2-y,-z
1/2+x,1/2+y,-z
1/2-x,1/2+y,z
1/2+x,1/2-y,z
loop_
_atom_site_type_symbol
_atom_site_label
_atom_site_fract_x
_atom_site_fract_y
_atom_site_fract_z
Si Si1 0.068494 0.557838 0.000000
Si Si2 0.933844 0.108002 0.672002
Si Si3 0.064085 0.678387 0.399922
Si Si4 0.387120 0.291282 0.399789
Si Si5 0.773704 0.837519 0.662695
Si Si6 0.169178 0.441659 0.761501
Si Si7 0.829817 0.892525 0.094756
O O1 0.084985 0.587278 0.081756
O O2 0.091387 0.500000 0.000000
O O3 0.000000 0.555631 0.000000
O O4 0.919276 0.168494 0.661468
O O5 0.897058 0.071905 0.730833
O O6 0.000000 0.100580 0.684094
O O7 0.059977 0.677911 0.500000
O O8 0.090225 0.734288 0.378412
O O9 0.111261 0.635461 0.380502
O O10 0.000000 0.670753 0.366865
O O11 0.397435 0.299363 0.500000
O O12 0.321319 0.302247 0.379579
O O13 0.750000 0.816036 0.750000
O O14 0.802135 0.893438 0.689121
O O15 0.720529 0.850433 0.604710
O O16 0.181912 0.500000 0.790252
O O17 0.183561 0.434934 0.664656
O O18 0.832852 0.910534 0.000000
#
# Coordination Sequence:
#
# PCOD9511388 Si02
#       7
#    16  32  32  32  32  32  32
#     4   9  16  26  44  72 108 149 188 220 256 321
#     4  10  19  32  52  82 119 155 188 226 276 338
#     4   9  19  35  57  85 115 147 186 233 284 331
#     4  10  18  32  57  86 115 150 190 232 277 332
#     4   9  20  37  56  81 114 149 184 229 284 341
#     4  10  22  39  58  82 114 149 187 237 292 341
#     4  10  21  39  61  83 109 146 193 241 284 333
#
# _framework density 21.240338999999999
#
# number of rings (size 3 to 8) (size 9 to 14) (size 15 to 20)
#    0.000    2.385    0.769    1.385    0.000    5.846 
#    0.000   11.538    0.000    9.231    0.000    3.231 
#    0.000    0.000    0.000    0.000    0.000    0.000 
#
# Total GULP energy -290058.026072 kJ/mol
# GULP energy per Si atom -5578.038963 kJ/mol
# Density = 2.119199 g / cm^3
# Si number density = 21.240339 Si / 1000 Ang^3
#
#
#
# Elastic Constant Matrix: (Units=GPa)
#
#
# Indices 1 2 3 4 5 6 
#
# 1 121.1779 5.9925 7.5595 0.0000 0.0000 0.0000
# 2 5.9925 52.8011 10.5817 0.0000 0.0000 0.0000
# 3 7.5595 10.5817 51.0843 0.0000 0.0000 0.0000
# 4 0.0000 0.0000 0.0000 17.7012 0.0000 0.0000
# 5 0.0000 0.0000 0.0000 0.0000 -147.4932 0.0000
# 6 0.0000 0.0000 0.0000 0.0000 0.0000 7.5999
#
#
#
# Elastic Compliance Matrix: (Units=1/GPa)
#
#
# Indices 1 2 3 4 5 6 
#
# 1 0.008356 -0.000731 -0.001085 0.000000 0.000000 0.000000
# 2 -0.000731 0.019823 -0.003998 0.000000 0.000000 0.000000
# 3 -0.001085 -0.003998 0.020564 0.000000 0.000000 0.000000
# 4 0.000000 0.000000 0.000000 0.056493 0.000000 0.000000
# 5 0.000000 0.000000 0.000000 0.000000 -0.006780 0.000000
# 6 0.000000 0.000000 0.000000 0.000000 0.000000 0.131581
#
#
# Mechanical properties :
#
#
# Convention : Reuss Voigt Hill
#
# Bulk Modulus (GPa) = 26.94301 30.37010 28.65655
# Shear Modulus (GPa) = 19.68212 -11.04312 4.31950
#
# Velocity S-wave (km/s) = 3.04738 -2.28263 1.42760
# Velocity P-wave (km/s) = 5.00943 2.71701 4.02967
#
# Compressibility (1/GPa) = 0.03711538
#
# Stress axis : x y z
#
# Youngs Moduli (GPa) = 119.67208 50.44597 48.62808
#
# Poissons Ratio (x) = 0.03687 0.05277
# Poissons Ratio (y) = 0.08747 0.19442
# Poissons Ratio (z) = 0.12986 0.20169
#
# Static dielectric constant tensor:
#      x y z
#    x 1.796900 0.000000 0.000000 
#    y 0.000000 1.767200 0.000000 
#    z 0.000000 0.000000 1.793700 
# 
# From -- ./inp_files/26108.got.cif
#   From: 2010.05.17/outbox.cif.g08.bks.cpg/sg69_14_cif.got.tgz:26108.got - 2010.06.03 19:29:58.
