data_PCOD9511583
_publ_section_title
;
Structure prediction by ZEFSAII (Michael W. Deem and Ramdas Pophale) SiO2 
 PCOD9511583
Probable space group: F M M M
;
_chemical_formula_sum "Si O2"
_cell_formula_units_Z 208
_cell_length_a 20.822528
_cell_length_b 29.789141
_cell_length_c 14.358209
_cell_angle_alpha 90.000000
_cell_angle_beta 90.000000
_cell_angle_gamma 90.000000
_cell_volume 8906.184865
_symmetry_space_group_name_H-M "F M M M"
_symmetry_group_IT_number 69
_symmetry_cell_setting 'orthorhombic'
loop_
_space_group_symop_operation_xyz
x,y,z
-x,-y,z
x,-y,-z
-x,y,-z
-x,-y,-z
x,y,-z
-x,y,z
x,-y,z
x,1/2+y,1/2+z
-x,1/2-y,1/2+z
x,1/2-y,1/2-z
-x,1/2+y,1/2-z
-x,1/2-y,1/2-z
x,1/2+y,1/2-z
-x,1/2+y,1/2+z
x,1/2-y,1/2+z
1/2+x,y,1/2+z
1/2-x,-y,1/2+z
1/2+x,-y,1/2-z
1/2-x,y,1/2-z
1/2-x,-y,1/2-z
1/2+x,y,1/2-z
1/2-x,y,1/2+z
1/2+x,-y,1/2+z
1/2+x,1/2+y,z
1/2-x,1/2-y,z
1/2+x,1/2-y,-z
1/2-x,1/2+y,-z
1/2-x,1/2-y,-z
1/2+x,1/2+y,-z
1/2-x,1/2+y,z
1/2+x,1/2-y,z
loop_
_atom_site_type_symbol
_atom_site_label
_atom_site_fract_x
_atom_site_fract_y
_atom_site_fract_z
Si Si1 0.428680 0.325892 0.895890
Si Si2 0.139225 0.550406 0.386780
Si Si3 0.705402 0.862737 0.613219
Si Si4 0.925274 0.051179 0.386152
Si Si5 0.425632 0.727653 0.656282
Si Si6 0.347735 0.861077 0.888581
Si Si7 0.000000 0.445882 0.389522
O O1 0.500000 0.336216 0.854925
O O2 0.361028 0.340531 0.851248
O O3 0.425394 0.272118 0.905719
O O4 0.429360 0.345791 0.000000
O O5 0.134753 0.548494 0.500000
O O6 0.149699 0.500000 0.353802
O O7 0.195086 0.584810 0.366633
O O8 0.069545 0.568350 0.353065
O O9 0.705015 0.855196 0.500000
O O10 0.776054 0.850870 0.647536
O O11 0.924514 0.051600 0.500000
O O12 0.880832 0.092661 0.354173
O O13 0.000000 0.058046 0.358366
O O14 0.906820 0.000000 0.358222
O O15 0.500000 0.715366 0.670889
O O16 0.398894 0.750000 0.750000
O O17 0.389919 0.683211 0.626335
O O18 0.341818 0.867450 0.000000
O O19 0.000000 0.500000 0.379501
O O20 0.000000 0.437139 0.500000
#
# Coordination Sequence:
#
# PCOD9511583 Si02
#       7
#    32  32  32  32  32  32  16
#     4   9  18  33  52  72  96 128 165 208 259 309
#     4   8  13  21  34  56  90 130 169 207 248 296
#     4   9  18  28  41  67  99 133 170 206 249 302
#     4   8  14  25  43  70 103 137 172 207 243 291
#     4  10  21  37  56  76  96 123 166 217 262 308
#     4  10  19  31  49  75 109 143 172 207 257 314
#     4   7  10  16  28  48  76 116 163 206 246 286
#
# _framework density 23.354557
#
# number of rings (size 3 to 8) (size 9 to 14) (size 15 to 20)
#    0.000    3.154    0.000    2.308    1.077    2.769 
#    0.000    6.923    0.000    0.000    0.000    1.077 
#    0.000    6.154    0.000    0.154    0.000    0.154 
#
# Total GULP energy -289992.302186 kJ/mol
# GULP energy per Si atom -5576.775042 kJ/mol
# Density = 2.330140 g / cm^3
# Si number density = 23.354557 Si / 1000 Ang^3
#
#
#
# Elastic Constant Matrix: (Units=GPa)
#
#
# Indices 1 2 3 4 5 6 
#
# 1 154.5032 84.5684 -0.4513 0.0000 0.0000 0.0000
# 2 84.5684 123.1349 -6.7505 0.0000 0.0000 0.0000
# 3 -0.4513 -6.7505 49.8641 0.0000 0.0000 0.0000
# 4 0.0000 0.0000 0.0000 -45.9626 0.0000 0.0000
# 5 0.0000 0.0000 0.0000 0.0000 11.8080 0.0000
# 6 0.0000 0.0000 0.0000 0.0000 0.0000 15.9333
#
#
#
# Elastic Compliance Matrix: (Units=1/GPa)
#
#
# Indices 1 2 3 4 5 6 
#
# 1 0.010409 -0.007197 -0.000880 0.000000 0.000000 0.000000
# 2 -0.007197 0.013158 0.001716 0.000000 0.000000 0.000000
# 3 -0.000880 0.001716 0.020279 0.000000 0.000000 0.000000
# 4 0.000000 0.000000 0.000000 -0.021757 0.000000 0.000000
# 5 0.000000 0.000000 0.000000 0.000000 0.084688 0.000000
# 6 0.000000 0.000000 0.000000 0.000000 0.000000 0.062761
#
#
# Mechanical properties :
#
#
# Convention : Reuss Voigt Hill
#
# Bulk Modulus (GPa) = 32.12952 53.58171 42.85562
# Shear Modulus (GPa) = 25.95560 13.03146 19.49353
#
# Velocity S-wave (km/s) = 3.33734 2.36473 2.89221
# Velocity P-wave (km/s) = 5.35141 5.51801 5.43535
#
# Compressibility (1/GPa) = 0.03112402
#
# Stress axis : x y z
#
# Youngs Moduli (GPa) = 96.06825 75.99755 49.31239
#
# Poissons Ratio (x) = 0.54698 0.04340
# Poissons Ratio (y) = 0.69143 -0.08463
# Poissons Ratio (z) = 0.08455 -0.13043
#
# Static dielectric constant tensor:
#      x y z
#    x 1.867540 0.000000 0.000000 
#    y 0.000000 1.875470 0.000000 
#    z 0.000000 0.000000 2.071130 
# 
# From -- ./inp_files/25154.got.cif
#   From: 2010.05.17/outbox.cif.g08.bks.cpg/sg69_13_cif.got.tgz:25154.got - 2010.06.03 19:29:58.
