data_PCOD9511110
_publ_section_title
;
Structure prediction by ZEFSAII (Michael W. Deem and Ramdas Pophale) SiO2 
 PCOD9511110
Probable space group: F M M M
;
_chemical_formula_sum "Si O2"
_cell_formula_units_Z 160
_cell_length_a 30.920632
_cell_length_b 7.397530
_cell_length_c 31.465335
_cell_angle_alpha 90.000000
_cell_angle_beta 90.000000
_cell_angle_gamma 90.000000
_cell_volume 7197.264395
_symmetry_space_group_name_H-M "F M M M"
_symmetry_group_IT_number 69
_symmetry_cell_setting 'orthorhombic'
loop_
_space_group_symop_operation_xyz
x,y,z
-x,-y,z
x,-y,-z
-x,y,-z
-x,-y,-z
x,y,-z
-x,y,z
x,-y,z
x,1/2+y,1/2+z
-x,1/2-y,1/2+z
x,1/2-y,1/2-z
-x,1/2+y,1/2-z
-x,1/2-y,1/2-z
x,1/2+y,1/2-z
-x,1/2+y,1/2+z
x,1/2-y,1/2+z
1/2+x,y,1/2+z
1/2-x,-y,1/2+z
1/2+x,-y,1/2-z
1/2-x,y,1/2-z
1/2-x,-y,1/2-z
1/2+x,y,1/2-z
1/2-x,y,1/2+z
1/2+x,-y,1/2+z
1/2+x,1/2+y,z
1/2-x,1/2-y,z
1/2+x,1/2-y,-z
1/2-x,1/2+y,-z
1/2-x,1/2-y,-z
1/2+x,1/2+y,-z
1/2-x,1/2+y,z
1/2+x,1/2-y,z
loop_
_atom_site_type_symbol
_atom_site_label
_atom_site_fract_x
_atom_site_fract_y
_atom_site_fract_z
Si Si1 0.426268 0.783529 0.614946
Si Si2 0.800353 0.784548 0.000000
Si Si3 0.297852 0.715912 0.179671
Si Si4 0.672608 0.717433 0.909484
Si Si5 0.500000 0.221407 0.450220
Si Si6 0.893702 0.284104 0.702780
O O1 0.377464 0.751995 0.599987
O O2 0.459304 0.718998 0.578879
O O3 0.423763 0.716631 0.663912
O O4 0.434020 0.000000 0.616939
O O5 0.750000 0.750000 0.000000
O O6 0.817198 0.709448 0.955669
O O7 0.809875 0.000000 0.000000
O O8 0.301630 0.500000 0.179484
O O9 0.250000 0.750000 0.197891
O O10 0.300113 0.784117 0.130821
O O11 0.343397 0.783339 0.199636
O O12 0.679377 0.500000 0.910604
O O13 0.500000 0.279390 0.500000
O O14 0.500000 0.000000 0.452043
O O15 0.891339 0.500000 0.696892
O O16 0.910110 0.250000 0.750000
#
# Coordination Sequence:
#
# PCOD9511110 Si02
#       6
#    32  16  32  32  16  32
#     4   8  15  28  43  65  97 125 148 185 235 279
#     4  10  18  26  40  61  85 117 155 190 220 262
#     4   9  17  29  43  61  87 120 155 193 234 271
#     4   8  15  26  40  57  84 121 153 181 225 277
#     4   9  16  24  43  74 103 125 149 185 230 281
#     4   9  18  32  48  65  92 127 158 191 234 280
#
# _framework density 22.230668999999999
#
# number of rings (size 3 to 8) (size 9 to 14) (size 15 to 20)
#    0.000    3.300    0.000    3.000    1.400    1.200 
#    0.000    2.500    0.000    1.200    0.000    0.000 
#    0.000    0.800    0.000    0.000    0.000    0.000 
#
# Total GULP energy -222832.589941 kJ/mol
# GULP energy per Si atom -5570.814749 kJ/mol
# Density = 2.218007 g / cm^3
# Si number density = 22.230669 Si / 1000 Ang^3
#
#
#
# Elastic Constant Matrix: (Units=GPa)
#
#
# Indices 1 2 3 4 5 6 
#
# 1 41.4882 3.1055 56.1256 -0.0025 0.0004 0.0024
# 2 3.1055 74.4942 2.7280 -0.0067 0.0009 0.0016
# 3 56.1256 2.7280 215.4051 -0.0002 0.0000 0.0001
# 4 -0.0025 -0.0067 -0.0002 41.8080 0.0004 0.0037
# 5 0.0004 0.0009 0.0000 0.0004 6.0295 -0.0007
# 6 0.0024 0.0016 0.0001 0.0037 -0.0007 -1.0368
#
#
#
# Elastic Compliance Matrix: (Units=1/GPa)
#
#
# Indices 1 2 3 4 5 6 
#
# 1 0.037331 -0.001201 -0.009712 0.000002 -0.000003 0.000082
# 2 -0.001201 0.013469 0.000142 0.000002 -0.000002 0.000018
# 3 -0.009712 0.000142 0.007171 -0.000001 0.000001 -0.000021
# 4 0.000002 0.000002 -0.000001 0.023919 -0.000002 0.000085
# 5 -0.000003 -0.000002 0.000001 -0.000002 0.165852 -0.000104
# 6 0.000082 0.000018 -0.000021 0.000085 -0.000104 -0.964517
#
#
# Mechanical properties :
#
#
# Convention : Reuss Voigt Hill
#
# Bulk Modulus (GPa) = 27.44930 50.58951 39.01941
# Shear Modulus (GPa) = -7.31966 27.32205 10.00119
#
# Velocity S-wave (km/s) = -1.81652 3.50955 2.12335
# Velocity P-wave (km/s) = 2.82394 6.26327 4.85815
#
# Compressibility (1/GPa) = 0.03643080
#
# Stress axis : x y z
#
# Youngs Moduli (GPa) = 26.78725 74.24624 139.44888
#
# Poissons Ratio (x) = 0.08914 1.35429
# Poissons Ratio (y) = 0.03216 -0.01984
# Poissons Ratio (z) = 0.26015 -0.01056
#
# Static dielectric constant tensor:
#      x y z
#    x 1.808310 0.000000 0.000000 
#    y 0.000000 1.931180 0.000000 
#    z 0.000000 0.000000 1.863960 
# 
# From -- ./inp_files/47257.got.cif
#   From: 2010.05.17/outbox.cif.g08.bks.cpg/sg69_24_cif.got.tgz:47257.got - 2010.06.03 19:29:58.
