data_PCOD9511309
_publ_section_title
;
Structure prediction by ZEFSAII (Michael W. Deem and Ramdas Pophale) SiO2 
 PCOD9511309
Probable space group: F M M M
;
_chemical_formula_sum "Si O2"
_cell_formula_units_Z 208
_cell_length_a 16.467071
_cell_length_b 26.949725
_cell_length_c 27.523317
_cell_angle_alpha 90.000000
_cell_angle_beta 90.000000
_cell_angle_gamma 90.000000
_cell_volume 12214.381152
_symmetry_space_group_name_H-M "F M M M"
_symmetry_group_IT_number 69
_symmetry_cell_setting 'orthorhombic'
loop_
_space_group_symop_operation_xyz
x,y,z
-x,-y,z
x,-y,-z
-x,y,-z
-x,-y,-z
x,y,-z
-x,y,z
x,-y,z
x,1/2+y,1/2+z
-x,1/2-y,1/2+z
x,1/2-y,1/2-z
-x,1/2+y,1/2-z
-x,1/2-y,1/2-z
x,1/2+y,1/2-z
-x,1/2+y,1/2+z
x,1/2-y,1/2+z
1/2+x,y,1/2+z
1/2-x,-y,1/2+z
1/2+x,-y,1/2-z
1/2-x,y,1/2-z
1/2-x,-y,1/2-z
1/2+x,y,1/2-z
1/2-x,y,1/2+z
1/2+x,-y,1/2+z
1/2+x,1/2+y,z
1/2-x,1/2-y,z
1/2+x,1/2-y,-z
1/2-x,1/2+y,-z
1/2-x,1/2-y,-z
1/2+x,1/2+y,-z
1/2-x,1/2+y,z
1/2+x,1/2-y,z
loop_
_atom_site_type_symbol
_atom_site_label
_atom_site_fract_x
_atom_site_fract_y
_atom_site_fract_z
Si Si1 0.098020 0.722502 0.800549
Si Si2 0.404916 0.309149 0.128777
Si Si3 0.909371 0.589211 0.311731
Si Si4 0.251911 0.556514 0.133870
Si Si5 0.668984 0.384192 0.283173
Si Si6 0.663247 0.618978 0.942250
Si Si7 0.500000 0.556348 0.941576
O O1 0.117966 0.750000 0.750000
O O2 0.121359 0.759118 0.844458
O O3 0.140042 0.669432 0.800765
O O4 0.000000 0.716606 0.801708
O O5 0.500000 0.304466 0.114985
O O6 0.400680 0.354256 0.167984
O O7 0.352675 0.328325 0.083505
O O8 0.837726 0.558842 0.336860
O O9 0.895244 0.592273 0.254191
O O10 0.000000 0.571959 0.323621
O O11 0.232434 0.500000 0.122040
O O12 0.189524 0.581465 0.171161
O O13 0.266465 0.589704 0.086096
O O14 0.750000 0.378797 0.250000
O O15 0.580757 0.587528 0.930435
O O16 0.673233 0.621411 0.000000
O O17 0.500000 0.500000 0.922482
O O18 0.500000 0.552358 0.000000
#
# Coordination Sequence:
#
# PCOD9511309 Si02
#       7
#    32  32  32  32  32  32  16
#     4  10  18  31  54  77  99 130 171 215 251 298
#     4   9  16  28  47  75 104 128 155 205 260 297
#     4   9  17  31  49  70  99 134 170 209 251 302
#     4  10  22  35  47  69 102 139 173 211 257 305
#     4  10  20  33  48  72 102 138 172 213 249 297
#     4  10  19  33  50  71 100 132 170 210 252 304
#     4   9  16  26  46  72  93 120 166 216 248 285
#
# _framework density 17.029105999999999
#
# number of rings (size 3 to 8) (size 9 to 14) (size 15 to 20)
#    0.000    2.385    2.308    0.923    1.077    4.308 
#    0.000    0.000    0.000    3.231    0.000    0.000 
#    0.000    1.846    0.000    5.538    0.000    0.000 
#
# Total GULP energy -290075.031522 kJ/mol
# GULP energy per Si atom -5578.365991 kJ/mol
# Density = 1.699035 g / cm^3
# Si number density = 17.029106 Si / 1000 Ang^3
#
#
#
# Elastic Constant Matrix: (Units=GPa)
#
#
# Indices 1 2 3 4 5 6 
#
# 1 16.2086 2.2660 15.0758 0.0000 0.0000 0.0000
# 2 2.2660 58.8653 35.7277 0.0000 0.0000 0.0000
# 3 15.0758 35.7277 122.6046 0.0000 0.0000 0.0000
# 4 0.0000 0.0000 0.0000 18.9167 0.0000 0.0000
# 5 0.0000 0.0000 0.0000 0.0000 21.2701 0.0000
# 6 0.0000 0.0000 0.0000 0.0000 0.0000 5.4302
#
#
#
# Elastic Compliance Matrix: (Units=1/GPa)
#
#
# Indices 1 2 3 4 5 6 
#
# 1 0.070119 0.003078 -0.009519 0.000000 0.000000 0.000000
# 2 0.003078 0.020773 -0.006432 0.000000 0.000000 0.000000
# 3 -0.009519 -0.006432 0.011201 0.000000 0.000000 0.000000
# 4 0.000000 0.000000 0.000000 0.052863 0.000000 0.000000
# 5 0.000000 0.000000 0.000000 0.000000 0.047014 0.000000
# 6 0.000000 0.000000 0.000000 0.000000 0.000000 0.184156
#
#
# Mechanical properties :
#
#
# Convention : Reuss Voigt Hill
#
# Bulk Modulus (GPa) = 13.09795 33.75753 23.42774
# Shear Modulus (GPa) = 11.43323 18.76400 15.09861
#
# Velocity S-wave (km/s) = 2.59394 3.32306 2.98087
# Velocity P-wave (km/s) = 4.08406 5.88133 5.06308
#
# Compressibility (1/GPa) = 0.07634782
#
# Stress axis : x y z
#
# Youngs Moduli (GPa) = 14.26147 48.13882 89.27688
#
# Poissons Ratio (x) = -0.14818 0.84983
# Poissons Ratio (y) = -0.04390 0.57423
# Poissons Ratio (z) = 0.13576 0.30963
#
# Static dielectric constant tensor:
#      x y z
#    x 1.593450 0.000000 0.000000 
#    y 0.000000 1.580120 0.000000 
#    z 0.000000 0.000000 1.590550 
# 
# From -- ./inp_files/36808.got.cif
#   From: 2010.05.17/outbox.cif.g08.bks.cpg/sg69_19_cif.got.tgz:36808.got - 2010.06.03 19:29:58.
