data_PCOD9511981
_publ_section_title
;
Structure prediction by ZEFSAII (Michael W. Deem and Ramdas Pophale) SiO2 
 PCOD9511981
Probable space group: F M M M
;
_chemical_formula_sum "Si O2"
_cell_formula_units_Z 224
_cell_length_a 16.575217
_cell_length_b 31.101992
_cell_length_c 23.179802
_cell_angle_alpha 90.000000
_cell_angle_beta 90.000000
_cell_angle_gamma 90.000000
_cell_volume 11949.704065
_symmetry_space_group_name_H-M "F M M M"
_symmetry_group_IT_number 69
_symmetry_cell_setting 'orthorhombic'
loop_
_space_group_symop_operation_xyz
x,y,z
-x,-y,z
x,-y,-z
-x,y,-z
-x,-y,-z
x,y,-z
-x,y,z
x,-y,z
x,1/2+y,1/2+z
-x,1/2-y,1/2+z
x,1/2-y,1/2-z
-x,1/2+y,1/2-z
-x,1/2-y,1/2-z
x,1/2+y,1/2-z
-x,1/2+y,1/2+z
x,1/2-y,1/2+z
1/2+x,y,1/2+z
1/2-x,-y,1/2+z
1/2+x,-y,1/2-z
1/2-x,y,1/2-z
1/2-x,-y,1/2-z
1/2+x,y,1/2-z
1/2-x,y,1/2+z
1/2+x,-y,1/2+z
1/2+x,1/2+y,z
1/2-x,1/2-y,z
1/2+x,1/2-y,-z
1/2-x,1/2+y,-z
1/2-x,1/2-y,-z
1/2+x,1/2+y,-z
1/2-x,1/2+y,z
1/2+x,1/2-y,z
loop_
_atom_site_type_symbol
_atom_site_label
_atom_site_fract_x
_atom_site_fract_y
_atom_site_fract_z
Si Si1 0.688231 0.592846 0.065769
Si Si2 0.596492 0.634509 0.173712
Si Si3 0.095291 0.000000 0.345600
Si Si4 0.825058 0.851106 0.391871
Si Si5 0.744197 0.000000 0.068418
Si Si6 0.404079 0.592357 0.708150
Si Si7 0.094741 0.269064 0.934434
Si Si8 0.306210 0.714255 0.158741
O O1 0.633144 0.615853 0.114085
O O2 0.775801 0.615904 0.068612
O O3 0.704738 0.543085 0.080866
O O4 0.656972 0.596334 0.000000
O O5 0.500000 0.636118 0.169172
O O6 0.621461 0.604256 0.227119
O O7 0.631252 0.681999 0.188791
O O8 0.160344 0.000000 0.396847
O O9 0.109518 0.957040 0.308555
O O10 0.000000 0.000000 0.363592
O O11 0.861818 0.877426 0.338810
O O12 0.888313 0.819410 0.422048
O O13 0.757560 0.818462 0.368684
O O14 0.727374 0.000000 0.000000
O O15 0.500000 0.600359 0.704772
O O16 0.144404 0.239738 0.890311
O O17 0.000000 0.260366 0.928196
O O18 0.119900 0.259474 0.000000
O O19 0.250000 0.750000 0.188725
#
# Coordination Sequence:
#
# PCOD9511981 Si02
#       8
#    32  32  16  32  16  32  32  32
#     4  10  21  36  57  85 119 157 198 244 295 352
#     4  10  22  40  61  86 118 157 202 249 300 354
#     4  10  20  38  63  90 121 161 201 246 297 352
#     4  10  19  35  56  80 114 150 188 240 294 348
#     4  10  20  38  58  87 127 161 197 245 297 355
#     4  10  21  38  60  87 120 155 197 245 293 352
#     4  10  20  34  54  81 112 150 196 244 298 357
#     4   9  20  35  55  80 108 144 190 242 292 348
#
# _framework density 18.745234
#
# number of rings (size 3 to 8) (size 9 to 14) (size 15 to 20)
#    0.000    2.143    1.429    1.286    0.000    8.143 
#    0.000    6.786    0.000    9.000    0.000    0.000 
#    0.000    0.000    0.000    0.000    0.000    0.000 
#
# Total GULP energy -312161.456467 kJ/mol
# GULP energy per Si atom -5574.311723 kJ/mol
# Density = 1.870257 g / cm^3
# Si number density = 18.745234 Si / 1000 Ang^3
#
#
#
# Elastic Constant Matrix: (Units=GPa)
#
#
# Indices 1 2 3 4 5 6 
#
# 1 60.7882 39.4024 45.1288 0.0000 0.0000 0.0000
# 2 39.4024 118.7843 34.5635 0.0000 0.0000 0.0000
# 3 45.1288 34.5635 90.6808 0.0000 0.0000 0.0000
# 4 0.0000 0.0000 0.0000 21.1441 0.0000 0.0000
# 5 0.0000 0.0000 0.0000 0.0000 -13.8173 0.0000
# 6 0.0000 0.0000 0.0000 0.0000 0.0000 38.9554
#
#
#
# Elastic Compliance Matrix: (Units=1/GPa)
#
#
# Indices 1 2 3 4 5 6 
#
# 1 0.029707 -0.006245 -0.012404 0.000000 0.000000 0.000000
# 2 -0.006245 0.010782 -0.001002 0.000000 0.000000 0.000000
# 3 -0.012404 -0.001002 0.017582 0.000000 0.000000 0.000000
# 4 0.000000 0.000000 0.000000 0.047294 0.000000 0.000000
# 5 0.000000 0.000000 0.000000 0.000000 -0.072373 0.000000
# 6 0.000000 0.000000 0.000000 0.000000 0.000000 0.025670
#
#
# Mechanical properties :
#
#
# Convention : Reuss Voigt Hill
#
# Bulk Modulus (GPa) = 53.27580 56.49363 54.88471
# Shear Modulus (GPa) = 47.97509 19.33369 33.65439
#
# Velocity S-wave (km/s) = 5.06446 3.21501 4.24176
# Velocity P-wave (km/s) = 7.91714 6.63210 7.30294
#
# Compressibility (1/GPa) = 0.01877025
#
# Stress axis : x y z
#
# Youngs Moduli (GPa) = 33.66195 92.75064 56.87497
#
# Poissons Ratio (x) = 0.57923 0.70547
# Poissons Ratio (y) = 0.21022 0.05696
# Poissons Ratio (z) = 0.41754 0.09289
#
# Static dielectric constant tensor:
#      x y z
#    x 1.654890 0.000000 0.000000 
#    y 0.000000 1.665040 0.000000 
#    z 0.000000 0.000000 1.642800 
# 
# From -- ./inp_files/31226.got.cif
#   From: 2010.05.17/outbox.cif.g08.bks.cpg/sg69_16_cif.got.tgz:31226.got - 2010.06.03 19:29:58.
