data_PCOD9511117
_publ_section_title
;
Structure prediction by ZEFSAII (Michael W. Deem and Ramdas Pophale) SiO2 
 PCOD9511117
Probable space group: F M M M
;
_chemical_formula_sum "Si O2"
_cell_formula_units_Z 208
_cell_length_a 26.574253
_cell_length_b 28.724760
_cell_length_c 18.094905
_cell_angle_alpha 90.000000
_cell_angle_beta 90.000000
_cell_angle_gamma 90.000000
_cell_volume 13812.547404
_symmetry_space_group_name_H-M "F M M M"
_symmetry_group_IT_number 69
_symmetry_cell_setting 'orthorhombic'
loop_
_space_group_symop_operation_xyz
x,y,z
-x,-y,z
x,-y,-z
-x,y,-z
-x,-y,-z
x,y,-z
-x,y,z
x,-y,z
x,1/2+y,1/2+z
-x,1/2-y,1/2+z
x,1/2-y,1/2-z
-x,1/2+y,1/2-z
-x,1/2-y,1/2-z
x,1/2+y,1/2-z
-x,1/2+y,1/2+z
x,1/2-y,1/2+z
1/2+x,y,1/2+z
1/2-x,-y,1/2+z
1/2+x,-y,1/2-z
1/2-x,y,1/2-z
1/2-x,-y,1/2-z
1/2+x,y,1/2-z
1/2-x,y,1/2+z
1/2+x,-y,1/2+z
1/2+x,1/2+y,z
1/2-x,1/2-y,z
1/2+x,1/2-y,-z
1/2-x,1/2+y,-z
1/2-x,1/2-y,-z
1/2+x,1/2+y,-z
1/2-x,1/2+y,z
1/2+x,1/2-y,z
loop_
_atom_site_type_symbol
_atom_site_label
_atom_site_fract_x
_atom_site_fract_y
_atom_site_fract_z
Si Si1 0.057427 0.500000 0.910954
Si Si2 0.886123 0.757990 0.917585
Si Si3 0.875919 0.909930 0.412082
Si Si4 0.793089 0.374684 0.803061
Si Si5 0.631842 0.302926 0.229041
Si Si6 0.718702 0.295082 0.585671
Si Si7 0.558083 0.676465 0.641103
O O1 0.089485 0.545847 0.892594
O O2 0.000000 0.500000 0.881891
O O3 0.053641 0.500000 0.000000
O O4 0.880084 0.797749 0.856902
O O5 0.839203 0.721626 0.910153
O O6 0.933516 0.725103 0.901480
O O7 0.885371 0.776340 0.000000
O O8 0.862014 0.911665 0.500000
O O9 0.828881 0.906207 0.355388
O O10 0.909739 0.864013 0.398149
O O11 0.750000 0.395533 0.750000
O O12 0.828283 0.341901 0.751543
O O13 0.770266 0.337834 0.861583
O O14 0.648906 0.250000 0.250000
O O15 0.583031 0.313943 0.278875
O O16 0.729928 0.305799 0.500000
O O17 0.750000 0.250000 0.608170
O O18 0.500000 0.663751 0.644882
#
# Coordination Sequence:
#
# PCOD9511117 Si02
#       7
#    16  32  32  32  32  32  32
#     4   9  18  32  55  80  96 116 144 181 238 295
#     4  10  18  28  39  58  85 117 160 200 232 266
#     4  10  19  34  50  70  97 117 148 193 233 287
#     4  11  20  28  45  63  89 124 161 188 236 270
#     4   9  17  29  40  57  84 118 157 200 231 264
#     4  10  18  27  41  60  83 115 158 205 239 260
#     4  10  19  29  45  64  88 120 150 188 237 286
#
# _framework density 15.058771999999999
#
# number of rings (size 3 to 8) (size 9 to 14) (size 15 to 20)
#    0.000    2.077    4.615    2.308    0.000    4.615 
#    0.000    1.154    0.000    0.000    0.000    0.000 
#    0.000    0.000    0.000    7.154    0.000   46.154 
#
# Total GULP energy -289668.665283 kJ/mol
# GULP energy per Si atom -5570.551255 kJ/mol
# Density = 1.502450 g / cm^3
# Si number density = 15.058772 Si / 1000 Ang^3
#
#
#
# Elastic Constant Matrix: (Units=GPa)
#
#
# Indices 1 2 3 4 5 6 
#
# 1 84.1460 25.7566 29.9358 0.0000 0.0000 0.0000
# 2 25.7566 55.5134 30.4977 0.0000 0.0000 0.0000
# 3 29.9358 30.4977 101.5067 0.0000 0.0000 0.0000
# 4 0.0000 0.0000 0.0000 10.6046 0.0000 0.0000
# 5 0.0000 0.0000 0.0000 0.0000 15.6490 0.0000
# 6 0.0000 0.0000 0.0000 0.0000 0.0000 8.8591
#
#
#
# Elastic Compliance Matrix: (Units=1/GPa)
#
#
# Indices 1 2 3 4 5 6 
#
# 1 0.014439 -0.005222 -0.002689 0.000000 0.000000 0.000000
# 2 -0.005222 0.023463 -0.005510 0.000000 0.000000 0.000000
# 3 -0.002689 -0.005510 0.012300 0.000000 0.000000 0.000000
# 4 0.000000 0.000000 0.000000 0.094299 0.000000 0.000000
# 5 0.000000 0.000000 0.000000 0.000000 0.063902 0.000000
# 6 0.000000 0.000000 0.000000 0.000000 0.000000 0.112878
#
#
# Mechanical properties :
#
#
# Convention : Reuss Voigt Hill
#
# Bulk Modulus (GPa) = 42.80661 45.94961 44.37811
# Shear Modulus (GPa) = 14.04849 17.35427 15.70138
#
# Velocity S-wave (km/s) = 3.05767 3.39844 3.23255
# Velocity P-wave (km/s) = 6.39952 6.78078 6.59291
#
# Compressibility (1/GPa) = 0.02336088
#
# Stress axis : x y z
#
# Youngs Moduli (GPa) = 69.25543 42.61979 81.30035
#
# Poissons Ratio (x) = 0.22256 0.21865
# Poissons Ratio (y) = 0.36165 0.44793
# Poissons Ratio (z) = 0.18626 0.23482
#
# Static dielectric constant tensor:
#      x y z
#    x 1.550500 0.000000 0.000000 
#    y 0.000000 1.483190 0.000000 
#    z 0.000000 0.000000 1.533120 
# 
# From -- ./inp_files/27093.got.cif
#   From: 2010.05.17/outbox.cif.g08.bks.cpg/sg69_14_cif.got.tgz:27093.got - 2010.06.03 19:29:58.
