data_PCOD9511602
_publ_section_title
;
Structure prediction by ZEFSAII (Michael W. Deem and Ramdas Pophale) SiO2 
 PCOD9511602
Probable space group: F M M M
;
_chemical_formula_sum "Si O2"
_cell_formula_units_Z 208
_cell_length_a 28.218068
_cell_length_b 16.799406
_cell_length_c 24.193875
_cell_angle_alpha 90.000000
_cell_angle_beta 90.000000
_cell_angle_gamma 90.000000
_cell_volume 11469.028560
_symmetry_space_group_name_H-M "F M M M"
_symmetry_group_IT_number 69
_symmetry_cell_setting 'orthorhombic'
loop_
_space_group_symop_operation_xyz
x,y,z
-x,-y,z
x,-y,-z
-x,y,-z
-x,-y,-z
x,y,-z
-x,y,z
x,-y,z
x,1/2+y,1/2+z
-x,1/2-y,1/2+z
x,1/2-y,1/2-z
-x,1/2+y,1/2-z
-x,1/2-y,1/2-z
x,1/2+y,1/2-z
-x,1/2+y,1/2+z
x,1/2-y,1/2+z
1/2+x,y,1/2+z
1/2-x,-y,1/2+z
1/2+x,-y,1/2-z
1/2-x,y,1/2-z
1/2-x,-y,1/2-z
1/2+x,y,1/2-z
1/2-x,y,1/2+z
1/2+x,-y,1/2+z
1/2+x,1/2+y,z
1/2-x,1/2-y,z
1/2+x,1/2-y,-z
1/2-x,1/2+y,-z
1/2-x,1/2-y,-z
1/2+x,1/2+y,-z
1/2-x,1/2+y,z
1/2+x,1/2-y,z
loop_
_atom_site_type_symbol
_atom_site_label
_atom_site_fract_x
_atom_site_fract_y
_atom_site_fract_z
Si Si1 0.055362 0.089370 0.500000
Si Si2 0.198734 0.089877 0.761727
Si Si3 0.185614 0.125679 0.359710
Si Si4 0.651506 0.305702 0.854467
Si Si5 0.055632 0.738855 0.184093
Si Si6 0.229711 0.659033 0.436471
Si Si7 0.084162 0.908555 0.615534
O O1 0.066792 0.128598 0.442068
O O2 0.000000 0.079014 0.500000
O O3 0.077770 0.000000 0.500000
O O4 0.250000 0.128374 0.750000
O O5 0.179942 0.086159 0.699832
O O6 0.167946 0.140433 0.803350
O O7 0.205367 0.000000 0.783423
O O8 0.176029 0.219129 0.348997
O O9 0.234231 0.115876 0.393550
O O10 0.140540 0.093812 0.392086
O O11 0.595212 0.290600 0.848919
O O12 0.677259 0.339960 0.909350
O O13 0.063656 0.750000 0.250000
O O14 0.067057 0.648409 0.164733
O O15 0.000000 0.756224 0.173023
O O16 0.230460 0.629917 0.500000
O O17 0.250000 0.750000 0.438283
O O18 0.067705 0.000000 0.621770
#
# Coordination Sequence:
#
# PCOD9511602 Si02
#       7
#    16  32  32  32  32  32  32
#     4   9  18  32  50  74 107 150 189 217 257 320
#     4  11  21  32  51  78 108 136 169 214 265 325
#     4  10  19  31  51  78 106 140 179 211 254 319
#     4  10  19  35  54  74 103 142 177 220 268 316
#     4  10  21  37  56  80 107 143 190 236 280 326
#     4   9  18  31  49  73 103 139 177 217 259 311
#     4  10  20  34  54  81 116 152 182 218 268 330
#
# _framework density 18.135798999999999
#
# number of rings (size 3 to 8) (size 9 to 14) (size 15 to 20)
#    0.000    2.077    1.538    3.231    1.077    1.538 
#    4.154    0.000    0.000    3.692    0.000    0.000 
#    0.000    0.000    0.000    1.385    0.000    2.077 
#
# Total GULP energy -289472.025906 kJ/mol
# GULP energy per Si atom -5566.769729 kJ/mol
# Density = 1.809452 g / cm^3
# Si number density = 18.135799 Si / 1000 Ang^3
#
#
#
# Elastic Constant Matrix: (Units=GPa)
#
#
# Indices 1 2 3 4 5 6 
#
# 1 123.3667 14.7100 40.1393 0.0000 0.0000 0.0000
# 2 14.7100 51.2691 34.3148 0.0000 0.0000 0.0000
# 3 40.1393 34.3148 111.9323 0.0000 0.0000 0.0000
# 4 0.0000 0.0000 0.0000 -14.9401 0.0000 0.0000
# 5 0.0000 0.0000 0.0000 0.0000 30.5350 0.0000
# 6 0.0000 0.0000 0.0000 0.0000 0.0000 19.0646
#
#
#
# Elastic Compliance Matrix: (Units=1/GPa)
#
#
# Indices 1 2 3 4 5 6 
#
# 1 0.009189 -0.000542 -0.003129 0.000000 0.000000 0.000000
# 2 -0.000542 0.024572 -0.007339 0.000000 0.000000 0.000000
# 3 -0.003129 -0.007339 0.012306 0.000000 0.000000 0.000000
# 4 0.000000 0.000000 0.000000 -0.066934 0.000000 0.000000
# 5 0.000000 0.000000 0.000000 0.000000 0.032749 0.000000
# 6 0.000000 0.000000 0.000000 0.000000 0.000000 0.052453
#
#
# Mechanical properties :
#
#
# Convention : Reuss Voigt Hill
#
# Bulk Modulus (GPa) = 41.58473 51.65514 46.61993
# Shear Modulus (GPa) = 52.98280 20.09217 36.53749
#
# Velocity S-wave (km/s) = 5.41091 3.33208 4.49337
# Velocity P-wave (km/s) = 7.87506 6.58392 7.25826
#
# Compressibility (1/GPa) = 0.02404729
#
# Stress axis : x y z
#
# Youngs Moduli (GPa) = 108.83075 40.69625 81.26272
#
# Poissons Ratio (x) = 0.02207 0.25426
# Poissons Ratio (y) = 0.05901 0.59636
# Poissons Ratio (z) = 0.34051 0.29865
#
# Static dielectric constant tensor:
#      x y z
#    x 1.869580 0.000000 0.000000 
#    y 0.000000 1.651640 0.000000 
#    z 0.000000 0.000000 1.887660 
# 
# From -- ./inp_files/38502.got.cif
#   From: 2010.05.17/outbox.cif.g08.bks.cpg/sg69_20_cif.got.tgz:38502.got - 2010.06.03 19:29:58.
