data_PCOD9511530
_publ_section_title
;
Structure prediction by ZEFSAII (Michael W. Deem and Ramdas Pophale) SiO2 
 PCOD9511530
Probable space group: F M M M
;
_chemical_formula_sum "Si O2"
_cell_formula_units_Z 160
_cell_length_a 25.971125
_cell_length_b 18.749794
_cell_length_c 18.669674
_cell_angle_alpha 90.000000
_cell_angle_beta 90.000000
_cell_angle_gamma 90.000000
_cell_volume 9091.258313
_symmetry_space_group_name_H-M "F M M M"
_symmetry_group_IT_number 69
_symmetry_cell_setting 'orthorhombic'
loop_
_space_group_symop_operation_xyz
x,y,z
-x,-y,z
x,-y,-z
-x,y,-z
-x,-y,-z
x,y,-z
-x,y,z
x,-y,z
x,1/2+y,1/2+z
-x,1/2-y,1/2+z
x,1/2-y,1/2-z
-x,1/2+y,1/2-z
-x,1/2-y,1/2-z
x,1/2+y,1/2-z
-x,1/2+y,1/2+z
x,1/2-y,1/2+z
1/2+x,y,1/2+z
1/2-x,-y,1/2+z
1/2+x,-y,1/2-z
1/2-x,y,1/2-z
1/2-x,-y,1/2-z
1/2+x,y,1/2-z
1/2-x,y,1/2+z
1/2+x,-y,1/2+z
1/2+x,1/2+y,z
1/2-x,1/2-y,z
1/2+x,1/2-y,-z
1/2-x,1/2+y,-z
1/2-x,1/2-y,-z
1/2+x,1/2+y,-z
1/2-x,1/2+y,z
1/2+x,1/2-y,z
loop_
_atom_site_type_symbol
_atom_site_label
_atom_site_fract_x
_atom_site_fract_y
_atom_site_fract_z
Si Si1 0.441992 0.915130 0.662989
Si Si2 0.143854 0.821693 0.417213
Si Si3 0.940036 0.181391 0.297511
Si Si4 0.846024 0.149898 0.919000
Si Si5 0.246161 0.663197 0.832761
O O1 0.500000 0.895074 0.638523
O O2 0.436734 0.884561 0.743092
O O3 0.397616 0.880242 0.615929
O O4 0.437700 0.000000 0.661649
O O5 0.140163 0.846363 0.500000
O O6 0.094109 0.831722 0.367156
O O7 0.150868 0.735913 0.420099
O O8 0.193307 0.852755 0.374832
O O9 0.921839 0.250000 0.250000
O O10 0.000000 0.194502 0.315681
O O11 0.795294 0.132401 0.873927
O O12 0.840901 0.124159 0.000000
O O13 0.250000 0.640955 0.750000
O O14 0.250000 0.750000 0.833140
#
# Coordination Sequence:
#
# PCOD9511530 Si02
#       5
#    32  32  32  32  32
#     4  10  21  36  54  77 106 144 186 224 266 321
#     4  10  19  30  50  80 110 136 172 224 276 320
#     4  10  19  33  54  77 104 140 181 223 266 314
#     4  10  19  31  48  74 109 142 174 217 269 322
#     4   9  17  28  48  74 103 139 176 218 265 317
#
# _framework density 17.599325
#
# number of rings (size 3 to 8) (size 9 to 14) (size 15 to 20)
#    0.000    2.200    2.000    1.800    2.800    3.600 
#    0.000    3.000    0.000    6.000    0.000    2.800 
#    0.000    0.000    0.000    0.000    0.000    0.000 
#
# Total GULP energy -223016.598007 kJ/mol
# GULP energy per Si atom -5575.414950 kJ/mol
# Density = 1.755927 g / cm^3
# Si number density = 17.599325 Si / 1000 Ang^3
#
#
#
# Elastic Constant Matrix: (Units=GPa)
#
#
# Indices 1 2 3 4 5 6 
#
# 1 149.5442 22.7097 113.1344 0.0000 0.0000 0.0000
# 2 22.7097 17.7375 16.0034 0.0000 0.0000 0.0000
# 3 113.1344 16.0034 175.2523 0.0000 0.0000 0.0000
# 4 0.0000 0.0000 0.0000 6.5725 0.0000 0.0000
# 5 0.0000 0.0000 0.0000 0.0000 -4.0267 0.0000
# 6 0.0000 0.0000 0.0000 0.0000 0.0000 9.9371
#
#
#
# Elastic Compliance Matrix: (Units=1/GPa)
#
#
# Indices 1 2 3 4 5 6 
#
# 1 0.014904 -0.011335 -0.008586 0.000000 0.000000 0.000000
# 2 -0.011335 0.070060 0.000920 0.000000 0.000000 0.000000
# 3 -0.008586 0.000920 0.011165 0.000000 0.000000 0.000000
# 4 0.000000 0.000000 0.000000 0.152150 0.000000 0.000000
# 5 0.000000 0.000000 0.000000 0.000000 -0.248341 0.000000
# 6 0.000000 0.000000 0.000000 0.000000 0.000000 0.100633
#
#
# Mechanical properties :
#
#
# Convention : Reuss Voigt Hill
#
# Bulk Modulus (GPa) = 17.20398 71.80323 44.50361
# Shear Modulus (GPa) = 31.65557 15.20901 23.43229
#
# Velocity S-wave (km/s) = 4.24569 2.94289 3.65284
# Velocity P-wave (km/s) = 5.81645 7.24119 6.56757
#
# Compressibility (1/GPa) = 0.05812607
#
# Stress axis : x y z
#
# Youngs Moduli (GPa) = 67.09569 14.27341 89.56603
#
# Poissons Ratio (x) = 0.16179 0.76904
# Poissons Ratio (y) = 0.76054 -0.08238
# Poissons Ratio (z) = 0.57610 -0.01313
#
# Static dielectric constant tensor:
#      x y z
#    x 1.606520 0.000000 0.000000 
#    y 0.000000 1.586790 0.000000 
#    z 0.000000 0.000000 1.592160 
# 
# From -- ./inp_files/23419.got.cif
#   From: 2010.05.17/outbox.cif.g08.bks.cpg/sg69_12_cif.got.tgz:23419.got - 2010.06.03 19:29:58.
