data_PCOD9511735
_publ_section_title
;
Structure prediction by ZEFSAII (Michael W. Deem and Ramdas Pophale) SiO2 
 PCOD9511735
Probable space group: F M M M
;
_chemical_formula_sum "Si O2"
_cell_formula_units_Z 164
_cell_length_a 24.572330
_cell_length_b 17.309298
_cell_length_c 20.371232
_cell_angle_alpha 90.000000
_cell_angle_beta 90.000000
_cell_angle_gamma 90.000000
_cell_volume 8664.491676
_symmetry_space_group_name_H-M "F M M M"
_symmetry_group_IT_number 69
_symmetry_cell_setting 'orthorhombic'
loop_
_space_group_symop_operation_xyz
x,y,z
-x,-y,z
x,-y,-z
-x,y,-z
-x,-y,-z
x,y,-z
-x,y,z
x,-y,z
x,1/2+y,1/2+z
-x,1/2-y,1/2+z
x,1/2-y,1/2-z
-x,1/2+y,1/2-z
-x,1/2-y,1/2-z
x,1/2+y,1/2-z
-x,1/2+y,1/2+z
x,1/2-y,1/2+z
1/2+x,y,1/2+z
1/2-x,-y,1/2+z
1/2+x,-y,1/2-z
1/2-x,y,1/2-z
1/2-x,-y,1/2-z
1/2+x,y,1/2-z
1/2-x,y,1/2+z
1/2+x,-y,1/2+z
1/2+x,1/2+y,z
1/2-x,1/2-y,z
1/2+x,1/2-y,-z
1/2-x,1/2+y,-z
1/2-x,1/2-y,-z
1/2+x,1/2+y,-z
1/2-x,1/2+y,z
1/2+x,1/2-y,z
loop_
_atom_site_type_symbol
_atom_site_label
_atom_site_fract_x
_atom_site_fract_y
_atom_site_fract_z
Si Si1 0.000000 0.000000 0.500000
Si Si2 0.717087 0.092770 0.574638
Si Si3 0.594771 0.669538 0.716941
Si Si4 0.500000 0.587020 0.361868
Si Si5 0.392062 0.092117 0.646268
Si Si6 0.279665 0.168273 0.183736
Si Si7 0.500000 0.905564 0.575511
O O1 0.000000 0.066803 0.439770
O O2 0.720453 0.121593 0.500000
O O3 0.662499 0.121690 0.611317
O O4 0.766381 0.116671 0.621098
O O5 0.714394 0.000000 0.571885
O O6 0.575664 0.750000 0.750000
O O7 0.552589 0.633662 0.665039
O O8 0.603000 0.611856 0.777927
O O9 0.656149 0.680925 0.690816
O O10 0.500000 0.500000 0.330609
O O11 0.445725 0.122657 0.610512
O O12 0.391364 0.000000 0.638399
O O13 0.250000 0.135643 0.250000
O O14 0.250000 0.250000 0.174070
O O15 0.500000 0.883839 0.500000
O O16 0.500000 0.000000 0.578569
#
# Coordination Sequence:
#
# PCOD9511735 Si02
#       7
#     4  32  32  16  32  32  16
#     4   8  24  56  72  92 144 176 224 284 332 398
#     4  10  21  36  54  84 123 165 213 266 324 393
#     4  12  22  39  68  96 126 166 216 282 334 384
#     4  10  24  46  72  97 129 173 227 277 334 395
#     4  10  19  32  55  84 119 157 208 267 326 388
#     4  11  21  41  61  88 130 168 214 265 327 389
#     4   9  17  30  49  74 105 147 184 230 305 381
#
# _framework density 18.927828000000002
#
# number of rings (size 3 to 8) (size 9 to 14) (size 15 to 20)
#    0.293    1.268    3.902    2.049    0.000    5.463 
#    1.756    0.000    6.439    0.000    0.000    0.000 
#    0.000    0.000    0.000    0.000    0.000    0.000 
#
# Total GULP energy -228373.677475 kJ/mol
# GULP energy per Si atom -5570.089695 kJ/mol
# Density = 1.888475 g / cm^3
# Si number density = 18.927828 Si / 1000 Ang^3
#
#
#
# Elastic Constant Matrix: (Units=GPa)
#
#
# Indices 1 2 3 4 5 6 
#
# 1 121.6763 39.7395 57.0316 0.0000 0.0000 0.0000
# 2 39.7395 37.2227 31.1807 0.0000 0.0000 0.0000
# 3 57.0316 31.1807 142.1487 0.0000 0.0000 0.0000
# 4 0.0000 0.0000 0.0000 18.4059 0.0000 0.0000
# 5 0.0000 0.0000 0.0000 0.0000 10.9087 0.0000
# 6 0.0000 0.0000 0.0000 0.0000 0.0000 25.9903
#
#
#
# Elastic Compliance Matrix: (Units=1/GPa)
#
#
# Indices 1 2 3 4 5 6 
#
# 1 0.013442 -0.012047 -0.002751 0.000000 0.000000 0.000000
# 2 -0.012047 0.043710 -0.004754 0.000000 0.000000 0.000000
# 3 -0.002751 -0.004754 0.009181 0.000000 0.000000 0.000000
# 4 0.000000 0.000000 0.000000 0.054330 0.000000 0.000000
# 5 0.000000 0.000000 0.000000 0.000000 0.091670 0.000000
# 6 0.000000 0.000000 0.000000 0.000000 0.000000 0.038476
#
#
# Mechanical properties :
#
#
# Convention : Reuss Voigt Hill
#
# Bulk Modulus (GPa) = 36.72549 61.88348 49.30449
# Shear Modulus (GPa) = 16.72296 22.60072 19.66184
#
# Velocity S-wave (km/s) = 2.97562 3.45925 3.22651
# Velocity P-wave (km/s) = 5.59024 6.98002 6.32342
#
# Compressibility (1/GPa) = 0.02722904
#
# Stress axis : x y z
#
# Youngs Moduli (GPa) = 74.39153 22.87826 108.91618
#
# Poissons Ratio (x) = 0.27562 0.29959
# Poissons Ratio (y) = 0.89620 0.51783
# Poissons Ratio (z) = 0.20463 0.10877
#
# Static dielectric constant tensor:
#      x y z
#    x 1.657980 0.000000 0.000000 
#    y 0.000000 1.685580 0.000000 
#    z 0.000000 0.000000 1.659910 
# 
# From -- ./inp_files/32686.got.cif
#   From: 2010.05.17/outbox.cif.g08.bks.cpg/sg69_17_cif.got.tgz:32686.got - 2010.06.03 19:29:58.
