data_PCOD9511890
_publ_section_title
;
Structure prediction by ZEFSAII (Michael W. Deem and Ramdas Pophale) SiO2 
 PCOD9511890
Probable space group: F M M M
;
_chemical_formula_sum "Si O2"
_cell_formula_units_Z 192
_cell_length_a 26.858156
_cell_length_b 25.710409
_cell_length_c 14.531579
_cell_angle_alpha 90.000000
_cell_angle_beta 90.000000
_cell_angle_gamma 90.000000
_cell_volume 10034.551927
_symmetry_space_group_name_H-M "F M M M"
_symmetry_group_IT_number 69
_symmetry_cell_setting 'orthorhombic'
loop_
_space_group_symop_operation_xyz
x,y,z
-x,-y,z
x,-y,-z
-x,y,-z
-x,-y,-z
x,y,-z
-x,y,z
x,-y,z
x,1/2+y,1/2+z
-x,1/2-y,1/2+z
x,1/2-y,1/2-z
-x,1/2+y,1/2-z
-x,1/2-y,1/2-z
x,1/2+y,1/2-z
-x,1/2+y,1/2+z
x,1/2-y,1/2+z
1/2+x,y,1/2+z
1/2-x,-y,1/2+z
1/2+x,-y,1/2-z
1/2-x,y,1/2-z
1/2-x,-y,1/2-z
1/2+x,y,1/2-z
1/2-x,y,1/2+z
1/2+x,-y,1/2+z
1/2+x,1/2+y,z
1/2-x,1/2-y,z
1/2+x,1/2-y,-z
1/2-x,1/2+y,-z
1/2-x,1/2-y,-z
1/2+x,1/2+y,-z
1/2-x,1/2+y,z
1/2+x,1/2-y,z
loop_
_atom_site_type_symbol
_atom_site_label
_atom_site_fract_x
_atom_site_fract_y
_atom_site_fract_z
Si Si1 0.000000 0.649018 0.110855
Si Si2 0.610966 0.742236 0.856736
Si Si3 0.891745 0.135719 0.604888
Si Si4 0.671741 0.056534 0.786587
Si Si5 0.271841 0.583421 0.111716
Si Si6 0.781132 0.798050 0.105782
Si Si7 0.500000 0.733942 0.109961
O O1 0.051613 0.622428 0.132307
O O2 0.000000 0.707360 0.151426
O O3 0.000000 0.655327 0.000000
O O4 0.619386 0.750000 0.750000
O O5 0.610530 0.801246 0.896060
O O6 0.659752 0.712758 0.892180
O O7 0.556455 0.715369 0.867870
O O8 0.880722 0.118577 0.500000
O O9 0.857727 0.106510 0.677128
O O10 0.685314 0.061424 0.678653
O O11 0.721699 0.058102 0.848913
O O12 0.647375 0.000000 0.802353
O O13 0.269469 0.644457 0.139694
O O14 0.277433 0.577996 0.000000
O O15 0.750000 0.750000 0.147277
O O16 0.764447 0.800729 0.000000
O O17 0.500000 0.735654 0.000000
#
# Coordination Sequence:
#
# PCOD9511890 Si02
#       7
#    16  32  32  32  32  32  16
#     4   7  14  29  50  75 104 138 170 206 260 320
#     4  11  20  31  50  77 109 142 179 216 255 309
#     4  10  19  34  55  79 109 141 172 212 265 319
#     4  11  23  37  55  79 102 132 180 226 267 319
#     4  10  21  37  54  74 106 141 173 216 267 314
#     4  10  20  33  50  74 104 139 175 209 251 308
#     4   9  17  31  49  70 100 140 181 216 254 300
#
# _framework density 19.133889
#
# number of rings (size 3 to 8) (size 9 to 14) (size 15 to 20)
#    0.000    2.000    0.000    6.250    0.000    5.333 
#    0.000    0.417    0.000    1.500    0.000    0.583 
#    0.000    1.333    0.000    0.000    0.000    0.667 
#
# Total GULP energy -267312.330102 kJ/mol
# GULP energy per Si atom -5569.006877 kJ/mol
# Density = 1.909034 g / cm^3
# Si number density = 19.133889 Si / 1000 Ang^3
#
#
#
# Elastic Constant Matrix: (Units=GPa)
#
#
# Indices 1 2 3 4 5 6 
#
# 1 73.4059 18.7789 7.9175 0.0000 0.0000 0.0000
# 2 18.7789 74.4670 7.6554 0.0000 0.0000 0.0000
# 3 7.9175 7.6554 98.7293 0.0000 0.0000 0.0000
# 4 0.0000 0.0000 0.0000 16.8172 0.0000 0.0000
# 5 0.0000 0.0000 0.0000 0.0000 33.6596 0.0000
# 6 0.0000 0.0000 0.0000 0.0000 0.0000 -189.0320
#
#
#
# Elastic Compliance Matrix: (Units=1/GPa)
#
#
# Indices 1 2 3 4 5 6 
#
# 1 0.014640 -0.003600 -0.000895 0.000000 0.000000 0.000000
# 2 -0.003600 0.014422 -0.000830 0.000000 0.000000 0.000000
# 3 -0.000895 -0.000830 0.010265 0.000000 0.000000 0.000000
# 4 0.000000 0.000000 0.000000 0.059463 0.000000 0.000000
# 5 0.000000 0.000000 0.000000 0.000000 0.029709 0.000000
# 6 0.000000 0.000000 0.000000 0.000000 0.000000 -0.005290
#
#
# Mechanical properties :
#
#
# Convention : Reuss Voigt Hill
#
# Bulk Modulus (GPa) = 34.86980 35.03398 34.95189
# Shear Modulus (GPa) = 34.86333 -13.56100 10.65116
#
# Velocity S-wave (km/s) = 4.27320 -2.66511 2.36193
# Velocity P-wave (km/s) = 6.52769 2.97981 5.07395
#
# Compressibility (1/GPa) = 0.02867811
#
# Stress axis : x y z
#
# Youngs Moduli (GPa) = 68.30429 69.33911 97.42034
#
# Poissons Ratio (x) = 0.24962 0.08718
# Poissons Ratio (y) = 0.24589 0.08082
# Poissons Ratio (z) = 0.06113 0.05752
#
# Static dielectric constant tensor:
#      x y z
#    x 1.726520 0.000000 0.000000 
#    y 0.000000 1.688630 0.000000 
#    z 0.000000 0.000000 1.599050 
# 
# From -- ./inp_files/19803.got.cif
#   From: 2010.05.17/outbox.cif.g08.bks.cpg/sg69_10_cif.got.tgz:19803.got - 2010.06.03 19:29:58.
