data_PCOD9511687
_publ_section_title
;
Structure prediction by ZEFSAII (Michael W. Deem and Ramdas Pophale) SiO2 
 PCOD9511687
Probable space group: F M M M
;
_chemical_formula_sum "Si O2"
_cell_formula_units_Z 208
_cell_length_a 23.355341
_cell_length_b 28.554945
_cell_length_c 18.267995
_cell_angle_alpha 90.000000
_cell_angle_beta 90.000000
_cell_angle_gamma 90.000000
_cell_volume 12183.117272
_symmetry_space_group_name_H-M "F M M M"
_symmetry_group_IT_number 69
_symmetry_cell_setting 'orthorhombic'
loop_
_space_group_symop_operation_xyz
x,y,z
-x,-y,z
x,-y,-z
-x,y,-z
-x,-y,-z
x,y,-z
-x,y,z
x,-y,z
x,1/2+y,1/2+z
-x,1/2-y,1/2+z
x,1/2-y,1/2-z
-x,1/2+y,1/2-z
-x,1/2-y,1/2-z
x,1/2+y,1/2-z
-x,1/2+y,1/2+z
x,1/2-y,1/2+z
1/2+x,y,1/2+z
1/2-x,-y,1/2+z
1/2+x,-y,1/2-z
1/2-x,y,1/2-z
1/2-x,-y,1/2-z
1/2+x,y,1/2-z
1/2-x,y,1/2+z
1/2+x,-y,1/2+z
1/2+x,1/2+y,z
1/2-x,1/2-y,z
1/2+x,1/2-y,-z
1/2-x,1/2+y,-z
1/2-x,1/2-y,-z
1/2+x,1/2+y,-z
1/2-x,1/2+y,z
1/2+x,1/2-y,z
loop_
_atom_site_type_symbol
_atom_site_label
_atom_site_fract_x
_atom_site_fract_y
_atom_site_fract_z
Si Si1 0.145251 0.056070 0.915481
Si Si2 0.931013 0.217560 0.816830
Si Si3 0.264836 0.054713 0.164013
Si Si4 0.932856 0.301156 0.086670
Si Si5 0.882206 0.105757 0.641999
Si Si6 0.568740 0.889784 0.699164
Si Si7 0.568449 0.553907 0.500000
O O1 0.208400 0.065674 0.882997
O O2 0.098997 0.079828 0.863033
O O3 0.137816 0.000000 0.912785
O O4 0.140656 0.071127 0.000000
O O5 0.910564 0.250000 0.750000
O O6 0.918683 0.248461 0.888411
O O7 0.911492 0.164244 0.812411
O O8 0.000000 0.214647 0.810645
O O9 0.250000 0.058384 0.250000
O O10 0.316951 0.088938 0.146099
O O11 0.280938 0.000000 0.150048
O O12 0.894183 0.339539 0.126581
O O13 0.000000 0.309954 0.107477
O O14 0.928223 0.306657 0.000000
O O15 0.911405 0.094518 0.719972
O O16 0.910136 0.079255 0.573194
O O17 0.500000 0.892274 0.694337
O O18 0.587672 0.500000 0.500000
O O19 0.500000 0.555476 0.500000
#
# Coordination Sequence:
#
# PCOD9511687 Si02
#       7
#    32  32  32  32  32  32  16
#     4  10  23  42  61  83 114 151 191 242 294 336
#     4   9  17  31  52  80 112 147 186 229 276 332
#     4  10  21  39  60  82 107 142 197 247 281 328
#     4  10  19  32  52  81 118 152 182 222 281 349
#     4  12  21  34  57  84 114 153 192 233 286 341
#     4  11  22  36  60  89 117 150 192 238 288 346
#     4  11  24  36  48  80 128 161 183 225 288 359
#
# _framework density 17.072806
#
# number of rings (size 3 to 8) (size 9 to 14) (size 15 to 20)
#    0.000    1.615    3.846    1.846    1.077    1.846 
#    0.000    2.308    0.000    0.923    0.000    2.154 
#    0.000    0.000    0.000    0.000    0.000    0.000 
#
# Total GULP energy -290132.295002 kJ/mol
# GULP energy per Si atom -5579.467212 kJ/mol
# Density = 1.703395 g / cm^3
# Si number density = 17.072806 Si / 1000 Ang^3
#
#
#
# Elastic Constant Matrix: (Units=GPa)
#
#
# Indices 1 2 3 4 5 6 
#
# 1 81.4084 46.0954 52.6981 0.0000 0.0000 0.0000
# 2 46.0954 69.8550 50.7316 0.0000 0.0000 0.0000
# 3 52.6981 50.7316 136.1344 0.0000 0.0000 0.0000
# 4 0.0000 0.0000 0.0000 31.6126 0.0000 0.0000
# 5 0.0000 0.0000 0.0000 0.0000 22.1315 0.0000
# 6 0.0000 0.0000 0.0000 0.0000 0.0000 89.8215
#
#
#
# Elastic Compliance Matrix: (Units=1/GPa)
#
#
# Indices 1 2 3 4 5 6 
#
# 1 0.021155 -0.010985 -0.004095 0.000000 0.000000 0.000000
# 2 -0.010985 0.025332 -0.005188 0.000000 0.000000 0.000000
# 3 -0.004095 -0.005188 0.010864 0.000000 0.000000 0.000000
# 4 0.000000 0.000000 0.000000 0.031633 0.000000 0.000000
# 5 0.000000 0.000000 0.000000 0.000000 0.045184 0.000000
# 6 0.000000 0.000000 0.000000 0.000000 0.000000 0.011133
#
#
# Mechanical properties :
#
#
# Convention : Reuss Voigt Hill
#
# Bulk Modulus (GPa) = 59.47337 65.16090 62.31714
# Shear Modulus (GPa) = 26.11745 37.90466 32.01105
#
# Velocity S-wave (km/s) = 3.91547 4.71699 4.33479
# Velocity P-wave (km/s) = 7.43989 8.24111 7.85073
#
# Compressibility (1/GPa) = 0.01681425
#
# Stress axis : x y z
#
# Youngs Moduli (GPa) = 47.27020 39.47616 92.04527
#
# Poissons Ratio (x) = 0.43366 0.37696
# Poissons Ratio (y) = 0.51928 0.47749
# Poissons Ratio (z) = 0.19359 0.20479
#
# Static dielectric constant tensor:
#      x y z
#    x 1.550990 0.000000 0.000000 
#    y 0.000000 1.586870 0.000000 
#    z 0.000000 0.000000 1.584840 
# 
# From -- ./inp_files/25192.got.cif
#   From: 2010.05.17/outbox.cif.g08.bks.cpg/sg69_13_cif.got.tgz:25192.got - 2010.06.03 19:29:58.
