data_PCOD9511490
_publ_section_title
;
Structure prediction by ZEFSAII (Michael W. Deem and Ramdas Pophale) SiO2 
 PCOD9511490
Probable space group: F M M M
;
_chemical_formula_sum "Si O2"
_cell_formula_units_Z 128
_cell_length_a 19.876696
_cell_length_b 13.598607
_cell_length_c 28.144783
_cell_angle_alpha 90.000000
_cell_angle_beta 90.000000
_cell_angle_gamma 90.000000
_cell_volume 7607.404742
_symmetry_space_group_name_H-M "F M M M"
_symmetry_group_IT_number 69
_symmetry_cell_setting 'orthorhombic'
loop_
_space_group_symop_operation_xyz
x,y,z
-x,-y,z
x,-y,-z
-x,y,-z
-x,-y,-z
x,y,-z
-x,y,z
x,-y,z
x,1/2+y,1/2+z
-x,1/2-y,1/2+z
x,1/2-y,1/2-z
-x,1/2+y,1/2-z
-x,1/2-y,1/2-z
x,1/2+y,1/2-z
-x,1/2+y,1/2+z
x,1/2-y,1/2+z
1/2+x,y,1/2+z
1/2-x,-y,1/2+z
1/2+x,-y,1/2-z
1/2-x,y,1/2-z
1/2-x,-y,1/2-z
1/2+x,y,1/2-z
1/2-x,y,1/2+z
1/2+x,-y,1/2+z
1/2+x,1/2+y,z
1/2-x,1/2-y,z
1/2+x,1/2-y,-z
1/2-x,1/2+y,-z
1/2-x,1/2-y,-z
1/2+x,1/2+y,-z
1/2-x,1/2+y,z
1/2+x,1/2-y,z
loop_
_atom_site_type_symbol
_atom_site_label
_atom_site_fract_x
_atom_site_fract_y
_atom_site_fract_z
Si Si1 0.631959 0.118201 0.114063
Si Si2 0.576625 0.880892 0.218975
Si Si3 0.250000 0.750000 0.370693
Si Si4 0.308593 0.616521 0.210726
Si Si5 0.500000 0.119132 0.945843
O O1 0.613506 0.140010 0.169171
O O2 0.696916 0.182549 0.101575
O O3 0.567296 0.145808 0.082675
O O4 0.643419 0.000000 0.110168
O O5 0.500000 0.844789 0.218910
O O6 0.621924 0.853217 0.264061
O O7 0.573682 0.000000 0.220408
O O8 0.290373 0.823347 0.335756
O O9 0.310041 0.500000 0.200534
O O10 0.250000 0.631661 0.250000
O O11 0.500000 0.000000 0.946884
O O12 0.500000 0.154834 0.000000
#
# Coordination Sequence:
#
# PCOD9511490 Si02
#       5
#    32  32  16  32  16
#     4  10  19  32  51  74  99 125 159 206 250 293
#     4   9  16  28  44  62  90 127 165 207 244 266
#     4  12  21  30  45  72 100 140 171 192 238 293
#     4  10  19  30  43  62  95 137 173 203 230 270
#     4   9  18  36  60  79  95 119 153 202 265 314
#
# _framework density 16.825710999999998
#
# number of rings (size 3 to 8) (size 9 to 14) (size 15 to 20)
#    0.000    2.125    3.750    1.125    0.000    0.000 
#    2.250    1.875    0.000    0.000    0.000    0.000 
#    0.000    4.000    0.000    0.000    0.000    0.000 
#
# Total GULP energy -178583.117817 kJ/mol
# GULP energy per Si atom -5580.722432 kJ/mol
# Density = 1.678742 g / cm^3
# Si number density = 16.825711 Si / 1000 Ang^3
#
#
#
# Elastic Constant Matrix: (Units=GPa)
#
#
# Indices 1 2 3 4 5 6 
#
# 1 129.3202 36.7470 28.2083 0.0000 0.0000 0.0000
# 2 36.7470 76.7183 14.4314 0.0000 0.0000 0.0000
# 3 28.2083 14.4314 50.1924 0.0000 0.0000 0.0000
# 4 0.0000 0.0000 0.0000 6.1239 0.0000 0.0000
# 5 0.0000 0.0000 0.0000 0.0000 8.3804 0.0000
# 6 0.0000 0.0000 0.0000 0.0000 0.0000 21.8247
#
#
#
# Elastic Compliance Matrix: (Units=1/GPa)
#
#
# Indices 1 2 3 4 5 6 
#
# 1 0.009788 -0.003862 -0.004390 0.000000 0.000000 0.000000
# 2 -0.003862 0.015304 -0.002230 0.000000 0.000000 0.000000
# 3 -0.004390 -0.002230 0.023032 0.000000 0.000000 0.000000
# 4 0.000000 0.000000 0.000000 0.163294 0.000000 0.000000
# 5 0.000000 0.000000 0.000000 0.000000 0.119326 0.000000
# 6 0.000000 0.000000 0.000000 0.000000 0.000000 0.045820
#
#
# Mechanical properties :
#
#
# Convention : Reuss Voigt Hill
#
# Bulk Modulus (GPa) = 36.81997 46.11160 41.46579
# Shear Modulus (GPa) = 12.29768 19.05542 15.67655
#
# Velocity S-wave (km/s) = 2.70642 3.36894 3.05569
# Velocity P-wave (km/s) = 5.63001 6.52671 6.09487
#
# Compressibility (1/GPa) = 0.02715918
#
# Stress axis : x y z
#
# Youngs Moduli (GPa) = 102.16675 65.34172 43.41832
#
# Poissons Ratio (x) = 0.25238 0.19062
# Poissons Ratio (y) = 0.39461 0.09681
# Poissons Ratio (z) = 0.44854 0.14569
#
# Static dielectric constant tensor:
#      x y z
#    x 1.602990 0.000000 0.000000 
#    y 0.000000 1.605670 0.000000 
#    z 0.000000 0.000000 1.531160 
# 
# From -- ./inp_files/15358.got.cif
#   From: 2010.05.17/outbox.cif.g08.bks.cpg/sg69_8_cif.got.tgz:15358.got - 2010.06.03 19:29:58.
