data_PCOD9511634
_publ_section_title
;
Structure prediction by ZEFSAII (Michael W. Deem and Ramdas Pophale) SiO2 
 PCOD9511634
Probable space group: F M M M
;
_chemical_formula_sum "Si O2"
_cell_formula_units_Z 208
_cell_length_a 18.099799
_cell_length_b 29.026661
_cell_length_c 25.037426
_cell_angle_alpha 90.000000
_cell_angle_beta 90.000000
_cell_angle_gamma 90.000000
_cell_volume 13154.080993
_symmetry_space_group_name_H-M "F M M M"
_symmetry_group_IT_number 69
_symmetry_cell_setting 'orthorhombic'
loop_
_space_group_symop_operation_xyz
x,y,z
-x,-y,z
x,-y,-z
-x,y,-z
-x,-y,-z
x,y,-z
-x,y,z
x,-y,z
x,1/2+y,1/2+z
-x,1/2-y,1/2+z
x,1/2-y,1/2-z
-x,1/2+y,1/2-z
-x,1/2-y,1/2-z
x,1/2+y,1/2-z
-x,1/2+y,1/2+z
x,1/2-y,1/2+z
1/2+x,y,1/2+z
1/2-x,-y,1/2+z
1/2+x,-y,1/2-z
1/2-x,y,1/2-z
1/2-x,-y,1/2-z
1/2+x,y,1/2-z
1/2-x,y,1/2+z
1/2+x,-y,1/2+z
1/2+x,1/2+y,z
1/2-x,1/2-y,z
1/2+x,1/2-y,-z
1/2-x,1/2+y,-z
1/2-x,1/2-y,-z
1/2+x,1/2+y,-z
1/2-x,1/2+y,z
1/2+x,1/2-y,z
loop_
_atom_site_type_symbol
_atom_site_label
_atom_site_fract_x
_atom_site_fract_y
_atom_site_fract_z
Si Si1 0.584834 0.305899 0.750670
Si Si2 0.342854 0.801863 0.138750
Si Si3 0.586022 0.376488 0.564229
Si Si4 0.355910 0.889215 0.435633
Si Si5 0.710411 0.552630 0.564780
Si Si6 0.000000 0.052425 0.064749
Si Si7 0.834333 0.694209 0.640369
O O1 0.500000 0.321489 0.753936
O O2 0.584750 0.250000 0.750000
O O3 0.622067 0.318510 0.694624
O O4 0.631158 0.320011 0.802647
O O5 0.377819 0.832241 0.092096
O O6 0.254569 0.806878 0.142077
O O7 0.357842 0.747328 0.130850
O O8 0.590533 0.372024 0.500000
O O9 0.500000 0.381203 0.578777
O O10 0.636042 0.420353 0.580079
O O11 0.355296 0.883053 0.500000
O O12 0.281524 0.916858 0.420132
O O13 0.426492 0.919960 0.420515
O O14 0.358913 0.840721 0.405554
O O15 0.711571 0.550680 0.500000
O O16 0.714139 0.500000 0.584190
O O17 0.000000 0.000000 0.084627
O O18 0.000000 0.050228 0.000000
#
# Coordination Sequence:
#
# PCOD9511634 Si02
#       7
#    32  32  32  32  32  16  32
#     4   9  18  32  50  71  96 127 167 211 248 285
#     4  10  19  34  50  71 101 137 168 203 248 293
#     4  10  20  33  49  73 104 134 169 207 248 305
#     4  10  19  32  49  75 107 135 166 203 249 303
#     4   9  17  31  51  72  97 129 165 208 254 296
#     4   9  18  32  50  72 101 136 170 208 251 294
#     4  10  20  31  51  74 101 132 170 208 240 293
#
# _framework density 15.812583
#
# number of rings (size 3 to 8) (size 9 to 14) (size 15 to 20)
#    0.000    2.385    1.538    1.385    1.077    5.231 
#    0.000    3.077    0.000    0.000    0.000    3.231 
#    0.000    0.000    0.000    0.000    0.000    0.000 
#
# Total GULP energy -289784.431432 kJ/mol
# GULP energy per Si atom -5572.777528 kJ/mol
# Density = 1.577659 g / cm^3
# Si number density = 15.812583 Si / 1000 Ang^3
#
#
#
# Elastic Constant Matrix: (Units=GPa)
#
#
# Indices 1 2 3 4 5 6 
#
# 1 110.2930 52.1032 34.7577 0.0000 0.0000 0.0000
# 2 52.1032 100.0951 42.2926 0.0000 0.0000 0.0000
# 3 34.7577 42.2926 46.3790 0.0000 0.0000 0.0000
# 4 0.0000 0.0000 0.0000 -1.9950 0.0000 0.0000
# 5 0.0000 0.0000 0.0000 0.0000 21.6340 0.0000
# 6 0.0000 0.0000 0.0000 0.0000 0.0000 19.9457
#
#
#
# Elastic Compliance Matrix: (Units=1/GPa)
#
#
# Indices 1 2 3 4 5 6 
#
# 1 0.012907 -0.004281 -0.005769 0.000000 0.000000 0.000000
# 2 -0.004281 0.017672 -0.012907 0.000000 0.000000 0.000000
# 3 -0.005769 -0.012907 0.037655 0.000000 0.000000 0.000000
# 4 0.000000 0.000000 0.000000 -0.501265 0.000000 0.000000
# 5 0.000000 0.000000 0.000000 0.000000 0.046223 0.000000
# 6 0.000000 0.000000 0.000000 0.000000 0.000000 0.050136
#
#
# Mechanical properties :
#
#
# Convention : Reuss Voigt Hill
#
# Bulk Modulus (GPa) = 44.80275 57.23046 51.01661
# Shear Modulus (GPa) = -17.64813 16.42453 -0.61180
#
# Velocity S-wave (km/s) = -3.34441 3.22638 -0.62269
# Velocity P-wave (km/s) = 3.67175 7.08173 5.64060
#
# Compressibility (1/GPa) = 0.02232006
#
# Stress axis : x y z
#
# Youngs Moduli (GPa) = 77.47570 56.58519 26.55699
#
# Poissons Ratio (x) = 0.24225 0.15321
# Poissons Ratio (y) = 0.33168 0.34277
# Poissons Ratio (z) = 0.44697 0.73034
#
# Static dielectric constant tensor:
#      x y z
#    x 1.536470 0.000000 0.000000 
#    y 0.000000 1.518020 0.000000 
#    z 0.000000 0.000000 1.507780 
# 
# From -- ./inp_files/27908.got.cif
#   From: 2010.05.17/outbox.cif.g08.bks.cpg/sg69_14_cif.got.tgz:27908.got - 2010.06.03 19:29:58.
