data_PCOD9511727
_publ_section_title
;
Structure prediction by ZEFSAII (Michael W. Deem and Ramdas Pophale) SiO2 
 PCOD9511727
Probable space group: F M M M
;
_chemical_formula_sum "Si O2"
_cell_formula_units_Z 160
_cell_length_a 19.869291
_cell_length_b 18.732986
_cell_length_c 21.643437
_cell_angle_alpha 90.000000
_cell_angle_beta 90.000000
_cell_angle_gamma 90.000000
_cell_volume 8055.928579
_symmetry_space_group_name_H-M "F M M M"
_symmetry_group_IT_number 69
_symmetry_cell_setting 'orthorhombic'
loop_
_space_group_symop_operation_xyz
x,y,z
-x,-y,z
x,-y,-z
-x,y,-z
-x,-y,-z
x,y,-z
-x,y,z
x,-y,z
x,1/2+y,1/2+z
-x,1/2-y,1/2+z
x,1/2-y,1/2-z
-x,1/2+y,1/2-z
-x,1/2-y,1/2-z
x,1/2+y,1/2-z
-x,1/2+y,1/2+z
x,1/2-y,1/2+z
1/2+x,y,1/2+z
1/2-x,-y,1/2+z
1/2+x,-y,1/2-z
1/2-x,y,1/2-z
1/2-x,-y,1/2-z
1/2+x,y,1/2-z
1/2-x,y,1/2+z
1/2+x,-y,1/2+z
1/2+x,1/2+y,z
1/2-x,1/2-y,z
1/2+x,1/2-y,-z
1/2-x,1/2+y,-z
1/2-x,1/2-y,-z
1/2+x,1/2+y,-z
1/2-x,1/2+y,z
1/2+x,1/2-y,z
loop_
_atom_site_type_symbol
_atom_site_label
_atom_site_fract_x
_atom_site_fract_y
_atom_site_fract_z
Si Si1 0.424434 0.728982 0.071583
Si Si2 0.668335 0.419667 0.247525
Si Si3 0.733601 0.079406 0.930674
Si Si4 0.684580 0.200949 0.161018
Si Si5 0.115578 0.421744 0.393061
O O1 0.500000 0.758280 0.080623
O O2 0.370848 0.756849 0.121526
O O3 0.426022 0.644308 0.082974
O O4 0.404241 0.742894 0.000000
O O5 0.647360 0.500000 0.270011
O O6 0.750000 0.420738 0.250000
O O7 0.652521 0.346355 0.283911
O O8 0.639036 0.413800 0.178507
O O9 0.710778 0.139989 0.885110
O O10 0.814113 0.079605 0.929793
O O11 0.712509 0.000000 0.910086
O O12 0.708880 0.091414 0.000000
O O13 0.750000 0.250000 0.177178
O O14 0.084643 0.500000 0.400141
#
# Coordination Sequence:
#
# PCOD9511727 Si02
#       5
#    32  32  32  32  32
#     4  11  25  42  58  82 119 158 193 237 294 348
#     4  10  19  35  58  87 121 153 187 239 295 340
#     4  10  19  32  54  84 115 147 188 240 288 331
#     4  12  22  35  59  87 119 152 197 236 287 342
#     4  10  20  36  58  85 116 150 192 236 287 348
#
# _framework density 19.861149000000001
#
# number of rings (size 3 to 8) (size 9 to 14) (size 15 to 20)
#    0.000    1.400    4.000    1.800    0.000    5.200 
#    0.000    3.000    0.000    3.600    0.000    7.000 
#    0.000    0.000    0.000    0.000    0.000    0.000 
#
# Total GULP energy -223147.477382 kJ/mol
# GULP energy per Si atom -5578.686935 kJ/mol
# Density = 1.981594 g / cm^3
# Si number density = 19.861149 Si / 1000 Ang^3
#
#
#
# Elastic Constant Matrix: (Units=GPa)
#
#
# Indices 1 2 3 4 5 6 
#
# 1 44.9413 12.6254 13.5145 0.0000 0.0000 0.0000
# 2 12.6254 110.2893 38.9272 0.0000 0.0000 0.0000
# 3 13.5145 38.9272 89.0863 0.0000 0.0000 0.0000
# 4 0.0000 0.0000 0.0000 26.2531 0.0000 0.0000
# 5 0.0000 0.0000 0.0000 0.0000 6.5917 0.0000
# 6 0.0000 0.0000 0.0000 0.0000 0.0000 5.6585
#
#
#
# Elastic Compliance Matrix: (Units=1/GPa)
#
#
# Indices 1 2 3 4 5 6 
#
# 1 0.023581 -0.001699 -0.002835 0.000000 0.000000 0.000000
# 2 -0.001699 0.010843 -0.004480 0.000000 0.000000 0.000000
# 3 -0.002835 -0.004480 0.013613 0.000000 0.000000 0.000000
# 4 0.000000 0.000000 0.000000 0.038091 0.000000 0.000000
# 5 0.000000 0.000000 0.000000 0.000000 0.151707 0.000000
# 6 0.000000 0.000000 0.000000 0.000000 0.000000 0.176726
#
#
# Mechanical properties :
#
#
# Convention : Reuss Voigt Hill
#
# Bulk Modulus (GPa) = 33.32363 41.60568 37.46465
# Shear Modulus (GPa) = 11.29712 19.65063 15.47387
#
# Velocity S-wave (km/s) = 2.38755 3.14889 2.79427
# Velocity P-wave (km/s) = 4.94118 5.84931 5.41432
#
# Compressibility (1/GPa) = 0.03000874
#
# Stress axis : x y z
#
# Youngs Moduli (GPa) = 42.40695 92.22674 73.46032
#
# Poissons Ratio (x) = 0.15668 0.20826
# Poissons Ratio (y) = 0.07204 0.32912
# Poissons Ratio (z) = 0.12022 0.41319
#
# Static dielectric constant tensor:
#      x y z
#    x 1.693010 0.000000 0.000000 
#    y 0.000000 1.746440 0.000000 
#    z 0.000000 0.000000 1.745970 
# 
# From -- ./inp_files/24557.got.cif
#   From: 2010.05.17/outbox.cif.g08.bks.cpg/sg69_13_cif.got.tgz:24557.got - 2010.06.03 19:29:58.
