data_PCOD9511173
_publ_section_title
;
Structure prediction by ZEFSAII (Michael W. Deem and Ramdas Pophale) SiO2 
 PCOD9511173
Probable space group: F M M M
;
_chemical_formula_sum "Si O2"
_cell_formula_units_Z 192
_cell_length_a 14.006919
_cell_length_b 26.050344
_cell_length_c 28.207420
_cell_angle_alpha 90.000000
_cell_angle_beta 90.000000
_cell_angle_gamma 90.000000
_cell_volume 10292.466092
_symmetry_space_group_name_H-M "F M M M"
_symmetry_group_IT_number 69
_symmetry_cell_setting 'orthorhombic'
loop_
_space_group_symop_operation_xyz
x,y,z
-x,-y,z
x,-y,-z
-x,y,-z
-x,-y,-z
x,y,-z
-x,y,z
x,-y,z
x,1/2+y,1/2+z
-x,1/2-y,1/2+z
x,1/2-y,1/2-z
-x,1/2+y,1/2-z
-x,1/2-y,1/2-z
x,1/2+y,1/2-z
-x,1/2+y,1/2+z
x,1/2-y,1/2+z
1/2+x,y,1/2+z
1/2-x,-y,1/2+z
1/2+x,-y,1/2-z
1/2-x,y,1/2-z
1/2-x,-y,1/2-z
1/2+x,y,1/2-z
1/2-x,y,1/2+z
1/2+x,-y,1/2+z
1/2+x,1/2+y,z
1/2-x,1/2-y,z
1/2+x,1/2-y,-z
1/2-x,1/2+y,-z
1/2-x,1/2-y,-z
1/2+x,1/2+y,-z
1/2-x,1/2+y,z
1/2+x,1/2-y,z
loop_
_atom_site_type_symbol
_atom_site_label
_atom_site_fract_x
_atom_site_fract_y
_atom_site_fract_z
Si Si1 0.110795 0.808386 0.244594
Si Si2 0.649345 0.809802 0.922236
Si Si3 0.105695 0.132067 0.148587
Si Si4 0.500000 0.105034 0.050892
Si Si5 0.817064 0.128224 0.329412
Si Si6 0.867429 0.695083 0.554019
Si Si7 0.000000 0.058833 0.349521
O O1 0.141652 0.750000 0.250000
O O2 0.111417 0.824756 0.189697
O O3 0.169700 0.845842 0.278486
O O4 0.000000 0.811748 0.260815
O O5 0.588120 0.855734 0.943746
O O6 0.662673 0.826106 0.867463
O O7 0.752998 0.808075 0.945175
O O8 0.607214 0.753328 0.930658
O O9 0.210903 0.106664 0.157423
O O10 0.103871 0.156589 0.096158
O O11 0.000000 0.106430 0.155641
O O12 0.500000 0.065672 0.093718
O O13 0.500000 0.079833 0.000000
O O14 0.903074 0.087503 0.333592
O O15 0.898368 0.684922 0.500000
O O16 0.000000 0.000000 0.334757
#
# Coordination Sequence:
#
# PCOD9511173 Si02
#       7
#    32  32  32  16  32  32  16
#     4  10  19  32  54  82 114 147 183 221 264 315
#     4   9  18  28  45  71 102 142 190 225 261 308
#     4  10  22  33  47  77 108 148 186 218 254 314
#     4  10  18  29  48  75 106 135 168 222 282 327
#     4  10  19  36  57  77 108 143 174 229 275 323
#     4  10  18  30  44  64 105 153 195 227 249 290
#     4  10  22  39  61  85 100 127 179 229 285 343
#
# _framework density 18.654422
#
# number of rings (size 3 to 8) (size 9 to 14) (size 15 to 20)
#    0.000    2.167    0.833    3.500    1.167    3.167 
#    0.000    0.000    0.000    2.500    0.000    0.000 
#    0.000    0.000    0.000   12.167    0.000    0.000 
#
# Total GULP energy -267394.054048 kJ/mol
# GULP energy per Si atom -5570.709459 kJ/mol
# Density = 1.861196 g / cm^3
# Si number density = 18.654422 Si / 1000 Ang^3
#
#
#
# Elastic Constant Matrix: (Units=GPa)
#
#
# Indices 1 2 3 4 5 6 
#
# 1 169.8170 35.4746 27.7265 0.0000 0.0000 0.0000
# 2 35.4746 52.8998 24.5357 0.0000 0.0000 0.0000
# 3 27.7265 24.5357 116.8680 0.0000 0.0000 0.0000
# 4 0.0000 0.0000 0.0000 1.5209 0.0000 0.0000
# 5 0.0000 0.0000 0.0000 0.0000 2.3831 0.0000
# 6 0.0000 0.0000 0.0000 0.0000 0.0000 -3.4985
#
#
#
# Elastic Compliance Matrix: (Units=1/GPa)
#
#
# Indices 1 2 3 4 5 6 
#
# 1 0.006905 -0.004288 -0.000738 0.000000 0.000000 0.000000
# 2 -0.004288 0.023606 -0.003939 0.000000 0.000000 0.000000
# 3 -0.000738 -0.003939 0.009559 0.000000 0.000000 0.000000
# 4 0.000000 0.000000 0.000000 0.657507 0.000000 0.000000
# 5 0.000000 0.000000 0.000000 0.000000 0.419618 0.000000
# 6 0.000000 0.000000 0.000000 0.000000 0.000000 -0.285836
#
#
# Mechanical properties :
#
#
# Convention : Reuss Voigt Hill
#
# Bulk Modulus (GPa) = 45.16656 57.22871 51.19764
# Shear Modulus (GPa) = 5.83656 16.87097 11.35377
#
# Velocity S-wave (km/s) = 1.77076 3.01058 2.46973
# Velocity P-wave (km/s) = 5.33344 6.54444 5.96973
#
# Compressibility (1/GPa) = 0.02214027
#
# Stress axis : x y z
#
# Youngs Moduli (GPa) = 144.82308 42.36190 104.61779
#
# Poissons Ratio (x) = 0.18166 0.07720
# Poissons Ratio (y) = 0.62103 0.41205
# Poissons Ratio (z) = 0.10686 0.16685
#
# Static dielectric constant tensor:
#      x y z
#    x 1.761410 0.000000 0.000000 
#    y 0.000000 1.579110 0.000000 
#    z 0.000000 0.000000 1.669290 
# 
# From -- ./inp_files/41160.got.cif
#   From: 2010.05.17/outbox.cif.g08.bks.cpg/sg69_21_cif.got.tgz:41160.got - 2010.06.03 19:29:58.
