data_PCOD9511061
_publ_section_title
;
Structure prediction by ZEFSAII (Michael W. Deem and Ramdas Pophale) SiO2 
 PCOD9511061
Probable space group: F M M M
;
_chemical_formula_sum "Si O2"
_cell_formula_units_Z 192
_cell_length_a 21.157914
_cell_length_b 18.867395
_cell_length_c 28.210278
_cell_angle_alpha 90.000000
_cell_angle_beta 90.000000
_cell_angle_gamma 90.000000
_cell_volume 11261.394050
_symmetry_space_group_name_H-M "F M M M"
_symmetry_group_IT_number 69
_symmetry_cell_setting 'orthorhombic'
loop_
_space_group_symop_operation_xyz
x,y,z
-x,-y,z
x,-y,-z
-x,y,-z
-x,-y,-z
x,y,-z
-x,y,z
x,-y,z
x,1/2+y,1/2+z
-x,1/2-y,1/2+z
x,1/2-y,1/2-z
-x,1/2+y,1/2-z
-x,1/2-y,1/2-z
x,1/2+y,1/2-z
-x,1/2+y,1/2+z
x,1/2-y,1/2+z
1/2+x,y,1/2+z
1/2-x,-y,1/2+z
1/2+x,-y,1/2-z
1/2-x,y,1/2-z
1/2-x,-y,1/2-z
1/2+x,y,1/2-z
1/2-x,y,1/2+z
1/2+x,-y,1/2+z
1/2+x,1/2+y,z
1/2-x,1/2-y,z
1/2+x,1/2-y,-z
1/2-x,1/2+y,-z
1/2-x,1/2-y,-z
1/2+x,1/2+y,-z
1/2-x,1/2+y,z
1/2+x,1/2-y,z
loop_
_atom_site_type_symbol
_atom_site_label
_atom_site_fract_x
_atom_site_fract_y
_atom_site_fract_z
Si Si1 0.074782 0.319087 0.218527
Si Si2 0.622651 0.182134 0.113999
Si Si3 0.256852 0.336178 0.445366
Si Si4 0.500000 0.854459 0.554049
Si Si5 0.572126 0.415758 0.805938
Si Si6 0.628683 0.147283 0.604665
Si Si7 0.500000 0.818368 0.055056
O O1 0.092658 0.250000 0.250000
O O2 0.111953 0.329319 0.169761
O O3 0.082472 0.384829 0.253804
O O4 0.000000 0.310239 0.206489
O O5 0.684881 0.149977 0.089841
O O6 0.626169 0.267512 0.108599
O O7 0.561990 0.158477 0.083559
O O8 0.267884 0.357896 0.500000
O O9 0.250000 0.250000 0.446348
O O10 0.192280 0.368143 0.424239
O O11 0.500000 0.877371 0.500000
O O12 0.434993 0.877629 0.578320
O O13 0.500000 0.768090 0.555171
O O14 0.500000 0.392090 0.819293
O O15 0.573854 0.500000 0.806698
O O16 0.621865 0.384408 0.843007
O O17 0.500000 0.840133 0.000000
#
# Coordination Sequence:
#
# PCOD9511061 Si02
#       7
#    32  32  32  16  32  32  16
#     4  10  18  29  51  76 102 133 173 220 260 311
#     4  10  17  28  47  74 101 135 171 208 259 311
#     4   9  18  30  46  70 104 136 167 211 262 307
#     4   9  16  24  42  68  92 126 173 208 246 299
#     4  10  20  33  51  76 105 137 172 213 260 309
#     4  10  17  29  48  69 100 138 171 208 255 304
#     4   9  16  24  40  70 103 127 159 207 257 307
#
# _framework density 17.049399000000001
#
# number of rings (size 3 to 8) (size 9 to 14) (size 15 to 20)
#    0.000    2.333    3.333    1.000    0.000    4.000 
#    0.000    0.833    0.000    4.500    0.000    0.000 
#    0.000    2.667    0.000    0.000    0.000    0.000 
#
# Total GULP energy -267446.188053 kJ/mol
# GULP energy per Si atom -5571.795584 kJ/mol
# Density = 1.701059 g / cm^3
# Si number density = 17.049399 Si / 1000 Ang^3
#
#
#
# Elastic Constant Matrix: (Units=GPa)
#
#
# Indices 1 2 3 4 5 6 
#
# 1 126.1445 17.2281 88.3379 0.0000 0.0000 0.0000
# 2 17.2281 10.1975 9.6018 0.0000 0.0000 0.0000
# 3 88.3379 9.6018 162.5720 0.0000 0.0000 0.0000
# 4 0.0000 0.0000 0.0000 4.1360 0.0000 0.0000
# 5 0.0000 0.0000 0.0000 0.0000 31.8381 0.0000
# 6 0.0000 0.0000 0.0000 0.0000 0.0000 7.9104
#
#
#
# Elastic Compliance Matrix: (Units=1/GPa)
#
#
# Indices 1 2 3 4 5 6 
#
# 1 0.015832 -0.019745 -0.007436 0.000000 0.000000 0.000000
# 2 -0.019745 0.128462 0.003142 0.000000 0.000000 0.000000
# 3 -0.007436 0.003142 0.010006 0.000000 0.000000 0.000000
# 4 0.000000 0.000000 0.000000 0.241780 0.000000 0.000000
# 5 0.000000 0.000000 0.000000 0.000000 0.031409 0.000000
# 6 0.000000 0.000000 0.000000 0.000000 0.000000 0.126415
#
#
# Mechanical properties :
#
#
# Convention : Reuss Voigt Hill
#
# Bulk Modulus (GPa) = 9.41429 58.80552 34.10990
# Shear Modulus (GPa) = 7.84449 21.02665 14.43557
#
# Velocity S-wave (km/s) = 2.14733 3.51562 2.91295
# Velocity P-wave (km/s) = 3.41786 7.14462 5.60033
#
# Compressibility (1/GPa) = 0.10622146
#
# Stress axis : x y z
#
# Youngs Moduli (GPa) = 63.16441 7.78437 99.93641
#
# Poissons Ratio (x) = 0.15370 0.74317
# Poissons Ratio (y) = 1.24716 -0.31395
# Poissons Ratio (z) = 0.46972 -0.02445
#
# Static dielectric constant tensor:
#      x y z
#    x 1.589750 0.000000 0.000000 
#    y 0.000000 1.554040 0.000000 
#    z 0.000000 0.000000 1.580680 
# 
# From -- ./inp_files/42805.got.cif
#   From: 2010.05.17/outbox.cif.g08.bks.cpg/sg69_22_cif.got.tgz:42805.got - 2010.06.03 19:29:58.
