data_PCOD9511407
_publ_section_title
;
Structure prediction by ZEFSAII (Michael W. Deem and Ramdas Pophale) SiO2 
 PCOD9511407
Probable space group: F M M M
;
_chemical_formula_sum "Si O2"
_cell_formula_units_Z 176
_cell_length_a 19.704390
_cell_length_b 17.465463
_cell_length_c 28.259311
_cell_angle_alpha 90.000000
_cell_angle_beta 90.000000
_cell_angle_gamma 90.000000
_cell_volume 9725.337165
_symmetry_space_group_name_H-M "F M M M"
_symmetry_group_IT_number 69
_symmetry_cell_setting 'orthorhombic'
loop_
_space_group_symop_operation_xyz
x,y,z
-x,-y,z
x,-y,-z
-x,y,-z
-x,-y,-z
x,y,-z
-x,y,z
x,-y,z
x,1/2+y,1/2+z
-x,1/2-y,1/2+z
x,1/2-y,1/2-z
-x,1/2+y,1/2-z
-x,1/2-y,1/2-z
x,1/2+y,1/2-z
-x,1/2+y,1/2+z
x,1/2-y,1/2+z
1/2+x,y,1/2+z
1/2-x,-y,1/2+z
1/2+x,-y,1/2-z
1/2-x,y,1/2-z
1/2-x,-y,1/2-z
1/2+x,y,1/2-z
1/2-x,y,1/2+z
1/2+x,-y,1/2+z
1/2+x,1/2+y,z
1/2-x,1/2-y,z
1/2+x,1/2-y,-z
1/2-x,1/2+y,-z
1/2-x,1/2-y,-z
1/2+x,1/2+y,-z
1/2-x,1/2+y,z
1/2+x,1/2-y,z
loop_
_atom_site_type_symbol
_atom_site_label
_atom_site_fract_x
_atom_site_fract_y
_atom_site_fract_z
Si Si1 0.152378 0.678732 0.414013
Si Si2 0.581987 0.317425 0.183563
Si Si3 0.195533 0.839370 0.555480
Si Si4 0.581414 0.409428 0.000000
Si Si5 0.417709 0.645423 0.712792
Si Si6 0.422111 0.500000 0.657827
Si Si7 0.118511 0.000000 0.446925
O O1 0.120341 0.658767 0.363627
O O2 0.149579 0.770510 0.424030
O O3 0.232169 0.660335 0.418569
O O4 0.113099 0.632477 0.454551
O O5 0.500000 0.321344 0.177014
O O6 0.599754 0.362338 0.231783
O O7 0.601873 0.229164 0.194278
O O8 0.207509 0.821665 0.500000
O O9 0.162118 0.922503 0.556761
O O10 0.598253 0.500000 0.000000
O O11 0.500000 0.401824 0.000000
O O12 0.500000 0.647214 0.711184
O O13 0.391343 0.577004 0.680106
O O14 0.500000 0.500000 0.674323
O O15 0.423423 0.500000 0.601340
O O16 0.086838 0.000000 0.500000
#
# Coordination Sequence:
#
# PCOD9511407 Si02
#       7
#    32  32  32  16  32  16  16
#     4  11  19  35  58  76 107 141 189 230 265 324
#     4   9  17  31  53  79 102 134 177 222 268 319
#     4  10  20  36  55  79 104 149 194 219 261 335
#     4  11  24  37  52  81 115 144 175 228 290 326
#     4   8  16  31  51  75 105 139 173 205 261 333
#     4  10  18  33  55  79 109 138 163 213 274 324
#     4  10  22  35  57  83 111 135 180 222 265 325
#
# _framework density 18.097059000000002
#
# number of rings (size 3 to 8) (size 9 to 14) (size 15 to 20)
#    0.000    2.273    1.818    3.273    1.273    0.182 
#    1.636    0.909    0.000   19.636    0.000    0.000 
#    0.000    0.000    0.000    0.000    0.000    0.000 
#
# Total GULP energy -245190.287262 kJ/mol
# GULP energy per Si atom -5572.506529 kJ/mol
# Density = 1.805587 g / cm^3
# Si number density = 18.097059 Si / 1000 Ang^3
#
#
#
# Elastic Constant Matrix: (Units=GPa)
#
#
# Indices 1 2 3 4 5 6 
#
# 1 32.8884 18.2931 23.4098 0.0000 0.0000 0.0000
# 2 18.2931 88.9857 26.4792 0.0000 0.0000 0.0000
# 3 23.4098 26.4792 142.3295 0.0000 0.0000 0.0000
# 4 0.0000 0.0000 0.0000 -503.3858 0.0000 0.0000
# 5 0.0000 0.0000 0.0000 0.0000 9.8093 0.0000
# 6 0.0000 0.0000 0.0000 0.0000 0.0000 14.0432
#
#
#
# Elastic Compliance Matrix: (Units=1/GPa)
#
#
# Indices 1 2 3 4 5 6 
#
# 1 0.037415 -0.006204 -0.005000 0.000000 0.000000 0.000000
# 2 -0.006204 0.012925 -0.001384 0.000000 0.000000 0.000000
# 3 -0.005000 -0.001384 0.008106 0.000000 0.000000 0.000000
# 4 0.000000 0.000000 0.000000 -0.001987 0.000000 0.000000
# 5 0.000000 0.000000 0.000000 0.000000 0.101944 0.000000
# 6 0.000000 0.000000 0.000000 0.000000 0.000000 0.071209
#
#
# Mechanical properties :
#
#
# Convention : Reuss Voigt Hill
#
# Bulk Modulus (GPa) = 30.05660 44.50753 37.28207
# Shear Modulus (GPa) = 18.80562 -82.83855 -32.01647
#
# Velocity S-wave (km/s) = 3.22709 -6.77303 -4.21069
# Velocity P-wave (km/s) = 5.52540 6.04302 1.73032
#
# Compressibility (1/GPa) = 0.03327056
#
# Stress axis : x y z
#
# Youngs Moduli (GPa) = 26.72700 77.36945 123.36833
#
# Poissons Ratio (x) = 0.47999 0.61681
# Poissons Ratio (y) = 0.16581 0.17077
# Poissons Ratio (z) = 0.13363 0.10710
#
# Static dielectric constant tensor:
#      x y z
#    x 1.602900 0.000000 0.000000 
#    y 0.000000 1.648090 0.000000 
#    z 0.000000 0.000000 1.626680 
# 
# From -- ./inp_files/41918.got.cif
#   From: 2010.05.17/outbox.cif.g08.bks.cpg/sg69_21_cif.got.tgz:41918.got - 2010.06.03 19:29:58.
