data_PCOD9511876
_publ_section_title
;
Structure prediction by ZEFSAII (Michael W. Deem and Ramdas Pophale) SiO2 
 PCOD9511876
Probable space group: F M M M
;
_chemical_formula_sum "Si O2"
_cell_formula_units_Z 160
_cell_length_a 14.429682
_cell_length_b 26.438401
_cell_length_c 24.274312
_cell_angle_alpha 90.000000
_cell_angle_beta 90.000000
_cell_angle_gamma 90.000000
_cell_volume 9260.594659
_symmetry_space_group_name_H-M "F M M M"
_symmetry_group_IT_number 69
_symmetry_cell_setting 'orthorhombic'
loop_
_space_group_symop_operation_xyz
x,y,z
-x,-y,z
x,-y,-z
-x,y,-z
-x,-y,-z
x,y,-z
-x,y,z
x,-y,z
x,1/2+y,1/2+z
-x,1/2-y,1/2+z
x,1/2-y,1/2-z
-x,1/2+y,1/2-z
-x,1/2-y,1/2-z
x,1/2+y,1/2-z
-x,1/2+y,1/2+z
x,1/2-y,1/2+z
1/2+x,y,1/2+z
1/2-x,-y,1/2+z
1/2+x,-y,1/2-z
1/2-x,y,1/2-z
1/2-x,-y,1/2-z
1/2+x,y,1/2-z
1/2-x,y,1/2+z
1/2+x,-y,1/2+z
1/2+x,1/2+y,z
1/2-x,1/2-y,z
1/2+x,1/2-y,-z
1/2-x,1/2+y,-z
1/2-x,1/2-y,-z
1/2+x,1/2+y,-z
1/2-x,1/2+y,z
1/2+x,1/2-y,z
loop_
_atom_site_type_symbol
_atom_site_label
_atom_site_fract_x
_atom_site_fract_y
_atom_site_fract_z
Si Si1 0.107669 0.500000 0.388543
Si Si2 0.245495 0.417696 0.565825
Si Si3 0.891625 0.244914 0.316156
Si Si4 0.891953 0.500000 0.744569
Si Si5 0.737902 0.334642 0.152330
Si Si6 0.250000 0.586444 0.750000
Si Si7 0.395185 0.500000 0.566978
O O1 0.159661 0.548636 0.413052
O O2 0.115653 0.500000 0.322233
O O3 0.000000 0.500000 0.403016
O O4 0.243613 0.414416 0.500000
O O5 0.243818 0.363851 0.595020
O O6 0.335962 0.450627 0.582804
O O7 0.880801 0.250000 0.250000
O O8 0.830514 0.197363 0.335105
O O9 0.845707 0.294755 0.342623
O O10 0.000000 0.239970 0.328736
O O11 0.835676 0.450628 0.763856
O O12 0.000000 0.500000 0.759529
O O13 0.726908 0.377566 0.198887
O O14 0.500000 0.500000 0.587760
O O15 0.397917 0.500000 0.500000
#
# Coordination Sequence:
#
# PCOD9511876 Si02
#       7
#    16  32  32  16  32  16  16
#     4  10  19  34  54  77 111 148 186 224 256 309
#     4  10  21  35  54  80 109 145 184 219 261 315
#     4  10  21  37  58  83 105 131 176 227 273 324
#     4  10  22  34  50  83 120 149 175 216 272 318
#     4  11  20  37  57  79 108 139 175 223 271 320
#     4  11  20  35  56  78 112 147 176 219 268 320
#     4   8  16  33  54  75 103 141 185 224 252 293
#
# _framework density 17.277507
#
# number of rings (size 3 to 8) (size 9 to 14) (size 15 to 20)
#    0.000    1.900    4.000    1.500    0.000    4.000 
#    0.000    3.000    0.000    1.200    0.000    0.000 
#    0.000    0.000    0.000    0.000    0.000    0.000 
#
# Total GULP energy -223296.696620 kJ/mol
# GULP energy per Si atom -5582.417415 kJ/mol
# Density = 1.723818 g / cm^3
# Si number density = 17.277507 Si / 1000 Ang^3
#
#
#
# Elastic Constant Matrix: (Units=GPa)
#
#
# Indices 1 2 3 4 5 6 
#
# 1 131.3731 44.6397 5.4761 0.0000 0.0000 0.0000
# 2 44.6397 107.8772 14.7211 0.0000 0.0000 0.0000
# 3 5.4761 14.7211 36.1653 0.0000 0.0000 0.0000
# 4 0.0000 0.0000 0.0000 30.8406 0.0000 0.0000
# 5 0.0000 0.0000 0.0000 0.0000 11.7430 0.0000
# 6 0.0000 0.0000 0.0000 0.0000 0.0000 5.0545
#
#
#
# Elastic Compliance Matrix: (Units=1/GPa)
#
#
# Indices 1 2 3 4 5 6 
#
# 1 0.008858 -0.003687 0.000160 0.000000 0.000000 0.000000
# 2 -0.003687 0.011350 -0.004062 0.000000 0.000000 0.000000
# 3 0.000160 -0.004062 0.029280 0.000000 0.000000 0.000000
# 4 0.000000 0.000000 0.000000 0.032425 0.000000 0.000000
# 5 0.000000 0.000000 0.000000 0.000000 0.085157 0.000000
# 6 0.000000 0.000000 0.000000 0.000000 0.000000 0.197845
#
#
# Mechanical properties :
#
#
# Convention : Reuss Voigt Hill
#
# Bulk Modulus (GPa) = 29.14657 45.00994 37.07826
# Shear Modulus (GPa) = 12.77040 23.56618 18.16829
#
# Velocity S-wave (km/s) = 2.72165 3.69722 3.24629
# Velocity P-wave (km/s) = 5.17521 6.65835 5.96307
#
# Compressibility (1/GPa) = 0.03430935
#
# Stress axis : x y z
#
# Youngs Moduli (GPa) = 112.89005 88.10670 34.15305
#
# Poissons Ratio (x) = 0.32488 -0.00545
# Poissons Ratio (y) = 0.41626 0.13872
# Poissons Ratio (z) = -0.01802 0.35786
#
# Static dielectric constant tensor:
#      x y z
#    x 1.581720 0.000000 0.000000 
#    y 0.000000 1.562890 0.000000 
#    z 0.000000 0.000000 1.596530 
# 
# From -- ./inp_files/41092.got.cif
#   From: 2010.05.17/outbox.cif.g08.bks.cpg/sg69_21_cif.got.tgz:41092.got - 2010.06.03 19:29:58.
