data_PCOD9511850
_publ_section_title
;
Structure prediction by ZEFSAII (Michael W. Deem and Ramdas Pophale) SiO2 
 PCOD9511850
Probable space group: F M M M
;
_chemical_formula_sum "Si O2"
_cell_formula_units_Z 80
_cell_length_a 12.796883
_cell_length_b 16.396569
_cell_length_c 20.591208
_cell_angle_alpha 90.000000
_cell_angle_beta 90.000000
_cell_angle_gamma 90.000000
_cell_volume 4320.549706
_symmetry_space_group_name_H-M "F M M M"
_symmetry_group_IT_number 69
_symmetry_cell_setting 'orthorhombic'
loop_
_space_group_symop_operation_xyz
x,y,z
-x,-y,z
x,-y,-z
-x,y,-z
-x,-y,-z
x,y,-z
-x,y,z
x,-y,z
x,1/2+y,1/2+z
-x,1/2-y,1/2+z
x,1/2-y,1/2-z
-x,1/2+y,1/2-z
-x,1/2-y,1/2-z
x,1/2+y,1/2-z
-x,1/2+y,1/2+z
x,1/2-y,1/2+z
1/2+x,y,1/2+z
1/2-x,-y,1/2+z
1/2+x,-y,1/2-z
1/2-x,y,1/2-z
1/2-x,-y,1/2-z
1/2+x,y,1/2-z
1/2-x,y,1/2+z
1/2+x,-y,1/2+z
1/2+x,1/2+y,z
1/2-x,1/2-y,z
1/2+x,1/2-y,-z
1/2-x,1/2+y,-z
1/2-x,1/2-y,-z
1/2+x,1/2+y,-z
1/2-x,1/2+y,z
1/2+x,1/2-y,z
loop_
_atom_site_type_symbol
_atom_site_label
_atom_site_fract_x
_atom_site_fract_y
_atom_site_fract_z
Si Si1 0.384216 0.093016 0.787629
Si Si2 0.193892 0.663171 0.343945
Si Si3 0.500000 0.904019 0.422399
O O1 0.500000 0.110116 0.813019
O O2 0.293015 0.102749 0.839796
O O3 0.359221 0.152028 0.727196
O O4 0.382253 0.000000 0.762637
O O5 0.250000 0.750000 0.353130
O O6 0.103721 0.638829 0.393747
O O7 0.500000 0.899735 0.500000
O O8 0.500000 0.000000 0.402821
#
# Coordination Sequence:
#
# PCOD9511850 Si02
#       3
#    32  32  16
#     4  10  19  33  57  87 125 158 187 230 288 358
#     4  11  22  34  58  86 119 148 189 243 294 340
#     4  11  24  44  65  80 109 159 207 242 280 348
#
# _framework density 18.516162999999999
#
# number of rings (size 3 to 8) (size 9 to 14) (size 15 to 20)
#    0.000    1.400    2.000    7.200    2.800    2.400 
#    0.000    0.000    0.000    0.000    0.000    5.600 
#    0.000    0.000    0.000    0.000    0.000    0.000 
#
# Total GULP energy -111509.539781 kJ/mol
# GULP energy per Si atom -5575.476989 kJ/mol
# Density = 1.847402 g / cm^3
# Si number density = 18.516163 Si / 1000 Ang^3
#
#
#
# Elastic Constant Matrix: (Units=GPa)
#
#
# Indices 1 2 3 4 5 6 
#
# 1 204.1642 59.3938 55.2391 0.0000 0.0000 0.0000
# 2 59.3938 125.0807 38.0478 0.0000 0.0000 0.0000
# 3 55.2391 38.0478 63.3283 0.0000 0.0000 0.0000
# 4 0.0000 0.0000 0.0000 9.1340 0.0000 0.0000
# 5 0.0000 0.0000 0.0000 0.0000 23.5337 0.0000
# 6 0.0000 0.0000 0.0000 0.0000 0.0000 42.8820
#
#
#
# Elastic Compliance Matrix: (Units=1/GPa)
#
#
# Indices 1 2 3 4 5 6 
#
# 1 0.006700 -0.001718 -0.004812 0.000000 0.000000 0.000000
# 2 -0.001718 0.010223 -0.004644 0.000000 0.000000 0.000000
# 3 -0.004812 -0.004644 0.022778 0.000000 0.000000 0.000000
# 4 0.000000 0.000000 0.000000 0.109481 0.000000 0.000000
# 5 0.000000 0.000000 0.000000 0.000000 0.042492 0.000000
# 6 0.000000 0.000000 0.000000 0.000000 0.000000 0.023320
#
#
# Mechanical properties :
#
#
# Convention : Reuss Voigt Hill
#
# Bulk Modulus (GPa) = 57.62360 77.54828 67.58594
# Shear Modulus (GPa) = 20.56551 31.10277 25.83414
#
# Velocity S-wave (km/s) = 3.33630 4.10294 3.73932
# Velocity P-wave (km/s) = 6.78450 8.02607 7.43126
#
# Compressibility (1/GPa) = 0.01735400
#
# Stress axis : x y z
#
# Youngs Moduli (GPa) = 149.26283 97.81872 43.90196
#
# Poissons Ratio (x) = 0.16801 0.21125
# Poissons Ratio (y) = 0.25636 0.20387
# Poissons Ratio (z) = 0.71824 0.45426
#
# Static dielectric constant tensor:
#      x y z
#    x 1.674870 0.000000 0.000000 
#    y 0.000000 1.702960 0.000000 
#    z 0.000000 0.000000 1.603540 
# 
# From -- ./inp_files/13105.got.cif
#   From: 2010.05.17/outbox.cif.g08.bks.cpg/sg69_7_cif.got.tgz:13105.got - 2010.06.03 19:29:58.
