data_PCOD9511494
_publ_section_title
;
Structure prediction by ZEFSAII (Michael W. Deem and Ramdas Pophale) SiO2 
 PCOD9511494
Probable space group: F M M M
;
_chemical_formula_sum "Si O2"
_cell_formula_units_Z 192
_cell_length_a 19.889838
_cell_length_b 30.741896
_cell_length_c 19.946792
_cell_angle_alpha 90.000000
_cell_angle_beta 90.000000
_cell_angle_gamma 90.000000
_cell_volume 12196.492523
_symmetry_space_group_name_H-M "F M M M"
_symmetry_group_IT_number 69
_symmetry_cell_setting 'orthorhombic'
loop_
_space_group_symop_operation_xyz
x,y,z
-x,-y,z
x,-y,-z
-x,y,-z
-x,-y,-z
x,y,-z
-x,y,z
x,-y,z
x,1/2+y,1/2+z
-x,1/2-y,1/2+z
x,1/2-y,1/2-z
-x,1/2+y,1/2-z
-x,1/2-y,1/2-z
x,1/2+y,1/2-z
-x,1/2+y,1/2+z
x,1/2-y,1/2+z
1/2+x,y,1/2+z
1/2-x,-y,1/2+z
1/2+x,-y,1/2-z
1/2-x,y,1/2-z
1/2-x,-y,1/2-z
1/2+x,y,1/2-z
1/2-x,y,1/2+z
1/2+x,-y,1/2+z
1/2+x,1/2+y,z
1/2-x,1/2-y,z
1/2+x,1/2-y,-z
1/2-x,1/2+y,-z
1/2-x,1/2-y,-z
1/2+x,1/2+y,-z
1/2-x,1/2+y,z
1/2+x,1/2-y,z
loop_
_atom_site_type_symbol
_atom_site_label
_atom_site_fract_x
_atom_site_fract_y
_atom_site_fract_z
Si Si1 0.250089 0.298469 0.861526
Si Si2 0.675538 0.448272 0.279388
Si Si3 0.922115 0.116733 0.797447
Si Si4 0.362646 0.298139 0.256648
Si Si5 0.329383 0.375465 0.924634
Si Si6 0.779774 0.551311 0.925114
O O1 0.250000 0.250000 0.892072
O O2 0.304668 0.297831 0.800911
O O3 0.178159 0.305316 0.825806
O O4 0.276181 0.336988 0.908147
O O5 0.665167 0.500000 0.269747
O O6 0.750000 0.437646 0.250000
O O7 0.621140 0.419699 0.241052
O O8 0.676617 0.438686 0.359133
O O9 0.911304 0.162189 0.758437
O O10 0.887631 0.123669 0.869764
O O11 0.000000 0.105454 0.802226
O O12 0.393505 0.250000 0.250000
O O13 0.287090 0.419975 0.919901
O O14 0.354870 0.370173 0.000000
O O15 0.763966 0.500000 0.920793
O O16 0.808809 0.559405 0.000000
#
# Coordination Sequence:
#
# PCOD9511494 Si02
#       6
#    32  32  32  32  32  32
#     4   8  14  26  46  71  93 117 155 206 252 287
#     4  10  19  33  54  75  96 126 161 202 245 284
#     4  11  22  32  47  71  99 132 166 202 240 287
#     4   8  15  28  47  69  94 122 155 202 253 293
#     4  10  19  30  45  66  97 133 164 198 240 287
#     4   9  17  30  51  77  98 119 154 197 242 289
#
# _framework density 15.742229999999999
#
# number of rings (size 3 to 8) (size 9 to 14) (size 15 to 20)
#    0.000    2.667    1.667    2.000    2.333    1.333 
#    0.000    0.000    0.000    0.500    0.000    5.833 
#    0.000    0.000    0.000    0.000    0.000    0.000 
#
# Total GULP energy -267280.613754 kJ/mol
# GULP energy per Si atom -5568.346120 kJ/mol
# Density = 1.570640 g / cm^3
# Si number density = 15.742230 Si / 1000 Ang^3
#
#
#
# Elastic Constant Matrix: (Units=GPa)
#
#
# Indices 1 2 3 4 5 6 
#
# 1 81.0385 47.8884 47.9216 0.0000 0.0000 0.0000
# 2 47.8884 62.0696 48.2057 0.0000 0.0000 0.0000
# 3 47.9216 48.2057 108.8963 0.0000 0.0000 0.0000
# 4 0.0000 0.0000 0.0000 7.5679 0.0000 0.0000
# 5 0.0000 0.0000 0.0000 0.0000 10.8138 0.0000
# 6 0.0000 0.0000 0.0000 0.0000 0.0000 9.8305
#
#
#
# Elastic Compliance Matrix: (Units=1/GPa)
#
#
# Indices 1 2 3 4 5 6 
#
# 1 0.023540 -0.015417 -0.003535 0.000000 0.000000 0.000000
# 2 -0.015417 0.034649 -0.008554 0.000000 0.000000 0.000000
# 3 -0.003535 -0.008554 0.014525 0.000000 0.000000 0.000000
# 4 0.000000 0.000000 0.000000 0.132137 0.000000 0.000000
# 5 0.000000 0.000000 0.000000 0.000000 0.092474 0.000000
# 6 0.000000 0.000000 0.000000 0.000000 0.000000 0.101724
#
#
# Mechanical properties :
#
#
# Convention : Reuss Voigt Hill
#
# Bulk Modulus (GPa) = 56.48556 60.00397 58.24477
# Shear Modulus (GPa) = 10.87049 12.84169 11.85609
#
# Velocity S-wave (km/s) = 2.63064 2.85923 2.74731
# Velocity P-wave (km/s) = 6.72209 7.00711 6.86608
#
# Compressibility (1/GPa) = 0.01770364
#
# Stress axis : x y z
#
# Youngs Moduli (GPa) = 42.48014 28.86122 68.84687
#
# Poissons Ratio (x) = 0.44495 0.24335
# Poissons Ratio (y) = 0.65491 0.58889
# Poissons Ratio (z) = 0.15015 0.24687
#
# Static dielectric constant tensor:
#      x y z
#    x 1.482530 0.000000 0.000000 
#    y 0.000000 1.553120 0.000000 
#    z 0.000000 0.000000 1.551540 
# 
# From -- ./inp_files/32128.got.cif
#   From: 2010.05.17/outbox.cif.g08.bks.cpg/sg69_17_cif.got.tgz:32128.got - 2010.06.03 19:29:58.
