data_PCOD9511464
_publ_section_title
;
Structure prediction by ZEFSAII (Michael W. Deem and Ramdas Pophale) SiO2 
 PCOD9511464
Probable space group: F M M M
;
_chemical_formula_sum "Si O2"
_cell_formula_units_Z 160
_cell_length_a 9.984961
_cell_length_b 27.679388
_cell_length_c 28.506601
_cell_angle_alpha 90.000000
_cell_angle_beta 90.000000
_cell_angle_gamma 90.000000
_cell_volume 7878.586245
_symmetry_space_group_name_H-M "F M M M"
_symmetry_group_IT_number 69
_symmetry_cell_setting 'orthorhombic'
loop_
_space_group_symop_operation_xyz
x,y,z
-x,-y,z
x,-y,-z
-x,y,-z
-x,-y,-z
x,y,-z
-x,y,z
x,-y,z
x,1/2+y,1/2+z
-x,1/2-y,1/2+z
x,1/2-y,1/2-z
-x,1/2+y,1/2-z
-x,1/2-y,1/2-z
x,1/2+y,1/2-z
-x,1/2+y,1/2+z
x,1/2-y,1/2+z
1/2+x,y,1/2+z
1/2-x,-y,1/2+z
1/2+x,-y,1/2-z
1/2-x,y,1/2-z
1/2-x,-y,1/2-z
1/2+x,y,1/2-z
1/2-x,y,1/2+z
1/2+x,-y,1/2+z
1/2+x,1/2+y,z
1/2-x,1/2-y,z
1/2+x,1/2-y,-z
1/2-x,1/2+y,-z
1/2-x,1/2-y,-z
1/2+x,1/2+y,-z
1/2-x,1/2+y,z
1/2+x,1/2-y,z
loop_
_atom_site_type_symbol
_atom_site_label
_atom_site_fract_x
_atom_site_fract_y
_atom_site_fract_z
Si Si1 0.500000 0.680443 0.392976
Si Si2 0.840407 0.595418 0.706113
Si Si3 0.276460 0.445313 0.894973
Si Si4 0.000000 0.786821 0.907714
Si Si5 0.234817 0.196626 0.166725
Si Si6 0.500000 0.420151 0.443560
Si Si7 0.000000 0.886662 0.052561
O O1 0.500000 0.730943 0.421168
O O2 0.628033 0.680502 0.358486
O O3 0.500000 0.636021 0.428281
O O4 0.750000 0.580314 0.750000
O O5 0.784627 0.569445 0.659469
O O6 0.818349 0.653046 0.698354
O O7 0.000000 0.586183 0.711118
O O8 0.326698 0.500000 0.900384
O O9 0.371967 0.407427 0.920855
O O10 0.131537 0.441726 0.918828
O O11 0.872130 0.795325 0.874644
O O12 0.000000 0.828833 0.945499
O O13 0.250000 0.250000 0.189232
O O14 0.500000 0.426552 0.500000
O O15 0.000000 0.904756 0.000000
#
# Coordination Sequence:
#
# PCOD9511464 Si02
#       7
#    16  32  32  16  32  16  16
#     4  10  20  34  67  94 133 179 219 257 325 395
#     4  12  26  45  70 100 133 171 222 277 339 406
#     4  12  26  47  69  93 134 178 222 282 338 386
#     4  10  18  38  61  96 133 175 213 267 325 395
#     4  10  19  37  64  92 131 177 219 266 325 393
#     4  12  25  43  68 103 139 177 224 274 331 396
#     4  12  23  41  72 101 129 171 226 276 333 400
#
# _framework density 20.308212000000001
#
# number of rings (size 3 to 8) (size 9 to 14) (size 15 to 20)
#    0.000    0.800    6.000    1.200    2.800    3.600 
#    0.000    1.000    0.000    6.000    0.000    0.000 
#    0.000    0.000    0.000    0.000    0.000    0.000 
#
# Total GULP energy -223544.609410 kJ/mol
# GULP energy per Si atom -5588.615235 kJ/mol
# Density = 2.026199 g / cm^3
# Si number density = 20.308212 Si / 1000 Ang^3
#
#
#
# Elastic Constant Matrix: (Units=GPa)
#
#
# Indices 1 2 3 4 5 6 
#
# 1 150.3356 3.8066 50.3229 0.0000 0.0000 0.0000
# 2 3.8066 93.5314 16.7983 0.0000 0.0000 0.0000
# 3 50.3229 16.7983 132.7638 0.0000 0.0000 0.0000
# 4 0.0000 0.0000 0.0000 -10.0678 0.0000 0.0000
# 5 0.0000 0.0000 0.0000 0.0000 18.1604 0.0000
# 6 0.0000 0.0000 0.0000 0.0000 0.0000 22.3750
#
#
#
# Elastic Compliance Matrix: (Units=1/GPa)
#
#
# Indices 1 2 3 4 5 6 
#
# 1 0.007623 0.000214 -0.002916 0.000000 0.000000 0.000000
# 2 0.000214 0.010946 -0.001466 0.000000 0.000000 0.000000
# 3 -0.002916 -0.001466 0.008823 0.000000 0.000000 0.000000
# 4 0.000000 0.000000 0.000000 -0.099327 0.000000 0.000000
# 5 0.000000 0.000000 0.000000 0.000000 0.055065 0.000000
# 6 0.000000 0.000000 0.000000 0.000000 0.000000 0.044693
#
#
# Mechanical properties :
#
#
# Convention : Reuss Voigt Hill
#
# Bulk Modulus (GPa) = 52.48122 57.60960 55.04541
# Shear Modulus (GPa) = 117.61482 26.47372 72.04427
#
# Velocity S-wave (km/s) = 7.61844 3.61445 5.96259
# Velocity P-wave (km/s) = 10.16297 6.77113 8.63522
#
# Compressibility (1/GPa) = 0.01905443
#
# Stress axis : x y z
#
# Youngs Moduli (GPa) = 131.18945 91.35603 113.33955
#
# Poissons Ratio (x) = -0.01951 0.33053
# Poissons Ratio (y) = -0.02801 0.16615
# Poissons Ratio (z) = 0.38259 0.13392
#
# Static dielectric constant tensor:
#      x y z
#    x 1.711220 0.000000 0.000000 
#    y 0.000000 1.744010 0.000000 
#    z 0.000000 0.000000 1.678770 
# 
# From -- ./inp_files/44658.got.cif
#   From: 2010.05.17/outbox.cif.g08.bks.cpg/sg69_23_cif.got.tgz:44658.got - 2010.06.03 19:29:58.
