data_PCOD9511854
_publ_section_title
;
Structure prediction by ZEFSAII (Michael W. Deem and Ramdas Pophale) SiO2 
 PCOD9511854
Probable space group: F M M M
;
_chemical_formula_sum "Si O2"
_cell_formula_units_Z 136
_cell_length_a 20.662684
_cell_length_b 13.413778
_cell_length_c 26.625078
_cell_angle_alpha 90.000000
_cell_angle_beta 90.000000
_cell_angle_gamma 90.000000
_cell_volume 7379.530586
_symmetry_space_group_name_H-M "F M M M"
_symmetry_group_IT_number 69
_symmetry_cell_setting 'orthorhombic'
loop_
_space_group_symop_operation_xyz
x,y,z
-x,-y,z
x,-y,-z
-x,y,-z
-x,-y,-z
x,y,-z
-x,y,z
x,-y,z
x,1/2+y,1/2+z
-x,1/2-y,1/2+z
x,1/2-y,1/2-z
-x,1/2+y,1/2-z
-x,1/2-y,1/2-z
x,1/2+y,1/2-z
-x,1/2+y,1/2+z
x,1/2-y,1/2+z
1/2+x,y,1/2+z
1/2-x,-y,1/2+z
1/2+x,-y,1/2-z
1/2-x,y,1/2-z
1/2-x,-y,1/2-z
1/2+x,y,1/2-z
1/2-x,y,1/2+z
1/2+x,-y,1/2+z
1/2+x,1/2+y,z
1/2-x,1/2-y,z
1/2+x,1/2-y,-z
1/2-x,1/2+y,-z
1/2-x,1/2-y,-z
1/2+x,1/2+y,-z
1/2-x,1/2+y,z
1/2+x,1/2-y,z
loop_
_atom_site_type_symbol
_atom_site_label
_atom_site_fract_x
_atom_site_fract_y
_atom_site_fract_z
Si Si1 0.816961 0.000000 0.500000
Si Si2 0.928621 0.713479 0.114252
Si Si3 0.309927 0.175874 0.665210
Si Si4 0.426022 0.831862 0.000000
Si Si5 0.327739 0.000000 0.259711
Si Si6 0.251062 0.000000 0.104634
Si Si7 0.391888 0.000000 0.153491
O O1 0.866765 0.908298 0.500000
O O2 0.770548 0.000000 0.547406
O O3 0.869651 0.763339 0.143234
O O4 0.920813 0.722847 0.053818
O O5 0.925281 0.597747 0.130924
O O6 0.000000 0.752987 0.127406
O O7 0.250000 0.250000 0.678806
O O8 0.285110 0.098926 0.622760
O O9 0.334369 0.102782 0.709297
O O10 0.500000 0.874712 0.000000
O O11 0.250000 0.000000 0.250000
O O12 0.377335 0.000000 0.213129
O O13 0.319043 0.000000 0.133094
#
# Coordination Sequence:
#
# PCOD9511854 Si02
#       7
#     8  32  32  16  16  16  16
#     4  12  17  32  56  90 121 150 184 240 310 336
#     4  11  23  39  61  88 121 156 192 239 295 351
#     4  11  21  40  60  86 119 152 198 245 289 346
#     4  10  19  33  58  86 115 156 195 226 283 365
#     4  11  22  37  61  87 112 156 206 240 286 347
#     4  11  22  35  56  90 121 148 189 243 294 336
#     4  12  20  39  56  90 120 144 195 252 285 336
#
# _framework density 18.429355999999999
#
# number of rings (size 3 to 8) (size 9 to 14) (size 15 to 20)
#    0.000    0.941    7.059    0.529    0.000    6.118 
#    0.000    8.235    0.000    0.000    0.000   10.706 
#    0.000    0.000    0.000    0.000    0.000    0.000 
#
# Total GULP energy -189633.000246 kJ/mol
# GULP energy per Si atom -5577.441184 kJ/mol
# Density = 1.838741 g / cm^3
# Si number density = 18.429356 Si / 1000 Ang^3
#
#
#
# Elastic Constant Matrix: (Units=GPa)
#
#
# Indices 1 2 3 4 5 6 
#
# 1 78.5549 20.9769 25.4047 0.0000 0.0000 0.0000
# 2 20.9769 79.2296 30.5897 0.0000 0.0000 0.0000
# 3 25.4047 30.5897 114.7201 0.0000 0.0000 0.0000
# 4 0.0000 0.0000 0.0000 16.6103 0.0000 0.0000
# 5 0.0000 0.0000 0.0000 0.0000 -13.6749 0.0000
# 6 0.0000 0.0000 0.0000 0.0000 0.0000 21.7313
#
#
#
# Elastic Compliance Matrix: (Units=1/GPa)
#
#
# Indices 1 2 3 4 5 6 
#
# 1 0.014267 -0.002851 -0.002399 0.000000 0.000000 0.000000
# 2 -0.002851 0.014640 -0.003272 0.000000 0.000000 0.000000
# 3 -0.002399 -0.003272 0.010121 0.000000 0.000000 0.000000
# 4 0.000000 0.000000 0.000000 0.060204 0.000000 0.000000
# 5 0.000000 0.000000 0.000000 0.000000 -0.073127 0.000000
# 6 0.000000 0.000000 0.000000 0.000000 0.000000 0.046017
#
#
# Mechanical properties :
#
#
# Convention : Reuss Voigt Hill
#
# Bulk Modulus (GPa) = 45.49066 47.38301 46.43684
# Shear Modulus (GPa) = 51.81689 17.96891 34.89290
#
# Velocity S-wave (km/s) = 5.30825 3.12591 4.35596
# Velocity P-wave (km/s) = 7.89351 6.22855 7.10993
#
# Compressibility (1/GPa) = 0.02198253
#
# Stress axis : x y z
#
# Youngs Moduli (GPa) = 70.09085 68.30698 98.80725
#
# Poissons Ratio (x) = 0.19475 0.23706
# Poissons Ratio (y) = 0.19983 0.32332
# Poissons Ratio (z) = 0.16816 0.22352
#
# Static dielectric constant tensor:
#      x y z
#    x 1.626720 0.000000 0.000000 
#    y 0.000000 1.772970 0.000000 
#    z 0.000000 0.000000 1.391500 
# 
# From -- ./inp_files/29125.got.cif
#   From: 2010.05.17/outbox.cif.g08.bks.cpg/sg69_15_cif.got.tgz:29125.got - 2010.06.03 19:29:58.
