data_PCOD9511532
_publ_section_title
;
Structure prediction by ZEFSAII (Michael W. Deem and Ramdas Pophale) SiO2 
 PCOD9511532
Probable space group: F M M M
;
_chemical_formula_sum "Si O2"
_cell_formula_units_Z 112
_cell_length_a 25.254290
_cell_length_b 16.912291
_cell_length_c 14.311100
_cell_angle_alpha 90.000000
_cell_angle_beta 90.000000
_cell_angle_gamma 90.000000
_cell_volume 6112.383889
_symmetry_space_group_name_H-M "F M M M"
_symmetry_group_IT_number 69
_symmetry_cell_setting 'orthorhombic'
loop_
_space_group_symop_operation_xyz
x,y,z
-x,-y,z
x,-y,-z
-x,y,-z
-x,-y,-z
x,y,-z
-x,y,z
x,-y,z
x,1/2+y,1/2+z
-x,1/2-y,1/2+z
x,1/2-y,1/2-z
-x,1/2+y,1/2-z
-x,1/2-y,1/2-z
x,1/2+y,1/2-z
-x,1/2+y,1/2+z
x,1/2-y,1/2+z
1/2+x,y,1/2+z
1/2-x,-y,1/2+z
1/2+x,-y,1/2-z
1/2-x,y,1/2-z
1/2-x,-y,1/2-z
1/2+x,y,1/2-z
1/2-x,y,1/2+z
1/2+x,-y,1/2+z
1/2+x,1/2+y,z
1/2-x,1/2-y,z
1/2+x,1/2-y,-z
1/2-x,1/2+y,-z
1/2-x,1/2-y,-z
1/2+x,1/2+y,-z
1/2-x,1/2+y,z
1/2+x,1/2-y,z
loop_
_atom_site_type_symbol
_atom_site_label
_atom_site_fract_x
_atom_site_fract_y
_atom_site_fract_z
Si Si1 0.330881 0.094287 0.226911
Si Si2 0.435875 0.410763 0.000000
Si Si3 0.759193 0.843728 0.105307
Si Si4 0.059960 0.096759 0.794515
O O1 0.296084 0.117950 0.138182
O O2 0.301925 0.131409 0.317250
O O3 0.392354 0.118913 0.226260
O O4 0.328550 0.000000 0.237780
O O5 0.423906 0.374837 0.100939
O O6 0.413436 0.500000 0.000000
O O7 0.500000 0.417001 0.000000
O O8 0.750000 0.750000 0.108599
O O9 0.774091 0.867122 0.000000
O O10 0.000000 0.122662 0.772322
O O11 0.058155 0.000000 0.799130
#
# Coordination Sequence:
#
# PCOD9511532 Si02
#       4
#    32  16  32  32
#     4  10  19  30  51  79 100 121 155 205 248 284
#     4   7  10  18  32  54  89 126 150 172 215 278
#     4  10  21  36  51  66  93 134 168 198 240 290
#     4   8  14  24  40  67 101 129 151 185 240 294
#
# _framework density 18.323456
#
# number of rings (size 3 to 8) (size 9 to 14) (size 15 to 20)
#    0.000    3.000    0.000    5.143    2.000    2.286 
#    0.000    0.000    0.000    4.286    0.000    8.000 
#    0.000    0.000    0.000    0.000    0.000    0.000 
#
# Total GULP energy -155874.835574 kJ/mol
# GULP energy per Si atom -5566.958413 kJ/mol
# Density = 1.828175 g / cm^3
# Si number density = 18.323456 Si / 1000 Ang^3
#
#
#
# Elastic Constant Matrix: (Units=GPa)
#
#
# Indices 1 2 3 4 5 6 
#
# 1 94.9478 9.9795 0.1746 0.0000 0.0000 0.0000
# 2 9.9795 29.1470 10.1956 0.0000 0.0000 0.0000
# 3 0.1746 10.1956 35.3900 0.0000 0.0000 0.0000
# 4 0.0000 0.0000 0.0000 15.9429 0.0000 0.0000
# 5 0.0000 0.0000 0.0000 0.0000 21.9194 0.0000
# 6 0.0000 0.0000 0.0000 0.0000 0.0000 -17.9923
#
#
#
# Elastic Compliance Matrix: (Units=1/GPa)
#
#
# Indices 1 2 3 4 5 6 
#
# 1 0.010967 -0.004155 0.001143 0.000000 0.000000 0.000000
# 2 -0.004155 0.039728 -0.011425 0.000000 0.000000 0.000000
# 3 0.001143 -0.011425 0.031542 0.000000 0.000000 0.000000
# 4 0.000000 0.000000 0.000000 0.062724 0.000000 0.000000
# 5 0.000000 0.000000 0.000000 0.000000 0.045622 0.000000
# 6 0.000000 0.000000 0.000000 0.000000 0.000000 -0.055579
#
#
# Mechanical properties :
#
#
# Convention : Reuss Voigt Hill
#
# Bulk Modulus (GPa) = 18.73937 22.24269 20.49103
# Shear Modulus (GPa) = 27.52335 13.24968 20.38652
#
# Velocity S-wave (km/s) = 3.87988 2.69197 3.33917
# Velocity P-wave (km/s) = 5.50640 4.67199 5.10627
#
# Compressibility (1/GPa) = 0.05336360
#
# Stress axis : x y z
#
# Youngs Moduli (GPa) = 91.18546 25.17131 31.70337
#
# Poissons Ratio (x) = 0.10458 -0.03623
# Poissons Ratio (y) = 0.37884 0.36221
# Poissons Ratio (z) = -0.10421 0.28758
#
# Static dielectric constant tensor:
#      x y z
#    x 1.660990 0.000000 0.000000 
#    y 0.000000 1.633800 0.000000 
#    z 0.000000 0.000000 1.643640 
# 
# From -- ./inp_files/14245.got.cif
#   From: 2010.05.17/outbox.cif.g08.bks.cpg/sg69_8_cif.got.tgz:14245.got - 2010.06.03 19:29:58.
