data_PCOD9511329
_publ_section_title
;
Structure prediction by ZEFSAII (Michael W. Deem and Ramdas Pophale) SiO2 
 PCOD9511329
Probable space group: F M M M
;
_chemical_formula_sum "Si O2"
_cell_formula_units_Z 112
_cell_length_a 10.453366
_cell_length_b 26.927950
_cell_length_c 21.502293
_cell_angle_alpha 90.000000
_cell_angle_beta 90.000000
_cell_angle_gamma 90.000000
_cell_volume 6052.631366
_symmetry_space_group_name_H-M "F M M M"
_symmetry_group_IT_number 69
_symmetry_cell_setting 'orthorhombic'
loop_
_space_group_symop_operation_xyz
x,y,z
-x,-y,z
x,-y,-z
-x,y,-z
-x,-y,-z
x,y,-z
-x,y,z
x,-y,z
x,1/2+y,1/2+z
-x,1/2-y,1/2+z
x,1/2-y,1/2-z
-x,1/2+y,1/2-z
-x,1/2-y,1/2-z
x,1/2+y,1/2-z
-x,1/2+y,1/2+z
x,1/2-y,1/2+z
1/2+x,y,1/2+z
1/2-x,-y,1/2+z
1/2+x,-y,1/2-z
1/2-x,y,1/2-z
1/2-x,-y,1/2-z
1/2+x,y,1/2-z
1/2-x,y,1/2+z
1/2+x,-y,1/2+z
1/2+x,1/2+y,z
1/2-x,1/2-y,z
1/2+x,1/2-y,-z
1/2-x,1/2+y,-z
1/2-x,1/2-y,-z
1/2+x,1/2+y,-z
1/2-x,1/2+y,z
1/2+x,1/2-y,z
loop_
_atom_site_type_symbol
_atom_site_label
_atom_site_fract_x
_atom_site_fract_y
_atom_site_fract_z
Si Si1 0.750000 0.866685 0.250000
Si Si2 0.500000 0.812612 0.590422
Si Si3 0.000000 0.805609 0.571937
Si Si4 0.243446 0.869581 0.606721
Si Si5 0.000000 0.307095 0.262953
Si Si6 0.845810 0.442479 0.000000
O O1 0.734434 0.888198 0.321163
O O2 0.625837 0.833573 0.240164
O O3 0.500000 0.754590 0.571609
O O4 0.369224 0.842594 0.577702
O O5 0.500000 0.811215 0.664016
O O6 0.127159 0.829363 0.602475
O O7 0.000000 0.821688 0.500000
O O8 0.204136 0.914190 0.561287
O O9 0.000000 0.250000 0.250000
O O10 0.806630 0.500000 0.000000
O O11 0.000000 0.440501 0.000000
#
# Coordination Sequence:
#
# PCOD9511329 Si02
#       6
#    16  16  16  32  16  16
#     4  10  21  32  59  80 120 156 196 242 294 340
#     4  10  24  32  54  89 128 158 197 241 297 348
#     4  12  22  36  58  87 126 171 207 241 281 345
#     4  11  21  41  57  92 121 160 201 248 293 355
#     4  10  18  32  48  79 116 166 203 232 274 338
#     4  11  24  45  70  90 111 152 203 253 310 366
#
# _framework density 18.504349000000001
#
# number of rings (size 3 to 8) (size 9 to 14) (size 15 to 20)
#    0.000    1.286    2.857    3.857    2.000    5.714 
#    0.000    2.143    0.000    0.000    0.000    0.000 
#    0.000    0.000    0.000    0.000    0.000    0.000 
#
# Total GULP energy -155914.440865 kJ/mol
# GULP energy per Si atom -5568.372888 kJ/mol
# Density = 1.846223 g / cm^3
# Si number density = 18.504349 Si / 1000 Ang^3
#
#
#
# Elastic Constant Matrix: (Units=GPa)
#
#
# Indices 1 2 3 4 5 6 
#
# 1 140.4900 47.7888 22.8716 0.0000 0.0000 0.0000
# 2 47.7888 122.2621 48.1682 0.0000 0.0000 0.0000
# 3 22.8716 48.1682 158.9219 0.0000 0.0000 0.0000
# 4 0.0000 0.0000 0.0000 -3.9190 0.0000 0.0000
# 5 0.0000 0.0000 0.0000 0.0000 36.8228 0.0000
# 6 0.0000 0.0000 0.0000 0.0000 0.0000 21.8969
#
#
#
# Elastic Compliance Matrix: (Units=1/GPa)
#
#
# Indices 1 2 3 4 5 6 
#
# 1 0.008217 -0.003118 -0.000237 0.000000 0.000000 0.000000
# 2 -0.003118 0.010472 -0.002725 0.000000 0.000000 0.000000
# 3 -0.000237 -0.002725 0.007153 0.000000 0.000000 0.000000
# 4 0.000000 0.000000 0.000000 -0.255165 0.000000 0.000000
# 5 0.000000 0.000000 0.000000 0.000000 0.027157 0.000000
# 6 0.000000 0.000000 0.000000 0.000000 0.000000 0.045669
#
#
# Mechanical properties :
#
#
# Convention : Reuss Voigt Hill
#
# Bulk Modulus (GPa) = 73.10123 73.25903 73.18013
# Shear Modulus (GPa) = -35.77164 31.14981 -2.31091
#
# Velocity S-wave (km/s) = -4.40153 4.10735 -1.11873
# Velocity P-wave (km/s) = 3.70937 7.88479 6.16154
#
# Compressibility (1/GPa) = 0.01367966
#
# Stress axis : x y z
#
# Youngs Moduli (GPa) = 121.69384 95.49587 139.81055
#
# Poissons Ratio (x) = 0.29779 0.03320
# Poissons Ratio (y) = 0.37949 0.38100
# Poissons Ratio (z) = 0.02890 0.26024
#
# Static dielectric constant tensor:
#      x y z
#    x 1.717460 0.000000 0.000000 
#    y 0.000000 1.562460 0.000000 
#    z 0.000000 0.000000 1.737170 
# 
# From -- ./inp_files/4546.got.cif
#   From: 2010.05.17/outbox.cif.g08.bks.cpg/sg69_3_cif.got.tgz:4546.got - 2010.06.03 19:29:58.
