data_PCOD9511723
_publ_section_title
;
Structure prediction by ZEFSAII (Michael W. Deem and Ramdas Pophale) SiO2 
 PCOD9511723
Probable space group: F M M M
;
_chemical_formula_sum "Si O2"
_cell_formula_units_Z 160
_cell_length_a 19.604767
_cell_length_b 22.115417
_cell_length_c 16.091944
_cell_angle_alpha 90.000000
_cell_angle_beta 90.000000
_cell_angle_gamma 90.000000
_cell_volume 6976.945497
_symmetry_space_group_name_H-M "F M M M"
_symmetry_group_IT_number 69
_symmetry_cell_setting 'orthorhombic'
loop_
_space_group_symop_operation_xyz
x,y,z
-x,-y,z
x,-y,-z
-x,y,-z
-x,-y,-z
x,y,-z
-x,y,z
x,-y,z
x,1/2+y,1/2+z
-x,1/2-y,1/2+z
x,1/2-y,1/2-z
-x,1/2+y,1/2-z
-x,1/2-y,1/2-z
x,1/2+y,1/2-z
-x,1/2+y,1/2+z
x,1/2-y,1/2+z
1/2+x,y,1/2+z
1/2-x,-y,1/2+z
1/2+x,-y,1/2-z
1/2-x,y,1/2-z
1/2-x,-y,1/2-z
1/2+x,y,1/2-z
1/2-x,y,1/2+z
1/2+x,-y,1/2+z
1/2+x,1/2+y,z
1/2-x,1/2-y,z
1/2+x,1/2-y,-z
1/2-x,1/2+y,-z
1/2-x,1/2-y,-z
1/2+x,1/2+y,-z
1/2-x,1/2+y,z
1/2+x,1/2-y,z
loop_
_atom_site_type_symbol
_atom_site_label
_atom_site_fract_x
_atom_site_fract_y
_atom_site_fract_z
Si Si1 0.137354 0.409339 0.000000
Si Si2 0.423831 0.099469 0.169786
Si Si3 0.577507 0.742218 0.344946
Si Si4 0.500000 0.426515 0.906011
Si Si5 0.643351 0.427281 0.167740
Si Si6 0.331269 0.236253 0.000000
Si Si7 0.708971 0.567424 0.000000
O O1 0.097182 0.427611 0.082103
O O2 0.154674 0.336510 0.000000
O O3 0.211218 0.437595 0.000000
O O4 0.500000 0.077676 0.196464
O O5 0.429720 0.170178 0.150502
O O6 0.362306 0.091810 0.236199
O O7 0.500000 0.768108 0.353638
O O8 0.601734 0.750000 0.250000
O O9 0.629437 0.760833 0.417649
O O10 0.500000 0.500000 0.906934
O O11 0.431571 0.407878 0.861983
O O12 0.500000 0.405048 0.000000
O O13 0.651431 0.500000 0.171318
O O14 0.688983 0.405167 0.090030
O O15 0.250000 0.250000 0.000000
O O16 0.675046 0.500000 0.000000
#
# Coordination Sequence:
#
# PCOD9511723 Si02
#       7
#    16  32  32  16  32  16  16
#     4  10  23  40  54  76 110 147 186 219 255 322
#     4  10  20  36  59  82 105 139 181 225 270 313
#     4   9  19  37  59  83 111 141 175 219 274 331
#     4   9  14  26  50  77 102 131 171 220 268 311
#     4  10  19  32  54  81 107 138 179 225 272 319
#     4  10  21  37  60  83 107 143 182 223 270 318
#     4  10  22  38  53  74 111 153 181 214 273 333
#
# _framework density 22.932672
#
# number of rings (size 3 to 8) (size 9 to 14) (size 15 to 20)
#    0.000    2.300    2.000    0.600    0.000    6.000 
#    0.000    6.000    0.000    4.200    0.000    0.000 
#    0.000    0.000    0.000    0.000    0.000    0.000 
#
# Total GULP energy -222928.608605 kJ/mol
# GULP energy per Si atom -5573.215215 kJ/mol
# Density = 2.288048 g / cm^3
# Si number density = 22.932672 Si / 1000 Ang^3
#
#
#
# Elastic Constant Matrix: (Units=GPa)
#
#
# Indices 1 2 3 4 5 6 
#
# 1 94.6916 5.7855 76.9491 0.0000 0.0000 0.0000
# 2 5.7855 49.7031 1.3244 0.0000 0.0000 0.0000
# 3 76.9491 1.3244 215.3604 0.0000 0.0000 0.0000
# 4 0.0000 0.0000 0.0000 22.5849 0.0000 0.0000
# 5 0.0000 0.0000 0.0000 0.0000 13.4356 0.0000
# 6 0.0000 0.0000 0.0000 0.0000 0.0000 18.6103
#
#
#
# Elastic Compliance Matrix: (Units=1/GPa)
#
#
# Indices 1 2 3 4 5 6 
#
# 1 0.015008 -0.001604 -0.005353 0.000000 0.000000 0.000000
# 2 -0.001604 0.020294 0.000448 0.000000 0.000000 0.000000
# 3 -0.005353 0.000448 0.006553 0.000000 0.000000 0.000000
# 4 0.000000 0.000000 0.000000 0.044277 0.000000 0.000000
# 5 0.000000 0.000000 0.000000 0.000000 0.074429 0.000000
# 6 0.000000 0.000000 0.000000 0.000000 0.000000 0.053734
#
#
# Mechanical properties :
#
#
# Convention : Reuss Voigt Hill
#
# Bulk Modulus (GPa) = 34.67574 58.65255 46.66415
# Shear Modulus (GPa) = 21.10361 29.30588 25.20474
#
# Velocity S-wave (km/s) = 3.03684 3.57866 3.31883
# Velocity P-wave (km/s) = 5.23928 6.53508 5.92272
#
# Compressibility (1/GPa) = 0.02883860
#
# Stress axis : x y z
#
# Youngs Moduli (GPa) = 66.62950 49.27495 152.59825
#
# Poissons Ratio (x) = 0.07906 0.81681
# Poissons Ratio (y) = 0.10690 -0.06843
# Poissons Ratio (z) = 0.35665 -0.02210
#
# Static dielectric constant tensor:
#      x y z
#    x 1.823360 0.000000 0.000000 
#    y 0.000000 1.984040 0.000000 
#    z 0.000000 0.000000 2.029900 
# 
# From -- ./inp_files/15717.got.cif
#   From: 2010.05.17/outbox.cif.g08.bks.cpg/sg69_8_cif.got.tgz:15717.got - 2010.06.03 19:29:58.
