data_PCOD9511593
_publ_section_title
;
Structure prediction by ZEFSAII (Michael W. Deem and Ramdas Pophale) SiO2 
 PCOD9511593
Probable space group: F M M M
;
_chemical_formula_sum "Si O2"
_cell_formula_units_Z 160
_cell_length_a 15.731296
_cell_length_b 17.778423
_cell_length_c 30.835120
_cell_angle_alpha 90.000000
_cell_angle_beta 90.000000
_cell_angle_gamma 90.000000
_cell_volume 8623.893425
_symmetry_space_group_name_H-M "F M M M"
_symmetry_group_IT_number 69
_symmetry_cell_setting 'orthorhombic'
loop_
_space_group_symop_operation_xyz
x,y,z
-x,-y,z
x,-y,-z
-x,y,-z
-x,-y,-z
x,y,-z
-x,y,z
x,-y,z
x,1/2+y,1/2+z
-x,1/2-y,1/2+z
x,1/2-y,1/2-z
-x,1/2+y,1/2-z
-x,1/2-y,1/2-z
x,1/2+y,1/2-z
-x,1/2+y,1/2+z
x,1/2-y,1/2+z
1/2+x,y,1/2+z
1/2-x,-y,1/2+z
1/2+x,-y,1/2-z
1/2-x,y,1/2-z
1/2-x,-y,1/2-z
1/2+x,y,1/2-z
1/2-x,y,1/2+z
1/2+x,-y,1/2+z
1/2+x,1/2+y,z
1/2-x,1/2-y,z
1/2+x,1/2-y,-z
1/2-x,1/2+y,-z
1/2-x,1/2-y,-z
1/2+x,1/2+y,-z
1/2-x,1/2+y,z
1/2+x,1/2-y,z
loop_
_atom_site_type_symbol
_atom_site_label
_atom_site_fract_x
_atom_site_fract_y
_atom_site_fract_z
Si Si1 0.405993 0.696115 0.291061
Si Si2 0.602097 0.256206 0.451961
Si Si3 0.221845 0.914775 0.673208
Si Si4 0.663252 0.297683 0.863553
Si Si5 0.100652 0.583637 0.911490
O O1 0.500000 0.660774 0.289978
O O2 0.396184 0.750000 0.250000
O O3 0.329773 0.636640 0.293129
O O4 0.399298 0.749597 0.333396
O O5 0.634469 0.237838 0.500000
O O6 0.500000 0.251673 0.452575
O O7 0.634139 0.203544 0.413136
O O8 0.622849 0.343231 0.439837
O O9 0.309287 0.875956 0.657909
O O10 0.158933 0.914142 0.631190
O O11 0.233381 0.000000 0.687500
O O12 0.750000 0.250000 0.862444
O O13 0.111900 0.500000 0.931548
O O14 0.000000 0.590090 0.900403
#
# Coordination Sequence:
#
# PCOD9511593 Si02
#       5
#    32  32  32  32  32
#     4  10  20  35  57  82 106 138 178 219 265 321
#     4  10  19  31  50  75 104 144 189 229 271 321
#     4  10  20  34  54  80 109 142 175 216 271 322
#     4  10  19  33  51  76 107 140 176 225 271 323
#     4   9  16  28  47  73 107 143 177 217 267 320
#
# _framework density 18.553104999999999
#
# number of rings (size 3 to 8) (size 9 to 14) (size 15 to 20)
#    0.000    2.200    4.000    1.200    0.000    5.600 
#    0.000    4.000    0.000    4.200    0.000    1.400 
#    0.000    0.000    0.000    0.000    0.000    0.000 
#
# Total GULP energy -223015.665651 kJ/mol
# GULP energy per Si atom -5575.391641 kJ/mol
# Density = 1.851088 g / cm^3
# Si number density = 18.553105 Si / 1000 Ang^3
#
#
#
# Elastic Constant Matrix: (Units=GPa)
#
#
# Indices 1 2 3 4 5 6 
#
# 1 33.5687 24.2041 1.7379 0.0000 0.0000 0.0000
# 2 24.2041 93.7175 13.8538 0.0000 0.0000 0.0000
# 3 1.7379 13.8538 56.2132 0.0000 0.0000 0.0000
# 4 0.0000 0.0000 0.0000 15.5817 0.0000 0.0000
# 5 0.0000 0.0000 0.0000 0.0000 18.9953 0.0000
# 6 0.0000 0.0000 0.0000 0.0000 0.0000 6.5413
#
#
#
# Elastic Compliance Matrix: (Units=1/GPa)
#
#
# Indices 1 2 3 4 5 6 
#
# 1 0.036690 -0.009660 0.001246 0.000000 0.000000 0.000000
# 2 -0.009660 0.013617 -0.003057 0.000000 0.000000 0.000000
# 3 0.001246 -0.003057 0.018504 0.000000 0.000000 0.000000
# 4 0.000000 0.000000 0.000000 0.064178 0.000000 0.000000
# 5 0.000000 0.000000 0.000000 0.000000 0.052644 0.000000
# 6 0.000000 0.000000 0.000000 0.000000 0.000000 0.152875
#
#
# Mechanical properties :
#
#
# Convention : Reuss Voigt Hill
#
# Bulk Modulus (GPa) = 21.80083 29.23235 25.51659
# Shear Modulus (GPa) = 13.27172 17.80391 15.53781
#
# Velocity S-wave (km/s) = 2.67748 3.10113 2.89706
# Velocity P-wave (km/s) = 4.61893 5.34911 4.99737
#
# Compressibility (1/GPa) = 0.04586982
#
# Stress axis : x y z
#
# Youngs Moduli (GPa) = 27.25511 73.43647 54.04131
#
# Poissons Ratio (x) = 0.70941 -0.06736
# Poissons Ratio (y) = 0.26329 0.16522
# Poissons Ratio (z) = -0.03397 0.22452
#
# Static dielectric constant tensor:
#      x y z
#    x 1.656980 0.000000 0.000000 
#    y 0.000000 1.666170 0.000000 
#    z 0.000000 0.000000 1.671580 
# 
# From -- ./inp_files/23439.got.cif
#   From: 2010.05.17/outbox.cif.g08.bks.cpg/sg69_12_cif.got.tgz:23439.got - 2010.06.03 19:29:58.
