data_PCOD9511198
_publ_section_title
;
Structure prediction by ZEFSAII (Michael W. Deem and Ramdas Pophale) SiO2 
 PCOD9511198
Probable space group: F M M M
;
_chemical_formula_sum "Si O2"
_cell_formula_units_Z 144
_cell_length_a 28.709729
_cell_length_b 16.461550
_cell_length_c 19.593326
_cell_angle_alpha 90.000000
_cell_angle_beta 90.000000
_cell_angle_gamma 90.000000
_cell_volume 9259.935956
_symmetry_space_group_name_H-M "F M M M"
_symmetry_group_IT_number 69
_symmetry_cell_setting 'orthorhombic'
loop_
_space_group_symop_operation_xyz
x,y,z
-x,-y,z
x,-y,-z
-x,y,-z
-x,-y,-z
x,y,-z
-x,y,z
x,-y,z
x,1/2+y,1/2+z
-x,1/2-y,1/2+z
x,1/2-y,1/2-z
-x,1/2+y,1/2-z
-x,1/2-y,1/2-z
x,1/2+y,1/2-z
-x,1/2+y,1/2+z
x,1/2-y,1/2+z
1/2+x,y,1/2+z
1/2-x,-y,1/2+z
1/2+x,-y,1/2-z
1/2-x,y,1/2-z
1/2-x,-y,1/2-z
1/2+x,y,1/2-z
1/2-x,y,1/2+z
1/2+x,-y,1/2+z
1/2+x,1/2+y,z
1/2-x,1/2-y,z
1/2+x,1/2-y,-z
1/2-x,1/2+y,-z
1/2-x,1/2-y,-z
1/2+x,1/2+y,-z
1/2-x,1/2+y,z
1/2+x,1/2-y,z
loop_
_atom_site_type_symbol
_atom_site_label
_atom_site_fract_x
_atom_site_fract_y
_atom_site_fract_z
Si Si1 0.734142 0.157374 0.854416
Si Si2 0.500000 0.099039 0.419613
Si Si3 0.820301 0.404203 0.271865
Si Si4 0.657682 0.901303 0.500000
Si Si5 0.265000 0.097352 0.000000
Si Si6 0.900139 0.598962 0.367727
O O1 0.750000 0.250000 0.857056
O O2 0.780025 0.107342 0.829556
O O3 0.697008 0.143420 0.794394
O O4 0.716074 0.129237 0.928031
O O5 0.500000 0.123161 0.500000
O O6 0.453051 0.125210 0.380818
O O7 0.500000 0.000000 0.420548
O O8 0.822141 0.500000 0.255694
O O9 0.869745 0.376675 0.302314
O O10 0.710871 0.874602 0.500000
O O11 0.629798 0.875160 0.433374
O O12 0.658167 0.000000 0.500000
O O13 0.266831 0.000000 0.000000
O O14 0.900368 0.500000 0.367103
#
# Coordination Sequence:
#
# PCOD9511198 Si02
#       6
#    32  16  32  16  16  32
#     4  11  21  31  43  64  89 117 149 191 226 257
#     4   9  14  20  34  60  93 117 139 181 233 268
#     4  10  18  30  45  61  85 122 159 180 212 264
#     4   9  14  22  37  60  84 113 142 171 207 257
#     4  11  19  31  48  65  87 114 151 184 219 272
#     4   9  15  23  38  60  87 117 148 180 218 268
#
# _framework density 15.550863
#
# number of rings (size 3 to 8) (size 9 to 14) (size 15 to 20)
#    0.000    2.111    3.333    4.333    0.000    0.000 
#    0.000    0.000    0.000    0.000    0.000    3.111 
#    0.000    0.889    0.000    8.333    0.000    0.000 
#
# Total GULP energy -200616.272883 kJ/mol
# GULP energy per Si atom -5572.674247 kJ/mol
# Density = 1.551547 g / cm^3
# Si number density = 15.550863 Si / 1000 Ang^3
#
#
#
# Elastic Constant Matrix: (Units=GPa)
#
#
# Indices 1 2 3 4 5 6 
#
# 1 87.5864 0.1160 43.0503 0.0000 0.0000 0.0000
# 2 0.1160 43.9684 26.9613 0.0000 0.0000 0.0000
# 3 43.0503 26.9613 121.8278 0.0000 0.0000 0.0000
# 4 0.0000 0.0000 0.0000 64.5893 0.0000 0.0000
# 5 0.0000 0.0000 0.0000 0.0000 23.5104 0.0000
# 6 0.0000 0.0000 0.0000 0.0000 0.0000 -0.1465
#
#
#
# Elastic Compliance Matrix: (Units=1/GPa)
#
#
# Indices 1 2 3 4 5 6 
#
# 1 0.014277 0.003536 -0.005828 0.000000 0.000000 0.000000
# 2 0.003536 0.027190 -0.007267 0.000000 0.000000 0.000000
# 3 -0.005828 -0.007267 0.011876 0.000000 0.000000 0.000000
# 4 0.000000 0.000000 0.000000 0.015482 0.000000 0.000000
# 5 0.000000 0.000000 0.000000 0.000000 0.042534 0.000000
# 6 0.000000 0.000000 0.000000 0.000000 0.000000 -6.825588
#
#
# Mechanical properties :
#
#
# Convention : Reuss Voigt Hill
#
# Bulk Modulus (GPa) = 29.21768 43.73751 36.47760
# Shear Modulus (GPa) = -0.74809 29.80766 14.52978
#
# Velocity S-wave (km/s) = -0.69434 4.38286 3.06001
# Velocity P-wave (km/s) = 4.26456 7.33479 5.99940
#
# Compressibility (1/GPa) = 0.03422585
#
# Stress axis : x y z
#
# Youngs Moduli (GPa) = 70.04292 36.77785 84.20507
#
# Poissons Ratio (x) = -0.13004 0.49071
# Poissons Ratio (y) = -0.24766 0.61190
# Poissons Ratio (z) = 0.40818 0.26726
#
# Static dielectric constant tensor:
#      x y z
#    x 1.528820 0.000000 0.000000 
#    y 0.000000 1.516320 0.000000 
#    z 0.000000 0.000000 1.543550 
# 
# From -- ./inp_files/27444.got.cif
#   From: 2010.05.17/outbox.cif.g08.bks.cpg/sg69_14_cif.got.tgz:27444.got - 2010.06.03 19:29:58.
