data_PCOD9511349
_publ_section_title
;
Structure prediction by ZEFSAII (Michael W. Deem and Ramdas Pophale) SiO2 
 PCOD9511349
Probable space group: F M M M
;
_chemical_formula_sum "Si O2"
_cell_formula_units_Z 144
_cell_length_a 31.880309
_cell_length_b 8.704545
_cell_length_c 28.522925
_cell_angle_alpha 90.000000
_cell_angle_beta 90.000000
_cell_angle_gamma 90.000000
_cell_volume 7915.213922
_symmetry_space_group_name_H-M "F M M M"
_symmetry_group_IT_number 69
_symmetry_cell_setting 'orthorhombic'
loop_
_space_group_symop_operation_xyz
x,y,z
-x,-y,z
x,-y,-z
-x,y,-z
-x,-y,-z
x,y,-z
-x,y,z
x,-y,z
x,1/2+y,1/2+z
-x,1/2-y,1/2+z
x,1/2-y,1/2-z
-x,1/2+y,1/2-z
-x,1/2-y,1/2-z
x,1/2+y,1/2-z
-x,1/2+y,1/2+z
x,1/2-y,1/2+z
1/2+x,y,1/2+z
1/2-x,-y,1/2+z
1/2+x,-y,1/2-z
1/2-x,y,1/2-z
1/2-x,-y,1/2-z
1/2+x,y,1/2-z
1/2-x,y,1/2+z
1/2+x,-y,1/2+z
1/2+x,1/2+y,z
1/2-x,1/2-y,z
1/2+x,1/2-y,-z
1/2-x,1/2+y,-z
1/2-x,1/2-y,-z
1/2+x,1/2+y,-z
1/2-x,1/2+y,z
1/2+x,1/2-y,z
loop_
_atom_site_type_symbol
_atom_site_label
_atom_site_fract_x
_atom_site_fract_y
_atom_site_fract_z
Si Si1 0.000000 0.684075 0.303047
Si Si2 0.047382 0.317953 0.943536
Si Si3 0.704484 0.683172 0.444463
Si Si4 0.587275 0.682498 0.697897
Si Si5 0.873871 0.818089 0.889125
O O1 0.000000 0.750000 0.250000
O O2 0.043414 0.749559 0.322241
O O3 0.000000 0.500000 0.303223
O O4 0.051020 0.500000 0.932237
O O5 0.085315 0.230025 0.919349
O O6 0.000000 0.267478 0.930374
O O7 0.050639 0.303995 0.000000
O O8 0.698224 0.712655 0.500000
O O9 0.703692 0.500000 0.437348
O O10 0.750000 0.750000 0.431676
O O11 0.667296 0.761608 0.415991
O O12 0.583868 0.500000 0.701028
O O13 0.593605 0.750000 0.750000
O O14 0.621923 0.735335 0.661083
O O15 0.873438 0.000000 0.882604
#
# Coordination Sequence:
#
# PCOD9511349 Si02
#       5
#    16  32  32  32  32
#     4  10  18  32  52  76 105 140 185 234 284 334
#     4   9  19  36  55  76 108 150 193 235 282 337
#     4  10  21  39  63  90 119 150 187 234 289 344
#     4  11  22  38  57  79 110 149 192 241 291 339
#     4  12  24  36  55  84 116 151 192 237 284 341
#
# _framework density 18.192813000000001
#
# number of rings (size 3 to 8) (size 9 to 14) (size 15 to 20)
#    0.000    1.556    0.000    8.333    1.556    4.889 
#    0.000    1.111    0.000    0.667    0.000    4.667 
#    0.000    0.000    0.000    0.000    0.000    0.000 
#
# Total GULP energy -201229.901911 kJ/mol
# GULP energy per Si atom -5589.719498 kJ/mol
# Density = 1.815141 g / cm^3
# Si number density = 18.192813 Si / 1000 Ang^3
#
#
#
# Elastic Constant Matrix: (Units=GPa)
#
#
# Indices 1 2 3 4 5 6 
#
# 1 119.3576 63.9836 60.2852 0.0000 0.0000 0.0001
# 2 63.9836 150.2911 51.8674 -0.0001 0.0001 0.0003
# 3 60.2852 51.8674 70.8954 0.0000 0.0000 0.0000
# 4 0.0000 -0.0001 0.0000 27.0070 0.0000 0.0001
# 5 0.0000 0.0001 0.0000 0.0000 21.6653 0.0000
# 6 0.0001 0.0003 0.0000 0.0001 0.0000 30.0018
#
#
#
# Elastic Compliance Matrix: (Units=1/GPa)
#
#
# Indices 1 2 3 4 5 6 
#
# 1 0.015485 -0.002740 -0.011163 0.000000 0.000000 0.000000
# 2 -0.002740 0.009386 -0.004537 0.000000 0.000000 0.000000
# 3 -0.011163 -0.004537 0.026917 0.000000 0.000000 0.000000
# 4 0.000000 0.000000 0.000000 0.037027 0.000000 0.000000
# 5 0.000000 0.000000 0.000000 0.000000 0.046157 0.000000
# 6 0.000000 0.000000 0.000000 0.000000 0.000000 0.033331
#
#
# Mechanical properties :
#
#
# Convention : Reuss Voigt Hill
#
# Bulk Modulus (GPa) = 67.07746 76.97960 72.02853
# Shear Modulus (GPa) = 23.79215 26.69535 25.24375
#
# Velocity S-wave (km/s) = 3.62024 3.83477 3.72905
# Velocity P-wave (km/s) = 7.37735 7.87479 7.63012
#
# Compressibility (1/GPa) = 0.01490814
#
# Stress axis : x y z
#
# Youngs Moduli (GPa) = 64.57730 106.54159 37.15130
#
# Poissons Ratio (x) = 0.29193 0.41473
# Poissons Ratio (y) = 0.17694 0.16855
# Poissons Ratio (z) = 0.72089 0.48337
#
# Static dielectric constant tensor:
#      x y z
#    x 1.622600 0.000000 0.000000 
#    y 0.000000 1.608880 0.000000 
#    z 0.000000 0.000000 1.546810 
# 
# From -- ./inp_files/47382.got.cif
#   From: 2010.05.17/outbox.cif.g08.bks.cpg/sg69_24_cif.got.tgz:47382.got - 2010.06.03 19:29:58.
