data_PCOD9511651
_publ_section_title
;
Structure prediction by ZEFSAII (Michael W. Deem and Ramdas Pophale) SiO2 
 PCOD9511651
Probable space group: F M M M
;
_chemical_formula_sum "Si O2"
_cell_formula_units_Z 144
_cell_length_a 18.218324
_cell_length_b 25.096130
_cell_length_c 18.415557
_cell_angle_alpha 90.000000
_cell_angle_beta 90.000000
_cell_angle_gamma 90.000000
_cell_volume 8419.766273
_symmetry_space_group_name_H-M "F M M M"
_symmetry_group_IT_number 69
_symmetry_cell_setting 'orthorhombic'
loop_
_space_group_symop_operation_xyz
x,y,z
-x,-y,z
x,-y,-z
-x,y,-z
-x,-y,-z
x,y,-z
-x,y,z
x,-y,z
x,1/2+y,1/2+z
-x,1/2-y,1/2+z
x,1/2-y,1/2-z
-x,1/2+y,1/2-z
-x,1/2-y,1/2-z
x,1/2+y,1/2-z
-x,1/2+y,1/2+z
x,1/2-y,1/2+z
1/2+x,y,1/2+z
1/2-x,-y,1/2+z
1/2+x,-y,1/2-z
1/2-x,y,1/2-z
1/2-x,-y,1/2-z
1/2+x,y,1/2-z
1/2-x,y,1/2+z
1/2+x,-y,1/2+z
1/2+x,1/2+y,z
1/2-x,1/2-y,z
1/2+x,1/2-y,-z
1/2-x,1/2+y,-z
1/2-x,1/2-y,-z
1/2+x,1/2+y,-z
1/2-x,1/2+y,z
1/2+x,1/2-y,z
loop_
_atom_site_type_symbol
_atom_site_label
_atom_site_fract_x
_atom_site_fract_y
_atom_site_fract_z
Si Si1 0.179611 0.661160 0.912312
Si Si2 0.415465 0.940036 0.911792
Si Si3 0.588058 0.561956 0.000000
Si Si4 0.083842 0.750795 0.836375
Si Si5 0.850572 0.654909 0.582209
O O1 0.138006 0.607168 0.888885
O O2 0.140407 0.710803 0.874561
O O3 0.265822 0.657373 0.895388
O O4 0.173079 0.665974 0.000000
O O5 0.500000 0.929866 0.890018
O O6 0.394956 0.000000 0.888203
O O7 0.414487 0.940409 0.000000
O O8 0.621208 0.594861 0.068140
O O9 0.607780 0.500000 0.000000
O O10 0.500000 0.567057 0.000000
O O11 0.092611 0.750000 0.750000
O O12 0.100370 0.809774 0.865795
O O13 0.000000 0.735477 0.854473
O O14 0.855568 0.678690 0.500000
#
# Coordination Sequence:
#
# PCOD9511651 Si02
#       5
#    32  32  16  32  32
#     4  10  19  32  50  79 107 137 174 214 263 323
#     4   8  14  25  43  69 101 134 165 201 246 299
#     4   9  18  34  57  82 107 139 177 220 270 316
#     4  11  23  36  52  74 104 145 185 220 265 318
#     4   9  20  34  53  80 107 136 173 224 270 313
#
# _framework density 17.102612000000001
#
# number of rings (size 3 to 8) (size 9 to 14) (size 15 to 20)
#    0.667    1.889    0.000    3.333    0.000    6.667 
#    0.000    0.000    0.000    1.333    0.000    9.333 
#    0.000    0.000    0.000    0.000    0.000    0.000 
#
# Total GULP energy -200517.944813 kJ/mol
# GULP energy per Si atom -5569.942911 kJ/mol
# Density = 1.706369 g / cm^3
# Si number density = 17.102612 Si / 1000 Ang^3
#
#
#
# Elastic Constant Matrix: (Units=GPa)
#
#
# Indices 1 2 3 4 5 6 
#
# 1 86.0546 44.1254 28.4758 0.0000 0.0000 0.0000
# 2 44.1254 107.5909 24.8595 0.0000 0.0000 0.0000
# 3 28.4758 24.8595 23.9346 0.0000 0.0000 0.0000
# 4 0.0000 0.0000 0.0000 -0.3744 0.0000 0.0000
# 5 0.0000 0.0000 0.0000 0.0000 -7.9781 0.0000
# 6 0.0000 0.0000 0.0000 0.0000 0.0000 3.9072
#
#
#
# Elastic Compliance Matrix: (Units=1/GPa)
#
#
# Indices 1 2 3 4 5 6 
#
# 1 0.020167 -0.003588 -0.020266 0.000000 0.000000 0.000000
# 2 -0.003588 0.012868 -0.009096 0.000000 0.000000 0.000000
# 3 -0.020266 -0.009096 0.075339 0.000000 0.000000 0.000000
# 4 0.000000 0.000000 0.000000 -2.670904 0.000000 0.000000
# 5 0.000000 0.000000 0.000000 0.000000 -0.125343 0.000000
# 6 0.000000 0.000000 0.000000 0.000000 0.000000 0.255938
#
#
# Mechanical properties :
#
#
# Convention : Reuss Voigt Hill
#
# Bulk Modulus (GPa) = 23.54431 45.83350 34.68890
# Shear Modulus (GPa) = -2.12596 7.11889 2.49646
#
# Velocity S-wave (km/s) = -1.11614 2.04242 1.20949
# Velocity P-wave (km/s) = 3.48359 5.69379 4.71989
#
# Compressibility (1/GPa) = 0.04247311
#
# Stress axis : x y z
#
# Youngs Moduli (GPa) = 49.58718 77.71376 13.27330
#
# Poissons Ratio (x) = 0.27885 0.26900
# Poissons Ratio (y) = 0.17793 0.12073
# Poissons Ratio (z) = 1.00493 0.70689
#
# Static dielectric constant tensor:
#      x y z
#    x 1.578820 0.000000 0.000000 
#    y 0.000000 1.588390 0.000000 
#    z 0.000000 0.000000 1.565160 
# 
# From -- ./inp_files/24798.got.cif
#   From: 2010.05.17/outbox.cif.g08.bks.cpg/sg69_13_cif.got.tgz:24798.got - 2010.06.03 19:29:58.
