data_PCOD9511603
_publ_section_title
;
Structure prediction by ZEFSAII (Michael W. Deem and Ramdas Pophale) SiO2 
 PCOD9511603
Probable space group: F M M M
;
_chemical_formula_sum "Si O2"
_cell_formula_units_Z 208
_cell_length_a 14.112439
_cell_length_b 21.834538
_cell_length_c 30.606338
_cell_angle_alpha 90.000000
_cell_angle_beta 90.000000
_cell_angle_gamma 90.000000
_cell_volume 9430.993702
_symmetry_space_group_name_H-M "F M M M"
_symmetry_group_IT_number 69
_symmetry_cell_setting 'orthorhombic'
loop_
_space_group_symop_operation_xyz
x,y,z
-x,-y,z
x,-y,-z
-x,y,-z
-x,-y,-z
x,y,-z
-x,y,z
x,-y,z
x,1/2+y,1/2+z
-x,1/2-y,1/2+z
x,1/2-y,1/2-z
-x,1/2+y,1/2-z
-x,1/2-y,1/2-z
x,1/2+y,1/2-z
-x,1/2+y,1/2+z
x,1/2-y,1/2+z
1/2+x,y,1/2+z
1/2-x,-y,1/2+z
1/2+x,-y,1/2-z
1/2-x,y,1/2-z
1/2-x,-y,1/2-z
1/2+x,y,1/2-z
1/2-x,y,1/2+z
1/2+x,-y,1/2+z
1/2+x,1/2+y,z
1/2-x,1/2-y,z
1/2+x,1/2-y,-z
1/2-x,1/2+y,-z
1/2-x,1/2-y,-z
1/2+x,1/2+y,-z
1/2-x,1/2+y,z
1/2+x,1/2-y,z
loop_
_atom_site_type_symbol
_atom_site_label
_atom_site_fract_x
_atom_site_fract_y
_atom_site_fract_z
Si Si1 0.616188 0.643026 0.867140
Si Si2 0.883765 0.864652 0.550535
Si Si3 0.889920 0.068463 0.215359
Si Si4 0.385036 0.282852 0.632238
Si Si5 0.384519 0.429752 0.951668
Si Si6 0.645793 0.686038 0.269664
Si Si7 0.391676 0.500000 0.447191
O O1 0.500000 0.644083 0.865126
O O2 0.652757 0.600983 0.827590
O O3 0.648255 0.712773 0.864573
O O4 0.644000 0.614085 0.913015
O O5 0.857058 0.850709 0.500000
O O6 0.854703 0.817085 0.587994
O O7 0.000000 0.866688 0.550353
O O8 0.850268 0.933413 0.563348
O O9 0.889663 0.120456 0.252452
O O10 0.000000 0.060168 0.204572
O O11 0.851911 0.000000 0.224850
O O12 0.500000 0.281991 0.630886
O O13 0.358501 0.312684 0.678331
O O14 0.500000 0.430007 0.951996
O O15 0.355392 0.500000 0.944354
O O16 0.353097 0.410883 0.000000
O O17 0.602116 0.750000 0.250000
O O18 0.750000 0.687325 0.250000
O O19 0.500000 0.500000 0.430145
O O20 0.396270 0.500000 0.500000
#
# Coordination Sequence:
#
# PCOD9511603 Si02
#       7
#    32  32  32  32  32  32  16
#     4   9  16  26  43  68  98 132 167 209 261 316
#     4   8  14  25  43  71 106 139 171 213 268 326
#     4  10  20  35  57  81 104 133 173 224 279 335
#     4  10  19  31  51  78 107 139 179 228 274 323
#     4   8  13  21  34  57  94 135 169 202 247 310
#     4  11  23  39  57  76 103 146 187 229 276 328
#     4   7  10  20  38  60  95 140 172 200 248 309
#
# _framework density 22.054939000000001
#
# number of rings (size 3 to 8) (size 9 to 14) (size 15 to 20)
#    0.000    2.846    1.538    2.308    0.000    3.385 
#    1.385    3.077    0.000    0.000    0.000    3.231 
#    0.000    0.000    0.000    0.000    0.000    0.154 
#
# Total GULP energy -290167.255151 kJ/mol
# GULP energy per Si atom -5580.139522 kJ/mol
# Density = 2.200474 g / cm^3
# Si number density = 22.054939 Si / 1000 Ang^3
#
#
#
# Elastic Constant Matrix: (Units=GPa)
#
#
# Indices 1 2 3 4 5 6 
#
# 1 56.1035 19.0022 4.4251 0.0000 0.0000 0.0000
# 2 19.0022 205.6730 122.7340 0.0000 0.0000 0.0000
# 3 4.4251 122.7340 183.7226 0.0000 0.0000 0.0000
# 4 0.0000 0.0000 0.0000 21.4067 0.0000 0.0000
# 5 0.0000 0.0000 0.0000 0.0000 0.0174 0.0000
# 6 0.0000 0.0000 0.0000 0.0000 0.0000 18.6632
#
#
#
# Elastic Compliance Matrix: (Units=1/GPa)
#
#
# Indices 1 2 3 4 5 6 
#
# 1 0.018548 -0.002406 0.001161 0.000000 0.000000 0.000000
# 2 -0.002406 0.008397 -0.005552 0.000000 0.000000 0.000000
# 3 0.001161 -0.005552 0.009124 0.000000 0.000000 0.000000
# 4 0.000000 0.000000 0.000000 0.046714 0.000000 0.000000
# 5 0.000000 0.000000 0.000000 0.000000 57.416399 0.000000
# 6 0.000000 0.000000 0.000000 0.000000 0.000000 0.053581
#
#
# Mechanical properties :
#
#
# Convention : Reuss Voigt Hill
#
# Bulk Modulus (GPa) = 44.49544 81.98019 63.23781
# Shear Modulus (GPa) = 0.08684 27.97332 14.03008
#
# Velocity S-wave (km/s) = 0.19865 3.56525 2.52492
# Velocity P-wave (km/s) = 4.50236 7.36204 6.10208
#
# Compressibility (1/GPa) = 0.02247421
#
# Stress axis : x y z
#
# Youngs Moduli (GPa) = 53.91511 119.08377 109.60224
#
# Poissons Ratio (x) = 0.28655 -0.12722
# Poissons Ratio (y) = 0.12974 0.60850
# Poissons Ratio (z) = -0.06258 0.66114
#
# Static dielectric constant tensor:
#      x y z
#    x 1.795550 0.000000 0.000000 
#    y 0.000000 1.825220 0.000000 
#    z 0.000000 0.000000 1.756690 
# 
# From -- ./inp_files/25162.got.cif
#   From: 2010.05.17/outbox.cif.g08.bks.cpg/sg69_13_cif.got.tgz:25162.got - 2010.06.03 19:29:58.
