data_PCOD9511152
_publ_section_title
;
Structure prediction by ZEFSAII (Michael W. Deem and Ramdas Pophale) SiO2 
 PCOD9511152
Probable space group: F M M M
;
_chemical_formula_sum "Si O2"
_cell_formula_units_Z 136
_cell_length_a 15.272970
_cell_length_b 25.471639
_cell_length_c 14.130167
_cell_angle_alpha 90.000000
_cell_angle_beta 90.000000
_cell_angle_gamma 90.000000
_cell_volume 5497.024649
_symmetry_space_group_name_H-M "F M M M"
_symmetry_group_IT_number 69
_symmetry_cell_setting 'orthorhombic'
loop_
_space_group_symop_operation_xyz
x,y,z
-x,-y,z
x,-y,-z
-x,y,-z
-x,-y,-z
x,y,-z
-x,y,z
x,-y,z
x,1/2+y,1/2+z
-x,1/2-y,1/2+z
x,1/2-y,1/2-z
-x,1/2+y,1/2-z
-x,1/2-y,1/2-z
x,1/2+y,1/2-z
-x,1/2+y,1/2+z
x,1/2-y,1/2+z
1/2+x,y,1/2+z
1/2-x,-y,1/2+z
1/2+x,-y,1/2-z
1/2-x,y,1/2-z
1/2-x,-y,1/2-z
1/2+x,y,1/2-z
1/2-x,y,1/2+z
1/2+x,-y,1/2+z
1/2+x,1/2+y,z
1/2-x,1/2-y,z
1/2+x,1/2-y,-z
1/2-x,1/2+y,-z
1/2-x,1/2-y,-z
1/2+x,1/2+y,-z
1/2-x,1/2+y,z
1/2+x,1/2-y,z
loop_
_atom_site_type_symbol
_atom_site_label
_atom_site_fract_x
_atom_site_fract_y
_atom_site_fract_z
Si Si1 0.685539 0.703975 0.393656
Si Si2 0.500000 0.375262 0.890144
Si Si3 0.346910 0.556198 0.114542
Si Si4 0.000000 0.500000 0.162075
Si Si5 0.500000 0.746431 0.862343
Si Si6 0.847023 0.084743 0.615767
O O1 0.721647 0.693949 0.500000
O O2 0.750000 0.750000 0.354114
O O3 0.589024 0.728123 0.397739
O O4 0.667035 0.645821 0.352505
O O5 0.411256 0.399115 0.848897
O O6 0.500000 0.313953 0.887474
O O7 0.500000 0.391911 0.000000
O O8 0.386462 0.500000 0.141304
O O9 0.246728 0.560350 0.141312
O O10 0.344046 0.558689 0.000000
O O11 0.923376 0.546991 0.152655
O O12 0.500000 0.750000 0.750000
O O13 0.858382 0.085715 0.500000
#
# Coordination Sequence:
#
# PCOD9511152 Si02
#       6
#    32  16  32   8  16  32
#     4  10  21  39  62  87 117 154 199 250 301 356
#     4  10  19  33  56  81 110 148 191 245 295 343
#     4   9  16  28  48  82 117 141 176 228 294 357
#     4  12  19  26  42  74 118 154 182 220 289 358
#     4  12  25  39  56  83 116 158 204 247 298 352
#     4  10  18  28  47  77 114 148 178 226 289 352
#
# _framework density 24.740656999999999
#
# number of rings (size 3 to 8) (size 9 to 14) (size 15 to 20)
#    0.000    1.882    1.176    4.588    0.000    7.529 
#    0.000    0.000    0.000    0.000   12.235    1.647 
#    0.000    0.000    0.000    0.000    0.000    0.000 
#
# Total GULP energy -189468.704354 kJ/mol
# GULP energy per Si atom -5572.608952 kJ/mol
# Density = 2.468435 g / cm^3
# Si number density = 24.740657 Si / 1000 Ang^3
#
#
#
# Elastic Constant Matrix: (Units=GPa)
#
#
# Indices 1 2 3 4 5 6 
#
# 1 178.0565 94.3100 -2.2519 0.0000 0.0000 0.0000
# 2 94.3100 223.6248 0.6254 0.0000 0.0000 0.0000
# 3 -2.2519 0.6254 100.2981 0.0000 0.0000 0.0000
# 4 0.0000 0.0000 0.0000 201.0635 0.0000 0.0000
# 5 0.0000 0.0000 0.0000 0.0000 -42.3288 0.0000
# 6 0.0000 0.0000 0.0000 0.0000 0.0000 41.2877
#
#
#
# Elastic Compliance Matrix: (Units=1/GPa)
#
#
# Indices 1 2 3 4 5 6 
#
# 1 0.007235 -0.003052 0.000181 0.000000 0.000000 0.000000
# 2 -0.003052 0.005759 -0.000104 0.000000 0.000000 0.000000
# 3 0.000181 -0.000104 0.009975 0.000000 0.000000 0.000000
# 4 0.000000 0.000000 0.000000 0.004974 0.000000 0.000000
# 5 0.000000 0.000000 0.000000 0.000000 -0.023625 0.000000
# 6 0.000000 0.000000 0.000000 0.000000 0.000000 0.024220
#
#
# Mechanical properties :
#
#
# Convention : Reuss Voigt Hill
#
# Bulk Modulus (GPa) = 58.75568 76.37183 67.56376
# Shear Modulus (GPa) = 124.49981 67.29086 95.89534
#
# Velocity S-wave (km/s) = 7.10149 5.22088 6.23252
# Velocity P-wave (km/s) = 9.54158 8.20240 8.89722
#
# Compressibility (1/GPa) = 0.01701963
#
# Stress axis : x y z
#
# Youngs Moduli (GPa) = 138.21973 173.63921 100.25055
#
# Poissons Ratio (x) = 0.52989 -0.01819
# Poissons Ratio (y) = 0.42180 0.01047
# Poissons Ratio (z) = -0.02508 0.01813
#
# Static dielectric constant tensor:
#      x y z
#    x 1.890490 0.000000 0.000000 
#    y 0.000000 1.901440 0.000000 
#    z 0.000000 0.000000 2.068320 
# 
# From -- ./inp_files/29820.got.cif
#   From: 2010.05.17/outbox.cif.g08.bks.cpg/sg69_15_cif.got.tgz:29820.got - 2010.06.03 19:29:58.
