data_PCOD9511070
_publ_section_title
;
Structure prediction by ZEFSAII (Michael W. Deem and Ramdas Pophale) SiO2 
 PCOD9511070
Probable space group: F M M M
;
_chemical_formula_sum "Si O2"
_cell_formula_units_Z 164
_cell_length_a 23.886186
_cell_length_b 15.206864
_cell_length_c 21.409349
_cell_angle_alpha 90.000000
_cell_angle_beta 90.000000
_cell_angle_gamma 90.000000
_cell_volume 7776.603089
_symmetry_space_group_name_H-M "F M M M"
_symmetry_group_IT_number 69
_symmetry_cell_setting 'orthorhombic'
loop_
_space_group_symop_operation_xyz
x,y,z
-x,-y,z
x,-y,-z
-x,y,-z
-x,-y,-z
x,y,-z
-x,y,z
x,-y,z
x,1/2+y,1/2+z
-x,1/2-y,1/2+z
x,1/2-y,1/2-z
-x,1/2+y,1/2-z
-x,1/2-y,1/2-z
x,1/2+y,1/2-z
-x,1/2+y,1/2+z
x,1/2-y,1/2+z
1/2+x,y,1/2+z
1/2-x,-y,1/2+z
1/2+x,-y,1/2-z
1/2-x,y,1/2-z
1/2-x,-y,1/2-z
1/2+x,y,1/2-z
1/2-x,y,1/2+z
1/2+x,-y,1/2+z
1/2+x,1/2+y,z
1/2-x,1/2-y,z
1/2+x,1/2-y,-z
1/2-x,1/2+y,-z
1/2-x,1/2-y,-z
1/2+x,1/2+y,-z
1/2-x,1/2+y,z
1/2+x,1/2-y,z
loop_
_atom_site_type_symbol
_atom_site_label
_atom_site_fract_x
_atom_site_fract_y
_atom_site_fract_z
Si Si1 0.684994 0.141934 0.746411
Si Si2 0.500000 0.656410 0.214347
Si Si3 0.387677 0.355001 0.133466
Si Si4 0.103984 0.634545 0.000000
Si Si5 0.500000 0.500000 0.500000
Si Si6 0.068235 0.342974 0.500000
Si Si7 0.124247 0.652735 0.129919
Si Si8 0.500000 0.596591 0.347213
O O1 0.680403 0.250000 0.750000
O O2 0.750000 0.119673 0.750000
O O3 0.656380 0.106009 0.683228
O O4 0.651877 0.112802 0.808618
O O5 0.500000 0.750000 0.250000
O O6 0.554565 0.647672 0.172356
O O7 0.500000 0.590953 0.272501
O O8 0.364361 0.256060 0.126569
O O9 0.404710 0.383168 0.063449
O O10 0.084240 0.738007 0.000000
O O11 0.138514 0.614974 0.062647
O O12 0.049017 0.576375 0.000000
O O13 0.000000 0.350992 0.500000
O O14 0.056990 0.643777 0.135064
O O15 0.500000 0.500000 0.378340
#
# Coordination Sequence:
#
# PCOD9511070 Si02
#       8
#    32  16  32  16   4  16  32  16
#     4   9  17  31  52  73  93 125 171 212 243 280
#     4  12  16  29  49  71  95 130 168 193 247 305
#     4  10  17  29  49  73  98 130 160 200 247 297
#     4  10  22  28  39  66 100 138 157 186 239 291
#     4  12  20  32  44  64  96 144 164 182 218 306
#     4  10  18  28  43  71 108 126 155 197 248 306
#     4  10  19  32  45  68 103 132 159 195 243 292
#     4  12  23  29  45  76 106 129 161 202 244 299
#
# _framework density 21.088898
#
# number of rings (size 3 to 8) (size 9 to 14) (size 15 to 20)
#    0.000    1.756    5.366    1.171    5.463    0.000 
#    0.000    0.976    0.000    6.439    0.000    1.366 
#    0.000    0.000    0.000    0.000    0.000    0.000 
#
# Total GULP energy -228440.724098 kJ/mol
# GULP energy per Si atom -5571.724978 kJ/mol
# Density = 2.104090 g / cm^3
# Si number density = 21.088898 Si / 1000 Ang^3
#
#
#
# Elastic Constant Matrix: (Units=GPa)
#
#
# Indices 1 2 3 4 5 6 
#
# 1 106.2839 -2.5629 78.5780 0.0000 0.0000 0.0000
# 2 -2.5629 47.4265 4.8917 0.0000 0.0000 0.0000
# 3 78.5780 4.8917 226.9618 0.0000 0.0000 0.0000
# 4 0.0000 0.0000 0.0000 4.2301 0.0000 0.0000
# 5 0.0000 0.0000 0.0000 0.0000 7.8909 0.0000
# 6 0.0000 0.0000 0.0000 0.0000 0.0000 -20.8664
#
#
#
# Elastic Compliance Matrix: (Units=1/GPa)
#
#
# Indices 1 2 3 4 5 6 
#
# 1 0.012707 0.001143 -0.004424 0.000000 0.000000 0.000000
# 2 0.001143 0.021235 -0.000853 0.000000 0.000000 0.000000
# 3 -0.004424 -0.000853 0.005956 0.000000 0.000000 0.000000
# 4 0.000000 0.000000 0.000000 0.236401 0.000000 0.000000
# 5 0.000000 0.000000 0.000000 0.000000 0.126729 0.000000
# 6 0.000000 0.000000 0.000000 0.000000 0.000000 -0.047924
#
#
# Mechanical properties :
#
#
# Convention : Reuss Voigt Hill
#
# Bulk Modulus (GPa) = 31.61619 60.27618 45.94618
# Shear Modulus (GPa) = 13.37199 18.23528 15.80363
#
# Velocity S-wave (km/s) = 2.52082 2.94374 2.74045
# Velocity P-wave (km/s) = 4.84738 6.34020 5.64337
#
# Compressibility (1/GPa) = 0.03162937
#
# Stress axis : x y z
#
# Youngs Moduli (GPa) = 78.69601 47.09196 167.89500
#
# Poissons Ratio (x) = -0.05383 0.74278
# Poissons Ratio (y) = -0.08995 0.14328
# Poissons Ratio (z) = 0.34816 0.04019
#
# Static dielectric constant tensor:
#      x y z
#    x 1.706020 0.000000 0.000000 
#    y 0.000000 1.800580 0.000000 
#    z 0.000000 0.000000 2.276810 
# 
# From -- ./inp_files/33496.got.cif
#   From: 2010.05.17/outbox.cif.g08.bks.cpg/sg69_17_cif.got.tgz:33496.got - 2010.06.03 19:29:58.
