data_PCOD9511006
_publ_section_title
;
Structure prediction by ZEFSAII (Michael W. Deem and Ramdas Pophale) SiO2 
 PCOD9511006
Probable space group: F M M M
;
_chemical_formula_sum "Si O2"
_cell_formula_units_Z 120
_cell_length_a 27.963262
_cell_length_b 15.107411
_cell_length_c 14.072416
_cell_angle_alpha 90.000000
_cell_angle_beta 90.000000
_cell_angle_gamma 90.000000
_cell_volume 5944.927207
_symmetry_space_group_name_H-M "F M M M"
_symmetry_group_IT_number 69
_symmetry_cell_setting 'orthorhombic'
loop_
_space_group_symop_operation_xyz
x,y,z
-x,-y,z
x,-y,-z
-x,y,-z
-x,-y,-z
x,y,-z
-x,y,z
x,-y,z
x,1/2+y,1/2+z
-x,1/2-y,1/2+z
x,1/2-y,1/2-z
-x,1/2+y,1/2-z
-x,1/2-y,1/2-z
x,1/2+y,1/2-z
-x,1/2+y,1/2+z
x,1/2-y,1/2+z
1/2+x,y,1/2+z
1/2-x,-y,1/2+z
1/2+x,-y,1/2-z
1/2-x,y,1/2-z
1/2-x,-y,1/2-z
1/2+x,y,1/2-z
1/2-x,y,1/2+z
1/2+x,-y,1/2+z
1/2+x,1/2+y,z
1/2-x,1/2-y,z
1/2+x,1/2-y,-z
1/2-x,1/2+y,-z
1/2-x,1/2-y,-z
1/2+x,1/2+y,-z
1/2-x,1/2+y,z
1/2+x,1/2-y,z
loop_
_atom_site_type_symbol
_atom_site_label
_atom_site_fract_x
_atom_site_fract_y
_atom_site_fract_z
Si Si1 0.500000 0.270722 0.000000
Si Si2 0.103022 0.706641 0.500000
Si Si3 0.699984 0.145884 0.786898
Si Si4 0.297489 0.810796 0.000000
Si Si5 0.500000 0.403501 0.177946
Si Si6 0.599902 0.850827 0.288331
O O1 0.445661 0.233090 0.000000
O O2 0.500000 0.329775 0.095765
O O3 0.152864 0.757339 0.500000
O O4 0.102446 0.651058 0.597068
O O5 0.699508 0.250000 0.750000
O O6 0.750000 0.108297 0.750000
O O7 0.649319 0.109810 0.750485
O O8 0.702236 0.139916 0.900130
O O9 0.250000 0.750000 0.000000
O O10 0.500000 0.500000 0.132246
O O11 0.451082 0.393036 0.236500
O O12 0.597583 0.750000 0.250000
#
# Coordination Sequence:
#
# PCOD9511006 Si02
#       6
#     8  16  32  16  16  32
#     4   8  19  30  46  64  92 122 159 200 237 294
#     4  10  16  27  42  68  95 127 152 188 241 275
#     4  10  17  26  41  68  97 127 152 188 229 283
#     4  12  16  24  41  65 102 131 148 181 240 280
#     4  10  20  33  49  67  92 127 164 201 241 280
#     4  10  18  30  47  71  97 124 158 196 236 284
#
# _framework density 20.185276999999999
#
# number of rings (size 3 to 8) (size 9 to 14) (size 15 to 20)
#    0.000    1.867    8.000    0.600    0.000    0.000 
#    0.000    0.000    0.000    0.800    0.000    7.467 
#    0.000    0.000    0.000    0.000    0.000    0.000 
#
# Total GULP energy -167017.587367 kJ/mol
# GULP energy per Si atom -5567.252912 kJ/mol
# Density = 2.013933 g / cm^3
# Si number density = 20.185277 Si / 1000 Ang^3
#
#
#
# Elastic Constant Matrix: (Units=GPa)
#
#
# Indices 1 2 3 4 5 6 
#
# 1 275.7591 12.3295 59.1128 0.0000 0.0000 0.0000
# 2 12.3295 28.0883 -3.6583 0.0000 0.0000 0.0000
# 3 59.1128 -3.6583 140.5017 0.0000 0.0000 0.0000
# 4 0.0000 0.0000 0.0000 -3.2743 0.0000 0.0000
# 5 0.0000 0.0000 0.0000 0.0000 28.7798 0.0000
# 6 0.0000 0.0000 0.0000 0.0000 0.0000 -25.7352
#
#
#
# Elastic Compliance Matrix: (Units=1/GPa)
#
#
# Indices 1 2 3 4 5 6 
#
# 1 0.004098 -0.002030 -0.001777 0.000000 0.000000 0.000000
# 2 -0.002030 0.036729 0.001811 0.000000 0.000000 0.000000
# 3 -0.001777 0.001811 0.007912 0.000000 0.000000 0.000000
# 4 0.000000 0.000000 0.000000 -0.305407 0.000000 0.000000
# 5 0.000000 0.000000 0.000000 0.000000 0.034747 0.000000
# 6 0.000000 0.000000 0.000000 0.000000 0.000000 -0.038857
#
#
# Mechanical properties :
#
#
# Convention : Reuss Voigt Hill
#
# Bulk Modulus (GPa) = 22.34857 64.43522 43.39190
# Shear Modulus (GPa) = -20.67231 25.05841 2.19305
#
# Velocity S-wave (km/s) = -3.20367 3.52720 1.04347
# Velocity P-wave (km/s) = 1.60902 6.96989 4.79533
#
# Compressibility (1/GPa) = 0.04474559
#
# Stress axis : x y z
#
# Youngs Moduli (GPa) = 244.01776 27.22646 126.38811
#
# Poissons Ratio (x) = 0.05528 0.22460
# Poissons Ratio (y) = 0.49543 -0.22883
# Poissons Ratio (z) = 0.43363 -0.04929
#
# Static dielectric constant tensor:
#      x y z
#    x 1.803110 0.000000 0.000000 
#    y 0.000000 1.728400 0.000000 
#    z 0.000000 0.000000 1.648560 
# 
# From -- ./inp_files/17634.got.cif
#   From: 2010.05.17/outbox.cif.g08.bks.cpg/sg69_9_cif.got.tgz:17634.got - 2010.06.03 19:29:58.
