data_PCOD9511068
_publ_section_title
;
Structure prediction by ZEFSAII (Michael W. Deem and Ramdas Pophale) SiO2 
 PCOD9511068
Probable space group: F M M M
;
_chemical_formula_sum "Si O2"
_cell_formula_units_Z 168
_cell_length_a 19.106854
_cell_length_b 14.437265
_cell_length_c 29.428995
_cell_angle_alpha 90.000000
_cell_angle_beta 90.000000
_cell_angle_gamma 90.000000
_cell_volume 8118.009298
_symmetry_space_group_name_H-M "F M M M"
_symmetry_group_IT_number 69
_symmetry_cell_setting 'orthorhombic'
loop_
_space_group_symop_operation_xyz
x,y,z
-x,-y,z
x,-y,-z
-x,y,-z
-x,-y,-z
x,y,-z
-x,y,z
x,-y,z
x,1/2+y,1/2+z
-x,1/2-y,1/2+z
x,1/2-y,1/2-z
-x,1/2+y,1/2-z
-x,1/2-y,1/2-z
x,1/2+y,1/2-z
-x,1/2+y,1/2+z
x,1/2-y,1/2+z
1/2+x,y,1/2+z
1/2-x,-y,1/2+z
1/2+x,-y,1/2-z
1/2-x,y,1/2-z
1/2-x,-y,1/2-z
1/2+x,y,1/2-z
1/2-x,y,1/2+z
1/2+x,-y,1/2+z
1/2+x,1/2+y,z
1/2-x,1/2-y,z
1/2+x,1/2-y,-z
1/2-x,1/2+y,-z
1/2-x,1/2-y,-z
1/2+x,1/2+y,-z
1/2-x,1/2+y,z
1/2+x,1/2-y,z
loop_
_atom_site_type_symbol
_atom_site_label
_atom_site_fract_x
_atom_site_fract_y
_atom_site_fract_z
Si Si1 0.233781 0.142905 0.575021
Si Si2 0.720635 0.500000 0.000000
Si Si3 0.575237 0.110339 0.910463
Si Si4 0.757714 0.603351 0.180684
Si Si5 0.898324 0.695517 0.187315
Si Si6 0.897407 0.894422 0.218319
O O1 0.250000 0.250000 0.570517
O O2 0.149871 0.132289 0.567186
O O3 0.253723 0.112206 0.626425
O O4 0.273815 0.080141 0.539561
O O5 0.500000 0.138358 0.931570
O O6 0.579159 0.153328 0.860213
O O7 0.574681 0.000000 0.906326
O O8 0.789550 0.500000 0.188451
O O9 0.814206 0.682512 0.190290
O O10 0.686672 0.606090 0.209351
O O11 0.919543 0.802792 0.190393
O O12 0.919701 0.634921 0.230908
O O13 0.919575 0.000000 0.207615
#
# Coordination Sequence:
#
# PCOD9511068 Si02
#       6
#    32   8  32  32  32  32
#     4  11  21  37  60  88 121 155 190 238 298 359
#     4  12  22  40  57  94 127 142 190 238 308 366
#     4  10  20  38  62  87 118 157 197 242 294 348
#     4  10  17  29  48  72 107 146 184 232 283 341
#     4  10  18  30  47  72 104 144 194 240 279 328
#     4  10  19  28  44  73 108 147 191 237 284 328
#
# _framework density 20.694728000000001
#
# number of rings (size 3 to 8) (size 9 to 14) (size 15 to 20)
#    0.000    1.714    1.905    6.571    0.000    3.048 
#    0.000    2.857    0.000    1.714    0.000    0.667 
#    0.000    0.000    0.000    0.000    0.000    0.000 
#
# Total GULP energy -233821.556978 kJ/mol
# GULP energy per Si atom -5567.179928 kJ/mol
# Density = 2.064763 g / cm^3
# Si number density = 20.694728 Si / 1000 Ang^3
#
#
#
# Elastic Constant Matrix: (Units=GPa)
#
#
# Indices 1 2 3 4 5 6 
#
# 1 71.7600 20.1686 -15.7768 0.0000 0.0000 0.0000
# 2 20.1686 175.4079 12.9407 0.0000 0.0000 0.0000
# 3 -15.7768 12.9407 52.4067 0.0000 0.0000 0.0000
# 4 0.0000 0.0000 0.0000 30.4364 0.0000 0.0000
# 5 0.0000 0.0000 0.0000 0.0000 -7.7372 0.0000
# 6 0.0000 0.0000 0.0000 0.0000 0.0000 3.9360
#
#
#
# Elastic Compliance Matrix: (Units=1/GPa)
#
#
# Indices 1 2 3 4 5 6 
#
# 1 0.015711 -0.002195 0.005272 0.000000 0.000000 0.000000
# 2 -0.002195 0.006114 -0.002171 0.000000 0.000000 0.000000
# 3 0.005272 -0.002171 0.021205 0.000000 0.000000 0.000000
# 4 0.000000 0.000000 0.000000 0.032855 0.000000 0.000000
# 5 0.000000 0.000000 0.000000 0.000000 -0.129246 0.000000
# 6 0.000000 0.000000 0.000000 0.000000 0.000000 0.254065
#
#
# Mechanical properties :
#
#
# Convention : Reuss Voigt Hill
#
# Bulk Modulus (GPa) = 22.30074 37.13774 29.71924
# Shear Modulus (GPa) = 23.38200 24.14317 23.76259
#
# Velocity S-wave (km/s) = 3.36498 3.41931 3.39225
# Velocity P-wave (km/s) = 5.08890 5.79425 5.45299
#
# Compressibility (1/GPa) = 0.04484156
#
# Stress axis : x y z
#
# Youngs Moduli (GPa) = 63.64784 163.57064 47.15959
#
# Poissons Ratio (x) = 0.35911 -0.24862
# Poissons Ratio (y) = 0.13974 0.10236
# Poissons Ratio (z) = -0.33555 0.35504
#
# Static dielectric constant tensor:
#      x y z
#    x 1.818550 0.000000 0.000000 
#    y 0.000000 1.747250 0.000000 
#    z 0.000000 0.000000 1.738210 
# 
# From -- ./inp_files/33889.got.cif
#   From: 2010.05.17/outbox.cif.g08.bks.cpg/sg69_17_cif.got.tgz:33889.got - 2010.06.03 19:29:58.
