data_PCOD9511626
_publ_section_title
;
Structure prediction by ZEFSAII (Michael W. Deem and Ramdas Pophale) SiO2 
 PCOD9511626
Probable space group: F M M M
;
_chemical_formula_sum "Si O2"
_cell_formula_units_Z 128
_cell_length_a 19.924408
_cell_length_b 16.495228
_cell_length_c 20.383721
_cell_angle_alpha 90.000000
_cell_angle_beta 90.000000
_cell_angle_gamma 90.000000
_cell_volume 6699.265898
_symmetry_space_group_name_H-M "F M M M"
_symmetry_group_IT_number 69
_symmetry_cell_setting 'orthorhombic'
loop_
_space_group_symop_operation_xyz
x,y,z
-x,-y,z
x,-y,-z
-x,y,-z
-x,-y,-z
x,y,-z
-x,y,z
x,-y,z
x,1/2+y,1/2+z
-x,1/2-y,1/2+z
x,1/2-y,1/2-z
-x,1/2+y,1/2-z
-x,1/2-y,1/2-z
x,1/2+y,1/2-z
-x,1/2+y,1/2+z
x,1/2-y,1/2+z
1/2+x,y,1/2+z
1/2-x,-y,1/2+z
1/2+x,-y,1/2-z
1/2-x,y,1/2-z
1/2-x,-y,1/2-z
1/2+x,y,1/2-z
1/2-x,y,1/2+z
1/2+x,-y,1/2+z
1/2+x,1/2+y,z
1/2-x,1/2-y,z
1/2+x,1/2-y,-z
1/2-x,1/2+y,-z
1/2-x,1/2-y,-z
1/2+x,1/2+y,-z
1/2-x,1/2+y,z
1/2+x,1/2-y,z
loop_
_atom_site_type_symbol
_atom_site_label
_atom_site_fract_x
_atom_site_fract_y
_atom_site_fract_z
Si Si1 0.000000 0.217136 0.920140
Si Si2 0.146900 0.656441 0.771676
Si Si3 0.000000 0.172033 0.701101
Si Si4 0.237325 0.593616 0.345595
Si Si5 0.886898 0.591223 0.422665
O O1 0.063790 0.161804 0.899704
O O2 0.000000 0.295159 0.873701
O O3 0.000000 0.230442 0.000000
O O4 0.146422 0.750000 0.750000
O O5 0.070982 0.629254 0.784904
O O6 0.185015 0.608010 0.714319
O O7 0.196994 0.646647 0.833216
O O8 0.000000 0.250000 0.750000
O O9 0.258069 0.500000 0.346487
O O10 0.190275 0.610688 0.407438
O O11 0.898408 0.586769 0.500000
O O12 0.900852 0.500000 0.395986
#
# Coordination Sequence:
#
# PCOD9511626 Si02
#       5
#    16  32  16  32  32
#     4  10  19  32  48  70 101 130 160 199 240 285
#     4  10  19  32  50  69  95 128 158 194 243 288
#     4  10  20  33  50  69  92 125 164 196 235 287
#     4  10  19  32  49  72  99 124 157 199 240 283
#     4   9  17  29  47  70  96 127 159 193 238 289
#
# _framework density 19.106570000000001
#
# number of rings (size 3 to 8) (size 9 to 14) (size 15 to 20)
#    0.000    2.250    0.000    6.375    0.000    1.500 
#    0.000    5.000    0.000    6.000    0.000    0.000 
#    0.000    8.000    0.000    0.000    0.000    0.000 
#
# Total GULP energy -178327.070734 kJ/mol
# GULP energy per Si atom -5572.720960 kJ/mol
# Density = 1.906308 g / cm^3
# Si number density = 19.106570 Si / 1000 Ang^3
#
#
#
# Elastic Constant Matrix: (Units=GPa)
#
#
# Indices 1 2 3 4 5 6 
#
# 1 143.3158 26.5845 1.4607 0.0000 0.0000 0.0000
# 2 26.5845 30.0131 1.7081 0.0000 0.0000 0.0000
# 3 1.4607 1.7081 23.5609 0.0000 0.0000 0.0000
# 4 0.0000 0.0000 0.0000 23.3549 0.0000 0.0000
# 5 0.0000 0.0000 0.0000 0.0000 28.6079 0.0000
# 6 0.0000 0.0000 0.0000 0.0000 0.0000 21.2287
#
#
#
# Elastic Compliance Matrix: (Units=1/GPa)
#
#
# Indices 1 2 3 4 5 6 
#
# 1 0.008349 -0.007397 0.000019 0.000000 0.000000 0.000000
# 2 -0.007397 0.040010 -0.002442 0.000000 0.000000 0.000000
# 3 0.000019 -0.002442 0.042619 0.000000 0.000000 0.000000
# 4 0.000000 0.000000 0.000000 0.042818 0.000000 0.000000
# 5 0.000000 0.000000 0.000000 0.000000 0.034955 0.000000
# 6 0.000000 0.000000 0.000000 0.000000 0.000000 0.047106
#
#
# Mechanical properties :
#
#
# Convention : Reuss Voigt Hill
#
# Bulk Modulus (GPa) = 14.01780 28.48849 21.25314
# Shear Modulus (GPa) = 19.28441 25.78072 22.53257
#
# Velocity S-wave (km/s) = 3.18041 3.67728 3.43783
# Velocity P-wave (km/s) = 4.56500 5.74217 5.18709
#
# Compressibility (1/GPa) = 0.07133787
#
# Stress axis : x y z
#
# Youngs Moduli (GPa) = 119.76797 24.99401 23.46365
#
# Poissons Ratio (x) = 0.18487 -0.00044
# Poissons Ratio (y) = 0.88589 0.05730
# Poissons Ratio (z) = -0.00223 0.06104
#
# Static dielectric constant tensor:
#      x y z
#    x 1.717880 0.000000 0.000000 
#    y 0.000000 1.676060 0.000000 
#    z 0.000000 0.000000 1.740710 
# 
# From -- ./inp_files/24383.got.cif
#   From: 2010.05.17/outbox.cif.g08.bks.cpg/sg69_13_cif.got.tgz:24383.got - 2010.06.03 19:29:58.
