data_PCOD9511368
_publ_section_title
;
Structure prediction by ZEFSAII (Michael W. Deem and Ramdas Pophale) SiO2 
 PCOD9511368
Probable space group: F M M M
;
_chemical_formula_sum "Si O2"
_cell_formula_units_Z 208
_cell_length_a 27.661841
_cell_length_b 19.072109
_cell_length_c 23.010477
_cell_angle_alpha 90.000000
_cell_angle_beta 90.000000
_cell_angle_gamma 90.000000
_cell_volume 12139.629221
_symmetry_space_group_name_H-M "F M M M"
_symmetry_group_IT_number 69
_symmetry_cell_setting 'orthorhombic'
loop_
_space_group_symop_operation_xyz
x,y,z
-x,-y,z
x,-y,-z
-x,y,-z
-x,-y,-z
x,y,-z
-x,y,z
x,-y,z
x,1/2+y,1/2+z
-x,1/2-y,1/2+z
x,1/2-y,1/2-z
-x,1/2+y,1/2-z
-x,1/2-y,1/2-z
x,1/2+y,1/2-z
-x,1/2+y,1/2+z
x,1/2-y,1/2+z
1/2+x,y,1/2+z
1/2-x,-y,1/2+z
1/2+x,-y,1/2-z
1/2-x,y,1/2-z
1/2-x,-y,1/2-z
1/2+x,y,1/2-z
1/2-x,y,1/2+z
1/2+x,-y,1/2+z
1/2+x,1/2+y,z
1/2-x,1/2-y,z
1/2+x,1/2-y,-z
1/2-x,1/2+y,-z
1/2-x,1/2-y,-z
1/2+x,1/2+y,-z
1/2-x,1/2+y,z
1/2+x,1/2-y,z
loop_
_atom_site_type_symbol
_atom_site_label
_atom_site_fract_x
_atom_site_fract_y
_atom_site_fract_z
Si Si1 0.280467 0.179692 0.429544
Si Si2 0.197071 0.579177 0.929879
Si Si3 0.900759 0.160888 0.567347
Si Si4 0.107859 0.322409 0.598028
Si Si5 0.942573 0.421538 0.827623
Si Si6 0.442684 0.326897 0.778319
Si Si7 0.941925 0.415933 0.500000
O O1 0.286025 0.180046 0.500000
O O2 0.250000 0.250000 0.415118
O O3 0.247051 0.114531 0.411280
O O4 0.333958 0.174458 0.404038
O O5 0.189447 0.500000 0.908177
O O6 0.152906 0.631864 0.918075
O O7 0.199150 0.575480 0.000000
O O8 0.911041 0.143101 0.500000
O O9 0.904332 0.244021 0.575479
O O10 0.933474 0.121931 0.614061
O O11 0.086604 0.331010 0.662257
O O12 0.083254 0.378950 0.555369
O O13 0.922669 0.500000 0.832831
O O14 0.924595 0.381057 0.770603
O O15 0.000000 0.425834 0.820106
O O16 0.500000 0.338663 0.790142
O O17 0.438477 0.250000 0.750000
O O18 0.934440 0.500000 0.500000
O O19 0.000000 0.403147 0.500000
#
# Coordination Sequence:
#
# PCOD9511368 Si02
#       7
#    32  32  32  32  32  32  16
#     4  10  18  32  54  82 118 149 189 243 291 348
#     4   9  18  31  51  79 115 154 186 225 284 353
#     4  11  20  34  58  90 120 150 187 233 298 363
#     4  12  21  37  62  87 114 154 197 245 294 344
#     4  10  22  39  58  83 116 151 191 244 299 351
#     4  10  21  38  60  83 108 148 203 247 280 339
#     4  11  26  42  55  84 127 161 194 245 302 346
#
# _framework density 17.133966999999998
#
# number of rings (size 3 to 8) (size 9 to 14) (size 15 to 20)
#    0.000    1.615    4.615    0.923    0.000    3.077 
#    0.000    2.308    0.000    3.231    0.000    2.154 
#    0.000    0.000    0.000    0.000    0.000    0.000 
#
# Total GULP energy -290015.542392 kJ/mol
# GULP energy per Si atom -5577.221969 kJ/mol
# Density = 1.709497 g / cm^3
# Si number density = 17.133967 Si / 1000 Ang^3
#
#
#
# Elastic Constant Matrix: (Units=GPa)
#
#
# Indices 1 2 3 4 5 6 
#
# 1 78.8123 44.2010 48.4143 0.0000 0.0000 0.0000
# 2 44.2010 125.2391 46.1202 0.0000 0.0000 0.0000
# 3 48.4143 46.1202 112.9951 0.0000 0.0000 0.0000
# 4 0.0000 0.0000 0.0000 19.7970 0.0000 0.0000
# 5 0.0000 0.0000 0.0000 0.0000 15.2597 0.0000
# 6 0.0000 0.0000 0.0000 0.0000 0.0000 21.8422
#
#
#
# Elastic Compliance Matrix: (Units=1/GPa)
#
#
# Indices 1 2 3 4 5 6 
#
# 1 0.019064 -0.004378 -0.006381 0.000000 0.000000 0.000000
# 2 -0.004378 0.010403 -0.002370 0.000000 0.000000 0.000000
# 3 -0.006381 -0.002370 0.012551 0.000000 0.000000 0.000000
# 4 0.000000 0.000000 0.000000 0.050513 0.000000 0.000000
# 5 0.000000 0.000000 0.000000 0.000000 0.065532 0.000000
# 6 0.000000 0.000000 0.000000 0.000000 0.000000 0.045783
#
#
# Mechanical properties :
#
#
# Convention : Reuss Voigt Hill
#
# Bulk Modulus (GPa) = 63.45583 66.05749 64.75666
# Shear Modulus (GPa) = 21.24426 23.26718 22.25572
#
# Velocity S-wave (km/s) = 3.52503 3.68904 3.60797
# Velocity P-wave (km/s) = 7.32689 7.53542 7.43189
#
# Compressibility (1/GPa) = 0.01575899
#
# Stress axis : x y z
#
# Youngs Moduli (GPa) = 52.45543 96.12813 79.67268
#
# Poissons Ratio (x) = 0.42088 0.50840
# Poissons Ratio (y) = 0.22967 0.18883
# Poissons Ratio (z) = 0.33472 0.22783
#
# Static dielectric constant tensor:
#      x y z
#    x 1.589740 0.000000 0.000000 
#    y 0.000000 1.603120 0.000000 
#    z 0.000000 0.000000 1.552000 
# 
# From -- ./inp_files/38496.got.cif
#   From: 2010.05.17/outbox.cif.g08.bks.cpg/sg69_20_cif.got.tgz:38496.got - 2010.06.03 19:29:58.
