data_PCOD9511161
_publ_section_title
;
Structure prediction by ZEFSAII (Michael W. Deem and Ramdas Pophale) SiO2 
 PCOD9511161
Probable space group: F M M M
;
_chemical_formula_sum "Si O2"
_cell_formula_units_Z 160
_cell_length_a 19.269048
_cell_length_b 26.890188
_cell_length_c 13.706565
_cell_angle_alpha 90.000000
_cell_angle_beta 90.000000
_cell_angle_gamma 90.000000
_cell_volume 7102.033673
_symmetry_space_group_name_H-M "F M M M"
_symmetry_group_IT_number 69
_symmetry_cell_setting 'orthorhombic'
loop_
_space_group_symop_operation_xyz
x,y,z
-x,-y,z
x,-y,-z
-x,y,-z
-x,-y,-z
x,y,-z
-x,y,z
x,-y,z
x,1/2+y,1/2+z
-x,1/2-y,1/2+z
x,1/2-y,1/2-z
-x,1/2+y,1/2-z
-x,1/2-y,1/2-z
x,1/2+y,1/2-z
-x,1/2+y,1/2+z
x,1/2-y,1/2+z
1/2+x,y,1/2+z
1/2-x,-y,1/2+z
1/2+x,-y,1/2-z
1/2-x,y,1/2-z
1/2-x,-y,1/2-z
1/2+x,y,1/2-z
1/2-x,y,1/2+z
1/2+x,-y,1/2+z
1/2+x,1/2+y,z
1/2-x,1/2-y,z
1/2+x,1/2-y,-z
1/2-x,1/2+y,-z
1/2-x,1/2-y,-z
1/2+x,1/2+y,-z
1/2-x,1/2+y,z
1/2+x,1/2-y,z
loop_
_atom_site_type_symbol
_atom_site_label
_atom_site_fract_x
_atom_site_fract_y
_atom_site_fract_z
Si Si1 0.899649 0.290941 0.391254
Si Si2 0.730205 0.446542 0.382296
Si Si3 0.602002 0.817991 0.180115
Si Si4 0.574751 0.573519 0.614427
Si Si5 0.250483 0.836350 0.612760
O O1 0.922305 0.306293 0.500000
O O2 0.916713 0.233350 0.372371
O O3 0.922856 0.317982 0.292135
O O4 0.816851 0.301197 0.389088
O O5 0.727727 0.447074 0.500000
O O6 0.761057 0.500000 0.353222
O O7 0.649846 0.443744 0.346886
O O8 0.766934 0.394006 0.359347
O O9 0.577563 0.867018 0.126125
O O10 0.686053 0.819330 0.177124
O O11 0.574521 0.560557 0.500000
O O12 0.500000 0.556788 0.655672
O O13 0.224178 0.837502 0.500000
#
# Coordination Sequence:
#
# PCOD9511161 Si02
#       5
#    32  32  32  32  32
#     4  10  19  29  43  64  87 116 154 186 216 261
#     4   8  14  25  42  66  94 120 146 179 221 268
#     4  10  18  29  45  63  88 118 148 184 223 261
#     4   9  17  29  46  67  90 117 148 183 225 271
#     4   9  16  26  42  64  90 118 147 179 217 264
#
# _framework density 22.528759000000001
#
# number of rings (size 3 to 8) (size 9 to 14) (size 15 to 20)
#    0.000    2.800    0.000    4.200    0.000    3.600 
#    0.000    4.000    0.000   11.400    0.000    0.000 
#    0.000    0.000    0.000    7.200    0.000    0.800 
#
# Total GULP energy -223086.253667 kJ/mol
# GULP energy per Si atom -5577.156342 kJ/mol
# Density = 2.247748 g / cm^3
# Si number density = 22.528759 Si / 1000 Ang^3
#
#
#
# Elastic Constant Matrix: (Units=GPa)
#
#
# Indices 1 2 3 4 5 6 
#
# 1 90.1058 14.2913 6.9579 0.0000 0.0000 0.0000
# 2 14.2913 114.1026 7.9516 0.0000 0.0000 0.0000
# 3 6.9579 7.9516 127.5724 0.0000 0.0000 0.0000
# 4 0.0000 0.0000 0.0000 -6.4415 0.0000 0.0000
# 5 0.0000 0.0000 0.0000 0.0000 -19.7735 0.0000
# 6 0.0000 0.0000 0.0000 0.0000 0.0000 -10.8501
#
#
#
# Elastic Compliance Matrix: (Units=1/GPa)
#
#
# Indices 1 2 3 4 5 6 
#
# 1 0.011359 -0.001386 -0.000533 0.000000 0.000000 0.000000
# 2 -0.001386 0.008971 -0.000484 0.000000 0.000000 0.000000
# 3 -0.000533 -0.000484 0.007898 0.000000 0.000000 0.000000
# 4 0.000000 0.000000 0.000000 -0.155243 0.000000 0.000000
# 5 0.000000 0.000000 0.000000 0.000000 -0.050573 0.000000
# 6 0.000000 0.000000 0.000000 0.000000 0.000000 -0.092165
#
#
# Mechanical properties :
#
#
# Convention : Reuss Voigt Hill
#
# Bulk Modulus (GPa) = 42.69212 43.35359 43.02285
# Shear Modulus (GPa) = -19.44470 12.75897 -3.34286
#
# Velocity S-wave (km/s) = -2.94105 2.38237 -1.21944
# Velocity P-wave (km/s) = 2.73096 5.18199 4.14193
#
# Compressibility (1/GPa) = 0.02342353
#
# Stress axis : x y z
#
# Youngs Moduli (GPa) = 88.03597 111.46672 126.61581
#
# Poissons Ratio (x) = 0.15444 0.06751
# Poissons Ratio (y) = 0.12198 0.06123
# Poissons Ratio (z) = 0.04694 0.05391
#
# Static dielectric constant tensor:
#      x y z
#    x 1.873960 0.000000 0.000000 
#    y 0.000000 1.842410 0.000000 
#    z 0.000000 0.000000 1.881540 
# 
# From -- ./inp_files/17986.got.cif
#   From: 2010.05.17/outbox.cif.g08.bks.cpg/sg69_9_cif.got.tgz:17986.got - 2010.06.03 19:29:58.
