data_PCOD9511413
_publ_section_title
;
Structure prediction by ZEFSAII (Michael W. Deem and Ramdas Pophale) SiO2 
 PCOD9511413
Probable space group: F M M M
;
_chemical_formula_sum "Si O2"
_cell_formula_units_Z 160
_cell_length_a 31.390618
_cell_length_b 16.331256
_cell_length_c 18.114304
_cell_angle_alpha 90.000000
_cell_angle_beta 90.000000
_cell_angle_gamma 90.000000
_cell_volume 9286.265676
_symmetry_space_group_name_H-M "F M M M"
_symmetry_group_IT_number 69
_symmetry_cell_setting 'orthorhombic'
loop_
_space_group_symop_operation_xyz
x,y,z
-x,-y,z
x,-y,-z
-x,y,-z
-x,-y,-z
x,y,-z
-x,y,z
x,-y,z
x,1/2+y,1/2+z
-x,1/2-y,1/2+z
x,1/2-y,1/2-z
-x,1/2+y,1/2-z
-x,1/2-y,1/2-z
x,1/2+y,1/2-z
-x,1/2+y,1/2+z
x,1/2-y,1/2+z
1/2+x,y,1/2+z
1/2-x,-y,1/2+z
1/2+x,-y,1/2-z
1/2-x,y,1/2-z
1/2-x,-y,1/2-z
1/2+x,y,1/2-z
1/2-x,y,1/2+z
1/2+x,-y,1/2+z
1/2+x,1/2+y,z
1/2-x,1/2-y,z
1/2+x,1/2-y,-z
1/2-x,1/2+y,-z
1/2-x,1/2-y,-z
1/2+x,1/2+y,-z
1/2-x,1/2+y,z
1/2+x,1/2-y,z
loop_
_atom_site_type_symbol
_atom_site_label
_atom_site_fract_x
_atom_site_fract_y
_atom_site_fract_z
Si Si1 0.000000 0.403327 0.916754
Si Si2 0.408858 0.355706 0.630278
Si Si3 0.591541 0.671174 0.914919
Si Si4 0.500000 0.094445 0.589335
Si Si5 0.353342 0.658565 0.227603
Si Si6 0.152740 0.000000 0.581450
Si Si7 0.700670 0.000000 0.769775
O O1 0.957556 0.380902 0.874263
O O2 0.000000 0.500000 0.925338
O O3 0.000000 0.366203 0.000000
O O4 0.407025 0.269267 0.589378
O O5 0.391894 0.349419 0.713575
O O6 0.378196 0.422184 0.592654
O O7 0.544485 0.639091 0.890963
O O8 0.626957 0.648736 0.853986
O O9 0.599026 0.644251 0.000000
O O10 0.500000 0.093310 0.500000
O O11 0.500000 0.000000 0.615395
O O12 0.335902 0.750000 0.250000
O O13 0.321272 0.583502 0.240344
O O14 0.170971 0.000000 0.500000
O O15 0.188837 0.000000 0.643493
O O16 0.750000 0.000000 0.750000
#
# Coordination Sequence:
#
# PCOD9511413 Si02
#       7
#    16  32  32  16  32  16  16
#     4  11  19  26  43  76 111 142 179 221 258 295
#     4  10  19  32  49  75 111 146 178 214 260 304
#     4  10  19  33  53  75 103 143 186 224 255 292
#     4   9  19  32  45  67 100 141 184 223 257 285
#     4   9  21  38  56  80 107 137 175 216 263 319
#     4  10  18  33  56  80 107 138 172 211 256 318
#     4  10  22  40  61  83 107 135 165 206 274 336
#
# _framework density 17.229745999999999
#
# number of rings (size 3 to 8) (size 9 to 14) (size 15 to 20)
#    0.000    2.200    1.000    2.400    1.400    2.000 
#    0.000    5.000    0.000    0.000    0.000    8.400 
#    0.000    0.000    0.000    0.000    0.000    0.000 
#
# Total GULP energy -222854.984072 kJ/mol
# GULP energy per Si atom -5571.374602 kJ/mol
# Density = 1.719053 g / cm^3
# Si number density = 17.229746 Si / 1000 Ang^3
#
#
#
# Elastic Constant Matrix: (Units=GPa)
#
#
# Indices 1 2 3 4 5 6 
#
# 1 120.0173 60.8713 56.2926 0.0000 0.0000 0.0000
# 2 60.8713 112.9492 43.6867 0.0000 0.0000 0.0000
# 3 56.2926 43.6867 101.2575 0.0000 0.0000 0.0000
# 4 0.0000 0.0000 0.0000 17.7770 0.0000 0.0000
# 5 0.0000 0.0000 0.0000 0.0000 6.1237 0.0000
# 6 0.0000 0.0000 0.0000 0.0000 0.0000 11.5250
#
#
#
# Elastic Compliance Matrix: (Units=1/GPa)
#
#
# Indices 1 2 3 4 5 6 
#
# 1 0.013423 -0.005219 -0.005211 0.000000 0.000000 0.000000
# 2 -0.005219 0.012656 -0.002559 0.000000 0.000000 0.000000
# 3 -0.005211 -0.002559 0.013877 0.000000 0.000000 0.000000
# 4 0.000000 0.000000 0.000000 0.056252 0.000000 0.000000
# 5 0.000000 0.000000 0.000000 0.000000 0.163299 0.000000
# 6 0.000000 0.000000 0.000000 0.000000 0.000000 0.086768
#
#
# Mechanical properties :
#
#
# Convention : Reuss Voigt Hill
#
# Bulk Modulus (GPa) = 71.53746 72.88058 72.20902
# Shear Modulus (GPa) = 13.26575 18.64339 15.95457
#
# Velocity S-wave (km/s) = 2.77778 3.29302 3.04631
# Velocity P-wave (km/s) = 7.20402 7.53988 7.37386
#
# Compressibility (1/GPa) = 0.01397869
#
# Stress axis : x y z
#
# Youngs Moduli (GPa) = 74.49915 79.01553 72.06295
#
# Poissons Ratio (x) = 0.41235 0.37551
# Poissons Ratio (y) = 0.38878 0.18441
# Poissons Ratio (z) = 0.38820 0.20220
#
# Static dielectric constant tensor:
#      x y z
#    x 1.536310 0.000000 0.000000 
#    y 0.000000 1.601790 0.000000 
#    z 0.000000 0.000000 1.618180 
# 
# From -- ./inp_files/15745.got.cif
#   From: 2010.05.17/outbox.cif.g08.bks.cpg/sg69_8_cif.got.tgz:15745.got - 2010.06.03 19:29:58.
