data_PCOD9511954
_publ_section_title
;
Structure prediction by ZEFSAII (Michael W. Deem and Ramdas Pophale) SiO2 
 PCOD9511954
Probable space group: F M M M
;
_chemical_formula_sum "Si O2"
_cell_formula_units_Z 104
_cell_length_a 22.041725
_cell_length_b 18.114452
_cell_length_c 13.588221
_cell_angle_alpha 90.000000
_cell_angle_beta 90.000000
_cell_angle_gamma 90.000000
_cell_volume 5425.420220
_symmetry_space_group_name_H-M "F M M M"
_symmetry_group_IT_number 69
_symmetry_cell_setting 'orthorhombic'
loop_
_space_group_symop_operation_xyz
x,y,z
-x,-y,z
x,-y,-z
-x,y,-z
-x,-y,-z
x,y,-z
-x,y,z
x,-y,z
x,1/2+y,1/2+z
-x,1/2-y,1/2+z
x,1/2-y,1/2-z
-x,1/2+y,1/2-z
-x,1/2-y,1/2-z
x,1/2+y,1/2-z
-x,1/2+y,1/2+z
x,1/2-y,1/2+z
1/2+x,y,1/2+z
1/2-x,-y,1/2+z
1/2+x,-y,1/2-z
1/2-x,y,1/2-z
1/2-x,-y,1/2-z
1/2+x,y,1/2-z
1/2-x,y,1/2+z
1/2+x,-y,1/2+z
1/2+x,1/2+y,z
1/2-x,1/2-y,z
1/2+x,1/2-y,-z
1/2-x,1/2+y,-z
1/2-x,1/2-y,-z
1/2+x,1/2+y,-z
1/2-x,1/2+y,z
1/2+x,1/2-y,z
loop_
_atom_site_type_symbol
_atom_site_label
_atom_site_fract_x
_atom_site_fract_y
_atom_site_fract_z
Si Si1 0.000000 0.000000 0.646488
Si Si2 0.819471 0.145620 0.718493
Si Si3 0.619550 0.231457 0.613307
Si Si4 0.000000 0.832181 0.382170
Si Si5 0.639414 0.500000 0.609626
O O1 0.000000 0.090066 0.678364
O O2 0.933188 0.000000 0.602024
O O3 0.750000 0.142141 0.750000
O O4 0.863670 0.167385 0.809714
O O5 0.828061 0.209453 0.637386
O O6 0.840163 0.070811 0.669240
O O7 0.618222 0.207924 0.500000
O O8 0.558349 0.279224 0.633452
O O9 0.000000 0.852663 0.500000
O O10 0.665395 0.500000 0.500000
#
# Coordination Sequence:
#
# PCOD9511954 Si02
#       5
#     8  32  32  16  16
#     4  12  21  36  64  94 121 150 199 250 302 360
#     4  11  24  39  58  89 122 157 208 243 287 364
#     4  10  21  38  61  88 123 158 193 248 302 348
#     4  10  19  34  60  94 120 152 201 244 300 360
#     4  12  24  41  64  89 119 155 198 257 306 345
#
# _framework density 19.169022999999999
#
# number of rings (size 3 to 8) (size 9 to 14) (size 15 to 20)
#    0.000    1.231    3.077    4.615    0.000    7.385 
#    0.000    0.769    0.000    0.000    0.000    4.308 
#    0.000    0.000    0.000    0.000    0.000    0.000 
#
# Total GULP energy -144803.946301 kJ/mol
# GULP energy per Si atom -5569.382550 kJ/mol
# Density = 1.912539 g / cm^3
# Si number density = 19.169023 Si / 1000 Ang^3
#
#
#
# Elastic Constant Matrix: (Units=GPa)
#
#
# Indices 1 2 3 4 5 6 
#
# 1 133.0296 43.2024 44.1469 0.0000 0.0000 0.0000
# 2 43.2024 139.4615 76.3965 0.0000 0.0000 0.0000
# 3 44.1469 76.3965 116.2106 0.0000 0.0000 0.0000
# 4 0.0000 0.0000 0.0000 -5.9970 0.0000 0.0000
# 5 0.0000 0.0000 0.0000 0.0000 -14.9077 0.0000
# 6 0.0000 0.0000 0.0000 0.0000 0.0000 4.9053
#
#
#
# Elastic Compliance Matrix: (Units=1/GPa)
#
#
# Indices 1 2 3 4 5 6 
#
# 1 0.008772 -0.001394 -0.002416 0.000000 0.000000 0.000000
# 2 -0.001394 0.011427 -0.006983 0.000000 0.000000 0.000000
# 3 -0.002416 -0.006983 0.014113 0.000000 0.000000 0.000000
# 4 0.000000 0.000000 0.000000 -0.166750 0.000000 0.000000
# 5 0.000000 0.000000 0.000000 0.000000 -0.067080 0.000000
# 6 0.000000 0.000000 0.000000 0.000000 0.000000 0.203860
#
#
# Mechanical properties :
#
#
# Convention : Reuss Voigt Hill
#
# Bulk Modulus (GPa) = 78.57230 79.57703 79.07467
# Shear Modulus (GPa) = 165.72602 11.79718 88.76160
#
# Velocity S-wave (km/s) = 9.30821 2.48348 6.81214
# Velocity P-wave (km/s) = 12.51407 7.05882 10.15945
#
# Compressibility (1/GPa) = 0.01272713
#
# Stress axis : x y z
#
# Youngs Moduli (GPa) = 114.00539 87.50902 70.85499
#
# Poissons Ratio (x) = 0.12197 0.17118
# Poissons Ratio (y) = 0.15890 0.49477
# Poissons Ratio (z) = 0.27542 0.61106
#
# Static dielectric constant tensor:
#      x y z
#    x 1.682590 0.000000 0.000000 
#    y 0.000000 1.717230 0.000000 
#    z 0.000000 0.000000 1.696740 
# 
# From -- ./inp_files/14986.got.cif
#   From: 2010.05.17/outbox.cif.g08.bks.cpg/sg69_8_cif.got.tgz:14986.got - 2010.06.03 19:29:58.
