data_PCOD9511513
_publ_section_title
;
Structure prediction by ZEFSAII (Michael W. Deem and Ramdas Pophale) SiO2 
 PCOD9511513
Probable space group: F M M M
;
_chemical_formula_sum "Si O2"
_cell_formula_units_Z 192
_cell_length_a 17.331979
_cell_length_b 21.306861
_cell_length_c 30.276029
_cell_angle_alpha 90.000000
_cell_angle_beta 90.000000
_cell_angle_gamma 90.000000
_cell_volume 11180.636790
_symmetry_space_group_name_H-M "F M M M"
_symmetry_group_IT_number 69
_symmetry_cell_setting 'orthorhombic'
loop_
_space_group_symop_operation_xyz
x,y,z
-x,-y,z
x,-y,-z
-x,y,-z
-x,-y,-z
x,y,-z
-x,y,z
x,-y,z
x,1/2+y,1/2+z
-x,1/2-y,1/2+z
x,1/2-y,1/2-z
-x,1/2+y,1/2-z
-x,1/2-y,1/2-z
x,1/2+y,1/2-z
-x,1/2+y,1/2+z
x,1/2-y,1/2+z
1/2+x,y,1/2+z
1/2-x,-y,1/2+z
1/2+x,-y,1/2-z
1/2-x,y,1/2-z
1/2-x,-y,1/2-z
1/2+x,y,1/2-z
1/2-x,y,1/2+z
1/2+x,-y,1/2+z
1/2+x,1/2+y,z
1/2-x,1/2-y,z
1/2+x,1/2-y,-z
1/2-x,1/2+y,-z
1/2-x,1/2-y,-z
1/2+x,1/2+y,-z
1/2-x,1/2+y,z
1/2+x,1/2-y,z
loop_
_atom_site_type_symbol
_atom_site_label
_atom_site_fract_x
_atom_site_fract_y
_atom_site_fract_z
Si Si1 0.913567 0.281302 0.855560
Si Si2 0.907320 0.570185 0.721652
Si Si3 0.138916 0.698798 0.049146
Si Si4 0.409782 0.131711 0.629588
Si Si5 0.810362 0.654437 0.548546
Si Si6 0.164014 0.685731 0.229696
O O1 0.907312 0.307772 0.905383
O O2 0.904442 0.205761 0.858078
O O3 0.848006 0.307051 0.822741
O O4 0.000000 0.294643 0.838164
O O5 0.879184 0.500000 0.731224
O O6 0.886556 0.591500 0.672016
O O7 0.876978 0.623206 0.754148
O O8 0.000000 0.570122 0.723450
O O9 0.161267 0.772808 0.048503
O O10 0.218372 0.660077 0.053698
O O11 0.105514 0.685263 0.000000
O O12 0.500000 0.119703 0.619057
O O13 0.354884 0.121222 0.587956
O O14 0.827845 0.628222 0.500000
O O15 0.128516 0.750000 0.250000
O O16 0.250000 0.683210 0.250000
#
# Coordination Sequence:
#
# PCOD9511513 Si02
#       6
#    32  32  32  32  32  32
#     4  10  19  30  48  73 102 133 169 212 254 305
#     4  10  21  37  54  71 100 140 174 211 262 314
#     4   8  15  26  42  67  99 132 162 200 256 313
#     4   9  17  28  46  69  96 132 170 209 249 299
#     4   8  14  24  41  64  95 130 164 206 251 300
#     4  11  23  34  53  79 102 136 172 217 264 310
#
# _framework density 17.172546000000001
#
# number of rings (size 3 to 8) (size 9 to 14) (size 15 to 20)
#    0.000    2.667    1.667    1.500    2.333    3.000 
#    0.000    3.333    0.000    0.500    0.000    2.333 
#    0.000    0.667    0.000    3.500    0.000    0.167 
#
# Total GULP energy -267271.968814 kJ/mol
# GULP energy per Si atom -5568.166017 kJ/mol
# Density = 1.713346 g / cm^3
# Si number density = 17.172546 Si / 1000 Ang^3
#
#
#
# Elastic Constant Matrix: (Units=GPa)
#
#
# Indices 1 2 3 4 5 6 
#
# 1 35.7165 12.5414 28.5893 0.0000 0.0000 0.0000
# 2 12.5414 67.2693 31.1207 0.0000 0.0000 0.0000
# 3 28.5893 31.1207 89.7665 0.0000 0.0000 0.0000
# 4 0.0000 0.0000 0.0000 11.1528 0.0000 0.0000
# 5 0.0000 0.0000 0.0000 0.0000 25.1614 0.0000
# 6 0.0000 0.0000 0.0000 0.0000 0.0000 13.0088
#
#
#
# Elastic Compliance Matrix: (Units=1/GPa)
#
#
# Indices 1 2 3 4 5 6 
#
# 1 0.037752 -0.001758 -0.011414 0.000000 0.000000 0.000000
# 2 -0.001758 0.017787 -0.005607 0.000000 0.000000 0.000000
# 3 -0.011414 -0.005607 0.016719 0.000000 0.000000 0.000000
# 4 0.000000 0.000000 0.000000 0.089664 0.000000 0.000000
# 5 0.000000 0.000000 0.000000 0.000000 0.039743 0.000000
# 6 0.000000 0.000000 0.000000 0.000000 0.000000 0.076871
#
#
# Mechanical properties :
#
#
# Convention : Reuss Voigt Hill
#
# Bulk Modulus (GPa) = 28.81768 37.47278 33.14523
# Shear Modulus (GPa) = 15.25971 17.89799 16.57885
#
# Velocity S-wave (km/s) = 2.98419 3.23188 3.11050
# Velocity P-wave (km/s) = 5.35645 5.98293 5.67834
#
# Compressibility (1/GPa) = 0.03470092
#
# Stress axis : x y z
#
# Youngs Moduli (GPa) = 26.48873 56.22033 59.81231
#
# Poissons Ratio (x) = 0.09883 0.68270
# Poissons Ratio (y) = 0.04656 0.33535
# Poissons Ratio (z) = 0.30234 0.31521
#
# Static dielectric constant tensor:
#      x y z
#    x 1.603850 0.000000 0.000000 
#    y 0.000000 1.562410 0.000000 
#    z 0.000000 0.000000 1.616810 
# 
# From -- ./inp_files/42767.got.cif
#   From: 2010.05.17/outbox.cif.g08.bks.cpg/sg69_22_cif.got.tgz:42767.got - 2010.06.03 19:29:58.
