data_PCOD9511210
_publ_section_title
;
Structure prediction by ZEFSAII (Michael W. Deem and Ramdas Pophale) SiO2 
 PCOD9511210
Probable space group: F M M M
;
_chemical_formula_sum "Si O2"
_cell_formula_units_Z 144
_cell_length_a 29.112400
_cell_length_b 8.623232
_cell_length_c 32.418102
_cell_angle_alpha 90.000000
_cell_angle_beta 90.000000
_cell_angle_gamma 90.000000
_cell_volume 8138.336909
_symmetry_space_group_name_H-M "F M M M"
_symmetry_group_IT_number 69
_symmetry_cell_setting 'orthorhombic'
loop_
_space_group_symop_operation_xyz
x,y,z
-x,-y,z
x,-y,-z
-x,y,-z
-x,-y,-z
x,y,-z
-x,y,z
x,-y,z
x,1/2+y,1/2+z
-x,1/2-y,1/2+z
x,1/2-y,1/2-z
-x,1/2+y,1/2-z
-x,1/2-y,1/2-z
x,1/2+y,1/2-z
-x,1/2+y,1/2+z
x,1/2-y,1/2+z
1/2+x,y,1/2+z
1/2-x,-y,1/2+z
1/2+x,-y,1/2-z
1/2-x,y,1/2-z
1/2-x,-y,1/2-z
1/2+x,y,1/2-z
1/2-x,y,1/2+z
1/2+x,-y,1/2+z
1/2+x,1/2+y,z
1/2-x,1/2-y,z
1/2+x,1/2-y,-z
1/2-x,1/2+y,-z
1/2-x,1/2-y,-z
1/2+x,1/2+y,-z
1/2-x,1/2+y,z
1/2+x,1/2-y,z
loop_
_atom_site_type_symbol
_atom_site_label
_atom_site_fract_x
_atom_site_fract_y
_atom_site_fract_z
Si Si1 0.697893 0.185274 0.500000
Si Si2 0.945369 0.813945 0.046057
Si Si3 0.801212 0.314430 0.913536
Si Si4 0.946654 0.187210 0.294450
Si Si5 0.392440 0.686770 0.374736
O O1 0.750000 0.250000 0.500000
O O2 0.679397 0.249103 0.543015
O O3 0.697200 0.000000 0.500000
O O4 0.919487 0.742118 0.084759
O O5 0.000000 0.782439 0.049412
O O6 0.939318 0.000000 0.047246
O O7 0.930418 0.761323 0.000000
O O8 0.798062 0.500000 0.916739
O O9 0.750000 0.250000 0.906715
O O10 0.838973 0.269723 0.879696
O O11 0.931672 0.250000 0.250000
O O12 0.916445 0.243050 0.332932
O O13 0.000000 0.233360 0.300675
O O14 0.945136 0.000000 0.293406
O O15 0.394406 0.500000 0.374397
#
# Coordination Sequence:
#
# PCOD9511210 Si02
#       5
#    16  32  32  32  32
#     4  10  18  30  48  68  93 128 169 212 256 297
#     4   9  19  34  49  70 103 138 171 207 247 297
#     4  10  20  34  50  71 100 133 172 216 258 300
#     4   9  18  34  55  79 105 130 160 203 255 307
#     4  10  21  34  52  76 102 133 171 213 254 304
#
# _framework density 17.694032
#
# number of rings (size 3 to 8) (size 9 to 14) (size 15 to 20)
#    0.000    2.444    0.000    4.333    1.556    4.444 
#    0.000    3.333    0.000    0.667    0.000    4.667 
#    0.000    0.000    0.000    0.000    0.000    0.000 
#
# Total GULP energy -200799.860721 kJ/mol
# GULP energy per Si atom -5577.773909 kJ/mol
# Density = 1.765376 g / cm^3
# Si number density = 17.694032 Si / 1000 Ang^3
#
#
#
# Elastic Constant Matrix: (Units=GPa)
#
#
# Indices 1 2 3 4 5 6 
#
# 1 94.4917 27.0723 92.2606 0.0001 0.0000 -0.0001
# 2 27.0723 27.8332 25.9145 0.0002 0.0000 -0.0002
# 3 92.2606 25.9145 158.9954 0.0000 0.0000 0.0000
# 4 0.0001 0.0002 0.0000 24.2324 0.0000 0.0000
# 5 0.0000 0.0000 0.0000 0.0000 29.8059 0.0000
# 6 -0.0001 -0.0002 0.0000 0.0000 0.0000 19.4500
#
#
#
# Elastic Compliance Matrix: (Units=1/GPa)
#
#
# Indices 1 2 3 4 5 6 
#
# 1 0.028719 -0.014639 -0.014279 0.000000 0.000000 0.000000
# 2 -0.014639 0.049818 0.000375 0.000000 0.000000 0.000000
# 3 -0.014279 0.000375 0.014514 0.000000 0.000000 0.000000
# 4 0.000000 0.000000 0.000000 0.041267 0.000000 0.000000
# 5 0.000000 0.000000 0.000000 0.000000 0.033550 0.000000
# 6 0.000000 0.000000 0.000000 0.000000 0.000000 0.051414
#
#
# Mechanical properties :
#
#
# Convention : Reuss Voigt Hill
#
# Bulk Modulus (GPa) = 27.80491 63.53502 45.66996
# Shear Modulus (GPa) = 17.33969 23.76919 20.55444
#
# Velocity S-wave (km/s) = 3.13385 3.66914 3.41201
# Velocity P-wave (km/s) = 5.37058 7.34409 6.43346
#
# Compressibility (1/GPa) = 0.03596488
#
# Stress axis : x y z
#
# Youngs Moduli (GPa) = 34.82074 20.07301 68.89987
#
# Poissons Ratio (x) = 0.29385 0.98379
# Poissons Ratio (y) = 0.50975 -0.02583
# Poissons Ratio (z) = 0.49719 -0.00752
#
# Static dielectric constant tensor:
#      x y z
#    x 1.617110 0.000000 0.000000 
#    y 0.000000 1.624780 0.000000 
#    z 0.000000 0.000000 1.603400 
# 
# From -- ./inp_files/5630.got.cif
#   From: 2010.05.17/outbox.cif.g08.bks.cpg/sg69_3_cif.got.tgz:5630.got - 2010.06.03 19:29:58.
