data_PCOD9511562
_publ_section_title
;
Structure prediction by ZEFSAII (Michael W. Deem and Ramdas Pophale) SiO2 
 PCOD9511562
Probable space group: F M M M
;
_chemical_formula_sum "Si O2"
_cell_formula_units_Z 208
_cell_length_a 29.386920
_cell_length_b 24.043699
_cell_length_c 17.149765
_cell_angle_alpha 90.000000
_cell_angle_beta 90.000000
_cell_angle_gamma 90.000000
_cell_volume 12117.513898
_symmetry_space_group_name_H-M "F M M M"
_symmetry_group_IT_number 69
_symmetry_cell_setting 'orthorhombic'
loop_
_space_group_symop_operation_xyz
x,y,z
-x,-y,z
x,-y,-z
-x,y,-z
-x,-y,-z
x,y,-z
-x,y,z
x,-y,z
x,1/2+y,1/2+z
-x,1/2-y,1/2+z
x,1/2-y,1/2-z
-x,1/2+y,1/2-z
-x,1/2-y,1/2-z
x,1/2+y,1/2-z
-x,1/2+y,1/2+z
x,1/2-y,1/2+z
1/2+x,y,1/2+z
1/2-x,-y,1/2+z
1/2+x,-y,1/2-z
1/2-x,y,1/2-z
1/2-x,-y,1/2-z
1/2+x,y,1/2-z
1/2-x,y,1/2+z
1/2+x,-y,1/2+z
1/2+x,1/2+y,z
1/2-x,1/2-y,z
1/2+x,1/2-y,-z
1/2-x,1/2+y,-z
1/2-x,1/2-y,-z
1/2+x,1/2+y,-z
1/2-x,1/2+y,z
1/2+x,1/2-y,z
loop_
_atom_site_type_symbol
_atom_site_label
_atom_site_fract_x
_atom_site_fract_y
_atom_site_fract_z
Si Si1 0.446894 0.436992 0.306079
Si Si2 0.354510 0.274009 0.406349
Si Si3 0.110663 0.434350 0.349712
Si Si4 0.448732 0.171776 0.906478
Si Si5 0.820953 0.148620 0.090337
Si Si6 0.265338 0.685642 0.336648
Si Si7 0.948406 0.932536 0.000000
O O1 0.500000 0.435306 0.281549
O O2 0.438168 0.500000 0.335241
O O3 0.415740 0.426967 0.231026
O O4 0.440569 0.388652 0.368845
O O5 0.348110 0.282698 0.500000
O O6 0.406312 0.288938 0.385189
O O7 0.342477 0.209365 0.391581
O O8 0.318272 0.311951 0.359276
O O9 0.120460 0.500000 0.359040
O O10 0.155299 0.397242 0.356664
O O11 0.078299 0.416584 0.421839
O O12 0.500000 0.190288 0.883013
O O13 0.448579 0.167312 0.000000
O O14 0.767125 0.152737 0.104781
O O15 0.829902 0.136103 0.000000
O O16 0.250000 0.668200 0.250000
O O17 0.250000 0.750000 0.343719
O O18 0.000000 0.911406 0.000000
O O19 0.950349 0.000000 0.000000
#
# Coordination Sequence:
#
# PCOD9511562 Si02
#       7
#    32  32  32  32  32  32  16
#     4   9  18  32  50  72  98 131 172 214 252 293
#     4   9  18  33  52  73 103 135 166 206 254 298
#     4  10  19  31  48  72 101 133 167 208 255 294
#     4   9  18  33  53  76 103 134 165 203 256 313
#     4  10  19  32  51  74 100 130 171 209 245 298
#     4   9  18  31  50  77  97 125 164 209 250 291
#     4   9  16  28  46  66  93 130 170 204 235 280
#
# _framework density 17.165237000000001
#
# number of rings (size 3 to 8) (size 9 to 14) (size 15 to 20)
#    0.000    2.692    0.769    0.923    2.154    4.000 
#    0.000    3.077    0.000    3.231    0.000    2.154 
#    0.000    0.000    0.000    0.000    0.000    0.000 
#
# Total GULP energy -289624.442945 kJ/mol
# GULP energy per Si atom -5569.700826 kJ/mol
# Density = 1.712617 g / cm^3
# Si number density = 17.165237 Si / 1000 Ang^3
#
#
#
# Elastic Constant Matrix: (Units=GPa)
#
#
# Indices 1 2 3 4 5 6 
#
# 1 108.5108 32.7842 26.6774 0.0000 0.0000 0.0000
# 2 32.7842 29.7584 13.6505 0.0000 0.0000 0.0000
# 3 26.6774 13.6505 20.7563 0.0000 0.0000 0.0000
# 4 0.0000 0.0000 0.0000 19.2758 0.0000 0.0000
# 5 0.0000 0.0000 0.0000 0.0000 23.4913 0.0000
# 6 0.0000 0.0000 0.0000 0.0000 0.0000 26.6198
#
#
#
# Elastic Compliance Matrix: (Units=1/GPa)
#
#
# Indices 1 2 3 4 5 6 
#
# 1 0.015861 -0.011632 -0.012736 0.000000 0.000000 0.000000
# 2 -0.011632 0.056651 -0.022307 0.000000 0.000000 0.000000
# 3 -0.012736 -0.022307 0.079218 0.000000 0.000000 0.000000
# 4 0.000000 0.000000 0.000000 0.051879 0.000000 0.000000
# 5 0.000000 0.000000 0.000000 0.000000 0.042569 0.000000
# 6 0.000000 0.000000 0.000000 0.000000 0.000000 0.037566
#
#
# Mechanical properties :
#
#
# Convention : Reuss Voigt Hill
#
# Bulk Modulus (GPa) = 17.12915 33.91664 25.52289
# Shear Modulus (GPa) = 12.60869 19.60495 16.10682
#
# Velocity S-wave (km/s) = 2.71319 3.38321 3.06656
# Velocity P-wave (km/s) = 4.45150 5.92143 5.23828
#
# Compressibility (1/GPa) = 0.05838003
#
# Stress axis : x y z
#
# Youngs Moduli (GPa) = 63.04738 17.65208 12.62346
#
# Poissons Ratio (x) = 0.20532 0.16077
# Poissons Ratio (y) = 0.73334 0.28159
# Poissons Ratio (z) = 0.80298 0.39376
#
# Static dielectric constant tensor:
#      x y z
#    x 1.601270 0.000000 0.000000 
#    y 0.000000 1.559760 0.000000 
#    z 0.000000 0.000000 1.596140 
# 
# From -- ./inp_files/26996.got.cif
#   From: 2010.05.17/outbox.cif.g08.bks.cpg/sg69_14_cif.got.tgz:26996.got - 2010.06.03 19:29:58.
