data_PCOD9511131
_publ_section_title
;
Structure prediction by ZEFSAII (Michael W. Deem and Ramdas Pophale) SiO2 
 PCOD9511131
Probable space group: F M M M
;
_chemical_formula_sum "Si O2"
_cell_formula_units_Z 168
_cell_length_a 7.376745
_cell_length_b 31.349441
_cell_length_c 31.939357
_cell_angle_alpha 90.000000
_cell_angle_beta 90.000000
_cell_angle_gamma 90.000000
_cell_volume 7386.194521
_symmetry_space_group_name_H-M "F M M M"
_symmetry_group_IT_number 69
_symmetry_cell_setting 'orthorhombic'
loop_
_space_group_symop_operation_xyz
x,y,z
-x,-y,z
x,-y,-z
-x,y,-z
-x,-y,-z
x,y,-z
-x,y,z
x,-y,z
x,1/2+y,1/2+z
-x,1/2-y,1/2+z
x,1/2-y,1/2-z
-x,1/2+y,1/2-z
-x,1/2-y,1/2-z
x,1/2+y,1/2-z
-x,1/2+y,1/2+z
x,1/2-y,1/2+z
1/2+x,y,1/2+z
1/2-x,-y,1/2+z
1/2+x,-y,1/2-z
1/2-x,y,1/2-z
1/2-x,-y,1/2-z
1/2+x,y,1/2-z
1/2-x,y,1/2+z
1/2+x,-y,1/2+z
1/2+x,1/2+y,z
1/2-x,1/2-y,z
1/2+x,1/2-y,-z
1/2-x,1/2+y,-z
1/2-x,1/2-y,-z
1/2+x,1/2+y,-z
1/2-x,1/2+y,z
1/2+x,1/2-y,z
loop_
_atom_site_type_symbol
_atom_site_label
_atom_site_fract_x
_atom_site_fract_y
_atom_site_fract_z
Si Si1 0.778962 0.426402 0.815795
Si Si2 0.250000 0.000000 0.750000
Si Si3 0.279303 0.548245 0.410160
Si Si4 0.216212 0.201865 0.615261
Si Si5 0.216141 0.830639 0.703265
Si Si6 0.721533 0.133751 0.046830
O O1 0.714275 0.462832 0.784980
O O2 0.727932 0.436951 0.863376
O O3 0.718717 0.379515 0.801646
O O4 0.000000 0.428204 0.813866
O O5 0.500000 0.547309 0.410804
O O6 0.217935 0.500000 0.418653
O O7 0.222766 0.585691 0.441373
O O8 0.250000 0.250000 0.601403
O O9 0.285469 0.194763 0.662727
O O10 0.284022 0.166665 0.582495
O O11 0.000000 0.195935 0.616781
O O12 0.250000 0.814026 0.750000
O O13 0.000000 0.832454 0.699546
O O14 0.500000 0.134308 0.047461
O O15 0.778353 0.145428 0.000000
#
# Coordination Sequence:
#
# PCOD9511131 Si02
#       6
#    32   8  32  32  32  32
#     4  10  18  28  42  65  98 134 171 208 253 303
#     4  12  18  24  44  70  92 126 182 218 250 288
#     4   9  15  25  43  67  99 136 168 204 251 307
#     4  10  21  37  57  78 106 138 173 216 267 318
#     4  10  20  35  53  74 102 139 175 212 259 311
#     4   9  17  30  49  74 104 137 171 211 262 317
#
# _framework density 22.745137
#
# number of rings (size 3 to 8) (size 9 to 14) (size 15 to 20)
#    0.000    2.286    3.810    0.286    0.000    1.905 
#    0.000    3.810    0.000    0.000    0.000    0.000 
#    0.000    0.000    0.000    1.714    0.000    1.905 
#
# Total GULP energy -234178.188821 kJ/mol
# GULP energy per Si atom -5575.671162 kJ/mol
# Density = 2.269337 g / cm^3
# Si number density = 22.745137 Si / 1000 Ang^3
#
#
#
# Elastic Constant Matrix: (Units=GPa)
#
#
# Indices 1 2 3 4 5 6 
#
# 1 78.6636 -2.4626 6.0513 0.0000 0.0000 0.0000
# 2 -2.4626 107.5995 67.0344 0.0000 0.0000 0.0000
# 3 6.0513 67.0344 161.1441 0.0000 0.0000 0.0000
# 4 0.0000 0.0000 0.0000 16.5991 0.0000 0.0000
# 5 0.0000 0.0000 0.0000 0.0000 -29.7021 0.0000
# 6 0.0000 0.0000 0.0000 0.0000 0.0000 3.7103
#
#
#
# Elastic Compliance Matrix: (Units=1/GPa)
#
#
# Indices 1 2 3 4 5 6 
#
# 1 0.012800 0.000800 -0.000813 0.000000 0.000000 0.000000
# 2 0.000800 0.012595 -0.005269 0.000000 0.000000 0.000000
# 3 -0.000813 -0.005269 0.008428 0.000000 0.000000 0.000000
# 4 0.000000 0.000000 0.000000 0.060244 0.000000 0.000000
# 5 0.000000 0.000000 0.000000 0.000000 -0.033668 0.000000
# 6 0.000000 0.000000 0.000000 0.000000 0.000000 0.269521
#
#
# Mechanical properties :
#
#
# Convention : Reuss Voigt Hill
#
# Bulk Modulus (GPa) = 42.99798 54.29483 48.64640
# Shear Modulus (GPa) = 14.35794 16.57373 15.46584
#
# Velocity S-wave (km/s) = 2.51520 2.70232 2.61044
# Velocity P-wave (km/s) = 5.23262 5.80168 5.52448
#
# Compressibility (1/GPa) = 0.02325690
#
# Stress axis : x y z
#
# Youngs Moduli (GPa) = 78.12528 79.39771 118.64981
#
# Poissons Ratio (x) = -0.06349 0.09650
# Poissons Ratio (y) = -0.06247 0.62521
# Poissons Ratio (z) = 0.06354 0.41837
#
# Static dielectric constant tensor:
#      x y z
#    x 1.951330 0.000000 0.000000 
#    y 0.000000 1.784500 0.000000 
#    z 0.000000 0.000000 1.818430 
# 
# From -- ./inp_files/45284.got.cif
#   From: 2010.05.17/outbox.cif.g08.bks.cpg/sg69_23_cif.got.tgz:45284.got - 2010.06.03 19:29:58.
