data_PCOD9511130
_publ_section_title
;
Structure prediction by ZEFSAII (Michael W. Deem and Ramdas Pophale) SiO2 
 PCOD9511130
Probable space group: F M M M
;
_chemical_formula_sum "Si O2"
_cell_formula_units_Z 160
_cell_length_a 31.196350
_cell_length_b 31.203993
_cell_length_c 8.313273
_cell_angle_alpha 90.000000
_cell_angle_beta 90.000000
_cell_angle_gamma 90.000000
_cell_volume 8092.561313
_symmetry_space_group_name_H-M "F M M M"
_symmetry_group_IT_number 69
_symmetry_cell_setting 'orthorhombic'
loop_
_space_group_symop_operation_xyz
x,y,z
-x,-y,z
x,-y,-z
-x,y,-z
-x,-y,-z
x,y,-z
-x,y,z
x,-y,z
x,1/2+y,1/2+z
-x,1/2-y,1/2+z
x,1/2-y,1/2-z
-x,1/2+y,1/2-z
-x,1/2-y,1/2-z
x,1/2+y,1/2-z
-x,1/2+y,1/2+z
x,1/2-y,1/2+z
1/2+x,y,1/2+z
1/2-x,-y,1/2+z
1/2+x,-y,1/2-z
1/2-x,y,1/2-z
1/2-x,-y,1/2-z
1/2+x,y,1/2-z
1/2-x,y,1/2+z
1/2+x,-y,1/2+z
1/2+x,1/2+y,z
1/2-x,1/2-y,z
1/2+x,1/2-y,-z
1/2-x,1/2+y,-z
1/2-x,1/2-y,-z
1/2+x,1/2+y,-z
1/2-x,1/2+y,z
1/2+x,1/2-y,z
loop_
_atom_site_type_symbol
_atom_site_label
_atom_site_fract_x
_atom_site_fract_y
_atom_site_fract_z
Si Si1 0.296172 0.108483 0.190632
Si Si2 0.409554 0.829669 0.304362
Si Si3 0.949356 0.000000 0.803301
Si Si4 0.820635 0.203950 0.192380
Si Si5 0.000000 0.298100 0.694591
Si Si6 0.616167 0.925226 0.693668
O O1 0.250000 0.093079 0.250000
O O2 0.301696 0.157829 0.254144
O O3 0.334724 0.077166 0.246670
O O4 0.297178 0.110907 0.000000
O O5 0.409661 0.827438 0.500000
O O6 0.370225 0.800167 0.250073
O O7 0.456079 0.817887 0.244045
O O8 0.400098 0.878247 0.259982
O O9 0.919439 0.959696 0.753015
O O10 0.000000 0.000000 0.751721
O O11 0.951058 0.000000 0.000000
O O12 0.803065 0.250000 0.250000
O O13 0.818779 0.204238 0.000000
O O14 0.000000 0.250000 0.750000
O O15 0.000000 0.301421 0.500000
O O16 0.618015 0.928473 0.500000
#
# Coordination Sequence:
#
# PCOD9511130 Si02
#       6
#    32  32  16  32  16  32
#     4  11  22  38  59  82 109 147 190 236 289 343
#     4   8  16  28  46  69 101 142 182 224 272 320
#     4   9  18  32  60  97 124 149 186 231 278 333
#     4  10  19  33  51  77 110 148 190 237 284 332
#     4  10  18  28  42  65  95 135 181 226 268 312
#     4   9  18  35  56  84 117 147 183 230 279 337
#
# _framework density 19.771242999999998
#
# number of rings (size 3 to 8) (size 9 to 14) (size 15 to 20)
#    0.000    2.500    0.000    4.200    1.400    0.400 
#    0.000    7.000    0.000    1.200    0.000    0.000 
#    0.000    0.000    0.000    0.000    0.000    0.000 
#
# Total GULP energy -222828.958510 kJ/mol
# GULP energy per Si atom -5570.723963 kJ/mol
# Density = 1.972624 g / cm^3
# Si number density = 19.771243 Si / 1000 Ang^3
#
#
#
# Elastic Constant Matrix: (Units=GPa)
#
#
# Indices 1 2 3 4 5 6 
#
# 1 185.3551 57.2378 20.2434 0.0141 -0.0067 0.0247
# 2 57.2378 83.2088 15.6293 0.0365 -0.0133 0.0496
# 3 20.2434 15.6293 43.6788 0.0203 0.0059 0.0192
# 4 0.0141 0.0365 0.0203 15.7408 -0.0063 0.0411
# 5 -0.0067 -0.0133 0.0059 -0.0063 18.0738 -0.0122
# 6 0.0247 0.0496 0.0192 0.0411 -0.0122 -11.8059
#
#
#
# Elastic Compliance Matrix: (Units=1/GPa)
#
#
# Indices 1 2 3 4 5 6 
#
# 1 0.006956 -0.004480 -0.001621 0.000006 0.000000 -0.000007
# 2 -0.004480 0.015770 -0.003566 -0.000028 0.000011 0.000051
# 3 -0.001621 -0.003566 0.024922 -0.000022 -0.000011 0.000022
# 4 0.000006 -0.000028 -0.000022 0.063529 0.000022 0.000221
# 5 0.000000 0.000011 -0.000011 0.000022 0.055329 -0.000057
# 6 -0.000007 0.000051 0.000022 0.000221 -0.000057 -0.084703
#
#
# Mechanical properties :
#
#
# Convention : Reuss Voigt Hill
#
# Bulk Modulus (GPa) = 35.31990 55.38486 45.35238
# Shear Modulus (GPa) = 45.21894 19.01056 32.11475
#
# Velocity S-wave (km/s) = 4.78756 3.10421 4.03465
# Velocity P-wave (km/s) = 6.96161 6.39702 6.68528
#
# Compressibility (1/GPa) = 0.02831265
#
# Stress axis : x y z
#
# Youngs Moduli (GPa) = 143.77068 63.41288 40.12588
#
# Poissons Ratio (x) = 0.28410 0.06502
# Poissons Ratio (y) = 0.64412 0.14310
# Poissons Ratio (z) = 0.23298 0.22615
#
# Static dielectric constant tensor:
#      x y z
#    x 1.708130 0.000010 0.000020 
#    y 0.000010 1.682140 -0.000020 
#    z 0.000020 -0.000020 1.684120 
# 
# From -- ./inp_files/5722.got.cif
#   From: 2010.05.17/outbox.cif.g08.bks.cpg/sg69_3_cif.got.tgz:5722.got - 2010.06.03 19:29:58.
