data_PCOD9511140
_publ_section_title
;
Structure prediction by ZEFSAII (Michael W. Deem and Ramdas Pophale) SiO2 
 PCOD9511140
Probable space group: F M M M
;
_chemical_formula_sum "Si O2"
_cell_formula_units_Z 176
_cell_length_a 7.434512
_cell_length_b 30.075114
_cell_length_c 36.702958
_cell_angle_alpha 90.000000
_cell_angle_beta 90.000000
_cell_angle_gamma 90.000000
_cell_volume 8206.553701
_symmetry_space_group_name_H-M "F M M M"
_symmetry_group_IT_number 69
_symmetry_cell_setting 'orthorhombic'
loop_
_space_group_symop_operation_xyz
x,y,z
-x,-y,z
x,-y,-z
-x,y,-z
-x,-y,-z
x,y,-z
-x,y,z
x,-y,z
x,1/2+y,1/2+z
-x,1/2-y,1/2+z
x,1/2-y,1/2-z
-x,1/2+y,1/2-z
-x,1/2-y,1/2-z
x,1/2+y,1/2-z
-x,1/2+y,1/2+z
x,1/2-y,1/2+z
1/2+x,y,1/2+z
1/2-x,-y,1/2+z
1/2+x,-y,1/2-z
1/2-x,y,1/2-z
1/2-x,-y,1/2-z
1/2+x,y,1/2-z
1/2-x,y,1/2+z
1/2+x,-y,1/2+z
1/2+x,1/2+y,z
1/2-x,1/2-y,z
1/2+x,1/2-y,-z
1/2-x,1/2+y,-z
1/2-x,1/2-y,-z
1/2+x,1/2+y,-z
1/2-x,1/2+y,z
1/2+x,1/2-y,z
loop_
_atom_site_type_symbol
_atom_site_label
_atom_site_fract_x
_atom_site_fract_y
_atom_site_fract_z
Si Si1 0.779493 0.643238 0.570975
Si Si2 0.714732 0.697482 0.000000
Si Si3 0.218837 0.049377 0.042560
Si Si4 0.784920 0.452463 0.293475
Si Si5 0.284369 0.355122 0.792725
Si Si6 0.715040 0.801474 0.640110
O O1 0.720456 0.672631 0.536321
O O2 0.722273 0.592256 0.565167
O O3 0.717999 0.666898 0.607805
O O4 0.000000 0.643190 0.571162
O O5 0.750000 0.750000 0.000000
O O6 0.500000 0.691955 0.000000
O O7 0.000000 0.049199 0.043352
O O8 0.277808 0.000000 0.054322
O O9 0.269027 0.055338 0.000000
O O10 0.715374 0.500000 0.307945
O O11 0.750000 0.452913 0.250000
O O12 0.716064 0.404086 0.304949
O O13 0.000000 0.452624 0.299308
O O14 0.500000 0.356964 0.795553
O O15 0.250000 0.347559 0.750000
O O16 0.217256 0.318004 0.820584
O O17 0.500000 0.806336 0.640418
O O18 0.750000 0.750000 0.632989
#
# Coordination Sequence:
#
# PCOD9511140 Si02
#       6
#    32  16  32  32  32  32
#     4   9  16  28  44  65  94 125 153 186 228 272
#     4  10  18  28  45  67  91 121 156 190 223 262
#     4   8  12  20  38  65  96 127 155 182 220 273
#     4   8  13  23  41  64  88 112 138 171 215 267
#     4   9  18  32  49  69  91 118 153 193 235 281
#     4  10  21  35  49  66  92 123 155 194 240 281
#
# _framework density 21.446273000000001
#
# number of rings (size 3 to 8) (size 9 to 14) (size 15 to 20)
#    0.000    3.091    0.909    1.091    0.000    1.091 
#    0.000    2.727    0.000    5.455    0.000    0.000 
#    0.000    5.091    0.000    0.000    0.000    0.000 
#
# Total GULP energy -245303.838301 kJ/mol
# GULP energy per Si atom -5575.087234 kJ/mol
# Density = 2.139746 g / cm^3
# Si number density = 21.446273 Si / 1000 Ang^3
#
#
#
# Elastic Constant Matrix: (Units=GPa)
#
#
# Indices 1 2 3 4 5 6 
#
# 1 67.9024 1.8368 6.5711 0.0000 0.0000 0.0000
# 2 1.8368 212.0948 96.4300 0.0000 0.0000 0.0000
# 3 6.5711 96.4300 114.8249 0.0000 0.0000 0.0000
# 4 0.0000 0.0000 0.0000 26.3980 0.0000 0.0000
# 5 0.0000 0.0000 0.0000 0.0000 -3.9183 0.0000
# 6 0.0000 0.0000 0.0000 0.0000 0.0000 2.4967
#
#
#
# Elastic Compliance Matrix: (Units=1/GPa)
#
#
# Indices 1 2 3 4 5 6 
#
# 1 0.014832 0.000416 -0.001199 0.000000 0.000000 0.000000
# 2 0.000416 0.007639 -0.006439 0.000000 0.000000 0.000000
# 3 -0.001199 -0.006439 0.014185 0.000000 0.000000 0.000000
# 4 0.000000 0.000000 0.000000 0.037882 0.000000 0.000000
# 5 0.000000 0.000000 0.000000 0.000000 -0.255212 0.000000
# 6 0.000000 0.000000 0.000000 0.000000 0.000000 0.400535
#
#
# Mechanical properties :
#
#
# Convention : Reuss Voigt Hill
#
# Bulk Modulus (GPa) = 45.01767 67.16644 56.09205
# Shear Modulus (GPa) = 20.68621 24.32755 22.50688
#
# Velocity S-wave (km/s) = 3.10911 3.37166 3.24304
# Velocity P-wave (km/s) = 5.82453 6.82231 6.34307
#
# Compressibility (1/GPa) = 0.02221350
#
# Stress axis : x y z
#
# Youngs Moduli (GPa) = 67.42302 130.91207 70.49784
#
# Poissons Ratio (x) = -0.05452 0.08449
# Poissons Ratio (y) = -0.02808 0.45392
# Poissons Ratio (z) = 0.08081 0.84292
#
# Static dielectric constant tensor:
#      x y z
#    x 1.847190 0.000000 0.000000 
#    y 0.000000 1.804110 0.000000 
#    z 0.000000 0.000000 1.733630 
# 
# From -- ./inp_files/45243.got.cif
#   From: 2010.05.17/outbox.cif.g08.bks.cpg/sg69_23_cif.got.tgz:45243.got - 2010.06.03 19:29:58.
