data_PCOD9511527
_publ_section_title
;
Structure prediction by ZEFSAII (Michael W. Deem and Ramdas Pophale) SiO2 
 PCOD9511527
Probable space group: F M M M
;
_chemical_formula_sum "Si O2"
_cell_formula_units_Z 144
_cell_length_a 29.601760
_cell_length_b 7.977288
_cell_length_c 32.503774
_cell_angle_alpha 90.000000
_cell_angle_beta 90.000000
_cell_angle_gamma 90.000000
_cell_volume 7675.498556
_symmetry_space_group_name_H-M "F M M M"
_symmetry_group_IT_number 69
_symmetry_cell_setting 'orthorhombic'
loop_
_space_group_symop_operation_xyz
x,y,z
-x,-y,z
x,-y,-z
-x,y,-z
-x,-y,-z
x,y,-z
-x,y,z
x,-y,z
x,1/2+y,1/2+z
-x,1/2-y,1/2+z
x,1/2-y,1/2-z
-x,1/2+y,1/2-z
-x,1/2-y,1/2-z
x,1/2+y,1/2-z
-x,1/2+y,1/2+z
x,1/2-y,1/2+z
1/2+x,y,1/2+z
1/2-x,-y,1/2+z
1/2+x,-y,1/2-z
1/2-x,y,1/2-z
1/2-x,-y,1/2-z
1/2+x,y,1/2-z
1/2-x,y,1/2+z
1/2+x,-y,1/2+z
1/2+x,1/2+y,z
1/2-x,1/2-y,z
1/2+x,1/2-y,-z
1/2-x,1/2+y,-z
1/2-x,1/2-y,-z
1/2+x,1/2+y,-z
1/2-x,1/2+y,z
1/2+x,1/2-y,z
loop_
_atom_site_type_symbol
_atom_site_label
_atom_site_fract_x
_atom_site_fract_y
_atom_site_fract_z
Si Si1 0.551181 0.300666 0.795519
Si Si2 0.801993 0.297889 0.090262
Si Si3 0.802742 0.298647 0.000000
Si Si4 0.052933 0.204334 0.545706
Si Si5 0.607915 0.798144 0.125584
O O1 0.500000 0.231413 0.800987
O O2 0.548476 0.500000 0.796496
O O3 0.566998 0.250000 0.750000
O O4 0.582971 0.246650 0.832587
O O5 0.802235 0.500000 0.089239
O O6 0.750000 0.250000 0.097458
O O7 0.840134 0.240136 0.121963
O O8 0.818260 0.238487 0.044710
O O9 0.750000 0.250000 0.000000
O O10 0.808617 0.500000 0.000000
O O11 0.068857 0.258044 0.500000
O O12 0.080583 0.263682 0.585288
O O13 0.000000 0.249262 0.549668
O O14 0.055135 0.000000 0.545686
O O15 0.608153 0.000000 0.122980
#
# Coordination Sequence:
#
# PCOD9511527 Si02
#       5
#    32  32  16  32  32
#     4  10  21  37  57  80 105 132 163 203 253 308
#     4   9  18  30  46  69  99 136 175 217 259 298
#     4   8  14  26  42  62  91 128 171 215 254 289
#     4   8  14  24  40  66  99 132 166 204 244 289
#     4  10  19  30  50  77 103 133 171 214 257 301
#
# _framework density 18.760997
#
# number of rings (size 3 to 8) (size 9 to 14) (size 15 to 20)
#    0.000    2.889    0.000    2.000    1.556    3.111 
#    0.000    0.000    0.000    1.333    0.000    7.778 
#    0.000    0.000    0.000    0.000    0.000    0.000 
#
# Total GULP energy -200615.600906 kJ/mol
# GULP energy per Si atom -5572.655581 kJ/mol
# Density = 1.871830 g / cm^3
# Si number density = 18.760997 Si / 1000 Ang^3
#
#
#
# Elastic Constant Matrix: (Units=GPa)
#
#
# Indices 1 2 3 4 5 6 
#
# 1 116.4453 14.7996 109.2002 0.0003 -0.0001 -0.0003
# 2 14.7996 17.5415 13.5446 0.0004 -0.0001 -0.0005
# 3 109.2002 13.5446 165.2917 0.0000 0.0000 -0.0004
# 4 0.0003 0.0004 0.0000 12.7892 -0.0001 -0.0002
# 5 -0.0001 -0.0001 0.0000 -0.0001 29.1946 0.0002
# 6 -0.0003 -0.0005 -0.0004 -0.0002 0.0002 14.2598
#
#
#
# Elastic Compliance Matrix: (Units=1/GPa)
#
#
# Indices 1 2 3 4 5 6 
#
# 1 0.023686 -0.008435 -0.014957 0.000000 0.000000 0.000000
# 2 -0.008435 0.063862 0.000339 -0.000002 0.000000 0.000002
# 3 -0.014957 0.000339 0.015904 0.000000 0.000000 0.000000
# 4 0.000000 -0.000002 0.000000 0.078191 0.000000 0.000001
# 5 0.000000 0.000000 0.000000 0.000000 0.034253 -0.000001
# 6 0.000000 0.000002 0.000000 0.000001 -0.000001 0.070127
#
#
# Mechanical properties :
#
#
# Convention : Reuss Voigt Hill
#
# Bulk Modulus (GPa) = 17.43777 63.81859 40.62818
# Shear Modulus (GPa) = 14.23512 22.03101 18.13306
#
# Velocity S-wave (km/s) = 2.75755 3.43052 3.11228
# Velocity P-wave (km/s) = 4.41063 7.05562 5.88368
#
# Compressibility (1/GPa) = 0.05734678
#
# Stress axis : x y z
#
# Youngs Moduli (GPa) = 42.21832 15.65873 62.87861
#
# Poissons Ratio (x) = 0.13208 0.94049
# Poissons Ratio (y) = 0.35610 -0.02134
# Poissons Ratio (z) = 0.63147 -0.00531
#
# Static dielectric constant tensor:
#      x y z
#    x 1.671750 0.000000 0.000000 
#    y 0.000000 1.769510 0.000000 
#    z 0.000000 0.000000 1.653890 
# 
# From -- ./inp_files/5568.got.cif
#   From: 2010.05.17/outbox.cif.g08.bks.cpg/sg69_3_cif.got.tgz:5568.got - 2010.06.03 19:29:58.
