data_PCOD9511338
_publ_section_title
;
Structure prediction by ZEFSAII (Michael W. Deem and Ramdas Pophale) SiO2 
 PCOD9511338
Probable space group: F M M M
;
_chemical_formula_sum "Si O2"
_cell_formula_units_Z 128
_cell_length_a 23.799287
_cell_length_b 19.765041
_cell_length_c 16.960791
_cell_angle_alpha 90.000000
_cell_angle_beta 90.000000
_cell_angle_gamma 90.000000
_cell_volume 7978.252343
_symmetry_space_group_name_H-M "F M M M"
_symmetry_group_IT_number 69
_symmetry_cell_setting 'orthorhombic'
loop_
_space_group_symop_operation_xyz
x,y,z
-x,-y,z
x,-y,-z
-x,y,-z
-x,-y,-z
x,y,-z
-x,y,z
x,-y,z
x,1/2+y,1/2+z
-x,1/2-y,1/2+z
x,1/2-y,1/2-z
-x,1/2+y,1/2-z
-x,1/2-y,1/2-z
x,1/2+y,1/2-z
-x,1/2+y,1/2+z
x,1/2-y,1/2+z
1/2+x,y,1/2+z
1/2-x,-y,1/2+z
1/2+x,-y,1/2-z
1/2-x,y,1/2-z
1/2-x,-y,1/2-z
1/2+x,y,1/2-z
1/2-x,y,1/2+z
1/2+x,-y,1/2+z
1/2+x,1/2+y,z
1/2-x,1/2-y,z
1/2+x,1/2-y,-z
1/2-x,1/2+y,-z
1/2-x,1/2-y,-z
1/2+x,1/2+y,-z
1/2-x,1/2+y,z
1/2+x,1/2-y,z
loop_
_atom_site_type_symbol
_atom_site_label
_atom_site_fract_x
_atom_site_fract_y
_atom_site_fract_z
Si Si1 0.248112 0.500000 0.095724
Si Si2 0.565187 0.856473 0.095256
Si Si3 0.617557 0.500000 0.404255
Si Si4 0.768312 0.851438 0.906067
Si Si5 0.163857 0.733316 0.841939
O O1 0.182691 0.500000 0.120289
O O2 0.275276 0.571000 0.120269
O O3 0.248893 0.500000 0.000000
O O4 0.500000 0.847719 0.116006
O O5 0.606082 0.800596 0.131582
O O6 0.586760 0.931082 0.120104
O O7 0.570087 0.853267 0.000000
O O8 0.617338 0.500000 0.500000
O O9 0.819945 0.802404 0.886871
O O10 0.713918 0.818868 0.864159
O O11 0.757390 0.850048 0.000000
O O12 0.164795 0.750000 0.750000
#
# Coordination Sequence:
#
# PCOD9511338 Si02
#       5
#    16  32  16  32  32
#     4   9  16  27  50  76  95 118 155 198 243 283
#     4  10  19  32  52  74  95 125 162 198 239 285
#     4   9  15  28  48  76 101 116 149 200 245 287
#     4  10  18  32  52  71  95 127 161 200 238 280
#     4  11  21  32  45  69 102 131 162 192 233 285
#
# _framework density 16.043614000000002
#
# number of rings (size 3 to 8) (size 9 to 14) (size 15 to 20)
#    0.000    2.000    2.500    4.875    0.000    2.000 
#    0.000    3.750    0.000    0.000    0.000    0.875 
#    0.000    5.000    0.000    0.000    0.000    0.500 
#
# Total GULP energy -178453.530434 kJ/mol
# GULP energy per Si atom -5576.672826 kJ/mol
# Density = 1.600710 g / cm^3
# Si number density = 16.043614 Si / 1000 Ang^3
#
#
#
# Elastic Constant Matrix: (Units=GPa)
#
#
# Indices 1 2 3 4 5 6 
#
# 1 85.4103 74.4569 19.5678 0.0000 0.0000 0.0000
# 2 74.4569 169.0110 33.9522 0.0000 0.0000 0.0000
# 3 19.5678 33.9522 41.0113 0.0000 0.0000 0.0000
# 4 0.0000 0.0000 0.0000 -10.2033 0.0000 0.0000
# 5 0.0000 0.0000 0.0000 0.0000 49.1571 0.0000
# 6 0.0000 0.0000 0.0000 0.0000 0.0000 22.5193
#
#
#
# Elastic Compliance Matrix: (Units=1/GPa)
#
#
# Indices 1 2 3 4 5 6 
#
# 1 0.019236 -0.007953 -0.002594 0.000000 0.000000 0.000000
# 2 -0.007953 0.010385 -0.004803 0.000000 0.000000 0.000000
# 3 -0.002594 -0.004803 0.029597 0.000000 0.000000 0.000000
# 4 0.000000 0.000000 0.000000 -0.098008 0.000000 0.000000
# 5 0.000000 0.000000 0.000000 0.000000 0.020343 0.000000
# 6 0.000000 0.000000 0.000000 0.000000 0.000000 0.044406
#
#
# Mechanical properties :
#
#
# Convention : Reuss Voigt Hill
#
# Bulk Modulus (GPa) = 35.06493 61.26515 48.16504
# Shear Modulus (GPa) = 75.56775 23.45834 49.51305
#
# Velocity S-wave (km/s) = 6.87050 3.82797 5.56134
# Velocity P-wave (km/s) = 9.21096 7.60311 8.44538
#
# Compressibility (1/GPa) = 0.02851852
#
# Stress axis : x y z
#
# Youngs Moduli (GPa) = 51.98702 96.28957 33.78668
#
# Poissons Ratio (x) = 0.76580 0.08763
# Poissons Ratio (y) = 0.41346 0.16228
# Poissons Ratio (z) = 0.13484 0.46249
#
# Static dielectric constant tensor:
#      x y z
#    x 1.518250 0.000000 0.000000 
#    y 0.000000 1.561030 0.000000 
#    z 0.000000 0.000000 1.530680 
# 
# From -- ./inp_files/25701.got.cif
#   From: 2010.05.17/outbox.cif.g08.bks.cpg/sg69_13_cif.got.tgz:25701.got - 2010.06.03 19:29:58.
