data_PCOD9511083
_publ_section_title
;
Structure prediction by ZEFSAII (Michael W. Deem and Ramdas Pophale) SiO2 
 PCOD9511083
Probable space group: F M M M
;
_chemical_formula_sum "Si O2"
_cell_formula_units_Z 192
_cell_length_a 14.459684
_cell_length_b 23.014505
_cell_length_c 23.629581
_cell_angle_alpha 90.000000
_cell_angle_beta 90.000000
_cell_angle_gamma 90.000000
_cell_volume 7863.510324
_symmetry_space_group_name_H-M "F M M M"
_symmetry_group_IT_number 69
_symmetry_cell_setting 'orthorhombic'
loop_
_space_group_symop_operation_xyz
x,y,z
-x,-y,z
x,-y,-z
-x,y,-z
-x,-y,-z
x,y,-z
-x,y,z
x,-y,z
x,1/2+y,1/2+z
-x,1/2-y,1/2+z
x,1/2-y,1/2-z
-x,1/2+y,1/2-z
-x,1/2-y,1/2-z
x,1/2+y,1/2-z
-x,1/2+y,1/2+z
x,1/2-y,1/2+z
1/2+x,y,1/2+z
1/2-x,-y,1/2+z
1/2+x,-y,1/2-z
1/2-x,y,1/2-z
1/2-x,-y,1/2-z
1/2+x,y,1/2-z
1/2-x,y,1/2+z
1/2+x,-y,1/2+z
1/2+x,1/2+y,z
1/2-x,1/2-y,z
1/2+x,1/2-y,-z
1/2-x,1/2+y,-z
1/2-x,1/2-y,-z
1/2+x,1/2+y,-z
1/2-x,1/2+y,z
1/2+x,1/2-y,z
loop_
_atom_site_type_symbol
_atom_site_label
_atom_site_fract_x
_atom_site_fract_y
_atom_site_fract_z
Si Si1 0.612041 0.818461 0.753551
Si Si2 0.648974 0.179192 0.881285
Si Si3 0.105918 0.563028 0.306827
Si Si4 0.366335 0.419996 0.063037
Si Si5 0.649706 0.209668 0.434696
Si Si6 0.356854 0.562573 0.435146
O O1 0.500000 0.817290 0.751497
O O2 0.641083 0.750000 0.750000
O O3 0.648409 0.833472 0.815645
O O4 0.642220 0.872780 0.712908
O O5 0.604013 0.241203 0.896200
O O6 0.749535 0.192130 0.909054
O O7 0.607772 0.121812 0.908762
O O8 0.148412 0.500000 0.288413
O O9 0.103691 0.560197 0.375088
O O10 0.000000 0.562445 0.286147
O O11 0.395294 0.352795 0.063687
O O12 0.255189 0.430896 0.064573
O O13 0.394523 0.440696 0.000000
O O14 0.654565 0.230405 0.500000
O O15 0.386163 0.561153 0.500000
O O16 0.380073 0.500000 0.408549
#
# Coordination Sequence:
#
# PCOD9511083 Si02
#       6
#    32  32  32  32  32  32
#     4  10  22  39  55  70  95 134 175 213 251 292
#     4  10  17  30  53  74  95 129 170 202 238 299
#     4  10  21  36  52  71  99 134 172 216 260 299
#     4   9  17  31  52  76 102 132 165 202 252 314
#     4   9  17  31  53  80 108 132 156 200 257 304
#     4   9  17  29  47  73 104 132 156 192 245 300
#
# _framework density 24.416575999999999
#
# number of rings (size 3 to 8) (size 9 to 14) (size 15 to 20)
#    0.000    2.500    0.000    4.500    0.000    2.000 
#    0.000   12.500    0.000   10.500    0.000    1.167 
#    0.000    0.000    0.000    0.000    0.000    0.000 
#
# Total GULP energy -267297.105657 kJ/mol
# GULP energy per Si atom -5568.689701 kJ/mol
# Density = 2.436100 g / cm^3
# Si number density = 24.416576 Si / 1000 Ang^3
#
#
#
# Elastic Constant Matrix: (Units=GPa)
#
#
# Indices 1 2 3 4 5 6 
#
# 1 83.5670 7.6488 -1.0665 0.0000 0.0000 0.0000
# 2 7.6488 269.0505 76.1481 0.0000 0.0000 0.0000
# 3 -1.0665 76.1481 123.8412 0.0000 0.0000 0.0000
# 4 0.0000 0.0000 0.0000 -0.5540 0.0000 0.0000
# 5 0.0000 0.0000 0.0000 0.0000 0.8714 0.0000
# 6 0.0000 0.0000 0.0000 0.0000 0.0000 -15.0097
#
#
#
# Elastic Compliance Matrix: (Units=1/GPa)
#
#
# Indices 1 2 3 4 5 6 
#
# 1 0.012012 -0.000449 0.000379 0.000000 0.000000 0.000000
# 2 -0.000449 0.004517 -0.002781 0.000000 0.000000 0.000000
# 3 0.000379 -0.002781 0.009788 0.000000 0.000000 0.000000
# 4 0.000000 0.000000 0.000000 -1.804991 0.000000 0.000000
# 5 0.000000 0.000000 0.000000 0.000000 1.147620 0.000000
# 6 0.000000 0.000000 0.000000 0.000000 0.000000 -0.066623
#
#
# Mechanical properties :
#
#
# Convention : Reuss Voigt Hill
#
# Bulk Modulus (GPa) = 48.50562 71.32439 59.91500
# Shear Modulus (GPa) = -7.29816 23.31008 8.00596
#
# Velocity S-wave (km/s) = -1.73075 3.09315 1.81274
# Velocity P-wave (km/s) = 3.98936 6.48318 5.38268
#
# Compressibility (1/GPa) = 0.02061617
#
# Stress axis : x y z
#
# Youngs Moduli (GPa) = 83.24751 221.40281 102.16413
#
# Poissons Ratio (x) = 0.09939 -0.03877
# Poissons Ratio (y) = 0.03737 0.28413
# Poissons Ratio (z) = -0.03159 0.61574
#
# Static dielectric constant tensor:
#      x y z
#    x 2.010080 0.000000 0.000000 
#    y 0.000000 2.095800 0.000000 
#    z 0.000000 0.000000 1.895880 
# 
# From -- ./inp_files/32068.got.cif
#   From: 2010.05.17/outbox.cif.g08.bks.cpg/sg69_17_cif.got.tgz:32068.got - 2010.06.03 19:29:58.
