data_PCOD9511615
_publ_section_title
;
Structure prediction by ZEFSAII (Michael W. Deem and Ramdas Pophale) SiO2 
 PCOD9511615
Probable space group: F M M M
;
_chemical_formula_sum "Si O2"
_cell_formula_units_Z 192
_cell_length_a 30.325134
_cell_length_b 19.915076
_cell_length_c 14.614741
_cell_angle_alpha 90.000000
_cell_angle_beta 90.000000
_cell_angle_gamma 90.000000
_cell_volume 8826.241779
_symmetry_space_group_name_H-M "F M M M"
_symmetry_group_IT_number 69
_symmetry_cell_setting 'orthorhombic'
loop_
_space_group_symop_operation_xyz
x,y,z
-x,-y,z
x,-y,-z
-x,y,-z
-x,-y,-z
x,y,-z
-x,y,z
x,-y,z
x,1/2+y,1/2+z
-x,1/2-y,1/2+z
x,1/2-y,1/2-z
-x,1/2+y,1/2-z
-x,1/2-y,1/2-z
x,1/2+y,1/2-z
-x,1/2+y,1/2+z
x,1/2-y,1/2+z
1/2+x,y,1/2+z
1/2-x,-y,1/2+z
1/2+x,-y,1/2-z
1/2-x,y,1/2-z
1/2-x,-y,1/2-z
1/2+x,y,1/2-z
1/2-x,y,1/2+z
1/2+x,-y,1/2+z
1/2+x,1/2+y,z
1/2-x,1/2-y,z
1/2+x,1/2-y,-z
1/2-x,1/2+y,-z
1/2-x,1/2-y,-z
1/2+x,1/2+y,-z
1/2-x,1/2+y,z
1/2+x,1/2-y,z
loop_
_atom_site_type_symbol
_atom_site_label
_atom_site_fract_x
_atom_site_fract_y
_atom_site_fract_z
Si Si1 0.693768 0.424739 0.894428
Si Si2 0.369045 0.328284 0.610903
Si Si3 0.266004 0.676581 0.354125
Si Si4 0.380315 0.176389 0.611755
Si Si5 0.950199 0.078141 0.611462
Si Si6 0.949742 0.428053 0.388895
O O1 0.694602 0.500000 0.853984
O O2 0.740229 0.386790 0.895070
O O3 0.659856 0.370138 0.854307
O O4 0.679657 0.432388 0.000000
O O5 0.369614 0.330832 0.500000
O O6 0.317899 0.336422 0.637710
O O7 0.379678 0.252610 0.641595
O O8 0.407812 0.378672 0.642123
O O9 0.250000 0.677938 0.250000
O O10 0.250000 0.750000 0.392526
O O11 0.378288 0.178651 0.500000
O O12 0.423428 0.136394 0.640476
O O13 0.949917 0.079856 0.500000
O O14 0.000000 0.100929 0.638658
O O15 0.945670 0.000000 0.638584
O O16 0.949919 0.427371 0.500000
O O17 0.929262 0.500000 0.362330
O O18 0.000000 0.426821 0.358534
#
# Coordination Sequence:
#
# PCOD9511615 Si02
#       6
#    32  32  32  32  32  32
#     4  10  20  34  54  77 101 133 174 221 275 333
#     4  10  19  31  53  80 106 142 186 227 272 330
#     4  11  23  38  54  74 105 148 186 233 282 331
#     4   9  16  26  42  67  97 129 167 213 258 309
#     4   8  15  29  49  77 114 147 175 218 276 332
#     4   8  13  21  34  56  91 131 164 198 248 311
#
# _framework density 21.753312999999999
#
# number of rings (size 3 to 8) (size 9 to 14) (size 15 to 20)
#    0.000    2.667    1.667    2.000    0.000    4.333 
#    0.000    5.000    0.000    0.000    0.000    3.500 
#    0.000    2.667    0.000    0.167    0.000    0.167 
#
# Total GULP energy -267729.747822 kJ/mol
# GULP energy per Si atom -5577.703080 kJ/mol
# Density = 2.170380 g / cm^3
# Si number density = 21.753313 Si / 1000 Ang^3
#
#
#
# Elastic Constant Matrix: (Units=GPa)
#
#
# Indices 1 2 3 4 5 6 
#
# 1 187.4256 105.2709 -1.8534 0.0000 0.0000 0.0000
# 2 105.2709 151.9405 -1.9840 0.0000 0.0000 0.0000
# 3 -1.8534 -1.9840 67.5297 0.0000 0.0000 0.0000
# 4 0.0000 0.0000 0.0000 -4.1116 0.0000 0.0000
# 5 0.0000 0.0000 0.0000 0.0000 -11.5407 0.0000
# 6 0.0000 0.0000 0.0000 0.0000 0.0000 40.5138
#
#
#
# Elastic Compliance Matrix: (Units=1/GPa)
#
#
# Indices 1 2 3 4 5 6 
#
# 1 0.008735 -0.006051 0.000062 0.000000 0.000000 0.000000
# 2 -0.006051 0.010776 0.000151 0.000000 0.000000 0.000000
# 3 0.000062 0.000151 0.014814 0.000000 0.000000 0.000000
# 4 0.000000 0.000000 0.000000 -0.243214 0.000000 0.000000
# 5 0.000000 0.000000 0.000000 0.000000 -0.086650 0.000000
# 6 0.000000 0.000000 0.000000 0.000000 0.000000 0.024683
#
#
# Mechanical properties :
#
#
# Convention : Reuss Voigt Hill
#
# Bulk Modulus (GPa) = 44.15403 67.75143 55.95273
# Shear Modulus (GPa) = -19.87049 25.33645 2.73298
#
# Velocity S-wave (km/s) = -3.02561 3.41650 1.12209
# Velocity P-wave (km/s) = 2.85236 6.83931 5.23986
#
# Compressibility (1/GPa) = 0.02264799
#
# Stress axis : x y z
#
# Youngs Moduli (GPa) = 114.48604 92.80007 67.50180
#
# Poissons Ratio (x) = 0.56153 -0.00418
# Poissons Ratio (y) = 0.69275 -0.01016
# Poissons Ratio (z) = -0.00709 -0.01397
#
# Static dielectric constant tensor:
#      x y z
#    x 1.804580 0.000000 0.000000 
#    y 0.000000 1.792300 0.000000 
#    z 0.000000 0.000000 1.899170 
# 
# From -- ./inp_files/33506.got.cif
#   From: 2010.05.17/outbox.cif.g08.bks.cpg/sg69_17_cif.got.tgz:33506.got - 2010.06.03 19:29:58.
