data_PCOD9511765
_publ_section_title
;
Structure prediction by ZEFSAII (Michael W. Deem and Ramdas Pophale) SiO2 
 PCOD9511765
Probable space group: F M M M
;
_chemical_formula_sum "Si O2"
_cell_formula_units_Z 160
_cell_length_a 15.570427
_cell_length_b 23.433122
_cell_length_c 23.700168
_cell_angle_alpha 90.000000
_cell_angle_beta 90.000000
_cell_angle_gamma 90.000000
_cell_volume 8647.331354
_symmetry_space_group_name_H-M "F M M M"
_symmetry_group_IT_number 69
_symmetry_cell_setting 'orthorhombic'
loop_
_space_group_symop_operation_xyz
x,y,z
-x,-y,z
x,-y,-z
-x,y,-z
-x,-y,-z
x,y,-z
-x,y,z
x,-y,z
x,1/2+y,1/2+z
-x,1/2-y,1/2+z
x,1/2-y,1/2-z
-x,1/2+y,1/2-z
-x,1/2-y,1/2-z
x,1/2+y,1/2-z
-x,1/2+y,1/2+z
x,1/2-y,1/2+z
1/2+x,y,1/2+z
1/2-x,-y,1/2+z
1/2+x,-y,1/2-z
1/2-x,y,1/2-z
1/2-x,-y,1/2-z
1/2+x,y,1/2-z
1/2-x,y,1/2+z
1/2+x,-y,1/2+z
1/2+x,1/2+y,z
1/2-x,1/2-y,z
1/2+x,1/2-y,-z
1/2-x,1/2+y,-z
1/2-x,1/2-y,-z
1/2+x,1/2+y,-z
1/2-x,1/2+y,z
1/2+x,1/2-y,z
loop_
_atom_site_type_symbol
_atom_site_label
_atom_site_fract_x
_atom_site_fract_y
_atom_site_fract_z
Si Si1 0.100371 0.657621 0.933597
Si Si2 0.595725 0.067405 0.351032
Si Si3 0.247361 0.432889 0.066489
Si Si4 0.599489 0.737303 0.333556
Si Si5 0.845969 0.341743 0.266669
O O1 0.165593 0.606436 0.920142
O O2 0.121060 0.711237 0.893969
O O3 0.000000 0.642634 0.922810
O O4 0.108394 0.670601 0.000000
O O5 0.500000 0.077599 0.374449
O O6 0.671051 0.082189 0.394983
O O7 0.607682 0.105426 0.295543
O O8 0.602988 0.000000 0.338604
O O9 0.227889 0.500000 0.075245
O O10 0.267490 0.425504 0.000000
O O11 0.500000 0.756360 0.333073
O O12 0.609652 0.686759 0.287630
O O13 0.655412 0.790188 0.312283
O O14 0.750000 0.357984 0.250000
#
# Coordination Sequence:
#
# PCOD9511765 Si02
#       5
#    32  32  32  32  32
#     4   9  18  33  54  81 112 143 176 220 271 317
#     4  10  21  37  56  78 106 139 177 224 273 317
#     4   9  18  33  53  77 106 142 183 223 265 318
#     4  10  19  33  53  76 105 140 176 212 255 314
#     4  11  21  34  54  77 103 136 176 216 261 318
#
# _framework density 18.502818000000001
#
# number of rings (size 3 to 8) (size 9 to 14) (size 15 to 20)
#    0.000    2.200    0.000    4.800    0.000    1.200 
#    0.000    6.000    0.000    8.400    0.000    0.000 
#    0.000    0.000    0.000    0.000    0.000    0.000 
#
# Total GULP energy -223196.737229 kJ/mol
# GULP energy per Si atom -5579.918431 kJ/mol
# Density = 1.846070 g / cm^3
# Si number density = 18.502818 Si / 1000 Ang^3
#
#
#
# Elastic Constant Matrix: (Units=GPa)
#
#
# Indices 1 2 3 4 5 6 
#
# 1 85.2579 32.7416 40.9974 0.0000 0.0000 0.0000
# 2 32.7416 39.5520 37.8150 0.0000 0.0000 0.0000
# 3 40.9974 37.8150 56.1326 0.0000 0.0000 0.0000
# 4 0.0000 0.0000 0.0000 28.7529 0.0000 0.0000
# 5 0.0000 0.0000 0.0000 0.0000 32.1305 0.0000
# 6 0.0000 0.0000 0.0000 0.0000 0.0000 21.9114
#
#
#
# Elastic Compliance Matrix: (Units=1/GPa)
#
#
# Indices 1 2 3 4 5 6 
#
# 1 0.018709 -0.006808 -0.009078 0.000000 0.000000 0.000000
# 2 -0.006808 0.073515 -0.044553 0.000000 0.000000 0.000000
# 3 -0.009078 -0.044553 0.054459 0.000000 0.000000 0.000000
# 4 0.000000 0.000000 0.000000 0.034779 0.000000 0.000000
# 5 0.000000 0.000000 0.000000 0.000000 0.031123 0.000000
# 6 0.000000 0.000000 0.000000 0.000000 0.000000 0.045638
#
#
# Mechanical properties :
#
#
# Convention : Reuss Voigt Hill
#
# Bulk Modulus (GPa) = 38.75127 44.89450 41.82289
# Shear Modulus (GPa) = 12.89649 21.18485 17.04067
#
# Velocity S-wave (km/s) = 2.64294 3.38739 3.03805
# Velocity P-wave (km/s) = 5.50476 6.29408 5.91261
#
# Compressibility (1/GPa) = 0.02580560
#
# Stress axis : x y z
#
# Youngs Moduli (GPa) = 53.45053 13.60267 18.36248
#
# Poissons Ratio (x) = 0.09261 0.16669
# Poissons Ratio (y) = 0.36391 0.81809
# Poissons Ratio (z) = 0.48521 0.60603
#
# Static dielectric constant tensor:
#      x y z
#    x 1.642490 0.000000 0.000000 
#    y 0.000000 1.617810 0.000000 
#    z 0.000000 0.000000 1.632150 
# 
# From -- ./inp_files/17682.got.cif
#   From: 2010.05.17/outbox.cif.g08.bks.cpg/sg69_9_cif.got.tgz:17682.got - 2010.06.03 19:29:58.
