data_PCOD9511468
_publ_section_title
;
Structure prediction by ZEFSAII (Michael W. Deem and Ramdas Pophale) SiO2 
 PCOD9511468
Probable space group: F M M M
;
_chemical_formula_sum "Si O2"
_cell_formula_units_Z 152
_cell_length_a 23.176662
_cell_length_b 20.711431
_cell_length_c 15.403568
_cell_angle_alpha 90.000000
_cell_angle_beta 90.000000
_cell_angle_gamma 90.000000
_cell_volume 7394.048990
_symmetry_space_group_name_H-M "F M M M"
_symmetry_group_IT_number 69
_symmetry_cell_setting 'orthorhombic'
loop_
_space_group_symop_operation_xyz
x,y,z
-x,-y,z
x,-y,-z
-x,y,-z
-x,-y,-z
x,y,-z
-x,y,z
x,-y,z
x,1/2+y,1/2+z
-x,1/2-y,1/2+z
x,1/2-y,1/2-z
-x,1/2+y,1/2-z
-x,1/2-y,1/2-z
x,1/2+y,1/2-z
-x,1/2+y,1/2+z
x,1/2-y,1/2+z
1/2+x,y,1/2+z
1/2-x,-y,1/2+z
1/2+x,-y,1/2-z
1/2-x,y,1/2-z
1/2-x,-y,1/2-z
1/2+x,y,1/2-z
1/2-x,y,1/2+z
1/2+x,-y,1/2+z
1/2+x,1/2+y,z
1/2-x,1/2-y,z
1/2+x,1/2-y,-z
1/2-x,1/2+y,-z
1/2-x,1/2-y,-z
1/2+x,1/2+y,-z
1/2-x,1/2+y,z
1/2+x,1/2-y,z
loop_
_atom_site_type_symbol
_atom_site_label
_atom_site_fract_x
_atom_site_fract_y
_atom_site_fract_z
Si Si1 0.250381 0.576735 0.000000
Si Si2 0.118374 0.596863 0.500000
Si Si3 0.197579 0.126147 0.318771
Si Si4 0.500000 0.181240 0.500000
Si Si5 0.320287 0.243973 0.601133
Si Si6 0.617343 0.116221 0.318996
Si Si7 0.500000 0.687904 0.807970
O O1 0.219109 0.597094 0.089794
O O2 0.259386 0.500000 0.000000
O O3 0.312348 0.611886 0.000000
O O4 0.060768 0.641971 0.500000
O O5 0.113386 0.570360 0.402730
O O6 0.250000 0.136526 0.250000
O O7 0.165138 0.192653 0.343624
O O8 0.152099 0.087097 0.260997
O O9 0.500000 0.214216 0.407212
O O10 0.338331 0.249210 0.500000
O O11 0.250000 0.250000 0.601941
O O12 0.347888 0.180508 0.644484
O O13 0.555515 0.143408 0.294584
O O14 0.500000 0.750000 0.750000
#
# Coordination Sequence:
#
# PCOD9511468 Si02
#       7
#    16  16  32   8  32  32  16
#     4  12  26  43  60  83 117 147 187 255 313 349
#     4  10  18  39  55  84 115 153 191 238 290 344
#     4  12  22  36  56  83 115 150 194 234 285 347
#     4   8  20  32  61  76 114 162 194 240 285 332
#     4  11  19  29  49  80 120 155 182 220 267 329
#     4  11  21  35  57  84 122 159 192 232 276 341
#     4  10  20  36  50  81 122 161 200 227 269 337
#
# _framework density 20.557072000000002
#
# number of rings (size 3 to 8) (size 9 to 14) (size 15 to 20)
#    0.000    1.053    6.316    1.895    0.000    0.421 
#    0.000    0.263    0.000    0.000    0.000    1.474 
#    0.000    0.000    0.000    0.000    0.000    0.000 
#
# Total GULP energy -211618.267818 kJ/mol
# GULP energy per Si atom -5568.901785 kJ/mol
# Density = 2.051028 g / cm^3
# Si number density = 20.557072 Si / 1000 Ang^3
#
#
#
# Elastic Constant Matrix: (Units=GPa)
#
#
# Indices 1 2 3 4 5 6 
#
# 1 127.3829 22.1621 60.0739 0.0000 0.0000 0.0000
# 2 22.1621 73.8726 37.6820 0.0000 0.0000 0.0000
# 3 60.0739 37.6820 191.8900 0.0000 0.0000 0.0000
# 4 0.0000 0.0000 0.0000 -10.5088 0.0000 0.0000
# 5 0.0000 0.0000 0.0000 0.0000 34.1283 0.0000
# 6 0.0000 0.0000 0.0000 0.0000 0.0000 -16.6741
#
#
#
# Elastic Compliance Matrix: (Units=1/GPa)
#
#
# Indices 1 2 3 4 5 6 
#
# 1 0.009349 -0.001458 -0.002641 0.000000 0.000000 0.000000
# 2 -0.001458 0.015271 -0.002542 0.000000 0.000000 0.000000
# 3 -0.002641 -0.002542 0.006537 0.000000 0.000000 0.000000
# 4 0.000000 0.000000 0.000000 -0.095159 0.000000 0.000000
# 5 0.000000 0.000000 0.000000 0.000000 0.029301 0.000000
# 6 0.000000 0.000000 0.000000 0.000000 0.000000 -0.059973
#
#
# Mechanical properties :
#
#
# Convention : Reuss Voigt Hill
#
# Bulk Modulus (GPa) = 55.94155 70.33128 63.13641
# Shear Modulus (GPa) = -66.28450 19.60424 -23.34013
#
# Velocity S-wave (km/s) = -5.68455 3.09147 -3.37320
# Velocity P-wave (km/s) = 3.97664 6.85783 3.95071
#
# Compressibility (1/GPa) = 0.01787580
#
# Stress axis : x y z
#
# Youngs Moduli (GPa) = 106.95963 65.48332 152.96889
#
# Poissons Ratio (x) = 0.09547 0.40394
# Poissons Ratio (y) = 0.15593 0.38891
# Poissons Ratio (z) = 0.28244 0.16649
#
# Static dielectric constant tensor:
#      x y z
#    x 1.762910 0.000000 0.000000 
#    y 0.000000 1.810420 0.000000 
#    z 0.000000 0.000000 1.797730 
# 
# From -- ./inp_files/17841.got.cif
#   From: 2010.05.17/outbox.cif.g08.bks.cpg/sg69_9_cif.got.tgz:17841.got - 2010.06.03 19:29:58.
