data_PCOD9511676
_publ_section_title
;
Structure prediction by ZEFSAII (Michael W. Deem and Ramdas Pophale) SiO2 
 PCOD9511676
Probable space group: F M M M
;
_chemical_formula_sum "Si O2"
_cell_formula_units_Z 168
_cell_length_a 31.712360
_cell_length_b 17.059727
_cell_length_c 16.393991
_cell_angle_alpha 90.000000
_cell_angle_beta 90.000000
_cell_angle_gamma 90.000000
_cell_volume 8869.218053
_symmetry_space_group_name_H-M "F M M M"
_symmetry_group_IT_number 69
_symmetry_cell_setting 'orthorhombic'
loop_
_space_group_symop_operation_xyz
x,y,z
-x,-y,z
x,-y,-z
-x,y,-z
-x,-y,-z
x,y,-z
-x,y,z
x,-y,z
x,1/2+y,1/2+z
-x,1/2-y,1/2+z
x,1/2-y,1/2-z
-x,1/2+y,1/2-z
-x,1/2-y,1/2-z
x,1/2+y,1/2-z
-x,1/2+y,1/2+z
x,1/2-y,1/2+z
1/2+x,y,1/2+z
1/2-x,-y,1/2+z
1/2+x,-y,1/2-z
1/2-x,y,1/2-z
1/2-x,-y,1/2-z
1/2+x,y,1/2-z
1/2-x,y,1/2+z
1/2+x,-y,1/2+z
1/2+x,1/2+y,z
1/2-x,1/2-y,z
1/2+x,1/2-y,-z
1/2-x,1/2+y,-z
1/2-x,1/2-y,-z
1/2+x,1/2+y,-z
1/2-x,1/2+y,z
1/2+x,1/2-y,z
loop_
_atom_site_type_symbol
_atom_site_label
_atom_site_fract_x
_atom_site_fract_y
_atom_site_fract_z
Si Si1 0.370821 0.326547 0.305829
Si Si2 0.500000 0.000000 0.337016
Si Si3 0.346286 0.589352 0.149113
Si Si4 0.047122 0.689227 0.096704
Si Si5 0.939035 0.375337 0.407129
Si Si6 0.298067 0.739788 0.097054
O O1 0.380758 0.250000 0.250000
O O2 0.356396 0.393526 0.243918
O O3 0.413159 0.345532 0.355417
O O4 0.331977 0.297936 0.361693
O O5 0.463624 0.931280 0.346203
O O6 0.334584 0.500000 0.134527
O O7 0.389545 0.610269 0.102518
O O8 0.312448 0.652342 0.119991
O O9 0.051021 0.783820 0.104906
O O10 0.000000 0.665520 0.124470
O O11 0.050465 0.672430 0.000000
O O12 0.951734 0.396590 0.500000
O O13 0.250000 0.750000 0.125183
O O14 0.299893 0.750508 0.000000
#
# Coordination Sequence:
#
# PCOD9511676 Si02
#       6
#    32   8  32  32  32  32
#     4  10  20  35  53  81 114 150 189 235 287 345
#     4  12  21  28  44  78 128 164 191 234 299 356
#     4  11  23  37  55  85 121 153 185 229 293 355
#     4  10  19  32  52  77 107 150 205 249 280 326
#     4  11  19  29  47  76 113 155 194 233 282 341
#     4  10  21  39  64  88 109 143 191 240 289 344
#
# _framework density 18.941918999999999
#
# number of rings (size 3 to 8) (size 9 to 14) (size 15 to 20)
#    0.000    1.524    5.714    2.000    0.000    4.952 
#    1.714    1.905    0.000    3.429    0.000    1.333 
#    0.000    0.000    0.000    0.000    0.000    0.000 
#
# Total GULP energy -234023.429477 kJ/mol
# GULP energy per Si atom -5571.986416 kJ/mol
# Density = 1.889881 g / cm^3
# Si number density = 18.941919 Si / 1000 Ang^3
#
#
#
# Elastic Constant Matrix: (Units=GPa)
#
#
# Indices 1 2 3 4 5 6 
#
# 1 163.3515 15.8152 36.8398 0.0000 0.0000 0.0000
# 2 15.8152 13.6255 -10.5329 0.0000 0.0000 0.0000
# 3 36.8398 -10.5329 50.3412 0.0000 0.0000 0.0000
# 4 0.0000 0.0000 0.0000 1.8542 0.0000 0.0000
# 5 0.0000 0.0000 0.0000 0.0000 1.8800 0.0000
# 6 0.0000 0.0000 0.0000 0.0000 0.0000 -572.3042
#
#
#
# Elastic Compliance Matrix: (Units=1/GPa)
#
#
# Indices 1 2 3 4 5 6 
#
# 1 0.011371 -0.023418 -0.013221 0.000000 0.000000 0.000000
# 2 -0.023418 0.135782 0.045547 0.000000 0.000000 0.000000
# 3 -0.013221 0.045547 0.039069 0.000000 0.000000 0.000000
# 4 0.000000 0.000000 0.000000 0.539311 0.000000 0.000000
# 5 0.000000 0.000000 0.000000 0.000000 0.531926 0.000000
# 6 0.000000 0.000000 0.000000 0.000000 0.000000 -0.001747
#
#
# Mechanical properties :
#
#
# Convention : Reuss Voigt Hill
#
# Bulk Modulus (GPa) = 4.90103 34.61805 19.75954
# Shear Modulus (GPa) = 3.82875 -101.36759 -48.76942
#
# Velocity S-wave (km/s) = 1.42327 -7.32333 -5.07964
# Velocity P-wave (km/s) = 2.30086 7.29333 4.89381
#
# Compressibility (1/GPa) = 0.20403892
#
# Stress axis : x y z
#
# Youngs Moduli (GPa) = 87.94561 7.36472 25.59553
#
# Poissons Ratio (x) = 0.17247 0.33839
# Poissons Ratio (y) = 2.05952 -1.16580
# Poissons Ratio (z) = 1.16271 -0.33544
#
# Static dielectric constant tensor:
#      x y z
#    x 1.698830 0.000000 0.000000 
#    y 0.000000 1.631350 0.000000 
#    z 0.000000 0.000000 1.704920 
# 
# From -- ./inp_files/19713.got.cif
#   From: 2010.05.17/outbox.cif.g08.bks.cpg/sg69_10_cif.got.tgz:19713.got - 2010.06.03 19:29:58.
