data_PCOD9511116
_publ_section_title
;
Structure prediction by ZEFSAII (Michael W. Deem and Ramdas Pophale) SiO2 
 PCOD9511116
Probable space group: F M M M
;
_chemical_formula_sum "Si O2"
_cell_formula_units_Z 232
_cell_length_a 23.943480
_cell_length_b 14.174761
_cell_length_c 29.100156
_cell_angle_alpha 90.000000
_cell_angle_beta 90.000000
_cell_angle_gamma 90.000000
_cell_volume 9876.392345
_symmetry_space_group_name_H-M "F M M M"
_symmetry_group_IT_number 69
_symmetry_cell_setting 'orthorhombic'
loop_
_space_group_symop_operation_xyz
x,y,z
-x,-y,z
x,-y,-z
-x,y,-z
-x,-y,-z
x,y,-z
-x,y,z
x,-y,z
x,1/2+y,1/2+z
-x,1/2-y,1/2+z
x,1/2-y,1/2-z
-x,1/2+y,1/2-z
-x,1/2-y,1/2-z
x,1/2+y,1/2-z
-x,1/2+y,1/2+z
x,1/2-y,1/2+z
1/2+x,y,1/2+z
1/2-x,-y,1/2+z
1/2+x,-y,1/2-z
1/2-x,y,1/2-z
1/2-x,-y,1/2-z
1/2+x,y,1/2-z
1/2-x,y,1/2+z
1/2+x,-y,1/2+z
1/2+x,1/2+y,z
1/2-x,1/2-y,z
1/2+x,1/2-y,-z
1/2-x,1/2+y,-z
1/2-x,1/2-y,-z
1/2+x,1/2+y,-z
1/2-x,1/2+y,z
1/2+x,1/2-y,z
loop_
_atom_site_type_symbol
_atom_site_label
_atom_site_fract_x
_atom_site_fract_y
_atom_site_fract_z
Si Si1 0.281941 0.385411 0.947771
Si Si2 0.561816 0.388089 0.633179
Si Si3 0.000000 0.331219 0.500000
Si Si4 0.937487 0.861121 0.741550
Si Si5 0.253791 0.885500 0.302243
Si Si6 0.910363 0.385640 0.576975
Si Si7 0.320008 0.614804 0.615323
Si Si8 0.371458 0.606700 0.830723
O O1 0.279603 0.500000 0.946084
O O2 0.344981 0.363598 0.932319
O O3 0.229141 0.352233 0.918063
O O4 0.274906 0.355515 0.000000
O O5 0.500000 0.348218 0.623454
O O6 0.558897 0.500000 0.622966
O O7 0.572747 0.380631 0.688056
O O8 0.616972 0.350337 0.607998
O O9 0.048824 0.337979 0.459315
O O10 0.936846 0.750000 0.750000
O O11 0.895144 0.897907 0.779430
O O12 0.000000 0.895763 0.751624
O O13 0.250000 0.853981 0.250000
O O14 0.201021 0.863142 0.333391
O O15 0.310266 0.849104 0.326389
O O16 0.257787 0.000000 0.301156
O O17 0.920140 0.500000 0.570630
O O18 0.915283 0.357886 0.631203
O O19 0.321856 0.500000 0.612080
O O20 0.361059 0.500000 0.847103
#
# Coordination Sequence:
#
# PCOD9511116 Si02
#       8
#    32  32   8  32  32  32  32  32
#     4   9  15  25  40  61  94 129 160 194 238 297
#     4   9  17  30  50  73  95 121 159 204 246 294
#     4  12  21  28  40  64 106 144 166 206 267 298
#     4  10  21  35  48  65  96 133 169 200 244 298
#     4   9  15  23  39  64  91 120 155 199 243 279
#     4  10  18  27  40  63  97 135 168 202 245 293
#     4   9  15  25  42  66  93 122 158 197 240 290
#     4  10  19  30  46  70  97 129 172 213 244 284
#
# _framework density 23.490358000000001
#
# number of rings (size 3 to 8) (size 9 to 14) (size 15 to 20)
#    0.000    2.483    2.069    1.862    0.966    3.034 
#    0.000    0.000    0.000    4.138    0.000    2.897 
#    2.069    1.103    0.000    0.000    0.000    0.000 
#
# Total GULP energy -323404.612507 kJ/mol
# GULP energy per Si atom -5575.941595 kJ/mol
# Density = 2.343689 g / cm^3
# Si number density = 23.490358 Si / 1000 Ang^3
#
#
#
# Elastic Constant Matrix: (Units=GPa)
#
#
# Indices 1 2 3 4 5 6 
#
# 1 185.4371 1.6056 50.5796 0.0000 0.0000 0.0000
# 2 1.6056 82.0927 -6.1012 0.0000 0.0000 0.0000
# 3 50.5796 -6.1012 82.9963 0.0000 0.0000 0.0000
# 4 0.0000 0.0000 0.0000 -11.9573 0.0000 0.0000
# 5 0.0000 0.0000 0.0000 0.0000 46.4637 0.0000
# 6 0.0000 0.0000 0.0000 0.0000 0.0000 5.0501
#
#
#
# Elastic Compliance Matrix: (Units=1/GPa)
#
#
# Indices 1 2 3 4 5 6 
#
# 1 0.006482 -0.000423 -0.003982 0.000000 0.000000 0.000000
# 2 -0.000423 0.012276 0.001160 0.000000 0.000000 0.000000
# 3 -0.003982 0.001160 0.014560 0.000000 0.000000 0.000000
# 4 0.000000 0.000000 0.000000 -0.083631 0.000000 0.000000
# 5 0.000000 0.000000 0.000000 0.000000 0.021522 0.000000
# 6 0.000000 0.000000 0.000000 0.000000 0.000000 0.198018
#
#
# Mechanical properties :
#
#
# Convention : Reuss Voigt Hill
#
# Bulk Modulus (GPa) = 37.27150 49.18825 43.22988
# Shear Modulus (GPa) = 27.07690 28.20742 27.64216
#
# Velocity S-wave (km/s) = 3.39880 3.46903 3.43409
# Velocity P-wave (km/s) = 5.59496 6.08529 5.84527
#
# Compressibility (1/GPa) = 0.02683015
#
# Stress axis : x y z
#
# Youngs Moduli (GPa) = 154.26571 81.46087 68.67933
#
# Poissons Ratio (x) = 0.03443 0.27345
# Poissons Ratio (y) = 0.06521 -0.07967
# Poissons Ratio (z) = 0.61421 -0.09450
#
# Static dielectric constant tensor:
#      x y z
#    x 1.889800 0.000000 0.000000 
#    y 0.000000 1.851370 0.000000 
#    z 0.000000 0.000000 1.885640 
# 
# From -- ./inp_files/47075.got.cif
#   From: 2010.05.17/outbox.cif.g08.bks.cpg/sg69_24_cif.got.tgz:47075.got - 2010.06.03 19:29:58.
