data_PCOD9511380
_publ_section_title
;
Structure prediction by ZEFSAII (Michael W. Deem and Ramdas Pophale) SiO2 
 PCOD9511380
Probable space group: F M M M
;
_chemical_formula_sum "Si O2"
_cell_formula_units_Z 208
_cell_length_a 18.485673
_cell_length_b 19.683388
_cell_length_c 30.310339
_cell_angle_alpha 90.000000
_cell_angle_beta 90.000000
_cell_angle_gamma 90.000000
_cell_volume 11028.740381
_symmetry_space_group_name_H-M "F M M M"
_symmetry_group_IT_number 69
_symmetry_cell_setting 'orthorhombic'
loop_
_space_group_symop_operation_xyz
x,y,z
-x,-y,z
x,-y,-z
-x,y,-z
-x,-y,-z
x,y,-z
-x,y,z
x,-y,z
x,1/2+y,1/2+z
-x,1/2-y,1/2+z
x,1/2-y,1/2-z
-x,1/2+y,1/2-z
-x,1/2-y,1/2-z
x,1/2+y,1/2-z
-x,1/2+y,1/2+z
x,1/2-y,1/2+z
1/2+x,y,1/2+z
1/2-x,-y,1/2+z
1/2+x,-y,1/2-z
1/2-x,y,1/2-z
1/2-x,-y,1/2-z
1/2+x,y,1/2-z
1/2-x,y,1/2+z
1/2+x,-y,1/2+z
1/2+x,1/2+y,z
1/2-x,1/2-y,z
1/2+x,1/2-y,-z
1/2-x,1/2+y,-z
1/2-x,1/2-y,-z
1/2+x,1/2+y,-z
1/2-x,1/2+y,z
1/2+x,1/2-y,z
loop_
_atom_site_type_symbol
_atom_site_label
_atom_site_fract_x
_atom_site_fract_y
_atom_site_fract_z
Si Si1 0.197316 0.183930 0.188187
Si Si2 0.268841 0.577520 0.376289
Si Si3 0.578994 0.378756 0.356962
Si Si4 0.079750 0.168396 0.255228
Si Si5 0.915845 0.771807 0.886993
Si Si6 0.419830 0.500000 0.053232
Si Si7 0.671136 0.866010 0.447697
O O1 0.250000 0.250000 0.195522
O O2 0.240027 0.124478 0.163450
O O3 0.154255 0.153440 0.229853
O O4 0.132217 0.205520 0.154996
O O5 0.241400 0.500000 0.375826
O O6 0.354444 0.576642 0.371269
O O7 0.243179 0.617753 0.420093
O O8 0.500000 0.409897 0.362449
O O9 0.585119 0.355039 0.305772
O O10 0.582936 0.309241 0.384902
O O11 0.076605 0.250000 0.250000
O O12 0.000000 0.143446 0.238724
O O13 0.872709 0.802232 0.928458
O O14 0.000000 0.794862 0.884930
O O15 0.500000 0.500000 0.072263
O O16 0.378374 0.431268 0.064080
O O17 0.424515 0.500000 0.000000
O O18 0.682046 0.862142 0.500000
#
# Coordination Sequence:
#
# PCOD9511380 Si02
#       7
#    32  32  32  32  32  16  32
#     4  11  20  34  56  86 117 151 192 238 288 339
#     4  11  23  39  58  82 116 154 192 239 293 341
#     4  10  21  38  58  82 112 149 194 239 286 340
#     4  10  18  32  56  84 113 151 194 239 285 336
#     4  10  19  34  56  82 115 147 181 232 283 334
#     4   9  16  30  52  80 111 144 183 217 258 338
#     4  10  21  36  57  85 114 148 186 229 288 351
#
# _framework density 18.859815000000001
#
# number of rings (size 3 to 8) (size 9 to 14) (size 15 to 20)
#    0.000    1.769    3.846    0.923    0.000    3.385 
#    0.000    3.077    0.000    2.308    0.000    1.077 
#    0.000    0.000    0.000    0.000    0.000    0.000 
#
# Total GULP energy -289870.177526 kJ/mol
# GULP energy per Si atom -5574.426491 kJ/mol
# Density = 1.881689 g / cm^3
# Si number density = 18.859815 Si / 1000 Ang^3
#
#
#
# Elastic Constant Matrix: (Units=GPa)
#
#
# Indices 1 2 3 4 5 6 
#
# 1 144.0942 34.9494 60.3188 0.0000 0.0000 0.0000
# 2 34.9494 61.0918 34.0730 0.0000 0.0000 0.0000
# 3 60.3188 34.0730 88.7790 0.0000 0.0000 0.0000
# 4 0.0000 0.0000 0.0000 7.6753 0.0000 0.0000
# 5 0.0000 0.0000 0.0000 0.0000 7.6341 0.0000
# 6 0.0000 0.0000 0.0000 0.0000 0.0000 18.4087
#
#
#
# Elastic Compliance Matrix: (Units=1/GPa)
#
#
# Indices 1 2 3 4 5 6 
#
# 1 0.009979 -0.002452 -0.005839 0.000000 0.000000 0.000000
# 2 -0.002452 0.021430 -0.006558 0.000000 0.000000 0.000000
# 3 -0.005839 -0.006558 0.017748 0.000000 0.000000 0.000000
# 4 0.000000 0.000000 0.000000 0.130287 0.000000 0.000000
# 5 0.000000 0.000000 0.000000 0.000000 0.130992 0.000000
# 6 0.000000 0.000000 0.000000 0.000000 0.000000 0.054322
#
#
# Mechanical properties :
#
#
# Convention : Reuss Voigt Hill
#
# Bulk Modulus (GPa) = 51.39387 61.40528 56.39958
# Shear Modulus (GPa) = 12.47062 17.71854 15.09458
#
# Velocity S-wave (km/s) = 2.57422 3.06843 2.83213
# Velocity P-wave (km/s) = 6.01208 6.72184 6.37684
#
# Compressibility (1/GPa) = 0.01945757
#
# Stress axis : x y z
#
# Youngs Moduli (GPa) = 100.21233 46.66446 56.34433
#
# Poissons Ratio (x) = 0.11443 0.32898
# Poissons Ratio (y) = 0.24574 0.36953
# Poissons Ratio (z) = 0.58511 0.30605
#
# Static dielectric constant tensor:
#      x y z
#    x 1.718710 0.000000 0.000000 
#    y 0.000000 1.644840 0.000000 
#    z 0.000000 0.000000 1.665030 
# 
# From -- ./inp_files/46502.got.cif
#   From: 2010.05.17/outbox.cif.g08.bks.cpg/sg69_24_cif.got.tgz:46502.got - 2010.06.03 19:29:58.
