data_PCOD9511260
_publ_section_title
;
Structure prediction by ZEFSAII (Michael W. Deem and Ramdas Pophale) SiO2 
 PCOD9511260
Probable space group: F M M M
;
_chemical_formula_sum "Si O2"
_cell_formula_units_Z 160
_cell_length_a 22.111314
_cell_length_b 15.716307
_cell_length_c 22.858053
_cell_angle_alpha 90.000000
_cell_angle_beta 90.000000
_cell_angle_gamma 90.000000
_cell_volume 7943.360831
_symmetry_space_group_name_H-M "F M M M"
_symmetry_group_IT_number 69
_symmetry_cell_setting 'orthorhombic'
loop_
_space_group_symop_operation_xyz
x,y,z
-x,-y,z
x,-y,-z
-x,y,-z
-x,-y,-z
x,y,-z
-x,y,z
x,-y,z
x,1/2+y,1/2+z
-x,1/2-y,1/2+z
x,1/2-y,1/2-z
-x,1/2+y,1/2-z
-x,1/2-y,1/2-z
x,1/2+y,1/2-z
-x,1/2+y,1/2+z
x,1/2-y,1/2+z
1/2+x,y,1/2+z
1/2-x,-y,1/2+z
1/2+x,-y,1/2-z
1/2-x,y,1/2-z
1/2-x,-y,1/2-z
1/2+x,y,1/2-z
1/2-x,y,1/2+z
1/2+x,-y,1/2+z
1/2+x,1/2+y,z
1/2-x,1/2-y,z
1/2+x,1/2-y,-z
1/2-x,1/2+y,-z
1/2-x,1/2-y,-z
1/2+x,1/2+y,-z
1/2-x,1/2+y,z
1/2+x,1/2-y,z
loop_
_atom_site_type_symbol
_atom_site_label
_atom_site_fract_x
_atom_site_fract_y
_atom_site_fract_z
Si Si1 0.064839 0.263531 0.132236
Si Si2 0.287512 0.657362 0.500000
Si Si3 0.758765 0.147063 0.876446
Si Si4 0.113596 0.094094 0.830100
Si Si5 0.069928 0.193640 0.500000
Si Si6 0.665439 0.338863 0.714976
O O1 0.067427 0.169219 0.157859
O O2 0.071187 0.258972 0.062277
O O3 0.118319 0.313914 0.163885
O O4 0.000000 0.303952 0.145669
O O5 0.250000 0.750000 0.500000
O O6 0.266694 0.617210 0.561357
O O7 0.361157 0.655547 0.500000
O O8 0.750000 0.250000 0.875486
O O9 0.827351 0.119018 0.868266
O O10 0.721687 0.120645 0.818806
O O11 0.135142 0.102215 0.763157
O O12 0.092548 0.000000 0.843740
O O13 0.000000 0.152791 0.500000
O O14 0.679425 0.250000 0.750000
#
# Coordination Sequence:
#
# PCOD9511260 Si02
#       6
#    32  16  32  32  16  32
#     4  10  20  36  59  85 113 147 191 237 278 333
#     4  10  18  30  54  83 112 148 184 236 286 330
#     4  11  18  33  55  78 108 142 188 228 285 334
#     4  11  24  36  52  81 116 154 186 227 279 342
#     4  10  18  34  60  92 112 138 190 243 289 340
#     4  10  19  32  55  78 108 145 190 229 278 330
#
# _framework density 20.142607000000002
#
# number of rings (size 3 to 8) (size 9 to 14) (size 15 to 20)
#    0.000    1.600    6.000    1.800    0.000    5.600 
#    0.000    2.000    0.000    1.800    0.000    0.700 
#    0.000    4.000    0.000    0.000    0.000    0.000 
#
# Total GULP energy -222816.445027 kJ/mol
# GULP energy per Si atom -5570.411126 kJ/mol
# Density = 2.009676 g / cm^3
# Si number density = 20.142607 Si / 1000 Ang^3
#
#
#
# Elastic Constant Matrix: (Units=GPa)
#
#
# Indices 1 2 3 4 5 6 
#
# 1 98.3590 -13.2435 25.3444 0.0000 0.0000 0.0000
# 2 -13.2435 23.7675 -12.9032 0.0000 0.0000 0.0000
# 3 25.3444 -12.9032 123.9162 0.0000 0.0000 0.0000
# 4 0.0000 0.0000 0.0000 1.2093 0.0000 0.0000
# 5 0.0000 0.0000 0.0000 0.0000 31.1663 0.0000
# 6 0.0000 0.0000 0.0000 0.0000 0.0000 6.3814
#
#
#
# Elastic Compliance Matrix: (Units=1/GPa)
#
#
# Indices 1 2 3 4 5 6 
#
# 1 0.011343 0.005364 -0.001761 0.000000 0.000000 0.000000
# 2 0.005364 0.047132 0.003811 0.000000 0.000000 0.000000
# 3 -0.001761 0.003811 0.008827 0.000000 0.000000 0.000000
# 4 0.000000 0.000000 0.000000 0.826939 0.000000 0.000000
# 5 0.000000 0.000000 0.000000 0.000000 0.032086 0.000000
# 6 0.000000 0.000000 0.000000 0.000000 0.000000 0.156705
#
#
# Mechanical properties :
#
#
# Convention : Reuss Voigt Hill
#
# Bulk Modulus (GPa) = 12.17597 27.15978 19.66787
# Shear Modulus (GPa) = 4.56379 24.20773 14.38576
#
# Velocity S-wave (km/s) = 1.50687 3.47048 2.67534
# Velocity P-wave (km/s) = 3.01422 5.43802 4.39645
#
# Compressibility (1/GPa) = 0.08212901
#
# Stress axis : x y z
#
# Youngs Moduli (GPa) = 88.16036 21.21696 113.28843
#
# Poissons Ratio (x) = -0.11381 0.19955
# Poissons Ratio (y) = -0.47291 -0.43170
# Poissons Ratio (z) = 0.15529 -0.08085
#
# Static dielectric constant tensor:
#      x y z
#    x 1.772500 0.000000 0.000000 
#    y 0.000000 1.730170 0.000000 
#    z 0.000000 0.000000 1.716980 
# 
# From -- ./inp_files/24627.got.cif
#   From: 2010.05.17/outbox.cif.g08.bks.cpg/sg69_13_cif.got.tgz:24627.got - 2010.06.03 19:29:58.
