data_PCOD9511112
_publ_section_title
;
Structure prediction by ZEFSAII (Michael W. Deem and Ramdas Pophale) SiO2 
 PCOD9511112
Probable space group: F M M M
;
_chemical_formula_sum "Si O2"
_cell_formula_units_Z 168
_cell_length_a 24.073741
_cell_length_b 14.230171
_cell_length_c 28.597296
_cell_angle_alpha 90.000000
_cell_angle_beta 90.000000
_cell_angle_gamma 90.000000
_cell_volume 9796.674381
_symmetry_space_group_name_H-M "F M M M"
_symmetry_group_IT_number 69
_symmetry_cell_setting 'orthorhombic'
loop_
_space_group_symop_operation_xyz
x,y,z
-x,-y,z
x,-y,-z
-x,y,-z
-x,-y,-z
x,y,-z
-x,y,z
x,-y,z
x,1/2+y,1/2+z
-x,1/2-y,1/2+z
x,1/2-y,1/2-z
-x,1/2+y,1/2-z
-x,1/2-y,1/2-z
x,1/2+y,1/2-z
-x,1/2+y,1/2+z
x,1/2-y,1/2+z
1/2+x,y,1/2+z
1/2-x,-y,1/2+z
1/2+x,-y,1/2-z
1/2-x,y,1/2-z
1/2-x,-y,1/2-z
1/2+x,y,1/2-z
1/2-x,y,1/2+z
1/2+x,-y,1/2+z
1/2+x,1/2+y,z
1/2-x,1/2-y,z
1/2+x,1/2-y,-z
1/2-x,1/2+y,-z
1/2-x,1/2-y,-z
1/2+x,1/2+y,-z
1/2-x,1/2+y,z
1/2+x,1/2-y,z
loop_
_atom_site_type_symbol
_atom_site_label
_atom_site_fract_x
_atom_site_fract_y
_atom_site_fract_z
Si Si1 0.339211 0.893743 0.443845
Si Si2 0.561749 0.612692 0.354998
Si Si3 0.895056 0.290693 0.053316
Si Si4 0.784594 0.891053 0.580508
Si Si5 0.750000 0.750000 0.250000
Si Si6 0.176759 0.109676 0.687744
O O1 0.336888 0.896580 0.500000
O O2 0.385838 0.817730 0.432221
O O3 0.278525 0.860461 0.427363
O O4 0.348786 0.000000 0.426479
O O5 0.500000 0.636309 0.338095
O O6 0.565863 0.500000 0.360596
O O7 0.571532 0.657060 0.406174
O O8 0.612422 0.638414 0.320673
O O9 0.832990 0.334958 0.054726
O O10 0.916335 0.297717 0.000000
O O11 0.797935 0.887511 0.635465
O O12 0.787433 0.000000 0.565085
O O13 0.789120 0.818599 0.280595
O O14 0.179462 0.000000 0.703766
#
# Coordination Sequence:
#
# PCOD9511112 Si02
#       6
#    32  32  32  32   8  32
#     4   9  17  27  40  63  97 136 173 205 242 288
#     4   9  19  36  55  73  99 135 168 201 244 293
#     4  10  18  26  43  70  99 130 170 212 242 277
#     4   9  17  28  43  65  99 135 163 197 246 301
#     4  12  22  32  58  82 102 128 150 202 256 306
#     4   9  20  35  51  77 105 129 160 197 247 306
#
# _framework density 17.148675999999998
#
# number of rings (size 3 to 8) (size 9 to 14) (size 15 to 20)
#    0.000    2.667    0.000    3.143    5.333    4.190 
#    0.000    1.429    0.000    0.571    0.000    2.667 
#    0.000    0.000    0.000    0.000    0.000    0.000 
#
# Total GULP energy -234036.991780 kJ/mol
# GULP energy per Si atom -5572.309328 kJ/mol
# Density = 1.710965 g / cm^3
# Si number density = 17.148676 Si / 1000 Ang^3
#
#
#
# Elastic Constant Matrix: (Units=GPa)
#
#
# Indices 1 2 3 4 5 6 
#
# 1 91.6217 40.0226 36.5766 0.0000 0.0000 0.0000
# 2 40.0226 59.2501 30.0326 0.0000 0.0000 0.0000
# 3 36.5766 30.0326 42.7654 0.0000 0.0000 0.0000
# 4 0.0000 0.0000 0.0000 18.6523 0.0000 0.0000
# 5 0.0000 0.0000 0.0000 0.0000 8.8029 0.0000
# 6 0.0000 0.0000 0.0000 0.0000 0.0000 18.0998
#
#
#
# Elastic Compliance Matrix: (Units=1/GPa)
#
#
# Indices 1 2 3 4 5 6 
#
# 1 0.018198 -0.006837 -0.010763 0.000000 0.000000 0.000000
# 2 -0.006837 0.028775 -0.014360 0.000000 0.000000 0.000000
# 3 -0.010763 -0.014360 0.042673 0.000000 0.000000 0.000000
# 4 0.000000 0.000000 0.000000 0.053613 0.000000 0.000000
# 5 0.000000 0.000000 0.000000 0.000000 0.113598 0.000000
# 6 0.000000 0.000000 0.000000 0.000000 0.000000 0.055249
#
#
# Mechanical properties :
#
#
# Convention : Reuss Voigt Hill
#
# Bulk Modulus (GPa) = 38.87103 45.21119 42.04111
# Shear Modulus (GPa) = 13.00051 14.91137 13.95594
#
# Velocity S-wave (km/s) = 2.75636 2.95199 2.85585
# Velocity P-wave (km/s) = 5.73117 6.16769 5.95343
#
# Compressibility (1/GPa) = 0.02572610
#
# Stress axis : x y z
#
# Youngs Moduli (GPa) = 54.95232 34.75299 23.43384
#
# Poissons Ratio (x) = 0.23760 0.25222
# Poissons Ratio (y) = 0.37569 0.33651
# Poissons Ratio (z) = 0.59145 0.49905
#
# Static dielectric constant tensor:
#      x y z
#    x 1.597160 0.000000 0.000000 
#    y 0.000000 1.627660 0.000000 
#    z 0.000000 0.000000 1.548650 
# 
# From -- ./inp_files/42589.got.cif
#   From: 2010.05.17/outbox.cif.g08.bks.cpg/sg69_22_cif.got.tgz:42589.got - 2010.06.03 19:29:58.
