data_PCOD9511475
_publ_section_title
;
Structure prediction by ZEFSAII (Michael W. Deem and Ramdas Pophale) SiO2 
 PCOD9511475
Probable space group: F M M M
;
_chemical_formula_sum "Si O2"
_cell_formula_units_Z 176
_cell_length_a 14.799423
_cell_length_b 14.152350
_cell_length_c 36.427461
_cell_angle_alpha 90.000000
_cell_angle_beta 90.000000
_cell_angle_gamma 90.000000
_cell_volume 7629.608366
_symmetry_space_group_name_H-M "F M M M"
_symmetry_group_IT_number 69
_symmetry_cell_setting 'orthorhombic'
loop_
_space_group_symop_operation_xyz
x,y,z
-x,-y,z
x,-y,-z
-x,y,-z
-x,-y,-z
x,y,-z
-x,y,z
x,-y,z
x,1/2+y,1/2+z
-x,1/2-y,1/2+z
x,1/2-y,1/2-z
-x,1/2+y,1/2-z
-x,1/2-y,1/2-z
x,1/2+y,1/2-z
-x,1/2+y,1/2+z
x,1/2-y,1/2+z
1/2+x,y,1/2+z
1/2-x,-y,1/2+z
1/2+x,-y,1/2-z
1/2-x,y,1/2-z
1/2-x,-y,1/2-z
1/2+x,y,1/2-z
1/2-x,y,1/2+z
1/2+x,-y,1/2+z
1/2+x,1/2+y,z
1/2-x,1/2-y,z
1/2+x,1/2-y,-z
1/2-x,1/2+y,-z
1/2-x,1/2-y,-z
1/2+x,1/2+y,-z
1/2-x,1/2+y,z
1/2+x,1/2-y,z
loop_
_atom_site_type_symbol
_atom_site_label
_atom_site_fract_x
_atom_site_fract_y
_atom_site_fract_z
Si Si1 0.398349 0.116226 0.580322
Si Si2 0.217231 0.112652 0.388527
Si Si3 0.894450 0.384622 0.040694
Si Si4 0.603473 0.363581 0.758391
Si Si5 0.390246 0.392997 0.000000
Si Si6 0.234734 0.139250 0.694450
O O1 0.500000 0.147054 0.588670
O O2 0.320347 0.147366 0.607406
O O3 0.369075 0.148790 0.539459
O O4 0.400989 0.000000 0.578863
O O5 0.157103 0.147802 0.422630
O O6 0.195493 0.126258 0.346105
O O7 0.219173 0.000000 0.393981
O O8 0.892466 0.500000 0.040748
O O9 0.000000 0.356798 0.042574
O O10 0.859331 0.355943 0.000000
O O11 0.500000 0.394419 0.760777
O O12 0.599665 0.250000 0.750000
O O13 0.664236 0.392936 0.793680
O O14 0.662372 0.397059 0.723706
O O15 0.352343 0.500000 0.000000
O O16 0.500000 0.399502 0.000000
O O17 0.250000 0.250000 0.699516
#
# Coordination Sequence:
#
# PCOD9511475 Si02
#       6
#    32  32  32  32  16  32
#     4   8  14  23  35  56  86 116 146 181 219 259
#     4  10  19  28  44  69  96 123 150 187 234 276
#     4   8  15  28  44  63  88 119 159 202 234 263
#     4   8  15  31  54  72  87 117 156 188 218 263
#     4   7  10  18  32  50  74 105 143 183 212 237
#     4   9  18  32  49  71  96 116 148 190 225 271
#
# _framework density 23.068026
#
# number of rings (size 3 to 8) (size 9 to 14) (size 15 to 20)
#    0.000    3.545    0.000    2.727    1.273    1.455 
#    0.000    1.818    0.000    1.636    0.000    0.000 
#    0.000    0.000    0.000    0.000    0.000    0.000 
#
# Total GULP energy -245234.885806 kJ/mol
# GULP energy per Si atom -5573.520132 kJ/mol
# Density = 2.301552 g / cm^3
# Si number density = 23.068026 Si / 1000 Ang^3
#
#
#
# Elastic Constant Matrix: (Units=GPa)
#
#
# Indices 1 2 3 4 5 6 
#
# 1 131.6580 2.3024 70.7029 0.0000 0.0000 0.0000
# 2 2.3024 82.9291 -1.4453 0.0000 0.0000 0.0000
# 3 70.7029 -1.4453 145.3656 0.0000 0.0000 0.0000
# 4 0.0000 0.0000 0.0000 38.1170 0.0000 0.0000
# 5 0.0000 0.0000 0.0000 0.0000 21.3483 0.0000
# 6 0.0000 0.0000 0.0000 0.0000 0.0000 -8.9040
#
#
#
# Elastic Compliance Matrix: (Units=1/GPa)
#
#
# Indices 1 2 3 4 5 6 
#
# 1 0.010292 -0.000373 -0.005010 0.000000 0.000000 0.000000
# 2 -0.000373 0.012074 0.000301 0.000000 0.000000 0.000000
# 3 -0.005010 0.000301 0.009319 0.000000 0.000000 0.000000
# 4 0.000000 0.000000 0.000000 0.026235 0.000000 0.000000
# 5 0.000000 0.000000 0.000000 0.000000 0.046842 0.000000
# 6 0.000000 0.000000 0.000000 0.000000 0.000000 -0.112309
#
#
# Mechanical properties :
#
#
# Convention : Reuss Voigt Hill
#
# Bulk Modulus (GPa) = 46.46253 55.89696 51.17975
# Shear Modulus (GPa) = 510.70089 29.33842 270.01966
#
# Velocity S-wave (km/s) = 14.89529 3.57013 10.83087
# Velocity P-wave (km/s) = 17.77671 6.42483 13.36581
#
# Compressibility (1/GPa) = 0.02152272
#
# Stress axis : x y z
#
# Youngs Moduli (GPa) = 97.16058 82.82189 107.30997
#
# Poissons Ratio (x) = 0.03090 0.53759
# Poissons Ratio (y) = 0.03625 -0.03235
# Poissons Ratio (z) = 0.48674 -0.02497
#
# Static dielectric constant tensor:
#      x y z
#    x 1.844120 0.000000 0.000000 
#    y 0.000000 1.959990 0.000000 
#    z 0.000000 0.000000 1.876550 
# 
# From -- ./inp_files/41212.got.cif
#   From: 2010.05.17/outbox.cif.g08.bks.cpg/sg69_21_cif.got.tgz:41212.got - 2010.06.03 19:29:58.
