data_PCOD9511517
_publ_section_title
;
Structure prediction by ZEFSAII (Michael W. Deem and Ramdas Pophale) SiO2 
 PCOD9511517
Probable space group: F M M M
;
_chemical_formula_sum "Si O2"
_cell_formula_units_Z 112
_cell_length_a 26.945164
_cell_length_b 24.921971
_cell_length_c 8.743917
_cell_angle_alpha 90.000000
_cell_angle_beta 90.000000
_cell_angle_gamma 90.000000
_cell_volume 5871.772817
_symmetry_space_group_name_H-M "F M M M"
_symmetry_group_IT_number 69
_symmetry_cell_setting 'orthorhombic'
loop_
_space_group_symop_operation_xyz
x,y,z
-x,-y,z
x,-y,-z
-x,y,-z
-x,-y,-z
x,y,-z
-x,y,z
x,-y,z
x,1/2+y,1/2+z
-x,1/2-y,1/2+z
x,1/2-y,1/2-z
-x,1/2+y,1/2-z
-x,1/2-y,1/2-z
x,1/2+y,1/2-z
-x,1/2+y,1/2+z
x,1/2-y,1/2+z
1/2+x,y,1/2+z
1/2-x,-y,1/2+z
1/2+x,-y,1/2-z
1/2-x,y,1/2-z
1/2-x,-y,1/2-z
1/2+x,y,1/2-z
1/2-x,y,1/2+z
1/2+x,-y,1/2+z
1/2+x,1/2+y,z
1/2-x,1/2-y,z
1/2+x,1/2-y,-z
1/2-x,1/2+y,-z
1/2-x,1/2-y,-z
1/2+x,1/2+y,-z
1/2-x,1/2+y,z
1/2+x,1/2-y,z
loop_
_atom_site_type_symbol
_atom_site_label
_atom_site_fract_x
_atom_site_fract_y
_atom_site_fract_z
Si Si1 0.191866 0.000000 0.672570
Si Si2 0.074183 0.500000 0.172090
Si Si3 0.000000 0.309601 0.816879
Si Si4 0.300749 0.385120 0.818645
Si Si5 0.415472 0.115180 0.684196
O O1 0.133163 0.000000 0.654676
O O2 0.202101 0.052867 0.768691
O O3 0.213386 0.000000 0.500000
O O4 0.065813 0.556270 0.259057
O O5 0.053225 0.500000 0.000000
O O6 0.000000 0.250000 0.750000
O O7 0.952066 0.341453 0.755566
O O8 0.000000 0.308755 0.000000
O O9 0.250000 0.359487 0.750000
O O10 0.357781 0.371714 0.770507
O O11 0.298181 0.379278 0.000000
O O12 0.417389 0.115537 0.500000
#
# Coordination Sequence:
#
# PCOD9511517 Si02
#       5
#    16  16  16  32  32
#     4   9  16  26  42  67 106 152 195 232 269 322
#     4   9  17  31  53  84 119 155 193 235 284 338
#     4  12  26  45  68  89 110 142 186 238 290 344
#     4  10  19  30  48  75 111 151 189 229 275 328
#     4  10  21  38  59  86 119 155 194 237 285 338
#
# _framework density 19.074307999999998
#
# number of rings (size 3 to 8) (size 9 to 14) (size 15 to 20)
#    0.000    2.000    0.000    4.286    0.000    7.429 
#    0.000    2.857    0.000    0.857    0.000    6.000 
#    0.000    0.000    0.000    0.000    0.000    0.000 
#
# Total GULP energy -155965.230404 kJ/mol
# GULP energy per Si atom -5570.186800 kJ/mol
# Density = 1.903089 g / cm^3
# Si number density = 19.074308 Si / 1000 Ang^3
#
#
#
# Elastic Constant Matrix: (Units=GPa)
#
#
# Indices 1 2 3 4 5 6 
#
# 1 185.1278 67.4181 58.9115 0.0006 -0.0006 0.0040
# 2 67.4181 106.4141 46.4175 0.0014 -0.0010 0.0029
# 3 58.9115 46.4175 93.5635 0.0041 -0.0038 0.0287
# 4 0.0006 0.0014 0.0041 18.6182 -0.0016 0.0097
# 5 -0.0006 -0.0010 -0.0038 -0.0016 30.1419 -0.0101
# 6 0.0040 0.0029 0.0287 0.0097 -0.0101 -148.8775
#
#
#
# Elastic Compliance Matrix: (Units=1/GPa)
#
#
# Indices 1 2 3 4 5 6 
#
# 1 0.007660 -0.003509 -0.003083 0.000001 0.000000 0.000000
# 2 -0.003509 0.013599 -0.004538 0.000000 0.000000 -0.000001
# 3 -0.003083 -0.004538 0.014880 -0.000003 0.000002 0.000003
# 4 0.000001 0.000000 -0.000003 0.053711 0.000003 0.000003
# 5 0.000000 0.000000 0.000002 0.000003 0.033176 -0.000002
# 6 0.000000 -0.000001 0.000003 0.000003 -0.000002 -0.006717
#
#
# Mechanical properties :
#
#
# Convention : Reuss Voigt Hill
#
# Bulk Modulus (GPa) = 72.03512 81.17775 76.60644
# Shear Modulus (GPa) = 34.91743 -5.86625 14.52559
#
# Velocity S-wave (km/s) = 4.28319 -1.75560 2.76257
# Velocity P-wave (km/s) = 7.89357 6.20818 7.10106
#
# Compressibility (1/GPa) = 0.01388212
#
# Stress axis : x y z
#
# Youngs Moduli (GPa) = 130.54251 73.53287 67.20408
#
# Poissons Ratio (x) = 0.25799 0.20717
# Poissons Ratio (y) = 0.45801 0.30495
# Poissons Ratio (z) = 0.40242 0.33367
#
# Static dielectric constant tensor:
#      x y z
#    x 1.766770 0.000000 0.000000 
#    y 0.000000 1.619410 0.000000 
#    z 0.000000 0.000000 1.677830 
# 
# From -- ./inp_files/4505.got.cif
#   From: 2010.05.17/outbox.cif.g08.bks.cpg/sg69_3_cif.got.tgz:4505.got - 2010.06.03 19:29:58.
