data_PCOD9511278
_publ_section_title
;
Structure prediction by ZEFSAII (Michael W. Deem and Ramdas Pophale) SiO2 
 PCOD9511278
Probable space group: F M M M
;
_chemical_formula_sum "Si O2"
_cell_formula_units_Z 176
_cell_length_a 28.942685
_cell_length_b 14.786269
_cell_length_c 24.320550
_cell_angle_alpha 90.000000
_cell_angle_beta 90.000000
_cell_angle_gamma 90.000000
_cell_volume 10408.084583
_symmetry_space_group_name_H-M "F M M M"
_symmetry_group_IT_number 69
_symmetry_cell_setting 'orthorhombic'
loop_
_space_group_symop_operation_xyz
x,y,z
-x,-y,z
x,-y,-z
-x,y,-z
-x,-y,-z
x,y,-z
-x,y,z
x,-y,z
x,1/2+y,1/2+z
-x,1/2-y,1/2+z
x,1/2-y,1/2-z
-x,1/2+y,1/2-z
-x,1/2-y,1/2-z
x,1/2+y,1/2-z
-x,1/2+y,1/2+z
x,1/2-y,1/2+z
1/2+x,y,1/2+z
1/2-x,-y,1/2+z
1/2+x,-y,1/2-z
1/2-x,y,1/2-z
1/2-x,-y,1/2-z
1/2+x,y,1/2-z
1/2-x,y,1/2+z
1/2+x,-y,1/2+z
1/2+x,1/2+y,z
1/2-x,1/2-y,z
1/2+x,1/2-y,-z
1/2-x,1/2+y,-z
1/2-x,1/2-y,-z
1/2+x,1/2+y,-z
1/2-x,1/2+y,z
1/2+x,1/2-y,z
loop_
_atom_site_type_symbol
_atom_site_label
_atom_site_fract_x
_atom_site_fract_y
_atom_site_fract_z
Si Si1 0.728720 0.099310 0.810580
Si Si2 0.647394 0.236094 0.814952
Si Si3 0.898703 0.109126 0.395783
Si Si4 0.231499 0.648603 0.500000
Si Si5 0.818222 0.897351 0.886507
Si Si6 0.838372 0.396690 0.000000
Si Si7 0.500000 0.890780 0.061500
O O1 0.750000 0.105043 0.750000
O O2 0.696110 0.183677 0.820095
O O3 0.770646 0.100352 0.852381
O O4 0.705061 0.000000 0.815625
O O5 0.639415 0.250000 0.750000
O O6 0.612708 0.164528 0.841434
O O7 0.650607 0.325911 0.852722
O O8 0.862203 0.139574 0.443963
O O9 0.951058 0.132512 0.412132
O O10 0.894929 0.000000 0.389068
O O11 0.250000 0.750000 0.500000
O O12 0.199492 0.629489 0.447177
O O13 0.282471 0.601322 0.500000
O O14 0.837234 0.000000 0.887330
O O15 0.854685 0.500000 0.000000
O O16 0.500000 0.000000 0.058962
O O17 0.500000 0.854150 0.000000
#
# Coordination Sequence:
#
# PCOD9511278 Si02
#       7
#    32  32  32  16  32  16  16
#     4  10  19  33  52  72 100 143 189 232 266 298
#     4  12  23  34  51  74 108 145 189 228 253 302
#     4  10  20  34  57  85 108 132 162 208 273 338
#     4  12  22  34  51  71 103 144 184 231 271 309
#     4  11  23  36  50  71 105 150 192 229 269 306
#     4  10  18  31  50  76 106 129 159 208 266 323
#     4   9  16  34  61  86 113 131 148 196 275 353
#
# _framework density 16.909931
#
# number of rings (size 3 to 8) (size 9 to 14) (size 15 to 20)
#    0.000    1.364    2.727    5.182    0.000    3.636 
#    0.000    0.455    0.000    0.000    0.000    0.636 
#    0.000    0.727    0.000    0.000    0.000    0.000 
#
# Total GULP energy -245265.836128 kJ/mol
# GULP energy per Si atom -5574.223548 kJ/mol
# Density = 1.687144 g / cm^3
# Si number density = 16.909931 Si / 1000 Ang^3
#
#
#
# Elastic Constant Matrix: (Units=GPa)
#
#
# Indices 1 2 3 4 5 6 
#
# 1 57.5421 16.2338 29.7945 0.0000 0.0000 0.0000
# 2 16.2338 96.4967 38.7702 0.0000 0.0000 0.0000
# 3 29.7945 38.7702 120.0154 0.0000 0.0000 0.0000
# 4 0.0000 0.0000 0.0000 28.8668 0.0000 0.0000
# 5 0.0000 0.0000 0.0000 0.0000 18.2966 0.0000
# 6 0.0000 0.0000 0.0000 0.0000 0.0000 -47.3790
#
#
#
# Elastic Compliance Matrix: (Units=1/GPa)
#
#
# Indices 1 2 3 4 5 6 
#
# 1 0.020151 -0.001586 -0.004490 0.000000 0.000000 0.000000
# 2 -0.001586 0.012034 -0.003494 0.000000 0.000000 0.000000
# 3 -0.004490 -0.003494 0.010576 0.000000 0.000000 0.000000
# 4 0.000000 0.000000 0.000000 0.034642 0.000000 0.000000
# 5 0.000000 0.000000 0.000000 0.000000 0.054655 0.000000
# 6 0.000000 0.000000 0.000000 0.000000 0.000000 -0.021106
#
#
# Mechanical properties :
#
#
# Convention : Reuss Voigt Hill
#
# Bulk Modulus (GPa) = 42.33625 49.29458 45.81541
# Shear Modulus (GPa) = 36.24137 12.57392 24.40765
#
# Velocity S-wave (km/s) = 4.63449 2.72983 3.80332
# Velocity P-wave (km/s) = 7.32999 6.25704 6.81466
#
# Compressibility (1/GPa) = 0.02362042
#
# Stress axis : x y z
#
# Youngs Moduli (GPa) = 49.62534 83.10124 94.55733
#
# Poissons Ratio (x) = 0.13179 0.42459
# Poissons Ratio (y) = 0.07870 0.33035
# Poissons Ratio (z) = 0.22283 0.29033
#
# Static dielectric constant tensor:
#      x y z
#    x 1.580830 0.000000 0.000000 
#    y 0.000000 1.660660 0.000000 
#    z 0.000000 0.000000 1.599220 
# 
# From -- ./inp_files/41252.got.cif
#   From: 2010.05.17/outbox.cif.g08.bks.cpg/sg69_21_cif.got.tgz:41252.got - 2010.06.03 19:29:58.
