data_PCOD9511188
_publ_section_title
;
Structure prediction by ZEFSAII (Michael W. Deem and Ramdas Pophale) SiO2 
 PCOD9511188
Probable space group: F M M M
;
_chemical_formula_sum "Si O2"
_cell_formula_units_Z 240
_cell_length_a 29.414584
_cell_length_b 28.362665
_cell_length_c 15.360794
_cell_angle_alpha 90.000000
_cell_angle_beta 90.000000
_cell_angle_gamma 90.000000
_cell_volume 12815.141654
_symmetry_space_group_name_H-M "F M M M"
_symmetry_group_IT_number 69
_symmetry_cell_setting 'orthorhombic'
loop_
_space_group_symop_operation_xyz
x,y,z
-x,-y,z
x,-y,-z
-x,y,-z
-x,-y,-z
x,y,-z
-x,y,z
x,-y,z
x,1/2+y,1/2+z
-x,1/2-y,1/2+z
x,1/2-y,1/2-z
-x,1/2+y,1/2-z
-x,1/2-y,1/2-z
x,1/2+y,1/2-z
-x,1/2+y,1/2+z
x,1/2-y,1/2+z
1/2+x,y,1/2+z
1/2-x,-y,1/2+z
1/2+x,-y,1/2-z
1/2-x,y,1/2-z
1/2-x,-y,1/2-z
1/2+x,y,1/2-z
1/2-x,y,1/2+z
1/2+x,-y,1/2+z
1/2+x,1/2+y,z
1/2-x,1/2-y,z
1/2+x,1/2-y,-z
1/2-x,1/2+y,-z
1/2-x,1/2-y,-z
1/2+x,1/2+y,-z
1/2-x,1/2+y,z
1/2+x,1/2-y,z
loop_
_atom_site_type_symbol
_atom_site_label
_atom_site_fract_x
_atom_site_fract_y
_atom_site_fract_z
Si Si1 0.807345 0.602234 0.104661
Si Si2 0.206161 0.613629 0.393800
Si Si3 0.618919 0.554436 0.848863
Si Si4 0.859952 0.696273 0.106586
Si Si5 0.795607 0.722801 0.606196
Si Si6 0.551686 0.942624 0.500000
Si Si7 0.101536 0.552707 0.149058
Si Si8 0.050684 0.147184 0.602908
O O1 0.755767 0.594761 0.133967
O O2 0.826381 0.653465 0.132755
O O3 0.845768 0.564735 0.129093
O O4 0.805730 0.603750 0.000000
O O5 0.203104 0.610839 0.500000
O O6 0.164358 0.584920 0.355123
O O7 0.203495 0.668505 0.367587
O O8 0.630297 0.500000 0.871044
O O9 0.598198 0.554880 0.753045
O O10 0.581133 0.571701 0.916653
O O11 0.838521 0.745736 0.133907
O O12 0.910121 0.681982 0.138051
O O13 0.860666 0.696021 0.000000
O O14 0.794689 0.722526 0.500000
O O15 0.750000 0.750000 0.634208
O O16 0.500000 0.925299 0.500000
O O17 0.549587 0.000000 0.500000
O O18 0.090209 0.500000 0.118613
O O19 0.070694 0.594374 0.111667
O O20 0.047636 0.156821 0.500000
O O21 0.000000 0.151173 0.640417
#
# Coordination Sequence:
#
# PCOD9511188 Si02
#       8
#    32  32  32  32  32  16  32  32
#     4   9  17  29  47  71 101 141 177 204 249 303
#     4  10  18  29  50  77 104 133 173 216 259 305
#     4  10  21  36  52  74 101 131 170 215 264 314
#     4   8  13  25  44  70 103 133 166 206 244 292
#     4   9  14  23  45  78 105 127 165 212 251 291
#     4   9  18  36  60  76  89 118 164 220 276 315
#     4  10  21  34  48  70 103 140 177 214 255 306
#     4   9  18  32  52  77 104 137 172 207 249 299
#
# _framework density 18.727846
#
# number of rings (size 3 to 8) (size 9 to 14) (size 15 to 20)
#    0.000    2.733    2.000    1.200    0.000    2.933 
#    0.000    4.667    0.000    4.000    0.000    0.933 
#    0.000    0.000    0.000    0.000    0.000    0.000 
#
# Total GULP energy -334529.034073 kJ/mol
# GULP energy per Si atom -5575.483901 kJ/mol
# Density = 1.868522 g / cm^3
# Si number density = 18.727846 Si / 1000 Ang^3
#
#
#
# Elastic Constant Matrix: (Units=GPa)
#
#
# Indices 1 2 3 4 5 6 
#
# 1 138.4583 32.7782 8.0631 0.0000 0.0000 0.0000
# 2 32.7782 54.0423 -3.7433 0.0000 0.0000 0.0000
# 3 8.0631 -3.7433 19.7351 0.0000 0.0000 0.0000
# 4 0.0000 0.0000 0.0000 -18.3705 0.0000 0.0000
# 5 0.0000 0.0000 0.0000 0.0000 1.0896 0.0000
# 6 0.0000 0.0000 0.0000 0.0000 0.0000 12.7134
#
#
#
# Elastic Compliance Matrix: (Units=1/GPa)
#
#
# Indices 1 2 3 4 5 6 
#
# 1 0.008842 -0.005688 -0.004691 0.000000 0.000000 0.000000
# 2 -0.005688 0.022409 0.006574 0.000000 0.000000 0.000000
# 3 -0.004691 0.006574 0.053835 0.000000 -0.000001 0.000000
# 4 0.000000 0.000000 0.000000 -0.054435 0.000000 0.000000
# 5 0.000000 0.000000 -0.000001 0.000000 0.917784 0.000000
# 6 0.000000 0.000000 0.000000 0.000000 0.000000 0.078657
#
#
# Mechanical properties :
#
#
# Convention : Reuss Voigt Hill
#
# Bulk Modulus (GPa) = 12.90714 31.82574 22.36644
# Shear Modulus (GPa) = 4.71463 10.76235 7.73849
#
# Velocity S-wave (km/s) = 1.58837 2.39983 2.03496
# Velocity P-wave (km/s) = 3.20481 4.97088 4.18213
#
# Compressibility (1/GPa) = 0.07747649
#
# Stress axis : x y z
#
# Youngs Moduli (GPa) = 113.09465 44.62423 18.57527
#
# Poissons Ratio (x) = 0.25382 0.08715
# Poissons Ratio (y) = 0.64328 -0.12212
# Poissons Ratio (z) = 0.53058 -0.29338
#
# Static dielectric constant tensor:
#      x y z
#    x 1.651670 0.000000 0.000000 
#    y 0.000000 1.635450 0.000000 
#    z 0.000000 0.000000 1.686550 
# 
# From -- ./inp_files/19975.got.cif
#   From: 2010.05.17/outbox.cif.g08.bks.cpg/sg69_10_cif.got.tgz:19975.got - 2010.06.03 19:29:58.
