data_PCOD9511342
_publ_section_title
;
Structure prediction by ZEFSAII (Michael W. Deem and Ramdas Pophale) SiO2 
 PCOD9511342
Probable space group: F M M M
;
_chemical_formula_sum "Si O2"
_cell_formula_units_Z 144
_cell_length_a 8.665074
_cell_length_b 28.725790
_cell_length_c 32.198070
_cell_angle_alpha 90.000000
_cell_angle_beta 90.000000
_cell_angle_gamma 90.000000
_cell_volume 8014.456895
_symmetry_space_group_name_H-M "F M M M"
_symmetry_group_IT_number 69
_symmetry_cell_setting 'orthorhombic'
loop_
_space_group_symop_operation_xyz
x,y,z
-x,-y,z
x,-y,-z
-x,y,-z
-x,-y,-z
x,y,-z
-x,y,z
x,-y,z
x,1/2+y,1/2+z
-x,1/2-y,1/2+z
x,1/2-y,1/2-z
-x,1/2+y,1/2-z
-x,1/2-y,1/2-z
x,1/2+y,1/2-z
-x,1/2+y,1/2+z
x,1/2-y,1/2+z
1/2+x,y,1/2+z
1/2-x,-y,1/2+z
1/2+x,-y,1/2-z
1/2-x,y,1/2-z
1/2-x,-y,1/2-z
1/2+x,y,1/2-z
1/2-x,y,1/2+z
1/2+x,-y,1/2+z
1/2+x,1/2+y,z
1/2-x,1/2-y,z
1/2+x,1/2-y,-z
1/2-x,1/2+y,-z
1/2-x,1/2-y,-z
1/2+x,1/2+y,-z
1/2-x,1/2+y,z
1/2+x,1/2-y,z
loop_
_atom_site_type_symbol
_atom_site_label
_atom_site_fract_x
_atom_site_fract_y
_atom_site_fract_z
Si Si1 0.316331 0.055920 0.453198
Si Si2 0.683129 0.698171 0.086580
Si Si3 0.184636 0.697244 0.000000
Si Si4 0.184534 0.388810 0.875256
Si Si5 0.313991 0.446221 0.705647
O O1 0.264525 0.069355 0.500000
O O2 0.500000 0.065900 0.450404
O O3 0.231918 0.080950 0.415447
O O4 0.297476 0.000000 0.449809
O O5 0.500000 0.701222 0.083347
O O6 0.750000 0.750000 0.092841
O O7 0.750251 0.678192 0.043034
O O8 0.736655 0.661437 0.120683
O O9 0.250000 0.750000 0.000000
O O10 0.500000 0.802963 0.000000
O O11 0.234116 0.415594 0.833613
O O12 0.000000 0.383301 0.874879
O O13 0.500000 0.445766 0.707198
O O14 0.264063 0.500000 0.699710
O O15 0.250000 0.430110 0.750000
#
# Coordination Sequence:
#
# PCOD9511342 Si02
#       5
#    32  32  16  32  32
#     4   9  19  35  52  73 106 146 186 226 267 317
#     4  11  22  37  55  77 107 144 185 231 278 325
#     4  10  18  32  52  74 101 136 179 226 274 318
#     4  11  22  35  54  81 111 144 183 227 275 330
#     4   9  19  36  58  84 113 143 178 223 273 327
#
# _framework density 17.967531000000001
#
# number of rings (size 3 to 8) (size 9 to 14) (size 15 to 20)
#    0.000    2.000    0.000    6.333    1.556    3.556 
#    0.000    3.333    0.000    0.667    0.000    4.667 
#    0.000    0.000    0.000    0.000    0.000    0.000 
#
# Total GULP energy -201041.951864 kJ/mol
# GULP energy per Si atom -5584.498663 kJ/mol
# Density = 1.792664 g / cm^3
# Si number density = 17.967531 Si / 1000 Ang^3
#
#
#
# Elastic Constant Matrix: (Units=GPa)
#
#
# Indices 1 2 3 4 5 6 
#
# 1 94.5324 40.6153 48.2658 0.0000 0.0000 0.0000
# 2 40.6153 84.4657 77.4901 0.0000 0.0000 0.0000
# 3 48.2658 77.4901 144.7968 0.0000 0.0000 0.0000
# 4 0.0000 0.0000 0.0000 28.6223 0.0000 0.0000
# 5 0.0000 0.0000 0.0000 0.0000 26.3184 0.0000
# 6 0.0000 0.0000 0.0000 0.0000 0.0000 27.4425
#
#
#
# Elastic Compliance Matrix: (Units=1/GPa)
#
#
# Indices 1 2 3 4 5 6 
#
# 1 0.013631 -0.004688 -0.002035 0.000000 0.000000 0.000000
# 2 -0.004688 0.024870 -0.011747 0.000000 0.000000 0.000000
# 3 -0.002035 -0.011747 0.013871 0.000000 0.000000 0.000000
# 4 0.000000 0.000000 0.000000 0.034938 0.000000 0.000000
# 5 0.000000 0.000000 0.000000 0.000000 0.037996 0.000000
# 6 0.000000 0.000000 0.000000 0.000000 0.000000 0.036440
#
#
# Mechanical properties :
#
#
# Convention : Reuss Voigt Hill
#
# Bulk Modulus (GPa) = 64.79563 72.94858 68.87211
# Shear Modulus (GPa) = 24.53016 26.97155 25.75086
#
# Velocity S-wave (km/s) = 3.69894 3.87864 3.78985
# Velocity P-wave (km/s) = 7.37453 7.79403 7.58718
#
# Compressibility (1/GPa) = 0.01543314
#
# Stress axis : x y z
#
# Youngs Moduli (GPa) = 73.35951 40.20898 72.09148
#
# Poissons Ratio (x) = 0.18848 0.14672
# Poissons Ratio (y) = 0.34387 0.84686
# Poissons Ratio (z) = 0.14931 0.47234
#
# Static dielectric constant tensor:
#      x y z
#    x 1.606920 0.000000 0.000000 
#    y 0.000000 1.601530 0.000000 
#    z 0.000000 0.000000 1.615520 
# 
# From -- ./inp_files/5587.got.cif
#   From: 2010.05.17/outbox.cif.g08.bks.cpg/sg69_3_cif.got.tgz:5587.got - 2010.06.03 19:29:58.
