data_PCOD9511054
_publ_section_title
;
Structure prediction by ZEFSAII (Michael W. Deem and Ramdas Pophale) SiO2 
 PCOD9511054
Probable space group: F M M M
;
_chemical_formula_sum "Si O2"
_cell_formula_units_Z 192
_cell_length_a 23.115551
_cell_length_b 26.090438
_cell_length_c 20.386146
_cell_angle_alpha 90.000000
_cell_angle_beta 90.000000
_cell_angle_gamma 90.000000
_cell_volume 12294.779668
_symmetry_space_group_name_H-M "F M M M"
_symmetry_group_IT_number 69
_symmetry_cell_setting 'orthorhombic'
loop_
_space_group_symop_operation_xyz
x,y,z
-x,-y,z
x,-y,-z
-x,y,-z
-x,-y,-z
x,y,-z
-x,y,z
x,-y,z
x,1/2+y,1/2+z
-x,1/2-y,1/2+z
x,1/2-y,1/2-z
-x,1/2+y,1/2-z
-x,1/2-y,1/2-z
x,1/2+y,1/2-z
-x,1/2+y,1/2+z
x,1/2-y,1/2+z
1/2+x,y,1/2+z
1/2-x,-y,1/2+z
1/2+x,-y,1/2-z
1/2-x,y,1/2-z
1/2-x,-y,1/2-z
1/2+x,y,1/2-z
1/2-x,y,1/2+z
1/2+x,-y,1/2+z
1/2+x,1/2+y,z
1/2-x,1/2-y,z
1/2+x,1/2-y,-z
1/2-x,1/2+y,-z
1/2-x,1/2-y,-z
1/2+x,1/2+y,-z
1/2-x,1/2+y,z
1/2+x,1/2-y,z
loop_
_atom_site_type_symbol
_atom_site_label
_atom_site_fract_x
_atom_site_fract_y
_atom_site_fract_z
Si Si1 0.000000 0.287891 0.857604
Si Si2 0.876316 0.321963 0.127233
Si Si3 0.787739 0.440214 0.683909
Si Si4 0.500000 0.678360 0.203000
Si Si5 0.241507 0.362609 0.074727
Si Si6 0.805971 0.279356 0.344419
Si Si7 0.377984 0.136008 0.271433
O O1 0.057254 0.310964 0.891257
O O2 0.000000 0.303550 0.779805
O O3 0.000000 0.226168 0.847584
O O4 0.826108 0.347394 0.083515
O O5 0.851897 0.264804 0.140833
O O6 0.879494 0.356344 0.193288
O O7 0.790664 0.500000 0.667234
O O8 0.750000 0.434011 0.750000
O O9 0.759188 0.406696 0.626117
O O10 0.849579 0.415957 0.702860
O O11 0.559352 0.646980 0.197898
O O12 0.280494 0.313273 0.095623
O O13 0.252876 0.376940 0.000000
O O14 0.750000 0.250000 0.318669
O O15 0.834762 0.319119 0.295245
#
# Coordination Sequence:
#
# PCOD9511054 Si02
#       7
#    16  32  32  16  32  32  32
#     4   9  16  26  41  72 102 141 172 205 233 281
#     4  10  17  28  45  69 104 138 171 197 239 291
#     4  10  20  36  56  77  98 121 163 220 268 307
#     4   9  16  26  45  70 110 135 166 206 245 294
#     4  10  21  34  48  72 102 135 167 204 256 305
#     4   9  18  25  43  68 100 134 166 204 239 294
#     4  10  17  29  46  76 102 133 166 207 254 298
#
# _framework density 15.616384
#
# number of rings (size 3 to 8) (size 9 to 14) (size 15 to 20)
#    0.000    2.333    3.333    0.500    0.000    5.333 
#    0.000    0.833    0.000    0.000    0.000    9.917 
#    0.000    6.667    0.000    0.000    0.000    0.000 
#
# Total GULP energy -267223.475457 kJ/mol
# GULP energy per Si atom -5567.155739 kJ/mol
# Density = 1.558084 g / cm^3
# Si number density = 15.616384 Si / 1000 Ang^3
#
#
#
# Elastic Constant Matrix: (Units=GPa)
#
#
# Indices 1 2 3 4 5 6 
#
# 1 96.9630 20.4218 8.3026 0.0000 0.0000 0.0000
# 2 20.4218 78.5504 28.1209 0.0000 0.0000 0.0000
# 3 8.3026 28.1209 59.5839 0.0000 0.0000 0.0000
# 4 0.0000 0.0000 0.0000 5.6669 0.0000 0.0000
# 5 0.0000 0.0000 0.0000 0.0000 -11.4163 0.0000
# 6 0.0000 0.0000 0.0000 0.0000 0.0000 16.4745
#
#
#
# Elastic Compliance Matrix: (Units=1/GPa)
#
#
# Indices 1 2 3 4 5 6 
#
# 1 0.010913 -0.002759 -0.000219 0.000000 0.000000 0.000000
# 2 -0.002759 0.016016 -0.007175 0.000000 0.000000 0.000000
# 3 -0.000219 -0.007175 0.020200 0.000000 0.000000 0.000000
# 4 0.000000 0.000000 0.000000 0.176463 0.000000 0.000000
# 5 0.000000 0.000000 0.000000 0.000000 -0.087594 0.000000
# 6 0.000000 0.000000 0.000000 0.000000 0.000000 0.060700
#
#
# Mechanical properties :
#
#
# Convention : Reuss Voigt Hill
#
# Bulk Modulus (GPa) = 37.27885 38.75418 38.01652
# Shear Modulus (GPa) = 22.12941 14.02849 18.07895
#
# Velocity S-wave (km/s) = 3.76847 3.00045 3.40618
# Velocity P-wave (km/s) = 6.54665 6.07238 6.31397
#
# Compressibility (1/GPa) = 0.02682486
#
# Stress axis : x y z
#
# Youngs Moduli (GPa) = 91.63380 62.43577 49.50597
#
# Poissons Ratio (x) = 0.17226 0.01082
# Poissons Ratio (y) = 0.25281 0.35519
# Poissons Ratio (z) = 0.02003 0.44795
#
# Static dielectric constant tensor:
#      x y z
#    x 1.569960 0.000000 0.000000 
#    y 0.000000 1.517910 0.000000 
#    z 0.000000 0.000000 1.516360 
# 
# From -- ./inp_files/32214.got.cif
#   From: 2010.05.17/outbox.cif.g08.bks.cpg/sg69_17_cif.got.tgz:32214.got - 2010.06.03 19:29:58.
