data_PCOD9511783
_publ_section_title
;
Structure prediction by ZEFSAII (Michael W. Deem and Ramdas Pophale) SiO2 
 PCOD9511783
Probable space group: F M M M
;
_chemical_formula_sum "Si O2"
_cell_formula_units_Z 160
_cell_length_a 14.720618
_cell_length_b 31.835952
_cell_length_c 18.637046
_cell_angle_alpha 90.000000
_cell_angle_beta 90.000000
_cell_angle_gamma 90.000000
_cell_volume 8734.156336
_symmetry_space_group_name_H-M "F M M M"
_symmetry_group_IT_number 69
_symmetry_cell_setting 'orthorhombic'
loop_
_space_group_symop_operation_xyz
x,y,z
-x,-y,z
x,-y,-z
-x,y,-z
-x,-y,-z
x,y,-z
-x,y,z
x,-y,z
x,1/2+y,1/2+z
-x,1/2-y,1/2+z
x,1/2-y,1/2-z
-x,1/2+y,1/2-z
-x,1/2-y,1/2-z
x,1/2+y,1/2-z
-x,1/2+y,1/2+z
x,1/2-y,1/2+z
1/2+x,y,1/2+z
1/2-x,-y,1/2+z
1/2+x,-y,1/2-z
1/2-x,y,1/2-z
1/2-x,-y,1/2-z
1/2+x,y,1/2-z
1/2-x,y,1/2+z
1/2+x,-y,1/2+z
1/2+x,1/2+y,z
1/2-x,1/2-y,z
1/2+x,1/2-y,-z
1/2-x,1/2+y,-z
1/2-x,1/2-y,-z
1/2+x,1/2+y,-z
1/2-x,1/2+y,z
1/2+x,1/2-y,z
loop_
_atom_site_type_symbol
_atom_site_label
_atom_site_fract_x
_atom_site_fract_y
_atom_site_fract_z
Si Si1 0.500000 0.163635 0.157823
Si Si2 0.699258 0.047985 0.173932
Si Si3 0.862050 0.826079 0.083639
Si Si4 0.000000 0.751868 0.083920
Si Si5 0.318584 0.370631 0.584947
Si Si6 0.000000 0.545909 0.763272
Si Si7 0.500000 0.130193 0.316792
O O1 0.500000 0.212049 0.134722
O O2 0.589157 0.142306 0.124170
O O3 0.500000 0.156222 0.242773
O O4 0.750000 0.055098 0.250000
O O5 0.717894 0.085889 0.119363
O O6 0.591258 0.049315 0.190098
O O7 0.721697 0.000000 0.150507
O O8 0.911212 0.781292 0.095431
O O9 0.755566 0.833459 0.094993
O O10 0.913761 0.857422 0.136158
O O11 0.880268 0.836317 0.000000
O O12 0.000000 0.738507 0.000000
O O13 0.333550 0.375818 0.500000
O O14 0.000000 0.582229 0.705522
O O15 0.000000 0.500000 0.728937
#
# Coordination Sequence:
#
# PCOD9511783 Si02
#       7
#    16  32  32  16  32  16  16
#     4  12  24  34  58  88 114 152 188 238 282 327
#     4  10  20  35  56  81 112 148 189 230 278 337
#     4   9  21  38  60  81 108 152 190 233 289 343
#     4   9  19  40  59  81 115 148 190 234 285 344
#     4  11  22  37  56  84 117 150 190 229 282 343
#     4  10  19  33  53  82 112 148 187 221 279 336
#     4  11  19  36  61  83 113 144 189 245 275 335
#
# _framework density 18.318884000000001
#
# number of rings (size 3 to 8) (size 9 to 14) (size 15 to 20)
#    0.000    1.800    2.000    3.000    0.000    2.800 
#    0.000    3.000    0.000   10.200    0.000    0.000 
#    0.000    0.000    0.000    0.000    0.000    0.000 
#
# Total GULP energy -223147.480409 kJ/mol
# GULP energy per Si atom -5578.687010 kJ/mol
# Density = 1.827719 g / cm^3
# Si number density = 18.318884 Si / 1000 Ang^3
#
#
#
# Elastic Constant Matrix: (Units=GPa)
#
#
# Indices 1 2 3 4 5 6 
#
# 1 89.7139 21.9139 34.9916 0.0000 0.0000 0.0000
# 2 21.9139 126.9622 54.9491 0.0000 0.0000 0.0000
# 3 34.9916 54.9491 71.3827 0.0000 0.0000 0.0000
# 4 0.0000 0.0000 0.0000 -9.8805 0.0000 0.0000
# 5 0.0000 0.0000 0.0000 0.0000 -33.0844 0.0000
# 6 0.0000 0.0000 0.0000 0.0000 0.0000 23.9143
#
#
#
# Elastic Compliance Matrix: (Units=1/GPa)
#
#
# Indices 1 2 3 4 5 6 
#
# 1 0.013838 0.000821 -0.007415 0.000000 0.000000 0.000000
# 2 0.000821 0.011860 -0.009532 0.000000 0.000000 0.000000
# 3 -0.007415 -0.009532 0.024982 0.000000 0.000000 0.000000
# 4 0.000000 0.000000 0.000000 -0.101210 0.000000 0.000000
# 5 0.000000 0.000000 0.000000 0.000000 -0.030226 0.000000
# 6 0.000000 0.000000 0.000000 0.000000 0.000000 0.041816
#
#
# Mechanical properties :
#
#
# Convention : Reuss Voigt Hill
#
# Bulk Modulus (GPa) = 54.26869 56.86311 55.56590
# Shear Modulus (GPa) = -9196.40538 7.93683 -4594.23428
#
# Velocity S-wave (km/s) = -70.93008 2.08375 -50.13349
# Velocity P-wave (km/s) = 81.72155 6.07432 57.62601
#
# Compressibility (1/GPa) = 0.01842683
#
# Stress axis : x y z
#
# Youngs Moduli (GPa) = 72.26325 84.31586 40.02946
#
# Poissons Ratio (x) = -0.06921 0.29683
# Poissons Ratio (y) = -0.05932 0.38157
# Poissons Ratio (z) = 0.53586 0.80371
#
# Static dielectric constant tensor:
#      x y z
#    x 1.661800 0.000000 0.000000 
#    y 0.000000 1.644830 0.000000 
#    z 0.000000 0.000000 1.592510 
# 
# From -- ./inp_files/21912.got.cif
#   From: 2010.05.17/outbox.cif.g08.bks.cpg/sg69_11_cif.got.tgz:21912.got - 2010.06.03 19:29:58.
