data_PCOD9511685
_publ_section_title
;
Structure prediction by ZEFSAII (Michael W. Deem and Ramdas Pophale) SiO2 
 PCOD9511685
Probable space group: F M M M
;
_chemical_formula_sum "Si O2"
_cell_formula_units_Z 208
_cell_length_a 29.103559
_cell_length_b 16.959461
_cell_length_c 23.312805
_cell_angle_alpha 90.000000
_cell_angle_beta 90.000000
_cell_angle_gamma 90.000000
_cell_volume 11506.750001
_symmetry_space_group_name_H-M "F M M M"
_symmetry_group_IT_number 69
_symmetry_cell_setting 'orthorhombic'
loop_
_space_group_symop_operation_xyz
x,y,z
-x,-y,z
x,-y,-z
-x,y,-z
-x,-y,-z
x,y,-z
-x,y,z
x,-y,z
x,1/2+y,1/2+z
-x,1/2-y,1/2+z
x,1/2-y,1/2-z
-x,1/2+y,1/2-z
-x,1/2-y,1/2-z
x,1/2+y,1/2-z
-x,1/2+y,1/2+z
x,1/2-y,1/2+z
1/2+x,y,1/2+z
1/2-x,-y,1/2+z
1/2+x,-y,1/2-z
1/2-x,y,1/2-z
1/2-x,-y,1/2-z
1/2+x,y,1/2-z
1/2-x,y,1/2+z
1/2+x,-y,1/2+z
1/2+x,1/2+y,z
1/2-x,1/2-y,z
1/2+x,1/2-y,-z
1/2-x,1/2+y,-z
1/2-x,1/2-y,-z
1/2+x,1/2+y,-z
1/2-x,1/2+y,z
1/2+x,1/2-y,z
loop_
_atom_site_type_symbol
_atom_site_label
_atom_site_fract_x
_atom_site_fract_y
_atom_site_fract_z
Si Si1 0.554575 0.500000 0.565105
Si Si2 0.946990 0.406741 0.750948
Si Si3 0.865138 0.909092 0.930870
Si Si4 0.405230 0.353209 0.365707
Si Si5 0.553579 0.320679 0.870766
Si Si6 0.822601 0.407915 0.933025
Si Si7 0.728416 0.331452 0.068852
O O1 0.500000 0.500000 0.563687
O O2 0.572312 0.500000 0.500000
O O3 0.570308 0.421670 0.597532
O O4 0.941037 0.500000 0.739004
O O5 0.912249 0.378662 0.799916
O O6 0.942479 0.355518 0.693624
O O7 0.000000 0.396472 0.772222
O O8 0.912389 0.872025 0.909360
O O9 0.820934 0.859642 0.909308
O O10 0.861007 0.000000 0.912458
O O11 0.864287 0.907848 0.000000
O O12 0.429030 0.269046 0.373342
O O13 0.353704 0.356037 0.390818
O O14 0.500000 0.325819 0.887354
O O15 0.834023 0.500000 0.925304
O O16 0.768620 0.395140 0.922760
O O17 0.831209 0.386108 0.000000
O O18 0.750000 0.250000 0.091235
O O19 0.722723 0.321504 0.000000
#
# Coordination Sequence:
#
# PCOD9511685 Si02
#       7
#    16  32  32  32  32  32  32
#     4  11  22  34  50  76 114 155 187 221 276 349
#     4  10  20  37  59  79 104 142 192 243 289 336
#     4  10  21  38  58  81 112 150 190 233 289 348
#     4  12  21  35  55  80 113 149 187 231 283 341
#     4  11  24  38  56  82 110 145 194 246 289 334
#     4  10  19  32  52  80 113 147 184 224 270 335
#     4   9  17  31  53  81 110 142 181 228 281 336
#
# _framework density 18.076346000000001
#
# number of rings (size 3 to 8) (size 9 to 14) (size 15 to 20)
#    0.000    1.615    1.538    4.154    0.000    6.769 
#    0.000    0.769    0.000    0.923    0.000    6.462 
#    0.000    0.000    0.000    0.000    0.000    0.000 
#
# Total GULP energy -290253.251149 kJ/mol
# GULP energy per Si atom -5581.793291 kJ/mol
# Density = 1.803520 g / cm^3
# Si number density = 18.076346 Si / 1000 Ang^3
#
#
#
# Elastic Constant Matrix: (Units=GPa)
#
#
# Indices 1 2 3 4 5 6 
#
# 1 116.2513 54.2850 27.9251 0.0000 0.0000 0.0000
# 2 54.2850 119.6684 30.5167 0.0000 0.0000 0.0000
# 3 27.9251 30.5167 32.5211 0.0000 0.0000 0.0000
# 4 0.0000 0.0000 0.0000 4.3477 0.0000 0.0000
# 5 0.0000 0.0000 0.0000 0.0000 9.2331 0.0000
# 6 0.0000 0.0000 0.0000 0.0000 0.0000 30.0598
#
#
#
# Elastic Compliance Matrix: (Units=1/GPa)
#
#
# Indices 1 2 3 4 5 6 
#
# 1 0.011960 -0.003689 -0.006808 0.000000 0.000000 0.000000
# 2 -0.003689 0.012123 -0.008208 0.000000 0.000000 0.000000
# 3 -0.006808 -0.008208 0.044297 0.000000 0.000000 0.000000
# 4 0.000000 0.000000 0.000000 0.230009 0.000000 0.000000
# 5 0.000000 0.000000 0.000000 0.000000 0.108306 0.000000
# 6 0.000000 0.000000 0.000000 0.000000 0.000000 0.033267
#
#
# Mechanical properties :
#
#
# Convention : Reuss Voigt Hill
#
# Bulk Modulus (GPa) = 32.28938 54.87715 43.58327
# Shear Modulus (GPa) = 10.25228 19.10905 14.68066
#
# Velocity S-wave (km/s) = 2.38411 3.25488 2.85291
# Velocity P-wave (km/s) = 5.04779 6.67459 5.91736
#
# Compressibility (1/GPa) = 0.03096993
#
# Stress axis : x y z
#
# Youngs Moduli (GPa) = 83.61044 82.48669 22.57478
#
# Poissons Ratio (x) = 0.30433 0.15369
# Poissons Ratio (y) = 0.30847 0.18529
# Poissons Ratio (z) = 0.56922 0.67705
#
# Static dielectric constant tensor:
#      x y z
#    x 1.638670 0.000000 0.000000 
#    y 0.000000 1.633180 0.000000 
#    z 0.000000 0.000000 1.597390 
# 
# From -- ./inp_files/39059.got.cif
#   From: 2010.05.17/outbox.cif.g08.bks.cpg/sg69_20_cif.got.tgz:39059.got - 2010.06.03 19:29:58.
