data_PCOD9511245
_publ_section_title
;
Structure prediction by ZEFSAII (Michael W. Deem and Ramdas Pophale) SiO2 
 PCOD9511245
Probable space group: F M M M
;
_chemical_formula_sum "Si O2"
_cell_formula_units_Z 176
_cell_length_a 18.205289
_cell_length_b 19.040935
_cell_length_c 27.571785
_cell_angle_alpha 90.000000
_cell_angle_beta 90.000000
_cell_angle_gamma 90.000000
_cell_volume 9557.641387
_symmetry_space_group_name_H-M "F M M M"
_symmetry_group_IT_number 69
_symmetry_cell_setting 'orthorhombic'
loop_
_space_group_symop_operation_xyz
x,y,z
-x,-y,z
x,-y,-z
-x,y,-z
-x,-y,-z
x,y,-z
-x,y,z
x,-y,z
x,1/2+y,1/2+z
-x,1/2-y,1/2+z
x,1/2-y,1/2-z
-x,1/2+y,1/2-z
-x,1/2-y,1/2-z
x,1/2+y,1/2-z
-x,1/2+y,1/2+z
x,1/2-y,1/2+z
1/2+x,y,1/2+z
1/2-x,-y,1/2+z
1/2+x,-y,1/2-z
1/2-x,y,1/2-z
1/2-x,-y,1/2-z
1/2+x,y,1/2-z
1/2-x,y,1/2+z
1/2+x,-y,1/2+z
1/2+x,1/2+y,z
1/2-x,1/2-y,z
1/2+x,1/2-y,-z
1/2-x,1/2+y,-z
1/2-x,1/2-y,-z
1/2+x,1/2+y,-z
1/2-x,1/2+y,z
1/2+x,1/2-y,z
loop_
_atom_site_type_symbol
_atom_site_label
_atom_site_fract_x
_atom_site_fract_y
_atom_site_fract_z
Si Si1 0.415274 0.417613 0.732763
Si Si2 0.820373 0.654036 0.684997
Si Si3 0.189550 0.083470 0.917020
Si Si4 0.810766 0.312116 0.054665
Si Si5 0.418590 0.585507 0.000000
Si Si6 0.350195 0.808982 0.164011
O O1 0.500000 0.410485 0.749982
O O2 0.402862 0.500000 0.721834
O O3 0.355955 0.390707 0.772070
O O4 0.402913 0.367071 0.686726
O O5 0.830897 0.612306 0.635275
O O6 0.732479 0.669194 0.682282
O O7 0.859166 0.730106 0.683801
O O8 0.264455 0.116754 0.937074
O O9 0.126366 0.107463 0.953393
O O10 0.194540 0.000000 0.916536
O O11 0.750000 0.250000 0.056370
O O12 0.854439 0.305009 0.105331
O O13 0.843546 0.310835 0.000000
O O14 0.420694 0.500000 0.000000
O O15 0.500000 0.613119 0.000000
#
# Coordination Sequence:
#
# PCOD9511245 Si02
#       6
#    32  32  32  32  16  32
#     4  11  25  41  57  80 114 154 196 242 287 336
#     4  10  20  37  58  87 113 145 188 237 288 346
#     4  10  18  30  51  79 110 143 184 230 276 333
#     4  10  18  33  57  84 115 146 177 229 283 335
#     4   9  18  30  43  68 110 152 181 220 276 333
#     4  10  20  37  59  89 114 148 186 236 292 345
#
# _framework density 18.414584999999999
#
# number of rings (size 3 to 8) (size 9 to 14) (size 15 to 20)
#    0.000    1.909    4.545    1.636    0.000    8.000 
#    0.000    1.818    0.000    0.545    0.000    1.273 
#    0.000    0.000    0.000    0.000    0.000    0.000 
#
# Total GULP energy -245222.208486 kJ/mol
# GULP energy per Si atom -5573.232011 kJ/mol
# Density = 1.837267 g / cm^3
# Si number density = 18.414585 Si / 1000 Ang^3
#
#
#
# Elastic Constant Matrix: (Units=GPa)
#
#
# Indices 1 2 3 4 5 6 
#
# 1 14.0184 12.3500 1.6735 0.0000 0.0000 0.0000
# 2 12.3500 102.5974 23.7406 0.0000 0.0000 0.0000
# 3 1.6735 23.7406 87.2076 0.0000 0.0000 0.0000
# 4 0.0000 0.0000 0.0000 23.6411 0.0000 0.0000
# 5 0.0000 0.0000 0.0000 0.0000 -8.6266 0.0000
# 6 0.0000 0.0000 0.0000 0.0000 0.0000 19.3505
#
#
#
# Elastic Compliance Matrix: (Units=1/GPa)
#
#
# Indices 1 2 3 4 5 6 
#
# 1 0.079906 -0.009887 0.001158 0.000000 0.000000 0.000000
# 2 -0.009887 0.011625 -0.002975 0.000000 0.000000 0.000000
# 3 0.001158 -0.002975 0.012255 0.000000 0.000000 0.000000
# 4 0.000000 0.000000 0.000000 0.042299 0.000000 0.000000
# 5 0.000000 0.000000 0.000000 0.000000 -0.115920 0.000000
# 6 0.000000 0.000000 0.000000 0.000000 0.000000 0.051678
#
#
# Mechanical properties :
#
#
# Convention : Reuss Voigt Hill
#
# Bulk Modulus (GPa) = 12.44105 31.03908 21.74006
# Shear Modulus (GPa) = 37.86613 17.94360 27.90487
#
# Velocity S-wave (km/s) = 4.53958 3.12496 3.89700
# Velocity P-wave (km/s) = 5.85216 5.46926 5.66395
#
# Compressibility (1/GPa) = 0.08037907
#
# Stress axis : x y z
#
# Youngs Moduli (GPa) = 12.51465 86.01899 81.60225
#
# Poissons Ratio (x) = 0.85043 -0.09450
# Poissons Ratio (y) = 0.12373 0.24277
# Poissons Ratio (z) = -0.01449 0.25591
#
# Static dielectric constant tensor:
#      x y z
#    x 1.622290 0.000000 0.000000 
#    y 0.000000 1.635590 0.000000 
#    z 0.000000 0.000000 1.652060 
# 
# From -- ./inp_files/46388.got.cif
#   From: 2010.05.17/outbox.cif.g08.bks.cpg/sg69_24_cif.got.tgz:46388.got - 2010.06.03 19:29:58.
