data_PCOD9511859
_publ_section_title
;
Structure prediction by ZEFSAII (Michael W. Deem and Ramdas Pophale) SiO2 
 PCOD9511859
Probable space group: F M M M
;
_chemical_formula_sum "Si O2"
_cell_formula_units_Z 176
_cell_length_a 26.021331
_cell_length_b 25.555306
_cell_length_c 15.256089
_cell_angle_alpha 90.000000
_cell_angle_beta 90.000000
_cell_angle_gamma 90.000000
_cell_volume 10145.040994
_symmetry_space_group_name_H-M "F M M M"
_symmetry_group_IT_number 69
_symmetry_cell_setting 'orthorhombic'
loop_
_space_group_symop_operation_xyz
x,y,z
-x,-y,z
x,-y,-z
-x,y,-z
-x,-y,-z
x,y,-z
-x,y,z
x,-y,z
x,1/2+y,1/2+z
-x,1/2-y,1/2+z
x,1/2-y,1/2-z
-x,1/2+y,1/2-z
-x,1/2-y,1/2-z
x,1/2+y,1/2-z
-x,1/2+y,1/2+z
x,1/2-y,1/2+z
1/2+x,y,1/2+z
1/2-x,-y,1/2+z
1/2+x,-y,1/2-z
1/2-x,y,1/2-z
1/2-x,-y,1/2-z
1/2+x,y,1/2-z
1/2-x,y,1/2+z
1/2+x,-y,1/2+z
1/2+x,1/2+y,z
1/2-x,1/2-y,z
1/2+x,1/2-y,-z
1/2-x,1/2+y,-z
1/2-x,1/2-y,-z
1/2+x,1/2+y,-z
1/2-x,1/2+y,z
1/2+x,1/2-y,z
loop_
_atom_site_type_symbol
_atom_site_label
_atom_site_fract_x
_atom_site_fract_y
_atom_site_fract_z
Si Si1 0.713018 0.938030 0.328303
Si Si2 0.602469 0.292855 0.682816
Si Si3 0.000000 0.615134 0.396250
Si Si4 0.249751 0.888192 0.000000
Si Si5 0.148768 0.181873 0.000000
Si Si6 0.500000 0.740664 0.894267
Si Si7 0.606352 0.874507 0.333569
Si Si8 0.660160 0.803061 0.000000
O O1 0.750000 0.920177 0.250000
O O2 0.745075 0.923931 0.414904
O O3 0.657980 0.908955 0.328344
O O4 0.704452 0.000000 0.322034
O O5 0.627706 0.250000 0.750000
O O6 0.549401 0.266997 0.650329
O O7 0.597350 0.343388 0.743987
O O8 0.630953 0.308214 0.593027
O O9 0.053871 0.595421 0.357334
O O10 0.000000 0.606797 0.500000
O O11 0.000000 0.678214 0.379297
O O12 0.197458 0.855146 0.000000
O O13 0.294934 0.845766 0.000000
O O14 0.116051 0.166791 0.086107
O O15 0.170021 0.240498 0.000000
O O16 0.500000 0.748928 0.000000
#
# Coordination Sequence:
#
# PCOD9511859 Si02
#       8
#    32  32  16  16  16  16  32  16
#     4  10  22  43  65  83 106 144 199 252 297 352
#     4  12  21  32  52  77 116 155 192 223 270 328
#     4  11  19  31  54  84 119 155 192 227 276 346
#     4  10  22  36  58  81 110 140 181 237 300 332
#     4  10  19  34  51  76 114 152 188 218 267 346
#     4  11  20  34  50  78 115 165 195 217 260 333
#     4  11  21  35  57  85 115 154 191 236 287 338
#     4  12  21  34  49  79 114 148 187 233 271 342
#
# _framework density 17.348376999999999
#
# number of rings (size 3 to 8) (size 9 to 14) (size 15 to 20)
#    0.000    1.091    5.455    2.455    0.000    0.000 
#    0.000    0.455    0.000    0.545    0.000    0.000 
#    0.000    0.727    0.000    0.000    0.000    0.000 
#
# Total GULP energy -245383.276409 kJ/mol
# GULP energy per Si atom -5576.892646 kJ/mol
# Density = 1.730889 g / cm^3
# Si number density = 17.348377 Si / 1000 Ang^3
#
#
#
# Elastic Constant Matrix: (Units=GPa)
#
#
# Indices 1 2 3 4 5 6 
#
# 1 109.0998 21.8261 43.4466 0.0000 0.0000 0.0000
# 2 21.8261 27.0070 12.5897 0.0000 0.0000 0.0000
# 3 43.4466 12.5897 142.7089 0.0000 0.0000 0.0000
# 4 0.0000 0.0000 0.0000 20.6991 0.0000 0.0000
# 5 0.0000 0.0000 0.0000 0.0000 27.2730 0.0000
# 6 0.0000 0.0000 0.0000 0.0000 0.0000 19.9727
#
#
#
# Elastic Compliance Matrix: (Units=1/GPa)
#
#
# Indices 1 2 3 4 5 6 
#
# 1 0.011995 -0.008334 -0.002916 0.000000 0.000000 0.000000
# 2 -0.008334 0.044406 -0.001380 0.000000 0.000000 0.000000
# 3 -0.002916 -0.001380 0.008017 0.000000 0.000000 0.000000
# 4 0.000000 0.000000 0.000000 0.048311 0.000000 0.000000
# 5 0.000000 0.000000 0.000000 0.000000 0.036666 0.000000
# 6 0.000000 0.000000 0.000000 0.000000 0.000000 0.050068
#
#
# Mechanical properties :
#
#
# Convention : Reuss Voigt Hill
#
# Bulk Modulus (GPa) = 25.53878 48.28229 36.91053
# Shear Modulus (GPa) = 21.02809 26.98585 24.00697
#
# Velocity S-wave (km/s) = 3.48531 3.94829 3.72400
# Velocity P-wave (km/s) = 5.56324 6.97688 6.30977
#
# Compressibility (1/GPa) = 0.03915613
#
# Stress axis : x y z
#
# Youngs Moduli (GPa) = 83.37073 22.51942 124.73621
#
# Poissons Ratio (x) = 0.18768 0.36379
# Poissons Ratio (y) = 0.69482 0.17216
# Poissons Ratio (z) = 0.24315 0.03108
#
# Static dielectric constant tensor:
#      x y z
#    x 1.601370 0.000000 0.000000 
#    y 0.000000 1.580300 0.000000 
#    z 0.000000 0.000000 1.627570 
# 
# From -- ./inp_files/18199.got.cif
#   From: 2010.05.17/outbox.cif.g08.bks.cpg/sg69_10_cif.got.tgz:18199.got - 2010.06.03 19:29:58.
