data_PCOD9511949
_publ_section_title
;
Structure prediction by ZEFSAII (Michael W. Deem and Ramdas Pophale) SiO2 
 PCOD9511949
Probable space group: F M M M
;
_chemical_formula_sum "Si O2"
_cell_formula_units_Z 192
_cell_length_a 17.421467
_cell_length_b 28.410855
_cell_length_c 20.971281
_cell_angle_alpha 90.000000
_cell_angle_beta 90.000000
_cell_angle_gamma 90.000000
_cell_volume 10379.919508
_symmetry_space_group_name_H-M "F M M M"
_symmetry_group_IT_number 69
_symmetry_cell_setting 'orthorhombic'
loop_
_space_group_symop_operation_xyz
x,y,z
-x,-y,z
x,-y,-z
-x,y,-z
-x,-y,-z
x,y,-z
-x,y,z
x,-y,z
x,1/2+y,1/2+z
-x,1/2-y,1/2+z
x,1/2-y,1/2-z
-x,1/2+y,1/2-z
-x,1/2-y,1/2-z
x,1/2+y,1/2-z
-x,1/2+y,1/2+z
x,1/2-y,1/2+z
1/2+x,y,1/2+z
1/2-x,-y,1/2+z
1/2+x,-y,1/2-z
1/2-x,y,1/2-z
1/2-x,-y,1/2-z
1/2+x,y,1/2-z
1/2-x,y,1/2+z
1/2+x,-y,1/2+z
1/2+x,1/2+y,z
1/2-x,1/2-y,z
1/2+x,1/2-y,-z
1/2-x,1/2+y,-z
1/2-x,1/2-y,-z
1/2+x,1/2+y,-z
1/2-x,1/2+y,z
1/2+x,1/2-y,z
loop_
_atom_site_type_symbol
_atom_site_label
_atom_site_fract_x
_atom_site_fract_y
_atom_site_fract_z
Si Si1 0.415206 0.000000 0.831637
Si Si2 0.090176 0.325716 0.428687
Si Si3 0.587646 0.411814 0.237035
Si Si4 0.089392 0.244255 0.673065
Si Si5 0.809056 0.838384 0.305829
Si Si6 0.774985 0.000000 0.571931
Si Si7 0.804334 0.406696 0.619411
O O1 0.409849 0.954431 0.786694
O O2 0.346248 0.000000 0.880388
O O3 0.500000 0.000000 0.861959
O O4 0.101918 0.305032 0.500000
O O5 0.106042 0.290089 0.370043
O O6 0.143451 0.371140 0.420972
O O7 0.000000 0.338260 0.424029
O O8 0.500000 0.404042 0.216876
O O9 0.622155 0.365854 0.270566
O O10 0.642535 0.422935 0.178212
O O11 0.094954 0.250000 0.750000
O O12 0.151985 0.204552 0.657578
O O13 0.000000 0.231337 0.659682
O O14 0.750000 0.822850 0.250000
O O15 0.764221 0.875384 0.350217
O O16 0.726713 0.047372 0.584577
O O17 0.802889 0.000000 0.500000
#
# Coordination Sequence:
#
# PCOD9511949 Si02
#       7
#    16  32  32  32  32  16  32
#     4  10  21  38  61  86 115 153 198 245 295 355
#     4  10  22  41  61  83 117 160 201 241 296 365
#     4  10  19  34  59  90 120 151 189 242 304 357
#     4  10  20  36  59  85 116 154 198 245 295 353
#     4  10  20  32  55  89 121 151 185 242 297 352
#     4  12  25  42  60  81 119 163 201 241 299 356
#     4  11  22  37  60  88 119 152 193 246 294 361
#
# _framework density 18.497253000000001
#
# number of rings (size 3 to 8) (size 9 to 14) (size 15 to 20)
#    0.000    1.667    1.667    4.000    0.000    4.500 
#    0.000    3.750    0.000    3.000    0.000    0.000 
#    0.000    0.000    0.000    0.000    0.000    0.000 
#
# Total GULP energy -268044.619638 kJ/mol
# GULP energy per Si atom -5584.262909 kJ/mol
# Density = 1.845515 g / cm^3
# Si number density = 18.497253 Si / 1000 Ang^3
#
#
#
# Elastic Constant Matrix: (Units=GPa)
#
#
# Indices 1 2 3 4 5 6 
#
# 1 83.7176 56.3917 25.2564 0.0000 0.0000 0.0000
# 2 56.3917 91.7833 33.9486 0.0000 0.0000 0.0000
# 3 25.2564 33.9486 86.1049 0.0000 0.0000 0.0000
# 4 0.0000 0.0000 0.0000 18.2402 0.0000 0.0000
# 5 0.0000 0.0000 0.0000 0.0000 19.9977 0.0000
# 6 0.0000 0.0000 0.0000 0.0000 0.0000 35.3105
#
#
#
# Elastic Compliance Matrix: (Units=1/GPa)
#
#
# Indices 1 2 3 4 5 6 
#
# 1 0.020489 -0.012135 -0.001225 0.000000 0.000000 0.000000
# 2 -0.012135 0.019943 -0.004303 0.000000 0.000000 0.000000
# 3 -0.001225 -0.004303 0.013670 0.000000 0.000000 0.000000
# 4 0.000000 0.000000 0.000000 0.054824 0.000000 0.000000
# 5 0.000000 0.000000 0.000000 0.000000 0.050006 0.000000
# 6 0.000000 0.000000 0.000000 0.000000 0.000000 0.028320
#
#
# Mechanical properties :
#
#
# Convention : Reuss Voigt Hill
#
# Bulk Modulus (GPa) = 53.26554 54.75546 54.01050
# Shear Modulus (GPa) = 21.84968 24.44363 23.14666
#
# Velocity S-wave (km/s) = 3.44064 3.63915 3.54129
# Velocity P-wave (km/s) = 6.68154 6.87925 6.78112
#
# Compressibility (1/GPa) = 0.01877386
#
# Stress axis : x y z
#
# Youngs Moduli (GPa) = 48.80746 50.14357 73.15383
#
# Poissons Ratio (x) = 0.60850 0.08963
# Poissons Ratio (y) = 0.59228 0.31481
# Poissons Ratio (z) = 0.05980 0.21579
#
# Static dielectric constant tensor:
#      x y z
#    x 1.639840 0.000000 0.000000 
#    y 0.000000 1.649440 0.000000 
#    z 0.000000 0.000000 1.622200 
# 
# From -- ./inp_files/23742.got.cif
#   From: 2010.05.17/outbox.cif.g08.bks.cpg/sg69_12_cif.got.tgz:23742.got - 2010.06.03 19:29:58.
