data_PCOD9511410
_publ_section_title
;
Structure prediction by ZEFSAII (Michael W. Deem and Ramdas Pophale) SiO2 
 PCOD9511410
Probable space group: F M M M
;
_chemical_formula_sum "Si O2"
_cell_formula_units_Z 136
_cell_length_a 22.911014
_cell_length_b 18.264940
_cell_length_c 13.796114
_cell_angle_alpha 90.000000
_cell_angle_beta 90.000000
_cell_angle_gamma 90.000000
_cell_volume 5773.236318
_symmetry_space_group_name_H-M "F M M M"
_symmetry_group_IT_number 69
_symmetry_cell_setting 'orthorhombic'
loop_
_space_group_symop_operation_xyz
x,y,z
-x,-y,z
x,-y,-z
-x,y,-z
-x,-y,-z
x,y,-z
-x,y,z
x,-y,z
x,1/2+y,1/2+z
-x,1/2-y,1/2+z
x,1/2-y,1/2-z
-x,1/2+y,1/2-z
-x,1/2-y,1/2-z
x,1/2+y,1/2-z
-x,1/2+y,1/2+z
x,1/2-y,1/2+z
1/2+x,y,1/2+z
1/2-x,-y,1/2+z
1/2+x,-y,1/2-z
1/2-x,y,1/2-z
1/2-x,-y,1/2-z
1/2+x,y,1/2-z
1/2-x,y,1/2+z
1/2+x,-y,1/2+z
1/2+x,1/2+y,z
1/2-x,1/2-y,z
1/2+x,1/2-y,-z
1/2-x,1/2+y,-z
1/2-x,1/2-y,-z
1/2+x,1/2+y,-z
1/2-x,1/2+y,z
1/2+x,1/2-y,z
loop_
_atom_site_type_symbol
_atom_site_label
_atom_site_fract_x
_atom_site_fract_y
_atom_site_fract_z
Si Si1 0.155603 0.873102 0.383091
Si Si2 0.000000 0.833142 0.892118
Si Si3 0.785476 0.418383 0.381462
Si Si4 0.932571 0.000000 0.671370
Si Si5 0.125733 0.208304 0.880840
Si Si6 0.000000 0.000000 0.144890
O O1 0.157498 0.872224 0.500000
O O2 0.219062 0.901705 0.351462
O O3 0.144772 0.789599 0.352561
O O4 0.104148 0.928765 0.356379
O O5 0.060519 0.809281 0.845355
O O6 0.000000 0.920947 0.902306
O O7 0.000000 0.799815 0.000000
O O8 0.786038 0.418080 0.500000
O O9 0.802556 0.500000 0.350454
O O10 0.829641 0.355038 0.350357
O O11 0.943794 0.000000 0.785847
O O12 0.000000 0.000000 0.631999
O O13 0.125031 0.205717 0.000000
#
# Coordination Sequence:
#
# PCOD9511410 Si02
#       6
#    32  16  32  16  32   8
#     4  10  18  33  55  83 119 155 190 228 270 325
#     4  10  21  39  62  85 106 137 183 236 290 349
#     4   9  16  28  49  83 120 151 183 227 283 330
#     4  10  23  37  53  79 109 153 191 228 273 331
#     4   9  19  31  53  87 117 143 182 236 285 326
#     4  10  25  42  55  78 114 146 184 232 293 336
#
# _framework density 23.556977
#
# number of rings (size 3 to 8) (size 9 to 14) (size 15 to 20)
#    0.353    2.118    1.176    1.235    3.294    3.765 
#    0.000    2.353    0.000    2.824    0.000    3.294 
#    0.000    0.000    0.000    0.000    0.000    0.000 
#
# Total GULP energy -190251.628636 kJ/mol
# GULP energy per Si atom -5595.636136 kJ/mol
# Density = 2.350336 g / cm^3
# Si number density = 23.556977 Si / 1000 Ang^3
#
#
#
# Elastic Constant Matrix: (Units=GPa)
#
#
# Indices 1 2 3 4 5 6 
#
# 1 221.1180 134.3838 27.5245 0.0000 0.0000 0.0000
# 2 134.3838 243.5917 30.8541 0.0000 0.0000 0.0000
# 3 27.5245 30.8541 66.6608 0.0000 0.0000 0.0000
# 4 0.0000 0.0000 0.0000 30.2207 0.0000 0.0000
# 5 0.0000 0.0000 0.0000 0.0000 -18.7181 0.0000
# 6 0.0000 0.0000 0.0000 0.0000 0.0000 21.9129
#
#
#
# Elastic Compliance Matrix: (Units=1/GPa)
#
#
# Indices 1 2 3 4 5 6 
#
# 1 0.006886 -0.003653 -0.001153 0.000000 0.000000 0.000000
# 2 -0.003653 0.006299 -0.001407 0.000000 0.000000 0.000000
# 3 -0.001153 -0.001407 0.016128 0.000000 0.000000 0.000000
# 4 0.000000 0.000000 0.000000 0.033090 0.000000 0.000000
# 5 0.000000 0.000000 0.000000 0.000000 -0.053424 0.000000
# 6 0.000000 0.000000 0.000000 0.000000 0.000000 0.045635
#
#
# Mechanical properties :
#
#
# Convention : Reuss Voigt Hill
#
# Bulk Modulus (GPa) = 59.21290 101.87727 80.54509
# Shear Modulus (GPa) = 68.80599 29.25697 49.03148
#
# Velocity S-wave (km/s) = 5.41034 3.52798 4.56719
# Velocity P-wave (km/s) = 8.01371 7.74187 7.87896
#
# Compressibility (1/GPa) = 0.01688821
#
# Stress axis : x y z
#
# Youngs Moduli (GPa) = 145.22370 158.76466 62.00222
#
# Poissons Ratio (x) = 0.57994 0.07146
# Poissons Ratio (y) = 0.53048 0.08724
# Poissons Ratio (z) = 0.16737 0.22339
#
# Static dielectric constant tensor:
#      x y z
#    x 1.838150 0.000000 0.000000 
#    y 0.000000 1.811820 0.000000 
#    z 0.000000 0.000000 1.972490 
# 
# From -- ./inp_files/24241.got.cif
#   From: 2010.05.17/outbox.cif.g08.bks.cpg/sg69_13_cif.got.tgz:24241.got - 2010.06.03 19:29:58.
