data_PCOD9511974
_publ_section_title
;
Structure prediction by ZEFSAII (Michael W. Deem and Ramdas Pophale) SiO2 
 PCOD9511974
Probable space group: F M M M
;
_chemical_formula_sum "Si O2"
_cell_formula_units_Z 168
_cell_length_a 32.727128
_cell_length_b 19.299840
_cell_length_c 14.413206
_cell_angle_alpha 90.000000
_cell_angle_beta 90.000000
_cell_angle_gamma 90.000000
_cell_volume 9103.789294
_symmetry_space_group_name_H-M "F M M M"
_symmetry_group_IT_number 69
_symmetry_cell_setting 'orthorhombic'
loop_
_space_group_symop_operation_xyz
x,y,z
-x,-y,z
x,-y,-z
-x,y,-z
-x,-y,-z
x,y,-z
-x,y,z
x,-y,z
x,1/2+y,1/2+z
-x,1/2-y,1/2+z
x,1/2-y,1/2-z
-x,1/2+y,1/2-z
-x,1/2-y,1/2-z
x,1/2+y,1/2-z
-x,1/2+y,1/2+z
x,1/2-y,1/2+z
1/2+x,y,1/2+z
1/2-x,-y,1/2+z
1/2+x,-y,1/2-z
1/2-x,y,1/2-z
1/2-x,-y,1/2-z
1/2+x,y,1/2-z
1/2-x,y,1/2+z
1/2+x,-y,1/2+z
1/2+x,1/2+y,z
1/2-x,1/2-y,z
1/2+x,1/2-y,-z
1/2-x,1/2+y,-z
1/2-x,1/2-y,-z
1/2+x,1/2+y,-z
1/2-x,1/2+y,z
1/2+x,1/2-y,z
loop_
_atom_site_type_symbol
_atom_site_label
_atom_site_fract_x
_atom_site_fract_y
_atom_site_fract_z
Si Si1 0.810941 0.816181 0.897500
Si Si2 0.756026 0.580878 0.859826
Si Si3 0.951044 0.081183 0.107799
Si Si4 0.250000 0.250000 0.750000
Si Si5 0.609981 0.830595 0.272777
Si Si6 0.650659 0.583471 0.606909
O O1 0.782555 0.883828 0.905384
O O2 0.783593 0.773240 0.826554
O O3 0.853368 0.831870 0.847808
O O4 0.816313 0.785247 0.000000
O O5 0.755396 0.500000 0.878826
O O6 0.750000 0.593143 0.750000
O O7 0.801452 0.605169 0.885793
O O8 0.927547 0.129861 0.179312
O O9 0.000000 0.087869 0.116682
O O10 0.940675 0.000000 0.123751
O O11 0.940499 0.097221 0.000000
O O12 0.601627 0.750000 0.250000
O O13 0.625559 0.872126 0.181560
O O14 0.637556 0.593278 0.500000
O O15 0.648706 0.500000 0.627351
#
# Coordination Sequence:
#
# PCOD9511974 Si02
#       6
#    32  32  32   8  32  32
#     4  12  24  37  55  80 113 156 204 249 297 351
#     4  10  19  35  56  77 107 147 199 259 306 348
#     4   9  20  42  71  98 122 151 189 240 309 377
#     4  12  22  44  50  74 110 168 206 242 284 334
#     4  12  24  39  57  90 128 157 199 246 301 360
#     4  10  21  38  59  81 113 163 213 256 304 358
#
# _framework density 18.453855000000001
#
# number of rings (size 3 to 8) (size 9 to 14) (size 15 to 20)
#    0.000    1.333    3.810    2.571    0.000    3.810 
#    0.000    0.000    0.000    0.571    0.000    2.667 
#    0.000    0.000    0.000    0.000    0.000    0.000 
#
# Total GULP energy -234231.702309 kJ/mol
# GULP energy per Si atom -5576.945293 kJ/mol
# Density = 1.841185 g / cm^3
# Si number density = 18.453855 Si / 1000 Ang^3
#
#
#
# Elastic Constant Matrix: (Units=GPa)
#
#
# Indices 1 2 3 4 5 6 
#
# 1 71.7794 54.5275 43.2595 0.0000 0.0000 0.0000
# 2 54.5275 129.3146 31.4455 0.0000 0.0000 0.0000
# 3 43.2595 31.4455 194.4544 0.0000 0.0000 0.0000
# 4 0.0000 0.0000 0.0000 19.4037 0.0000 0.0000
# 5 0.0000 0.0000 0.0000 0.0000 -9.6717 0.0000
# 6 0.0000 0.0000 0.0000 0.0000 0.0000 31.4278
#
#
#
# Elastic Compliance Matrix: (Units=1/GPa)
#
#
# Indices 1 2 3 4 5 6 
#
# 1 0.022743 -0.008702 -0.003652 0.000000 0.000000 0.000000
# 2 -0.008702 0.011379 0.000096 0.000000 0.000000 0.000000
# 3 -0.003652 0.000096 0.005940 0.000000 0.000000 0.000000
# 4 0.000000 0.000000 0.000000 0.051537 0.000000 0.000000
# 5 0.000000 0.000000 0.000000 0.000000 -0.103395 0.000000
# 6 0.000000 0.000000 0.000000 0.000000 0.000000 0.031819
#
#
# Mechanical properties :
#
#
# Convention : Reuss Voigt Hill
#
# Bulk Modulus (GPa) = 64.32990 72.66815 68.49902
# Shear Modulus (GPa) = 100.55984 25.98633 63.27309
#
# Velocity S-wave (km/s) = 7.38992 3.75664 5.86188
# Velocity P-wave (km/s) = 10.38027 7.63415 9.11127
#
# Compressibility (1/GPa) = 0.01554487
#
# Stress axis : x y z
#
# Youngs Moduli (GPa) = 43.96917 87.88053 168.36016
#
# Poissons Ratio (x) = 0.76473 0.61492
# Poissons Ratio (y) = 0.38261 -0.01612
# Poissons Ratio (z) = 0.16059 -0.00841
#
# Static dielectric constant tensor:
#      x y z
#    x 1.601700 0.000000 0.000000 
#    y 0.000000 1.678270 0.000000 
#    z 0.000000 0.000000 1.653550 
# 
# From -- ./inp_files/18821.got.cif
#   From: 2010.05.17/outbox.cif.g08.bks.cpg/sg69_10_cif.got.tgz:18821.got - 2010.06.03 19:29:58.
