data_PCOD9511343
_publ_section_title
;
Structure prediction by ZEFSAII (Michael W. Deem and Ramdas Pophale) SiO2 
 PCOD9511343
Probable space group: F M M M
;
_chemical_formula_sum "Si O2"
_cell_formula_units_Z 144
_cell_length_a 29.011754
_cell_length_b 8.570573
_cell_length_c 31.997459
_cell_angle_alpha 90.000000
_cell_angle_beta 90.000000
_cell_angle_gamma 90.000000
_cell_volume 7956.083564
_symmetry_space_group_name_H-M "F M M M"
_symmetry_group_IT_number 69
_symmetry_cell_setting 'orthorhombic'
loop_
_space_group_symop_operation_xyz
x,y,z
-x,-y,z
x,-y,-z
-x,y,-z
-x,-y,-z
x,y,-z
-x,y,z
x,-y,z
x,1/2+y,1/2+z
-x,1/2-y,1/2+z
x,1/2-y,1/2-z
-x,1/2+y,1/2-z
-x,1/2-y,1/2-z
x,1/2+y,1/2-z
-x,1/2+y,1/2+z
x,1/2-y,1/2+z
1/2+x,y,1/2+z
1/2-x,-y,1/2+z
1/2+x,-y,1/2-z
1/2-x,y,1/2-z
1/2-x,-y,1/2-z
1/2+x,y,1/2-z
1/2-x,y,1/2+z
1/2+x,-y,1/2+z
1/2+x,1/2+y,z
1/2-x,1/2-y,z
1/2+x,1/2-y,-z
1/2-x,1/2+y,-z
1/2-x,1/2-y,-z
1/2+x,1/2+y,-z
1/2-x,1/2+y,z
1/2+x,1/2-y,z
loop_
_atom_site_type_symbol
_atom_site_label
_atom_site_fract_x
_atom_site_fract_y
_atom_site_fract_z
Si Si1 0.553641 0.313005 0.796051
Si Si2 0.801739 0.185321 0.087911
Si Si3 0.802356 0.313861 0.000000
Si Si4 0.053917 0.189740 0.546458
Si Si5 0.611842 0.812673 0.127090
O O1 0.500000 0.270551 0.804245
O O2 0.557257 0.500000 0.796471
O O3 0.565288 0.250000 0.750000
O O4 0.585576 0.240963 0.831598
O O5 0.750000 0.250000 0.093794
O O6 0.837281 0.241755 0.122768
O O7 0.799410 0.000000 0.085190
O O8 0.821098 0.252369 0.043817
O O9 0.750000 0.250000 0.000000
O O10 0.803386 0.500000 0.000000
O O11 0.069598 0.241110 0.500000
O O12 0.082735 0.242769 0.586401
O O13 0.000000 0.232283 0.550965
O O14 0.055980 0.000000 0.546327
O O15 0.614653 0.000000 0.125845
#
# Coordination Sequence:
#
# PCOD9511343 Si02
#       5
#    32  32  16  32  32
#     4  10  21  38  60  86 116 148 185 233 286 338
#     4  11  22  37  54  77 109 147 190 239 288 335
#     4  10  18  32  52  74 101 138 185 234 284 332
#     4   8  15  28  46  72 107 145 184 223 262 315
#     4  11  21  33  55  84 112 148 189 232 282 339
#
# _framework density 18.099357999999999
#
# number of rings (size 3 to 8) (size 9 to 14) (size 15 to 20)
#    0.000    2.000    0.000    7.000    1.556    2.222 
#    0.000    0.000    0.000    0.667    0.000    9.333 
#    0.000    0.000    0.000    0.000    0.000    0.000 
#
# Total GULP energy -201030.847240 kJ/mol
# GULP energy per Si atom -5584.190201 kJ/mol
# Density = 1.805816 g / cm^3
# Si number density = 18.099358 Si / 1000 Ang^3
#
#
#
# Elastic Constant Matrix: (Units=GPa)
#
#
# Indices 1 2 3 4 5 6 
#
# 1 103.9521 43.2274 84.6585 0.0000 0.0000 0.0001
# 2 43.2274 105.0293 48.8700 0.0000 -0.0001 0.0000
# 3 84.6585 48.8700 123.8130 0.0000 0.0000 -0.0001
# 4 0.0000 0.0000 0.0000 27.5253 0.0000 0.0000
# 5 0.0000 -0.0001 0.0000 0.0000 25.1548 0.0000
# 6 0.0001 0.0000 -0.0001 0.0000 0.0000 21.3770
#
#
#
# Elastic Compliance Matrix: (Units=1/GPa)
#
#
# Indices 1 2 3 4 5 6 
#
# 1 0.022250 -0.002546 -0.014209 0.000000 0.000000 0.000000
# 2 -0.002546 0.011955 -0.002977 0.000000 0.000000 0.000000
# 3 -0.014209 -0.002977 0.018967 0.000000 0.000000 0.000000
# 4 0.000000 0.000000 0.000000 0.036330 0.000000 0.000000
# 5 0.000000 0.000000 0.000000 0.000000 0.039754 0.000000
# 6 0.000000 0.000000 0.000000 0.000000 0.000000 0.046779
#
#
# Mechanical properties :
#
#
# Convention : Reuss Voigt Hill
#
# Bulk Modulus (GPa) = 72.95556 76.25624 74.60590
# Shear Modulus (GPa) = 22.72002 25.21398 23.96700
#
# Velocity S-wave (km/s) = 3.54686 3.73646 3.64289
# Velocity P-wave (km/s) = 7.56105 7.79989 7.68140
#
# Compressibility (1/GPa) = 0.01370698
#
# Stress axis : x y z
#
# Youngs Moduli (GPa) = 44.94296 83.64997 52.72187
#
# Poissons Ratio (x) = 0.21300 0.74912
# Poissons Ratio (y) = 0.11444 0.15698
# Poissons Ratio (z) = 0.63859 0.24907
#
# Static dielectric constant tensor:
#      x y z
#    x 1.627760 0.000000 0.000000 
#    y 0.000000 1.618770 0.000000 
#    z 0.000000 0.000000 1.623830 
# 
# From -- ./inp_files/47399.got.cif
#   From: 2010.05.17/outbox.cif.g08.bks.cpg/sg69_24_cif.got.tgz:47399.got - 2010.06.03 19:29:58.
