data_PCOD9511804
_publ_section_title
;
Structure prediction by ZEFSAII (Michael W. Deem and Ramdas Pophale) SiO2 
 PCOD9511804
Probable space group: F M M M
;
_chemical_formula_sum "Si O2"
_cell_formula_units_Z 144
_cell_length_a 19.603084
_cell_length_b 20.231193
_cell_length_c 19.290281
_cell_angle_alpha 90.000000
_cell_angle_beta 90.000000
_cell_angle_gamma 90.000000
_cell_volume 7650.405378
_symmetry_space_group_name_H-M "F M M M"
_symmetry_group_IT_number 69
_symmetry_cell_setting 'orthorhombic'
loop_
_space_group_symop_operation_xyz
x,y,z
-x,-y,z
x,-y,-z
-x,y,-z
-x,-y,-z
x,y,-z
-x,y,z
x,-y,z
x,1/2+y,1/2+z
-x,1/2-y,1/2+z
x,1/2-y,1/2-z
-x,1/2+y,1/2-z
-x,1/2-y,1/2-z
x,1/2+y,1/2-z
-x,1/2+y,1/2+z
x,1/2-y,1/2+z
1/2+x,y,1/2+z
1/2-x,-y,1/2+z
1/2+x,-y,1/2-z
1/2-x,y,1/2-z
1/2-x,-y,1/2-z
1/2+x,y,1/2-z
1/2-x,y,1/2+z
1/2+x,-y,1/2+z
1/2+x,1/2+y,z
1/2-x,1/2-y,z
1/2+x,1/2-y,-z
1/2-x,1/2+y,-z
1/2-x,1/2-y,-z
1/2+x,1/2+y,-z
1/2-x,1/2+y,z
1/2+x,1/2-y,z
loop_
_atom_site_type_symbol
_atom_site_label
_atom_site_fract_x
_atom_site_fract_y
_atom_site_fract_z
Si Si1 0.582251 0.500000 0.922049
Si Si2 0.697331 0.809021 0.418287
Si Si3 0.419456 0.634748 0.160160
Si Si4 0.196770 0.423237 0.919058
Si Si5 0.421642 0.921353 0.810689
O O1 0.500000 0.500000 0.927572
O O2 0.597895 0.566871 0.881031
O O3 0.611618 0.500000 0.000000
O O4 0.678729 0.807160 0.500000
O O5 0.750000 0.750000 0.404751
O O6 0.630241 0.810461 0.371377
O O7 0.740498 0.875356 0.404537
O O8 0.500000 0.648496 0.149911
O O9 0.408305 0.619670 0.241011
O O10 0.215310 0.500000 0.908212
O O11 0.132933 0.407387 0.870085
O O12 0.178264 0.414759 0.000000
O O13 0.500000 0.909471 0.832638
O O14 0.416926 0.000000 0.793523
#
# Coordination Sequence:
#
# PCOD9511804 Si02
#       5
#    16  32  32  32  32
#     4   9  16  26  46  79 111 137 170 213 263 321
#     4  10  22  39  56  77 112 151 186 229 281 334
#     4  10  19  33  54  83 114 144 180 223 278 341
#     4   9  19  35  56  81 106 142 194 238 276 329
#     4   9  17  32  54  82 116 146 177 230 290 334
#
# _framework density 18.822533
#
# number of rings (size 3 to 8) (size 9 to 14) (size 15 to 20)
#    0.000    2.556    1.111    0.667    1.556    2.667 
#    0.000    7.778    0.000    6.667    0.000    0.000 
#    0.000    0.000    0.000    0.000    0.000    0.000 
#
# Total GULP energy -200898.322441 kJ/mol
# GULP energy per Si atom -5580.508957 kJ/mol
# Density = 1.877969 g / cm^3
# Si number density = 18.822533 Si / 1000 Ang^3
#
#
#
# Elastic Constant Matrix: (Units=GPa)
#
#
# Indices 1 2 3 4 5 6 
#
# 1 119.6776 51.7870 71.5318 0.0000 0.0000 0.0000
# 2 51.7870 32.6449 33.6749 0.0000 0.0000 0.0000
# 3 71.5318 33.6749 68.3125 0.0000 0.0000 0.0000
# 4 0.0000 0.0000 0.0000 16.8525 0.0000 0.0000
# 5 0.0000 0.0000 0.0000 0.0000 32.5645 0.0000
# 6 0.0000 0.0000 0.0000 0.0000 0.0000 23.3026
#
#
#
# Elastic Compliance Matrix: (Units=1/GPa)
#
#
# Indices 1 2 3 4 5 6 
#
# 1 0.036030 -0.037108 -0.019435 0.000000 0.000000 0.000000
# 2 -0.037108 0.100545 -0.010707 0.000000 0.000000 0.000000
# 3 -0.019435 -0.010707 0.040267 0.000000 0.000000 0.000000
# 4 0.000000 0.000000 0.000000 0.059338 0.000000 0.000000
# 5 0.000000 0.000000 0.000000 0.000000 0.030708 0.000000
# 6 0.000000 0.000000 0.000000 0.000000 0.000000 0.042914
#
#
# Mechanical properties :
#
#
# Convention : Reuss Voigt Hill
#
# Bulk Modulus (GPa) = 23.61734 59.40249 41.50991
# Shear Modulus (GPa) = 10.90711 18.78667 14.84689
#
# Velocity S-wave (km/s) = 2.40983 3.16269 2.81157
# Velocity P-wave (km/s) = 4.50751 6.70556 5.71324
#
# Compressibility (1/GPa) = 0.04234177
#
# Stress axis : x y z
#
# Youngs Moduli (GPa) = 27.75485 9.94581 24.83397
#
# Poissons Ratio (x) = 0.36907 0.48265
# Poissons Ratio (y) = 1.02994 0.26589
# Poissons Ratio (z) = 0.53942 0.10649
#
# Static dielectric constant tensor:
#      x y z
#    x 1.639280 0.000000 0.000000 
#    y 0.000000 1.676980 0.000000 
#    z 0.000000 0.000000 1.633760 
# 
# From -- ./inp_files/22839.got.cif
#   From: 2010.05.17/outbox.cif.g08.bks.cpg/sg69_12_cif.got.tgz:22839.got - 2010.06.03 19:29:58.
