data_PCOD9511211
_publ_section_title
;
Structure prediction by ZEFSAII (Michael W. Deem and Ramdas Pophale) SiO2 
 PCOD9511211
Probable space group: F M M M
;
_chemical_formula_sum "Si O2"
_cell_formula_units_Z 144
_cell_length_a 15.088505
_cell_length_b 14.293388
_cell_length_c 30.129531
_cell_angle_alpha 90.000000
_cell_angle_beta 90.000000
_cell_angle_gamma 90.000000
_cell_volume 6497.911103
_symmetry_space_group_name_H-M "F M M M"
_symmetry_group_IT_number 69
_symmetry_cell_setting 'orthorhombic'
loop_
_space_group_symop_operation_xyz
x,y,z
-x,-y,z
x,-y,-z
-x,y,-z
-x,-y,-z
x,y,-z
-x,y,z
x,-y,z
x,1/2+y,1/2+z
-x,1/2-y,1/2+z
x,1/2-y,1/2-z
-x,1/2+y,1/2-z
-x,1/2-y,1/2-z
x,1/2+y,1/2-z
-x,1/2+y,1/2+z
x,1/2-y,1/2+z
1/2+x,y,1/2+z
1/2-x,-y,1/2+z
1/2+x,-y,1/2-z
1/2-x,y,1/2-z
1/2-x,-y,1/2-z
1/2+x,y,1/2-z
1/2-x,y,1/2+z
1/2+x,-y,1/2+z
1/2+x,1/2+y,z
1/2-x,1/2-y,z
1/2+x,1/2-y,-z
1/2-x,1/2+y,-z
1/2-x,1/2-y,-z
1/2+x,1/2+y,-z
1/2-x,1/2+y,z
1/2+x,1/2-y,z
loop_
_atom_site_type_symbol
_atom_site_label
_atom_site_fract_x
_atom_site_fract_y
_atom_site_fract_z
Si Si1 0.781297 0.611125 0.582415
Si Si2 0.905117 0.613470 0.947311
Si Si3 0.600653 0.385499 0.000000
Si Si4 0.762353 0.360728 0.316485
Si Si5 0.602411 0.637225 0.259073
O O1 0.776258 0.500000 0.573469
O O2 0.682776 0.651048 0.575258
O O3 0.848361 0.645334 0.544554
O O4 0.797673 0.620980 0.634367
O O5 0.906476 0.500000 0.942099
O O6 0.000000 0.649327 0.930819
O O7 0.898486 0.630163 0.000000
O O8 0.598171 0.500000 0.000000
O O9 0.500000 0.352051 0.000000
O O10 0.750000 0.250000 0.311756
O O11 0.662874 0.391239 0.301683
O O12 0.836178 0.395095 0.281923
O O13 0.500000 0.606668 0.261024
O O14 0.598730 0.750000 0.250000
#
# Coordination Sequence:
#
# PCOD9511211 Si02
#       5
#    32  32  16  32  32
#     4  10  18  30  48  70  95 124 158 195 233 271
#     4   8  13  23  41  63  86 115 151 185 217 260
#     4   9  18  32  48  65  89 127 170 199 223 271
#     4   9  18  31  49  74  94 118 156 194 234 278
#     4   8  15  31  52  69  91 124 158 188 225 284
#
# _framework density 22.160968
#
# number of rings (size 3 to 8) (size 9 to 14) (size 15 to 20)
#    0.000    3.222    1.111    2.000    0.000    1.778 
#    0.000    2.778    0.000    1.333    0.000    0.000 
#    0.000    0.000    0.000    0.000    0.000    0.000 
#
# Total GULP energy -200642.512888 kJ/mol
# GULP energy per Si atom -5573.403136 kJ/mol
# Density = 2.211053 g / cm^3
# Si number density = 22.160968 Si / 1000 Ang^3
#
#
#
# Elastic Constant Matrix: (Units=GPa)
#
#
# Indices 1 2 3 4 5 6 
#
# 1 197.0197 3.0220 91.5013 0.0000 0.0000 0.0000
# 2 3.0220 78.1761 -5.9358 0.0000 0.0000 0.0000
# 3 91.5013 -5.9358 132.3032 0.0000 0.0000 0.0000
# 4 0.0000 0.0000 0.0000 23.3129 0.0000 0.0000
# 5 0.0000 0.0000 0.0000 0.0000 11.8015 0.0000
# 6 0.0000 0.0000 0.0000 0.0000 0.0000 -7.1539
#
#
#
# Elastic Compliance Matrix: (Units=1/GPa)
#
#
# Indices 1 2 3 4 5 6 
#
# 1 0.007514 -0.000687 -0.005228 0.000000 0.000000 0.000000
# 2 -0.000687 0.012898 0.001054 0.000000 0.000000 0.000000
# 3 -0.005228 0.001054 0.011221 0.000000 0.000000 0.000000
# 4 0.000000 0.000000 0.000000 0.042895 0.000000 0.000000
# 5 0.000000 0.000000 0.000000 0.000000 0.084735 0.000000
# 6 0.000000 0.000000 0.000000 0.000000 0.000000 -0.139785
#
#
# Mechanical properties :
#
#
# Convention : Reuss Voigt Hill
#
# Bulk Modulus (GPa) = 45.63790 64.96379 55.30084
# Shear Modulus (GPa) = 136.97037 26.85286 81.91161
#
# Velocity S-wave (km/s) = 7.87027 3.48475 6.08624
# Velocity P-wave (km/s) = 10.16006 6.75052 8.62544
#
# Compressibility (1/GPa) = 0.02191161
#
# Stress axis : x y z
#
# Youngs Moduli (GPa) = 133.08510 77.52997 89.11807
#
# Poissons Ratio (x) = 0.05329 0.46587
# Poissons Ratio (y) = 0.09148 -0.09394
# Poissons Ratio (z) = 0.69571 -0.08172
#
# Static dielectric constant tensor:
#      x y z
#    x 1.818840 0.000000 0.000000 
#    y 0.000000 1.883860 0.000000 
#    z 0.000000 0.000000 1.819280 
# 
# From -- ./inp_files/45631.got.cif
#   From: 2010.05.17/outbox.cif.g08.bks.cpg/sg69_23_cif.got.tgz:45631.got - 2010.06.03 19:29:58.
