data_PCOD9511689
_publ_section_title
;
Structure prediction by ZEFSAII (Michael W. Deem and Ramdas Pophale) SiO2 
 PCOD9511689
Probable space group: F M M M
;
_chemical_formula_sum "Si O2"
_cell_formula_units_Z 144
_cell_length_a 20.753528
_cell_length_b 18.326880
_cell_length_c 19.980517
_cell_angle_alpha 90.000000
_cell_angle_beta 90.000000
_cell_angle_gamma 90.000000
_cell_volume 7599.538036
_symmetry_space_group_name_H-M "F M M M"
_symmetry_group_IT_number 69
_symmetry_cell_setting 'orthorhombic'
loop_
_space_group_symop_operation_xyz
x,y,z
-x,-y,z
x,-y,-z
-x,y,-z
-x,-y,-z
x,y,-z
-x,y,z
x,-y,z
x,1/2+y,1/2+z
-x,1/2-y,1/2+z
x,1/2-y,1/2-z
-x,1/2+y,1/2-z
-x,1/2-y,1/2-z
x,1/2+y,1/2-z
-x,1/2+y,1/2+z
x,1/2-y,1/2+z
1/2+x,y,1/2+z
1/2-x,-y,1/2+z
1/2+x,-y,1/2-z
1/2-x,y,1/2-z
1/2-x,-y,1/2-z
1/2+x,y,1/2-z
1/2-x,y,1/2+z
1/2+x,-y,1/2+z
1/2+x,1/2+y,z
1/2-x,1/2-y,z
1/2+x,1/2-y,-z
1/2-x,1/2+y,-z
1/2-x,1/2-y,-z
1/2+x,1/2+y,-z
1/2-x,1/2+y,z
1/2+x,1/2-y,z
loop_
_atom_site_type_symbol
_atom_site_label
_atom_site_fract_x
_atom_site_fract_y
_atom_site_fract_z
Si Si1 0.424082 0.265611 0.328071
Si Si2 0.298788 0.414497 0.807111
Si Si3 0.070070 0.500000 0.579092
Si Si4 0.574281 0.417353 0.281608
Si Si5 0.853070 0.651618 0.579250
O O1 0.500000 0.248671 0.333233
O O2 0.405354 0.250000 0.250000
O O3 0.415183 0.352620 0.334224
O O4 0.388070 0.218097 0.383357
O O5 0.285973 0.500000 0.820967
O O6 0.250000 0.389754 0.750000
O O7 0.370326 0.409844 0.774260
O O8 0.292202 0.367145 0.873992
O O9 0.061630 0.500000 0.500000
O O10 0.106873 0.424124 0.590013
O O11 0.000000 0.500000 0.612939
O O12 0.500000 0.407741 0.256735
O O13 0.579429 0.500000 0.307561
O O14 0.843883 0.662224 0.500000
#
# Coordination Sequence:
#
# PCOD9511689 Si02
#       5
#    32  32  16  32  32
#     4  10  19  32  52  82 119 157 197 240 287 341
#     4  10  20  35  56  85 117 155 198 240 286 348
#     4   9  18  30  47  78 122 158 177 204 264 351
#     4   9  18  34  57  82 108 147 203 253 289 337
#     4  11  21  34  53  83 118 153 188 230 297 366
#
# _framework density 18.948519999999998
#
# number of rings (size 3 to 8) (size 9 to 14) (size 15 to 20)
#    0.000    2.111    3.333    0.667    0.000    2.222 
#    0.000    2.222    0.000    3.333    0.000    6.222 
#    0.000    0.000    0.000    0.000    0.000    0.000 
#
# Total GULP energy -200461.907239 kJ/mol
# GULP energy per Si atom -5568.386312 kJ/mol
# Density = 1.890539 g / cm^3
# Si number density = 18.948520 Si / 1000 Ang^3
#
#
#
# Elastic Constant Matrix: (Units=GPa)
#
#
# Indices 1 2 3 4 5 6 
#
# 1 41.9445 14.7373 49.2340 0.0000 0.0000 0.0000
# 2 14.7373 122.6192 69.6143 0.0000 0.0000 0.0000
# 3 49.2340 69.6143 163.7283 0.0000 0.0000 0.0000
# 4 0.0000 0.0000 0.0000 32.9250 0.0000 0.0000
# 5 0.0000 0.0000 0.0000 0.0000 17.5246 0.0000
# 6 0.0000 0.0000 0.0000 0.0000 0.0000 17.9163
#
#
#
# Elastic Compliance Matrix: (Units=1/GPa)
#
#
# Indices 1 2 3 4 5 6 
#
# 1 0.037416 0.002492 -0.012311 0.000000 0.000000 0.000000
# 2 0.002492 0.010916 -0.005391 0.000000 0.000000 0.000000
# 3 -0.012311 -0.005391 0.012102 0.000000 0.000000 0.000000
# 4 0.000000 0.000000 0.000000 0.030372 0.000000 0.000000
# 5 0.000000 0.000000 0.000000 0.000000 0.057063 0.000000
# 6 0.000000 0.000000 0.000000 0.000000 0.000000 0.055815
#
#
# Mechanical properties :
#
#
# Convention : Reuss Voigt Hill
#
# Bulk Modulus (GPa) = 33.31681 66.16258 49.73970
# Shear Modulus (GPa) = 20.48281 26.65358 23.56819
#
# Velocity S-wave (km/s) = 3.29138 3.75458 3.53058
# Velocity P-wave (km/s) = 5.66262 7.33407 6.55186
#
# Compressibility (1/GPa) = 0.03001488
#
# Stress axis : x y z
#
# Youngs Moduli (GPa) = 26.72688 91.60584 82.63324
#
# Poissons Ratio (x) = -0.22830 1.01727
# Poissons Ratio (y) = -0.06661 0.44546
# Poissons Ratio (z) = 0.32903 0.49383
#
# Static dielectric constant tensor:
#      x y z
#    x 1.796970 0.000000 0.000000 
#    y 0.000000 1.725840 0.000000 
#    z 0.000000 0.000000 1.660690 
# 
# From -- ./inp_files/32588.got.cif
#   From: 2010.05.17/outbox.cif.g08.bks.cpg/sg69_17_cif.got.tgz:32588.got - 2010.06.03 19:29:58.
