data_PCOD9511649
_publ_section_title
;
Structure prediction by ZEFSAII (Michael W. Deem and Ramdas Pophale) SiO2 
 PCOD9511649
Probable space group: F M M M
;
_chemical_formula_sum "Si O2"
_cell_formula_units_Z 160
_cell_length_a 14.693118
_cell_length_b 23.122356
_cell_length_c 27.232548
_cell_angle_alpha 90.000000
_cell_angle_beta 90.000000
_cell_angle_gamma 90.000000
_cell_volume 9251.972381
_symmetry_space_group_name_H-M "F M M M"
_symmetry_group_IT_number 69
_symmetry_cell_setting 'orthorhombic'
loop_
_space_group_symop_operation_xyz
x,y,z
-x,-y,z
x,-y,-z
-x,y,-z
-x,-y,-z
x,y,-z
-x,y,z
x,-y,z
x,1/2+y,1/2+z
-x,1/2-y,1/2+z
x,1/2-y,1/2-z
-x,1/2+y,1/2-z
-x,1/2-y,1/2-z
x,1/2+y,1/2-z
-x,1/2+y,1/2+z
x,1/2-y,1/2+z
1/2+x,y,1/2+z
1/2-x,-y,1/2+z
1/2+x,-y,1/2-z
1/2-x,y,1/2-z
1/2-x,-y,1/2-z
1/2+x,y,1/2-z
1/2-x,y,1/2+z
1/2+x,-y,1/2+z
1/2+x,1/2+y,z
1/2-x,1/2-y,z
1/2+x,1/2-y,-z
1/2-x,1/2+y,-z
1/2-x,1/2-y,-z
1/2+x,1/2+y,-z
1/2-x,1/2+y,z
1/2+x,1/2-y,z
loop_
_atom_site_type_symbol
_atom_site_label
_atom_site_fract_x
_atom_site_fract_y
_atom_site_fract_z
Si Si1 0.605271 0.732774 0.805234
Si Si2 0.105056 0.565205 0.264609
Si Si3 0.609387 0.066936 0.444063
Si Si4 0.601021 0.363259 0.665432
Si Si5 0.700560 0.876263 0.646967
O O1 0.500000 0.710540 0.802306
O O2 0.633986 0.750000 0.750000
O O3 0.602494 0.793857 0.832773
O O4 0.669011 0.685876 0.831159
O O5 0.122032 0.500000 0.246453
O O6 0.112856 0.610951 0.220533
O O7 0.169665 0.580600 0.309585
O O8 0.000000 0.567510 0.282074
O O9 0.636954 0.081161 0.500000
O O10 0.500000 0.069352 0.442166
O O11 0.649103 0.108001 0.402652
O O12 0.635543 0.000000 0.434148
O O13 0.500000 0.382122 0.648783
O O14 0.692015 0.381408 0.638012
#
# Coordination Sequence:
#
# PCOD9511649 Si02
#       5
#    32  32  32  32  32
#     4  10  19  32  50  74 106 138 174 216 258 310
#     4  10  20  32  46  70 103 135 170 212 257 308
#     4   9  19  36  57  83 111 132 161 217 278 320
#     4  10  22  35  45  67 107 144 174 213 252 297
#     4  12  20  30  55  78  98 136 181 212 256 318
#
# _framework density 17.293610000000001
#
# number of rings (size 3 to 8) (size 9 to 14) (size 15 to 20)
#    0.000    1.800    2.000    4.200    0.000    4.800 
#    0.000    0.000    0.000    3.000    0.000    4.200 
#    0.000    0.000    0.000    0.000    0.000    0.000 
#
# Total GULP energy -223194.658135 kJ/mol
# GULP energy per Si atom -5579.866453 kJ/mol
# Density = 1.725425 g / cm^3
# Si number density = 17.293610 Si / 1000 Ang^3
#
#
#
# Elastic Constant Matrix: (Units=GPa)
#
#
# Indices 1 2 3 4 5 6 
#
# 1 92.7673 22.9164 32.3947 0.0000 0.0000 0.0000
# 2 22.9164 76.0971 33.1023 0.0000 0.0000 0.0000
# 3 32.3947 33.1023 60.7583 0.0000 0.0000 0.0000
# 4 0.0000 0.0000 0.0000 20.2435 0.0000 0.0000
# 5 0.0000 0.0000 0.0000 0.0000 10.4587 0.0000
# 6 0.0000 0.0000 0.0000 0.0000 0.0000 1.1742
#
#
#
# Elastic Compliance Matrix: (Units=1/GPa)
#
#
# Indices 1 2 3 4 5 6 
#
# 1 0.013330 -0.001209 -0.006448 0.000000 0.000000 0.000000
# 2 -0.001209 0.017333 -0.008798 0.000000 0.000000 0.000000
# 3 -0.006448 -0.008798 0.024690 0.000000 0.000000 0.000000
# 4 0.000000 0.000000 0.000000 0.049399 0.000000 0.000000
# 5 0.000000 0.000000 0.000000 0.000000 0.095614 0.000000
# 6 0.000000 0.000000 0.000000 0.000000 0.000000 0.851611
#
#
# Mechanical properties :
#
#
# Convention : Reuss Voigt Hill
#
# Bulk Modulus (GPa) = 44.56151 45.16106 44.86128
# Shear Modulus (GPa) = 4.57721 15.78924 10.18323
#
# Velocity S-wave (km/s) = 1.62865 3.02488 2.42924
# Velocity P-wave (km/s) = 5.41851 6.19442 5.81941
#
# Compressibility (1/GPa) = 0.02244089
#
# Stress axis : x y z
#
# Youngs Moduli (GPa) = 75.01747 57.69490 40.50165
#
# Poissons Ratio (x) = 0.06977 0.26117
# Poissons Ratio (y) = 0.09072 0.35635
# Poissons Ratio (z) = 0.48375 0.50762
#
# Static dielectric constant tensor:
#      x y z
#    x 1.642900 0.000000 0.000000 
#    y 0.000000 1.607530 0.000000 
#    z 0.000000 0.000000 1.539700 
# 
# From -- ./inp_files/17681.got.cif
#   From: 2010.05.17/outbox.cif.g08.bks.cpg/sg69_9_cif.got.tgz:17681.got - 2010.06.03 19:29:58.
