data_PCOD9511779
_publ_section_title
;
Structure prediction by ZEFSAII (Michael W. Deem and Ramdas Pophale) SiO2 
 PCOD9511779
Probable space group: F M M M
;
_chemical_formula_sum "Si O2"
_cell_formula_units_Z 144
_cell_length_a 25.392203
_cell_length_b 14.581254
_cell_length_c 20.736734
_cell_angle_alpha 90.000000
_cell_angle_beta 90.000000
_cell_angle_gamma 90.000000
_cell_volume 7677.779114
_symmetry_space_group_name_H-M "F M M M"
_symmetry_group_IT_number 69
_symmetry_cell_setting 'orthorhombic'
loop_
_space_group_symop_operation_xyz
x,y,z
-x,-y,z
x,-y,-z
-x,y,-z
-x,-y,-z
x,y,-z
-x,y,z
x,-y,z
x,1/2+y,1/2+z
-x,1/2-y,1/2+z
x,1/2-y,1/2-z
-x,1/2+y,1/2-z
-x,1/2-y,1/2-z
x,1/2+y,1/2-z
-x,1/2+y,1/2+z
x,1/2-y,1/2+z
1/2+x,y,1/2+z
1/2-x,-y,1/2+z
1/2+x,-y,1/2-z
1/2-x,y,1/2-z
1/2-x,-y,1/2-z
1/2+x,y,1/2-z
1/2-x,y,1/2+z
1/2+x,-y,1/2+z
1/2+x,1/2+y,z
1/2-x,1/2-y,z
1/2+x,1/2-y,-z
1/2-x,1/2+y,-z
1/2-x,1/2-y,-z
1/2+x,1/2+y,-z
1/2-x,1/2+y,z
1/2+x,1/2-y,z
loop_
_atom_site_type_symbol
_atom_site_label
_atom_site_fract_x
_atom_site_fract_y
_atom_site_fract_z
Si Si1 0.787994 0.000000 0.078595
Si Si2 0.143793 0.250000 0.750000
Si Si3 0.441326 0.110861 0.200804
Si Si4 0.307436 0.205562 0.385778
Si Si5 0.171459 0.500000 0.076291
Si Si6 0.100182 0.673488 0.927246
O O1 0.808816 0.903093 0.103337
O O2 0.728318 0.000000 0.105642
O O3 0.790668 0.000000 0.000000
O O4 0.104989 0.162617 0.739262
O O5 0.179588 0.233591 0.812444
O O6 0.500000 0.123562 0.229073
O O7 0.440259 0.162745 0.131111
O O8 0.433475 0.000000 0.194938
O O9 0.250000 0.250000 0.404710
O O10 0.358158 0.244255 0.423973
O O11 0.138243 0.411319 0.089763
O O12 0.180355 0.500000 0.000000
O O13 0.079102 0.663845 0.000000
#
# Coordination Sequence:
#
# PCOD9511779 Si02
#       6
#    16  16  32  32  16  32
#     4  11  22  34  56  84 113 151 190 227 268 324
#     4  10  24  40  56  74 112 150 188 228 276 322
#     4  10  21  37  58  81 104 136 183 235 282 331
#     4  11  22  37  54  82 113 151 189 223 266 323
#     4   9  16  28  48  74 108 142 170 207 259 320
#     4  10  19  33  53  80 114 144 172 215 276 335
#
# _framework density 18.755424000000001
#
# number of rings (size 3 to 8) (size 9 to 14) (size 15 to 20)
#    0.000    1.778    3.333    1.333    1.556    1.333 
#    0.000    2.222    0.000    0.000    0.000    0.000 
#    0.000    9.333    0.000    0.000    0.000    0.000 
#
# Total GULP energy -200425.642557 kJ/mol
# GULP energy per Si atom -5567.378960 kJ/mol
# Density = 1.871274 g / cm^3
# Si number density = 18.755424 Si / 1000 Ang^3
#
#
#
# Elastic Constant Matrix: (Units=GPa)
#
#
# Indices 1 2 3 4 5 6 
#
# 1 58.6847 28.1378 -5.6965 0.0000 0.0000 0.0000
# 2 28.1378 112.6029 -6.8092 0.0000 0.0000 0.0000
# 3 -5.6965 -6.8092 49.2071 0.0000 0.0000 0.0000
# 4 0.0000 0.0000 0.0000 21.2255 0.0000 0.0000
# 5 0.0000 0.0000 0.0000 0.0000 2.6715 0.0000
# 6 0.0000 0.0000 0.0000 0.0000 0.0000 28.2640
#
#
#
# Elastic Compliance Matrix: (Units=1/GPa)
#
#
# Indices 1 2 3 4 5 6 
#
# 1 0.019483 -0.004772 0.001595 0.000000 0.000000 0.000000
# 2 -0.004772 0.010125 0.000849 0.000000 0.000000 0.000000
# 3 0.001595 0.000849 0.020624 0.000000 0.000000 0.000000
# 4 0.000000 0.000000 0.000000 0.047113 0.000000 0.000000
# 5 0.000000 0.000000 0.000000 0.000000 0.374317 0.000000
# 6 0.000000 0.000000 0.000000 0.000000 0.000000 0.035381
#
#
# Mechanical properties :
#
#
# Convention : Reuss Voigt Hill
#
# Bulk Modulus (GPa) = 21.94174 27.97323 24.95749
# Shear Modulus (GPa) = 9.48962 24.08971 16.78966
#
# Velocity S-wave (km/s) = 2.25181 3.58776 2.99522
# Velocity P-wave (km/s) = 4.29943 5.66655 5.02966
#
# Compressibility (1/GPa) = 0.04557524
#
# Stress axis : x y z
#
# Youngs Moduli (GPa) = 51.32645 98.76976 48.48633
#
# Poissons Ratio (x) = 0.47134 -0.07734
# Poissons Ratio (y) = 0.24493 -0.04114
# Poissons Ratio (z) = -0.08187 -0.08381
#
# Static dielectric constant tensor:
#      x y z
#    x 1.699840 0.000000 0.000000 
#    y 0.000000 1.635460 0.000000 
#    z 0.000000 0.000000 1.675830 
# 
# From -- ./inp_files/38194.got.cif
#   From: 2010.05.17/outbox.cif.g08.bks.cpg/sg69_20_cif.got.tgz:38194.got - 2010.06.03 19:29:58.
