data_PCOD9511217
_publ_section_title
;
Structure prediction by ZEFSAII (Michael W. Deem and Ramdas Pophale) SiO2 
 PCOD9511217
Probable space group: F M M M
;
_chemical_formula_sum "Si O2"
_cell_formula_units_Z 192
_cell_length_a 27.561008
_cell_length_b 17.710548
_cell_length_c 23.146309
_cell_angle_alpha 90.000000
_cell_angle_beta 90.000000
_cell_angle_gamma 90.000000
_cell_volume 11298.189198
_symmetry_space_group_name_H-M "F M M M"
_symmetry_group_IT_number 69
_symmetry_cell_setting 'orthorhombic'
loop_
_space_group_symop_operation_xyz
x,y,z
-x,-y,z
x,-y,-z
-x,y,-z
-x,-y,-z
x,y,-z
-x,y,z
x,-y,z
x,1/2+y,1/2+z
-x,1/2-y,1/2+z
x,1/2-y,1/2-z
-x,1/2+y,1/2-z
-x,1/2-y,1/2-z
x,1/2+y,1/2-z
-x,1/2+y,1/2+z
x,1/2-y,1/2+z
1/2+x,y,1/2+z
1/2-x,-y,1/2+z
1/2+x,-y,1/2-z
1/2-x,y,1/2-z
1/2-x,-y,1/2-z
1/2+x,y,1/2-z
1/2-x,y,1/2+z
1/2+x,-y,1/2+z
1/2+x,1/2+y,z
1/2-x,1/2-y,z
1/2+x,1/2-y,-z
1/2-x,1/2+y,-z
1/2-x,1/2-y,-z
1/2+x,1/2+y,-z
1/2-x,1/2+y,z
1/2+x,1/2-y,z
loop_
_atom_site_type_symbol
_atom_site_label
_atom_site_fract_x
_atom_site_fract_y
_atom_site_fract_z
Si Si1 0.557843 0.777239 0.500000
Si Si2 0.654765 0.913892 0.626582
Si Si3 0.396304 0.910835 0.796568
Si Si4 0.943318 0.795370 0.377125
Si Si5 0.805882 0.838043 0.236611
Si Si6 0.444546 0.367239 0.177839
Si Si7 0.131970 0.088665 0.000000
O O1 0.500000 0.790603 0.500000
O O2 0.569822 0.731955 0.441501
O O3 0.586510 0.855467 0.500000
O O4 0.681188 0.858003 0.670499
O O5 0.597133 0.907259 0.640347
O O6 0.661079 0.897486 0.559143
O O7 0.669738 0.000000 0.639141
O O8 0.411416 0.862214 0.851731
O O9 0.343064 0.887244 0.774428
O O10 0.431998 0.886428 0.743925
O O11 0.399680 0.000000 0.805250
O O12 0.939004 0.721709 0.335928
O O13 0.000000 0.817581 0.377433
O O14 0.814971 0.750000 0.250000
O O15 0.750000 0.854582 0.250000
O O16 0.500000 0.388247 0.163875
O O17 0.118129 0.000000 0.000000
#
# Coordination Sequence:
#
# PCOD9511217 Si02
#       7
#    16  32  32  32  32  32  16
#     4  10  20  35  53  75 103 149 193 224 262 304
#     4  10  20  33  51  78 111 145 177 213 265 318
#     4  11  22  34  52  78 106 138 174 219 276 325
#     4  10  20  34  52  74 103 143 187 222 260 311
#     4  10  21  37  59  83 108 134 174 220 270 330
#     4  10  18  30  49  73 106 142 177 216 260 313
#     4  10  20  33  52  79 109 145 181 219 265 315
#
# _framework density 16.993873000000001
#
# number of rings (size 3 to 8) (size 9 to 14) (size 15 to 20)
#    0.000    1.833    1.667    5.000    0.000    5.167 
#    0.000    2.083    0.000    4.500    0.000    0.000 
#    0.000    0.000    0.000    0.000    0.000    0.000 
#
# Total GULP energy -267879.351686 kJ/mol
# GULP energy per Si atom -5580.819827 kJ/mol
# Density = 1.695519 g / cm^3
# Si number density = 16.993873 Si / 1000 Ang^3
#
#
#
# Elastic Constant Matrix: (Units=GPa)
#
#
# Indices 1 2 3 4 5 6 
#
# 1 64.8509 37.9510 44.8339 0.0000 0.0000 0.0000
# 2 37.9510 109.9763 77.6952 0.0000 0.0000 0.0000
# 3 44.8339 77.6952 127.0253 0.0000 0.0000 0.0000
# 4 0.0000 0.0000 0.0000 23.8701 0.0000 0.0000
# 5 0.0000 0.0000 0.0000 0.0000 7.7372 0.0000
# 6 0.0000 0.0000 0.0000 0.0000 0.0000 -0.3060
#
#
#
# Elastic Compliance Matrix: (Units=1/GPa)
#
#
# Indices 1 2 3 4 5 6 
#
# 1 0.021163 -0.003568 -0.005287 0.000000 0.000000 0.000000
# 2 -0.003568 0.016613 -0.008902 0.000000 0.000000 0.000000
# 3 -0.005287 -0.008902 0.015184 0.000000 0.000000 0.000000
# 4 0.000000 0.000000 0.000000 0.041893 0.000000 0.000000
# 5 0.000000 0.000000 0.000000 0.000000 0.129246 0.000000
# 6 0.000000 0.000000 0.000000 0.000000 0.000000 -3.268407
#
#
# Mechanical properties :
#
#
# Convention : Reuss Voigt Hill
#
# Bulk Modulus (GPa) = 57.32161 69.20143 63.26152
# Shear Modulus (GPa) = -1.66501 15.68509 7.01004
#
# Velocity S-wave (km/s) = -0.99091 3.04136 2.03322
# Velocity P-wave (km/s) = 5.70042 7.28992 6.54361
#
# Compressibility (1/GPa) = 0.01744543
#
# Stress axis : x y z
#
# Youngs Moduli (GPa) = 47.25176 60.19303 65.85980
#
# Poissons Ratio (x) = 0.21475 0.34823
# Poissons Ratio (y) = 0.16858 0.58630
# Poissons Ratio (z) = 0.24984 0.53586
#
# Static dielectric constant tensor:
#      x y z
#    x 1.563400 0.000000 0.000000 
#    y 0.000000 1.569890 0.000000 
#    z 0.000000 0.000000 1.592720 
# 
# From -- ./inp_files/39024.got.cif
#   From: 2010.05.17/outbox.cif.g08.bks.cpg/sg69_20_cif.got.tgz:39024.got - 2010.06.03 19:29:58.
