data_PCOD9511157
_publ_section_title
;
Structure prediction by ZEFSAII (Michael W. Deem and Ramdas Pophale) SiO2 
 PCOD9511157
Probable space group: F M M M
;
_chemical_formula_sum "Si O2"
_cell_formula_units_Z 144
_cell_length_a 28.189508
_cell_length_b 14.328631
_cell_length_c 20.397800
_cell_angle_alpha 90.000000
_cell_angle_beta 90.000000
_cell_angle_gamma 90.000000
_cell_volume 8239.019370
_symmetry_space_group_name_H-M "F M M M"
_symmetry_group_IT_number 69
_symmetry_cell_setting 'orthorhombic'
loop_
_space_group_symop_operation_xyz
x,y,z
-x,-y,z
x,-y,-z
-x,y,-z
-x,-y,-z
x,y,-z
-x,y,z
x,-y,z
x,1/2+y,1/2+z
-x,1/2-y,1/2+z
x,1/2-y,1/2-z
-x,1/2+y,1/2-z
-x,1/2-y,1/2-z
x,1/2+y,1/2-z
-x,1/2+y,1/2+z
x,1/2-y,1/2+z
1/2+x,y,1/2+z
1/2-x,-y,1/2+z
1/2+x,-y,1/2-z
1/2-x,y,1/2-z
1/2-x,-y,1/2-z
1/2+x,y,1/2-z
1/2-x,y,1/2+z
1/2+x,-y,1/2+z
1/2+x,1/2+y,z
1/2-x,1/2-y,z
1/2+x,1/2-y,-z
1/2-x,1/2+y,-z
1/2-x,1/2-y,-z
1/2+x,1/2+y,-z
1/2-x,1/2+y,z
1/2+x,1/2-y,z
loop_
_atom_site_type_symbol
_atom_site_label
_atom_site_fract_x
_atom_site_fract_y
_atom_site_fract_z
Si Si1 0.358915 0.196497 0.078129
Si Si2 0.791193 0.000000 0.847334
Si Si3 0.698363 0.704098 0.186240
Si Si4 0.109500 0.500000 0.421020
Si Si5 0.053810 0.812585 0.079348
Si Si6 0.809899 0.000000 0.578696
O O1 0.328437 0.269326 0.120009
O O2 0.413228 0.223182 0.094003
O O3 0.339925 0.093273 0.094448
O O4 0.352256 0.210272 0.000000
O O5 0.795639 0.094233 0.806135
O O6 0.836909 0.000000 0.895018
O O7 0.740903 0.000000 0.885281
O O8 0.674568 0.750000 0.250000
O O9 0.750000 0.750000 0.180638
O O10 0.110782 0.500000 0.500000
O O11 0.081029 0.592957 0.399510
O O12 0.000000 0.807767 0.104127
O O13 0.051359 0.818041 0.000000
O O14 0.801731 0.000000 0.500000
#
# Coordination Sequence:
#
# PCOD9511157 Si02
#       6
#    32  16  32  16  32  16
#     4  10  20  36  55  80 113 148 185 228 276 326
#     4  12  21  35  56  82 108 148 184 222 271 334
#     4  11  24  38  55  80 112 149 188 223 273 326
#     4  10  18  28  50  85 117 140 174 220 280 337
#     4   9  17  30  51  80 113 143 177 228 279 322
#     4  10  21  33  53  82 113 147 186 229 270 322
#
# _framework density 17.477808
#
# number of rings (size 3 to 8) (size 9 to 14) (size 15 to 20)
#    0.000    1.778    4.444    0.667    0.000    5.333 
#    0.000    0.556    0.000    4.000    0.000    0.000 
#    0.000    0.000    0.000    0.000    0.000    0.000 
#
# Total GULP energy -200686.520273 kJ/mol
# GULP energy per Si atom -5574.625563 kJ/mol
# Density = 1.743803 g / cm^3
# Si number density = 17.477808 Si / 1000 Ang^3
#
#
#
# Elastic Constant Matrix: (Units=GPa)
#
#
# Indices 1 2 3 4 5 6 
#
# 1 137.2127 60.2336 25.6949 0.0000 0.0000 0.0000
# 2 60.2336 155.1012 32.7106 0.0000 0.0000 0.0000
# 3 25.6949 32.7106 27.7999 0.0000 0.0000 0.0000
# 4 0.0000 0.0000 0.0000 12.9075 0.0000 0.0000
# 5 0.0000 0.0000 0.0000 0.0000 0.4774 0.0000
# 6 0.0000 0.0000 0.0000 0.0000 0.0000 17.8299
#
#
#
# Elastic Compliance Matrix: (Units=1/GPa)
#
#
# Indices 1 2 3 4 5 6 
#
# 1 0.009457 -0.002433 -0.005878 0.000000 0.000000 0.000000
# 2 -0.002433 0.009201 -0.008578 0.000000 0.000000 0.000000
# 3 -0.005878 -0.008578 0.051498 0.000000 0.000000 0.000000
# 4 0.000000 0.000000 0.000000 0.077475 0.000000 0.000000
# 5 0.000000 0.000000 0.000000 0.000000 2.094461 0.000000
# 6 0.000000 0.000000 0.000000 0.000000 0.000000 0.056086
#
#
# Mechanical properties :
#
#
# Convention : Reuss Voigt Hill
#
# Bulk Modulus (GPa) = 27.48933 61.93243 44.71088
# Shear Modulus (GPa) = 2.13303 19.67461 10.90382
#
# Velocity S-wave (km/s) = 1.10593 3.35877 2.50044
# Velocity P-wave (km/s) = 4.17050 7.11011 5.82866
#
# Compressibility (1/GPa) = 0.03637775
#
# Stress axis : x y z
#
# Youngs Moduli (GPa) = 105.74569 108.68050 19.41840
#
# Poissons Ratio (x) = 0.26440 0.11414
# Poissons Ratio (y) = 0.25726 0.16657
# Poissons Ratio (z) = 0.62157 0.93226
#
# Static dielectric constant tensor:
#      x y z
#    x 1.596320 0.000000 0.000000 
#    y 0.000000 1.618370 0.000000 
#    z 0.000000 0.000000 1.606680 
# 
# From -- ./inp_files/27430.got.cif
#   From: 2010.05.17/outbox.cif.g08.bks.cpg/sg69_14_cif.got.tgz:27430.got - 2010.06.03 19:29:58.
