data_PCOD9511977
_publ_section_title
;
Structure prediction by ZEFSAII (Michael W. Deem and Ramdas Pophale) SiO2 
 PCOD9511977
Probable space group: F M M M
;
_chemical_formula_sum "Si O2"
_cell_formula_units_Z 208
_cell_length_a 23.413573
_cell_length_b 18.332820
_cell_length_c 26.557711
_cell_angle_alpha 90.000000
_cell_angle_beta 90.000000
_cell_angle_gamma 90.000000
_cell_volume 11399.547399
_symmetry_space_group_name_H-M "F M M M"
_symmetry_group_IT_number 69
_symmetry_cell_setting 'orthorhombic'
loop_
_space_group_symop_operation_xyz
x,y,z
-x,-y,z
x,-y,-z
-x,y,-z
-x,-y,-z
x,y,-z
-x,y,z
x,-y,z
x,1/2+y,1/2+z
-x,1/2-y,1/2+z
x,1/2-y,1/2-z
-x,1/2+y,1/2-z
-x,1/2-y,1/2-z
x,1/2+y,1/2-z
-x,1/2+y,1/2+z
x,1/2-y,1/2+z
1/2+x,y,1/2+z
1/2-x,-y,1/2+z
1/2+x,-y,1/2-z
1/2-x,y,1/2-z
1/2-x,-y,1/2-z
1/2+x,y,1/2-z
1/2-x,y,1/2+z
1/2+x,-y,1/2+z
1/2+x,1/2+y,z
1/2-x,1/2-y,z
1/2+x,1/2-y,-z
1/2-x,1/2+y,-z
1/2-x,1/2-y,-z
1/2+x,1/2+y,-z
1/2-x,1/2+y,z
1/2+x,1/2-y,z
loop_
_atom_site_type_symbol
_atom_site_label
_atom_site_fract_x
_atom_site_fract_y
_atom_site_fract_z
Si Si1 0.435298 0.293110 0.204474
Si Si2 0.618193 0.086940 0.757428
Si Si3 0.199258 0.413717 0.330775
Si Si4 0.500000 0.414036 0.060631
Si Si5 0.887342 0.669485 0.600812
Si Si6 0.310130 0.211554 0.058102
Si Si7 0.828247 0.912257 0.360583
O O1 0.500000 0.267784 0.199094
O O2 0.406047 0.250000 0.250000
O O3 0.432322 0.375011 0.226434
O O4 0.406613 0.287710 0.150918
O O5 0.672419 0.109606 0.722621
O O6 0.627084 0.106096 0.815937
O O7 0.613272 0.000000 0.756018
O O8 0.192086 0.500000 0.332753
O O9 0.162633 0.381650 0.376869
O O10 0.265801 0.399336 0.336399
O O11 0.500000 0.500000 0.074799
O O12 0.557491 0.374555 0.081047
O O13 0.500000 0.409532 0.000000
O O14 0.858655 0.726339 0.563075
O O15 0.250000 0.250000 0.074536
O O16 0.328256 0.142621 0.092302
O O17 0.302836 0.189451 0.000000
O O18 0.832906 0.000000 0.372247
#
# Coordination Sequence:
#
# PCOD9511977 Si02
#       7
#    32  32  32  16  32  32  32
#     4  10  20  34  52  79 112 143 179 223 276 340
#     4   9  18  31  51  79 109 144 181 220 272 335
#     4   9  17  30  52  81 113 146 180 223 277 335
#     4  11  24  40  59  86 115 149 198 243 285 342
#     4  11  20  38  58  81 113 152 189 235 285 341
#     4  11  23  38  56  80 111 149 196 244 293 347
#     4  10  19  35  56  79 110 146 187 232 280 338
#
# _framework density 18.246338999999999
#
# number of rings (size 3 to 8) (size 9 to 14) (size 15 to 20)
#    0.000    1.923    2.308    2.308    0.000    3.077 
#    0.000    0.000    0.000    0.000    0.000    0.000 
#    0.000    1.846    0.000    0.000    0.000    0.000 
#
# Total GULP energy -289599.364607 kJ/mol
# GULP energy per Si atom -5569.218550 kJ/mol
# Density = 1.820481 g / cm^3
# Si number density = 18.246339 Si / 1000 Ang^3
#
#
#
# Elastic Constant Matrix: (Units=GPa)
#
#
# Indices 1 2 3 4 5 6 
#
# 1 39.9953 12.1499 -2.4610 0.0000 0.0000 0.0000
# 2 12.1499 46.2926 27.3173 0.0000 0.0000 0.0000
# 3 -2.4610 27.3173 74.5721 0.0000 0.0000 0.0000
# 4 0.0000 0.0000 0.0000 32.1757 0.0000 0.0000
# 5 0.0000 0.0000 0.0000 0.0000 11.4973 0.0000
# 6 0.0000 0.0000 0.0000 0.0000 0.0000 18.8957
#
#
#
# Elastic Compliance Matrix: (Units=1/GPa)
#
#
# Indices 1 2 3 4 5 6 
#
# 1 0.028393 -0.010213 0.004678 0.000000 0.000000 0.000000
# 2 -0.010213 0.031232 -0.011778 0.000000 0.000000 0.000000
# 3 0.004678 -0.011778 0.017879 0.000000 0.000000 0.000000
# 4 0.000000 0.000000 0.000000 0.031079 0.000000 0.000000
# 5 0.000000 0.000000 0.000000 0.000000 0.086977 0.000000
# 6 0.000000 0.000000 0.000000 0.000000 0.000000 0.052922
#
#
# Mechanical properties :
#
#
# Convention : Reuss Voigt Hill
#
# Bulk Modulus (GPa) = 23.32133 26.09693 24.70913
# Shear Modulus (GPa) = 16.81231 20.77066 18.79149
#
# Velocity S-wave (km/s) = 3.03876 3.37760 3.21265
# Velocity P-wave (km/s) = 5.01211 5.43549 5.22808
#
# Compressibility (1/GPa) = 0.04287921
#
# Stress axis : x y z
#
# Youngs Moduli (GPa) = 35.21968 32.01805 55.93219
#
# Poissons Ratio (x) = 0.32699 -0.26166
# Poissons Ratio (y) = 0.35968 0.65878
# Poissons Ratio (z) = -0.16476 0.37711
#
# Static dielectric constant tensor:
#      x y z
#    x 1.654490 0.000000 0.000000 
#    y 0.000000 1.677800 0.000000 
#    z 0.000000 0.000000 1.625130 
# 
# From -- ./inp_files/26089.got.cif
#   From: 2010.05.17/outbox.cif.g08.bks.cpg/sg69_14_cif.got.tgz:26089.got - 2010.06.03 19:29:58.
