data_PCOD9511114
_publ_section_title
;
Structure prediction by ZEFSAII (Michael W. Deem and Ramdas Pophale) SiO2 
 PCOD9511114
Probable space group: F M M M
;
_chemical_formula_sum "Si O2"
_cell_formula_units_Z 152
_cell_length_a 14.075710
_cell_length_b 27.598160
_cell_length_c 27.183309
_cell_angle_alpha 90.000000
_cell_angle_beta 90.000000
_cell_angle_gamma 90.000000
_cell_volume 10559.728703
_symmetry_space_group_name_H-M "F M M M"
_symmetry_group_IT_number 69
_symmetry_cell_setting 'orthorhombic'
loop_
_space_group_symop_operation_xyz
x,y,z
-x,-y,z
x,-y,-z
-x,y,-z
-x,-y,-z
x,y,-z
-x,y,z
x,-y,z
x,1/2+y,1/2+z
-x,1/2-y,1/2+z
x,1/2-y,1/2-z
-x,1/2+y,1/2-z
-x,1/2-y,1/2-z
x,1/2+y,1/2-z
-x,1/2+y,1/2+z
x,1/2-y,1/2+z
1/2+x,y,1/2+z
1/2-x,-y,1/2+z
1/2+x,-y,1/2-z
1/2-x,y,1/2-z
1/2-x,-y,1/2-z
1/2+x,y,1/2-z
1/2-x,y,1/2+z
1/2+x,-y,1/2+z
1/2+x,1/2+y,z
1/2-x,1/2-y,z
1/2+x,1/2-y,-z
1/2-x,1/2+y,-z
1/2-x,1/2-y,-z
1/2+x,1/2+y,-z
1/2-x,1/2+y,z
1/2+x,1/2-y,z
loop_
_atom_site_type_symbol
_atom_site_label
_atom_site_fract_x
_atom_site_fract_y
_atom_site_fract_z
Si Si1 0.000000 0.719792 0.199578
Si Si2 0.886504 0.443670 0.442056
Si Si3 0.193286 0.849567 0.101057
Si Si4 0.000000 0.712547 0.605147
Si Si5 0.286895 0.193949 0.196132
Si Si6 0.000000 0.779796 0.000000
Si Si7 0.784398 0.805575 0.000000
O O1 0.000000 0.750000 0.250000
O O2 0.099362 0.692170 0.197414
O O3 0.000000 0.755173 0.153015
O O4 0.866627 0.434202 0.500000
O O5 0.864879 0.500000 0.432160
O O6 0.831083 0.405363 0.409092
O O7 0.000000 0.436965 0.435644
O O8 0.248475 0.837050 0.150689
O O9 0.244738 0.829585 0.051587
O O10 0.093588 0.820520 0.105045
O O11 0.000000 0.743639 0.554118
O O12 0.250000 0.179032 0.250000
O O13 0.250000 0.250000 0.189037
O O14 0.900436 0.808732 0.000000
O O15 0.750000 0.750000 0.000000
#
# Coordination Sequence:
#
# PCOD9511114 Si02
#       7
#    16  32  32  16  32   8  16
#     4  12  20  34  48  65  97 130 171 211 228 270
#     4   9  17  29  48  75 104 130 162 208 255 299
#     4  11  18  30  46  69  97 130 165 196 246 296
#     4  10  18  26  45  63  94 130 158 197 233 283
#     4  11  21  33  48  70  95 131 170 201 238 284
#     4   8  20  28  36  56  91 124 157 182 232 270
#     4  10  20  28  41  64  95 131 162 189 227 289
#
# _framework density 14.394310000000001
#
# number of rings (size 3 to 8) (size 9 to 14) (size 15 to 20)
#    0.000    1.684    6.316    1.263    2.947    0.000 
#    0.000    0.000    0.000    0.632    0.000    0.737 
#    0.000    1.684    0.000    0.000    0.000    0.000 
#
# Total GULP energy -211666.882672 kJ/mol
# GULP energy per Si atom -5570.181123 kJ/mol
# Density = 1.436155 g / cm^3
# Si number density = 14.394310 Si / 1000 Ang^3
#
#
#
# Elastic Constant Matrix: (Units=GPa)
#
#
# Indices 1 2 3 4 5 6 
#
# 1 87.2475 31.9310 47.8171 0.0000 0.0000 0.0000
# 2 31.9310 76.5107 63.6986 0.0000 0.0000 0.0000
# 3 47.8171 63.6986 156.6440 0.0000 0.0000 0.0000
# 4 0.0000 0.0000 0.0000 21.1488 0.0000 0.0000
# 5 0.0000 0.0000 0.0000 0.0000 21.9100 0.0000
# 6 0.0000 0.0000 0.0000 0.0000 0.0000 14.4569
#
#
#
# Elastic Compliance Matrix: (Units=1/GPa)
#
#
# Indices 1 2 3 4 5 6 
#
# 1 0.014374 -0.003546 -0.002946 0.000000 0.000000 0.000000
# 2 -0.003546 0.020635 -0.007308 0.000000 0.000000 0.000000
# 3 -0.002946 -0.007308 0.010255 0.000000 0.000000 0.000000
# 4 0.000000 0.000000 0.000000 0.047284 0.000000 0.000000
# 5 0.000000 0.000000 0.000000 0.000000 0.045641 0.000000
# 6 0.000000 0.000000 0.000000 0.000000 0.000000 0.069171
#
#
# Mechanical properties :
#
#
# Convention : Reuss Voigt Hill
#
# Bulk Modulus (GPa) = 56.61655 67.47729 62.04692
# Shear Modulus (GPa) = 20.75992 23.30018 22.03005
#
# Velocity S-wave (km/s) = 3.80179 4.02768 3.91637
# Velocity P-wave (km/s) = 7.66091 8.28306 7.97805
#
# Compressibility (1/GPa) = 0.01766268
#
# Stress axis : x y z
#
# Youngs Moduli (GPa) = 69.57015 48.46194 97.51307
#
# Poissons Ratio (x) = 0.17187 0.28724
# Poissons Ratio (y) = 0.24673 0.71267
# Poissons Ratio (z) = 0.20493 0.35418
#
# Static dielectric constant tensor:
#      x y z
#    x 1.511820 0.000000 0.000000 
#    y 0.000000 1.461870 0.000000 
#    z 0.000000 0.000000 1.496670 
# 
# From -- ./inp_files/41201.got.cif
#   From: 2010.05.17/outbox.cif.g08.bks.cpg/sg69_21_cif.got.tgz:41201.got - 2010.06.03 19:29:58.
