data_PCOD9511703
_publ_section_title
;
Structure prediction by ZEFSAII (Michael W. Deem and Ramdas Pophale) SiO2 
 PCOD9511703
Probable space group: F M M M
;
_chemical_formula_sum "Si O2"
_cell_formula_units_Z 128
_cell_length_a 22.974343
_cell_length_b 21.238305
_cell_length_c 15.325997
_cell_angle_alpha 90.000000
_cell_angle_beta 90.000000
_cell_angle_gamma 90.000000
_cell_volume 7478.107263
_symmetry_space_group_name_H-M "F M M M"
_symmetry_group_IT_number 69
_symmetry_cell_setting 'orthorhombic'
loop_
_space_group_symop_operation_xyz
x,y,z
-x,-y,z
x,-y,-z
-x,y,-z
-x,-y,-z
x,y,-z
-x,y,z
x,-y,z
x,1/2+y,1/2+z
-x,1/2-y,1/2+z
x,1/2-y,1/2-z
-x,1/2+y,1/2-z
-x,1/2-y,1/2-z
x,1/2+y,1/2-z
-x,1/2+y,1/2+z
x,1/2-y,1/2+z
1/2+x,y,1/2+z
1/2-x,-y,1/2+z
1/2+x,-y,1/2-z
1/2-x,y,1/2-z
1/2-x,-y,1/2-z
1/2+x,y,1/2-z
1/2-x,y,1/2+z
1/2+x,-y,1/2+z
1/2+x,1/2+y,z
1/2-x,1/2-y,z
1/2+x,1/2-y,-z
1/2-x,1/2+y,-z
1/2-x,1/2-y,-z
1/2+x,1/2+y,-z
1/2-x,1/2+y,z
1/2+x,1/2-y,z
loop_
_atom_site_type_symbol
_atom_site_label
_atom_site_fract_x
_atom_site_fract_y
_atom_site_fract_z
Si Si1 0.231005 0.347930 0.500000
Si Si2 0.432795 0.292901 0.336074
Si Si3 0.149733 0.731646 0.000000
Si Si4 0.264125 0.927297 0.844900
Si Si5 0.400730 0.572895 0.605366
O O1 0.180357 0.298336 0.500000
O O2 0.294941 0.315381 0.500000
O O3 0.228282 0.390059 0.415313
O O4 0.500000 0.278203 0.357406
O O5 0.418909 0.250000 0.250000
O O6 0.389162 0.276079 0.414205
O O7 0.427946 0.370076 0.337731
O O8 0.250000 0.900803 0.750000
O O9 0.331948 0.925014 0.871789
O O10 0.246598 0.000000 0.845445
O O11 0.408744 0.584260 0.500000
O O12 0.420082 0.500000 0.621656
#
# Coordination Sequence:
#
# PCOD9511703 Si02
#       5
#    16  32  16  32  32
#     4  11  21  34  54  81 110 145 179 224 275 342
#     4  11  23  39  58  81 113 152 193 235 284 337
#     4  11  23  36  54  78 113 146 184 230 277 332
#     4  10  19  32  53  79 110 145 178 224 282 336
#     4  10  19  36  60  84 113 144 187 243 292 338
#
# _framework density 17.116631000000002
#
# number of rings (size 3 to 8) (size 9 to 14) (size 15 to 20)
#    0.000    1.500    5.000    0.750    3.500    0.500 
#    0.000    3.750    0.000    0.000    0.000    0.000 
#    0.000    8.000    0.000    0.000    0.000    0.000 
#
# Total GULP energy -178255.965258 kJ/mol
# GULP energy per Si atom -5570.498914 kJ/mol
# Density = 1.707767 g / cm^3
# Si number density = 17.116631 Si / 1000 Ang^3
#
#
#
# Elastic Constant Matrix: (Units=GPa)
#
#
# Indices 1 2 3 4 5 6 
#
# 1 52.2191 31.4597 22.7995 0.0000 0.0000 0.0000
# 2 31.4597 111.5292 65.7114 0.0000 0.0000 0.0000
# 3 22.7995 65.7114 108.2344 0.0000 0.0000 0.0000
# 4 0.0000 0.0000 0.0000 33.9769 0.0000 0.0000
# 5 0.0000 0.0000 0.0000 0.0000 14.1469 0.0000
# 6 0.0000 0.0000 0.0000 0.0000 0.0000 16.0591
#
#
#
# Elastic Compliance Matrix: (Units=1/GPa)
#
#
# Indices 1 2 3 4 5 6 
#
# 1 0.023211 -0.005708 -0.001424 0.000000 0.000000 0.000000
# 2 -0.005708 0.015364 -0.008125 0.000000 0.000000 0.000000
# 3 -0.001424 -0.008125 0.014472 0.000000 0.000000 0.000000
# 4 0.000000 0.000000 0.000000 0.029432 0.000000 0.000000
# 5 0.000000 0.000000 0.000000 0.000000 0.070687 0.000000
# 6 0.000000 0.000000 0.000000 0.000000 0.000000 0.062270
#
#
# Mechanical properties :
#
#
# Convention : Reuss Voigt Hill
#
# Bulk Modulus (GPa) = 44.38116 56.88043 50.63079
# Shear Modulus (GPa) = 19.72697 22.97072 21.34884
#
# Velocity S-wave (km/s) = 3.39854 3.66732 3.53548
# Velocity P-wave (km/s) = 6.43312 7.15790 6.80517
#
# Compressibility (1/GPa) = 0.02253209
#
# Stress axis : x y z
#
# Youngs Moduli (GPa) = 43.08358 65.08851 69.09865
#
# Poissons Ratio (x) = 0.37155 0.09837
# Poissons Ratio (y) = 0.24594 0.56144
# Poissons Ratio (z) = 0.06134 0.52885
#
# Static dielectric constant tensor:
#      x y z
#    x 1.562560 0.000000 0.000000 
#    y 0.000000 1.629890 0.000000 
#    z 0.000000 0.000000 1.570830 
# 
# From -- ./inp_files/25702.got.cif
#   From: 2010.05.17/outbox.cif.g08.bks.cpg/sg69_13_cif.got.tgz:25702.got - 2010.06.03 19:29:58.
