data_PCOD9511370
_publ_section_title
;
Structure prediction by ZEFSAII (Michael W. Deem and Ramdas Pophale) SiO2 
 PCOD9511370
Probable space group: F M M M
;
_chemical_formula_sum "Si O2"
_cell_formula_units_Z 112
_cell_length_a 27.864611
_cell_length_b 8.670091
_cell_length_c 21.740589
_cell_angle_alpha 90.000000
_cell_angle_beta 90.000000
_cell_angle_gamma 90.000000
_cell_volume 5252.280917
_symmetry_space_group_name_H-M "F M M M"
_symmetry_group_IT_number 69
_symmetry_cell_setting 'orthorhombic'
loop_
_space_group_symop_operation_xyz
x,y,z
-x,-y,z
x,-y,-z
-x,y,-z
-x,-y,-z
x,y,-z
-x,y,z
x,-y,z
x,1/2+y,1/2+z
-x,1/2-y,1/2+z
x,1/2-y,1/2-z
-x,1/2+y,1/2-z
-x,1/2-y,1/2-z
x,1/2+y,1/2-z
-x,1/2+y,1/2+z
x,1/2-y,1/2+z
1/2+x,y,1/2+z
1/2-x,-y,1/2+z
1/2+x,-y,1/2-z
1/2-x,y,1/2-z
1/2-x,-y,1/2-z
1/2+x,y,1/2-z
1/2-x,y,1/2+z
1/2+x,-y,1/2+z
1/2+x,1/2+y,z
1/2-x,1/2-y,z
1/2+x,1/2-y,-z
1/2-x,1/2+y,-z
1/2-x,1/2-y,-z
1/2+x,1/2+y,-z
1/2-x,1/2+y,z
1/2+x,1/2-y,z
loop_
_atom_site_type_symbol
_atom_site_label
_atom_site_fract_x
_atom_site_fract_y
_atom_site_fract_z
Si Si1 0.442136 0.819913 0.431391
Si Si2 0.106520 0.182438 0.312390
Si Si3 0.196560 0.683472 0.370897
Si Si4 0.195531 0.685139 0.000000
O O1 0.427578 0.764542 0.500000
O O2 0.500000 0.816955 0.430090
O O3 0.422705 0.727437 0.373410
O O4 0.427109 0.000000 0.425676
O O5 0.084159 0.250000 0.250000
O O6 0.158673 0.260351 0.321041
O O7 0.111380 0.000000 0.307821
O O8 0.199470 0.500000 0.374058
O O9 0.250000 0.750000 0.361271
O O10 0.176541 0.749010 0.435958
O O11 0.250000 0.750000 0.000000
O O12 0.194914 0.500000 0.000000
#
# Coordination Sequence:
#
# PCOD9511370 Si02
#       4
#    32  32  32  16
#     4   9  20  42  71 100 130 165 207 257 317 382
#     4  12  26  43  63  92 129 170 217 265 318 381
#     4  11  22  39  61  88 124 167 213 264 318 375
#     4  10  18  32  54  84 117 154 203 256 310 364
#
# _framework density 21.324068
#
# number of rings (size 3 to 8) (size 9 to 14) (size 15 to 20)
#    0.000    1.429    0.000    9.000    2.000    2.286 
#    0.000    4.286    0.000    0.000    0.000    0.000 
#    0.000    0.000    0.000    0.000    0.000    0.000 
#
# Total GULP energy -156605.271745 kJ/mol
# GULP energy per Si atom -5593.045419 kJ/mol
# Density = 2.127553 g / cm^3
# Si number density = 21.324068 Si / 1000 Ang^3
#
#
#
# Elastic Constant Matrix: (Units=GPa)
#
#
# Indices 1 2 3 4 5 6 
#
# 1 52.7338 24.2146 31.4241 0.0000 0.0000 0.0000
# 2 24.2146 196.8793 64.2310 0.0000 0.0000 0.0000
# 3 31.4241 64.2310 151.2685 0.0000 0.0000 0.0000
# 4 0.0000 0.0000 0.0000 31.8350 0.0000 0.0000
# 5 0.0000 0.0000 0.0000 0.0000 18.0171 0.0000
# 6 0.0000 0.0000 0.0000 0.0000 0.0000 30.9406
#
#
#
# Elastic Compliance Matrix: (Units=1/GPa)
#
#
# Indices 1 2 3 4 5 6 
#
# 1 0.021974 -0.001408 -0.003967 0.000000 0.000000 0.000000
# 2 -0.001408 0.005986 -0.002249 0.000000 0.000000 0.000000
# 3 -0.003967 -0.002249 0.008390 0.000000 0.000000 0.000000
# 4 0.000000 0.000000 0.000000 0.031412 0.000000 0.000000
# 5 0.000000 0.000000 0.000000 0.000000 0.055503 0.000000
# 6 0.000000 0.000000 0.000000 0.000000 0.000000 0.032320
#
#
# Mechanical properties :
#
#
# Convention : Reuss Voigt Hill
#
# Bulk Modulus (GPa) = 47.39125 71.18009 59.28567
# Shear Modulus (GPa) = 28.11087 34.89268 31.50177
#
# Velocity S-wave (km/s) = 3.63474 4.04951 3.84772
# Velocity P-wave (km/s) = 6.31567 7.43757 6.89946
#
# Compressibility (1/GPa) = 0.02110094
#
# Stress axis : x y z
#
# Youngs Moduli (GPa) = 45.50907 167.04797 119.19142
#
# Poissons Ratio (x) = 0.23528 0.47279
# Poissons Ratio (y) = 0.06410 0.26810
# Poissons Ratio (z) = 0.18052 0.37574
#
# Static dielectric constant tensor:
#      x y z
#    x 1.713160 0.000000 0.000000 
#    y 0.000000 1.716380 0.000000 
#    z 0.000000 0.000000 1.843950 
# 
# From -- ./inp_files/38070.got.cif
#   From: 2010.05.17/outbox.cif.g08.bks.cpg/sg69_20_cif.got.tgz:38070.got - 2010.06.03 19:29:58.
