data_PCOD9511578
_publ_section_title
;
Structure prediction by ZEFSAII (Michael W. Deem and Ramdas Pophale) SiO2 
 PCOD9511578
Probable space group: F M M M
;
_chemical_formula_sum "Si O2"
_cell_formula_units_Z 160
_cell_length_a 15.208270
_cell_length_b 27.988694
_cell_length_c 18.827972
_cell_angle_alpha 90.000000
_cell_angle_beta 90.000000
_cell_angle_gamma 90.000000
_cell_volume 8014.307318
_symmetry_space_group_name_H-M "F M M M"
_symmetry_group_IT_number 69
_symmetry_cell_setting 'orthorhombic'
loop_
_space_group_symop_operation_xyz
x,y,z
-x,-y,z
x,-y,-z
-x,y,-z
-x,-y,-z
x,y,-z
-x,y,z
x,-y,z
x,1/2+y,1/2+z
-x,1/2-y,1/2+z
x,1/2-y,1/2-z
-x,1/2+y,1/2-z
-x,1/2-y,1/2-z
x,1/2+y,1/2-z
-x,1/2+y,1/2+z
x,1/2-y,1/2+z
1/2+x,y,1/2+z
1/2-x,-y,1/2+z
1/2+x,-y,1/2-z
1/2-x,y,1/2-z
1/2-x,-y,1/2-z
1/2+x,y,1/2-z
1/2-x,y,1/2+z
1/2+x,-y,1/2+z
1/2+x,1/2+y,z
1/2-x,1/2-y,z
1/2+x,1/2-y,-z
1/2-x,1/2+y,-z
1/2-x,1/2-y,-z
1/2+x,1/2+y,-z
1/2-x,1/2+y,z
1/2+x,1/2-y,z
loop_
_atom_site_type_symbol
_atom_site_label
_atom_site_fract_x
_atom_site_fract_y
_atom_site_fract_z
Si Si1 0.393794 0.056041 0.921990
Si Si2 0.351424 0.901469 0.773278
Si Si3 0.106775 0.345136 0.580364
Si Si4 0.898001 0.947998 0.133039
Si Si5 0.148626 0.699673 0.725120
O O1 0.500000 0.059301 0.920161
O O2 0.358649 0.083457 0.854120
O O3 0.371586 0.000000 0.915834
O O4 0.364276 0.073065 0.000000
O O5 0.250000 0.900771 0.750000
O O6 0.394697 0.938118 0.717608
O O7 0.389965 0.848669 0.759545
O O8 0.130543 0.332494 0.500000
O O9 0.137872 0.399480 0.597800
O O10 0.142237 0.310057 0.641074
O O11 0.000000 0.344998 0.586052
O O12 0.000000 0.950167 0.111048
O O13 0.857557 0.000000 0.116881
O O14 0.109341 0.750000 0.750000
O O15 0.250000 0.700600 0.750000
#
# Coordination Sequence:
#
# PCOD9511578 Si02
#       5
#    32  32  32  32  32
#     4   9  18  33  52  73 101 138 172 200 237 290
#     4  10  19  31  49  73  99 127 165 211 253 292
#     4   9  18  33  53  77 104 130 159 203 253 293
#     4   9  17  29  47  71  99 134 170 198 232 289
#     4   9  19  37  55  72  96 131 172 206 245 300
#
# _framework density 19.964296000000001
#
# number of rings (size 3 to 8) (size 9 to 14) (size 15 to 20)
#    0.000    2.800    0.000    1.800    0.000    4.800 
#    0.000   14.000    0.000    2.400    0.000    0.000 
#    0.000    0.000    0.000    0.000    0.000    0.000 
#
# Total GULP energy -223027.655689 kJ/mol
# GULP energy per Si atom -5575.691392 kJ/mol
# Density = 1.991886 g / cm^3
# Si number density = 19.964296 Si / 1000 Ang^3
#
#
#
# Elastic Constant Matrix: (Units=GPa)
#
#
# Indices 1 2 3 4 5 6 
#
# 1 42.6013 10.5596 22.5368 0.0000 0.0000 0.0000
# 2 10.5596 113.0731 69.2697 0.0000 0.0000 0.0000
# 3 22.5368 69.2697 203.1129 0.0000 0.0000 0.0000
# 4 0.0000 0.0000 0.0000 3.7298 0.0000 0.0000
# 5 0.0000 0.0000 0.0000 0.0000 23.6359 0.0000
# 6 0.0000 0.0000 0.0000 0.0000 0.0000 8.1814
#
#
#
# Elastic Compliance Matrix: (Units=1/GPa)
#
#
# Indices 1 2 3 4 5 6 
#
# 1 0.024995 -0.000803 -0.002499 0.000000 0.000000 0.000000
# 2 -0.000803 0.011205 -0.003732 0.000000 0.000000 0.000000
# 3 -0.002499 -0.003732 0.006474 0.000000 0.000000 0.000000
# 4 0.000000 0.000000 0.000000 0.268114 0.000000 0.000000
# 5 0.000000 0.000000 0.000000 0.000000 0.042309 0.000000
# 6 0.000000 0.000000 0.000000 0.000000 0.000000 0.122228
#
#
# Mechanical properties :
#
#
# Convention : Reuss Voigt Hill
#
# Bulk Modulus (GPa) = 34.96019 62.61330 48.78675
# Shear Modulus (GPa) = 10.02147 24.20416 17.11282
#
# Velocity S-wave (km/s) = 2.24290 3.48569 2.93092
# Velocity P-wave (km/s) = 4.92512 6.90151 5.99532
#
# Compressibility (1/GPa) = 0.02860396
#
# Stress axis : x y z
#
# Youngs Moduli (GPa) = 40.00840 89.24342 154.47373
#
# Poissons Ratio (x) = 0.07166 0.38611
# Poissons Ratio (y) = 0.03213 0.57655
# Poissons Ratio (z) = 0.10000 0.33309
#
# Static dielectric constant tensor:
#      x y z
#    x 1.775700 0.000000 0.000000 
#    y 0.000000 1.739020 0.000000 
#    z 0.000000 0.000000 1.700960 
# 
# From -- ./inp_files/23119.got.cif
#   From: 2010.05.17/outbox.cif.g08.bks.cpg/sg69_12_cif.got.tgz:23119.got - 2010.06.03 19:29:58.
