data_PCOD9511552
_publ_section_title
;
Structure prediction by ZEFSAII (Michael W. Deem and Ramdas Pophale) SiO2 
 PCOD9511552
Probable space group: F M M M
;
_chemical_formula_sum "Si O2"
_cell_formula_units_Z 176
_cell_length_a 27.354463
_cell_length_b 13.762107
_cell_length_c 28.975751
_cell_angle_alpha 90.000000
_cell_angle_beta 90.000000
_cell_angle_gamma 90.000000
_cell_volume 10908.067697
_symmetry_space_group_name_H-M "F M M M"
_symmetry_group_IT_number 69
_symmetry_cell_setting 'orthorhombic'
loop_
_space_group_symop_operation_xyz
x,y,z
-x,-y,z
x,-y,-z
-x,y,-z
-x,-y,-z
x,y,-z
-x,y,z
x,-y,z
x,1/2+y,1/2+z
-x,1/2-y,1/2+z
x,1/2-y,1/2-z
-x,1/2+y,1/2-z
-x,1/2-y,1/2-z
x,1/2+y,1/2-z
-x,1/2+y,1/2+z
x,1/2-y,1/2+z
1/2+x,y,1/2+z
1/2-x,-y,1/2+z
1/2+x,-y,1/2-z
1/2-x,y,1/2-z
1/2-x,-y,1/2-z
1/2+x,y,1/2-z
1/2-x,y,1/2+z
1/2+x,-y,1/2+z
1/2+x,1/2+y,z
1/2-x,1/2-y,z
1/2+x,1/2-y,-z
1/2-x,1/2+y,-z
1/2-x,1/2-y,-z
1/2+x,1/2+y,-z
1/2-x,1/2+y,z
1/2+x,1/2-y,z
loop_
_atom_site_type_symbol
_atom_site_label
_atom_site_fract_x
_atom_site_fract_y
_atom_site_fract_z
Si Si1 0.558718 0.230585 0.092543
Si Si2 0.881273 0.885328 0.857449
Si Si3 0.892834 0.115860 0.325477
Si Si4 0.307735 0.251583 0.193873
Si Si5 0.058903 0.611746 0.000000
Si Si6 0.554648 0.883416 0.267490
O O1 0.500000 0.252273 0.093385
O O2 0.593864 0.323847 0.101267
O O3 0.573632 0.158639 0.134160
O O4 0.571199 0.173541 0.045522
O O5 0.832197 0.840974 0.834392
O O6 0.919093 0.867903 0.815576
O O7 0.877018 0.000000 0.866891
O O8 0.838597 0.160672 0.325761
O O9 0.916172 0.150580 0.277124
O O10 0.891573 0.000000 0.327572
O O11 0.314267 0.250000 0.250000
O O12 0.250000 0.250000 0.185600
O O13 0.077747 0.500000 0.000000
O O14 0.000000 0.604335 0.000000
O O15 0.500000 0.846396 0.269019
O O16 0.552585 0.000000 0.261887
#
# Coordination Sequence:
#
# PCOD9511552 Si02
#       6
#    32  32  32  32  16  32
#     4  10  20  32  51  76 103 135 170 207 249 298
#     4  10  20  34  49  71 102 138 174 206 246 298
#     4  10  19  31  47  72  99 129 170 210 250 299
#     4  10  20  33  48  69  97 132 174 216 256 300
#     4   9  18  34  53  75 104 135 167 206 254 299
#     4   9  16  26  42  65  96 132 165 195 232 281
#
# _framework density 16.134847000000001
#
# number of rings (size 3 to 8) (size 9 to 14) (size 15 to 20)
#    0.000    2.273    1.818    1.636    0.000    3.636 
#    0.000    5.000    0.000    1.636    0.000   10.182 
#    0.000   11.636    0.000    0.000    0.000    0.000 
#
# Total GULP energy -245110.742778 kJ/mol
# GULP energy per Si atom -5570.698700 kJ/mol
# Density = 1.609812 g / cm^3
# Si number density = 16.134847 Si / 1000 Ang^3
#
#
#
# Elastic Constant Matrix: (Units=GPa)
#
#
# Indices 1 2 3 4 5 6 
#
# 1 112.5163 37.9408 29.7957 0.0000 0.0000 0.0000
# 2 37.9408 116.8114 43.9120 0.0000 0.0000 0.0000
# 3 29.7957 43.9120 88.4051 0.0000 0.0000 0.0000
# 4 0.0000 0.0000 0.0000 15.8772 0.0000 0.0000
# 5 0.0000 0.0000 0.0000 0.0000 -40.8718 0.0000
# 6 0.0000 0.0000 0.0000 0.0000 0.0000 15.5091
#
#
#
# Elastic Compliance Matrix: (Units=1/GPa)
#
#
# Indices 1 2 3 4 5 6 
#
# 1 0.010327 -0.002515 -0.002231 0.000000 0.000000 0.000000
# 2 -0.002515 0.011139 -0.004685 0.000000 0.000000 0.000000
# 3 -0.002231 -0.004685 0.014391 0.000000 0.000000 0.000000
# 4 0.000000 0.000000 0.000000 0.062983 0.000000 0.000000
# 5 0.000000 0.000000 0.000000 0.000000 -0.024467 0.000000
# 6 0.000000 0.000000 0.000000 0.000000 0.000000 0.064478
#
#
# Mechanical properties :
#
#
# Convention : Reuss Voigt Hill
#
# Bulk Modulus (GPa) = 58.84702 60.11443 59.48072
# Shear Modulus (GPa) = 30.60375 11.84187 21.22281
#
# Velocity S-wave (km/s) = 4.35989 2.71206 3.63070
# Velocity P-wave (km/s) = 7.86741 6.86625 7.38382
#
# Compressibility (1/GPa) = 0.01699321
#
# Stress axis : x y z
#
# Youngs Moduli (GPa) = 96.83721 89.77398 69.48955
#
# Poissons Ratio (x) = 0.22582 0.15503
# Poissons Ratio (y) = 0.24359 0.32557
# Poissons Ratio (z) = 0.21604 0.42060
#
# Static dielectric constant tensor:
#      x y z
#    x 1.530140 0.000000 0.000000 
#    y 0.000000 1.589970 0.000000 
#    z 0.000000 0.000000 1.535110 
# 
# From -- ./inp_files/19014.got.cif
#   From: 2010.05.17/outbox.cif.g08.bks.cpg/sg69_10_cif.got.tgz:19014.got - 2010.06.03 19:29:58.
