data_PCOD9511812
_publ_section_title
;
Structure prediction by ZEFSAII (Michael W. Deem and Ramdas Pophale) SiO2 
 PCOD9511812
Probable space group: F M M M
;
_chemical_formula_sum "Si O2"
_cell_formula_units_Z 160
_cell_length_a 33.168730
_cell_length_b 30.147723
_cell_length_c 8.721908
_cell_angle_alpha 90.000000
_cell_angle_beta 90.000000
_cell_angle_gamma 90.000000
_cell_volume 8721.573814
_symmetry_space_group_name_H-M "F M M M"
_symmetry_group_IT_number 69
_symmetry_cell_setting 'orthorhombic'
loop_
_space_group_symop_operation_xyz
x,y,z
-x,-y,z
x,-y,-z
-x,y,-z
-x,-y,-z
x,y,-z
-x,y,z
x,-y,z
x,1/2+y,1/2+z
-x,1/2-y,1/2+z
x,1/2-y,1/2-z
-x,1/2+y,1/2-z
-x,1/2-y,1/2-z
x,1/2+y,1/2-z
-x,1/2+y,1/2+z
x,1/2-y,1/2+z
1/2+x,y,1/2+z
1/2-x,-y,1/2+z
1/2+x,-y,1/2-z
1/2-x,y,1/2-z
1/2-x,-y,1/2-z
1/2+x,y,1/2-z
1/2-x,y,1/2+z
1/2+x,-y,1/2+z
1/2+x,1/2+y,z
1/2-x,1/2-y,z
1/2+x,1/2-y,-z
1/2-x,1/2+y,-z
1/2-x,1/2-y,-z
1/2+x,1/2+y,-z
1/2-x,1/2+y,z
1/2+x,1/2-y,z
loop_
_atom_site_type_symbol
_atom_site_label
_atom_site_fract_x
_atom_site_fract_y
_atom_site_fract_z
Si Si1 0.705124 0.700892 0.815620
Si Si2 0.500000 0.578033 0.814536
Si Si3 0.000000 0.676844 0.187826
Si Si4 0.082973 0.709324 0.173989
Si Si5 0.591120 0.449350 0.184782
Si Si6 0.356457 0.870409 0.823046
O O1 0.693628 0.750000 0.750000
O O2 0.750000 0.693147 0.750000
O O3 0.677585 0.659139 0.762280
O O4 0.705102 0.703501 0.000000
O O5 0.500000 0.627293 0.748835
O O6 0.543879 0.558173 0.767353
O O7 0.500000 0.577144 0.000000
O O8 0.960246 0.700778 0.246928
O O9 0.000000 0.675651 0.000000
O O10 0.105251 0.750000 0.250000
O O11 0.106427 0.663879 0.177710
O O12 0.076740 0.722487 0.000000
O O13 0.601722 0.500000 0.224159
O O14 0.623745 0.414754 0.252167
O O15 0.591765 0.444491 0.000000
O O16 0.344122 0.878117 0.000000
#
# Coordination Sequence:
#
# PCOD9511812 Si02
#       6
#    32  16  16  32  32  32
#     4  11  22  39  63  92 124 156 190 228 275 333
#     4  10  19  33  55  79 105 145 194 244 296 345
#     4  10  19  34  48  68 102 143 184 232 280 327
#     4  10  21  33  49  71 103 143 185 228 273 327
#     4  10  21  37  57  82 112 148 193 246 299 348
#     4  11  22  37  57  83 114 149 190 236 285 340
#
# _framework density 18.345313000000001
#
# number of rings (size 3 to 8) (size 9 to 14) (size 15 to 20)
#    0.000    1.600    2.000    4.200    0.000    5.600 
#    0.000    0.000    0.000    2.400    0.000    0.000 
#    0.000    0.000    0.000    0.000    0.000    0.000 
#
# Total GULP energy -222878.286378 kJ/mol
# GULP energy per Si atom -5571.957159 kJ/mol
# Density = 1.830356 g / cm^3
# Si number density = 18.345313 Si / 1000 Ang^3
#
#
#
# Elastic Constant Matrix: (Units=GPa)
#
#
# Indices 1 2 3 4 5 6 
#
# 1 120.1680 55.5343 49.4033 -0.0039 0.0000 -0.0004
# 2 55.5343 154.2539 60.4672 -0.0044 -0.0065 0.0051
# 3 49.4033 60.4672 81.5113 0.0008 -0.0093 0.0084
# 4 -0.0039 -0.0044 0.0008 29.0393 -0.0028 0.0072
# 5 0.0000 -0.0065 -0.0093 -0.0028 25.0543 -0.0032
# 6 -0.0004 0.0051 0.0084 0.0072 -0.0032 5.1739
#
#
#
# Elastic Compliance Matrix: (Units=1/GPa)
#
#
# Indices 1 2 3 4 5 6 
#
# 1 0.011499 -0.001985 -0.005497 0.000001 -0.000003 0.000012
# 2 -0.001985 0.009484 -0.005832 0.000001 0.000000 0.000000
# 3 -0.005497 -0.005832 0.019926 -0.000002 0.000006 -0.000027
# 4 0.000001 0.000001 -0.000002 0.034436 0.000004 -0.000048
# 5 -0.000003 0.000000 0.000006 0.000004 0.039913 0.000025
# 6 0.000012 0.000000 -0.000027 -0.000048 0.000025 0.193278
#
#
# Mechanical properties :
#
#
# Convention : Reuss Voigt Hill
#
# Bulk Modulus (GPa) = 70.02399 76.30475 73.16437
# Shear Modulus (GPa) = 14.70915 24.55540 19.63227
#
# Velocity S-wave (km/s) = 2.83467 3.66254 3.27487
# Velocity P-wave (km/s) = 6.99761 7.71812 7.36668
#
# Compressibility (1/GPa) = 0.01428082
#
# Stress axis : x y z
#
# Youngs Moduli (GPa) = 86.96480 105.44471 50.18526
#
# Poissons Ratio (x) = 0.20932 0.27586
# Poissons Ratio (y) = 0.17263 0.29268
# Poissons Ratio (z) = 0.47803 0.61496
#
# Static dielectric constant tensor:
#      x y z
#    x 1.671940 0.000000 0.000000 
#    y 0.000000 1.615530 -0.000010 
#    z 0.000000 -0.000010 1.660790 
# 
# From -- ./inp_files/5715.got.cif
#   From: 2010.05.17/outbox.cif.g08.bks.cpg/sg69_3_cif.got.tgz:5715.got - 2010.06.03 19:29:58.
