data_PCOD9511606
_publ_section_title
;
Structure prediction by ZEFSAII (Michael W. Deem and Ramdas Pophale) SiO2 
 PCOD9511606
Probable space group: F M M M
;
_chemical_formula_sum "Si O2"
_cell_formula_units_Z 208
_cell_length_a 27.828905
_cell_length_b 19.369979
_cell_length_c 21.272768
_cell_angle_alpha 90.000000
_cell_angle_beta 90.000000
_cell_angle_gamma 90.000000
_cell_volume 11466.985724
_symmetry_space_group_name_H-M "F M M M"
_symmetry_group_IT_number 69
_symmetry_cell_setting 'orthorhombic'
loop_
_space_group_symop_operation_xyz
x,y,z
-x,-y,z
x,-y,-z
-x,y,-z
-x,-y,-z
x,y,-z
-x,y,z
x,-y,z
x,1/2+y,1/2+z
-x,1/2-y,1/2+z
x,1/2-y,1/2-z
-x,1/2+y,1/2-z
-x,1/2-y,1/2-z
x,1/2+y,1/2-z
-x,1/2+y,1/2+z
x,1/2-y,1/2+z
1/2+x,y,1/2+z
1/2-x,-y,1/2+z
1/2+x,-y,1/2-z
1/2-x,y,1/2-z
1/2-x,-y,1/2-z
1/2+x,y,1/2-z
1/2-x,y,1/2+z
1/2+x,-y,1/2+z
1/2+x,1/2+y,z
1/2-x,1/2-y,z
1/2+x,1/2-y,-z
1/2-x,1/2+y,-z
1/2-x,1/2-y,-z
1/2+x,1/2+y,-z
1/2-x,1/2+y,z
1/2+x,1/2-y,z
loop_
_atom_site_type_symbol
_atom_site_label
_atom_site_fract_x
_atom_site_fract_y
_atom_site_fract_z
Si Si1 0.500000 0.080675 0.424775
Si Si2 0.443059 0.577133 0.603302
Si Si3 0.726022 0.677437 0.423990
Si Si4 0.442849 0.920966 0.746769
Si Si5 0.905693 0.347310 0.632817
Si Si6 0.618569 0.705595 0.572177
Si Si7 0.311682 0.919026 0.424194
O O1 0.500000 0.082970 0.500000
O O2 0.452102 0.118098 0.400236
O O3 0.500000 0.000000 0.405441
O O4 0.500000 0.581388 0.591392
O O5 0.426986 0.500000 0.584358
O O6 0.435749 0.583838 0.678583
O O7 0.415620 0.639663 0.572102
O O8 0.724841 0.673666 0.500000
O O9 0.750000 0.750000 0.406393
O O10 0.670721 0.680255 0.404106
O O11 0.761850 0.616889 0.403491
O O12 0.500000 0.911446 0.735477
O O13 0.413601 0.866539 0.705657
O O14 0.430664 0.000000 0.727697
O O15 0.901989 0.267128 0.614662
O O16 0.857115 0.382125 0.607125
O O17 0.623862 0.731982 0.500000
O O18 0.315880 0.910679 0.500000
O O19 0.311832 0.000000 0.410226
#
# Coordination Sequence:
#
# PCOD9511606 Si02
#       7
#    16  32  32  32  32  32  32
#     4  11  22  32  44  71 117 159 182 213 263 323
#     4   9  21  41  61  80 105 142 190 240 282 322
#     4   9  17  34  53  72 105 144 181 221 270 320
#     4   9  18  36  58  78 106 147 192 231 267 313
#     4  12  21  32  52  82 115 148 181 218 268 331
#     4  11  23  36  56  84 115 147 179 225 283 338
#     4  10  19  31  51  79 109 143 185 226 267 325
#
# _framework density 18.139030999999999
#
# number of rings (size 3 to 8) (size 9 to 14) (size 15 to 20)
#    0.000    1.923    2.308    3.692    1.077    3.077 
#    0.000    3.846    0.000    0.923    0.000    3.231 
#    0.000    0.000    0.000    0.000    0.000    0.000 
#
# Total GULP energy -290188.542127 kJ/mol
# GULP energy per Si atom -5580.548887 kJ/mol
# Density = 1.809775 g / cm^3
# Si number density = 18.139031 Si / 1000 Ang^3
#
#
#
# Elastic Constant Matrix: (Units=GPa)
#
#
# Indices 1 2 3 4 5 6 
#
# 1 90.7998 59.5216 15.1760 0.0000 0.0000 0.0000
# 2 59.5216 119.8233 16.5918 0.0000 0.0000 0.0000
# 3 15.1760 16.5918 29.8741 0.0000 0.0000 0.0000
# 4 0.0000 0.0000 0.0000 25.0379 0.0000 0.0000
# 5 0.0000 0.0000 0.0000 0.0000 6.2015 0.0000
# 6 0.0000 0.0000 0.0000 0.0000 0.0000 32.1812
#
#
#
# Elastic Compliance Matrix: (Units=1/GPa)
#
#
# Indices 1 2 3 4 5 6 
#
# 1 0.016810 -0.007765 -0.004227 0.000000 0.000000 0.000000
# 2 -0.007765 0.012628 -0.003069 0.000000 0.000000 0.000000
# 3 -0.004227 -0.003069 0.037325 0.000000 0.000000 0.000000
# 4 0.000000 0.000000 0.000000 0.039939 0.000000 0.000000
# 5 0.000000 0.000000 0.000000 0.000000 0.161252 0.000000
# 6 0.000000 0.000000 0.000000 0.000000 0.000000 0.031074
#
#
# Mechanical properties :
#
#
# Convention : Reuss Voigt Hill
#
# Bulk Modulus (GPa) = 27.29109 47.00844 37.14976
# Shear Modulus (GPa) = 14.64717 22.63131 18.63924
#
# Velocity S-wave (km/s) = 2.84473 3.53605 3.20906
# Velocity P-wave (km/s) = 5.08607 6.53019 5.85284
#
# Compressibility (1/GPa) = 0.03664199
#
# Stress axis : x y z
#
# Youngs Moduli (GPa) = 59.48919 79.19079 26.79143
#
# Poissons Ratio (x) = 0.61491 0.11324
# Poissons Ratio (y) = 0.46193 0.08222
# Poissons Ratio (z) = 0.25145 0.24302
#
# Static dielectric constant tensor:
#      x y z
#    x 1.608170 0.000000 0.000000 
#    y 0.000000 1.614240 0.000000 
#    z 0.000000 0.000000 1.649100 
# 
# From -- ./inp_files/38481.got.cif
#   From: 2010.05.17/outbox.cif.g08.bks.cpg/sg69_20_cif.got.tgz:38481.got - 2010.06.03 19:29:58.
