data_PCOD9511457
_publ_section_title
;
Structure prediction by ZEFSAII (Michael W. Deem and Ramdas Pophale) SiO2 
 PCOD9511457
Probable space group: F M M M
;
_chemical_formula_sum "Si O2"
_cell_formula_units_Z 184
_cell_length_a 27.120502
_cell_length_b 22.032377
_cell_length_c 15.168914
_cell_angle_alpha 90.000000
_cell_angle_beta 90.000000
_cell_angle_gamma 90.000000
_cell_volume 9063.867902
_symmetry_space_group_name_H-M "F M M M"
_symmetry_group_IT_number 69
_symmetry_cell_setting 'orthorhombic'
loop_
_space_group_symop_operation_xyz
x,y,z
-x,-y,z
x,-y,-z
-x,y,-z
-x,-y,-z
x,y,-z
-x,y,z
x,-y,z
x,1/2+y,1/2+z
-x,1/2-y,1/2+z
x,1/2-y,1/2-z
-x,1/2+y,1/2-z
-x,1/2-y,1/2-z
x,1/2+y,1/2-z
-x,1/2+y,1/2+z
x,1/2-y,1/2+z
1/2+x,y,1/2+z
1/2-x,-y,1/2+z
1/2+x,-y,1/2-z
1/2-x,y,1/2-z
1/2-x,-y,1/2-z
1/2+x,y,1/2-z
1/2-x,y,1/2+z
1/2+x,-y,1/2+z
1/2+x,1/2+y,z
1/2-x,1/2-y,z
1/2+x,1/2-y,-z
1/2-x,1/2+y,-z
1/2-x,1/2-y,-z
1/2+x,1/2+y,-z
1/2-x,1/2+y,z
1/2+x,1/2-y,z
loop_
_atom_site_type_symbol
_atom_site_label
_atom_site_fract_x
_atom_site_fract_y
_atom_site_fract_z
Si Si1 0.397368 0.000000 0.500000
Si Si2 0.838985 0.431987 0.838981
Si Si3 0.767905 0.570351 0.398732
Si Si4 0.500000 0.931203 0.892008
Si Si5 0.627814 0.400764 0.146989
Si Si6 0.415173 0.342817 0.397180
Si Si7 0.558245 0.291118 0.892478
O O1 0.394749 0.947184 0.423044
O O2 0.848064 0.500000 0.877047
O O3 0.780061 0.423469 0.838714
O O4 0.862899 0.428824 0.742831
O O5 0.862795 0.375289 0.888963
O O6 0.751205 0.576935 0.500000
O O7 0.785874 0.500000 0.389935
O O8 0.815501 0.611582 0.383490
O O9 0.453232 0.892708 0.861536
O O10 0.500000 0.000000 0.859948
O O11 0.500000 0.934192 0.000000
O O12 0.592901 0.342404 0.148846
O O13 0.427751 0.336666 0.500000
O O14 0.423576 0.275517 0.361793
O O15 0.500000 0.297961 0.872506
O O16 0.563230 0.295525 0.000000
#
# Coordination Sequence:
#
# PCOD9511457 Si02
#       7
#     8  32  32  16  32  32  32
#     4  12  20  40  67  88 120 160 210 257 306 358
#     4  11  23  35  58  93 127 156 197 249 307 362
#     4  10  18  35  61  90 123 160 196 242 310 376
#     4   9  16  30  58  83 112 156 194 237 296 355
#     4  12  21  39  63  90 122 160 205 256 307 355
#     4  10  20  38  58  86 122 156 200 245 298 370
#     4  10  21  40  65  87 113 165 214 251 302 368
#
# _framework density 20.300384000000001
#
# number of rings (size 3 to 8) (size 9 to 14) (size 15 to 20)
#    0.000    1.478    4.348    1.565    0.000    3.826 
#    1.565    2.609    0.000    5.217    0.000    0.000 
#    0.000    0.000    0.000    0.000    0.000    0.000 
#
# Total GULP energy -256145.625232 kJ/mol
# GULP energy per Si atom -5568.383157 kJ/mol
# Density = 2.025418 g / cm^3
# Si number density = 20.300384 Si / 1000 Ang^3
#
#
#
# Elastic Constant Matrix: (Units=GPa)
#
#
# Indices 1 2 3 4 5 6 
#
# 1 110.2241 80.5548 9.3017 0.0000 0.0000 0.0000
# 2 80.5548 167.6635 24.2061 0.0000 0.0000 0.0000
# 3 9.3017 24.2061 44.3040 0.0000 0.0000 0.0000
# 4 0.0000 0.0000 0.0000 20.0657 0.0000 0.0000
# 5 0.0000 0.0000 0.0000 0.0000 28.6833 0.0000
# 6 0.0000 0.0000 0.0000 0.0000 0.0000 17.0550
#
#
#
# Elastic Compliance Matrix: (Units=1/GPa)
#
#
# Indices 1 2 3 4 5 6 
#
# 1 0.014008 -0.006846 0.000799 0.000000 0.000000 0.000000
# 2 -0.006846 0.009820 -0.003928 0.000000 0.000000 0.000000
# 3 0.000799 -0.003928 0.024550 0.000000 0.000000 0.000000
# 4 0.000000 0.000000 0.000000 0.049836 0.000000 0.000000
# 5 0.000000 0.000000 0.000000 0.000000 0.034863 0.000000
# 6 0.000000 0.000000 0.000000 0.000000 0.000000 0.058634
#
#
# Mechanical properties :
#
#
# Convention : Reuss Voigt Hill
#
# Bulk Modulus (GPa) = 35.17556 61.14630 48.16093
# Shear Modulus (GPa) = 22.61035 27.03606 24.82321
#
# Velocity S-wave (km/s) = 3.34097 3.65334 3.50064
# Velocity P-wave (km/s) = 5.67872 6.92691 6.33364
#
# Compressibility (1/GPa) = 0.02842883
#
# Stress axis : x y z
#
# Youngs Moduli (GPa) = 71.38830 101.82831 40.73349
#
# Poissons Ratio (x) = 0.69707 -0.03255
# Poissons Ratio (y) = 0.48869 0.16001
# Poissons Ratio (z) = -0.05705 0.40001
#
# Static dielectric constant tensor:
#      x y z
#    x 1.762450 0.000000 0.000000 
#    y 0.000000 1.698690 0.000000 
#    z 0.000000 0.000000 1.783020 
# 
# From -- ./inp_files/26918.got.cif
#   From: 2010.05.17/outbox.cif.g08.bks.cpg/sg69_14_cif.got.tgz:26918.got - 2010.06.03 19:29:58.
