data_PCOD9511382
_publ_section_title
;
Structure prediction by ZEFSAII (Michael W. Deem and Ramdas Pophale) SiO2 
 PCOD9511382
Probable space group: F M M M
;
_chemical_formula_sum "Si O2"
_cell_formula_units_Z 176
_cell_length_a 14.977561
_cell_length_b 24.813547
_cell_length_c 24.490457
_cell_angle_alpha 90.000000
_cell_angle_beta 90.000000
_cell_angle_gamma 90.000000
_cell_volume 9101.790517
_symmetry_space_group_name_H-M "F M M M"
_symmetry_group_IT_number 69
_symmetry_cell_setting 'orthorhombic'
loop_
_space_group_symop_operation_xyz
x,y,z
-x,-y,z
x,-y,-z
-x,y,-z
-x,-y,-z
x,y,-z
-x,y,z
x,-y,z
x,1/2+y,1/2+z
-x,1/2-y,1/2+z
x,1/2-y,1/2-z
-x,1/2+y,1/2-z
-x,1/2-y,1/2-z
x,1/2+y,1/2-z
-x,1/2+y,1/2+z
x,1/2-y,1/2+z
1/2+x,y,1/2+z
1/2-x,-y,1/2+z
1/2+x,-y,1/2-z
1/2-x,y,1/2-z
1/2-x,-y,1/2-z
1/2+x,y,1/2-z
1/2-x,y,1/2+z
1/2+x,-y,1/2+z
1/2+x,1/2+y,z
1/2-x,1/2-y,z
1/2+x,1/2-y,-z
1/2-x,1/2+y,-z
1/2-x,1/2-y,-z
1/2+x,1/2+y,-z
1/2-x,1/2+y,z
1/2+x,1/2-y,z
loop_
_atom_site_type_symbol
_atom_site_label
_atom_site_fract_x
_atom_site_fract_y
_atom_site_fract_z
Si Si1 0.852553 0.829193 0.232514
Si Si2 0.398281 0.934793 0.500000
Si Si3 0.252206 0.063107 0.085129
Si Si4 0.893287 0.344232 0.936866
Si Si5 0.172836 0.941699 0.795346
Si Si6 0.601259 0.233017 0.159964
O O1 0.750000 0.832985 0.250000
O O2 0.884221 0.888673 0.216890
O O3 0.898987 0.804732 0.285978
O O4 0.854807 0.787615 0.182167
O O5 0.500000 0.913922 0.500000
O O6 0.335998 0.920186 0.551239
O O7 0.404778 0.000000 0.500000
O O8 0.334402 0.102141 0.071844
O O9 0.224498 0.066466 0.147965
O O10 0.271964 0.000000 0.072261
O O11 0.863048 0.300172 0.891783
O O12 0.000000 0.354035 0.928123
O O13 0.882170 0.326700 0.000000
O O14 0.250000 0.944807 0.750000
O O15 0.126165 0.000000 0.797141
O O16 0.500000 0.247632 0.146051
#
# Coordination Sequence:
#
# PCOD9511382 Si02
#       6
#    32  16  32  32  32  32
#     4  10  18  32  57  80 105 139 188 233 270 331
#     4   9  18  34  55  77 102 143 200 246 278 327
#     4  10  19  34  56  79 111 152 190 231 284 340
#     4  10  20  33  52  81 114 146 185 233 285 340
#     4   9  18  32  54  84 114 144 180 228 286 344
#     4  10  20  34  53  77 108 147 186 228 277 328
#
# _framework density 19.336855
#
# number of rings (size 3 to 8) (size 9 to 14) (size 15 to 20)
#    0.000    2.273    0.909    4.364    0.000    0.364 
#    0.000    2.727    2.000    9.818    0.000    5.091 
#    0.000    0.000    0.000    0.000    0.000    0.000 
#
# Total GULP energy -245169.840276 kJ/mol
# GULP energy per Si atom -5572.041824 kJ/mol
# Density = 1.929284 g / cm^3
# Si number density = 19.336855 Si / 1000 Ang^3
#
#
#
# Elastic Constant Matrix: (Units=GPa)
#
#
# Indices 1 2 3 4 5 6 
#
# 1 69.9668 31.7751 31.1626 0.0000 0.0000 0.0000
# 2 31.7751 151.0265 51.9015 0.0000 0.0000 0.0000
# 3 31.1626 51.9015 143.0517 0.0000 0.0000 0.0000
# 4 0.0000 0.0000 0.0000 31.6441 0.0000 0.0000
# 5 0.0000 0.0000 0.0000 0.0000 17.9077 0.0000
# 6 0.0000 0.0000 0.0000 0.0000 0.0000 39.3743
#
#
#
# Elastic Compliance Matrix: (Units=1/GPa)
#
#
# Indices 1 2 3 4 5 6 
#
# 1 0.016664 -0.002580 -0.002694 0.000000 0.000000 0.000000
# 2 -0.002580 0.007964 -0.002327 0.000000 0.000000 0.000000
# 3 -0.002694 -0.002327 0.008422 0.000000 0.000000 0.000000
# 4 0.000000 0.000000 0.000000 0.031602 0.000000 0.000000
# 5 0.000000 0.000000 0.000000 0.000000 0.055842 0.000000
# 6 0.000000 0.000000 0.000000 0.000000 0.000000 0.025397
#
#
# Mechanical properties :
#
#
# Convention : Reuss Voigt Hill
#
# Bulk Modulus (GPa) = 56.03273 65.96928 61.00101
# Shear Modulus (GPa) = 29.93244 34.39895 32.16569
#
# Velocity S-wave (km/s) = 3.93867 4.22231 4.08295
# Velocity P-wave (km/s) = 7.05154 7.61318 7.33773
#
# Compressibility (1/GPa) = 0.01784671
#
# Stress axis : x y z
#
# Youngs Moduli (GPa) = 60.00899 125.56424 118.73999
#
# Poissons Ratio (x) = 0.32399 0.31988
# Poissons Ratio (y) = 0.15484 0.27636
# Poissons Ratio (z) = 0.16166 0.29224
#
# Static dielectric constant tensor:
#      x y z
#    x 1.683880 0.000000 0.000000 
#    y 0.000000 1.735260 0.000000 
#    z 0.000000 0.000000 1.674300 
# 
# From -- ./inp_files/36060.got.cif
#   From: 2010.05.17/outbox.cif.g08.bks.cpg/sg69_19_cif.got.tgz:36060.got - 2010.06.03 19:29:58.
