data_PCOD9511347
_publ_section_title
;
Structure prediction by ZEFSAII (Michael W. Deem and Ramdas Pophale) SiO2 
 PCOD9511347
Probable space group: F M M M
;
_chemical_formula_sum "Si O2"
_cell_formula_units_Z 160
_cell_length_a 16.730966
_cell_length_b 22.692963
_cell_length_c 23.665705
_cell_angle_alpha 90.000000
_cell_angle_beta 90.000000
_cell_angle_gamma 90.000000
_cell_volume 8985.281099
_symmetry_space_group_name_H-M "F M M M"
_symmetry_group_IT_number 69
_symmetry_cell_setting 'orthorhombic'
loop_
_space_group_symop_operation_xyz
x,y,z
-x,-y,z
x,-y,-z
-x,y,-z
-x,-y,-z
x,y,-z
-x,y,z
x,-y,z
x,1/2+y,1/2+z
-x,1/2-y,1/2+z
x,1/2-y,1/2-z
-x,1/2+y,1/2-z
-x,1/2-y,1/2-z
x,1/2+y,1/2-z
-x,1/2+y,1/2+z
x,1/2-y,1/2+z
1/2+x,y,1/2+z
1/2-x,-y,1/2+z
1/2+x,-y,1/2-z
1/2-x,y,1/2-z
1/2-x,-y,1/2-z
1/2+x,y,1/2-z
1/2-x,y,1/2+z
1/2+x,-y,1/2+z
1/2+x,1/2+y,z
1/2-x,1/2-y,z
1/2+x,1/2-y,-z
1/2-x,1/2+y,-z
1/2-x,1/2-y,-z
1/2+x,1/2+y,-z
1/2-x,1/2+y,z
1/2+x,1/2-y,z
loop_
_atom_site_type_symbol
_atom_site_label
_atom_site_fract_x
_atom_site_fract_y
_atom_site_fract_z
Si Si1 0.095176 0.871008 0.749985
Si Si2 0.907201 0.500000 0.115085
Si Si3 0.694431 0.693616 0.841047
Si Si4 0.595338 0.742267 0.564522
Si Si5 0.592056 0.500000 0.751910
Si Si6 0.155688 0.373617 0.122880
O O1 0.144013 0.824962 0.786739
O O2 0.125798 0.936533 0.768083
O O3 0.110408 0.865449 0.683135
O O4 0.000000 0.866852 0.759799
O O5 0.908901 0.500000 0.183699
O O6 0.863447 0.561093 0.100375
O O7 0.000000 0.500000 0.096062
O O8 0.750000 0.750000 0.828464
O O9 0.636834 0.713850 0.891565
O O10 0.752777 0.641553 0.862155
O O11 0.618131 0.755396 0.500000
O O12 0.500000 0.745160 0.569743
O O13 0.624195 0.676784 0.581176
O O14 0.500000 0.500000 0.771116
#
# Coordination Sequence:
#
# PCOD9511347 Si02
#       6
#    32  16  32  32  16  32
#     4  10  18  32  52  75 104 136 170 205 248 298
#     4   9  16  31  52  75 104 137 170 201 244 296
#     4  10  22  34  48  74 106 135 168 208 253 298
#     4  10  21  38  57  74  94 128 173 213 252 300
#     4   7  14  27  47  72  97 128 163 201 239 285
#     4  10  20  33  52  77 106 136 165 205 254 301
#
# _framework density 17.806899999999999
#
# number of rings (size 3 to 8) (size 9 to 14) (size 15 to 20)
#    0.000    2.400    0.000    4.200    0.000   10.000 
#    0.000    8.500    0.000    1.800    0.000    2.100 
#    0.000    8.800    0.000    0.000    0.000    0.000 
#
# Total GULP energy -223102.370015 kJ/mol
# GULP energy per Si atom -5577.559250 kJ/mol
# Density = 1.776637 g / cm^3
# Si number density = 17.806900 Si / 1000 Ang^3
#
#
#
# Elastic Constant Matrix: (Units=GPa)
#
#
# Indices 1 2 3 4 5 6 
#
# 1 45.5613 9.0151 4.9761 0.0000 0.0000 0.0000
# 2 9.0151 42.7794 0.7669 0.0000 0.0000 0.0000
# 3 4.9761 0.7669 39.8702 0.0000 0.0000 0.0000
# 4 0.0000 0.0000 0.0000 1.0371 0.0000 0.0000
# 5 0.0000 0.0000 0.0000 0.0000 1.1145 0.0000
# 6 0.0000 0.0000 0.0000 0.0000 0.0000 24.0235
#
#
#
# Elastic Compliance Matrix: (Units=1/GPa)
#
#
# Indices 1 2 3 4 5 6 
#
# 1 0.023213 -0.004841 -0.002804 0.000000 0.000000 0.000000
# 2 -0.004841 0.024394 0.000135 0.000000 0.000000 0.000000
# 3 -0.002804 0.000135 0.025429 0.000000 0.000000 0.000000
# 4 0.000000 0.000000 0.000000 0.964230 0.000000 0.000000
# 5 0.000000 0.000000 0.000000 0.000000 0.897243 0.000000
# 6 0.000000 0.000000 0.000000 0.000000 0.000000 0.041626
#
#
# Mechanical properties :
#
#
# Convention : Reuss Voigt Hill
#
# Bulk Modulus (GPa) = 17.23716 17.52524 17.38120
# Shear Modulus (GPa) = 2.48695 12.79854 7.64275
#
# Velocity S-wave (km/s) = 1.18307 2.68384 2.07397
# Velocity P-wave (km/s) = 3.40107 4.41217 3.93919
#
# Compressibility (1/GPa) = 0.05801420
#
# Stress axis : x y z
#
# Youngs Moduli (GPa) = 43.07995 40.99440 39.32560
#
# Poissons Ratio (x) = 0.19847 0.11027
# Poissons Ratio (y) = 0.20857 -0.00531
# Poissons Ratio (z) = 0.12080 -0.00554
#
# Static dielectric constant tensor:
#      x y z
#    x 1.612610 0.000000 0.000000 
#    y 0.000000 1.645320 0.000000 
#    z 0.000000 0.000000 1.578330 
# 
# From -- ./inp_files/17797.got.cif
#   From: 2010.05.17/outbox.cif.g08.bks.cpg/sg69_9_cif.got.tgz:17797.got - 2010.06.03 19:29:58.
