data_PCOD9511668
_publ_section_title
;
Structure prediction by ZEFSAII (Michael W. Deem and Ramdas Pophale) SiO2 
 PCOD9511668
Probable space group: F M M M
;
_chemical_formula_sum "Si O2"
_cell_formula_units_Z 192
_cell_length_a 16.183895
_cell_length_b 26.887389
_cell_length_c 25.936970
_cell_angle_alpha 90.000000
_cell_angle_beta 90.000000
_cell_angle_gamma 90.000000
_cell_volume 11286.282647
_symmetry_space_group_name_H-M "F M M M"
_symmetry_group_IT_number 69
_symmetry_cell_setting 'orthorhombic'
loop_
_space_group_symop_operation_xyz
x,y,z
-x,-y,z
x,-y,-z
-x,y,-z
-x,-y,-z
x,y,-z
-x,y,z
x,-y,z
x,1/2+y,1/2+z
-x,1/2-y,1/2+z
x,1/2-y,1/2-z
-x,1/2+y,1/2-z
-x,1/2-y,1/2-z
x,1/2+y,1/2-z
-x,1/2+y,1/2+z
x,1/2-y,1/2+z
1/2+x,y,1/2+z
1/2-x,-y,1/2+z
1/2+x,-y,1/2-z
1/2-x,y,1/2-z
1/2-x,-y,1/2-z
1/2+x,y,1/2-z
1/2-x,y,1/2+z
1/2+x,-y,1/2+z
1/2+x,1/2+y,z
1/2-x,1/2-y,z
1/2+x,1/2-y,-z
1/2-x,1/2+y,-z
1/2-x,1/2-y,-z
1/2+x,1/2+y,-z
1/2-x,1/2+y,z
1/2+x,1/2-y,z
loop_
_atom_site_type_symbol
_atom_site_label
_atom_site_fract_x
_atom_site_fract_y
_atom_site_fract_z
Si Si1 0.848594 0.762342 0.442291
Si Si2 0.824327 0.100701 0.061239
Si Si3 0.591111 0.179096 0.373419
Si Si4 0.247534 0.810617 0.689234
Si Si5 0.148864 0.632386 0.897528
Si Si6 0.000000 0.438483 0.936229
Si Si7 0.406746 0.000000 0.562738
O O1 0.870938 0.746591 0.500000
O O2 0.750000 0.750000 0.436157
O O3 0.897890 0.732854 0.399124
O O4 0.865125 0.820301 0.434618
O O5 0.888303 0.141966 0.080088
O O6 0.735213 0.109217 0.084970
O O7 0.859467 0.048577 0.079251
O O8 0.817304 0.102091 0.000000
O O9 0.500000 0.172052 0.352252
O O10 0.665192 0.171623 0.333805
O O11 0.250000 0.820421 0.750000
O O12 0.250000 0.750000 0.682292
O O13 0.174378 0.839450 0.657275
O O14 0.077988 0.591046 0.909218
O O15 0.000000 0.500000 0.928240
O O16 0.000000 0.431760 0.000000
O O17 0.500000 0.000000 0.581299
O O18 0.408634 0.000000 0.500000
#
# Coordination Sequence:
#
# PCOD9511668 Si02
#       7
#    32  32  32  32  32  16  16
#     4  11  19  31  50  77 116 157 186 216 269 347
#     4  10  19  32  52  75 109 153 183 222 281 343
#     4  11  21  33  51  83 114 143 186 233 282 341
#     4  10  20  40  61  83 115 153 192 239 294 356
#     4  11  21  38  56  81 113 154 197 237 286 339
#     4  11  26  42  60  89 122 156 206 254 286 342
#     4   9  18  30  46  73 104 139 185 222 264 330
#
# _framework density 17.011801999999999
#
# number of rings (size 3 to 8) (size 9 to 14) (size 15 to 20)
#    0.000    1.500    5.000    2.500    2.333    2.000 
#    1.500    0.833    0.000    0.500    0.000    0.000 
#    0.000    0.000    0.000    0.000    0.000    0.000 
#
# Total GULP energy -267206.931398 kJ/mol
# GULP energy per Si atom -5566.811071 kJ/mol
# Density = 1.697308 g / cm^3
# Si number density = 17.011802 Si / 1000 Ang^3
#
#
#
# Elastic Constant Matrix: (Units=GPa)
#
#
# Indices 1 2 3 4 5 6 
#
# 1 76.6506 47.4334 28.5165 0.0000 0.0000 0.0000
# 2 47.4334 120.2570 20.6356 0.0000 0.0000 0.0000
# 3 28.5165 20.6356 99.0877 0.0000 0.0000 0.0000
# 4 0.0000 0.0000 0.0000 31.6532 0.0000 0.0000
# 5 0.0000 0.0000 0.0000 0.0000 9.5739 0.0000
# 6 0.0000 0.0000 0.0000 0.0000 0.0000 -229.0144
#
#
#
# Elastic Compliance Matrix: (Units=1/GPa)
#
#
# Indices 1 2 3 4 5 6 
#
# 1 0.018658 -0.006677 -0.003979 0.000000 0.000000 0.000000
# 2 -0.006677 0.011013 -0.000372 0.000000 0.000000 0.000000
# 3 -0.003979 -0.000372 0.011315 0.000000 0.000000 0.000000
# 4 0.000000 0.000000 0.000000 0.031592 0.000000 0.000000
# 5 0.000000 0.000000 0.000000 0.000000 0.104450 0.000000
# 6 0.000000 0.000000 0.000000 0.000000 0.000000 -0.004367
#
#
# Mechanical properties :
#
#
# Convention : Reuss Voigt Hill
#
# Bulk Modulus (GPa) = 52.82591 54.35179 53.58885
# Shear Modulus (GPa) = 24.87216 -24.26348 0.30434
#
# Velocity S-wave (km/s) = 3.82783 -3.78070 0.42343
# Velocity P-wave (km/s) = 7.11732 3.60008 5.63990
#
# Compressibility (1/GPa) = 0.01893011
#
# Stress axis : x y z
#
# Youngs Moduli (GPa) = 53.59543 90.80300 88.38033
#
# Poissons Ratio (x) = 0.60626 0.35169
# Poissons Ratio (y) = 0.35784 0.03288
# Poissons Ratio (z) = 0.21327 0.03378
#
# Static dielectric constant tensor:
#      x y z
#    x 1.600390 0.000000 0.000000 
#    y 0.000000 1.625370 0.000000 
#    z 0.000000 0.000000 1.581990 
# 
# From -- ./inp_files/41165.got.cif
#   From: 2010.05.17/outbox.cif.g08.bks.cpg/sg69_21_cif.got.tgz:41165.got - 2010.06.03 19:29:58.
