data_PCOD9511610
_publ_section_title
;
Structure prediction by ZEFSAII (Michael W. Deem and Ramdas Pophale) SiO2 
 PCOD9511610
Probable space group: F M M M
;
_chemical_formula_sum "Si O2"
_cell_formula_units_Z 112
_cell_length_a 24.206977
_cell_length_b 18.261364
_cell_length_c 13.454554
_cell_angle_alpha 90.000000
_cell_angle_beta 90.000000
_cell_angle_gamma 90.000000
_cell_volume 5947.618133
_symmetry_space_group_name_H-M "F M M M"
_symmetry_group_IT_number 69
_symmetry_cell_setting 'orthorhombic'
loop_
_space_group_symop_operation_xyz
x,y,z
-x,-y,z
x,-y,-z
-x,y,-z
-x,-y,-z
x,y,-z
-x,y,z
x,-y,z
x,1/2+y,1/2+z
-x,1/2-y,1/2+z
x,1/2-y,1/2-z
-x,1/2+y,1/2-z
-x,1/2-y,1/2-z
x,1/2+y,1/2-z
-x,1/2+y,1/2+z
x,1/2-y,1/2+z
1/2+x,y,1/2+z
1/2-x,-y,1/2+z
1/2+x,-y,1/2-z
1/2-x,y,1/2-z
1/2-x,-y,1/2-z
1/2+x,y,1/2-z
1/2-x,y,1/2+z
1/2+x,-y,1/2+z
1/2+x,1/2+y,z
1/2-x,1/2-y,z
1/2+x,1/2-y,-z
1/2-x,1/2+y,-z
1/2-x,1/2-y,-z
1/2+x,1/2+y,-z
1/2-x,1/2+y,z
1/2+x,1/2-y,z
loop_
_atom_site_type_symbol
_atom_site_label
_atom_site_fract_x
_atom_site_fract_y
_atom_site_fract_z
Si Si1 0.351525 0.313511 0.887226
Si Si2 0.563757 0.587541 0.500000
Si Si3 0.362846 0.352583 0.677595
Si Si4 0.253600 0.417673 0.386604
O O1 0.383895 0.344457 0.790933
O O2 0.345500 0.227589 0.863592
O O3 0.293105 0.355769 0.883125
O O4 0.373311 0.323018 0.000000
O O5 0.566220 0.500000 0.500000
O O6 0.500000 0.611270 0.500000
O O7 0.594305 0.615873 0.598784
O O8 0.306881 0.400144 0.678554
O O9 0.275160 0.416622 0.500000
O O10 0.231976 0.500000 0.368844
#
# Coordination Sequence:
#
# PCOD9511610 Si02
#       4
#    32  16  32  32
#     4  10  21  35  54  85 122 153 194 228 278 353
#     4  11  24  42  65  90 111 141 198 259 298 332
#     4  11  20  36  60  80 116 159 194 238 291 338
#     4  10  19  31  51  83 121 161 197 230 275 341
#
# _framework density 18.831067000000001
#
# number of rings (size 3 to 8) (size 9 to 14) (size 15 to 20)
#    0.000    1.571    2.857    2.571    0.000    8.000 
#    0.000    2.857    0.000    0.000    0.000    2.000 
#    0.000    0.000    0.000    0.000    0.000    0.000 
#
# Total GULP energy -156155.628502 kJ/mol
# GULP energy per Si atom -5576.986732 kJ/mol
# Density = 1.878821 g / cm^3
# Si number density = 18.831067 Si / 1000 Ang^3
#
#
#
# Elastic Constant Matrix: (Units=GPa)
#
#
# Indices 1 2 3 4 5 6 
#
# 1 55.2999 35.5633 27.4608 0.0000 0.0000 0.0000
# 2 35.5633 82.3866 25.9867 0.0000 0.0000 0.0000
# 3 27.4608 25.9867 184.3799 0.0000 0.0000 0.0000
# 4 0.0000 0.0000 0.0000 24.7328 0.0000 0.0000
# 5 0.0000 0.0000 0.0000 0.0000 9.4656 0.0000
# 6 0.0000 0.0000 0.0000 0.0000 0.0000 2.9819
#
#
#
# Elastic Compliance Matrix: (Units=1/GPa)
#
#
# Indices 1 2 3 4 5 6 
#
# 1 0.026007 -0.010470 -0.002398 0.000000 0.000000 0.000000
# 2 -0.010470 0.016918 -0.000825 0.000000 0.000000 0.000000
# 3 -0.002398 -0.000825 0.005897 0.000000 0.000000 0.000000
# 4 0.000000 0.000000 0.000000 0.040432 0.000000 0.000000
# 5 0.000000 0.000000 0.000000 0.000000 0.105646 0.000000
# 6 0.000000 0.000000 0.000000 0.000000 0.000000 0.335362
#
#
# Mechanical properties :
#
#
# Convention : Reuss Voigt Hill
#
# Bulk Modulus (GPa) = 46.65014 55.56535 51.10775
# Shear Modulus (GPa) = 8.85281 22.97309 15.91295
#
# Velocity S-wave (km/s) = 2.17057 3.49658 2.91011
# Velocity P-wave (km/s) = 5.57751 6.77294 6.20408
#
# Compressibility (1/GPa) = 0.02143616
#
# Stress axis : x y z
#
# Youngs Moduli (GPa) = 38.45097 59.10979 169.57851
#
# Poissons Ratio (x) = 0.61888 0.40660
# Poissons Ratio (y) = 0.40258 0.13991
# Poissons Ratio (z) = 0.09220 0.04877
#
# Static dielectric constant tensor:
#      x y z
#    x 1.594770 0.000000 0.000000 
#    y 0.000000 1.657570 0.000000 
#    z 0.000000 0.000000 1.764870 
# 
# From -- ./inp_files/14069.got.cif
#   From: 2010.05.17/outbox.cif.g08.bks.cpg/sg69_8_cif.got.tgz:14069.got - 2010.06.03 19:29:58.
