data_PCOD9511162
_publ_section_title
;
Structure prediction by ZEFSAII (Michael W. Deem and Ramdas Pophale) SiO2 
 PCOD9511162
Probable space group: F M M M
;
_chemical_formula_sum "Si O2"
_cell_formula_units_Z 160
_cell_length_a 24.315017
_cell_length_b 16.528376
_cell_length_c 22.476342
_cell_angle_alpha 90.000000
_cell_angle_beta 90.000000
_cell_angle_gamma 90.000000
_cell_volume 9032.966367
_symmetry_space_group_name_H-M "F M M M"
_symmetry_group_IT_number 69
_symmetry_cell_setting 'orthorhombic'
loop_
_space_group_symop_operation_xyz
x,y,z
-x,-y,z
x,-y,-z
-x,y,-z
-x,-y,-z
x,y,-z
-x,y,z
x,-y,z
x,1/2+y,1/2+z
-x,1/2-y,1/2+z
x,1/2-y,1/2-z
-x,1/2+y,1/2-z
-x,1/2-y,1/2-z
x,1/2+y,1/2-z
-x,1/2+y,1/2+z
x,1/2-y,1/2+z
1/2+x,y,1/2+z
1/2-x,-y,1/2+z
1/2+x,-y,1/2-z
1/2-x,y,1/2-z
1/2-x,-y,1/2-z
1/2+x,y,1/2-z
1/2-x,y,1/2+z
1/2+x,-y,1/2+z
1/2+x,1/2+y,z
1/2-x,1/2-y,z
1/2+x,1/2-y,-z
1/2-x,1/2+y,-z
1/2-x,1/2-y,-z
1/2+x,1/2+y,-z
1/2-x,1/2+y,z
1/2+x,1/2-y,z
loop_
_atom_site_type_symbol
_atom_site_label
_atom_site_fract_x
_atom_site_fract_y
_atom_site_fract_z
Si Si1 0.381647 0.180100 0.801557
Si Si2 0.500000 0.339354 0.722041
Si Si3 0.307220 0.086729 0.283011
Si Si4 0.101423 0.096944 0.066875
Si Si5 0.000000 0.905393 0.852640
Si Si6 0.690385 0.216320 0.386284
O O1 0.382982 0.250000 0.750000
O O2 0.443933 0.154562 0.814413
O O3 0.351694 0.108434 0.766651
O O4 0.347322 0.212514 0.857744
O O5 0.500000 0.250000 0.750000
O O6 0.500000 0.392793 0.782021
O O7 0.250000 0.081726 0.250000
O O8 0.299957 0.157362 0.330186
O O9 0.320769 0.000000 0.310979
O O10 0.153568 0.157244 0.072530
O O11 0.056219 0.124555 0.116031
O O12 0.113586 0.000000 0.074423
O O13 0.078329 0.104506 0.000000
O O14 0.000000 0.000000 0.866220
O O15 0.750000 0.250000 0.407134
#
# Coordination Sequence:
#
# PCOD9511162 Si02
#       6
#    32  16  32  32  16  32
#     4   9  18  29  44  67  98 128 163 192 231 284
#     4  10  18  29  45  70 100 131 155 189 230 283
#     4  10  18  29  46  68  94 125 162 197 230 278
#     4  10  21  36  54  74  95 123 164 212 257 298
#     4  10  19  34  54  75  99 128 161 200 250 299
#     4  11  20  32  49  70 100 133 168 200 238 287
#
# _framework density 17.712896000000001
#
# number of rings (size 3 to 8) (size 9 to 14) (size 15 to 20)
#    0.000    2.000    2.000    4.500    0.000    4.000 
#    0.000    0.000    0.000    0.000    0.000    0.000 
#    0.000    0.000    0.000    0.400    0.000   58.800 
#
# Total GULP energy -222700.230085 kJ/mol
# GULP energy per Si atom -5567.505752 kJ/mol
# Density = 1.767258 g / cm^3
# Si number density = 17.712896 Si / 1000 Ang^3
#
#
#
# Elastic Constant Matrix: (Units=GPa)
#
#
# Indices 1 2 3 4 5 6 
#
# 1 127.2468 29.2531 11.9382 0.0000 0.0000 0.0000
# 2 29.2531 45.8545 1.7472 0.0000 0.0000 0.0000
# 3 11.9382 1.7472 36.7430 0.0000 0.0000 0.0000
# 4 0.0000 0.0000 0.0000 -111.5736 0.0000 0.0000
# 5 0.0000 0.0000 0.0000 0.0000 13.4063 0.0000
# 6 0.0000 0.0000 0.0000 0.0000 0.0000 28.6330
#
#
#
# Elastic Compliance Matrix: (Units=1/GPa)
#
#
# Indices 1 2 3 4 5 6 
#
# 1 0.009489 -0.005947 -0.002800 0.000000 0.000000 0.000000
# 2 -0.005947 0.025574 0.000716 0.000000 0.000000 0.000000
# 3 -0.002800 0.000716 0.028092 0.000000 0.000000 0.000000
# 4 0.000000 0.000000 0.000000 -0.008963 0.000000 0.000000
# 5 0.000000 0.000000 0.000000 0.000000 0.074592 0.000000
# 6 0.000000 0.000000 0.000000 0.000000 0.000000 0.034925
#
#
# Mechanical properties :
#
#
# Convention : Reuss Voigt Hill
#
# Bulk Modulus (GPa) = 21.23441 32.85794 27.04617
# Shear Modulus (GPa) = 25.57967 -2.77979 11.39994
#
# Velocity S-wave (km/s) = 3.80429 -1.25410 2.53967
# Velocity P-wave (km/s) = 5.59562 4.06122 4.88899
#
# Compressibility (1/GPa) = 0.04709337
#
# Stress axis : x y z
#
# Youngs Moduli (GPa) = 105.39049 39.10148 35.59751
#
# Poissons Ratio (x) = 0.23252 0.09968
# Poissons Ratio (y) = 0.62671 -0.02549
# Poissons Ratio (z) = 0.29511 -0.02800
#
# Static dielectric constant tensor:
#      x y z
#    x 1.671230 0.000000 0.000000 
#    y 0.000000 1.647200 0.000000 
#    z 0.000000 0.000000 1.591650 
# 
# From -- ./inp_files/32637.got.cif
#   From: 2010.05.17/outbox.cif.g08.bks.cpg/sg69_17_cif.got.tgz:32637.got - 2010.06.03 19:29:58.
