data_PCOD9511340
_publ_section_title
;
Structure prediction by ZEFSAII (Michael W. Deem and Ramdas Pophale) SiO2 
 PCOD9511340
Probable space group: F M M M
;
_chemical_formula_sum "Si O2"
_cell_formula_units_Z 144
_cell_length_a 8.494890
_cell_length_b 29.087264
_cell_length_c 32.363412
_cell_angle_alpha 90.000000
_cell_angle_beta 90.000000
_cell_angle_gamma 90.000000
_cell_volume 7996.776059
_symmetry_space_group_name_H-M "F M M M"
_symmetry_group_IT_number 69
_symmetry_cell_setting 'orthorhombic'
loop_
_space_group_symop_operation_xyz
x,y,z
-x,-y,z
x,-y,-z
-x,y,-z
-x,-y,-z
x,y,-z
-x,y,z
x,-y,z
x,1/2+y,1/2+z
-x,1/2-y,1/2+z
x,1/2-y,1/2-z
-x,1/2+y,1/2-z
-x,1/2-y,1/2-z
x,1/2+y,1/2-z
-x,1/2+y,1/2+z
x,1/2-y,1/2+z
1/2+x,y,1/2+z
1/2-x,-y,1/2+z
1/2+x,-y,1/2-z
1/2-x,y,1/2-z
1/2-x,-y,1/2-z
1/2+x,y,1/2-z
1/2-x,y,1/2+z
1/2+x,-y,1/2+z
1/2+x,1/2+y,z
1/2-x,1/2-y,z
1/2+x,1/2-y,-z
1/2-x,1/2+y,-z
1/2-x,1/2-y,-z
1/2+x,1/2+y,-z
1/2-x,1/2+y,z
1/2+x,1/2-y,z
loop_
_atom_site_type_symbol
_atom_site_label
_atom_site_fract_x
_atom_site_fract_y
_atom_site_fract_z
Si Si1 0.691534 0.946128 0.454081
Si Si2 0.309164 0.888786 0.374121
Si Si3 0.187445 0.302391 0.500000
Si Si4 0.810059 0.052997 0.205011
Si Si5 0.186690 0.301805 0.912658
O O1 0.743558 0.930537 0.500000
O O2 0.500000 0.943887 0.454173
O O3 0.745039 0.917436 0.414530
O O4 0.733023 0.000000 0.449623
O O5 0.500000 0.887492 0.374796
O O6 0.258545 0.914873 0.332647
O O7 0.244966 0.837396 0.378474
O O8 0.250000 0.250000 0.500000
O O9 0.248482 0.320995 0.543428
O O10 0.000000 0.303652 0.500000
O O11 0.750000 0.067565 0.250000
O O12 0.000000 0.053157 0.205459
O O13 0.758947 0.000000 0.198186
O O14 0.250000 0.250000 0.906992
O O15 0.000000 0.299751 0.914805
#
# Coordination Sequence:
#
# PCOD9511340 Si02
#       5
#    32  32  16  32  32
#     4   8  14  25  43  70 102 134 170 208 246 298
#     4  10  19  31  51  78 105 137 176 219 264 313
#     4  10  18  32  52  72  97 132 175 220 264 305
#     4   9  18  33  54  80 110 141 176 219 264 315
#     4  11  22  36  52  74 104 139 178 222 268 315
#
# _framework density 18.007256999999999
#
# number of rings (size 3 to 8) (size 9 to 14) (size 15 to 20)
#    0.000    2.444    0.000    5.667    1.556    3.556 
#    0.000    0.000    0.000    2.667    0.000    6.222 
#    0.000    0.000    0.000    0.000    0.000    0.000 
#
# Total GULP energy -200851.572451 kJ/mol
# GULP energy per Si atom -5579.210346 kJ/mol
# Density = 1.796627 g / cm^3
# Si number density = 18.007257 Si / 1000 Ang^3
#
#
#
# Elastic Constant Matrix: (Units=GPa)
#
#
# Indices 1 2 3 4 5 6 
#
# 1 53.8218 24.6671 35.7874 0.0000 0.0000 0.0000
# 2 24.6671 102.5511 92.7920 0.0000 0.0000 0.0000
# 3 35.7874 92.7920 151.7679 0.0000 0.0000 0.0000
# 4 0.0000 0.0000 0.0000 29.6132 0.0000 0.0000
# 5 0.0000 0.0000 0.0000 0.0000 24.1335 0.0000
# 6 0.0000 0.0000 0.0000 0.0000 0.0000 17.1443
#
#
#
# Elastic Compliance Matrix: (Units=1/GPa)
#
#
# Indices 1 2 3 4 5 6 
#
# 1 0.022117 -0.001345 -0.004393 0.000000 0.000000 0.000000
# 2 -0.001345 0.021908 -0.013077 0.000000 0.000000 0.000000
# 3 -0.004393 -0.013077 0.015620 0.000000 0.000000 0.000000
# 4 0.000000 0.000000 0.000000 0.033769 0.000000 0.000000
# 5 0.000000 0.000000 0.000000 0.000000 0.041436 0.000000
# 6 0.000000 0.000000 0.000000 0.000000 0.000000 0.058328
#
#
# Mechanical properties :
#
#
# Convention : Reuss Voigt Hill
#
# Bulk Modulus (GPa) = 45.42427 68.29266 56.85846
# Shear Modulus (GPa) = 20.99540 24.50448 22.74994
#
# Velocity S-wave (km/s) = 3.41829 3.69292 3.55826
# Velocity P-wave (km/s) = 6.39218 7.49606 6.96602
#
# Compressibility (1/GPa) = 0.02201466
#
# Stress axis : x y z
#
# Youngs Moduli (GPa) = 45.21357 45.64625 64.01874
#
# Poissons Ratio (x) = 0.06140 0.28123
# Poissons Ratio (y) = 0.06082 0.83719
# Poissons Ratio (z) = 0.19862 0.59693
#
# Static dielectric constant tensor:
#      x y z
#    x 1.622970 0.000000 0.000000 
#    y 0.000000 1.624920 0.000000 
#    z 0.000000 0.000000 1.622700 
# 
# From -- ./inp_files/44537.got.cif
#   From: 2010.05.17/outbox.cif.g08.bks.cpg/sg69_23_cif.got.tgz:44537.got - 2010.06.03 19:29:58.
