data_PCOD9511680
_publ_section_title
;
Structure prediction by ZEFSAII (Michael W. Deem and Ramdas Pophale) SiO2 
 PCOD9511680
Probable space group: F M M M
;
_chemical_formula_sum "Si O2"
_cell_formula_units_Z 160
_cell_length_a 29.413822
_cell_length_b 19.591929
_cell_length_c 15.667530
_cell_angle_alpha 90.000000
_cell_angle_beta 90.000000
_cell_angle_gamma 90.000000
_cell_volume 9028.782541
_symmetry_space_group_name_H-M "F M M M"
_symmetry_group_IT_number 69
_symmetry_cell_setting 'orthorhombic'
loop_
_space_group_symop_operation_xyz
x,y,z
-x,-y,z
x,-y,-z
-x,y,-z
-x,-y,-z
x,y,-z
-x,y,z
x,-y,z
x,1/2+y,1/2+z
-x,1/2-y,1/2+z
x,1/2-y,1/2-z
-x,1/2+y,1/2-z
-x,1/2-y,1/2-z
x,1/2+y,1/2-z
-x,1/2+y,1/2+z
x,1/2-y,1/2+z
1/2+x,y,1/2+z
1/2-x,-y,1/2+z
1/2+x,-y,1/2-z
1/2-x,y,1/2-z
1/2-x,-y,1/2-z
1/2+x,y,1/2-z
1/2-x,y,1/2+z
1/2+x,-y,1/2+z
1/2+x,1/2+y,z
1/2-x,1/2-y,z
1/2+x,1/2-y,-z
1/2-x,1/2+y,-z
1/2-x,1/2-y,-z
1/2+x,1/2+y,-z
1/2-x,1/2+y,z
1/2+x,1/2-y,z
loop_
_atom_site_type_symbol
_atom_site_label
_atom_site_fract_x
_atom_site_fract_y
_atom_site_fract_z
Si Si1 0.126613 0.581711 0.172162
Si Si2 0.717255 0.916970 0.500000
Si Si3 0.294244 0.582442 0.193947
Si Si4 0.554389 0.329111 0.750583
Si Si5 0.822474 0.582408 0.000000
Si Si6 0.444824 0.924582 0.403605
O O1 0.118082 0.500000 0.170253
O O2 0.161130 0.596261 0.250072
O O3 0.081241 0.625136 0.183315
O O4 0.151878 0.602456 0.085550
O O5 0.700798 0.894150 0.594916
O O6 0.770285 0.896883 0.500000
O O7 0.712592 0.000000 0.500000
O O8 0.289107 0.500000 0.189049
O O9 0.250000 0.606008 0.250000
O O10 0.500000 0.333870 0.738772
O O11 0.567161 0.250000 0.750000
O O12 0.566703 0.364367 0.840483
O O13 0.821324 0.500000 0.000000
O O14 0.428139 0.915469 0.500000
O O15 0.500000 0.926693 0.406799
O O16 0.429607 0.000000 0.373043
#
# Coordination Sequence:
#
# PCOD9511680 Si02
#       6
#    32  16  32  32  16  32
#     4  10  19  32  52  79 107 139 178 218 261 311
#     4   9  14  24  44  74 109 138 166 209 263 316
#     4   9  15  25  45  74 105 135 169 210 258 312
#     4  10  21  37  53  72 101 139 182 225 273 322
#     4   9  16  28  49  77 109 140 170 205 255 316
#     4   8  14  28  52  76  95 121 162 214 270 321
#
# _framework density 17.721104
#
# number of rings (size 3 to 8) (size 9 to 14) (size 15 to 20)
#    0.000    2.800    2.000    1.200    0.000    1.200 
#    3.600    0.500    0.000    2.400    0.000    1.400 
#    0.000    0.000    0.000    0.000    0.000    0.000 
#
# Total GULP energy -222706.865137 kJ/mol
# GULP energy per Si atom -5567.671628 kJ/mol
# Density = 1.768077 g / cm^3
# Si number density = 17.721104 Si / 1000 Ang^3
#
#
#
# Elastic Constant Matrix: (Units=GPa)
#
#
# Indices 1 2 3 4 5 6 
#
# 1 40.6518 29.5340 30.6218 0.0000 0.0000 0.0000
# 2 29.5340 73.0667 42.6865 0.0000 0.0000 0.0000
# 3 30.6218 42.6865 142.9293 0.0000 0.0000 0.0000
# 4 0.0000 0.0000 0.0000 1.4093 0.0000 0.0000
# 5 0.0000 0.0000 0.0000 0.0000 11.5004 0.0000
# 6 0.0000 0.0000 0.0000 0.0000 0.0000 21.2133
#
#
#
# Elastic Compliance Matrix: (Units=1/GPa)
#
#
# Indices 1 2 3 4 5 6 
#
# 1 0.036765 -0.012427 -0.004165 0.000000 0.000000 0.000000
# 2 -0.012427 0.020779 -0.003543 0.000000 0.000000 0.000000
# 3 -0.004165 -0.003543 0.008947 0.000000 0.000000 0.000000
# 4 0.000000 0.000000 0.000000 0.709553 0.000000 0.000000
# 5 0.000000 0.000000 0.000000 0.000000 0.086953 0.000000
# 6 0.000000 0.000000 0.000000 0.000000 0.000000 0.047140
#
#
# Mechanical properties :
#
#
# Convention : Reuss Voigt Hill
#
# Bulk Modulus (GPa) = 38.13907 51.37030 44.75469
# Shear Modulus (GPa) = 5.21294 17.07829 11.14562
#
# Velocity S-wave (km/s) = 1.71699 3.10776 2.51060
# Velocity P-wave (km/s) = 5.04968 6.47524 5.80638
#
# Compressibility (1/GPa) = 0.02621983
#
# Stress axis : x y z
#
# Youngs Moduli (GPa) = 27.19946 48.12446 111.76799
#
# Poissons Ratio (x) = 0.59806 0.46555
# Poissons Ratio (y) = 0.33802 0.39604
# Poissons Ratio (z) = 0.11329 0.17052
#
# Static dielectric constant tensor:
#      x y z
#    x 1.629780 0.000000 0.000000 
#    y 0.000000 1.562630 0.000000 
#    z 0.000000 0.000000 1.653920 
# 
# From -- ./inp_files/19573.got.cif
#   From: 2010.05.17/outbox.cif.g08.bks.cpg/sg69_10_cif.got.tgz:19573.got - 2010.06.03 19:29:58.
