data_PCOD9511543
_publ_section_title
;
Structure prediction by ZEFSAII (Michael W. Deem and Ramdas Pophale) SiO2 
 PCOD9511543
Probable space group: F M M M
;
_chemical_formula_sum "Si O2"
_cell_formula_units_Z 144
_cell_length_a 27.230297
_cell_length_b 34.061096
_cell_length_c 10.329333
_cell_angle_alpha 90.000000
_cell_angle_beta 90.000000
_cell_angle_gamma 90.000000
_cell_volume 9580.391905
_symmetry_space_group_name_H-M "F M M M"
_symmetry_group_IT_number 69
_symmetry_cell_setting 'orthorhombic'
loop_
_space_group_symop_operation_xyz
x,y,z
-x,-y,z
x,-y,-z
-x,y,-z
-x,-y,-z
x,y,-z
-x,y,z
x,-y,z
x,1/2+y,1/2+z
-x,1/2-y,1/2+z
x,1/2-y,1/2-z
-x,1/2+y,1/2-z
-x,1/2-y,1/2-z
x,1/2+y,1/2-z
-x,1/2+y,1/2+z
x,1/2-y,1/2+z
1/2+x,y,1/2+z
1/2-x,-y,1/2+z
1/2+x,-y,1/2-z
1/2-x,y,1/2-z
1/2-x,-y,1/2-z
1/2+x,y,1/2-z
1/2-x,y,1/2+z
1/2+x,-y,1/2+z
1/2+x,1/2+y,z
1/2-x,1/2-y,z
1/2+x,1/2-y,-z
1/2-x,1/2+y,-z
1/2-x,1/2-y,-z
1/2+x,1/2+y,-z
1/2-x,1/2+y,z
1/2+x,1/2-y,z
loop_
_atom_site_type_symbol
_atom_site_label
_atom_site_fract_x
_atom_site_fract_y
_atom_site_fract_z
Si Si1 0.706271 0.000000 0.647969
Si Si2 0.191689 0.290918 0.500000
Si Si3 0.690739 0.344723 0.757909
Si Si4 0.558025 0.952838 0.851674
Si Si5 0.310664 0.798663 0.000000
Si Si6 0.362659 0.076430 0.346591
O O1 0.750000 0.000000 0.750000
O O2 0.672636 0.038467 0.664281
O O3 0.725352 0.000000 0.500000
O O4 0.177715 0.314661 0.372444
O O5 0.251350 0.292906 0.500000
O O6 0.172264 0.246496 0.500000
O O7 0.750000 0.350082 0.750000
O O8 0.675550 0.323816 0.625110
O O9 0.665574 0.385783 0.791131
O O10 0.500000 0.944723 0.837440
O O11 0.590234 0.932088 0.742524
O O12 0.564375 0.000000 0.839409
O O13 0.572434 0.942315 0.000000
O O14 0.373711 0.081585 0.500000
#
# Coordination Sequence:
#
# PCOD9511543 Si02
#       6
#    16  16  32  32  16  32
#     4  10  22  36  47  66  97 139 178 205 231 278
#     4   9  16  32  46  67  98 129 166 211 248 291
#     4  10  19  31  46  70 102 135 169 207 242 284
#     4   9  19  36  56  76  96 121 160 209 258 302
#     4   9  18  28  50  69  90 133 174 201 250 295
#     4  11  21  34  49  71 102 133 169 205 245 289
#
# _framework density 15.030701000000001
#
# number of rings (size 3 to 8) (size 9 to 14) (size 15 to 20)
#    0.000    2.222    2.222    2.000    1.556    4.000 
#    0.000    1.111    0.000    0.000    0.000    0.000 
#    0.000    5.333    0.000    0.000    0.000    0.000 
#
# Total GULP energy -200641.695186 kJ/mol
# GULP energy per Si atom -5573.380422 kJ/mol
# Density = 1.499649 g / cm^3
# Si number density = 15.030701 Si / 1000 Ang^3
#
#
#
# Elastic Constant Matrix: (Units=GPa)
#
#
# Indices 1 2 3 4 5 6 
#
# 1 51.6582 36.8321 60.3895 -0.0002 0.0004 0.0000
# 2 36.8321 131.9252 84.8475 0.0001 0.0001 0.0002
# 3 60.3895 84.8475 168.6319 0.0014 -0.0005 0.0001
# 4 -0.0002 0.0001 0.0014 31.3910 -0.0008 0.0001
# 5 0.0004 0.0001 -0.0005 -0.0008 21.7281 0.0000
# 6 0.0000 0.0002 0.0001 0.0001 0.0000 2.7388
#
#
#
# Elastic Compliance Matrix: (Units=1/GPa)
#
#
# Indices 1 2 3 4 5 6 
#
# 1 0.033823 -0.002444 -0.010883 0.000001 -0.000001 0.000000
# 2 -0.002444 0.011383 -0.004852 0.000000 0.000000 0.000000
# 3 -0.010883 -0.004852 0.012269 -0.000001 0.000001 0.000000
# 4 0.000001 0.000000 -0.000001 0.031856 0.000001 -0.000001
# 5 -0.000001 0.000000 0.000001 0.000001 0.046023 0.000000
# 6 0.000000 0.000000 0.000000 -0.000001 0.000000 0.365123
#
#
# Mechanical properties :
#
#
# Convention : Reuss Voigt Hill
#
# Bulk Modulus (GPa) = 47.35547 79.59484 63.47515
# Shear Modulus (GPa) = 9.19331 22.51466 15.85399
#
# Velocity S-wave (km/s) = 2.47581 3.87449 3.25125
# Velocity P-wave (km/s) = 6.30453 8.54900 7.51107
#
# Compressibility (1/GPa) = 0.02111689
#
# Stress axis : x y z
#
# Youngs Moduli (GPa) = 29.56611 87.84995 81.50750
#
# Poissons Ratio (x) = 0.21467 0.88703
# Poissons Ratio (y) = 0.07225 0.39550
# Poissons Ratio (z) = 0.32176 0.42627
#
# Static dielectric constant tensor:
#      x y z
#    x 1.466910 0.000000 0.000000 
#    y 0.000000 1.486410 0.000000 
#    z 0.000000 0.000000 1.512780 
# 
# From -- ./inp_files/5656.got.cif
#   From: 2010.05.17/outbox.cif.g08.bks.cpg/sg69_3_cif.got.tgz:5656.got - 2010.06.03 19:29:58.
