data_PCOD9511096
_publ_section_title
;
Structure prediction by ZEFSAII (Michael W. Deem and Ramdas Pophale) SiO2 
 PCOD9511096
Probable space group: F M M M
;
_chemical_formula_sum "Si O2"
_cell_formula_units_Z 208
_cell_length_a 34.681268
_cell_length_b 17.645139
_cell_length_c 19.470923
_cell_angle_alpha 90.000000
_cell_angle_beta 90.000000
_cell_angle_gamma 90.000000
_cell_volume 11915.344155
_symmetry_space_group_name_H-M "F M M M"
_symmetry_group_IT_number 69
_symmetry_cell_setting 'orthorhombic'
loop_
_space_group_symop_operation_xyz
x,y,z
-x,-y,z
x,-y,-z
-x,y,-z
-x,-y,-z
x,y,-z
-x,y,z
x,-y,z
x,1/2+y,1/2+z
-x,1/2-y,1/2+z
x,1/2-y,1/2-z
-x,1/2+y,1/2-z
-x,1/2-y,1/2-z
x,1/2+y,1/2-z
-x,1/2+y,1/2+z
x,1/2-y,1/2+z
1/2+x,y,1/2+z
1/2-x,-y,1/2+z
1/2+x,-y,1/2-z
1/2-x,y,1/2-z
1/2-x,-y,1/2-z
1/2+x,y,1/2-z
1/2-x,y,1/2+z
1/2+x,-y,1/2+z
1/2+x,1/2+y,z
1/2-x,1/2-y,z
1/2+x,1/2-y,-z
1/2-x,1/2+y,-z
1/2-x,1/2-y,-z
1/2+x,1/2+y,-z
1/2-x,1/2+y,z
1/2+x,1/2-y,z
loop_
_atom_site_type_symbol
_atom_site_label
_atom_site_fract_x
_atom_site_fract_y
_atom_site_fract_z
Si Si1 0.543603 0.500000 0.581315
Si Si2 0.322092 0.408103 0.186104
Si Si3 0.257771 0.092525 0.421382
Si Si4 0.820520 0.592118 0.155086
Si Si5 0.406151 0.869445 0.853620
Si Si6 0.909449 0.411186 0.691900
Si Si7 0.956593 0.270220 0.331482
O O1 0.500000 0.500000 0.610662
O O2 0.540872 0.500000 0.500000
O O3 0.567755 0.427727 0.604975
O O4 0.320171 0.500000 0.186824
O O5 0.291072 0.380940 0.130830
O O6 0.314255 0.384812 0.265063
O O7 0.366274 0.389041 0.168191
O O8 0.262774 0.117553 0.500000
O O9 0.216152 0.113204 0.390476
O O10 0.259047 0.000000 0.421529
O O11 0.824451 0.500000 0.154185
O O12 0.861003 0.625581 0.129427
O O13 0.408795 0.896711 0.774037
O O14 0.425342 0.787625 0.861201
O O15 0.915916 0.500000 0.679109
O O16 0.941352 0.355505 0.661631
O O17 0.957678 0.250000 0.250000
O O18 0.000000 0.259641 0.358099
#
# Coordination Sequence:
#
# PCOD9511096 Si02
#       7
#    16  32  32  32  32  32  32
#     4  11  22  32  46  68  95 138 183 209 240 295
#     4   8  14  25  42  62  92 127 162 200 242 298
#     4   9  16  24  38  66  98 123 154 203 249 289
#     4   9  15  25  42  64  90 128 170 202 243 289
#     4  10  17  32  46  66  99 134 168 209 248 291
#     4   9  16  29  49  73  98 128 166 203 256 306
#     4   9  18  29  45  71  98 126 160 201 255 306
#
# _framework density 17.456482999999999
#
# number of rings (size 3 to 8) (size 9 to 14) (size 15 to 20)
#    0.000    2.846    1.538    1.846    0.000    3.385 
#    0.000    0.000    0.000    1.846    0.000    6.462 
#    0.000    0.000    0.000    9.231    0.000    0.000 
#
# Total GULP energy -289678.564523 kJ/mol
# GULP energy per Si atom -5570.741625 kJ/mol
# Density = 1.741675 g / cm^3
# Si number density = 17.456483 Si / 1000 Ang^3
#
#
#
# Elastic Constant Matrix: (Units=GPa)
#
#
# Indices 1 2 3 4 5 6 
#
# 1 149.4962 42.4596 57.3608 0.0000 0.0000 0.0000
# 2 42.4596 58.2572 10.2641 0.0000 0.0000 0.0000
# 3 57.3608 10.2641 51.6582 0.0000 0.0000 0.0000
# 4 0.0000 0.0000 0.0000 -0.5702 0.0000 0.0000
# 5 0.0000 0.0000 0.0000 0.0000 11.9301 0.0000
# 6 0.0000 0.0000 0.0000 0.0000 0.0000 19.6678
#
#
#
# Elastic Compliance Matrix: (Units=1/GPa)
#
#
# Indices 1 2 3 4 5 6 
#
# 1 0.014569 -0.008050 -0.014578 0.000000 0.000000 0.000000
# 2 -0.008050 0.022236 0.004520 0.000000 0.000000 0.000000
# 3 -0.014578 0.004520 0.034647 0.000000 0.000000 0.000000
# 4 0.000000 0.000000 0.000000 -1.753640 0.000000 0.000000
# 5 0.000000 0.000000 0.000000 0.000000 0.083822 0.000000
# 6 0.000000 0.000000 0.000000 0.000000 0.000000 0.050844
#
#
# Mechanical properties :
#
#
# Convention : Reuss Voigt Hill
#
# Bulk Modulus (GPa) = 28.37916 53.28674 40.83295
# Shear Modulus (GPa) = -3.33430 16.16067 6.41318
#
# Velocity S-wave (km/s) = -1.38355 3.04595 1.91880
# Velocity P-wave (km/s) = 3.70676 6.55455 5.32458
#
# Compressibility (1/GPa) = 0.03523712
#
# Stress axis : x y z
#
# Youngs Moduli (GPa) = 68.64003 44.97262 28.86276
#
# Poissons Ratio (x) = 0.36202 0.42075
# Poissons Ratio (y) = 0.55254 -0.13047
# Poissons Ratio (z) = 1.00061 -0.20329
#
# Static dielectric constant tensor:
#      x y z
#    x 1.603800 0.000000 0.000000 
#    y 0.000000 1.597020 0.000000 
#    z 0.000000 0.000000 1.581080 
# 
# From -- ./inp_files/33981.got.cif
#   From: 2010.05.17/outbox.cif.g08.bks.cpg/sg69_17_cif.got.tgz:33981.got - 2010.06.03 19:29:58.
