data_PCOD9511483
_publ_section_title
;
Structure prediction by ZEFSAII (Michael W. Deem and Ramdas Pophale) SiO2 
 PCOD9511483
Probable space group: F M M M
;
_chemical_formula_sum "Si O2"
_cell_formula_units_Z 192
_cell_length_a 25.039243
_cell_length_b 28.134474
_cell_length_c 16.471695
_cell_angle_alpha 90.000000
_cell_angle_beta 90.000000
_cell_angle_gamma 90.000000
_cell_volume 11603.747956
_symmetry_space_group_name_H-M "F M M M"
_symmetry_group_IT_number 69
_symmetry_cell_setting 'orthorhombic'
loop_
_space_group_symop_operation_xyz
x,y,z
-x,-y,z
x,-y,-z
-x,y,-z
-x,-y,-z
x,y,-z
-x,y,z
x,-y,z
x,1/2+y,1/2+z
-x,1/2-y,1/2+z
x,1/2-y,1/2-z
-x,1/2+y,1/2-z
-x,1/2-y,1/2-z
x,1/2+y,1/2-z
-x,1/2+y,1/2+z
x,1/2-y,1/2+z
1/2+x,y,1/2+z
1/2-x,-y,1/2+z
1/2+x,-y,1/2-z
1/2-x,y,1/2-z
1/2-x,-y,1/2-z
1/2+x,y,1/2-z
1/2-x,y,1/2+z
1/2+x,-y,1/2+z
1/2+x,1/2+y,z
1/2-x,1/2-y,z
1/2+x,1/2-y,-z
1/2-x,1/2+y,-z
1/2-x,1/2-y,-z
1/2+x,1/2+y,-z
1/2-x,1/2+y,z
1/2+x,1/2-y,z
loop_
_atom_site_type_symbol
_atom_site_label
_atom_site_fract_x
_atom_site_fract_y
_atom_site_fract_z
Si Si1 0.379292 0.943582 0.000000
Si Si2 0.065187 0.804772 0.248587
Si Si3 0.410844 0.445018 0.188544
Si Si4 0.061811 0.607826 0.147290
Si Si5 0.563267 0.141693 0.588595
Si Si6 0.284248 0.056496 0.674830
Si Si7 0.748835 0.443712 0.500000
O O1 0.403334 0.917386 0.921305
O O2 0.315207 0.940331 0.000000
O O3 0.393253 0.000000 0.000000
O O4 0.081603 0.750000 0.250000
O O5 0.080398 0.839733 0.322777
O O6 0.084599 0.828284 0.164539
O O7 0.000000 0.806006 0.248588
O O8 0.424433 0.500000 0.179584
O O9 0.435313 0.423492 0.270639
O O10 0.429499 0.412971 0.113740
O O11 0.346765 0.439994 0.193486
O O12 0.000000 0.610641 0.120468
O O13 0.586343 0.151852 0.500000
O O14 0.500000 0.151441 0.585369
O O15 0.250000 0.076443 0.750000
O O16 0.271003 0.076256 0.585233
O O17 0.270815 0.000000 0.670535
O O18 0.763453 0.500000 0.500000
#
# Coordination Sequence:
#
# PCOD9511483 Si02
#       7
#    16  32  32  32  32  32  16
#     4  11  21  32  47  68 101 139 165 194 236 281
#     4   8  15  31  50  65  88 121 154 195 243 277
#     4  10  19  29  45  64  92 131 163 189 227 271
#     4  10  20  32  46  69  99 129 165 199 227 281
#     4   9  18  30  43  65  95 122 152 187 222 274
#     4   9  17  29  44  63  86 117 161 204 238 272
#     4   9  18  31  46  63  90 126 162 203 243 273
#
# _framework density 16.546379000000002
#
# number of rings (size 3 to 8) (size 9 to 14) (size 15 to 20)
#    0.000    2.667    0.000    3.250    1.167    5.667 
#    1.500    0.833    0.000    0.000    0.000    0.000 
#    0.000   48.000    0.000    0.000    0.000    0.000 
#
# Total GULP energy -267303.413361 kJ/mol
# GULP energy per Si atom -5568.821112 kJ/mol
# Density = 1.650872 g / cm^3
# Si number density = 16.546379 Si / 1000 Ang^3
#
#
#
# Elastic Constant Matrix: (Units=GPa)
#
#
# Indices 1 2 3 4 5 6 
#
# 1 10.8352 4.5788 12.7056 0.0000 0.0000 0.0000
# 2 4.5788 97.2045 22.9991 0.0000 0.0000 0.0000
# 3 12.7056 22.9991 81.9981 0.0000 0.0000 0.0000
# 4 0.0000 0.0000 0.0000 10.3774 0.0000 0.0000
# 5 0.0000 0.0000 0.0000 0.0000 18.4920 0.0000
# 6 0.0000 0.0000 0.0000 0.0000 0.0000 -5.3976
#
#
#
# Elastic Compliance Matrix: (Units=1/GPa)
#
#
# Indices 1 2 3 4 5 6 
#
# 1 0.112930 -0.001263 -0.017144 0.000000 0.000000 0.000000
# 2 -0.001263 0.011033 -0.002899 0.000000 0.000000 0.000000
# 3 -0.017144 -0.002899 0.015665 0.000000 0.000000 0.000000
# 4 0.000000 0.000000 0.000000 0.096363 0.000000 0.000000
# 5 0.000000 0.000000 0.000000 0.000000 0.054077 0.000000
# 6 0.000000 0.000000 0.000000 0.000000 0.000000 -0.185268
#
#
# Mechanical properties :
#
#
# Convention : Reuss Voigt Hill
#
# Bulk Modulus (GPa) = 10.30765 30.06720 20.18743
# Shear Modulus (GPa) = 27.81635 14.67800 21.24717
#
# Velocity S-wave (km/s) = 4.10459 2.98162 3.58732
# Velocity P-wave (km/s) = 5.35785 5.48310 5.42084
#
# Compressibility (1/GPa) = 0.09701529
#
# Stress axis : x y z
#
# Youngs Moduli (GPa) = 8.85507 90.63742 63.83667
#
# Poissons Ratio (x) = 0.11448 1.09443
# Poissons Ratio (y) = 0.01118 0.18505
# Poissons Ratio (z) = 0.15181 0.26274
#
# Static dielectric constant tensor:
#      x y z
#    x 1.555050 0.000000 0.000000 
#    y 0.000000 1.552870 0.000000 
#    z 0.000000 0.000000 1.583650 
# 
# From -- ./inp_files/19929.got.cif
#   From: 2010.05.17/outbox.cif.g08.bks.cpg/sg69_10_cif.got.tgz:19929.got - 2010.06.03 19:29:58.
