data_PCOD9511595
_publ_section_title
;
Structure prediction by ZEFSAII (Michael W. Deem and Ramdas Pophale) SiO2 
 PCOD9511595
Probable space group: F M M M
;
_chemical_formula_sum "Si O2"
_cell_formula_units_Z 208
_cell_length_a 18.036210
_cell_length_b 20.761993
_cell_length_c 30.221429
_cell_angle_alpha 90.000000
_cell_angle_beta 90.000000
_cell_angle_gamma 90.000000
_cell_volume 11316.947974
_symmetry_space_group_name_H-M "F M M M"
_symmetry_group_IT_number 69
_symmetry_cell_setting 'orthorhombic'
loop_
_space_group_symop_operation_xyz
x,y,z
-x,-y,z
x,-y,-z
-x,y,-z
-x,-y,-z
x,y,-z
-x,y,z
x,-y,z
x,1/2+y,1/2+z
-x,1/2-y,1/2+z
x,1/2-y,1/2-z
-x,1/2+y,1/2-z
-x,1/2-y,1/2-z
x,1/2+y,1/2-z
-x,1/2+y,1/2+z
x,1/2-y,1/2+z
1/2+x,y,1/2+z
1/2-x,-y,1/2+z
1/2+x,-y,1/2-z
1/2-x,y,1/2-z
1/2-x,-y,1/2-z
1/2+x,y,1/2-z
1/2-x,y,1/2+z
1/2+x,-y,1/2+z
1/2+x,1/2+y,z
1/2-x,1/2-y,z
1/2+x,1/2-y,-z
1/2-x,1/2+y,-z
1/2-x,1/2-y,-z
1/2+x,1/2+y,-z
1/2-x,1/2+y,z
1/2+x,1/2-y,z
loop_
_atom_site_type_symbol
_atom_site_label
_atom_site_fract_x
_atom_site_fract_y
_atom_site_fract_z
Si Si1 0.704245 0.815301 0.550247
Si Si2 0.084841 0.077891 0.361094
Si Si3 0.673808 0.075445 0.051414
Si Si4 0.411534 0.870606 0.394499
Si Si5 0.088361 0.571963 0.694587
Si Si6 0.320967 0.076928 0.778591
Si Si7 0.089393 0.500000 0.550190
O O1 0.676611 0.822247 0.500000
O O2 0.750000 0.750000 0.553559
O O3 0.758724 0.875492 0.558908
O O4 0.635213 0.815579 0.582742
O O5 0.112548 0.089510 0.411153
O O6 0.147106 0.101333 0.325579
O O7 0.000000 0.101079 0.353676
O O8 0.082316 0.000000 0.355547
O O9 0.695849 0.000000 0.056571
O O10 0.649489 0.083652 0.000000
O O11 0.500000 0.861221 0.396205
O O12 0.386331 0.881452 0.344177
O O13 0.393607 0.935909 0.422103
O O14 0.117161 0.500000 0.684374
O O15 0.112677 0.586643 0.743816
O O16 0.000000 0.569794 0.691720
O O17 0.250000 0.101516 0.750000
O O18 0.307368 0.000000 0.784613
O O19 0.120343 0.500000 0.500000
O O20 0.000000 0.500000 0.546490
#
# Coordination Sequence:
#
# PCOD9511595 Si02
#       7
#    32  32  32  32  32  32  16
#     4  10  22  38  53  73 107 145 180 219 267 324
#     4   9  17  30  48  72 104 141 181 225 270 316
#     4   9  19  34  54  80 106 137 178 225 278 325
#     4  10  19  31  50  76 104 139 177 215 265 321
#     4   9  16  27  43  69 106 140 171 213 265 322
#     4   9  17  26  40  67 104 145 178 209 261 323
#     4   9  16  26  42  72 107 132 165 209 255 310
#
# _framework density 18.379514
#
# number of rings (size 3 to 8) (size 9 to 14) (size 15 to 20)
#    0.000    2.692    0.769    0.923    3.231    3.077 
#    0.000    2.308    0.000    2.769    0.000    2.154 
#    0.000    3.692    0.000    0.000    0.000    0.000 
#
# Total GULP energy -289519.167555 kJ/mol
# GULP energy per Si atom -5567.676299 kJ/mol
# Density = 1.833768 g / cm^3
# Si number density = 18.379514 Si / 1000 Ang^3
#
#
#
# Elastic Constant Matrix: (Units=GPa)
#
#
# Indices 1 2 3 4 5 6 
#
# 1 58.4181 12.1499 45.2426 0.0000 0.0000 0.0000
# 2 12.1499 16.2419 15.7327 0.0000 0.0000 0.0000
# 3 45.2426 15.7327 93.6968 0.0000 0.0000 0.0000
# 4 0.0000 0.0000 0.0000 7.4940 0.0000 0.0000
# 5 0.0000 0.0000 0.0000 0.0000 28.3560 0.0000
# 6 0.0000 0.0000 0.0000 0.0000 0.0000 7.3489
#
#
#
# Elastic Compliance Matrix: (Units=1/GPa)
#
#
# Indices 1 2 3 4 5 6 
#
# 1 0.028532 -0.009552 -0.012173 0.000000 0.000000 0.000000
# 2 -0.009552 0.076726 -0.008271 0.000000 0.000000 0.000000
# 3 -0.012173 -0.008271 0.017939 0.000000 0.000000 0.000000
# 4 0.000000 0.000000 0.000000 0.133441 0.000000 0.000000
# 5 0.000000 0.000000 0.000000 0.000000 0.035266 0.000000
# 6 0.000000 0.000000 0.000000 0.000000 0.000000 0.136075
#
#
# Mechanical properties :
#
#
# Convention : Reuss Voigt Hill
#
# Bulk Modulus (GPa) = 15.82138 34.95637 25.38887
# Shear Modulus (GPa) = 9.82238 14.98853 12.40546
#
# Velocity S-wave (km/s) = 2.31426 2.85880 2.60082
# Velocity P-wave (km/s) = 3.97088 5.47334 4.78149
#
# Compressibility (1/GPa) = 0.06320563
#
# Stress axis : x y z
#
# Youngs Moduli (GPa) = 35.04782 13.03331 55.74302
#
# Poissons Ratio (x) = 0.12450 0.67858
# Poissons Ratio (y) = 0.33479 0.46103
# Poissons Ratio (z) = 0.42665 0.10779
#
# Static dielectric constant tensor:
#      x y z
#    x 1.665900 0.000000 0.000000 
#    y 0.000000 1.612840 0.000000 
#    z 0.000000 0.000000 1.655080 
# 
# From -- ./inp_files/42106.got.cif
#   From: 2010.05.17/outbox.cif.g08.bks.cpg/sg69_22_cif.got.tgz:42106.got - 2010.06.03 19:29:58.
