data_PCOD9511458
_publ_section_title
;
Structure prediction by ZEFSAII (Michael W. Deem and Ramdas Pophale) SiO2 
 PCOD9511458
Probable space group: F M M M
;
_chemical_formula_sum "Si O2"
_cell_formula_units_Z 128
_cell_length_a 29.894662
_cell_length_b 14.974833
_cell_length_c 15.406739
_cell_angle_alpha 90.000000
_cell_angle_beta 90.000000
_cell_angle_gamma 90.000000
_cell_volume 6897.097426
_symmetry_space_group_name_H-M "F M M M"
_symmetry_group_IT_number 69
_symmetry_cell_setting 'orthorhombic'
loop_
_space_group_symop_operation_xyz
x,y,z
-x,-y,z
x,-y,-z
-x,y,-z
-x,-y,-z
x,y,-z
-x,y,z
x,-y,z
x,1/2+y,1/2+z
-x,1/2-y,1/2+z
x,1/2-y,1/2-z
-x,1/2+y,1/2-z
-x,1/2-y,1/2-z
x,1/2+y,1/2-z
-x,1/2+y,1/2+z
x,1/2-y,1/2+z
1/2+x,y,1/2+z
1/2-x,-y,1/2+z
1/2+x,-y,1/2-z
1/2-x,y,1/2-z
1/2-x,-y,1/2-z
1/2+x,y,1/2-z
1/2-x,y,1/2+z
1/2+x,-y,1/2+z
1/2+x,1/2+y,z
1/2-x,1/2-y,z
1/2+x,1/2-y,-z
1/2-x,1/2+y,-z
1/2-x,1/2-y,-z
1/2+x,1/2+y,-z
1/2-x,1/2+y,z
1/2+x,1/2-y,z
loop_
_atom_site_type_symbol
_atom_site_label
_atom_site_fract_x
_atom_site_fract_y
_atom_site_fract_z
Si Si1 0.135750 0.639712 0.343309
Si Si2 0.707941 0.500000 0.893133
Si Si3 0.377136 0.155994 0.853147
Si Si4 0.690677 0.000000 0.898495
Si Si5 0.428765 0.901136 0.500000
Si Si6 0.448781 0.308184 0.500000
O O1 0.181109 0.584544 0.354815
O O2 0.142650 0.744414 0.360375
O O3 0.113879 0.635088 0.247891
O O4 0.102214 0.602367 0.415031
O O5 0.759194 0.500000 0.862220
O O6 0.704407 0.500000 0.000000
O O7 0.339587 0.085259 0.878085
O O8 0.420105 0.158162 0.916616
O O9 0.698268 0.000000 0.000000
O O10 0.450371 0.801305 0.500000
O O11 0.451064 0.000000 0.500000
O O12 0.500000 0.339858 0.500000
#
# Coordination Sequence:
#
# PCOD9511458 Si02
#       6
#    32  16  32  16  16  16
#     4  10  19  36  60  87 116 159 194 232 292 357
#     4  11  21  35  61  90 118 156 199 240 289 355
#     4  10  22  38  58  85 117 160 196 242 296 344
#     4  11  23  37  55  86 123 158 200 247 283 338
#     4  10  18  35  61  92 118 147 187 245 301 353
#     4  10  22  42  64  85 116 156 197 246 299 356
#
# _framework density 18.558532
#
# number of rings (size 3 to 8) (size 9 to 14) (size 15 to 20)
#    0.000    1.750    3.750    0.750    0.000    3.250 
#    0.000   16.250    0.000    0.000    0.000    0.000 
#    0.000    0.000    0.000    0.000    0.000    0.000 
#
# Total GULP energy -178302.122753 kJ/mol
# GULP energy per Si atom -5571.941336 kJ/mol
# Density = 1.851629 g / cm^3
# Si number density = 18.558532 Si / 1000 Ang^3
#
#
#
# Elastic Constant Matrix: (Units=GPa)
#
#
# Indices 1 2 3 4 5 6 
#
# 1 164.5321 67.8684 70.5530 0.0000 0.0000 0.0000
# 2 67.8684 84.6085 67.6002 0.0000 0.0000 0.0000
# 3 70.5530 67.6002 120.0022 0.0000 0.0000 0.0000
# 4 0.0000 0.0000 0.0000 28.7554 0.0000 0.0000
# 5 0.0000 0.0000 0.0000 0.0000 5.2508 0.0000
# 6 0.0000 0.0000 0.0000 0.0000 0.0000 17.7724
#
#
#
# Elastic Compliance Matrix: (Units=1/GPa)
#
#
# Indices 1 2 3 4 5 6 
#
# 1 0.009429 -0.005700 -0.002333 0.000000 0.000000 0.000000
# 2 -0.005700 0.024938 -0.010697 0.000000 0.000000 0.000000
# 3 -0.002333 -0.010697 0.015731 0.000000 0.000000 0.000000
# 4 0.000000 0.000000 0.000000 0.034776 0.000000 0.000000
# 5 0.000000 0.000000 0.000000 0.000000 0.190447 0.000000
# 6 0.000000 0.000000 0.000000 0.000000 0.000000 0.056267
#
#
# Mechanical properties :
#
#
# Convention : Reuss Voigt Hill
#
# Bulk Modulus (GPa) = 79.12415 86.79845 82.96130
# Shear Modulus (GPa) = 13.39548 21.23049 17.31298
#
# Velocity S-wave (km/s) = 2.68954 3.38594 3.05763
# Velocity P-wave (km/s) = 7.23687 7.88402 7.56737
#
# Compressibility (1/GPa) = 0.01263837
#
# Stress axis : x y z
#
# Youngs Moduli (GPa) = 106.05190 40.09968 63.56964
#
# Poissons Ratio (x) = 0.22856 0.14831
# Poissons Ratio (y) = 0.60446 0.68001
# Poissons Ratio (z) = 0.24742 0.42895
#
# Static dielectric constant tensor:
#      x y z
#    x 1.610130 0.000000 0.000000 
#    y 0.000000 1.667220 0.000000 
#    z 0.000000 0.000000 1.680060 
# 
# From -- ./inp_files/26530.got.cif
#   From: 2010.05.17/outbox.cif.g08.bks.cpg/sg69_14_cif.got.tgz:26530.got - 2010.06.03 19:29:58.
