data_PCOD9511201
_publ_section_title
;
Structure prediction by ZEFSAII (Michael W. Deem and Ramdas Pophale) SiO2 
 PCOD9511201
Probable space group: F M M M
;
_chemical_formula_sum "Si O2"
_cell_formula_units_Z 144
_cell_length_a 37.114523
_cell_length_b 9.033211
_cell_length_c 29.404019
_cell_angle_alpha 90.000000
_cell_angle_beta 90.000000
_cell_angle_gamma 90.000000
_cell_volume 9858.088956
_symmetry_space_group_name_H-M "F M M M"
_symmetry_group_IT_number 69
_symmetry_cell_setting 'orthorhombic'
loop_
_space_group_symop_operation_xyz
x,y,z
-x,-y,z
x,-y,-z
-x,y,-z
-x,-y,-z
x,y,-z
-x,y,z
x,-y,z
x,1/2+y,1/2+z
-x,1/2-y,1/2+z
x,1/2-y,1/2-z
-x,1/2+y,1/2-z
-x,1/2-y,1/2-z
x,1/2+y,1/2-z
-x,1/2+y,1/2+z
x,1/2-y,1/2+z
1/2+x,y,1/2+z
1/2-x,-y,1/2+z
1/2+x,-y,1/2-z
1/2-x,y,1/2-z
1/2-x,-y,1/2-z
1/2+x,y,1/2-z
1/2-x,y,1/2+z
1/2+x,-y,1/2+z
1/2+x,1/2+y,z
1/2-x,1/2-y,z
1/2+x,1/2-y,-z
1/2-x,1/2+y,-z
1/2-x,1/2-y,-z
1/2+x,1/2+y,-z
1/2-x,1/2+y,z
1/2+x,1/2-y,z
loop_
_atom_site_type_symbol
_atom_site_label
_atom_site_fract_x
_atom_site_fract_y
_atom_site_fract_z
Si Si1 0.457817 0.177731 0.297462
Si Si2 0.713451 0.670345 0.944723
Si Si3 0.427882 0.820746 0.605973
Si Si4 0.861624 0.323014 0.946309
Si Si5 0.000000 0.320037 0.447931
O O1 0.500000 0.217217 0.305558
O O2 0.446536 0.250000 0.250000
O O3 0.434775 0.220584 0.341514
O O4 0.456386 0.000000 0.293464
O O5 0.712109 0.500000 0.929779
O O6 0.750000 0.750000 0.929038
O O7 0.677091 0.756652 0.932464
O O8 0.714625 0.670128 0.000000
O O9 0.393317 0.747598 0.583222
O O10 0.463791 0.775892 0.578215
O O11 0.424925 0.000000 0.603434
O O12 0.861207 0.500000 0.942063
O O13 0.867326 0.286940 0.000000
O O14 0.000000 0.500000 0.448182
O O15 0.000000 0.268791 0.500000
#
# Coordination Sequence:
#
# PCOD9511201 Si02
#       5
#    32  32  32  32  16
#     4   9  17  30  47  66  86 108 141 186 233 279
#     4   9  16  27  44  64  86 115 150 185 221 261
#     4  10  18  30  46  64  85 113 152 191 225 266
#     4  10  20  31  42  61  91 123 153 186 223 264
#     4   9  16  26  42  61  81 111 151 189 220 255
#
# _framework density 14.607294
#
# number of rings (size 3 to 8) (size 9 to 14) (size 15 to 20)
#    0.000    2.556    1.111    2.000    0.000    5.778 
#    0.000    0.556    0.000    2.000    0.000    0.000 
#    0.000    0.889    0.000    9.333    0.000    5.556 
#
# Total GULP energy -200659.096497 kJ/mol
# GULP energy per Si atom -5573.863792 kJ/mol
# Density = 1.457405 g / cm^3
# Si number density = 14.607294 Si / 1000 Ang^3
#
#
#
# Elastic Constant Matrix: (Units=GPa)
#
#
# Indices 1 2 3 4 5 6 
#
# 1 142.4569 53.4670 71.2410 0.0000 0.0000 0.0000
# 2 53.4670 49.8776 43.0703 0.0000 0.0000 0.0000
# 3 71.2410 43.0703 100.9792 0.0000 0.0000 0.0000
# 4 0.0000 0.0000 0.0000 19.8457 0.0000 0.0000
# 5 0.0000 0.0000 0.0000 0.0000 4.0510 0.0000
# 6 0.0000 0.0000 0.0000 0.0000 0.0000 24.9590
#
#
#
# Elastic Compliance Matrix: (Units=1/GPa)
#
#
# Indices 1 2 3 4 5 6 
#
# 1 0.013282 -0.009730 -0.005221 0.000000 0.000000 0.000000
# 2 -0.009730 0.038867 -0.009713 0.000000 0.000000 0.000000
# 3 -0.005221 -0.009713 0.017729 0.000000 0.000000 0.000000
# 4 0.000000 0.000000 0.000000 0.050389 0.000000 0.000000
# 5 0.000000 0.000000 0.000000 0.000000 0.246852 0.000000
# 6 0.000000 0.000000 0.000000 0.000000 0.000000 0.040066
#
#
# Mechanical properties :
#
#
# Convention : Reuss Voigt Hill
#
# Bulk Modulus (GPa) = 48.66025 69.87448 59.26737
# Shear Modulus (GPa) = 10.79068 18.14015 14.46541
#
# Velocity S-wave (km/s) = 2.72089 3.52782 3.15030
# Velocity P-wave (km/s) = 6.57690 8.03326 7.34128
#
# Compressibility (1/GPa) = 0.02055066
#
# Stress axis : x y z
#
# Youngs Moduli (GPa) = 75.28803 25.72883 56.40465
#
# Poissons Ratio (x) = 0.25035 0.29446
# Poissons Ratio (y) = 0.73256 0.54787
# Poissons Ratio (z) = 0.39304 0.24991
#
# Static dielectric constant tensor:
#      x y z
#    x 1.465130 0.000000 0.000000 
#    y 0.000000 1.490310 0.000000 
#    z 0.000000 0.000000 1.465990 
# 
# From -- ./inp_files/5597.got.cif
#   From: 2010.05.17/outbox.cif.g08.bks.cpg/sg69_3_cif.got.tgz:5597.got - 2010.06.03 19:29:58.
