data_PCOD9511751
_publ_section_title
;
Structure prediction by ZEFSAII (Michael W. Deem and Ramdas Pophale) SiO2 
 PCOD9511751
Probable space group: F M M M
;
_chemical_formula_sum "Si O2"
_cell_formula_units_Z 176
_cell_length_a 27.203500
_cell_length_b 13.746236
_cell_length_c 26.495763
_cell_angle_alpha 90.000000
_cell_angle_beta 90.000000
_cell_angle_gamma 90.000000
_cell_volume 9907.977464
_symmetry_space_group_name_H-M "F M M M"
_symmetry_group_IT_number 69
_symmetry_cell_setting 'orthorhombic'
loop_
_space_group_symop_operation_xyz
x,y,z
-x,-y,z
x,-y,-z
-x,y,-z
-x,-y,-z
x,y,-z
-x,y,z
x,-y,z
x,1/2+y,1/2+z
-x,1/2-y,1/2+z
x,1/2-y,1/2-z
-x,1/2+y,1/2-z
-x,1/2-y,1/2-z
x,1/2+y,1/2-z
-x,1/2+y,1/2+z
x,1/2-y,1/2+z
1/2+x,y,1/2+z
1/2-x,-y,1/2+z
1/2+x,-y,1/2-z
1/2-x,y,1/2-z
1/2-x,-y,1/2-z
1/2+x,y,1/2-z
1/2-x,y,1/2+z
1/2+x,-y,1/2+z
1/2+x,1/2+y,z
1/2-x,1/2-y,z
1/2+x,1/2-y,-z
1/2-x,1/2+y,-z
1/2-x,1/2-y,-z
1/2+x,1/2+y,-z
1/2-x,1/2+y,z
1/2+x,1/2-y,z
loop_
_atom_site_type_symbol
_atom_site_label
_atom_site_fract_x
_atom_site_fract_y
_atom_site_fract_z
Si Si1 0.110748 0.193226 0.097593
Si Si2 0.830780 0.723470 0.694028
Si Si3 0.441383 0.889624 0.060624
Si Si4 0.718059 0.847129 0.444598
Si Si5 0.558711 0.000000 0.441182
Si Si6 0.740731 0.106074 0.836826
O O1 0.126645 0.192835 0.156096
O O2 0.086052 0.296754 0.084134
O O3 0.161665 0.179492 0.066922
O O4 0.078498 0.099177 0.083790
O O5 0.846766 0.750000 0.750000
O O6 0.787727 0.642492 0.695139
O O7 0.802100 0.815257 0.669353
O O8 0.500000 0.881926 0.070391
O O9 0.425715 0.000000 0.076367
O O10 0.434728 0.884423 0.000000
O O11 0.721545 0.893875 0.500000
O O12 0.750000 0.750000 0.447171
O O13 0.739671 0.896821 0.394513
O O14 0.500000 0.000000 0.439379
O O15 0.574307 0.000000 0.500000
O O16 0.724138 0.000000 0.821222
#
# Coordination Sequence:
#
# PCOD9511751 Si02
#       6
#    32  32  32  32  16  32
#     4  11  21  37  57  84 117 153 191 238 286 348
#     4  10  22  38  53  78 108 144 195 243 287 330
#     4   9  18  34  58  85 112 143 179 224 280 338
#     4  10  19  33  50  77 119 159 185 216 272 347
#     4  11  24  40  64  94 119 150 194 246 305 364
#     4  10  19  35  55  77 108 150 197 238 276 329
#
# _framework density 17.763463999999999
#
# number of rings (size 3 to 8) (size 9 to 14) (size 15 to 20)
#    0.000    1.909    3.636    3.818    5.091    4.000 
#    0.000    0.000    0.000    2.182    0.000    0.000 
#    0.000    0.000    0.000    0.000    0.000    0.000 
#
# Total GULP energy -245337.667960 kJ/mol
# GULP energy per Si atom -5575.856090 kJ/mol
# Density = 1.772303 g / cm^3
# Si number density = 17.763464 Si / 1000 Ang^3
#
#
#
# Elastic Constant Matrix: (Units=GPa)
#
#
# Indices 1 2 3 4 5 6 
#
# 1 60.2792 42.7545 30.0043 0.0000 0.0000 0.0000
# 2 42.7545 126.5807 29.9648 0.0000 0.0000 0.0000
# 3 30.0043 29.9648 114.4121 0.0000 0.0000 0.0000
# 4 0.0000 0.0000 0.0000 6.7866 0.0000 0.0000
# 5 0.0000 0.0000 0.0000 0.0000 21.3947 0.0000
# 6 0.0000 0.0000 0.0000 0.0000 0.0000 -2.4569
#
#
#
# Elastic Compliance Matrix: (Units=1/GPa)
#
#
# Indices 1 2 3 4 5 6 
#
# 1 0.023722 -0.006972 -0.004395 0.000000 0.000000 0.000000
# 2 -0.006972 0.010471 -0.000914 0.000000 0.000000 0.000000
# 3 -0.004395 -0.000914 0.010132 0.000000 0.000000 0.000000
# 4 0.000000 0.000000 0.000000 0.147350 0.000000 0.000000
# 5 0.000000 0.000000 0.000000 0.000000 0.046740 0.000000
# 6 0.000000 0.000000 0.000000 0.000000 0.000000 -0.407019
#
#
# Mechanical properties :
#
#
# Convention : Reuss Voigt Hill
#
# Bulk Modulus (GPa) = 50.59841 56.30213 53.45027
# Shear Modulus (GPa) = -36.37614 18.38144 -8.99735
#
# Velocity S-wave (km/s) = -4.53018 3.22030 -2.25302
# Velocity P-wave (km/s) = 1.08767 6.75214 4.83603
#
# Compressibility (1/GPa) = 0.01976347
#
# Stress axis : x y z
#
# Youngs Moduli (GPa) = 42.15441 95.49803 98.69387
#
# Poissons Ratio (x) = 0.66582 0.43377
# Poissons Ratio (y) = 0.29391 0.09021
# Poissons Ratio (z) = 0.18527 0.08729
#
# Static dielectric constant tensor:
#      x y z
#    x 1.579410 0.000000 0.000000 
#    y 0.000000 1.618950 0.000000 
#    z 0.000000 0.000000 1.637900 
# 
# From -- ./inp_files/43169.got.cif
#   From: 2010.05.17/outbox.cif.g08.bks.cpg/sg69_22_cif.got.tgz:43169.got - 2010.06.03 19:29:58.
