data_PCOD9511846
_publ_section_title
;
Structure prediction by ZEFSAII (Michael W. Deem and Ramdas Pophale) SiO2 
 PCOD9511846
Probable space group: F M M M
;
_chemical_formula_sum "Si O2"
_cell_formula_units_Z 160
_cell_length_a 14.830768
_cell_length_b 22.749733
_cell_length_c 22.127289
_cell_angle_alpha 90.000000
_cell_angle_beta 90.000000
_cell_angle_gamma 90.000000
_cell_volume 7465.659069
_symmetry_space_group_name_H-M "F M M M"
_symmetry_group_IT_number 69
_symmetry_cell_setting 'orthorhombic'
loop_
_space_group_symop_operation_xyz
x,y,z
-x,-y,z
x,-y,-z
-x,y,-z
-x,-y,-z
x,y,-z
-x,y,z
x,-y,z
x,1/2+y,1/2+z
-x,1/2-y,1/2+z
x,1/2-y,1/2-z
-x,1/2+y,1/2-z
-x,1/2-y,1/2-z
x,1/2+y,1/2-z
-x,1/2+y,1/2+z
x,1/2-y,1/2+z
1/2+x,y,1/2+z
1/2-x,-y,1/2+z
1/2+x,-y,1/2-z
1/2-x,y,1/2-z
1/2-x,-y,1/2-z
1/2+x,y,1/2-z
1/2-x,y,1/2+z
1/2+x,-y,1/2+z
1/2+x,1/2+y,z
1/2-x,1/2-y,z
1/2+x,1/2-y,-z
1/2-x,1/2+y,-z
1/2-x,1/2-y,-z
1/2+x,1/2+y,-z
1/2-x,1/2+y,z
1/2+x,1/2-y,z
loop_
_atom_site_type_symbol
_atom_site_label
_atom_site_fract_x
_atom_site_fract_y
_atom_site_fract_z
Si Si1 0.644655 0.567548 0.762300
Si Si2 0.610274 0.500000 0.570325
Si Si3 0.104932 0.616046 0.866337
Si Si4 0.108840 0.860765 0.116302
Si Si5 0.110386 0.566895 0.500000
Si Si6 0.389563 0.265603 0.570952
O O1 0.608311 0.500000 0.766187
O O2 0.750000 0.562221 0.750000
O O3 0.607740 0.603638 0.704913
O O4 0.632505 0.605525 0.822509
O O5 0.500000 0.500000 0.576643
O O6 0.630254 0.500000 0.500000
O O7 0.645766 0.441635 0.602470
O O8 0.142213 0.676798 0.892601
O O9 0.000000 0.617311 0.884414
O O10 0.140048 0.899013 0.059420
O O11 0.139518 0.793952 0.104785
O O12 0.000000 0.859165 0.114526
O O13 0.140703 0.500000 0.500000
O O14 0.000000 0.566818 0.500000
O O15 0.362944 0.266377 0.500000
O O16 0.500000 0.264986 0.570884
#
# Coordination Sequence:
#
# PCOD9511846 Si02
#       6
#    32  16  32  32  16  32
#     4  11  24  40  56  75 113 153 191 236 287 332
#     4   9  16  28  51  82 108 135 179 234 278 314
#     4  10  19  33  57  84 111 144 187 230 276 336
#     4  10  19  34  59  86 114 148 185 229 282 339
#     4   9  16  28  52  86 111 133 180 236 279 325
#     4   9  17  32  56  88 120 145 176 228 286 334
#
# _framework density 21.431463999999998
#
# number of rings (size 3 to 8) (size 9 to 14) (size 15 to 20)
#    0.000    2.200    2.000    1.800    0.000    5.200 
#    0.000    5.000    4.400    1.200    0.000    0.000 
#    0.000    0.000    0.000    0.000    0.000    0.000 
#
# Total GULP energy -223408.619229 kJ/mol
# GULP energy per Si atom -5585.215481 kJ/mol
# Density = 2.138269 g / cm^3
# Si number density = 21.431464 Si / 1000 Ang^3
#
#
#
# Elastic Constant Matrix: (Units=GPa)
#
#
# Indices 1 2 3 4 5 6 
#
# 1 44.8056 18.4494 -4.9614 0.0000 0.0000 0.0000
# 2 18.4494 263.0307 146.8084 0.0000 0.0000 0.0000
# 3 -4.9614 146.8084 202.8599 0.0000 0.0000 0.0000
# 4 0.0000 0.0000 0.0000 1154.8662 0.0000 0.0000
# 5 0.0000 0.0000 0.0000 0.0000 -71.7709 0.0000
# 6 0.0000 0.0000 0.0000 0.0000 0.0000 -24.9754
#
#
#
# Elastic Compliance Matrix: (Units=1/GPa)
#
#
# Indices 1 2 3 4 5 6 
#
# 1 0.024047 -0.003380 0.003034 0.000000 0.000000 0.000000
# 2 -0.003380 0.006853 -0.005042 0.000000 0.000000 0.000000
# 3 0.003034 -0.005042 0.008653 0.000000 0.000000 0.000000
# 4 0.000000 0.000000 0.000000 0.000866 0.000000 0.000000
# 5 0.000000 0.000000 0.000000 0.000000 -0.013933 0.000000
# 6 0.000000 0.000000 0.000000 0.000000 0.000000 -0.040039
#
#
# Mechanical properties :
#
#
# Convention : Reuss Voigt Hill
#
# Bulk Modulus (GPa) = 34.75092 92.36543 63.55818
# Shear Modulus (GPa) = 733.73237 234.98397 484.35817
#
# Velocity S-wave (km/s) = 18.52311 10.48248 15.04972
# Velocity P-wave (km/s) = 21.76520 13.77322 18.21298
#
# Compressibility (1/GPa) = 0.02877622
#
# Stress axis : x y z
#
# Youngs Moduli (GPa) = 41.58600 145.91542 115.56895
#
# Poissons Ratio (x) = 0.49324 -0.35068
# Poissons Ratio (y) = 0.14057 0.58274
# Poissons Ratio (z) = -0.12619 0.73576
#
# Static dielectric constant tensor:
#      x y z
#    x 1.830160 0.000000 0.000000 
#    y 0.000000 1.781260 0.000000 
#    z 0.000000 0.000000 1.741020 
# 
# From -- ./inp_files/24625.got.cif
#   From: 2010.05.17/outbox.cif.g08.bks.cpg/sg69_13_cif.got.tgz:24625.got - 2010.06.03 19:29:58.
