data_PCOD9511228
_publ_section_title
;
Structure prediction by ZEFSAII (Michael W. Deem and Ramdas Pophale) SiO2 
 PCOD9511228
Probable space group: F M M M
;
_chemical_formula_sum "Si O2"
_cell_formula_units_Z 144
_cell_length_a 26.308491
_cell_length_b 7.322528
_cell_length_c 35.056544
_cell_angle_alpha 90.000000
_cell_angle_beta 90.000000
_cell_angle_gamma 90.000000
_cell_volume 6753.456069
_symmetry_space_group_name_H-M "F M M M"
_symmetry_group_IT_number 69
_symmetry_cell_setting 'orthorhombic'
loop_
_space_group_symop_operation_xyz
x,y,z
-x,-y,z
x,-y,-z
-x,y,-z
-x,-y,-z
x,y,-z
-x,y,z
x,-y,z
x,1/2+y,1/2+z
-x,1/2-y,1/2+z
x,1/2-y,1/2-z
-x,1/2+y,1/2-z
-x,1/2-y,1/2-z
x,1/2+y,1/2-z
-x,1/2+y,1/2+z
x,1/2-y,1/2+z
1/2+x,y,1/2+z
1/2-x,-y,1/2+z
1/2+x,-y,1/2-z
1/2-x,y,1/2-z
1/2-x,-y,1/2-z
1/2+x,y,1/2-z
1/2-x,y,1/2+z
1/2+x,-y,1/2+z
1/2+x,1/2+y,z
1/2-x,1/2-y,z
1/2+x,1/2-y,-z
1/2-x,1/2+y,-z
1/2-x,1/2-y,-z
1/2+x,1/2+y,-z
1/2-x,1/2+y,z
1/2+x,1/2-y,z
loop_
_atom_site_type_symbol
_atom_site_label
_atom_site_fract_x
_atom_site_fract_y
_atom_site_fract_z
Si Si1 0.305719 0.717248 0.124192
Si Si2 0.833259 0.777482 0.959199
Si Si3 0.555147 0.721301 0.936392
Si Si4 0.000000 0.782024 0.794838
Si Si5 0.913642 0.278098 0.649287
O O1 0.312014 0.500000 0.121615
O O2 0.250000 0.750000 0.140483
O O3 0.308481 0.786643 0.080346
O O4 0.355072 0.784551 0.147093
O O5 0.892751 0.723123 0.956455
O O6 0.831352 0.000000 0.958973
O O7 0.812185 0.715878 0.000000
O O8 0.500000 0.784794 0.950224
O O9 0.554729 0.500000 0.938781
O O10 0.561923 0.768257 0.891722
O O11 0.000000 0.750000 0.750000
O O12 0.949705 0.713341 0.816750
O O13 0.000000 0.000000 0.800138
O O14 0.912844 0.500000 0.651021
#
# Coordination Sequence:
#
# PCOD9511228 Si02
#       5
#    32  32  32  16  32
#     4   9  17  29  45  64  85 116 155 186 215 253
#     4   8  14  22  32  52  83 113 142 182 225 257
#     4   8  11  17  32  53  78 111 146 173 207 258
#     4  10  18  30  50  74  97 117 137 167 214 266
#     4   8  14  26  44  64  88 117 145 173 210 260
#
# _framework density 21.322414999999999
#
# number of rings (size 3 to 8) (size 9 to 14) (size 15 to 20)
#    0.000    3.556    1.111    2.667    0.000    0.889 
#    0.000    3.333    0.000    0.667    0.000    4.667 
#    0.000    0.000    0.000    5.778    0.000    6.667 
#
# Total GULP energy -200728.367527 kJ/mol
# GULP energy per Si atom -5575.787987 kJ/mol
# Density = 2.127388 g / cm^3
# Si number density = 21.322415 Si / 1000 Ang^3
#
#
#
# Elastic Constant Matrix: (Units=GPa)
#
#
# Indices 1 2 3 4 5 6 
#
# 1 172.8036 0.6356 54.8624 0.0002 -0.0002 -0.0068
# 2 0.6356 82.9748 2.5207 0.0005 -0.0001 -0.0153
# 3 54.8624 2.5207 114.7682 -0.0002 0.0000 0.0006
# 4 0.0002 0.0005 -0.0002 -18.4685 -0.0009 -0.0003
# 5 -0.0002 -0.0001 0.0000 -0.0009 -20.6991 0.0001
# 6 -0.0068 -0.0153 0.0006 -0.0003 0.0001 3.4986
#
#
#
# Elastic Compliance Matrix: (Units=1/GPa)
#
#
# Indices 1 2 3 4 5 6 
#
# 1 0.006822 0.000047 -0.003262 0.000000 0.000000 0.000014
# 2 0.000047 0.012060 -0.000287 0.000000 0.000000 0.000053
# 3 -0.003262 -0.000287 0.010279 0.000000 0.000000 -0.000009
# 4 0.000000 0.000000 0.000000 -0.054146 0.000002 -0.000004
# 5 0.000000 0.000000 0.000000 0.000002 -0.048311 0.000001
# 6 0.000014 0.000053 -0.000009 -0.000004 0.000001 0.285826
#
#
# Mechanical properties :
#
#
# Convention : Reuss Voigt Hill
#
# Bulk Modulus (GPa) = 45.13421 54.06490 49.59955
# Shear Modulus (GPa) = 22.03412 13.70140 17.86776
#
# Velocity S-wave (km/s) = 3.21811 2.53767 2.89793
# Velocity P-wave (km/s) = 5.91792 5.83072 5.87448
#
# Compressibility (1/GPa) = 0.02215614
#
# Stress axis : x y z
#
# Youngs Moduli (GPa) = 146.57398 82.91719 97.28547
#
# Poissons Ratio (x) = -0.00388 0.31738
# Poissons Ratio (y) = -0.00687 0.02795
# Poissons Ratio (z) = 0.47818 0.02382
#
# Static dielectric constant tensor:
#      x y z
#    x 1.803630 0.000000 0.000000 
#    y 0.000000 1.918070 0.000000 
#    z 0.000000 0.000000 1.729180 
# 
# From -- ./inp_files/43053.got.cif
#   From: 2010.05.17/outbox.cif.g08.bks.cpg/sg69_22_cif.got.tgz:43053.got - 2010.06.03 19:29:58.
