data_PCOD9511790
_publ_section_title
;
Structure prediction by ZEFSAII (Michael W. Deem and Ramdas Pophale) SiO2 
 PCOD9511790
Probable space group: F M M M
;
_chemical_formula_sum "Si O2"
_cell_formula_units_Z 208
_cell_length_a 29.902249
_cell_length_b 20.583792
_cell_length_c 20.282774
_cell_angle_alpha 90.000000
_cell_angle_beta 90.000000
_cell_angle_gamma 90.000000
_cell_volume 12484.081345
_symmetry_space_group_name_H-M "F M M M"
_symmetry_group_IT_number 69
_symmetry_cell_setting 'orthorhombic'
loop_
_space_group_symop_operation_xyz
x,y,z
-x,-y,z
x,-y,-z
-x,y,-z
-x,-y,-z
x,y,-z
-x,y,z
x,-y,z
x,1/2+y,1/2+z
-x,1/2-y,1/2+z
x,1/2-y,1/2-z
-x,1/2+y,1/2-z
-x,1/2-y,1/2-z
x,1/2+y,1/2-z
-x,1/2+y,1/2+z
x,1/2-y,1/2+z
1/2+x,y,1/2+z
1/2-x,-y,1/2+z
1/2+x,-y,1/2-z
1/2-x,y,1/2-z
1/2-x,-y,1/2-z
1/2+x,y,1/2-z
1/2-x,y,1/2+z
1/2+x,-y,1/2+z
1/2+x,1/2+y,z
1/2-x,1/2-y,z
1/2+x,1/2-y,-z
1/2-x,1/2+y,-z
1/2-x,1/2-y,-z
1/2+x,1/2+y,-z
1/2-x,1/2+y,z
1/2+x,1/2-y,z
loop_
_atom_site_type_symbol
_atom_site_label
_atom_site_fract_x
_atom_site_fract_y
_atom_site_fract_z
Si Si1 0.554117 0.000000 0.073280
Si Si2 0.448909 0.629392 0.650145
Si Si3 0.726075 0.576127 0.321135
Si Si4 0.730780 0.822100 0.423041
Si Si5 0.358074 0.792408 0.355321
Si Si6 0.050476 0.266611 0.578585
Si Si7 0.858819 0.653450 0.788624
O O1 0.565395 0.065265 0.111252
O O2 0.500000 0.000000 0.068822
O O3 0.572935 0.000000 0.000000
O O4 0.500000 0.622406 0.674161
O O5 0.448344 0.691163 0.601292
O O6 0.411501 0.640021 0.704771
O O7 0.730154 0.500000 0.338294
O O8 0.750000 0.586165 0.250000
O O9 0.747945 0.623967 0.375096
O O10 0.674494 0.597582 0.312235
O O11 0.739295 0.836200 0.500000
O O12 0.750000 0.750000 0.408172
O O13 0.678133 0.815742 0.407820
O O14 0.408402 0.798935 0.382786
O O15 0.350774 0.717013 0.334323
O O16 0.349904 0.829962 0.287192
O O17 0.056741 0.271087 0.500000
O O18 0.000000 0.290366 0.594556
#
# Coordination Sequence:
#
# PCOD9511790 Si02
#       7
#    16  32  32  32  32  32  32
#     4   9  16  28  46  66  93 138 185 213 250 311
#     4   9  18  30  45  71 104 138 177 219 259 311
#     4  11  23  39  59  81 109 147 184 224 277 337
#     4  11  22  37  59  84 110 142 182 233 279 323
#     4  10  19  33  54  79 103 137 181 224 267 326
#     4   9  17  30  48  72 106 140 170 215 271 321
#     4  10  20  33  54  77 103 141 179 221 271 320
#
# _framework density 16.661218000000002
#
# number of rings (size 3 to 8) (size 9 to 14) (size 15 to 20)
#    0.000    2.077    3.077    0.923    1.077    3.077 
#    0.000    3.846    0.000    0.000    0.000    0.000 
#    0.000    0.000    0.000    5.231    0.000    0.000 
#
# Total GULP energy -289761.357363 kJ/mol
# GULP energy per Si atom -5572.333795 kJ/mol
# Density = 1.662330 g / cm^3
# Si number density = 16.661218 Si / 1000 Ang^3
#
#
#
# Elastic Constant Matrix: (Units=GPa)
#
#
# Indices 1 2 3 4 5 6 
#
# 1 99.0165 35.1370 31.0956 0.0000 0.0000 0.0000
# 2 35.1370 79.3539 42.9116 0.0000 0.0000 0.0000
# 3 31.0956 42.9116 62.5347 0.0000 0.0000 0.0000
# 4 0.0000 0.0000 0.0000 12.8137 0.0000 0.0000
# 5 0.0000 0.0000 0.0000 0.0000 27.9938 0.0000
# 6 0.0000 0.0000 0.0000 0.0000 0.0000 19.1820
#
#
#
# Elastic Compliance Matrix: (Units=1/GPa)
#
#
# Indices 1 2 3 4 5 6 
#
# 1 0.012541 -0.003467 -0.003857 0.000000 0.000000 0.000000
# 2 -0.003467 0.020996 -0.012683 0.000000 0.000000 0.000000
# 3 -0.003857 -0.012683 0.026612 0.000000 0.000000 0.000000
# 4 0.000000 0.000000 0.000000 0.078042 0.000000 0.000000
# 5 0.000000 0.000000 0.000000 0.000000 0.035722 0.000000
# 6 0.000000 0.000000 0.000000 0.000000 0.000000 0.052132
#
#
# Mechanical properties :
#
#
# Convention : Reuss Voigt Hill
#
# Bulk Modulus (GPa) = 49.66665 51.02151 50.34408
# Shear Modulus (GPa) = 18.33041 20.78194 19.55618
#
# Velocity S-wave (km/s) = 3.32050 3.53558 3.42973
# Velocity P-wave (km/s) = 6.67648 6.88161 6.77982
#
# Compressibility (1/GPa) = 0.02013424
#
# Stress axis : x y z
#
# Youngs Moduli (GPa) = 79.73883 47.62880 37.57691
#
# Poissons Ratio (x) = 0.16515 0.14492
# Poissons Ratio (y) = 0.27649 0.47659
# Poissons Ratio (z) = 0.30752 0.60408
#
# Static dielectric constant tensor:
#      x y z
#    x 1.577310 0.000000 0.000000 
#    y 0.000000 1.542610 0.000000 
#    z 0.000000 0.000000 1.587070 
# 
# From -- ./inp_files/34077.got.cif
#   From: 2010.05.17/outbox.cif.g08.bks.cpg/sg69_18_cif.got.tgz:34077.got - 2010.06.03 19:29:58.
