data_PCOD9511057
_publ_section_title
;
Structure prediction by ZEFSAII (Michael W. Deem and Ramdas Pophale) SiO2 
 PCOD9511057
Probable space group: F M M M
;
_chemical_formula_sum "Si O2"
_cell_formula_units_Z 192
_cell_length_a 21.338966
_cell_length_b 13.846693
_cell_length_c 27.711303
_cell_angle_alpha 90.000000
_cell_angle_beta 90.000000
_cell_angle_gamma 90.000000
_cell_volume 8187.972622
_symmetry_space_group_name_H-M "F M M M"
_symmetry_group_IT_number 69
_symmetry_cell_setting 'orthorhombic'
loop_
_space_group_symop_operation_xyz
x,y,z
-x,-y,z
x,-y,-z
-x,y,-z
-x,-y,-z
x,y,-z
-x,y,z
x,-y,z
x,1/2+y,1/2+z
-x,1/2-y,1/2+z
x,1/2-y,1/2-z
-x,1/2+y,1/2-z
-x,1/2-y,1/2-z
x,1/2+y,1/2-z
-x,1/2+y,1/2+z
x,1/2-y,1/2+z
1/2+x,y,1/2+z
1/2-x,-y,1/2+z
1/2+x,-y,1/2-z
1/2-x,y,1/2-z
1/2-x,-y,1/2-z
1/2+x,y,1/2-z
1/2-x,y,1/2+z
1/2+x,-y,1/2+z
1/2+x,1/2+y,z
1/2-x,1/2-y,z
1/2+x,1/2-y,-z
1/2-x,1/2+y,-z
1/2-x,1/2-y,-z
1/2+x,1/2+y,-z
1/2-x,1/2+y,z
1/2+x,1/2-y,z
loop_
_atom_site_type_symbol
_atom_site_label
_atom_site_fract_x
_atom_site_fract_y
_atom_site_fract_z
Si Si1 0.180512 0.105804 0.607863
Si Si2 0.735666 0.863450 0.697181
Si Si3 0.593912 0.610911 0.215091
Si Si4 0.573209 0.117230 0.825149
Si Si5 0.696080 0.382275 0.055642
Si Si6 0.068194 0.618545 0.611793
O O1 0.222047 0.094977 0.656033
O O2 0.118048 0.152224 0.631221
O O3 0.234045 0.149640 0.573235
O O4 0.163172 0.000000 0.587789
O O5 0.750000 0.898569 0.750000
O O6 0.750000 0.750000 0.695520
O O7 0.663730 0.886897 0.694375
O O8 0.572051 0.500000 0.220111
O O9 0.590541 0.650343 0.270085
O O10 0.562946 0.654719 0.167428
O O11 0.500000 0.134402 0.832925
O O12 0.582678 0.000000 0.824848
O O13 0.698244 0.500000 0.059521
O O14 0.633539 0.352244 0.085539
O O15 0.687117 0.356304 0.000000
O O16 0.070894 0.500000 0.613747
O O17 0.000000 0.642561 0.588408
#
# Coordination Sequence:
#
# PCOD9511057 Si02
#       6
#    32  32  32  32  32  32
#     4  10  18  31  51  69  90 126 164 197 236 284
#     4  11  21  30  44  69  99 127 155 196 236 273
#     4  10  17  28  47  68  94 127 163 191 225 280
#     4   9  17  27  44  71  96 120 156 200 236 274
#     4   9  17  28  44  69  97 123 156 199 242 278
#     4   9  16  25  41  68 100 129 155 186 226 275
#
# _framework density 23.449027000000001
#
# number of rings (size 3 to 8) (size 9 to 14) (size 15 to 20)
#    0.000    2.333    3.333    1.000    0.000    3.000 
#    0.000    1.667    0.000    4.000    0.000    3.500 
#    0.000    0.000    0.000    0.000    0.000    0.000 
#
# Total GULP energy -267529.797705 kJ/mol
# GULP energy per Si atom -5573.537452 kJ/mol
# Density = 2.339566 g / cm^3
# Si number density = 23.449027 Si / 1000 Ang^3
#
#
#
# Elastic Constant Matrix: (Units=GPa)
#
#
# Indices 1 2 3 4 5 6 
#
# 1 181.7865 -0.3770 46.7533 0.0000 0.0000 0.0000
# 2 -0.3770 94.0425 12.5656 0.0000 0.0000 0.0000
# 3 46.7533 12.5656 119.5593 0.0000 0.0000 0.0000
# 4 0.0000 0.0000 0.0000 15.9012 0.0000 0.0000
# 5 0.0000 0.0000 0.0000 0.0000 21.3267 0.0000
# 6 0.0000 0.0000 0.0000 0.0000 0.0000 -115.4494
#
#
#
# Elastic Compliance Matrix: (Units=1/GPa)
#
#
# Indices 1 2 3 4 5 6 
#
# 1 0.006127 0.000350 -0.002433 0.000000 0.000000 0.000000
# 2 0.000350 0.010805 -0.001272 0.000000 0.000000 0.000000
# 3 -0.002433 -0.001272 0.009449 0.000000 0.000000 0.000000
# 4 0.000000 0.000000 0.000000 0.062889 0.000000 0.000000
# 5 0.000000 0.000000 0.000000 0.000000 0.046890 0.000000
# 6 0.000000 0.000000 0.000000 0.000000 0.000000 -0.008662
#
#
# Mechanical properties :
#
#
# Convention : Reuss Voigt Hill
#
# Bulk Modulus (GPa) = 50.83792 57.03024 53.93408
# Shear Modulus (GPa) = 35.52007 6.78546 21.15276
#
# Velocity S-wave (km/s) = 3.89624 1.70293 3.00671
# Velocity P-wave (km/s) = 6.47828 5.31417 5.92488
#
# Compressibility (1/GPa) = 0.01967036
#
# Stress axis : x y z
#
# Youngs Moduli (GPa) = 163.20180 92.55069 105.82987
#
# Poissons Ratio (x) = -0.03236 0.25747
# Poissons Ratio (y) = -0.05706 0.13465
# Poissons Ratio (z) = 0.39704 0.11775
#
# Static dielectric constant tensor:
#      x y z
#    x 1.879430 0.000000 0.000000 
#    y 0.000000 1.935830 0.000000 
#    z 0.000000 0.000000 1.915670 
# 
# From -- ./inp_files/32108.got.cif
#   From: 2010.05.17/outbox.cif.g08.bks.cpg/sg69_17_cif.got.tgz:32108.got - 2010.06.03 19:29:58.
