data_PCOD9511429
_publ_section_title
;
Structure prediction by ZEFSAII (Michael W. Deem and Ramdas Pophale) SiO2 
 PCOD9511429
Probable space group: F M M M
;
_chemical_formula_sum "Si O2"
_cell_formula_units_Z 104
_cell_length_a 14.609707
_cell_length_b 32.886020
_cell_length_c 10.583820
_cell_angle_alpha 90.000000
_cell_angle_beta 90.000000
_cell_angle_gamma 90.000000
_cell_volume 5085.050472
_symmetry_space_group_name_H-M "F M M M"
_symmetry_group_IT_number 69
_symmetry_cell_setting 'orthorhombic'
loop_
_space_group_symop_operation_xyz
x,y,z
-x,-y,z
x,-y,-z
-x,y,-z
-x,-y,-z
x,y,-z
-x,y,z
x,-y,z
x,1/2+y,1/2+z
-x,1/2-y,1/2+z
x,1/2-y,1/2-z
-x,1/2+y,1/2-z
-x,1/2-y,1/2-z
x,1/2+y,1/2-z
-x,1/2+y,1/2+z
x,1/2-y,1/2+z
1/2+x,y,1/2+z
1/2-x,-y,1/2+z
1/2+x,-y,1/2-z
1/2-x,y,1/2-z
1/2-x,-y,1/2-z
1/2+x,y,1/2-z
1/2-x,y,1/2+z
1/2+x,-y,1/2+z
1/2+x,1/2+y,z
1/2-x,1/2-y,z
1/2+x,1/2-y,-z
1/2-x,1/2+y,-z
1/2-x,1/2-y,-z
1/2+x,1/2+y,-z
1/2-x,1/2+y,z
1/2+x,1/2-y,z
loop_
_atom_site_type_symbol
_atom_site_label
_atom_site_fract_x
_atom_site_fract_y
_atom_site_fract_z
Si Si1 0.861761 0.799274 0.000000
Si Si2 0.395861 0.933280 0.850875
Si Si3 0.138648 0.705541 0.000000
Si Si4 0.250000 0.000000 0.250000
Si Si5 0.860664 0.844498 0.745771
O O1 0.890747 0.752334 0.000000
O O2 0.750175 0.796677 0.000000
O O3 0.890660 0.823519 0.124635
O O4 0.500000 0.948739 0.840516
O O5 0.322532 0.964645 0.797920
O O6 0.390273 0.890627 0.777153
O O7 0.376975 0.925667 0.000000
O O8 0.109364 0.682204 0.874035
O O9 0.750000 0.844695 0.750000
#
# Coordination Sequence:
#
# PCOD9511429 Si02
#       5
#    16  32  16   8  32
#     4   9  18  28  53  91 132 168 226 278 319 372
#     4  11  24  44  70  99 132 173 220 268 330 412
#     4   9  16  30  53  89 126 178 228 268 317 392
#     4  12  24  42  72  98 122 156 212 284 330 382
#     4  10  18  33  59  89 130 177 219 270 330 386
#
# _framework density 20.452107000000002
#
# number of rings (size 3 to 8) (size 9 to 14) (size 15 to 20)
#    0.000    1.846    3.077    1.846    0.000    4.923 
#    2.769    0.769    0.000    9.231    0.000    0.000 
#    0.000    0.000    0.000    0.000    0.000    0.000 
#
# Total GULP energy -144807.390417 kJ/mol
# GULP energy per Si atom -5569.515016 kJ/mol
# Density = 2.040556 g / cm^3
# Si number density = 20.452107 Si / 1000 Ang^3
#
#
#
# Elastic Constant Matrix: (Units=GPa)
#
#
# Indices 1 2 3 4 5 6 
#
# 1 104.3179 36.9166 46.6705 0.0000 0.0000 0.0000
# 2 36.9166 212.6211 106.0247 0.0000 0.0000 0.0000
# 3 46.6705 106.0247 166.6998 0.0000 0.0000 0.0000
# 4 0.0000 0.0000 0.0000 -48.9677 0.0000 0.0000
# 5 0.0000 0.0000 0.0000 0.0000 4.6216 0.0000
# 6 0.0000 0.0000 0.0000 0.0000 0.0000 -84.2200
#
#
#
# Elastic Compliance Matrix: (Units=1/GPa)
#
#
# Indices 1 2 3 4 5 6 
#
# 1 0.011002 -0.000548 -0.002732 0.000000 0.000000 0.000000
# 2 -0.000548 0.006915 -0.004245 0.000000 0.000000 0.000000
# 3 -0.002732 -0.004245 0.009463 0.000000 0.000000 0.000000
# 4 0.000000 0.000000 0.000000 -0.020422 0.000000 0.000000
# 5 0.000000 0.000000 0.000000 0.000000 0.216373 0.000000
# 6 0.000000 0.000000 0.000000 0.000000 0.000000 -0.011874
#
#
# Mechanical properties :
#
#
# Convention : Reuss Voigt Hill
#
# Bulk Modulus (GPa) = 81.09222 95.87358 88.48290
# Shear Modulus (GPa) = 21.68092 -6.11142 7.78475
#
# Velocity S-wave (km/s) = 3.25942 -1.73050 1.95310
# Velocity P-wave (km/s) = 7.34173 6.55637 6.96014
#
# Compressibility (1/GPa) = 0.01233164
#
# Stress axis : x y z
#
# Youngs Moduli (GPa) = 90.89133 144.61374 105.67212
#
# Poissons Ratio (x) = 0.07927 0.28866
# Poissons Ratio (y) = 0.04982 0.44854
# Poissons Ratio (z) = 0.24828 0.61383
#
# Static dielectric constant tensor:
#      x y z
#    x 1.743930 0.000000 0.000000 
#    y 0.000000 1.676920 0.000000 
#    z 0.000000 0.000000 1.694620 
# 
# From -- ./inp_files/8450.got.cif
#   From: 2010.05.17/outbox.cif.g08.bks.cpg/sg69_5_cif.got.tgz:8450.got - 2010.06.03 19:29:58.
