data_PCOD9511199
_publ_section_title
;
Structure prediction by ZEFSAII (Michael W. Deem and Ramdas Pophale) SiO2 
 PCOD9511199
Probable space group: F M M M
;
_chemical_formula_sum "Si O2"
_cell_formula_units_Z 160
_cell_length_a 13.668906
_cell_length_b 31.210910
_cell_length_c 24.402271
_cell_angle_alpha 90.000000
_cell_angle_beta 90.000000
_cell_angle_gamma 90.000000
_cell_volume 10410.472329
_symmetry_space_group_name_H-M "F M M M"
_symmetry_group_IT_number 69
_symmetry_cell_setting 'orthorhombic'
loop_
_space_group_symop_operation_xyz
x,y,z
-x,-y,z
x,-y,-z
-x,y,-z
-x,-y,-z
x,y,-z
-x,y,z
x,-y,z
x,1/2+y,1/2+z
-x,1/2-y,1/2+z
x,1/2-y,1/2-z
-x,1/2+y,1/2-z
-x,1/2-y,1/2-z
x,1/2+y,1/2-z
-x,1/2+y,1/2+z
x,1/2-y,1/2+z
1/2+x,y,1/2+z
1/2-x,-y,1/2+z
1/2+x,-y,1/2-z
1/2-x,y,1/2-z
1/2-x,-y,1/2-z
1/2+x,y,1/2-z
1/2-x,y,1/2+z
1/2+x,-y,1/2+z
1/2+x,1/2+y,z
1/2-x,1/2-y,z
1/2+x,1/2-y,-z
1/2-x,1/2+y,-z
1/2-x,1/2-y,-z
1/2+x,1/2+y,-z
1/2-x,1/2+y,z
1/2+x,1/2-y,z
loop_
_atom_site_type_symbol
_atom_site_label
_atom_site_fract_x
_atom_site_fract_y
_atom_site_fract_z
Si Si1 0.381391 0.952768 0.563961
Si Si2 0.382436 0.284968 0.669066
Si Si3 0.117851 0.137771 0.110276
Si Si4 0.728028 0.300631 0.560338
Si Si5 0.381807 0.690919 0.211996
O O1 0.354176 0.947922 0.500000
O O2 0.500000 0.953314 0.565699
O O3 0.351128 0.910593 0.596626
O O4 0.347937 0.000000 0.582875
O O5 0.500000 0.286007 0.665732
O O6 0.340064 0.304648 0.613715
O O7 0.348940 0.308370 0.725003
O O8 0.354529 0.235087 0.680530
O O9 0.175643 0.171042 0.071830
O O10 0.141878 0.151865 0.172303
O O11 0.000000 0.141738 0.102503
O O12 0.687827 0.312336 0.500000
O O13 0.750000 0.250000 0.558624
O O14 0.500000 0.692781 0.215528
#
# Coordination Sequence:
#
# PCOD9511199 Si02
#       5
#    32  32  32  32  32
#     4   8  14  25  42  63  87 118 151 180 218 271
#     4   9  17  32  46  59  83 113 150 194 220 246
#     4  10  18  30  45  65  93 121 147 182 223 263
#     4  11  22  30  39  62  89 118 156 182 213 270
#     4   8  15  28  47  64  79 109 151 185 222 261
#
# _framework density 15.36914
#
# number of rings (size 3 to 8) (size 9 to 14) (size 15 to 20)
#    0.000    2.800    2.000    2.400    0.000    2.400 
#    0.000    2.000    0.000    0.000    0.000    2.800 
#    0.000    2.400    0.000    4.200    0.000    0.400 
#
# Total GULP energy -222707.569717 kJ/mol
# GULP energy per Si atom -5567.689243 kJ/mol
# Density = 1.533416 g / cm^3
# Si number density = 15.369140 Si / 1000 Ang^3
#
#
#
# Elastic Constant Matrix: (Units=GPa)
#
#
# Indices 1 2 3 4 5 6 
#
# 1 43.1133 22.0850 31.0370 0.0000 0.0000 0.0000
# 2 22.0850 118.3198 57.3985 0.0000 0.0000 0.0000
# 3 31.0370 57.3985 138.7552 0.0000 0.0000 0.0000
# 4 0.0000 0.0000 0.0000 26.2696 0.0000 0.0000
# 5 0.0000 0.0000 0.0000 0.0000 16.9141 0.0000
# 6 0.0000 0.0000 0.0000 0.0000 0.0000 13.3834
#
#
#
# Elastic Compliance Matrix: (Units=1/GPa)
#
#
# Indices 1 2 3 4 5 6 
#
# 1 0.028355 -0.002772 -0.005196 0.000000 0.000000 0.000000
# 2 -0.002772 0.010845 -0.003866 0.000000 0.000000 0.000000
# 3 -0.005196 -0.003866 0.009968 0.000000 0.000000 0.000000
# 4 0.000000 0.000000 0.000000 0.038067 0.000000 0.000000
# 5 0.000000 0.000000 0.000000 0.000000 0.059122 0.000000
# 6 0.000000 0.000000 0.000000 0.000000 0.000000 0.074720
#
#
# Mechanical properties :
#
#
# Convention : Reuss Voigt Hill
#
# Bulk Modulus (GPa) = 39.21514 57.91436 48.56475
# Shear Modulus (GPa) = 19.74376 23.95792 21.85084
#
# Velocity S-wave (km/s) = 3.58807 3.95249 3.77468
# Velocity P-wave (km/s) = 6.53732 7.65465 7.11794
#
# Compressibility (1/GPa) = 0.02550035
#
# Stress axis : x y z
#
# Youngs Moduli (GPa) = 35.26694 92.21240 100.31720
#
# Poissons Ratio (x) = 0.25562 0.52123
# Poissons Ratio (y) = 0.09776 0.38782
# Poissons Ratio (z) = 0.18324 0.35649
#
# Static dielectric constant tensor:
#      x y z
#    x 1.553150 0.000000 0.000000 
#    y 0.000000 1.503620 0.000000 
#    z 0.000000 0.000000 1.548550 
# 
# From -- ./inp_files/18009.got.cif
#   From: 2010.05.17/outbox.cif.g08.bks.cpg/sg69_10_cif.got.tgz:18009.got - 2010.06.03 19:29:58.
