data_PCOD9511608
_publ_section_title
;
Structure prediction by ZEFSAII (Michael W. Deem and Ramdas Pophale) SiO2 
 PCOD9511608
Probable space group: F M M M
;
_chemical_formula_sum "Si O2"
_cell_formula_units_Z 192
_cell_length_a 19.666170
_cell_length_b 19.045042
_cell_length_c 26.697414
_cell_angle_alpha 90.000000
_cell_angle_beta 90.000000
_cell_angle_gamma 90.000000
_cell_volume 9999.330430
_symmetry_space_group_name_H-M "F M M M"
_symmetry_group_IT_number 69
_symmetry_cell_setting 'orthorhombic'
loop_
_space_group_symop_operation_xyz
x,y,z
-x,-y,z
x,-y,-z
-x,y,-z
-x,-y,-z
x,y,-z
-x,y,z
x,-y,z
x,1/2+y,1/2+z
-x,1/2-y,1/2+z
x,1/2-y,1/2-z
-x,1/2+y,1/2-z
-x,1/2-y,1/2-z
x,1/2+y,1/2-z
-x,1/2+y,1/2+z
x,1/2-y,1/2+z
1/2+x,y,1/2+z
1/2-x,-y,1/2+z
1/2+x,-y,1/2-z
1/2-x,y,1/2-z
1/2-x,-y,1/2-z
1/2+x,y,1/2-z
1/2-x,y,1/2+z
1/2+x,-y,1/2+z
1/2+x,1/2+y,z
1/2-x,1/2-y,z
1/2+x,1/2-y,-z
1/2-x,1/2+y,-z
1/2-x,1/2-y,-z
1/2+x,1/2+y,-z
1/2-x,1/2+y,z
1/2+x,1/2-y,z
loop_
_atom_site_type_symbol
_atom_site_label
_atom_site_fract_x
_atom_site_fract_y
_atom_site_fract_z
Si Si1 0.629912 0.421788 0.058471
Si Si2 0.081254 0.418725 0.709929
Si Si3 0.173535 0.780783 0.443328
Si Si4 0.307256 0.584380 0.287972
Si Si5 0.423541 0.308981 0.877221
Si Si6 0.218141 0.917955 0.401171
O O1 0.603991 0.500000 0.067722
O O2 0.577639 0.365524 0.078017
O O3 0.701597 0.413095 0.086969
O O4 0.644703 0.414160 0.000000
O O5 0.100814 0.500000 0.694840
O O6 0.120740 0.403283 0.761347
O O7 0.098535 0.357886 0.669874
O O8 0.000000 0.418329 0.715576
O O9 0.150007 0.762893 0.500000
O O10 0.250000 0.750000 0.438210
O O11 0.127250 0.749110 0.399112
O O12 0.179930 0.864305 0.437207
O O13 0.298249 0.500000 0.290638
O O14 0.250000 0.612107 0.250000
O O15 0.296732 0.607531 0.344670
O O16 0.500000 0.282749 0.867864
O O17 0.199334 0.000000 0.406859
#
# Coordination Sequence:
#
# PCOD9511608 Si02
#       6
#    32  32  32  32  32  32
#     4  10  19  31  51  81 116 151 186 228 282 346
#     4   9  18  34  57  86 121 157 188 224 280 351
#     4  11  23  39  58  81 112 153 197 239 284 338
#     4   9  17  30  53  84 113 145 187 235 280 326
#     4  11  22  36  56  82 116 156 190 228 285 348
#     4  10  20  36  59  84 111 146 193 244 287 330
#
# _framework density 19.201286
#
# number of rings (size 3 to 8) (size 9 to 14) (size 15 to 20)
#    0.000    2.000    1.667    2.500    0.000    6.000 
#    0.000    2.500    0.000    3.500    0.000    1.167 
#    0.000    0.000    0.000    0.000    0.000    0.000 
#
# Total GULP energy -267608.078688 kJ/mol
# GULP energy per Si atom -5575.168306 kJ/mol
# Density = 1.915758 g / cm^3
# Si number density = 19.201286 Si / 1000 Ang^3
#
#
#
# Elastic Constant Matrix: (Units=GPa)
#
#
# Indices 1 2 3 4 5 6 
#
# 1 28.3591 9.6655 7.3775 0.0000 0.0000 0.0000
# 2 9.6655 62.4860 -0.9449 0.0000 0.0000 0.0000
# 3 7.3775 -0.9449 62.9759 0.0000 0.0000 0.0000
# 4 0.0000 0.0000 0.0000 -8.0833 0.0000 0.0000
# 5 0.0000 0.0000 0.0000 0.0000 21.2118 0.0000
# 6 0.0000 0.0000 0.0000 0.0000 0.0000 20.4817
#
#
#
# Elastic Compliance Matrix: (Units=1/GPa)
#
#
# Indices 1 2 3 4 5 6 
#
# 1 0.038513 -0.006027 -0.004602 0.000000 0.000000 0.000000
# 2 -0.006027 0.016950 0.000960 0.000000 0.000000 0.000000
# 3 -0.004602 0.000960 0.016433 0.000000 0.000000 0.000000
# 4 0.000000 0.000000 0.000000 -0.123712 0.000000 0.000000
# 5 0.000000 0.000000 0.000000 0.000000 0.047144 0.000000
# 6 0.000000 0.000000 0.000000 0.000000 0.000000 0.048824
#
#
# Mechanical properties :
#
#
# Convention : Reuss Voigt Hill
#
# Bulk Modulus (GPa) = 19.02628 20.66857 19.84742
# Shear Modulus (GPa) = 61.72133 15.90356 38.81245
#
# Velocity S-wave (km/s) = 5.67575 2.88106 4.50082
# Velocity P-wave (km/s) = 7.27204 4.67492 6.11300
#
# Compressibility (1/GPa) = 0.05255888
#
# Stress axis : x y z
#
# Youngs Moduli (GPa) = 25.96502 58.99572 60.85453
#
# Poissons Ratio (x) = 0.35556 0.28006
# Poissons Ratio (y) = 0.15649 -0.05844
# Poissons Ratio (z) = 0.11950 -0.05666
#
# Static dielectric constant tensor:
#      x y z
#    x 1.685460 0.000000 0.000000 
#    y 0.000000 1.699000 0.000000 
#    z 0.000000 0.000000 1.699500 
# 
# From -- ./inp_files/37335.got.cif
#   From: 2010.05.17/outbox.cif.g08.bks.cpg/sg69_19_cif.got.tgz:37335.got - 2010.06.03 19:29:58.
