data_PCOD9511911
_publ_section_title
;
Structure prediction by ZEFSAII (Michael W. Deem and Ramdas Pophale) SiO2 
 PCOD9511911
Probable space group: F M M M
;
_chemical_formula_sum "Si O2"
_cell_formula_units_Z 144
_cell_length_a 27.853304
_cell_length_b 10.494627
_cell_length_c 28.957639
_cell_angle_alpha 90.000000
_cell_angle_beta 90.000000
_cell_angle_gamma 90.000000
_cell_volume 8464.608504
_symmetry_space_group_name_H-M "F M M M"
_symmetry_group_IT_number 69
_symmetry_cell_setting 'orthorhombic'
loop_
_space_group_symop_operation_xyz
x,y,z
-x,-y,z
x,-y,-z
-x,y,-z
-x,-y,-z
x,y,-z
-x,y,z
x,-y,z
x,1/2+y,1/2+z
-x,1/2-y,1/2+z
x,1/2-y,1/2-z
-x,1/2+y,1/2-z
-x,1/2-y,1/2-z
x,1/2+y,1/2-z
-x,1/2+y,1/2+z
x,1/2-y,1/2+z
1/2+x,y,1/2+z
1/2-x,-y,1/2+z
1/2+x,-y,1/2-z
1/2-x,y,1/2-z
1/2-x,-y,1/2-z
1/2+x,y,1/2-z
1/2-x,y,1/2+z
1/2+x,-y,1/2+z
1/2+x,1/2+y,z
1/2-x,1/2-y,z
1/2+x,1/2-y,-z
1/2-x,1/2+y,-z
1/2-x,1/2-y,-z
1/2+x,1/2+y,-z
1/2-x,1/2+y,z
1/2+x,1/2-y,z
loop_
_atom_site_type_symbol
_atom_site_label
_atom_site_fract_x
_atom_site_fract_y
_atom_site_fract_z
Si Si1 0.648167 0.740079 0.303860
Si Si2 0.629823 0.500000 0.946729
Si Si3 0.447217 0.648693 0.647251
Si Si4 0.685252 0.000000 0.351254
Si Si5 0.220265 0.000000 0.299794
Si Si6 0.554303 0.728692 0.948547
O O1 0.637504 0.750000 0.250000
O O2 0.598655 0.709024 0.329172
O O3 0.687294 0.625668 0.305421
O O4 0.666841 0.872222 0.325527
O O5 0.667371 0.500000 0.904402
O O6 0.594617 0.621536 0.942116
O O7 0.648818 0.500000 0.000000
O O8 0.500000 0.701195 0.660837
O O9 0.446877 0.500000 0.657841
O O10 0.442430 0.671218 0.592492
O O11 0.741737 0.000000 0.341357
O O12 0.250000 0.000000 0.250000
O O13 0.500000 0.672919 0.946148
O O14 0.559761 0.783208 0.000000
#
# Coordination Sequence:
#
# PCOD9511911 Si02
#       6
#    32  16  32  16  16  32
#     4  12  23  40  62  88 119 151 198 246 298 352
#     4  10  19  34  56  84 119 153 192 239 301 358
#     4  10  21  37  56  82 119 160 194 231 294 366
#     4  12  24  37  62  94 118 152 196 253 304 342
#     4  12  24  42  64  89 113 151 197 255 304 344
#     4   9  17  31  54  82 112 149 195 246 291 341
#
# _framework density 17.01201
#
# number of rings (size 3 to 8) (size 9 to 14) (size 15 to 20)
#    0.000    1.333    5.556    1.000    0.000    2.222 
#    0.000    2.778    0.000    4.000    0.000    0.000 
#    0.000    0.000    0.000    0.000    0.000    0.000 
#
# Total GULP energy -200624.792350 kJ/mol
# GULP energy per Si atom -5572.910899 kJ/mol
# Density = 1.697329 g / cm^3
# Si number density = 17.012010 Si / 1000 Ang^3
#
#
#
# Elastic Constant Matrix: (Units=GPa)
#
#
# Indices 1 2 3 4 5 6 
#
# 1 124.9844 44.3586 65.9410 0.0000 0.0000 0.0000
# 2 44.3586 84.3998 27.7394 0.0000 0.0000 0.0000
# 3 65.9410 27.7394 116.0022 0.0000 0.0000 0.0000
# 4 0.0000 0.0000 0.0000 22.1707 0.0000 0.0000
# 5 0.0000 0.0000 0.0000 0.0000 25.5125 0.0000
# 6 0.0000 0.0000 0.0000 0.0000 0.0000 0.6696
#
#
#
# Elastic Compliance Matrix: (Units=1/GPa)
#
#
# Indices 1 2 3 4 5 6 
#
# 1 0.012989 -0.004775 -0.006242 0.000000 0.000000 0.000000
# 2 -0.004775 0.014615 -0.000780 0.000000 0.000000 0.000000
# 3 -0.006242 -0.000780 0.012355 0.000000 0.000000 0.000000
# 4 0.000000 0.000000 0.000000 0.045104 0.000000 0.000000
# 5 0.000000 0.000000 0.000000 0.000000 0.039196 0.000000
# 6 0.000000 0.000000 0.000000 0.000000 0.000000 1.493394
#
#
# Mechanical properties :
#
#
# Convention : Reuss Voigt Hill
#
# Bulk Modulus (GPa) = 61.10851 66.82940 63.96895
# Shear Modulus (GPa) = 3.03637 22.16040 12.59838
#
# Velocity S-wave (km/s) = 1.33743 3.61312 2.72427
# Velocity P-wave (km/s) = 6.19546 7.53492 6.89778
#
# Compressibility (1/GPa) = 0.01636433
#
# Stress axis : x y z
#
# Youngs Moduli (GPa) = 76.98951 68.42484 80.93825
#
# Poissons Ratio (x) = 0.32674 0.50518
# Poissons Ratio (y) = 0.36764 0.06316
# Poissons Ratio (z) = 0.48053 0.05339
#
# Static dielectric constant tensor:
#      x y z
#    x 1.593690 0.000000 0.000000 
#    y 0.000000 1.597380 0.000000 
#    z 0.000000 0.000000 1.572620 
# 
# From -- ./inp_files/43463.got.cif
#   From: 2010.05.17/outbox.cif.g08.bks.cpg/sg69_22_cif.got.tgz:43463.got - 2010.06.03 19:29:58.
