data_PCOD9511093
_publ_section_title
;
Structure prediction by ZEFSAII (Michael W. Deem and Ramdas Pophale) SiO2 
 PCOD9511093
Probable space group: F M M M
;
_chemical_formula_sum "Si O2"
_cell_formula_units_Z 224
_cell_length_a 20.677520
_cell_length_b 32.402200
_cell_length_c 18.839817
_cell_angle_alpha 90.000000
_cell_angle_beta 90.000000
_cell_angle_gamma 90.000000
_cell_volume 12622.623481
_symmetry_space_group_name_H-M "F M M M"
_symmetry_group_IT_number 69
_symmetry_cell_setting 'orthorhombic'
loop_
_space_group_symop_operation_xyz
x,y,z
-x,-y,z
x,-y,-z
-x,y,-z
-x,-y,-z
x,y,-z
-x,y,z
x,-y,z
x,1/2+y,1/2+z
-x,1/2-y,1/2+z
x,1/2-y,1/2-z
-x,1/2+y,1/2-z
-x,1/2-y,1/2-z
x,1/2+y,1/2-z
-x,1/2+y,1/2+z
x,1/2-y,1/2+z
1/2+x,y,1/2+z
1/2-x,-y,1/2+z
1/2+x,-y,1/2-z
1/2-x,y,1/2-z
1/2-x,-y,1/2-z
1/2+x,y,1/2-z
1/2-x,y,1/2+z
1/2+x,-y,1/2+z
1/2+x,1/2+y,z
1/2-x,1/2-y,z
1/2+x,1/2-y,-z
1/2-x,1/2+y,-z
1/2-x,1/2-y,-z
1/2+x,1/2+y,-z
1/2-x,1/2+y,z
1/2+x,1/2-y,z
loop_
_atom_site_type_symbol
_atom_site_label
_atom_site_fract_x
_atom_site_fract_y
_atom_site_fract_z
Si Si1 0.261206 0.165112 0.172191
Si Si2 0.121407 0.809267 0.417191
Si Si3 0.000000 0.255646 0.086629
Si Si4 0.320507 0.427153 0.686640
Si Si5 0.358305 0.870191 0.415449
Si Si6 0.500000 0.339431 0.913991
Si Si7 0.817523 0.453918 0.652169
Si Si8 0.076020 0.095488 0.419981
O O1 0.250000 0.183422 0.250000
O O2 0.312499 0.190743 0.126495
O O3 0.294784 0.120233 0.186587
O O4 0.195507 0.155576 0.128666
O O5 0.134474 0.800108 0.500000
O O6 0.065140 0.778985 0.390589
O O7 0.092835 0.855798 0.414129
O O8 0.000000 0.208251 0.108414
O O9 0.000000 0.257632 0.000000
O O10 0.260591 0.451851 0.653352
O O11 0.333911 0.442010 0.766233
O O12 0.382691 0.428424 0.637642
O O13 0.351424 0.862346 0.500000
O O14 0.431729 0.859623 0.392469
O O15 0.343904 0.918007 0.398038
O O16 0.500000 0.340529 0.000000
O O17 0.839487 0.500000 0.635107
O O18 0.094329 0.083012 0.500000
O O19 0.000000 0.090196 0.410854
#
# Coordination Sequence:
#
# PCOD9511093 Si02
#       8
#    32  32  16  32  32  16  32  32
#     4  10  17  31  51  80 108 146 177 210 256 308
#     4   9  16  27  49  81 111 138 177 222 256 297
#     4   9  16  32  55  82 110 140 174 215 265 309
#     4   9  16  30  49  77 106 142 175 211 253 310
#     4  10  20  37  57  80 102 133 179 224 268 319
#     4   9  20  38  60  77 101 137 179 227 271 314
#     4  10  19  34  55  77 101 130 171 224 272 314
#     4   9  16  27  46  77 113 147 178 212 248 296
#
# _framework density 17.745915
#
# number of rings (size 3 to 8) (size 9 to 14) (size 15 to 20)
#    0.000    2.571    3.571    1.286    0.000    3.714 
#    1.286    1.786    0.000    9.857    0.000    4.000 
#    0.000    0.000    0.000    0.000    0.000    0.000 
#
# Total GULP energy -312111.517926 kJ/mol
# GULP energy per Si atom -5573.419963 kJ/mol
# Density = 1.770552 g / cm^3
# Si number density = 17.745915 Si / 1000 Ang^3
#
#
#
# Elastic Constant Matrix: (Units=GPa)
#
#
# Indices 1 2 3 4 5 6 
#
# 1 98.1863 22.1774 58.6213 0.0000 0.0000 0.0000
# 2 22.1774 34.7106 18.5803 0.0000 0.0000 0.0000
# 3 58.6213 18.5803 67.3862 0.0000 0.0000 0.0000
# 4 0.0000 0.0000 0.0000 7.8968 0.0000 0.0000
# 5 0.0000 0.0000 0.0000 0.0000 18.3858 0.0000
# 6 0.0000 0.0000 0.0000 0.0000 0.0000 8.2513
#
#
#
# Elastic Compliance Matrix: (Units=1/GPa)
#
#
# Indices 1 2 3 4 5 6 
#
# 1 0.021754 -0.004422 -0.017706 0.000000 0.000000 0.000000
# 2 -0.004422 0.034697 -0.005720 0.000000 0.000000 0.000000
# 3 -0.017706 -0.005720 0.031820 0.000000 0.000000 0.000000
# 4 0.000000 0.000000 0.000000 0.126634 0.000000 0.000000
# 5 0.000000 0.000000 0.000000 0.000000 0.054390 0.000000
# 6 0.000000 0.000000 0.000000 0.000000 0.000000 0.121193
#
#
# Mechanical properties :
#
#
# Convention : Reuss Voigt Hill
#
# Bulk Modulus (GPa) = 30.69778 44.33790 37.51784
# Shear Modulus (GPa) = 10.93991 13.63371 12.28681
#
# Velocity S-wave (km/s) = 2.48558 2.77478 2.63415
# Velocity P-wave (km/s) = 5.05703 5.94180 5.51718
#
# Compressibility (1/GPa) = 0.03257565
#
# Stress axis : x y z
#
# Youngs Moduli (GPa) = 45.96762 28.82106 31.42700
#
# Poissons Ratio (x) = 0.12744 0.55644
# Poissons Ratio (y) = 0.20325 0.17977
# Poissons Ratio (z) = 0.81389 0.16487
#
# Static dielectric constant tensor:
#      x y z
#    x 1.596410 0.000000 0.000000 
#    y 0.000000 1.613560 0.000000 
#    z 0.000000 0.000000 1.610840 
# 
# From -- ./inp_files/31228.got.cif
#   From: 2010.05.17/outbox.cif.g08.bks.cpg/sg69_16_cif.got.tgz:31228.got - 2010.06.03 19:29:58.
