data_PCOD9511493
_publ_section_title
;
Structure prediction by ZEFSAII (Michael W. Deem and Ramdas Pophale) SiO2 
 PCOD9511493
Probable space group: F M M M
;
_chemical_formula_sum "Si O2"
_cell_formula_units_Z 208
_cell_length_a 16.853118
_cell_length_b 25.494473
_cell_length_c 30.707143
_cell_angle_alpha 90.000000
_cell_angle_beta 90.000000
_cell_angle_gamma 90.000000
_cell_volume 13193.672879
_symmetry_space_group_name_H-M "F M M M"
_symmetry_group_IT_number 69
_symmetry_cell_setting 'orthorhombic'
loop_
_space_group_symop_operation_xyz
x,y,z
-x,-y,z
x,-y,-z
-x,y,-z
-x,-y,-z
x,y,-z
-x,y,z
x,-y,z
x,1/2+y,1/2+z
-x,1/2-y,1/2+z
x,1/2-y,1/2-z
-x,1/2+y,1/2-z
-x,1/2-y,1/2-z
x,1/2+y,1/2-z
-x,1/2+y,1/2+z
x,1/2-y,1/2+z
1/2+x,y,1/2+z
1/2-x,-y,1/2+z
1/2+x,-y,1/2-z
1/2-x,y,1/2-z
1/2-x,-y,1/2-z
1/2+x,y,1/2-z
1/2-x,y,1/2+z
1/2+x,-y,1/2+z
1/2+x,1/2+y,z
1/2-x,1/2-y,z
1/2+x,1/2-y,-z
1/2-x,1/2+y,-z
1/2-x,1/2-y,-z
1/2+x,1/2+y,-z
1/2-x,1/2+y,z
1/2+x,1/2-y,z
loop_
_atom_site_type_symbol
_atom_site_label
_atom_site_fract_x
_atom_site_fract_y
_atom_site_fract_z
Si Si1 0.909184 0.659591 0.238099
Si Si2 0.750168 0.620091 0.628684
Si Si3 0.668716 0.781598 0.839330
Si Si4 0.183678 0.060138 0.712236
Si Si5 0.590226 0.822732 0.658729
Si Si6 0.000000 0.440337 0.552729
Si Si7 0.323258 0.436529 0.051011
O O1 0.855140 0.694968 0.207267
O O2 0.884363 0.599981 0.227741
O O3 0.900921 0.672613 0.288841
O O4 0.000000 0.669124 0.225698
O O5 0.688873 0.668999 0.629818
O O6 0.721818 0.581889 0.667551
O O7 0.837150 0.643500 0.640114
O O8 0.761263 0.590070 0.583408
O O9 0.750000 0.750000 0.834619
O O10 0.605170 0.738140 0.853664
O O11 0.250000 0.062470 0.750000
O O12 0.157911 0.000000 0.707315
O O13 0.500000 0.838942 0.647571
O O14 0.913294 0.418223 0.563451
O O15 0.000000 0.500000 0.569902
O O16 0.000000 0.443267 0.500000
O O17 0.321691 0.500000 0.055229
O O18 0.310245 0.424417 0.000000
#
# Coordination Sequence:
#
# PCOD9511493 Si02
#       7
#    32  32  32  32  32  16  32
#     4  10  19  31  47  68  90 122 166 202 230 265
#     4  10  19  30  47  69  91 123 158 186 230 285
#     4   9  19  30  46  65  90 120 155 195 240 278
#     4  10  19  32  46  63  95 132 157 184 226 278
#     4  10  19  30  44  66  93 120 157 201 236 268
#     4   7  12  24  42  64  90 118 143 176 226 270
#     4   9  17  30  48  70  94 118 150 192 231 273
#
# _framework density 15.765133000000001
#
# number of rings (size 3 to 8) (size 9 to 14) (size 15 to 20)
#    0.000    2.538    1.538    2.308    1.077    3.385 
#    0.000    0.000    0.000    4.154    0.000    0.000 
#    0.000   14.769    0.000   49.385    0.000    0.000 
#
# Total GULP energy -289555.909228 kJ/mol
# GULP energy per Si atom -5568.382870 kJ/mol
# Density = 1.572925 g / cm^3
# Si number density = 15.765133 Si / 1000 Ang^3
#
#
#
# Elastic Constant Matrix: (Units=GPa)
#
#
# Indices 1 2 3 4 5 6 
#
# 1 28.6688 7.7263 20.1744 0.0000 0.0000 0.0000
# 2 7.7263 65.2258 28.5469 0.0000 0.0000 0.0000
# 3 20.1744 28.5469 70.1202 0.0000 0.0000 0.0000
# 4 0.0000 0.0000 0.0000 17.6396 0.0000 0.0000
# 5 0.0000 0.0000 0.0000 0.0000 19.9520 0.0000
# 6 0.0000 0.0000 0.0000 0.0000 0.0000 18.2525
#
#
#
# Elastic Compliance Matrix: (Units=1/GPa)
#
#
# Indices 1 2 3 4 5 6 
#
# 1 0.043745 0.000397 -0.012748 0.000000 0.000000 0.000000
# 2 0.000397 0.018659 -0.007711 0.000000 0.000000 0.000000
# 3 -0.012748 -0.007711 0.021068 0.000000 0.000000 0.000000
# 4 0.000000 0.000000 0.000000 0.056691 0.000000 0.000000
# 5 0.000000 0.000000 0.000000 0.000000 0.050120 0.000000
# 6 0.000000 0.000000 0.000000 0.000000 0.000000 0.054787
#
#
# Mechanical properties :
#
#
# Convention : Reuss Voigt Hill
#
# Bulk Modulus (GPa) = 23.06816 30.76778 26.91797
# Shear Modulus (GPa) = 16.68663 18.33998 17.51330
#
# Velocity S-wave (km/s) = 3.25692 3.41446 3.33662
# Velocity P-wave (km/s) = 5.36726 5.92481 5.65291
#
# Compressibility (1/GPa) = 0.04334979
#
# Stress axis : x y z
#
# Youngs Moduli (GPa) = 22.85996 53.59363 47.46542
#
# Poissons Ratio (x) = -0.02130 0.60507
# Poissons Ratio (y) = -0.00908 0.36599
# Poissons Ratio (z) = 0.29141 0.41324
#
# Static dielectric constant tensor:
#      x y z
#    x 1.540580 0.000000 0.000000 
#    y 0.000000 1.559840 0.000000 
#    z 0.000000 0.000000 1.497420 
# 
# From -- ./inp_files/26085.got.cif
#   From: 2010.05.17/outbox.cif.g08.bks.cpg/sg69_14_cif.got.tgz:26085.got - 2010.06.03 19:29:58.
