data_PCOD9511086
_publ_section_title
;
Structure prediction by ZEFSAII (Michael W. Deem and Ramdas Pophale) SiO2 
 PCOD9511086
Probable space group: F M M M
;
_chemical_formula_sum "Si O2"
_cell_formula_units_Z 176
_cell_length_a 14.522975
_cell_length_b 18.897910
_cell_length_c 28.795010
_cell_angle_alpha 90.000000
_cell_angle_beta 90.000000
_cell_angle_gamma 90.000000
_cell_volume 7902.902060
_symmetry_space_group_name_H-M "F M M M"
_symmetry_group_IT_number 69
_symmetry_cell_setting 'orthorhombic'
loop_
_space_group_symop_operation_xyz
x,y,z
-x,-y,z
x,-y,-z
-x,y,-z
-x,-y,-z
x,y,-z
-x,y,z
x,-y,z
x,1/2+y,1/2+z
-x,1/2-y,1/2+z
x,1/2-y,1/2-z
-x,1/2+y,1/2-z
-x,1/2-y,1/2-z
x,1/2+y,1/2-z
-x,1/2+y,1/2+z
x,1/2-y,1/2+z
1/2+x,y,1/2+z
1/2-x,-y,1/2+z
1/2+x,-y,1/2-z
1/2-x,y,1/2-z
1/2-x,-y,1/2-z
1/2+x,y,1/2-z
1/2-x,y,1/2+z
1/2+x,-y,1/2+z
1/2+x,1/2+y,z
1/2-x,1/2-y,z
1/2+x,1/2-y,-z
1/2-x,1/2+y,-z
1/2-x,1/2-y,-z
1/2+x,1/2+y,-z
1/2-x,1/2+y,z
1/2+x,1/2-y,z
loop_
_atom_site_type_symbol
_atom_site_label
_atom_site_fract_x
_atom_site_fract_y
_atom_site_fract_z
Si Si1 0.388006 0.420099 0.613839
Si Si2 0.887406 0.822078 0.808253
Si Si3 0.850402 0.285649 0.946750
Si Si4 0.888309 0.341085 0.205784
Si Si5 0.892805 0.083607 0.000000
Si Si6 0.602939 0.855571 0.405726
O O1 0.500000 0.419320 0.611838
O O2 0.356816 0.500000 0.604077
O O3 0.354682 0.360926 0.577848
O O4 0.361136 0.394837 0.665623
O O5 0.860388 0.739280 0.807119
O O6 0.859260 0.854534 0.758902
O O7 0.853002 0.859704 0.854987
O O8 0.000000 0.823298 0.810621
O O9 0.750000 0.250000 0.947085
O O10 0.904768 0.227804 0.916728
O O11 0.882903 0.289302 0.000000
O O12 0.000000 0.340468 0.206697
O O13 0.852023 0.111483 0.048237
O O14 0.000000 0.109163 0.000000
O O15 0.891850 0.000000 0.000000
O O16 0.500000 0.887499 0.402628
#
# Coordination Sequence:
#
# PCOD9511086 Si02
#       6
#    32  32  32  32  16  32
#     4  10  20  35  58  87 119 150 180 227 288 342
#     4   8  13  22  44  76 105 134 173 222 266 315
#     4  11  23  37  53  76 109 143 187 230 270 337
#     4   8  13  24  44  76 112 137 168 217 269 322
#     4   9  18  30  45  70  97 119 159 222 280 316
#     4  10  17  30  54  77  98 133 178 228 278 320
#
# _framework density 22.270301
#
# number of rings (size 3 to 8) (size 9 to 14) (size 15 to 20)
#    0.000    2.636    2.727    1.636    0.000    1.455 
#    0.000    2.727    0.000    7.636    0.000    1.273 
#    0.000    0.000    0.000    0.000    0.000    0.000 
#
# Total GULP energy -245595.752791 kJ/mol
# GULP energy per Si atom -5581.721654 kJ/mol
# Density = 2.221961 g / cm^3
# Si number density = 22.270301 Si / 1000 Ang^3
#
#
#
# Elastic Constant Matrix: (Units=GPa)
#
#
# Indices 1 2 3 4 5 6 
#
# 1 62.9500 12.4746 16.3045 0.0000 0.0000 0.0000
# 2 12.4746 84.7152 37.6817 0.0000 0.0000 0.0000
# 3 16.3045 37.6817 181.6674 0.0000 0.0000 0.0000
# 4 0.0000 0.0000 0.0000 31.2554 0.0000 0.0000
# 5 0.0000 0.0000 0.0000 0.0000 87.0883 0.0000
# 6 0.0000 0.0000 0.0000 0.0000 0.0000 6.8322
#
#
#
# Elastic Compliance Matrix: (Units=1/GPa)
#
#
# Indices 1 2 3 4 5 6 
#
# 1 0.016553 -0.001957 -0.001080 0.000000 0.000000 0.000000
# 2 -0.001957 0.013235 -0.002570 0.000000 0.000000 0.000000
# 3 -0.001080 -0.002570 0.006134 0.000000 0.000000 0.000000
# 4 0.000000 0.000000 0.000000 0.031994 0.000000 0.000000
# 5 0.000000 0.000000 0.000000 0.000000 0.011483 0.000000
# 6 0.000000 0.000000 0.000000 0.000000 0.000000 0.146366
#
#
# Mechanical properties :
#
#
# Convention : Reuss Voigt Hill
#
# Bulk Modulus (GPa) = 40.46961 51.36159 45.91560
# Shear Modulus (GPa) = 20.39020 42.55997 31.47509
#
# Velocity S-wave (km/s) = 3.02914 4.37631 3.76349
# Velocity P-wave (km/s) = 5.51776 6.97489 6.28867
#
# Compressibility (1/GPa) = 0.02470990
#
# Stress axis : x y z
#
# Youngs Moduli (GPa) = 60.41160 75.55457 163.01342
#
# Poissons Ratio (x) = 0.14788 0.17600
# Poissons Ratio (y) = 0.11824 0.41889
# Poissons Ratio (z) = 0.06522 0.19415
#
# Static dielectric constant tensor:
#      x y z
#    x 1.897320 0.000000 0.000000 
#    y 0.000000 1.756660 0.000000 
#    z 0.000000 0.000000 1.842440 
# 
# From -- ./inp_files/41807.got.cif
#   From: 2010.05.17/outbox.cif.g08.bks.cpg/sg69_21_cif.got.tgz:41807.got - 2010.06.03 19:29:58.
