data_PCOD9511355
_publ_section_title
;
Structure prediction by ZEFSAII (Michael W. Deem and Ramdas Pophale) SiO2 
 PCOD9511355
Probable space group: F M M M
;
_chemical_formula_sum "Si O2"
_cell_formula_units_Z 224
_cell_length_a 14.715361
_cell_length_b 33.529417
_cell_length_c 22.852487
_cell_angle_alpha 90.000000
_cell_angle_beta 90.000000
_cell_angle_gamma 90.000000
_cell_volume 11275.359390
_symmetry_space_group_name_H-M "F M M M"
_symmetry_group_IT_number 69
_symmetry_cell_setting 'orthorhombic'
loop_
_space_group_symop_operation_xyz
x,y,z
-x,-y,z
x,-y,-z
-x,y,-z
-x,-y,-z
x,y,-z
-x,y,z
x,-y,z
x,1/2+y,1/2+z
-x,1/2-y,1/2+z
x,1/2-y,1/2-z
-x,1/2+y,1/2-z
-x,1/2-y,1/2-z
x,1/2+y,1/2-z
-x,1/2+y,1/2+z
x,1/2-y,1/2+z
1/2+x,y,1/2+z
1/2-x,-y,1/2+z
1/2+x,-y,1/2-z
1/2-x,y,1/2-z
1/2-x,-y,1/2-z
1/2+x,y,1/2-z
1/2-x,y,1/2+z
1/2+x,-y,1/2+z
1/2+x,1/2+y,z
1/2-x,1/2-y,z
1/2+x,1/2-y,-z
1/2-x,1/2+y,-z
1/2-x,1/2-y,-z
1/2+x,1/2+y,-z
1/2-x,1/2+y,z
1/2+x,1/2-y,z
loop_
_atom_site_type_symbol
_atom_site_label
_atom_site_fract_x
_atom_site_fract_y
_atom_site_fract_z
Si Si1 0.104465 0.676472 0.172185
Si Si2 0.729887 0.455471 0.430318
Si Si3 0.390013 0.377873 0.567028
Si Si4 0.890003 0.659278 0.300330
Si Si5 0.395684 0.142096 0.500000
Si Si6 0.355492 0.739386 0.871874
Si Si7 0.106791 0.588631 0.616072
Si Si8 0.153669 0.771774 0.000000
O O1 0.142608 0.654611 0.114589
O O2 0.145706 0.664677 0.234448
O O3 0.104484 0.723927 0.164293
O O4 0.000000 0.663160 0.174466
O O5 0.750957 0.454050 0.500000
O O6 0.695410 0.500000 0.417504
O O7 0.658075 0.420031 0.419706
O O8 0.821467 0.446285 0.394395
O O9 0.366783 0.366544 0.500000
O O10 0.500000 0.381614 0.568960
O O11 0.864654 0.697103 0.340260
O O12 0.865830 0.617666 0.330832
O O13 0.000000 0.660068 0.298940
O O14 0.500000 0.157182 0.500000
O O15 0.384407 0.115710 0.442419
O O16 0.333502 0.180672 0.500000
O O17 0.250000 0.750000 0.875698
O O18 0.392557 0.738469 0.938175
O O19 0.000000 0.577285 0.621311
O O20 0.250000 0.750000 0.000000
#
# Coordination Sequence:
#
# PCOD9511355 Si02
#       8
#    32  32  32  32  16  32  32  16
#     4  10  22  38  56  78 107 145 190 241 288 328
#     4  10  21  36  59  91 121 146 177 227 285 340
#     4   9  20  39  61  85 113 147 187 233 288 343
#     4  10  21  38  56  75 107 152 193 232 280 334
#     4  10  18  32  53  76 104 143 193 234 270 328
#     4  11  23  35  50  78 111 147 193 238 283 331
#     4  10  20  35  57  83 115 155 190 225 276 336
#     4  10  22  34  48  73 109 149 188 234 289 328
#
# _framework density 19.866329
#
# number of rings (size 3 to 8) (size 9 to 14) (size 15 to 20)
#    0.000    2.000    2.143    0.857    3.000    3.429 
#    0.000    2.143    0.000    1.714    0.000    4.000 
#    0.000    0.000    0.000    0.000    0.000    0.000 
#
# Total GULP energy -312613.466940 kJ/mol
# GULP energy per Si atom -5582.383338 kJ/mol
# Density = 1.982111 g / cm^3
# Si number density = 19.866329 Si / 1000 Ang^3
#
#
#
# Elastic Constant Matrix: (Units=GPa)
#
#
# Indices 1 2 3 4 5 6 
#
# 1 48.7837 10.3211 8.2270 0.0000 0.0000 0.0000
# 2 10.3211 51.5215 9.5671 0.0000 0.0000 0.0000
# 3 8.2270 9.5671 102.5841 0.0000 0.0000 0.0000
# 4 0.0000 0.0000 0.0000 14.8625 0.0000 0.0000
# 5 0.0000 0.0000 0.0000 0.0000 9.9233 0.0000
# 6 0.0000 0.0000 0.0000 0.0000 0.0000 22.0812
#
#
#
# Elastic Compliance Matrix: (Units=1/GPa)
#
#
# Indices 1 2 3 4 5 6 
#
# 1 0.021588 -0.004074 -0.001351 0.000000 0.000000 0.000000
# 2 -0.004074 0.020520 -0.001587 0.000000 0.000000 0.000000
# 3 -0.001351 -0.001587 0.010004 0.000000 0.000000 0.000000
# 4 0.000000 0.000000 0.000000 0.067283 0.000000 0.000000
# 5 0.000000 0.000000 0.000000 0.000000 0.100773 0.000000
# 6 0.000000 0.000000 0.000000 0.000000 0.000000 0.045287
#
#
# Mechanical properties :
#
#
# Convention : Reuss Voigt Hill
#
# Bulk Modulus (GPa) = 26.25456 28.79110 27.52283
# Shear Modulus (GPa) = 17.11289 21.02500 19.06895
#
# Velocity S-wave (km/s) = 2.93815 3.25672 3.10153
# Velocity P-wave (km/s) = 4.97540 5.35402 5.16818
#
# Compressibility (1/GPa) = 0.03808862
#
# Stress axis : x y z
#
# Youngs Moduli (GPa) = 46.32108 48.73257 99.95515
#
# Poissons Ratio (x) = 0.19853 0.13508
# Poissons Ratio (y) = 0.18870 0.15863
# Poissons Ratio (z) = 0.06260 0.07734
#
# Static dielectric constant tensor:
#      x y z
#    x 1.762330 0.000000 0.000000 
#    y 0.000000 1.667630 0.000000 
#    z 0.000000 0.000000 1.731500 
# 
# From -- ./inp_files/31238.got.cif
#   From: 2010.05.17/outbox.cif.g08.bks.cpg/sg69_16_cif.got.tgz:31238.got - 2010.06.03 19:29:58.
