data_PCOD9511652
_publ_section_title
;
Structure prediction by ZEFSAII (Michael W. Deem and Ramdas Pophale) SiO2 
 PCOD9511652
Probable space group: F M M M
;
_chemical_formula_sum "Si O2"
_cell_formula_units_Z 208
_cell_length_a 28.683393
_cell_length_b 22.656965
_cell_length_c 17.898432
_cell_angle_alpha 90.000000
_cell_angle_beta 90.000000
_cell_angle_gamma 90.000000
_cell_volume 11631.808490
_symmetry_space_group_name_H-M "F M M M"
_symmetry_group_IT_number 69
_symmetry_cell_setting 'orthorhombic'
loop_
_space_group_symop_operation_xyz
x,y,z
-x,-y,z
x,-y,-z
-x,y,-z
-x,-y,-z
x,y,-z
-x,y,z
x,-y,z
x,1/2+y,1/2+z
-x,1/2-y,1/2+z
x,1/2-y,1/2-z
-x,1/2+y,1/2-z
-x,1/2-y,1/2-z
x,1/2+y,1/2-z
-x,1/2+y,1/2+z
x,1/2-y,1/2+z
1/2+x,y,1/2+z
1/2-x,-y,1/2+z
1/2+x,-y,1/2-z
1/2-x,y,1/2-z
1/2-x,-y,1/2-z
1/2+x,y,1/2-z
1/2-x,y,1/2+z
1/2+x,-y,1/2+z
1/2+x,1/2+y,z
1/2-x,1/2-y,z
1/2+x,1/2-y,-z
1/2-x,1/2+y,-z
1/2-x,1/2-y,-z
1/2+x,1/2+y,-z
1/2-x,1/2+y,z
1/2+x,1/2-y,z
loop_
_atom_site_type_symbol
_atom_site_label
_atom_site_fract_x
_atom_site_fract_y
_atom_site_fract_z
Si Si1 0.716852 0.196420 0.589154
Si Si2 0.124023 0.271918 0.670542
Si Si3 0.054831 0.935559 0.669047
Si Si4 0.189166 0.566998 0.590176
Si Si5 0.945035 0.684886 0.087640
Si Si6 0.593342 0.403447 0.825748
Si Si7 0.000000 0.570467 0.416446
O O1 0.722562 0.195457 0.500000
O O2 0.750000 0.250000 0.617953
O O3 0.665361 0.216471 0.612663
O O4 0.718941 0.126246 0.612363
O O5 0.143085 0.250000 0.750000
O O6 0.087081 0.226849 0.636662
O O7 0.099550 0.333987 0.684869
O O8 0.064214 0.882087 0.613420
O O9 0.084762 0.930615 0.744309
O O10 0.000000 0.931075 0.691126
O O11 0.061779 0.000000 0.634535
O O12 0.182250 0.570705 0.500000
O O13 0.207478 0.500000 0.605537
O O14 0.139233 0.573079 0.631643
O O15 0.000000 0.696948 0.100185
O O16 0.935446 0.692619 0.000000
O O17 0.547055 0.412931 0.874042
O O18 0.000000 0.500000 0.421006
O O19 0.000000 0.595973 0.500000
#
# Coordination Sequence:
#
# PCOD9511652 Si02
#       7
#    32  32  32  32  32  32  16
#     4   9  19  36  58  83 109 142 179 221 272 328
#     4  11  22  36  55  80 107 141 181 226 274 328
#     4  10  19  32  51  72  97 138 188 233 275 318
#     4   9  17  30  50  78 110 142 179 219 263 324
#     4  10  22  37  53  75 106 143 183 231 279 326
#     4  11  20  31  48  73 108 145 186 223 267 324
#     4  11  22  32  45  72 111 151 187 224 268 318
#
# _framework density 17.882000000000001
#
# number of rings (size 3 to 8) (size 9 to 14) (size 15 to 20)
#    0.000    1.923    2.308    2.308    1.077    4.000 
#    0.000    1.538    0.000    0.923    0.000    4.308 
#    0.000    0.000    0.000    0.000    0.000    0.000 
#
# Total GULP energy -289746.627308 kJ/mol
# GULP energy per Si atom -5572.050525 kJ/mol
# Density = 1.784130 g / cm^3
# Si number density = 17.882000 Si / 1000 Ang^3
#
#
#
# Elastic Constant Matrix: (Units=GPa)
#
#
# Indices 1 2 3 4 5 6 
#
# 1 30.7476 32.9184 -1.7133 0.0000 0.0000 0.0000
# 2 32.9184 144.7206 1.5020 0.0000 0.0000 0.0000
# 3 -1.7133 1.5020 11.5308 0.0000 0.0000 0.0000
# 4 0.0000 0.0000 0.0000 21.5707 0.0000 0.0000
# 5 0.0000 0.0000 0.0000 0.0000 11.7770 0.0000
# 6 0.0000 0.0000 0.0000 0.0000 0.0000 2.6876
#
#
#
# Elastic Compliance Matrix: (Units=1/GPa)
#
#
# Indices 1 2 3 4 5 6 
#
# 1 0.043681 -0.010017 0.007795 0.000000 0.000000 0.000000
# 2 -0.010017 0.009216 -0.002689 0.000000 0.000000 0.000000
# 3 0.007795 -0.002689 0.088233 0.000000 0.000000 0.000000
# 4 0.000000 0.000000 0.000000 0.046359 0.000000 0.000000
# 5 0.000000 0.000000 0.000000 0.000000 0.084911 0.000000
# 6 0.000000 0.000000 0.000000 0.000000 0.000000 0.372077
#
#
# Mechanical properties :
#
#
# Convention : Reuss Voigt Hill
#
# Bulk Modulus (GPa) = 7.61557 28.04591 17.83074
# Shear Modulus (GPa) = 7.16262 17.49319 12.32791
#
# Velocity S-wave (km/s) = 2.00354 3.13110 2.62850
# Velocity P-wave (km/s) = 3.10166 5.36560 4.38235
#
# Compressibility (1/GPa) = 0.13130996
#
# Stress axis : x y z
#
# Youngs Moduli (GPa) = 22.89317 108.50474 11.33361
#
# Poissons Ratio (x) = 1.08686 -0.08835
# Poissons Ratio (y) = 0.22931 0.03048
# Poissons Ratio (z) = -0.17846 0.29176
#
# Static dielectric constant tensor:
#      x y z
#    x 1.599580 0.000000 0.000000 
#    y 0.000000 1.658050 0.000000 
#    z 0.000000 0.000000 1.605860 
# 
# From -- ./inp_files/27030.got.cif
#   From: 2010.05.17/outbox.cif.g08.bks.cpg/sg69_14_cif.got.tgz:27030.got - 2010.06.03 19:29:58.
