data_PCOD9511819
_publ_section_title
;
Structure prediction by ZEFSAII (Michael W. Deem and Ramdas Pophale) SiO2 
 PCOD9511819
Probable space group: F M M M
;
_chemical_formula_sum "Si O2"
_cell_formula_units_Z 176
_cell_length_a 29.171490
_cell_length_b 17.916430
_cell_length_c 16.366186
_cell_angle_alpha 90.000000
_cell_angle_beta 90.000000
_cell_angle_gamma 90.000000
_cell_volume 8553.770069
_symmetry_space_group_name_H-M "F M M M"
_symmetry_group_IT_number 69
_symmetry_cell_setting 'orthorhombic'
loop_
_space_group_symop_operation_xyz
x,y,z
-x,-y,z
x,-y,-z
-x,y,-z
-x,-y,-z
x,y,-z
-x,y,z
x,-y,z
x,1/2+y,1/2+z
-x,1/2-y,1/2+z
x,1/2-y,1/2-z
-x,1/2+y,1/2-z
-x,1/2-y,1/2-z
x,1/2+y,1/2-z
-x,1/2+y,1/2+z
x,1/2-y,1/2+z
1/2+x,y,1/2+z
1/2-x,-y,1/2+z
1/2+x,-y,1/2-z
1/2-x,y,1/2-z
1/2-x,-y,1/2-z
1/2+x,y,1/2-z
1/2-x,y,1/2+z
1/2+x,-y,1/2+z
1/2+x,1/2+y,z
1/2-x,1/2-y,z
1/2+x,1/2-y,-z
1/2-x,1/2+y,-z
1/2-x,1/2-y,-z
1/2+x,1/2+y,-z
1/2-x,1/2+y,z
1/2+x,1/2-y,z
loop_
_atom_site_type_symbol
_atom_site_label
_atom_site_fract_x
_atom_site_fract_y
_atom_site_fract_z
Si Si1 0.446554 0.186351 0.599461
Si Si2 0.945855 0.000000 0.406133
Si Si3 0.769577 0.090094 0.092027
Si Si4 0.174456 0.912182 0.657432
Si Si5 0.135800 0.912802 0.840660
Si Si6 0.911241 0.653940 0.904800
O O1 0.441535 0.181881 0.500000
O O2 0.500000 0.172736 0.618228
O O3 0.410487 0.130742 0.640378
O O4 0.431760 0.269570 0.627590
O O5 0.930354 0.077215 0.366398
O O6 0.927255 0.000000 0.500000
O O7 0.000000 0.000000 0.410634
O O8 0.727653 0.109733 0.151218
O O9 0.820510 0.118886 0.109345
O O10 0.773957 0.000000 0.098755
O O11 0.755298 0.108321 0.000000
O O12 0.154026 0.908524 0.748033
O O13 0.142982 0.857466 0.604197
O O14 0.170805 0.000000 0.630047
O O15 0.128691 0.000000 0.861023
O O16 0.924994 0.653361 0.000000
#
# Coordination Sequence:
#
# PCOD9511819 Si02
#       6
#    32  16  32  32  32  32
#     4  10  22  40  60  81 109 148 196 250 296 330
#     4   9  16  28  50  78 107 138 175 223 279 340
#     4   9  17  31  56  87 115 148 190 234 284 341
#     4  10  19  33  55  85 120 151 184 225 283 347
#     4  10  21  37  57  82 117 155 196 237 282 336
#     4  10  19  33  55  83 113 145 186 234 285 345
#
# _framework density 20.575723
#
# number of rings (size 3 to 8) (size 9 to 14) (size 15 to 20)
#    0.000    2.273    0.909    2.182    0.000    7.273 
#    0.000    4.545    0.000    5.455    0.000    0.000 
#    0.000    0.000    0.000    0.000    0.000    0.000 
#
# Total GULP energy -245359.425941 kJ/mol
# GULP energy per Si atom -5576.350590 kJ/mol
# Density = 2.052889 g / cm^3
# Si number density = 20.575723 Si / 1000 Ang^3
#
#
#
# Elastic Constant Matrix: (Units=GPa)
#
#
# Indices 1 2 3 4 5 6 
#
# 1 180.7326 79.8818 38.9356 0.0000 0.0000 0.0000
# 2 79.8818 91.0679 24.6939 0.0000 0.0000 0.0000
# 3 38.9356 24.6939 30.4682 0.0000 0.0000 0.0000
# 4 0.0000 0.0000 0.0000 8.1333 0.0000 0.0000
# 5 0.0000 0.0000 0.0000 0.0000 29.9299 0.0000
# 6 0.0000 0.0000 0.0000 0.0000 0.0000 18.6246
#
#
#
# Elastic Compliance Matrix: (Units=1/GPa)
#
#
# Indices 1 2 3 4 5 6 
#
# 1 0.010193 -0.006932 -0.007407 0.000000 0.000000 0.000000
# 2 -0.006932 0.018789 -0.006369 0.000000 0.000000 0.000000
# 3 -0.007407 -0.006369 0.047448 0.000000 0.000000 0.000000
# 4 0.000000 0.000000 0.000000 0.122952 0.000000 0.000000
# 5 0.000000 0.000000 0.000000 0.000000 0.033411 0.000000
# 6 0.000000 0.000000 0.000000 0.000000 0.000000 0.053692
#
#
# Mechanical properties :
#
#
# Convention : Reuss Voigt Hill
#
# Bulk Modulus (GPa) = 28.56053 65.47683 47.01868
# Shear Modulus (GPa) = 14.72439 21.92138 18.32289
#
# Velocity S-wave (km/s) = 2.67801 3.26759 2.98738
# Velocity P-wave (km/s) = 4.84491 6.79173 5.89918
#
# Compressibility (1/GPa) = 0.03501335
#
# Stress axis : x y z
#
# Youngs Moduli (GPa) = 98.10945 53.22380 21.07556
#
# Poissons Ratio (x) = 0.36896 0.15610
# Poissons Ratio (y) = 0.68012 0.13423
# Poissons Ratio (z) = 0.72668 0.33898
#
# Static dielectric constant tensor:
#      x y z
#    x 1.755140 0.000000 0.000000 
#    y 0.000000 1.746000 0.000000 
#    z 0.000000 0.000000 1.779810 
# 
# From -- ./inp_files/26772.got.cif
#   From: 2010.05.17/outbox.cif.g08.bks.cpg/sg69_14_cif.got.tgz:26772.got - 2010.06.03 19:29:58.
