data_PCOD9511497
_publ_section_title
;
Structure prediction by ZEFSAII (Michael W. Deem and Ramdas Pophale) SiO2 
 PCOD9511497
Probable space group: F M M M
;
_chemical_formula_sum "Si O2"
_cell_formula_units_Z 192
_cell_length_a 14.088854
_cell_length_b 25.853888
_cell_length_c 29.246013
_cell_angle_alpha 90.000000
_cell_angle_beta 90.000000
_cell_angle_gamma 90.000000
_cell_volume 10652.908590
_symmetry_space_group_name_H-M "F M M M"
_symmetry_group_IT_number 69
_symmetry_cell_setting 'orthorhombic'
loop_
_space_group_symop_operation_xyz
x,y,z
-x,-y,z
x,-y,-z
-x,y,-z
-x,-y,-z
x,y,-z
-x,y,z
x,-y,z
x,1/2+y,1/2+z
-x,1/2-y,1/2+z
x,1/2-y,1/2-z
-x,1/2+y,1/2-z
-x,1/2-y,1/2-z
x,1/2+y,1/2-z
-x,1/2+y,1/2+z
x,1/2-y,1/2+z
1/2+x,y,1/2+z
1/2-x,-y,1/2+z
1/2+x,-y,1/2-z
1/2-x,y,1/2-z
1/2-x,-y,1/2-z
1/2+x,y,1/2-z
1/2-x,y,1/2+z
1/2+x,-y,1/2+z
1/2+x,1/2+y,z
1/2-x,1/2-y,z
1/2+x,1/2-y,-z
1/2-x,1/2+y,-z
1/2-x,1/2-y,-z
1/2+x,1/2+y,-z
1/2-x,1/2+y,z
1/2+x,1/2-y,z
loop_
_atom_site_type_symbol
_atom_site_label
_atom_site_fract_x
_atom_site_fract_y
_atom_site_fract_z
Si Si1 0.308534 0.938438 0.680815
Si Si2 0.899155 0.679177 0.121290
Si Si3 0.813835 0.845349 0.873694
Si Si4 0.605410 0.562337 0.720560
Si Si5 0.109619 0.235568 0.801264
Si Si6 0.859856 0.267512 0.448224
O O1 0.345829 0.902044 0.640899
O O2 0.367386 0.927020 0.726887
O O3 0.198568 0.922761 0.691726
O O4 0.312119 0.000000 0.672695
O O5 0.798437 0.651942 0.115467
O O6 0.891619 0.712861 0.167745
O O7 0.904054 0.721202 0.080696
O O8 0.000000 0.650062 0.121249
O O9 0.831688 0.806781 0.830245
O O10 0.864725 0.818244 0.916482
O O11 0.500000 0.582855 0.709860
O O12 0.601637 0.500000 0.716473
O O13 0.140908 0.250000 0.750000
O O14 0.000000 0.216982 0.798160
O O15 0.892902 0.274062 0.500000
O O16 0.750000 0.250000 0.450040
#
# Coordination Sequence:
#
# PCOD9511497 Si02
#       6
#    32  32  32  32  32  32
#     4   9  18  30  44  65  91 123 163 199 231 267
#     4   9  18  30  44  66  92 118 150 184 223 276
#     4  10  19  30  46  67  94 124 153 190 233 279
#     4   8  15  29  45  59  81 116 158 200 233 261
#     4   9  18  31  45  64  92 122 151 183 223 277
#     4   8  15  30  50  68  87 113 146 187 234 281
#
# _framework density 18.023247000000001
#
# number of rings (size 3 to 8) (size 9 to 14) (size 15 to 20)
#    0.000    3.167    0.000    2.500    0.000    5.667 
#    0.000    1.667    0.000    0.500    0.000    0.000 
#    0.000    0.000    0.000   25.000    0.000    0.000 
#
# Total GULP energy -267302.476108 kJ/mol
# GULP energy per Si atom -5568.801586 kJ/mol
# Density = 1.798223 g / cm^3
# Si number density = 18.023247 Si / 1000 Ang^3
#
#
#
# Elastic Constant Matrix: (Units=GPa)
#
#
# Indices 1 2 3 4 5 6 
#
# 1 76.1806 -11.0207 0.8187 0.0000 0.0000 0.0000
# 2 -11.0207 42.4064 34.0759 0.0000 0.0000 0.0000
# 3 0.8187 34.0759 129.1941 0.0000 0.0000 0.0000
# 4 0.0000 0.0000 0.0000 18.3653 0.0000 0.0000
# 5 0.0000 0.0000 0.0000 0.0000 100.7540 0.0000
# 6 0.0000 0.0000 0.0000 0.0000 0.0000 4.6430
#
#
#
# Elastic Compliance Matrix: (Units=1/GPa)
#
#
# Indices 1 2 3 4 5 6 
#
# 1 0.013813 0.004644 -0.001313 0.000000 0.000000 0.000000
# 2 0.004644 0.031485 -0.008334 0.000000 0.000000 0.000000
# 3 -0.001313 -0.008334 0.009947 0.000000 0.000000 0.000000
# 4 0.000000 0.000000 0.000000 0.054450 0.000000 0.000000
# 5 0.000000 0.000000 0.000000 0.000000 0.009925 0.000000
# 6 0.000000 0.000000 0.000000 0.000000 0.000000 0.215380
#
#
# Mechanical properties :
#
#
# Convention : Reuss Voigt Hill
#
# Bulk Modulus (GPa) = 22.10409 32.83655 27.47032
# Shear Modulus (GPa) = 13.88565 39.67960 26.78263
#
# Velocity S-wave (km/s) = 2.77867 4.69719 3.85905
# Velocity P-wave (km/s) = 4.75242 6.90483 5.92715
#
# Compressibility (1/GPa) = 0.04524049
#
# Stress axis : x y z
#
# Youngs Moduli (GPa) = 72.39720 31.76105 100.53558
#
# Poissons Ratio (x) = -0.14751 0.13195
# Poissons Ratio (y) = -0.33624 0.83785
# Poissons Ratio (z) = 0.09502 0.26469
#
# Static dielectric constant tensor:
#      x y z
#    x 1.715000 0.000000 0.000000 
#    y 0.000000 1.610090 0.000000 
#    z 0.000000 0.000000 1.613730 
# 
# From -- ./inp_files/45920.got.cif
#   From: 2010.05.17/outbox.cif.g08.bks.cpg/sg69_23_cif.got.tgz:45920.got - 2010.06.03 19:29:58.
