data_PCOD9511206
_publ_section_title
;
Structure prediction by ZEFSAII (Michael W. Deem and Ramdas Pophale) SiO2 
 PCOD9511206
Probable space group: F M M M
;
_chemical_formula_sum "Si O2"
_cell_formula_units_Z 96
_cell_length_a 34.909871
_cell_length_b 8.710189
_cell_length_c 19.877718
_cell_angle_alpha 90.000000
_cell_angle_beta 90.000000
_cell_angle_gamma 90.000000
_cell_volume 6044.249007
_symmetry_space_group_name_H-M "F M M M"
_symmetry_group_IT_number 69
_symmetry_cell_setting 'orthorhombic'
loop_
_space_group_symop_operation_xyz
x,y,z
-x,-y,z
x,-y,-z
-x,y,-z
-x,-y,-z
x,y,-z
-x,y,z
x,-y,z
x,1/2+y,1/2+z
-x,1/2-y,1/2+z
x,1/2-y,1/2-z
-x,1/2+y,1/2-z
-x,1/2-y,1/2-z
x,1/2+y,1/2-z
-x,1/2+y,1/2+z
x,1/2-y,1/2+z
1/2+x,y,1/2+z
1/2-x,-y,1/2+z
1/2+x,-y,1/2-z
1/2-x,y,1/2-z
1/2-x,-y,1/2-z
1/2+x,y,1/2-z
1/2-x,y,1/2+z
1/2+x,-y,1/2+z
1/2+x,1/2+y,z
1/2-x,1/2-y,z
1/2+x,1/2-y,-z
1/2-x,1/2+y,-z
1/2-x,1/2-y,-z
1/2+x,1/2+y,-z
1/2-x,1/2+y,z
1/2+x,1/2-y,z
loop_
_atom_site_type_symbol
_atom_site_label
_atom_site_fract_x
_atom_site_fract_y
_atom_site_fract_z
Si Si1 0.140651 0.819899 0.924374
Si Si2 0.420695 0.682874 0.674740
Si Si3 0.792444 0.683254 0.000000
Si Si4 0.500000 0.316291 0.826108
O O1 0.114722 0.733450 0.871067
O O2 0.182547 0.746534 0.936904
O O3 0.143766 0.000000 0.907861
O O4 0.123064 0.807798 0.000000
O O5 0.424167 0.500000 0.678704
O O6 0.415902 0.750000 0.750000
O O7 0.460149 0.753380 0.644991
O O8 0.750000 0.750000 0.000000
O O9 0.792096 0.500000 0.000000
O O10 0.500000 0.500000 0.824986
O O11 0.500000 0.250000 0.750000
#
# Coordination Sequence:
#
# PCOD9511206 Si02
#       4
#    32  32  16  16
#     4   9  19  34  52  75 103 131 166 208 251 297
#     4  11  20  32  51  74 102 134 172 211 251 297
#     4  10  18  32  54  79 102 131 166 202 244 296
#     4  10  18  30  47  68  97 132 173 211 248 294
#
# _framework density 15.882868
#
# number of rings (size 3 to 8) (size 9 to 14) (size 15 to 20)
#    1.000    1.000    0.000    8.500    0.000    0.000 
#    0.000    0.833    0.000    6.000    0.000    7.000 
#    0.000    0.000    0.000    0.000    0.000    0.000 
#
# Total GULP energy -133612.358243 kJ/mol
# GULP energy per Si atom -5567.181593 kJ/mol
# Density = 1.584672 g / cm^3
# Si number density = 15.882868 Si / 1000 Ang^3
#
#
#
# Elastic Constant Matrix: (Units=GPa)
#
#
# Indices 1 2 3 4 5 6 
#
# 1 151.2407 71.2367 47.8512 0.0000 0.0000 0.0000
# 2 71.2367 184.2892 38.9116 0.0000 0.0000 0.0000
# 3 47.8512 38.9116 41.4205 0.0000 0.0000 0.0000
# 4 0.0000 0.0000 0.0000 23.4454 0.0000 0.0000
# 5 0.0000 0.0000 0.0000 0.0000 33.2703 0.0000
# 6 0.0000 0.0000 0.0000 0.0000 0.0000 31.6958
#
#
#
# Elastic Compliance Matrix: (Units=1/GPa)
#
#
# Indices 1 2 3 4 5 6 
#
# 1 0.010955 -0.001949 -0.010825 0.000000 0.000000 0.000000
# 2 -0.001949 0.007116 -0.004433 0.000000 0.000000 0.000000
# 3 -0.010825 -0.004433 0.040812 0.000000 0.000000 0.000000
# 4 0.000000 0.000000 0.000000 0.042652 0.000000 0.000000
# 5 0.000000 0.000000 0.000000 0.000000 0.030057 0.000000
# 6 0.000000 0.000000 0.000000 0.000000 0.000000 0.031550
#
#
# Mechanical properties :
#
#
# Convention : Reuss Voigt Hill
#
# Bulk Modulus (GPa) = 40.86728 76.99436 58.93082
# Shear Modulus (GPa) = 24.30586 32.27903 28.29245
#
# Velocity S-wave (km/s) = 3.91617 4.51301 4.22515
# Velocity P-wave (km/s) = 6.79962 8.70276 7.80938
#
# Compressibility (1/GPa) = 0.02446946
#
# Stress axis : x y z
#
# Youngs Moduli (GPa) = 91.28419 140.53525 24.50239
#
# Poissons Ratio (x) = 0.27390 0.26523
# Poissons Ratio (y) = 0.17791 0.10862
# Poissons Ratio (z) = 0.98812 0.62300
#
# Static dielectric constant tensor:
#      x y z
#    x 1.543170 0.000000 0.000000 
#    y 0.000000 1.525840 0.000000 
#    z 0.000000 0.000000 1.527370 
# 
# From -- ./inp_files/38012.got.cif
#   From: 2010.05.17/outbox.cif.g08.bks.cpg/sg69_20_cif.got.tgz:38012.got - 2010.06.03 19:29:58.
