data_PCOD9511785
_publ_section_title
;
Structure prediction by ZEFSAII (Michael W. Deem and Ramdas Pophale) SiO2 
 PCOD9511785
Probable space group: F M M M
;
_chemical_formula_sum "Si O2"
_cell_formula_units_Z 176
_cell_length_a 25.377758
_cell_length_b 14.206505
_cell_length_c 21.088015
_cell_angle_alpha 90.000000
_cell_angle_beta 90.000000
_cell_angle_gamma 90.000000
_cell_volume 7602.846146
_symmetry_space_group_name_H-M "F M M M"
_symmetry_group_IT_number 69
_symmetry_cell_setting 'orthorhombic'
loop_
_space_group_symop_operation_xyz
x,y,z
-x,-y,z
x,-y,-z
-x,y,-z
-x,-y,-z
x,y,-z
-x,y,z
x,-y,z
x,1/2+y,1/2+z
-x,1/2-y,1/2+z
x,1/2-y,1/2-z
-x,1/2+y,1/2-z
-x,1/2-y,1/2-z
x,1/2+y,1/2-z
-x,1/2+y,1/2+z
x,1/2-y,1/2+z
1/2+x,y,1/2+z
1/2-x,-y,1/2+z
1/2+x,-y,1/2-z
1/2-x,y,1/2-z
1/2-x,-y,1/2-z
1/2+x,y,1/2-z
1/2-x,y,1/2+z
1/2+x,-y,1/2+z
1/2+x,1/2+y,z
1/2-x,1/2-y,z
1/2+x,1/2-y,-z
1/2-x,1/2+y,-z
1/2-x,1/2-y,-z
1/2+x,1/2+y,-z
1/2-x,1/2+y,z
1/2+x,1/2-y,z
loop_
_atom_site_type_symbol
_atom_site_label
_atom_site_fract_x
_atom_site_fract_y
_atom_site_fract_z
Si Si1 0.056175 0.272739 0.853008
Si Si2 0.060776 0.000000 0.923380
Si Si3 0.414843 0.609887 0.755474
Si Si4 0.255178 0.113762 0.926565
Si Si5 0.636645 0.325455 0.925129
Si Si6 0.700897 0.886211 0.207029
O O1 0.058836 0.366985 0.811877
O O2 0.061009 0.185433 0.803617
O O3 0.107150 0.263314 0.896126
O O4 0.000000 0.264361 0.886949
O O5 0.097286 0.911081 0.907233
O O6 0.000000 0.000000 0.899482
O O7 0.056682 0.000000 0.000000
O O8 0.419992 0.500000 0.772665
O O9 0.353585 0.636394 0.742561
O O10 0.196453 0.149083 0.909041
O O11 0.290849 0.142895 0.866484
O O12 0.253509 0.000000 0.928195
O O13 0.268275 0.143514 0.000000
O O14 0.636118 0.317963 0.000000
O O15 0.750000 0.855446 0.250000
O O16 0.701741 0.000000 0.205348
#
# Coordination Sequence:
#
# PCOD9511785 Si02
#       6
#    32  16  32  32  32  32
#     4  11  24  39  59  87 114 149 195 239 295 354
#     4   9  16  26  44  74 111 150 186 216 263 334
#     4  10  22  41  60  81 112 148 192 245 291 339
#     4   9  16  29  51  82 119 157 194 235 287 348
#     4  10  19  33  53  83 122 155 185 228 284 350
#     4   9  17  31  55  82 109 146 190 233 285 348
#
# _framework density 23.149225000000001
#
# number of rings (size 3 to 8) (size 9 to 14) (size 15 to 20)
#    0.000    2.273    0.909    2.727    1.273    4.000 
#    0.000    7.273    0.000    3.818    0.000    1.273 
#    0.000    0.000    0.000    0.000    0.000    0.000 
#
# Total GULP energy -245779.804709 kJ/mol
# GULP energy per Si atom -5585.904652 kJ/mol
# Density = 2.309654 g / cm^3
# Si number density = 23.149225 Si / 1000 Ang^3
#
#
#
# Elastic Constant Matrix: (Units=GPa)
#
#
# Indices 1 2 3 4 5 6 
#
# 1 136.8926 14.7617 18.3525 0.0000 0.0000 0.0000
# 2 14.7617 78.4006 16.1738 0.0000 0.0000 0.0000
# 3 18.3525 16.1738 49.4836 0.0000 0.0000 0.0000
# 4 0.0000 0.0000 0.0000 23.5818 0.0000 0.0000
# 5 0.0000 0.0000 0.0000 0.0000 28.1079 0.0000
# 6 0.0000 0.0000 0.0000 0.0000 0.0000 21.6392
#
#
#
# Elastic Compliance Matrix: (Units=1/GPa)
#
#
# Indices 1 2 3 4 5 6 
#
# 1 0.007750 -0.000929 -0.002571 0.000000 0.000000 0.000000
# 2 -0.000929 0.013789 -0.004162 0.000000 0.000000 0.000000
# 3 -0.002571 -0.004162 0.022523 0.000000 0.000000 0.000000
# 4 0.000000 0.000000 0.000000 0.042406 0.000000 0.000000
# 5 0.000000 0.000000 0.000000 0.000000 0.035577 0.000000
# 6 0.000000 0.000000 0.000000 0.000000 0.000000 0.046212
#
#
# Mechanical properties :
#
#
# Convention : Reuss Voigt Hill
#
# Bulk Modulus (GPa) = 34.79801 40.37255 37.58528
# Shear Modulus (GPa) = 25.88543 29.03170 27.45857
#
# Velocity S-wave (km/s) = 3.34758 3.54519 3.44780
# Velocity P-wave (km/s) = 5.47781 5.85113 5.66754
#
# Compressibility (1/GPa) = 0.02873728
#
# Stress axis : x y z
#
# Youngs Moduli (GPa) = 129.03572 72.52386 44.39992
#
# Poissons Ratio (x) = 0.06736 0.11414
# Poissons Ratio (y) = 0.11986 0.18481
# Poissons Ratio (z) = 0.33171 0.30187
#
# Static dielectric constant tensor:
#      x y z
#    x 1.910260 0.000000 0.000000 
#    y 0.000000 1.899400 0.000000 
#    z 0.000000 0.000000 1.894780 
# 
# From -- ./inp_files/37839.got.cif
#   From: 2010.05.17/outbox.cif.g08.bks.cpg/sg69_19_cif.got.tgz:37839.got - 2010.06.03 19:29:58.
