data_PCOD9511169
_publ_section_title
;
Structure prediction by ZEFSAII (Michael W. Deem and Ramdas Pophale) SiO2 
 PCOD9511169
Probable space group: F M M M
;
_chemical_formula_sum "Si O2"
_cell_formula_units_Z 192
_cell_length_a 28.020593
_cell_length_b 20.952229
_cell_length_c 14.684850
_cell_angle_alpha 90.000000
_cell_angle_beta 90.000000
_cell_angle_gamma 90.000000
_cell_volume 8621.385582
_symmetry_space_group_name_H-M "F M M M"
_symmetry_group_IT_number 69
_symmetry_cell_setting 'orthorhombic'
loop_
_space_group_symop_operation_xyz
x,y,z
-x,-y,z
x,-y,-z
-x,y,-z
-x,-y,-z
x,y,-z
-x,y,z
x,-y,z
x,1/2+y,1/2+z
-x,1/2-y,1/2+z
x,1/2-y,1/2-z
-x,1/2+y,1/2-z
-x,1/2-y,1/2-z
x,1/2+y,1/2-z
-x,1/2+y,1/2+z
x,1/2-y,1/2+z
1/2+x,y,1/2+z
1/2-x,-y,1/2+z
1/2+x,-y,1/2-z
1/2-x,y,1/2-z
1/2-x,-y,1/2-z
1/2+x,y,1/2-z
1/2-x,y,1/2+z
1/2+x,-y,1/2+z
1/2+x,1/2+y,z
1/2-x,1/2-y,z
1/2+x,1/2-y,-z
1/2-x,1/2+y,-z
1/2-x,1/2-y,-z
1/2+x,1/2+y,-z
1/2-x,1/2+y,z
1/2+x,1/2-y,z
loop_
_atom_site_type_symbol
_atom_site_label
_atom_site_fract_x
_atom_site_fract_y
_atom_site_fract_z
Si Si1 0.000000 0.101896 0.389315
Si Si2 0.140722 0.069635 0.894122
Si Si3 0.602855 0.432750 0.611189
Si Si4 0.751893 0.428295 0.858080
Si Si5 0.669996 0.321241 0.391259
Si Si6 0.605693 0.795858 0.612034
Si Si7 0.000000 0.750371 0.889431
O O1 0.951361 0.070901 0.357917
O O2 0.000000 0.175952 0.366049
O O3 0.000000 0.097189 0.500000
O O4 0.197793 0.078558 0.891742
O O5 0.117081 0.132902 0.855321
O O6 0.129818 0.000000 0.852967
O O7 0.126333 0.067017 0.000000
O O8 0.603147 0.430185 0.500000
O O9 0.624852 0.500000 0.638000
O O10 0.631074 0.371814 0.642449
O O11 0.768435 0.500000 0.891372
O O12 0.750000 0.432540 0.750000
O O13 0.781757 0.363281 0.876818
O O14 0.668209 0.315214 0.500000
O O15 0.648618 0.252854 0.359188
O O16 0.605802 0.795039 0.500000
O O17 0.551669 0.777335 0.640331
O O18 0.000000 0.755436 0.000000
#
# Coordination Sequence:
#
# PCOD9511169 Si02
#       7
#    16  32  32  32  32  32  16
#     4   9  13  20  33  55  91 130 157 187 231 275
#     4   9  18  34  54  74  97 127 165 209 255 299
#     4   9  15  21  33  58  92 127 162 194 224 269
#     4  10  21  36  52  71  98 132 167 206 251 295
#     4  10  18  29  47  72 101 133 167 200 240 292
#     4   9  17  29  48  74 103 133 163 201 249 300
#     4   9  14  25  43  67 103 136 158 192 250 300
#
# _framework density 22.270202999999999
#
# number of rings (size 3 to 8) (size 9 to 14) (size 15 to 20)
#    0.000    2.667    1.667    1.250    0.000    3.333 
#    0.000    4.583    0.000    2.500    0.000    3.500 
#    0.000    5.333    0.000    0.000    0.000    0.000 
#
# Total GULP energy -267361.550091 kJ/mol
# GULP energy per Si atom -5570.032294 kJ/mol
# Density = 2.221951 g / cm^3
# Si number density = 22.270203 Si / 1000 Ang^3
#
#
#
# Elastic Constant Matrix: (Units=GPa)
#
#
# Indices 1 2 3 4 5 6 
#
# 1 71.9632 60.4960 -9.5144 0.0000 0.0000 0.0000
# 2 60.4960 187.3045 3.3285 0.0000 0.0000 0.0000
# 3 -9.5144 3.3285 65.4022 0.0000 0.0000 0.0000
# 4 0.0000 0.0000 0.0000 13.2361 0.0000 0.0000
# 5 0.0000 0.0000 0.0000 0.0000 -41.0168 0.0000
# 6 0.0000 0.0000 0.0000 0.0000 0.0000 -45.8184
#
#
#
# Elastic Compliance Matrix: (Units=1/GPa)
#
#
# Indices 1 2 3 4 5 6 
#
# 1 0.019721 -0.006426 0.003196 0.000000 0.000000 0.000000
# 2 -0.006426 0.007438 -0.001313 0.000000 0.000000 0.000000
# 3 0.003196 -0.001313 0.015822 0.000000 0.000000 0.000000
# 4 0.000000 0.000000 0.000000 0.075551 0.000000 0.000000
# 5 0.000000 0.000000 0.000000 0.000000 -0.024380 0.000000
# 6 0.000000 0.000000 0.000000 0.000000 0.000000 -0.021825
#
#
# Mechanical properties :
#
#
# Convention : Reuss Voigt Hill
#
# Bulk Modulus (GPa) = 29.50466 48.14335 38.82400
# Shear Modulus (GPa) = 53.93127 3.30417 28.61772
#
# Velocity S-wave (km/s) = 4.92639 1.21938 3.58861
# Velocity P-wave (km/s) = 6.75547 4.86285 5.88573
#
# Compressibility (1/GPa) = 0.03389295
#
# Stress axis : x y z
#
# Youngs Moduli (GPa) = 50.70790 134.44819 63.20405
#
# Poissons Ratio (x) = 0.86400 -0.20200
# Poissons Ratio (y) = 0.32586 0.08301
# Poissons Ratio (z) = -0.16206 0.17658
#
# Static dielectric constant tensor:
#      x y z
#    x 1.828970 0.000000 0.000000 
#    y 0.000000 1.843410 0.000000 
#    z 0.000000 0.000000 1.816520 
# 
# From -- ./inp_files/27761.got.cif
#   From: 2010.05.17/outbox.cif.g08.bks.cpg/sg69_14_cif.got.tgz:27761.got - 2010.06.03 19:29:58.
