data_PCOD9511669
_publ_section_title
;
Structure prediction by ZEFSAII (Michael W. Deem and Ramdas Pophale) SiO2 
 PCOD9511669
Probable space group: F M M M
;
_chemical_formula_sum "Si O2"
_cell_formula_units_Z 160
_cell_length_a 18.203941
_cell_length_b 33.393941
_cell_length_c 15.276558
_cell_angle_alpha 90.000000
_cell_angle_beta 90.000000
_cell_angle_gamma 90.000000
_cell_volume 9286.639952
_symmetry_space_group_name_H-M "F M M M"
_symmetry_group_IT_number 69
_symmetry_cell_setting 'orthorhombic'
loop_
_space_group_symop_operation_xyz
x,y,z
-x,-y,z
x,-y,-z
-x,y,-z
-x,-y,-z
x,y,-z
-x,y,z
x,-y,z
x,1/2+y,1/2+z
-x,1/2-y,1/2+z
x,1/2-y,1/2-z
-x,1/2+y,1/2-z
-x,1/2-y,1/2-z
x,1/2+y,1/2-z
-x,1/2+y,1/2+z
x,1/2-y,1/2+z
1/2+x,y,1/2+z
1/2-x,-y,1/2+z
1/2+x,-y,1/2-z
1/2-x,y,1/2-z
1/2-x,-y,1/2-z
1/2+x,y,1/2-z
1/2-x,y,1/2+z
1/2+x,-y,1/2+z
1/2+x,1/2+y,z
1/2-x,1/2-y,z
1/2+x,1/2-y,-z
1/2-x,1/2+y,-z
1/2-x,1/2-y,-z
1/2+x,1/2+y,-z
1/2-x,1/2+y,z
1/2+x,1/2-y,z
loop_
_atom_site_type_symbol
_atom_site_label
_atom_site_fract_x
_atom_site_fract_y
_atom_site_fract_z
Si Si1 0.669505 0.059327 0.602837
Si Si2 0.304680 0.000000 0.897606
Si Si3 0.416326 0.702407 0.269075
Si Si4 0.805591 0.648239 0.667184
Si Si5 0.587809 0.000000 0.730224
Si Si6 0.793680 0.787118 0.597045
O O1 0.649538 0.053734 0.500000
O O2 0.674299 0.105667 0.627669
O O3 0.749206 0.037780 0.614133
O O4 0.614777 0.037278 0.670113
O O5 0.366838 0.000000 0.822326
O O6 0.330147 0.000000 0.000000
O O7 0.500000 0.689604 0.279565
O O8 0.415712 0.750000 0.250000
O O9 0.374682 0.674736 0.198864
O O10 0.366606 0.699673 0.354650
O O11 0.750000 0.643087 0.750000
O O12 0.761169 0.675774 0.600001
O O13 0.500000 0.000000 0.743391
O O14 0.812700 0.773857 0.500000
O O15 0.750000 0.750000 0.641331
#
# Coordination Sequence:
#
# PCOD9511669 Si02
#       6
#    32  16  32  32  16  32
#     4  10  20  36  58  84 112 147 191 233 275 332
#     4   9  19  37  61  85 114 147 187 234 278 323
#     4  10  20  34  50  71 103 139 173 214 273 335
#     4  10  19  32  56  78 104 138 183 230 276 323
#     4  11  22  36  57  83 119 157 185 223 282 338
#     4  10  19  32  52  75  99 129 173 226 275 324
#
# _framework density 17.229051999999999
#
# number of rings (size 3 to 8) (size 9 to 14) (size 15 to 20)
#    0.000    2.000    2.000    3.900    0.000    2.200 
#    0.000    0.000    0.000    1.800    0.000    5.600 
#    0.000    0.000    0.000    0.000    0.000    0.000 
#
# Total GULP energy -222874.960903 kJ/mol
# GULP energy per Si atom -5571.874023 kJ/mol
# Density = 1.718984 g / cm^3
# Si number density = 17.229052 Si / 1000 Ang^3
#
#
#
# Elastic Constant Matrix: (Units=GPa)
#
#
# Indices 1 2 3 4 5 6 
#
# 1 146.9669 40.7259 64.6399 0.0000 0.0000 0.0000
# 2 40.7259 114.9945 24.7560 0.0000 0.0000 0.0000
# 3 64.6399 24.7560 104.3704 0.0000 0.0000 0.0000
# 4 0.0000 0.0000 0.0000 19.8565 0.0000 0.0000
# 5 0.0000 0.0000 0.0000 0.0000 11.1253 0.0000
# 6 0.0000 0.0000 0.0000 0.0000 0.0000 9.0284
#
#
#
# Elastic Compliance Matrix: (Units=1/GPa)
#
#
# Indices 1 2 3 4 5 6 
#
# 1 0.009899 -0.002303 -0.005584 0.000000 0.000000 0.000000
# 2 -0.002303 0.009700 -0.000874 0.000000 0.000000 0.000000
# 3 -0.005584 -0.000874 0.013247 0.000000 0.000000 0.000000
# 4 0.000000 0.000000 0.000000 0.050361 0.000000 0.000000
# 5 0.000000 0.000000 0.000000 0.000000 0.089885 0.000000
# 6 0.000000 0.000000 0.000000 0.000000 0.000000 0.110762
#
#
# Mechanical properties :
#
#
# Convention : Reuss Voigt Hill
#
# Bulk Modulus (GPa) = 65.26519 69.61948 67.44234
# Shear Modulus (GPa) = 16.31402 23.74938 20.03170
#
# Velocity S-wave (km/s) = 3.08050 3.71678 3.41349
# Velocity P-wave (km/s) = 7.11447 7.67562 7.40037
#
# Compressibility (1/GPa) = 0.01532210
#
# Stress axis : x y z
#
# Youngs Moduli (GPa) = 101.02393 103.09227 75.48839
#
# Poissons Ratio (x) = 0.23747 0.42154
# Poissons Ratio (y) = 0.23271 0.06599
# Poissons Ratio (z) = 0.56414 0.09012
#
# Static dielectric constant tensor:
#      x y z
#    x 1.563210 0.000000 0.000000 
#    y 0.000000 1.447790 0.000000 
#    z 0.000000 0.000000 1.601310 
# 
# From -- ./inp_files/15715.got.cif
#   From: 2010.05.17/outbox.cif.g08.bks.cpg/sg69_8_cif.got.tgz:15715.got - 2010.06.03 19:29:58.
