data_PCOD9511356
_publ_section_title
;
Structure prediction by ZEFSAII (Michael W. Deem and Ramdas Pophale) SiO2 
 PCOD9511356
Probable space group: F M M M
;
_chemical_formula_sum "Si O2"
_cell_formula_units_Z 144
_cell_length_a 25.177721
_cell_length_b 19.491816
_cell_length_c 17.276960
_cell_angle_alpha 90.000000
_cell_angle_beta 90.000000
_cell_angle_gamma 90.000000
_cell_volume 8478.832338
_symmetry_space_group_name_H-M "F M M M"
_symmetry_group_IT_number 69
_symmetry_cell_setting 'orthorhombic'
loop_
_space_group_symop_operation_xyz
x,y,z
-x,-y,z
x,-y,-z
-x,y,-z
-x,-y,-z
x,y,-z
-x,y,z
x,-y,z
x,1/2+y,1/2+z
-x,1/2-y,1/2+z
x,1/2-y,1/2-z
-x,1/2+y,1/2-z
-x,1/2-y,1/2-z
x,1/2+y,1/2-z
-x,1/2+y,1/2+z
x,1/2-y,1/2+z
1/2+x,y,1/2+z
1/2-x,-y,1/2+z
1/2+x,-y,1/2-z
1/2-x,y,1/2-z
1/2-x,-y,1/2-z
1/2+x,y,1/2-z
1/2-x,y,1/2+z
1/2+x,-y,1/2+z
1/2+x,1/2+y,z
1/2-x,1/2-y,z
1/2+x,1/2-y,-z
1/2-x,1/2+y,-z
1/2-x,1/2-y,-z
1/2+x,1/2+y,-z
1/2-x,1/2+y,z
1/2+x,1/2-y,z
loop_
_atom_site_type_symbol
_atom_site_label
_atom_site_fract_x
_atom_site_fract_y
_atom_site_fract_z
Si Si1 0.407421 0.341633 0.819635
Si Si2 0.938969 0.196871 0.353597
Si Si3 0.000000 0.581883 0.590674
Si Si4 0.871346 0.578424 0.085797
Si Si5 0.811219 0.918694 0.745676
O O1 0.404933 0.266594 0.858599
O O2 0.433807 0.328390 0.735302
O O3 0.447640 0.387835 0.868466
O O4 0.351268 0.376923 0.800761
O O5 0.916644 0.135223 0.404588
O O6 0.000000 0.213534 0.370646
O O7 0.000000 0.500000 0.598392
O O8 0.000000 0.599912 0.500000
O O9 0.891724 0.500000 0.093730
O O10 0.831725 0.589684 0.157446
O O11 0.847261 0.584144 0.000000
O O12 0.750000 0.897254 0.750000
O O13 0.814538 0.000000 0.764376
#
# Coordination Sequence:
#
# PCOD9511356 Si02
#       5
#    32  32  16  32  32
#     4  10  18  35  52  73 106 136 173 221 259 307
#     4  10  18  32  53  77 102 138 175 202 255 330
#     4  11  22  33  48  72 102 139 180 219 262 306
#     4   9  19  34  51  77 109 134 167 219 272 322
#     4   9  18  34  58  82 102 137 184 221 265 320
#
# _framework density 16.983470000000001
#
# number of rings (size 3 to 8) (size 9 to 14) (size 15 to 20)
#    0.000    2.333    2.222    1.333    0.000    2.667 
#    0.000   11.111    0.000    5.333    0.000    0.000 
#    0.000    0.000    0.000    0.000    0.000    0.000 
#
# Total GULP energy -200604.444464 kJ/mol
# GULP energy per Si atom -5572.345680 kJ/mol
# Density = 1.694482 g / cm^3
# Si number density = 16.983470 Si / 1000 Ang^3
#
#
#
# Elastic Constant Matrix: (Units=GPa)
#
#
# Indices 1 2 3 4 5 6 
#
# 1 133.0624 70.0710 39.1438 0.0000 0.0000 0.0000
# 2 70.0710 96.3211 52.3735 0.0000 0.0000 0.0000
# 3 39.1438 52.3735 68.7407 0.0000 0.0000 0.0000
# 4 0.0000 0.0000 0.0000 15.5177 0.0000 0.0000
# 5 0.0000 0.0000 0.0000 0.0000 11.0979 0.0000
# 6 0.0000 0.0000 0.0000 0.0000 0.0000 24.2188
#
#
#
# Elastic Compliance Matrix: (Units=1/GPa)
#
#
# Indices 1 2 3 4 5 6 
#
# 1 0.012186 -0.008693 -0.000316 0.000000 0.000000 0.000000
# 2 -0.008693 0.023927 -0.013279 0.000000 0.000000 0.000000
# 3 -0.000316 -0.013279 0.024845 0.000000 0.000000 0.000000
# 4 0.000000 0.000000 0.000000 0.064442 0.000000 0.000000
# 5 0.000000 0.000000 0.000000 0.000000 0.090108 0.000000
# 6 0.000000 0.000000 0.000000 0.000000 0.000000 0.041290
#
#
# Mechanical properties :
#
#
# Convention : Reuss Voigt Hill
#
# Bulk Modulus (GPa) = 61.04811 69.03342 65.04077
# Shear Modulus (GPa) = 16.29542 19.26927 17.78234
#
# Velocity S-wave (km/s) = 3.10092 3.37202 3.23931
# Velocity P-wave (km/s) = 6.98889 7.47639 7.23674
#
# Compressibility (1/GPa) = 0.01638052
#
# Stress axis : x y z
#
# Youngs Moduli (GPa) = 82.06064 41.79452 40.24990
#
# Poissons Ratio (x) = 0.36333 0.01271
# Poissons Ratio (y) = 0.71338 0.53449
# Poissons Ratio (z) = 0.02592 0.55500
#
# Static dielectric constant tensor:
#      x y z
#    x 1.541090 0.000000 0.000000 
#    y 0.000000 1.595910 0.000000 
#    z 0.000000 0.000000 1.576910 
# 
# From -- ./inp_files/23019.got.cif
#   From: 2010.05.17/outbox.cif.g08.bks.cpg/sg69_12_cif.got.tgz:23019.got - 2010.06.03 19:29:58.
