data_PCOD9511997
_publ_section_title
;
Structure prediction by ZEFSAII (Michael W. Deem and Ramdas Pophale) SiO2 
 PCOD9511997
Probable space group: F M M M
;
_chemical_formula_sum "Si O2"
_cell_formula_units_Z 176
_cell_length_a 16.357837
_cell_length_b 18.137592
_cell_length_c 27.598698
_cell_angle_alpha 90.000000
_cell_angle_beta 90.000000
_cell_angle_gamma 90.000000
_cell_volume 8188.306656
_symmetry_space_group_name_H-M "F M M M"
_symmetry_group_IT_number 69
_symmetry_cell_setting 'orthorhombic'
loop_
_space_group_symop_operation_xyz
x,y,z
-x,-y,z
x,-y,-z
-x,y,-z
-x,-y,-z
x,y,-z
-x,y,z
x,-y,z
x,1/2+y,1/2+z
-x,1/2-y,1/2+z
x,1/2-y,1/2-z
-x,1/2+y,1/2-z
-x,1/2-y,1/2-z
x,1/2+y,1/2-z
-x,1/2+y,1/2+z
x,1/2-y,1/2+z
1/2+x,y,1/2+z
1/2-x,-y,1/2+z
1/2+x,-y,1/2-z
1/2-x,y,1/2-z
1/2-x,-y,1/2-z
1/2+x,y,1/2-z
1/2-x,y,1/2+z
1/2+x,-y,1/2+z
1/2+x,1/2+y,z
1/2-x,1/2-y,z
1/2+x,1/2-y,-z
1/2-x,1/2+y,-z
1/2-x,1/2-y,-z
1/2+x,1/2+y,-z
1/2-x,1/2+y,z
1/2+x,1/2-y,z
loop_
_atom_site_type_symbol
_atom_site_label
_atom_site_fract_x
_atom_site_fract_y
_atom_site_fract_z
Si Si1 0.858173 0.581655 0.849469
Si Si2 0.832644 0.083539 0.175506
Si Si3 0.901522 0.180664 0.091146
Si Si4 0.400764 0.342009 0.555885
Si Si5 0.900143 0.583763 0.500000
Si Si6 0.094487 0.166937 0.260585
O O1 0.890854 0.500000 0.838016
O O2 0.763197 0.583494 0.835415
O O3 0.869519 0.598398 0.905996
O O4 0.900289 0.643879 0.816586
O O5 0.871878 0.144840 0.140697
O O6 0.853689 0.108803 0.229658
O O7 0.863741 0.000000 0.166505
O O8 0.873981 0.262677 0.077263
O O9 0.874172 0.126958 0.047801
O O10 0.000000 0.182065 0.091752
O O11 0.374593 0.350392 0.500000
O O12 0.500000 0.343497 0.556057
O O13 0.871901 0.500000 0.500000
O O14 0.000000 0.583637 0.500000
O O15 0.123493 0.250000 0.250000
O O16 0.000000 0.162789 0.244679
#
# Coordination Sequence:
#
# PCOD9511997 Si02
#       6
#    32  32  32  32  16  32
#     4  11  25  43  61  88 125 163 205 253 305 362
#     4  11  24  40  59  89 127 165 200 244 302 364
#     4  10  19  35  58  88 121 155 201 250 298 359
#     4  10  21  40  65  90 119 158 207 263 311 355
#     4   9  16  28  50  79 113 153 192 237 293 345
#     4  11  24  42  66  95 122 154 200 252 304 365
#
# _framework density 21.494064999999999
#
# number of rings (size 3 to 8) (size 9 to 14) (size 15 to 20)
#    0.000    1.545    0.909    3.818    0.000   12.727 
#    1.636    1.818    0.000    0.000    0.000    0.000 
#    0.000    0.000    0.000    0.000    0.000    0.000 
#
# Total GULP energy -246024.734224 kJ/mol
# GULP energy per Si atom -5591.471232 kJ/mol
# Density = 2.144514 g / cm^3
# Si number density = 21.494065 Si / 1000 Ang^3
#
#
#
# Elastic Constant Matrix: (Units=GPa)
#
#
# Indices 1 2 3 4 5 6 
#
# 1 27.1040 13.2394 10.0119 0.0000 0.0000 0.0000
# 2 13.2394 101.6980 29.7125 0.0000 0.0000 0.0000
# 3 10.0119 29.7125 120.0872 0.0000 0.0000 0.0000
# 4 0.0000 0.0000 0.0000 37.2917 0.0000 0.0000
# 5 0.0000 0.0000 0.0000 0.0000 14.6641 0.0000
# 6 0.0000 0.0000 0.0000 0.0000 0.0000 14.4769
#
#
#
# Elastic Compliance Matrix: (Units=1/GPa)
#
#
# Indices 1 2 3 4 5 6 
#
# 1 0.039933 -0.004555 -0.002202 0.000000 0.000000 0.000000
# 2 -0.004555 0.011119 -0.002371 0.000000 0.000000 0.000000
# 3 -0.002202 -0.002371 0.009098 0.000000 0.000000 0.000000
# 4 0.000000 0.000000 0.000000 0.026816 0.000000 0.000000
# 5 0.000000 0.000000 0.000000 0.000000 0.068194 0.000000
# 6 0.000000 0.000000 0.000000 0.000000 0.000000 0.069075
#
#
# Mechanical properties :
#
#
# Convention : Reuss Voigt Hill
#
# Bulk Modulus (GPa) = 23.87075 39.42412 31.64743
# Shear Modulus (GPa) = 19.49651 26.34825 22.92238
#
# Velocity S-wave (km/s) = 3.01502 3.50500 3.26920
# Velocity P-wave (km/s) = 4.82186 5.89590 5.38572
#
# Compressibility (1/GPa) = 0.04189228
#
# Stress axis : x y z
#
# Youngs Moduli (GPa) = 25.04167 89.93724 109.91906
#
# Poissons Ratio (x) = 0.40969 0.24207
# Poissons Ratio (y) = 0.11407 0.26065
# Poissons Ratio (z) = 0.05515 0.21327
#
# Static dielectric constant tensor:
#      x y z
#    x 1.765340 0.000000 0.000000 
#    y 0.000000 1.764290 0.000000 
#    z 0.000000 0.000000 1.788490 
# 
# From -- ./inp_files/41826.got.cif
#   From: 2010.05.17/outbox.cif.g08.bks.cpg/sg69_21_cif.got.tgz:41826.got - 2010.06.03 19:29:58.
