data_PCOD9511750
_publ_section_title
;
Structure prediction by ZEFSAII (Michael W. Deem and Ramdas Pophale) SiO2 
 PCOD9511750
Probable space group: F M M M
;
_chemical_formula_sum "Si O2"
_cell_formula_units_Z 96
_cell_length_a 13.217153
_cell_length_b 16.280943
_cell_length_c 17.662145
_cell_angle_alpha 90.000000
_cell_angle_beta 90.000000
_cell_angle_gamma 90.000000
_cell_volume 3800.676618
_symmetry_space_group_name_H-M "F M M M"
_symmetry_group_IT_number 69
_symmetry_cell_setting 'orthorhombic'
loop_
_space_group_symop_operation_xyz
x,y,z
-x,-y,z
x,-y,-z
-x,y,-z
-x,-y,-z
x,y,-z
-x,y,z
x,-y,z
x,1/2+y,1/2+z
-x,1/2-y,1/2+z
x,1/2-y,1/2-z
-x,1/2+y,1/2-z
-x,1/2-y,1/2-z
x,1/2+y,1/2-z
-x,1/2+y,1/2+z
x,1/2-y,1/2+z
1/2+x,y,1/2+z
1/2-x,-y,1/2+z
1/2+x,-y,1/2-z
1/2-x,y,1/2-z
1/2-x,-y,1/2-z
1/2+x,y,1/2-z
1/2-x,y,1/2+z
1/2+x,-y,1/2+z
1/2+x,1/2+y,z
1/2-x,1/2-y,z
1/2+x,1/2-y,-z
1/2-x,1/2+y,-z
1/2-x,1/2-y,-z
1/2+x,1/2+y,-z
1/2-x,1/2+y,z
1/2+x,1/2-y,z
loop_
_atom_site_type_symbol
_atom_site_label
_atom_site_fract_x
_atom_site_fract_y
_atom_site_fract_z
Si Si1 0.880349 0.633966 0.709212
Si Si2 0.750000 0.750000 0.878962
Si Si3 0.622620 0.096253 0.116753
Si Si4 0.121981 0.500000 0.585875
O O1 0.835779 0.716799 0.677018
O O2 0.853207 0.602303 0.792618
O O3 0.851600 0.574606 0.640024
O O4 0.000000 0.639506 0.711231
O O5 0.690092 0.827858 0.916822
O O6 0.500000 0.109668 0.106172
O O7 0.641192 0.000000 0.094059
O O8 0.159940 0.500000 0.500000
O O9 0.000000 0.500000 0.580023
#
# Coordination Sequence:
#
# PCOD9511750 Si02
#       4
#    32  16  32  16
#     4  10  19  33  50  73 104 133 168 215 254 295
#     4  12  23  30  51  80 111 140 172 200 249 312
#     4  10  20  34  50  73 110 147 173 202 246 306
#     4   9  18  34  55  72  91 127 172 219 266 298
#
# _framework density 25.258662000000001
#
# number of rings (size 3 to 8) (size 9 to 14) (size 15 to 20)
#    0.000    1.833    1.667    4.000    2.333    4.000 
#    0.000    0.833    0.000    0.000    0.000    0.000 
#    0.000    2.667    0.000    0.000    0.000    0.000 
#
# Total GULP energy -133897.149728 kJ/mol
# GULP energy per Si atom -5579.047905 kJ/mol
# Density = 2.520117 g / cm^3
# Si number density = 25.258662 Si / 1000 Ang^3
#
#
#
# Elastic Constant Matrix: (Units=GPa)
#
#
# Indices 1 2 3 4 5 6 
#
# 1 132.3401 64.4541 43.9156 0.0000 0.0000 0.0000
# 2 64.4541 184.4225 42.8824 0.0000 0.0000 0.0000
# 3 43.9156 42.8824 160.6154 0.0000 0.0000 0.0000
# 4 0.0000 0.0000 0.0000 -52.3744 0.0000 0.0000
# 5 0.0000 0.0000 0.0000 0.0000 2.8924 0.0000
# 6 0.0000 0.0000 0.0000 0.0000 0.0000 65.0469
#
#
#
# Elastic Compliance Matrix: (Units=1/GPa)
#
#
# Indices 1 2 3 4 5 6 
#
# 1 0.009592 -0.002924 -0.001842 0.000000 0.000000 0.000000
# 2 -0.002924 0.006673 -0.000982 0.000000 0.000000 0.000000
# 3 -0.001842 -0.000982 0.006992 0.000000 0.000000 0.000000
# 4 0.000000 0.000000 0.000000 -0.019093 0.000000 0.000000
# 5 0.000000 0.000000 0.000000 0.000000 0.345736 0.000000
# 6 0.000000 0.000000 0.000000 0.000000 0.000000 0.015374
#
#
# Mechanical properties :
#
#
# Convention : Reuss Voigt Hill
#
# Bulk Modulus (GPa) = 85.03166 86.65358 85.84262
# Shear Modulus (GPa) = 13.13411 24.85469 18.99440
#
# Velocity S-wave (km/s) = 2.28279 3.14029 2.74523
# Velocity P-wave (km/s) = 6.37853 6.89417 6.64135
#
# Compressibility (1/GPa) = 0.01176033
#
# Stress axis : x y z
#
# Youngs Moduli (GPa) = 104.25866 149.86774 143.02352
#
# Poissons Ratio (x) = 0.43820 0.26343
# Poissons Ratio (y) = 0.30484 0.14045
# Poissons Ratio (z) = 0.19203 0.14718
#
# Static dielectric constant tensor:
#      x y z
#    x 2.052320 0.000000 0.000000 
#    y 0.000000 2.200480 0.000000 
#    z 0.000000 0.000000 1.894690 
# 
# From -- ./inp_files/29412.got.cif
#   From: 2010.05.17/outbox.cif.g08.bks.cpg/sg69_15_cif.got.tgz:29412.got - 2010.06.03 19:29:58.
