data_PCOD9511639
_publ_section_title
;
Structure prediction by ZEFSAII (Michael W. Deem and Ramdas Pophale) SiO2 
 PCOD9511639
Probable space group: F M M M
;
_chemical_formula_sum "Si O2"
_cell_formula_units_Z 160
_cell_length_a 18.846723
_cell_length_b 28.111444
_cell_length_c 15.873279
_cell_angle_alpha 90.000000
_cell_angle_beta 90.000000
_cell_angle_gamma 90.000000
_cell_volume 8409.799696
_symmetry_space_group_name_H-M "F M M M"
_symmetry_group_IT_number 69
_symmetry_cell_setting 'orthorhombic'
loop_
_space_group_symop_operation_xyz
x,y,z
-x,-y,z
x,-y,-z
-x,y,-z
-x,-y,-z
x,y,-z
-x,y,z
x,-y,z
x,1/2+y,1/2+z
-x,1/2-y,1/2+z
x,1/2-y,1/2-z
-x,1/2+y,1/2-z
-x,1/2-y,1/2-z
x,1/2+y,1/2-z
-x,1/2+y,1/2+z
x,1/2-y,1/2+z
1/2+x,y,1/2+z
1/2-x,-y,1/2+z
1/2+x,-y,1/2-z
1/2-x,y,1/2-z
1/2-x,-y,1/2-z
1/2+x,y,1/2-z
1/2-x,y,1/2+z
1/2+x,-y,1/2+z
1/2+x,1/2+y,z
1/2-x,1/2-y,z
1/2+x,1/2-y,-z
1/2-x,1/2+y,-z
1/2-x,1/2-y,-z
1/2+x,1/2+y,-z
1/2-x,1/2+y,z
1/2+x,1/2-y,z
loop_
_atom_site_type_symbol
_atom_site_label
_atom_site_fract_x
_atom_site_fract_y
_atom_site_fract_z
Si Si1 0.721081 0.900249 0.098012
Si Si2 0.219446 0.800006 0.102950
Si Si3 0.922012 0.347683 0.400720
Si Si4 0.140386 0.553529 0.653716
Si Si5 0.581545 0.945244 0.844052
O O1 0.733065 0.845802 0.125159
O O2 0.776010 0.933612 0.148703
O O3 0.640191 0.915272 0.107594
O O4 0.742559 0.904235 0.000000
O O5 0.250000 0.750000 0.133185
O O6 0.140689 0.814249 0.133404
O O7 0.217693 0.797936 0.000000
O O8 0.926210 0.337563 0.500000
O O9 0.897757 0.402517 0.392093
O O10 0.000000 0.341119 0.362846
O O11 0.129209 0.500000 0.620201
O O12 0.108508 0.554750 0.747530
O O13 0.500000 0.928933 0.849431
O O14 0.583934 0.000000 0.873687
#
# Coordination Sequence:
#
# PCOD9511639 Si02
#       5
#    32  32  32  32  32
#     4  10  20  33  52  77 100 126 165 210 252 292
#     4   8  15  30  50  70  94 124 159 201 248 297
#     4   9  17  28  45  72 101 126 156 200 252 296
#     4  10  19  32  50  71  97 132 170 200 234 290
#     4  10  21  35  50  70 100 138 172 201 240 292
#
# _framework density 19.025423
#
# number of rings (size 3 to 8) (size 9 to 14) (size 15 to 20)
#    0.000    2.600    0.000    3.600    0.000    6.000 
#    0.000    3.000    0.000   13.200    0.000    7.000 
#    0.000    0.000    0.000    0.000    0.000    0.000 
#
# Total GULP energy -222958.692536 kJ/mol
# GULP energy per Si atom -5573.967313 kJ/mol
# Density = 1.898212 g / cm^3
# Si number density = 19.025423 Si / 1000 Ang^3
#
#
#
# Elastic Constant Matrix: (Units=GPa)
#
#
# Indices 1 2 3 4 5 6 
#
# 1 176.6886 84.0243 10.8607 0.0000 0.0000 0.0000
# 2 84.0243 120.0901 4.3896 0.0000 0.0000 0.0000
# 3 10.8607 4.3896 8.8333 0.0000 0.0000 0.0000
# 4 0.0000 0.0000 0.0000 27.9035 0.0000 0.0000
# 5 0.0000 0.0000 0.0000 0.0000 21.4554 0.0000
# 6 0.0000 0.0000 0.0000 0.0000 0.0000 17.4726
#
#
#
# Elastic Compliance Matrix: (Units=1/GPa)
#
#
# Indices 1 2 3 4 5 6 
#
# 1 0.009017 -0.006013 -0.008098 0.000000 0.000000 0.000000
# 2 -0.006013 0.012491 0.001186 0.000000 0.000000 0.000000
# 3 -0.008098 0.001186 0.122577 0.000000 0.000000 0.000000
# 4 0.000000 0.000000 0.000000 0.035838 0.000000 0.000000
# 5 0.000000 0.000000 0.000000 0.000000 0.046608 0.000000
# 6 0.000000 0.000000 0.000000 0.000000 0.000000 0.057232
#
#
# Mechanical properties :
#
#
# Convention : Reuss Voigt Hill
#
# Bulk Modulus (GPa) = 8.45786 56.01790 32.23788
# Shear Modulus (GPa) = 14.32563 27.12212 20.72387
#
# Velocity S-wave (km/s) = 2.74701 3.77977 3.30399
# Velocity P-wave (km/s) = 3.81007 6.96825 5.61574
#
# Compressibility (1/GPa) = 0.11823324
#
# Stress axis : x y z
#
# Youngs Moduli (GPa) = 110.90268 80.05869 8.15817
#
# Poissons Ratio (x) = 0.48139 0.06607
# Poissons Ratio (y) = 0.66685 -0.00967
# Poissons Ratio (z) = 0.89814 -0.09494
#
# Static dielectric constant tensor:
#      x y z
#    x 1.687140 0.000000 0.000000 
#    y 0.000000 1.647160 0.000000 
#    z 0.000000 0.000000 1.697670 
# 
# From -- ./inp_files/23092.got.cif
#   From: 2010.05.17/outbox.cif.g08.bks.cpg/sg69_12_cif.got.tgz:23092.got - 2010.06.03 19:29:58.
