data_PCOD9511789
_publ_section_title
;
Structure prediction by ZEFSAII (Michael W. Deem and Ramdas Pophale) SiO2 
 PCOD9511789
Probable space group: F M M M
;
_chemical_formula_sum "Si O2"
_cell_formula_units_Z 128
_cell_length_a 24.949941
_cell_length_b 20.537362
_cell_length_c 14.549921
_cell_angle_alpha 90.000000
_cell_angle_beta 90.000000
_cell_angle_gamma 90.000000
_cell_volume 7455.466386
_symmetry_space_group_name_H-M "F M M M"
_symmetry_group_IT_number 69
_symmetry_cell_setting 'orthorhombic'
loop_
_space_group_symop_operation_xyz
x,y,z
-x,-y,z
x,-y,-z
-x,y,-z
-x,-y,-z
x,y,-z
-x,y,z
x,-y,z
x,1/2+y,1/2+z
-x,1/2-y,1/2+z
x,1/2-y,1/2-z
-x,1/2+y,1/2-z
-x,1/2-y,1/2-z
x,1/2+y,1/2-z
-x,1/2+y,1/2+z
x,1/2-y,1/2+z
1/2+x,y,1/2+z
1/2-x,-y,1/2+z
1/2+x,-y,1/2-z
1/2-x,y,1/2-z
1/2-x,-y,1/2-z
1/2+x,y,1/2-z
1/2-x,y,1/2+z
1/2+x,-y,1/2+z
1/2+x,1/2+y,z
1/2-x,1/2-y,z
1/2+x,1/2-y,-z
1/2-x,1/2+y,-z
1/2-x,1/2-y,-z
1/2+x,1/2+y,-z
1/2-x,1/2+y,z
1/2+x,1/2-y,z
loop_
_atom_site_type_symbol
_atom_site_label
_atom_site_fract_x
_atom_site_fract_y
_atom_site_fract_z
Si Si1 0.500000 0.105091 0.601756
Si Si2 0.606025 0.808398 0.603617
Si Si3 0.500000 0.925988 0.810997
Si Si4 0.310708 0.670918 0.745830
Si Si5 0.401137 0.842601 0.109841
O O1 0.500000 0.072552 0.500000
O O2 0.447403 0.149774 0.603840
O O3 0.500000 0.070245 0.700054
O O4 0.627699 0.803769 0.500000
O O5 0.650097 0.841234 0.668374
O O6 0.590217 0.734465 0.630696
O O7 0.552217 0.886175 0.845637
O O8 0.500000 0.000000 0.847398
O O9 0.307209 0.750000 0.750000
O O10 0.250000 0.646061 0.750000
O O11 0.343371 0.646229 0.657131
O O12 0.401033 0.851510 0.000000
#
# Coordination Sequence:
#
# PCOD9511789 Si02
#       5
#    16  32  16  32  32
#     4  10  19  33  54  79 100 125 161 209 263 309
#     4   9  17  30  52  79 104 130 162 203 256 310
#     4  12  24  36  53  74  99 135 174 210 249 298
#     4   9  17  29  48  76 108 138 164 196 245 304
#     4  10  20  33  50  76 107 137 166 204 251 299
#
# _framework density 17.168610000000001
#
# number of rings (size 3 to 8) (size 9 to 14) (size 15 to 20)
#    0.000    2.250    2.500    1.125    0.000    5.250 
#    0.000    5.000    0.000    0.750    0.000    0.000 
#    0.000    0.000    0.000    0.000    0.000    0.000 
#
# Total GULP energy -178136.140372 kJ/mol
# GULP energy per Si atom -5566.754387 kJ/mol
# Density = 1.712953 g / cm^3
# Si number density = 17.168610 Si / 1000 Ang^3
#
#
#
# Elastic Constant Matrix: (Units=GPa)
#
#
# Indices 1 2 3 4 5 6 
#
# 1 149.3362 42.3242 60.5672 0.0000 0.0000 0.0000
# 2 42.3242 57.0301 36.0443 0.0000 0.0000 0.0000
# 3 60.5672 36.0443 120.4320 0.0000 0.0000 0.0000
# 4 0.0000 0.0000 0.0000 5.4421 0.0000 0.0000
# 5 0.0000 0.0000 0.0000 0.0000 -4.9990 0.0000
# 6 0.0000 0.0000 0.0000 0.0000 0.0000 -16.9221
#
#
#
# Elastic Compliance Matrix: (Units=1/GPa)
#
#
# Indices 1 2 3 4 5 6 
#
# 1 0.009415 -0.004926 -0.003260 0.000000 0.000000 0.000000
# 2 -0.004926 0.024203 -0.004766 0.000000 0.000000 0.000000
# 3 -0.003260 -0.004766 0.011370 0.000000 0.000000 0.000000
# 4 0.000000 0.000000 0.000000 0.183751 0.000000 0.000000
# 5 0.000000 0.000000 0.000000 0.000000 -0.200040 0.000000
# 6 0.000000 0.000000 0.000000 0.000000 0.000000 -0.059094
#
#
# Mechanical properties :
#
#
# Convention : Reuss Voigt Hill
#
# Bulk Modulus (GPa) = 52.40703 67.18551 59.79627
# Shear Modulus (GPa) = 2672.33947 9.22840 1340.78393
#
# Velocity S-wave (km/s) = 39.49564 2.32095 27.97581
# Velocity P-wave (km/s) = 45.93980 6.81177 32.83950
#
# Compressibility (1/GPa) = 0.01908141
#
# Stress axis : x y z
#
# Youngs Moduli (GPa) = 106.21465 41.31711 87.95354
#
# Poissons Ratio (x) = 0.20355 0.28677
# Poissons Ratio (y) = 0.52326 0.41920
# Poissons Ratio (z) = 0.34631 0.19692
#
# Static dielectric constant tensor:
#      x y z
#    x 1.561890 0.000000 0.000000 
#    y 0.000000 1.560520 0.000000 
#    z 0.000000 0.000000 1.639240 
# 
# From -- ./inp_files/15332.got.cif
#   From: 2010.05.17/outbox.cif.g08.bks.cpg/sg69_8_cif.got.tgz:15332.got - 2010.06.03 19:29:58.
