data_PCOD9511545
_publ_section_title
;
Structure prediction by ZEFSAII (Michael W. Deem and Ramdas Pophale) SiO2 
 PCOD9511545
Probable space group: F M M M
;
_chemical_formula_sum "Si O2"
_cell_formula_units_Z 176
_cell_length_a 14.315548
_cell_length_b 22.899922
_cell_length_c 33.834063
_cell_angle_alpha 90.000000
_cell_angle_beta 90.000000
_cell_angle_gamma 90.000000
_cell_volume 11091.649422
_symmetry_space_group_name_H-M "F M M M"
_symmetry_group_IT_number 69
_symmetry_cell_setting 'orthorhombic'
loop_
_space_group_symop_operation_xyz
x,y,z
-x,-y,z
x,-y,-z
-x,y,-z
-x,-y,-z
x,y,-z
-x,y,z
x,-y,z
x,1/2+y,1/2+z
-x,1/2-y,1/2+z
x,1/2-y,1/2-z
-x,1/2+y,1/2-z
-x,1/2-y,1/2-z
x,1/2+y,1/2-z
-x,1/2+y,1/2+z
x,1/2-y,1/2+z
1/2+x,y,1/2+z
1/2-x,-y,1/2+z
1/2+x,-y,1/2-z
1/2-x,y,1/2-z
1/2-x,-y,1/2-z
1/2+x,y,1/2-z
1/2-x,y,1/2+z
1/2+x,-y,1/2+z
1/2+x,1/2+y,z
1/2-x,1/2-y,z
1/2+x,1/2-y,-z
1/2-x,1/2+y,-z
1/2-x,1/2-y,-z
1/2+x,1/2+y,-z
1/2-x,1/2+y,z
1/2+x,1/2-y,z
loop_
_atom_site_type_symbol
_atom_site_label
_atom_site_fract_x
_atom_site_fract_y
_atom_site_fract_z
Si Si1 0.608336 0.234817 0.205182
Si Si2 0.898681 0.633630 0.317296
Si Si3 0.113112 0.431624 0.086818
Si Si4 0.810382 0.377564 0.164399
Si Si5 0.107303 0.929178 0.500000
Si Si6 0.139539 0.435220 0.241233
O O1 0.500000 0.214336 0.207312
O O2 0.639051 0.250000 0.250000
O O3 0.607905 0.296465 0.182762
O O4 0.669259 0.186385 0.182921
O O5 0.801074 0.610375 0.334549
O O6 0.899583 0.611705 0.271732
O O7 0.000000 0.616164 0.334562
O O8 0.138586 0.500000 0.093885
O O9 0.151433 0.390622 0.121187
O O10 0.000000 0.429497 0.086449
O O11 0.147624 0.413517 0.042860
O O12 0.865829 0.418613 0.195492
O O13 0.000000 0.908227 0.500000
O O14 0.104067 0.000000 0.500000
O O15 0.103721 0.500000 0.249218
O O16 0.250000 0.435248 0.250000
#
# Coordination Sequence:
#
# PCOD9511545 Si02
#       6
#    32  32  32  32  16  32
#     4  10  19  31  47  65  86 116 157 198 237 273
#     4  10  21  33  43  59  86 124 161 193 228 267
#     4   9  17  29  47  73 101 123 145 180 230 285
#     4  11  19  29  48  68  89 117 155 195 231 266
#     4   7  12  26  46  68  98 127 141 165 225 293
#     4   9  18  30  42  57  81 115 153 191 229 265
#
# _framework density 15.867793000000001
#
# number of rings (size 3 to 8) (size 9 to 14) (size 15 to 20)
#    0.000    2.455    1.818    2.727    0.000    2.545 
#    0.000    0.000    0.000    0.000    0.000    3.182 
#    0.000    5.091    0.000    0.000    0.000    0.000 
#
# Total GULP energy -244998.415865 kJ/mol
# GULP energy per Si atom -5568.145815 kJ/mol
# Density = 1.583168 g / cm^3
# Si number density = 15.867793 Si / 1000 Ang^3
#
#
#
# Elastic Constant Matrix: (Units=GPa)
#
#
# Indices 1 2 3 4 5 6 
#
# 1 81.6961 11.5120 21.0123 0.0000 0.0000 0.0000
# 2 11.5120 53.6508 25.5020 0.0000 0.0000 0.0000
# 3 21.0123 25.5020 111.9341 0.0000 0.0000 0.0000
# 4 0.0000 0.0000 0.0000 16.7221 0.0000 0.0000
# 5 0.0000 0.0000 0.0000 0.0000 11.4062 0.0000
# 6 0.0000 0.0000 0.0000 0.0000 0.0000 -0.4101
#
#
#
# Elastic Compliance Matrix: (Units=1/GPa)
#
#
# Indices 1 2 3 4 5 6 
#
# 1 0.013020 -0.001830 -0.002027 0.000000 0.000000 0.000000
# 2 -0.001830 0.021160 -0.004477 0.000000 0.000000 0.000000
# 3 -0.002027 -0.004477 0.010334 0.000000 0.000000 0.000000
# 4 0.000000 0.000000 0.000000 0.059801 0.000000 0.000000
# 5 0.000000 0.000000 0.000000 0.000000 0.087671 0.000000
# 6 0.000000 0.000000 0.000000 0.000000 0.000000 -2.438192
#
#
# Mechanical properties :
#
#
# Convention : Reuss Voigt Hill
#
# Bulk Modulus (GPa) = 35.91309 40.37040 38.14175
# Shear Modulus (GPa) = -2.25199 18.16063 7.95432
#
# Velocity S-wave (km/s) = -1.19260 3.38671 2.24137
# Velocity P-wave (km/s) = 4.55910 6.38671 5.54867
#
# Compressibility (1/GPa) = 0.02784500
#
# Stress axis : x y z
#
# Youngs Moduli (GPa) = 76.80641 47.25904 96.76392
#
# Poissons Ratio (x) = 0.08649 0.19615
# Poissons Ratio (y) = 0.14057 0.43325
# Poissons Ratio (z) = 0.15569 0.21159
#
# Static dielectric constant tensor:
#      x y z
#    x 1.579950 0.000000 0.000000 
#    y 0.000000 1.548190 0.000000 
#    z 0.000000 0.000000 1.526570 
# 
# From -- ./inp_files/18232.got.cif
#   From: 2010.05.17/outbox.cif.g08.bks.cpg/sg69_10_cif.got.tgz:18232.got - 2010.06.03 19:29:58.
