data_PCOD9511412
_publ_section_title
;
Structure prediction by ZEFSAII (Michael W. Deem and Ramdas Pophale) SiO2 
 PCOD9511412
Probable space group: F M M M
;
_chemical_formula_sum "Si O2"
_cell_formula_units_Z 192
_cell_length_a 13.897603
_cell_length_b 24.198243
_cell_length_c 25.297676
_cell_angle_alpha 90.000000
_cell_angle_beta 90.000000
_cell_angle_gamma 90.000000
_cell_volume 8507.547080
_symmetry_space_group_name_H-M "F M M M"
_symmetry_group_IT_number 69
_symmetry_cell_setting 'orthorhombic'
loop_
_space_group_symop_operation_xyz
x,y,z
-x,-y,z
x,-y,-z
-x,y,-z
-x,-y,-z
x,y,-z
-x,y,z
x,-y,z
x,1/2+y,1/2+z
-x,1/2-y,1/2+z
x,1/2-y,1/2-z
-x,1/2+y,1/2-z
-x,1/2-y,1/2-z
x,1/2+y,1/2-z
-x,1/2+y,1/2+z
x,1/2-y,1/2+z
1/2+x,y,1/2+z
1/2-x,-y,1/2+z
1/2+x,-y,1/2-z
1/2-x,y,1/2-z
1/2-x,-y,1/2-z
1/2+x,y,1/2-z
1/2-x,y,1/2+z
1/2+x,-y,1/2+z
1/2+x,1/2+y,z
1/2-x,1/2-y,z
1/2+x,1/2-y,-z
1/2-x,1/2+y,-z
1/2-x,1/2-y,-z
1/2+x,1/2+y,-z
1/2-x,1/2+y,z
1/2+x,1/2-y,z
loop_
_atom_site_type_symbol
_atom_site_label
_atom_site_fract_x
_atom_site_fract_y
_atom_site_fract_z
Si Si1 0.608836 0.500000 0.675410
Si Si2 0.884227 0.628773 0.821986
Si Si3 0.730857 0.308241 0.111793
Si Si4 0.109529 0.443007 0.327781
Si Si5 0.160117 0.086071 0.058479
Si Si6 0.832063 0.000000 0.442893
Si Si7 0.884832 0.325946 0.709720
O O1 0.500000 0.500000 0.695858
O O2 0.643784 0.563544 0.688521
O O3 0.610820 0.500000 0.611354
O O4 0.823449 0.656495 0.868852
O O5 0.867185 0.670444 0.772051
O O6 0.000000 0.627932 0.831059
O O7 0.750000 0.250000 0.084838
O O8 0.673673 0.350190 0.074067
O O9 0.669197 0.291996 0.164766
O O10 0.158504 0.500000 0.311918
O O11 0.107098 0.439239 0.391013
O O12 0.151318 0.386982 0.307157
O O13 0.000000 0.443313 0.308376
O O14 0.261118 0.052968 0.058324
O O15 0.118460 0.078859 0.000000
O O16 0.882367 0.000000 0.500000
O O17 0.000000 0.319619 0.702635
#
# Coordination Sequence:
#
# PCOD9511412 Si02
#       7
#    16  32  32  32  32  16  32
#     4  10  20  35  56  83 114 145 181 225 282 340
#     4  10  21  37  57  84 116 149 184 227 276 330
#     4  11  23  39  58  79 106 145 193 236 274 325
#     4   9  17  29  48  77 111 142 173 210 257 322
#     4  10  20  35  54  78 107 139 177 225 281 335
#     4  10  18  33  56  79 108 137 176 226 281 336
#     4   9  20  36  54  81 113 146 181 220 269 322
#
# _framework density 22.568197000000001
#
# number of rings (size 3 to 8) (size 9 to 14) (size 15 to 20)
#    0.000    2.167    2.500    0.500    1.167    2.833 
#    0.000    3.333    0.000    0.500    0.000    2.333 
#    0.000    0.000    0.000    0.000    0.000    0.000 
#
# Total GULP energy -267500.381738 kJ/mol
# GULP energy per Si atom -5572.924620 kJ/mol
# Density = 2.251683 g / cm^3
# Si number density = 22.568197 Si / 1000 Ang^3
#
#
#
# Elastic Constant Matrix: (Units=GPa)
#
#
# Indices 1 2 3 4 5 6 
#
# 1 57.5181 1.3044 3.2130 0.0000 0.0000 0.0000
# 2 1.3044 98.4793 -17.6249 0.0000 0.0000 0.0000
# 3 3.2130 -17.6249 77.4488 0.0000 0.0000 0.0000
# 4 0.0000 0.0000 0.0000 10.2304 0.0000 0.0000
# 5 0.0000 0.0000 0.0000 0.0000 14.5476 0.0000
# 6 0.0000 0.0000 0.0000 0.0000 0.0000 20.3420
#
#
#
# Elastic Compliance Matrix: (Units=1/GPa)
#
#
# Indices 1 2 3 4 5 6 
#
# 1 0.017440 -0.000376 -0.000809 0.000000 0.000000 0.000000
# 2 -0.000376 0.010594 0.002426 0.000000 0.000000 0.000000
# 3 -0.000809 0.002426 0.013497 0.000000 0.000000 0.000000
# 4 0.000000 0.000000 0.000000 0.097748 0.000000 0.000000
# 5 0.000000 0.000000 0.000000 0.000000 0.068740 0.000000
# 6 0.000000 0.000000 0.000000 0.000000 0.000000 0.049159
#
#
# Mechanical properties :
#
#
# Convention : Reuss Voigt Hill
#
# Bulk Modulus (GPa) = 22.72012 23.02568 22.87290
# Shear Modulus (GPa) = 18.56213 25.46091 22.01152
#
# Velocity S-wave (km/s) = 2.87102 3.36248 3.12642
# Velocity P-wave (km/s) = 4.59124 5.02990 4.81557
#
# Compressibility (1/GPa) = 0.04401385
#
# Stress axis : x y z
#
# Youngs Moduli (GPa) = 57.34093 94.39616 74.08784
#
# Poissons Ratio (x) = 0.03547 0.05994
# Poissons Ratio (y) = 0.02155 -0.17976
# Poissons Ratio (z) = 0.04639 -0.22904
#
# Static dielectric constant tensor:
#      x y z
#    x 1.857390 0.000000 0.000000 
#    y 0.000000 1.923280 0.000000 
#    z 0.000000 0.000000 1.862390 
# 
# From -- ./inp_files/36125.got.cif
#   From: 2010.05.17/outbox.cif.g08.bks.cpg/sg69_19_cif.got.tgz:36125.got - 2010.06.03 19:29:58.
