data_PCOD9511276
_publ_section_title
;
Structure prediction by ZEFSAII (Michael W. Deem and Ramdas Pophale) SiO2 
 PCOD9511276
Probable space group: F M M M
;
_chemical_formula_sum "Si O2"
_cell_formula_units_Z 192
_cell_length_a 18.801185
_cell_length_b 17.685454
_cell_length_c 32.269912
_cell_angle_alpha 90.000000
_cell_angle_beta 90.000000
_cell_angle_gamma 90.000000
_cell_volume 10729.987521
_symmetry_space_group_name_H-M "F M M M"
_symmetry_group_IT_number 69
_symmetry_cell_setting 'orthorhombic'
loop_
_space_group_symop_operation_xyz
x,y,z
-x,-y,z
x,-y,-z
-x,y,-z
-x,-y,-z
x,y,-z
-x,y,z
x,-y,z
x,1/2+y,1/2+z
-x,1/2-y,1/2+z
x,1/2-y,1/2-z
-x,1/2+y,1/2-z
-x,1/2-y,1/2-z
x,1/2+y,1/2-z
-x,1/2+y,1/2+z
x,1/2-y,1/2+z
1/2+x,y,1/2+z
1/2-x,-y,1/2+z
1/2+x,-y,1/2-z
1/2-x,y,1/2-z
1/2-x,-y,1/2-z
1/2+x,y,1/2-z
1/2-x,y,1/2+z
1/2+x,-y,1/2+z
1/2+x,1/2+y,z
1/2-x,1/2-y,z
1/2+x,1/2-y,-z
1/2-x,1/2+y,-z
1/2-x,1/2-y,-z
1/2+x,1/2+y,-z
1/2-x,1/2+y,z
1/2+x,1/2-y,z
loop_
_atom_site_type_symbol
_atom_site_label
_atom_site_fract_x
_atom_site_fract_y
_atom_site_fract_z
Si Si1 0.079640 0.587996 0.755157
Si Si2 0.643674 0.339489 0.178856
Si Si3 0.085094 0.084865 0.097301
Si Si4 0.585176 0.766307 0.452537
Si Si5 0.291511 0.088619 0.181074
Si Si6 0.324481 0.292419 0.619837
O O1 0.085435 0.500000 0.740452
O O2 0.091809 0.643495 0.716608
O O3 0.141892 0.598649 0.788395
O O4 0.000000 0.597519 0.772330
O O5 0.623258 0.392515 0.139922
O O6 0.722096 0.363789 0.194090
O O7 0.644369 0.256504 0.158595
O O8 0.101289 0.148386 0.063176
O O9 0.000000 0.087956 0.104702
O O10 0.103764 0.000000 0.084657
O O11 0.606950 0.755159 0.500000
O O12 0.500000 0.756303 0.449835
O O13 0.624900 0.714075 0.419442
O O14 0.311061 0.124042 0.136612
O O15 0.274009 0.000000 0.179927
O O16 0.250000 0.250000 0.610277
#
# Coordination Sequence:
#
# PCOD9511276 Si02
#       6
#    32  32  32  32  32  32
#     4  10  20  32  47  70  99 129 162 198 235 277
#     4  10  18  31  50  71  97 127 159 195 234 278
#     4   9  16  26  44  72 103 131 157 187 227 278
#     4   9  18  32  50  72  97 126 158 191 233 286
#     4  10  20  34  51  69  92 126 164 199 238 280
#     4   9  20  35  51  73  97 122 156 197 238 281
#
# _framework density 17.893775999999999
#
# number of rings (size 3 to 8) (size 9 to 14) (size 15 to 20)
#    0.000    2.500    0.000    2.500    0.000    5.333 
#    0.000    5.000    0.000    0.500    0.000    1.167 
#    0.000    0.000    0.000    0.000    0.000    0.000 
#
# Total GULP energy -267689.344939 kJ/mol
# GULP energy per Si atom -5576.861353 kJ/mol
# Density = 1.785305 g / cm^3
# Si number density = 17.893776 Si / 1000 Ang^3
#
#
#
# Elastic Constant Matrix: (Units=GPa)
#
#
# Indices 1 2 3 4 5 6 
#
# 1 44.9595 -2.0570 23.3367 0.0000 0.0000 0.0000
# 2 -2.0570 13.4516 4.3319 0.0000 0.0000 0.0000
# 3 23.3367 4.3319 58.9213 0.0000 0.0000 0.0000
# 4 0.0000 0.0000 0.0000 12.3031 0.0000 0.0000
# 5 0.0000 0.0000 0.0000 0.0000 25.1356 0.0000
# 6 0.0000 0.0000 0.0000 0.0000 0.0000 20.7915
#
#
#
# Elastic Compliance Matrix: (Units=1/GPa)
#
#
# Indices 1 2 3 4 5 6 
#
# 1 0.028874 0.008295 -0.012046 0.000000 0.000000 0.000000
# 2 0.008295 0.078526 -0.009058 0.000000 0.000000 0.000000
# 3 -0.012046 -0.009058 0.022409 0.000000 0.000000 0.000000
# 4 0.000000 0.000000 0.000000 0.081280 0.000000 0.000000
# 5 0.000000 0.000000 0.000000 0.000000 0.039784 0.000000
# 6 0.000000 0.000000 0.000000 0.000000 0.000000 0.048097
#
#
# Mechanical properties :
#
#
# Convention : Reuss Voigt Hill
#
# Bulk Modulus (GPa) = 9.59790 18.72841 14.16316
# Shear Modulus (GPa) = 13.91518 17.76075 15.83797
#
# Velocity S-wave (km/s) = 2.79167 3.15392 2.97831
# Velocity P-wave (km/s) = 3.97073 4.87361 4.44516
#
# Compressibility (1/GPa) = 0.10418944
#
# Stress axis : x y z
#
# Youngs Moduli (GPa) = 34.63285 12.73465 44.62534
#
# Poissons Ratio (x) = -0.10563 0.53756
# Poissons Ratio (y) = -0.28727 0.40424
# Poissons Ratio (z) = 0.41719 0.11536
#
# Static dielectric constant tensor:
#      x y z
#    x 1.638950 0.000000 0.000000 
#    y 0.000000 1.627270 0.000000 
#    z 0.000000 0.000000 1.587470 
# 
# From -- ./inp_files/42758.got.cif
#   From: 2010.05.17/outbox.cif.g08.bks.cpg/sg69_22_cif.got.tgz:42758.got - 2010.06.03 19:29:58.
