data_PCOD9511546
_publ_section_title
;
Structure prediction by ZEFSAII (Michael W. Deem and Ramdas Pophale) SiO2 
 PCOD9511546
Probable space group: F M M M
;
_chemical_formula_sum "Si O2"
_cell_formula_units_Z 160
_cell_length_a 7.359152
_cell_length_b 33.695766
_cell_length_c 30.264199
_cell_angle_alpha 90.000000
_cell_angle_beta 90.000000
_cell_angle_gamma 90.000000
_cell_volume 7504.681937
_symmetry_space_group_name_H-M "F M M M"
_symmetry_group_IT_number 69
_symmetry_cell_setting 'orthorhombic'
loop_
_space_group_symop_operation_xyz
x,y,z
-x,-y,z
x,-y,-z
-x,y,-z
-x,-y,-z
x,y,-z
-x,y,z
x,-y,z
x,1/2+y,1/2+z
-x,1/2-y,1/2+z
x,1/2-y,1/2-z
-x,1/2+y,1/2-z
-x,1/2-y,1/2-z
x,1/2+y,1/2-z
-x,1/2+y,1/2+z
x,1/2-y,1/2+z
1/2+x,y,1/2+z
1/2-x,-y,1/2+z
1/2+x,-y,1/2-z
1/2-x,y,1/2-z
1/2-x,-y,1/2-z
1/2+x,y,1/2-z
1/2-x,y,1/2+z
1/2+x,-y,1/2+z
1/2+x,1/2+y,z
1/2-x,1/2-y,z
1/2+x,1/2-y,-z
1/2-x,1/2+y,-z
1/2-x,1/2-y,-z
1/2+x,1/2+y,-z
1/2-x,1/2+y,z
1/2+x,1/2-y,z
loop_
_atom_site_type_symbol
_atom_site_label
_atom_site_fract_x
_atom_site_fract_y
_atom_site_fract_z
Si Si1 0.782796 0.703212 0.549661
Si Si2 0.280165 0.414364 0.452356
Si Si3 0.795925 0.644362 0.376776
Si Si4 0.217111 0.088308 0.199393
Si Si5 0.219203 0.000000 0.422920
Si Si6 0.793730 0.500000 0.679245
O O1 0.713601 0.692685 0.500000
O O2 0.750000 0.750000 0.555171
O O3 0.711714 0.678852 0.592172
O O4 0.000000 0.696256 0.548925
O O5 0.223428 0.398763 0.500000
O O6 0.500000 0.411311 0.449304
O O7 0.197057 0.391064 0.412158
O O8 0.230527 0.460199 0.447837
O O9 0.712455 0.622272 0.334120
O O10 0.000000 0.657695 0.364221
O O11 0.250000 0.099196 0.250000
O O12 0.287571 0.042951 0.192436
O O13 0.000000 0.086126 0.190695
O O14 0.295071 0.000000 0.373678
O O15 0.000000 0.000000 0.418689
O O16 0.000000 0.500000 0.697313
#
# Coordination Sequence:
#
# PCOD9511546 Si02
#       6
#    32  32  32  32  16  16
#     4   9  18  33  54  80 108 136 165 199 244 299
#     4  10  20  32  47  70 101 137 174 210 250 298
#     4  10  20  35  54  76 103 133 168 212 258 305
#     4  10  21  35  53  75 101 132 171 218 263 307
#     4  10  19  31  47  67  97 137 174 210 250 297
#     4  10  19  34  52  72  98 131 174 220 262 303
#
# _framework density 21.320024
#
# number of rings (size 3 to 8) (size 9 to 14) (size 15 to 20)
#    0.000    2.200    2.000    1.200    0.000    4.800 
#    0.000    2.000    0.000    2.400    0.000    4.200 
#    0.000    0.000    0.000    0.000    0.000    0.000 
#
# Total GULP energy -223162.619798 kJ/mol
# GULP energy per Si atom -5579.065495 kJ/mol
# Density = 2.127150 g / cm^3
# Si number density = 21.320024 Si / 1000 Ang^3
#
#
#
# Elastic Constant Matrix: (Units=GPa)
#
#
# Indices 1 2 3 4 5 6 
#
# 1 77.7606 0.6734 -0.4575 0.0000 0.0000 0.0000
# 2 0.6734 136.8232 70.6995 0.0000 0.0000 0.0000
# 3 -0.4575 70.6995 179.6347 0.0000 0.0000 0.0000
# 4 0.0000 0.0000 0.0000 12.1454 0.0000 0.0000
# 5 0.0000 0.0000 0.0000 0.0000 -31.7787 0.0000
# 6 0.0000 0.0000 0.0000 0.0000 0.0000 -1.3422
#
#
#
# Elastic Compliance Matrix: (Units=1/GPa)
#
#
# Indices 1 2 3 4 5 6 
#
# 1 0.012861 -0.000101 0.000072 0.000000 0.000000 0.000000
# 2 -0.000101 0.009175 -0.003611 0.000000 0.000000 0.000000
# 3 0.000072 -0.003611 0.006988 0.000000 0.000000 0.000000
# 4 0.000000 0.000000 0.000000 0.082336 0.000000 0.000000
# 5 0.000000 0.000000 0.000000 0.000000 -0.031468 0.000000
# 6 0.000000 0.000000 0.000000 0.000000 0.000000 -0.745063
#
#
# Mechanical properties :
#
#
# Convention : Reuss Voigt Hill
#
# Bulk Modulus (GPa) = 45.98649 59.56103 52.77376
# Shear Modulus (GPa) = -7.68472 17.35846 4.83687
#
# Velocity S-wave (km/s) = -1.90060 2.85649 1.50785
# Velocity P-wave (km/s) = 4.09879 6.23512 5.27621
#
# Compressibility (1/GPa) = 0.02174552
#
# Stress axis : x y z
#
# Youngs Moduli (GPa) = 77.75278 108.98844 143.09447
#
# Poissons Ratio (x) = 0.01098 -0.01036
# Poissons Ratio (y) = 0.00783 0.51677
# Poissons Ratio (z) = -0.00563 0.39360
#
# Static dielectric constant tensor:
#      x y z
#    x 1.806560 0.000000 0.000000 
#    y 0.000000 1.778680 0.000000 
#    z 0.000000 0.000000 1.742020 
# 
# From -- ./inp_files/5711.got.cif
#   From: 2010.05.17/outbox.cif.g08.bks.cpg/sg69_3_cif.got.tgz:5711.got - 2010.06.03 19:29:58.
