data_PCOD9511526
_publ_section_title
;
Structure prediction by ZEFSAII (Michael W. Deem and Ramdas Pophale) SiO2 
 PCOD9511526
Probable space group: F M M M
;
_chemical_formula_sum "Si O2"
_cell_formula_units_Z 160
_cell_length_a 25.222497
_cell_length_b 20.265292
_cell_length_c 17.893771
_cell_angle_alpha 90.000000
_cell_angle_beta 90.000000
_cell_angle_gamma 90.000000
_cell_volume 9146.244775
_symmetry_space_group_name_H-M "F M M M"
_symmetry_group_IT_number 69
_symmetry_cell_setting 'orthorhombic'
loop_
_space_group_symop_operation_xyz
x,y,z
-x,-y,z
x,-y,-z
-x,y,-z
-x,-y,-z
x,y,-z
-x,y,z
x,-y,z
x,1/2+y,1/2+z
-x,1/2-y,1/2+z
x,1/2-y,1/2-z
-x,1/2+y,1/2-z
-x,1/2-y,1/2-z
x,1/2+y,1/2-z
-x,1/2+y,1/2+z
x,1/2-y,1/2+z
1/2+x,y,1/2+z
1/2-x,-y,1/2+z
1/2+x,-y,1/2-z
1/2-x,y,1/2-z
1/2-x,-y,1/2-z
1/2+x,y,1/2-z
1/2-x,y,1/2+z
1/2+x,-y,1/2+z
1/2+x,1/2+y,z
1/2-x,1/2-y,z
1/2+x,1/2-y,-z
1/2-x,1/2+y,-z
1/2-x,1/2-y,-z
1/2+x,1/2+y,-z
1/2-x,1/2+y,z
1/2+x,1/2-y,z
loop_
_atom_site_type_symbol
_atom_site_label
_atom_site_fract_x
_atom_site_fract_y
_atom_site_fract_z
Si Si1 0.939108 0.705583 0.324266
Si Si2 0.619290 0.073586 0.292252
Si Si3 0.295532 0.101962 0.585699
Si Si4 0.707215 0.634328 0.686110
Si Si5 0.338300 0.750826 0.585793
O O1 0.931956 0.750000 0.250000
O O2 0.923895 0.630542 0.303408
O O3 0.896888 0.729945 0.385511
O O4 0.000000 0.710711 0.348495
O O5 0.656148 0.073702 0.366369
O O6 0.659389 0.096924 0.226958
O O7 0.598911 0.000000 0.278884
O O8 0.295505 0.081337 0.500000
O O9 0.240650 0.089829 0.628450
O O10 0.304605 0.181522 0.588195
O O11 0.750000 0.653535 0.750000
O O12 0.685039 0.697117 0.642034
O O13 0.338208 0.727297 0.500000
#
# Coordination Sequence:
#
# PCOD9511526 Si02
#       5
#    32  32  32  32  32
#     4  10  20  36  58  80 100 131 175 222 271 321
#     4  10  21  35  52  76 108 141 176 218 264 311
#     4   9  19  31  48  75 107 143 181 215 254 309
#     4  10  19  30  50  75 109 146 181 212 255 307
#     4  10  19  32  52  80 109 138 174 222 271 314
#
# _framework density 17.493518000000002
#
# number of rings (size 3 to 8) (size 9 to 14) (size 15 to 20)
#    0.000    2.200    2.000    1.200    0.000   10.400 
#    0.000    0.000    0.000    1.800    0.000    5.600 
#    0.000    3.200    0.000    0.000    0.000    0.000 
#
# Total GULP energy -223256.247352 kJ/mol
# GULP energy per Si atom -5581.406184 kJ/mol
# Density = 1.745370 g / cm^3
# Si number density = 17.493518 Si / 1000 Ang^3
#
#
#
# Elastic Constant Matrix: (Units=GPa)
#
#
# Indices 1 2 3 4 5 6 
#
# 1 65.2300 8.9400 20.1042 0.0000 0.0000 0.0000
# 2 8.9400 95.9633 25.2043 0.0000 0.0000 0.0000
# 3 20.1042 25.2043 96.1591 0.0000 0.0000 0.0000
# 4 0.0000 0.0000 0.0000 -1.7018 0.0000 0.0000
# 5 0.0000 0.0000 0.0000 0.0000 13.2819 0.0000
# 6 0.0000 0.0000 0.0000 0.0000 0.0000 -3.0574
#
#
#
# Elastic Compliance Matrix: (Units=1/GPa)
#
#
# Indices 1 2 3 4 5 6 
#
# 1 0.016427 -0.000675 -0.003258 0.000000 0.000000 0.000000
# 2 -0.000675 0.011219 -0.002799 0.000000 0.000000 0.000000
# 3 -0.003258 -0.002799 0.011814 0.000000 0.000000 0.000000
# 4 0.000000 0.000000 0.000000 -0.587616 0.000000 0.000000
# 5 0.000000 0.000000 0.000000 0.000000 0.075291 0.000000
# 6 0.000000 0.000000 0.000000 0.000000 0.000000 -0.327074
#
#
# Mechanical properties :
#
#
# Convention : Reuss Voigt Hill
#
# Bulk Modulus (GPa) = 38.46696 40.64991 39.55844
# Shear Modulus (GPa) = -6.42830 15.24479 4.40825
#
# Velocity S-wave (km/s) = -1.91902 2.95524 1.58915
# Velocity P-wave (km/s) = 4.13845 5.91035 5.10191
#
# Compressibility (1/GPa) = 0.02599634
#
# Stress axis : x y z
#
# Youngs Moduli (GPa) = 60.87596 89.13622 84.64342
#
# Poissons Ratio (x) = 0.06015 0.27573
# Poissons Ratio (y) = 0.04108 0.23696
# Poissons Ratio (z) = 0.19831 0.24954
#
# Static dielectric constant tensor:
#      x y z
#    x 1.575760 0.000000 0.000000 
#    y 0.000000 1.610930 0.000000 
#    z 0.000000 0.000000 1.601590 
# 
# From -- ./inp_files/23096.got.cif
#   From: 2010.05.17/outbox.cif.g08.bks.cpg/sg69_12_cif.got.tgz:23096.got - 2010.06.03 19:29:58.
