data_PCOD9511326
_publ_section_title
;
Structure prediction by ZEFSAII (Michael W. Deem and Ramdas Pophale) SiO2 
 PCOD9511326
Probable space group: F M M M
;
_chemical_formula_sum "Si O2"
_cell_formula_units_Z 128
_cell_length_a 17.017633
_cell_length_b 17.300242
_cell_length_c 22.638089
_cell_angle_alpha 90.000000
_cell_angle_beta 90.000000
_cell_angle_gamma 90.000000
_cell_volume 6664.860974
_symmetry_space_group_name_H-M "F M M M"
_symmetry_group_IT_number 69
_symmetry_cell_setting 'orthorhombic'
loop_
_space_group_symop_operation_xyz
x,y,z
-x,-y,z
x,-y,-z
-x,y,-z
-x,-y,-z
x,y,-z
-x,y,z
x,-y,z
x,1/2+y,1/2+z
-x,1/2-y,1/2+z
x,1/2-y,1/2-z
-x,1/2+y,1/2-z
-x,1/2-y,1/2-z
x,1/2+y,1/2-z
-x,1/2+y,1/2+z
x,1/2-y,1/2+z
1/2+x,y,1/2+z
1/2-x,-y,1/2+z
1/2+x,-y,1/2-z
1/2-x,y,1/2-z
1/2-x,-y,1/2-z
1/2+x,y,1/2-z
1/2-x,y,1/2+z
1/2+x,-y,1/2+z
1/2+x,1/2+y,z
1/2-x,1/2-y,z
1/2+x,1/2-y,-z
1/2-x,1/2+y,-z
1/2-x,1/2-y,-z
1/2+x,1/2+y,-z
1/2-x,1/2+y,z
1/2+x,1/2-y,z
loop_
_atom_site_type_symbol
_atom_site_label
_atom_site_fract_x
_atom_site_fract_y
_atom_site_fract_z
Si Si1 0.656466 0.655564 0.086735
Si Si2 0.000000 0.659847 0.732424
Si Si3 0.284541 0.908450 0.000000
Si Si4 0.905492 0.281806 0.000000
Si Si5 0.000000 0.913743 0.891180
Si Si6 0.830910 0.661229 0.272349
O O1 0.580897 0.600661 0.075150
O O2 0.669522 0.661501 0.156606
O O3 0.732870 0.621874 0.055233
O O4 0.630429 0.735529 0.056119
O O5 0.000000 0.750000 0.750000
O O6 0.000000 0.648717 0.661592
O O7 0.914508 0.626952 0.749936
O O8 0.368300 0.866392 0.000000
O O9 0.290087 0.000000 0.000000
O O10 0.000000 0.278685 0.000000
O O11 0.000000 0.000000 0.865986
O O12 0.831090 0.750000 0.250000
O O13 0.750000 0.624327 0.250000
#
# Coordination Sequence:
#
# PCOD9511326 Si02
#       6
#    32  16  16  16  16  32
#     4  10  20  38  59  92 124 153 203 255 314 384
#     4   8  16  32  45  79 112 154 193 232 277 369
#     4  11  25  39  59  85 125 168 207 258 311 364
#     4  11  23  40  62  90 118 162 213 260 304 374
#     4  10  18  31  60  90 122 149 184 253 332 377
#     4   9  18  29  55  86 114 149 193 246 304 350
#
# _framework density 19.205202
#
# number of rings (size 3 to 8) (size 9 to 14) (size 15 to 20)
#    0.000    2.250    1.250    2.250    7.000    0.250 
#    0.000    1.875    0.000   18.750    0.000    0.000 
#    0.000    0.000    0.000    0.000    0.000    0.000 
#
# Total GULP energy -178224.588639 kJ/mol
# GULP energy per Si atom -5569.518395 kJ/mol
# Density = 1.916149 g / cm^3
# Si number density = 19.205202 Si / 1000 Ang^3
#
#
#
# Elastic Constant Matrix: (Units=GPa)
#
#
# Indices 1 2 3 4 5 6 
#
# 1 170.4811 36.6000 38.0598 0.0000 0.0000 0.0000
# 2 36.6000 84.1831 29.8054 0.0000 0.0000 0.0000
# 3 38.0598 29.8054 92.7557 0.0000 0.0000 0.0000
# 4 0.0000 0.0000 0.0000 7.6975 0.0000 0.0000
# 5 0.0000 0.0000 0.0000 0.0000 19.8616 0.0000
# 6 0.0000 0.0000 0.0000 0.0000 0.0000 -3.0102
#
#
#
# Elastic Compliance Matrix: (Units=1/GPa)
#
#
# Indices 1 2 3 4 5 6 
#
# 1 0.006807 -0.002224 -0.002079 0.000000 0.000000 0.000000
# 2 -0.002224 0.014130 -0.003628 0.000000 0.000000 0.000000
# 3 -0.002079 -0.003628 0.012800 0.000000 0.000000 0.000000
# 4 0.000000 0.000000 0.000000 0.129912 0.000000 0.000000
# 5 0.000000 0.000000 0.000000 0.000000 0.050348 0.000000
# 6 0.000000 0.000000 0.000000 0.000000 0.000000 -0.332202
#
#
# Mechanical properties :
#
#
# Convention : Reuss Voigt Hill
#
# Bulk Modulus (GPa) = 55.93949 61.81671 58.87810
# Shear Modulus (GPa) = -51.87479 21.10676 -15.38401
#
# Velocity S-wave (km/s) = -5.20283 3.31873 -2.83332
# Velocity P-wave (km/s) = 2.62718 6.85147 4.47440
#
# Compressibility (1/GPa) = 0.01787646
#
# Stress axis : x y z
#
# Youngs Moduli (GPa) = 146.90371 70.77063 78.12653
#
# Poissons Ratio (x) = 0.15736 0.16240
# Poissons Ratio (y) = 0.32665 0.28345
# Poissons Ratio (z) = 0.30536 0.25676
#
# Static dielectric constant tensor:
#      x y z
#    x 1.759980 0.000000 0.000000 
#    y 0.000000 1.646050 0.000000 
#    z 0.000000 0.000000 1.670400 
# 
# From -- ./inp_files/36462.got.cif
#   From: 2010.05.17/outbox.cif.g08.bks.cpg/sg69_19_cif.got.tgz:36462.got - 2010.06.03 19:29:58.
