data_PCOD9511581
_publ_section_title
;
Structure prediction by ZEFSAII (Michael W. Deem and Ramdas Pophale) SiO2 
 PCOD9511581
Probable space group: F M M M
;
_chemical_formula_sum "Si O2"
_cell_formula_units_Z 160
_cell_length_a 14.395100
_cell_length_b 22.975523
_cell_length_c 27.866744
_cell_angle_alpha 90.000000
_cell_angle_beta 90.000000
_cell_angle_gamma 90.000000
_cell_volume 9216.506215
_symmetry_space_group_name_H-M "F M M M"
_symmetry_group_IT_number 69
_symmetry_cell_setting 'orthorhombic'
loop_
_space_group_symop_operation_xyz
x,y,z
-x,-y,z
x,-y,-z
-x,y,-z
-x,-y,-z
x,y,-z
-x,y,z
x,-y,z
x,1/2+y,1/2+z
-x,1/2-y,1/2+z
x,1/2-y,1/2-z
-x,1/2+y,1/2-z
-x,1/2-y,1/2-z
x,1/2+y,1/2-z
-x,1/2+y,1/2+z
x,1/2-y,1/2+z
1/2+x,y,1/2+z
1/2-x,-y,1/2+z
1/2+x,-y,1/2-z
1/2-x,y,1/2-z
1/2-x,-y,1/2-z
1/2+x,y,1/2-z
1/2-x,y,1/2+z
1/2+x,-y,1/2+z
1/2+x,1/2+y,z
1/2-x,1/2-y,z
1/2+x,1/2-y,-z
1/2-x,1/2+y,-z
1/2-x,1/2-y,-z
1/2+x,1/2+y,-z
1/2-x,1/2+y,z
1/2+x,1/2-y,z
loop_
_atom_site_type_symbol
_atom_site_label
_atom_site_fract_x
_atom_site_fract_y
_atom_site_fract_z
Si Si1 0.607674 0.734930 0.804449
Si Si2 0.140303 0.564746 0.261401
Si Si3 0.611695 0.067168 0.444633
Si Si4 0.600631 0.366443 0.669105
Si Si5 0.691576 0.876156 0.646070
O O1 0.500000 0.714072 0.802177
O O2 0.637908 0.750000 0.750000
O O3 0.606587 0.796736 0.831080
O O4 0.669822 0.687340 0.831380
O O5 0.104425 0.500000 0.252567
O O6 0.250000 0.564555 0.250000
O O7 0.100462 0.611264 0.224311
O O8 0.135897 0.582386 0.316758
O O9 0.637938 0.078537 0.500000
O O10 0.500000 0.070374 0.441824
O O11 0.654938 0.111378 0.406732
O O12 0.638216 0.000000 0.433146
O O13 0.500000 0.384165 0.648212
O O14 0.697922 0.388695 0.647916
#
# Coordination Sequence:
#
# PCOD9511581 Si02
#       5
#    32  32  32  32  32
#     4  10  19  31  49  74 104 137 177 217 256 307
#     4   9  18  30  44  66  97 134 173 209 247 297
#     4   9  19  36  57  82 108 130 163 219 276 317
#     4  10  21  33  45  69 107 143 174 210 249 300
#     4  11  19  31  55  76  99 137 177 212 259 315
#
# _framework density 17.360157000000001
#
# number of rings (size 3 to 8) (size 9 to 14) (size 15 to 20)
#    0.000    2.200    2.000    2.400    0.000    2.800 
#    0.000    0.000    0.000    3.000    0.000    4.200 
#    0.000    0.000    0.000    0.000    0.000    0.000 
#
# Total GULP energy -222958.603884 kJ/mol
# GULP energy per Si atom -5573.965097 kJ/mol
# Density = 1.732064 g / cm^3
# Si number density = 17.360157 Si / 1000 Ang^3
#
#
#
# Elastic Constant Matrix: (Units=GPa)
#
#
# Indices 1 2 3 4 5 6 
#
# 1 98.1586 17.5946 29.1926 0.0000 0.0000 0.0000
# 2 17.5946 66.8246 31.1638 0.0000 0.0000 0.0000
# 3 29.1926 31.1638 84.1918 0.0000 0.0000 0.0000
# 4 0.0000 0.0000 0.0000 22.7230 0.0000 0.0000
# 5 0.0000 0.0000 0.0000 0.0000 15.6185 0.0000
# 6 0.0000 0.0000 0.0000 0.0000 0.0000 1.4323
#
#
#
# Elastic Compliance Matrix: (Units=1/GPa)
#
#
# Indices 1 2 3 4 5 6 
#
# 1 0.011468 -0.001408 -0.003455 0.000000 0.000000 0.000000
# 2 -0.001408 0.018260 -0.006271 0.000000 0.000000 0.000000
# 3 -0.003455 -0.006271 0.015397 0.000000 0.000000 0.000000
# 4 0.000000 0.000000 0.000000 0.044008 0.000000 0.000000
# 5 0.000000 0.000000 0.000000 0.000000 0.064026 0.000000
# 6 0.000000 0.000000 0.000000 0.000000 0.000000 0.698163
#
#
# Mechanical properties :
#
#
# Convention : Reuss Voigt Hill
#
# Bulk Modulus (GPa) = 43.75141 45.00855 44.37998
# Shear Modulus (GPa) = 5.67403 19.36971 12.52187
#
# Velocity S-wave (km/s) = 1.80984 3.34392 2.68862
# Velocity P-wave (km/s) = 5.44282 6.39466 5.93784
#
# Compressibility (1/GPa) = 0.02285641
#
# Stress axis : x y z
#
# Youngs Moduli (GPa) = 87.20280 54.76576 64.94892
#
# Poissons Ratio (x) = 0.07711 0.22440
# Poissons Ratio (y) = 0.12279 0.40727
# Poissons Ratio (z) = 0.30129 0.34341
#
# Static dielectric constant tensor:
#      x y z
#    x 1.644390 0.000000 0.000000 
#    y 0.000000 1.610970 0.000000 
#    z 0.000000 0.000000 1.561680 
# 
# From -- ./inp_files/17705.got.cif
#   From: 2010.05.17/outbox.cif.g08.bks.cpg/sg69_9_cif.got.tgz:17705.got - 2010.06.03 19:29:58.
