data_PCOD9511724
_publ_section_title
;
Structure prediction by ZEFSAII (Michael W. Deem and Ramdas Pophale) SiO2 
 PCOD9511724
Probable space group: F M M M
;
_chemical_formula_sum "Si O2"
_cell_formula_units_Z 112
_cell_length_a 10.348386
_cell_length_b 18.056013
_cell_length_c 29.231460
_cell_angle_alpha 90.000000
_cell_angle_beta 90.000000
_cell_angle_gamma 90.000000
_cell_volume 5461.915610
_symmetry_space_group_name_H-M "F M M M"
_symmetry_group_IT_number 69
_symmetry_cell_setting 'orthorhombic'
loop_
_space_group_symop_operation_xyz
x,y,z
-x,-y,z
x,-y,-z
-x,y,-z
-x,-y,-z
x,y,-z
-x,y,z
x,-y,z
x,1/2+y,1/2+z
-x,1/2-y,1/2+z
x,1/2-y,1/2-z
-x,1/2+y,1/2-z
-x,1/2-y,1/2-z
x,1/2+y,1/2-z
-x,1/2+y,1/2+z
x,1/2-y,1/2+z
1/2+x,y,1/2+z
1/2-x,-y,1/2+z
1/2+x,-y,1/2-z
1/2-x,y,1/2-z
1/2-x,-y,1/2-z
1/2+x,y,1/2-z
1/2-x,y,1/2+z
1/2+x,-y,1/2+z
1/2+x,1/2+y,z
1/2-x,1/2-y,z
1/2+x,1/2-y,-z
1/2-x,1/2+y,-z
1/2-x,1/2-y,-z
1/2+x,1/2+y,-z
1/2-x,1/2+y,z
1/2+x,1/2-y,z
loop_
_atom_site_type_symbol
_atom_site_label
_atom_site_fract_x
_atom_site_fract_y
_atom_site_fract_z
Si Si1 0.782384 0.910482 0.642870
Si Si2 0.000000 0.419397 0.553606
Si Si3 0.500000 0.089704 0.785082
Si Si4 0.268957 0.837747 0.947626
Si Si5 0.500000 0.910324 0.680924
O O1 0.873690 0.890599 0.685559
O O2 0.837211 0.871393 0.596964
O O3 0.634321 0.889514 0.656093
O O4 0.786520 0.000000 0.636321
O O5 0.129215 0.374311 0.559838
O O6 0.000000 0.500000 0.577103
O O7 0.000000 0.431908 0.500000
O O8 0.500000 0.117700 0.733214
O O9 0.500000 0.000000 0.782488
O O10 0.250000 0.750000 0.945077
O O11 0.314437 0.855190 0.000000
O O12 0.500000 0.000000 0.683339
#
# Coordination Sequence:
#
# PCOD9511724 Si02
#       5
#    32  16  16  32  16
#     4  10  19  32  54  81 107 141 185 231 280 337
#     4   9  17  32  55  79 103 138 192 249 283 317
#     4   9  18  32  51  79 111 138 171 224 289 349
#     4  10  21  35  52  77 111 150 188 232 289 345
#     4   9  17  32  56  82 105 134 180 236 286 333
#
# _framework density 20.505627
#
# number of rings (size 3 to 8) (size 9 to 14) (size 15 to 20)
#    0.000    2.429    0.000    2.571    0.000    7.429 
#    0.000    2.143    0.000    7.714    0.000    0.000 
#    0.000    0.000    0.000    0.000    0.000    0.000 
#
# Total GULP energy -155970.258858 kJ/mol
# GULP energy per Si atom -5570.366388 kJ/mol
# Density = 2.045895 g / cm^3
# Si number density = 20.505627 Si / 1000 Ang^3
#
#
#
# Elastic Constant Matrix: (Units=GPa)
#
#
# Indices 1 2 3 4 5 6 
#
# 1 86.5252 18.7315 40.9271 0.0000 0.0000 0.0000
# 2 18.7315 60.8421 32.3149 0.0000 0.0000 0.0000
# 3 40.9271 32.3149 231.8579 0.0000 0.0000 0.0000
# 4 0.0000 0.0000 0.0000 20.9823 0.0000 0.0000
# 5 0.0000 0.0000 0.0000 0.0000 8.9751 0.0000
# 6 0.0000 0.0000 0.0000 0.0000 0.0000 14.0101
#
#
#
# Elastic Compliance Matrix: (Units=1/GPa)
#
#
# Indices 1 2 3 4 5 6 
#
# 1 0.013108 -0.003031 -0.001891 0.000000 0.000000 0.000000
# 2 -0.003031 0.018451 -0.002037 0.000000 0.000000 0.000000
# 3 -0.001891 -0.002037 0.004931 0.000000 0.000000 0.000000
# 4 0.000000 0.000000 0.000000 0.047659 0.000000 0.000000
# 5 0.000000 0.000000 0.000000 0.000000 0.111420 0.000000
# 6 0.000000 0.000000 0.000000 0.000000 0.000000 0.071377
#
#
# Mechanical properties :
#
#
# Convention : Reuss Voigt Hill
#
# Bulk Modulus (GPa) = 44.30316 62.57467 53.43891
# Shear Modulus (GPa) = 17.33779 27.94360 22.64069
#
# Velocity S-wave (km/s) = 2.91093 3.69552 3.32644
# Velocity P-wave (km/s) = 5.74023 6.98507 6.39302
#
# Compressibility (1/GPa) = 0.02257175
#
# Stress axis : x y z
#
# Youngs Moduli (GPa) = 76.28847 54.19816 202.81150
#
# Poissons Ratio (x) = 0.16428 0.38359
# Poissons Ratio (y) = 0.23123 0.41303
# Poissons Ratio (z) = 0.14429 0.11038
#
# Static dielectric constant tensor:
#      x y z
#    x 1.870150 0.000000 0.000000 
#    y 0.000000 1.697830 0.000000 
#    z 0.000000 0.000000 1.789800 
# 
# From -- ./inp_files/8544.got.cif
#   From: 2010.05.17/outbox.cif.g08.bks.cpg/sg69_5_cif.got.tgz:8544.got - 2010.06.03 19:29:58.
