data_PCOD9511377
_publ_section_title
;
Structure prediction by ZEFSAII (Michael W. Deem and Ramdas Pophale) SiO2 
 PCOD9511377
Probable space group: F M M M
;
_chemical_formula_sum "Si O2"
_cell_formula_units_Z 112
_cell_length_a 14.978633
_cell_length_b 37.138026
_cell_length_c 10.267451
_cell_angle_alpha 90.000000
_cell_angle_beta 90.000000
_cell_angle_gamma 90.000000
_cell_volume 5711.545421
_symmetry_space_group_name_H-M "F M M M"
_symmetry_group_IT_number 69
_symmetry_cell_setting 'orthorhombic'
loop_
_space_group_symop_operation_xyz
x,y,z
-x,-y,z
x,-y,-z
-x,y,-z
-x,-y,-z
x,y,-z
-x,y,z
x,-y,z
x,1/2+y,1/2+z
-x,1/2-y,1/2+z
x,1/2-y,1/2-z
-x,1/2+y,1/2-z
-x,1/2-y,1/2-z
x,1/2+y,1/2-z
-x,1/2+y,1/2+z
x,1/2-y,1/2+z
1/2+x,y,1/2+z
1/2-x,-y,1/2+z
1/2+x,-y,1/2-z
1/2-x,y,1/2-z
1/2-x,-y,1/2-z
1/2+x,y,1/2-z
1/2-x,y,1/2+z
1/2+x,-y,1/2+z
1/2+x,1/2+y,z
1/2-x,1/2-y,z
1/2+x,1/2-y,-z
1/2-x,1/2+y,-z
1/2-x,1/2-y,-z
1/2+x,1/2+y,-z
1/2-x,1/2+y,z
1/2+x,1/2-y,z
loop_
_atom_site_type_symbol
_atom_site_label
_atom_site_fract_x
_atom_site_fract_y
_atom_site_fract_z
Si Si1 0.108987 0.776199 0.000000
Si Si2 0.391671 0.832343 0.718662
Si Si3 0.390749 0.306495 0.500000
Si Si4 0.500000 0.459132 0.842493
Si Si5 0.670622 0.588200 0.151464
O O1 0.135539 0.799102 0.126705
O O2 0.139325 0.735043 0.000000
O O3 0.000000 0.774940 0.000000
O O4 0.500000 0.833629 0.716016
O O5 0.362358 0.825746 0.867130
O O6 0.356641 0.869984 0.665124
O O7 0.500000 0.306313 0.500000
O O8 0.500000 0.500000 0.792787
O O9 0.587138 0.436421 0.807716
O O10 0.500000 0.460741 0.000000
O O11 0.750000 0.580915 0.250000
O O12 0.692406 0.581013 0.000000
#
# Coordination Sequence:
#
# PCOD9511377 Si02
#       5
#    16  32  16  16  32
#     4   9  16  28  51  79 113 155 209 258 303 362
#     4  10  18  32  55  81 116 161 204 255 303 360
#     4   9  18  28  47  85 117 151 205 262 313 350
#     4   9  20  42  71  97 124 160 201 240 293 367
#     4  11  23  39  63  94 125 163 203 247 299 357
#
# _framework density 19.609403
#
# number of rings (size 3 to 8) (size 9 to 14) (size 15 to 20)
#    0.000    2.143    2.857    0.857    2.000    4.000 
#    0.000    0.714    0.000    6.000    0.000    0.000 
#    0.000    0.000    0.000    0.000    0.000    0.000 
#
# Total GULP energy -156478.372716 kJ/mol
# GULP energy per Si atom -5588.513311 kJ/mol
# Density = 1.956477 g / cm^3
# Si number density = 19.609403 Si / 1000 Ang^3
#
#
#
# Elastic Constant Matrix: (Units=GPa)
#
#
# Indices 1 2 3 4 5 6 
#
# 1 81.5841 37.7762 42.4491 0.0000 0.0000 0.0000
# 2 37.7762 104.3310 27.3805 0.0000 0.0000 0.0000
# 3 42.4491 27.3805 125.8858 0.0000 0.0000 0.0000
# 4 0.0000 0.0000 0.0000 9.2577 0.0000 0.0000
# 5 0.0000 0.0000 0.0000 0.0000 19.0230 0.0000
# 6 0.0000 0.0000 0.0000 0.0000 0.0000 -4.8693
#
#
#
# Elastic Compliance Matrix: (Units=1/GPa)
#
#
# Indices 1 2 3 4 5 6 
#
# 1 0.016952 -0.004919 -0.004647 0.000000 0.000000 0.000000
# 2 -0.004919 0.011592 -0.000863 0.000000 0.000000 0.000000
# 3 -0.004647 -0.000863 0.009698 0.000000 0.000000 0.000000
# 4 0.000000 0.000000 0.000000 0.108018 0.000000 0.000000
# 5 0.000000 0.000000 0.000000 0.000000 0.052568 0.000000
# 6 0.000000 0.000000 0.000000 0.000000 0.000000 -0.205368
#
#
# Mechanical properties :
#
#
# Convention : Reuss Voigt Hill
#
# Bulk Modulus (GPa) = 57.51475 58.55695 58.03585
# Shear Modulus (GPa) = 248.59859 18.29528 133.44694
#
# Velocity S-wave (km/s) = 11.27166 3.05779 8.25834
# Velocity P-wave (km/s) = 14.09945 6.51101 10.98152
#
# Compressibility (1/GPa) = 0.01738684
#
# Stress axis : x y z
#
# Youngs Moduli (GPa) = 58.98837 86.26439 103.11190
#
# Poissons Ratio (x) = 0.42431 0.47912
# Poissons Ratio (y) = 0.29015 0.08896
# Poissons Ratio (z) = 0.27410 0.07442
#
# Static dielectric constant tensor:
#      x y z
#    x 1.718350 0.000000 0.000000 
#    y 0.000000 1.649480 0.000000 
#    z 0.000000 0.000000 1.669130 
# 
# From -- ./inp_files/7429.got.cif
#   From: 2010.05.17/outbox.cif.g08.bks.cpg/sg69_4_cif.got.tgz:7429.got - 2010.06.03 19:29:58.
