data_PCOD9511844
_publ_section_title
;
Structure prediction by ZEFSAII (Michael W. Deem and Ramdas Pophale) SiO2 
 PCOD9511844
Probable space group: F M M M
;
_chemical_formula_sum "Si O2"
_cell_formula_units_Z 232
_cell_length_a 26.119081
_cell_length_b 17.407474
_cell_length_c 27.732388
_cell_angle_alpha 90.000000
_cell_angle_beta 90.000000
_cell_angle_gamma 90.000000
_cell_volume 12609.007851
_symmetry_space_group_name_H-M "F M M M"
_symmetry_group_IT_number 69
_symmetry_cell_setting 'orthorhombic'
loop_
_space_group_symop_operation_xyz
x,y,z
-x,-y,z
x,-y,-z
-x,y,-z
-x,-y,-z
x,y,-z
-x,y,z
x,-y,z
x,1/2+y,1/2+z
-x,1/2-y,1/2+z
x,1/2-y,1/2-z
-x,1/2+y,1/2-z
-x,1/2-y,1/2-z
x,1/2+y,1/2-z
-x,1/2+y,1/2+z
x,1/2-y,1/2+z
1/2+x,y,1/2+z
1/2-x,-y,1/2+z
1/2+x,-y,1/2-z
1/2-x,y,1/2-z
1/2-x,-y,1/2-z
1/2+x,y,1/2-z
1/2-x,y,1/2+z
1/2+x,-y,1/2+z
1/2+x,1/2+y,z
1/2-x,1/2-y,z
1/2+x,1/2-y,-z
1/2-x,1/2+y,-z
1/2-x,1/2-y,-z
1/2+x,1/2+y,-z
1/2-x,1/2+y,z
1/2+x,1/2-y,z
loop_
_atom_site_type_symbol
_atom_site_label
_atom_site_fract_x
_atom_site_fract_y
_atom_site_fract_z
Si Si1 0.939607 0.409928 0.183381
Si Si2 0.714212 0.588620 0.325922
Si Si3 0.692836 0.838629 0.075538
Si Si4 0.143712 0.839215 0.249522
Si Si5 0.413790 0.909986 0.070766
Si Si6 0.000000 0.855051 0.500000
Si Si7 0.335050 0.911793 0.653646
Si Si8 0.809340 0.342320 0.446211
O O1 0.930467 0.500000 0.195476
O O2 0.905822 0.358200 0.218429
O O3 0.922572 0.399749 0.127923
O O4 0.000000 0.395144 0.187169
O O5 0.699264 0.500000 0.337206
O O6 0.694496 0.646702 0.366975
O O7 0.689070 0.612910 0.275739
O O8 0.775335 0.592595 0.329985
O O9 0.643908 0.885680 0.058046
O O10 0.748866 0.864050 0.057212
O O11 0.687678 0.749499 0.061872
O O12 0.157029 0.750000 0.250000
O O13 0.135867 0.864948 0.194576
O O14 0.422872 0.000000 0.059670
O O15 0.455080 0.861840 0.041593
O O16 0.336991 0.880813 0.599193
O O17 0.350945 0.000000 0.654879
O O18 0.827865 0.361354 0.500000
#
# Coordination Sequence:
#
# PCOD9511844 Si02
#       8
#    32  32  32  32  32   8  32  32
#     4  10  21  39  60  80 110 153 190 228 285 346
#     4  10  19  34  55  81 115 151 187 231 282 343
#     4  10  19  33  57  81 111 151 192 231 280 349
#     4  12  23  35  56  84 113 147 187 233 296 347
#     4  11  21  35  55  82 119 159 196 234 280 335
#     4  12  25  36  52  90 126 154 203 250 275 328
#     4  10  22  37  55  80 111 147 194 243 282 337
#     4  10  22  38  53  79 114 151 194 240 291 345
#
# _framework density 18.399543999999999
#
# number of rings (size 3 to 8) (size 9 to 14) (size 15 to 20)
#    0.000    1.517    2.069    4.345    1.931    4.414 
#    0.000    0.000    0.000    0.000    0.000    0.000 
#    0.000    0.000    0.000    3.517    0.000    0.552 
#
# Total GULP energy -323362.874048 kJ/mol
# GULP energy per Si atom -5575.221966 kJ/mol
# Density = 1.835767 g / cm^3
# Si number density = 18.399544 Si / 1000 Ang^3
#
#
#
# Elastic Constant Matrix: (Units=GPa)
#
#
# Indices 1 2 3 4 5 6 
#
# 1 34.3273 -0.5354 9.1846 0.0000 0.0000 0.0000
# 2 -0.5354 40.6229 30.1433 0.0000 0.0000 0.0000
# 3 9.1846 30.1433 140.7688 0.0000 0.0000 0.0000
# 4 0.0000 0.0000 0.0000 -24.5132 0.0000 0.0000
# 5 0.0000 0.0000 0.0000 0.0000 20.2740 0.0000
# 6 0.0000 0.0000 0.0000 0.0000 0.0000 5.5697
#
#
#
# Elastic Compliance Matrix: (Units=1/GPa)
#
#
# Indices 1 2 3 4 5 6 
#
# 1 0.029811 0.002183 -0.002413 0.000000 0.000000 0.000000
# 2 0.002183 0.029427 -0.006444 0.000000 0.000000 0.000000
# 3 -0.002413 -0.006444 0.008641 0.000000 0.000000 0.000000
# 4 0.000000 0.000000 0.000000 -0.040794 0.000000 0.000000
# 5 0.000000 0.000000 0.000000 0.000000 0.049324 0.000000
# 6 0.000000 0.000000 0.000000 0.000000 0.000000 0.179544
#
#
# Mechanical properties :
#
#
# Convention : Reuss Voigt Hill
#
# Bulk Modulus (GPa) = 18.33771 32.58934 25.46353
# Shear Modulus (GPa) = 17.39273 12.06118 14.72695
#
# Velocity S-wave (km/s) = 3.07788 2.56308 2.83220
# Velocity P-wave (km/s) = 4.75596 5.14875 4.95625
#
# Compressibility (1/GPa) = 0.05453244
#
# Stress axis : x y z
#
# Youngs Moduli (GPa) = 33.54476 33.98259 115.72640
#
# Poissons Ratio (x) = -0.07418 0.27919
# Poissons Ratio (y) = -0.07323 0.74571
# Poissons Ratio (z) = 0.08093 0.21897
#
# Static dielectric constant tensor:
#      x y z
#    x 1.625760 0.000000 0.000000 
#    y 0.000000 1.619460 0.000000 
#    z 0.000000 0.000000 1.662590 
# 
# From -- ./inp_files/43680.got.cif
#   From: 2010.05.17/outbox.cif.g08.bks.cpg/sg69_22_cif.got.tgz:43680.got - 2010.06.03 19:29:58.
