data_PCOD9511576
_publ_section_title
;
Structure prediction by ZEFSAII (Michael W. Deem and Ramdas Pophale) SiO2 
 PCOD9511576
Probable space group: F M M M
;
_chemical_formula_sum "Si O2"
_cell_formula_units_Z 160
_cell_length_a 17.011437
_cell_length_b 18.531460
_cell_length_c 28.842005
_cell_angle_alpha 90.000000
_cell_angle_beta 90.000000
_cell_angle_gamma 90.000000
_cell_volume 9092.348752
_symmetry_space_group_name_H-M "F M M M"
_symmetry_group_IT_number 69
_symmetry_cell_setting 'orthorhombic'
loop_
_space_group_symop_operation_xyz
x,y,z
-x,-y,z
x,-y,-z
-x,y,-z
-x,-y,-z
x,y,-z
-x,y,z
x,-y,z
x,1/2+y,1/2+z
-x,1/2-y,1/2+z
x,1/2-y,1/2-z
-x,1/2+y,1/2-z
-x,1/2-y,1/2-z
x,1/2+y,1/2-z
-x,1/2+y,1/2+z
x,1/2-y,1/2+z
1/2+x,y,1/2+z
1/2-x,-y,1/2+z
1/2+x,-y,1/2-z
1/2-x,y,1/2-z
1/2-x,-y,1/2-z
1/2+x,y,1/2-z
1/2-x,y,1/2+z
1/2+x,-y,1/2+z
1/2+x,1/2+y,z
1/2-x,1/2-y,z
1/2+x,1/2-y,-z
1/2-x,1/2+y,-z
1/2-x,1/2-y,-z
1/2+x,1/2+y,-z
1/2-x,1/2+y,z
1/2+x,1/2-y,z
loop_
_atom_site_type_symbol
_atom_site_label
_atom_site_fract_x
_atom_site_fract_y
_atom_site_fract_z
Si Si1 0.407560 0.294364 0.446238
Si Si2 0.190237 0.413677 0.102050
Si Si3 0.180553 0.192146 0.875642
Si Si4 0.093503 0.177309 0.778993
Si Si5 0.910629 0.414158 0.806965
O O1 0.395564 0.275016 0.500000
O O2 0.500000 0.306335 0.438142
O O3 0.359659 0.367433 0.434761
O O4 0.375661 0.231548 0.412636
O O5 0.189012 0.500000 0.095138
O O6 0.276792 0.379251 0.104906
O O7 0.146996 0.395797 0.151064
O O8 0.250000 0.250000 0.867285
O O9 0.137803 0.176805 0.827395
O O10 0.109019 0.250000 0.750000
O O11 0.115849 0.115037 0.742695
O O12 0.000000 0.172961 0.787730
O O13 0.914958 0.500000 0.805530
O O14 0.000000 0.385669 0.815562
#
# Coordination Sequence:
#
# PCOD9511576 Si02
#       5
#    32  32  32  32  32
#     4  10  21  38  60  81 101 132 175 220 265 314
#     4  10  21  35  53  80 112 142 171 211 265 318
#     4  10  21  34  51  76 107 139 172 213 265 318
#     4  10  19  31  49  72  99 136 183 226 257 293
#     4   9  18  32  49  71 103 141 176 212 256 303
#
# _framework density 17.597214000000001
#
# number of rings (size 3 to 8) (size 9 to 14) (size 15 to 20)
#    0.000    2.200    0.000    3.600    0.000   10.400 
#    0.000    3.000    0.000    1.800    0.000    1.400 
#    0.000    0.000    0.000    0.000    0.000    0.000 
#
# Total GULP energy -223174.532484 kJ/mol
# GULP energy per Si atom -5579.363312 kJ/mol
# Density = 1.755716 g / cm^3
# Si number density = 17.597214 Si / 1000 Ang^3
#
#
#
# Elastic Constant Matrix: (Units=GPa)
#
#
# Indices 1 2 3 4 5 6 
#
# 1 56.1324 26.1387 35.5828 0.0000 0.0000 0.0000
# 2 26.1387 56.8539 24.0494 0.0000 0.0000 0.0000
# 3 35.5828 24.0494 83.8646 0.0000 0.0000 0.0000
# 4 0.0000 0.0000 0.0000 24.8196 0.0000 0.0000
# 5 0.0000 0.0000 0.0000 0.0000 -6.8987 0.0000
# 6 0.0000 0.0000 0.0000 0.0000 0.0000 17.6902
#
#
#
# Elastic Compliance Matrix: (Units=1/GPa)
#
#
# Indices 1 2 3 4 5 6 
#
# 1 0.027815 -0.008872 -0.009257 0.000000 0.000000 0.000000
# 2 -0.008872 0.022847 -0.002787 0.000000 0.000000 0.000000
# 3 -0.009257 -0.002787 0.016651 0.000000 0.000000 0.000000
# 4 0.000000 0.000000 0.000000 0.040291 0.000000 0.000000
# 5 0.000000 0.000000 0.000000 0.000000 -0.144954 0.000000
# 6 0.000000 0.000000 0.000000 0.000000 0.000000 0.056528
#
#
# Mechanical properties :
#
#
# Convention : Reuss Voigt Hill
#
# Bulk Modulus (GPa) = 39.24753 40.93255 40.09004
# Shear Modulus (GPa) = 71.93813 14.52753 43.23283
#
# Velocity S-wave (km/s) = 6.40072 2.87637 4.96199
# Velocity P-wave (km/s) = 8.77367 5.86026 7.46056
#
# Compressibility (1/GPa) = 0.02547931
#
# Stress axis : x y z
#
# Youngs Moduli (GPa) = 35.95230 43.76946 60.05617
#
# Poissons Ratio (x) = 0.38832 0.55596
# Poissons Ratio (y) = 0.31897 0.16740
# Poissons Ratio (z) = 0.33282 0.12200
#
# Static dielectric constant tensor:
#      x y z
#    x 1.623250 0.000000 0.000000 
#    y 0.000000 1.656730 0.000000 
#    z 0.000000 0.000000 1.583080 
# 
# From -- ./inp_files/23090.got.cif
#   From: 2010.05.17/outbox.cif.g08.bks.cpg/sg69_12_cif.got.tgz:23090.got - 2010.06.03 19:29:58.
