data_PCOD9511771
_publ_section_title
;
Structure prediction by ZEFSAII (Michael W. Deem and Ramdas Pophale) SiO2 
 PCOD9511771
Probable space group: F M M M
;
_chemical_formula_sum "Si O2"
_cell_formula_units_Z 160
_cell_length_a 17.108722
_cell_length_b 24.698155
_cell_length_c 21.333579
_cell_angle_alpha 90.000000
_cell_angle_beta 90.000000
_cell_angle_gamma 90.000000
_cell_volume 9014.586321
_symmetry_space_group_name_H-M "F M M M"
_symmetry_group_IT_number 69
_symmetry_cell_setting 'orthorhombic'
loop_
_space_group_symop_operation_xyz
x,y,z
-x,-y,z
x,-y,-z
-x,y,-z
-x,-y,-z
x,y,-z
-x,y,z
x,-y,z
x,1/2+y,1/2+z
-x,1/2-y,1/2+z
x,1/2-y,1/2-z
-x,1/2+y,1/2-z
-x,1/2-y,1/2-z
x,1/2+y,1/2-z
-x,1/2+y,1/2+z
x,1/2-y,1/2+z
1/2+x,y,1/2+z
1/2-x,-y,1/2+z
1/2+x,-y,1/2-z
1/2-x,y,1/2-z
1/2-x,-y,1/2-z
1/2+x,y,1/2-z
1/2-x,y,1/2+z
1/2+x,-y,1/2+z
1/2+x,1/2+y,z
1/2-x,1/2-y,z
1/2+x,1/2-y,-z
1/2-x,1/2+y,-z
1/2-x,1/2-y,-z
1/2+x,1/2+y,-z
1/2-x,1/2+y,z
1/2+x,1/2-y,z
loop_
_atom_site_type_symbol
_atom_site_label
_atom_site_fract_x
_atom_site_fract_y
_atom_site_fract_z
Si Si1 0.591186 0.602467 0.133116
Si Si2 0.141522 0.500000 0.199316
Si Si3 0.906258 0.784854 0.930005
Si Si4 0.663194 0.275116 0.686028
Si Si5 0.188794 0.500000 0.347131
Si Si6 0.912053 0.881388 0.717245
O O1 0.500000 0.588131 0.120360
O O2 0.613872 0.654626 0.092974
O O3 0.649058 0.552668 0.123348
O O4 0.594925 0.616938 0.207151
O O5 0.165233 0.500000 0.273145
O O6 0.217998 0.500000 0.155779
O O7 0.098054 0.557347 0.192371
O O8 0.877341 0.744389 0.876988
O O9 0.000000 0.782633 0.931339
O O10 0.876352 0.774062 0.000000
O O11 0.626567 0.250000 0.750000
O O12 0.750000 0.250000 0.683876
O O13 0.652845 0.339542 0.692677
O O14 0.000000 0.861956 0.701940
#
# Coordination Sequence:
#
# PCOD9511771 Si02
#       6
#    32  16  32  32  16  32
#     4   9  17  30  50  75 107 144 182 219 267 331
#     4   9  19  29  49  79 109 139 179 228 281 326
#     4  10  21  37  55  77 109 148 187 229 277 333
#     4  11  23  34  56  83 114 143 183 231 285 338
#     4   9  17  27  48  72 109 142 177 223 277 321
#     4  10  19  33  53  79 111 145 180 226 278 331
#
# _framework density 17.749012
#
# number of rings (size 3 to 8) (size 9 to 14) (size 15 to 20)
#    0.000    2.200    2.000    1.200    2.800    5.200 
#    0.000    0.500    0.000    2.400    0.000    0.700 
#    0.000    3.200    0.000    0.000    0.000    0.000 
#
# Total GULP energy -222979.885789 kJ/mol
# GULP energy per Si atom -5574.497145 kJ/mol
# Density = 1.770861 g / cm^3
# Si number density = 17.749012 Si / 1000 Ang^3
#
#
#
# Elastic Constant Matrix: (Units=GPa)
#
#
# Indices 1 2 3 4 5 6 
#
# 1 41.0841 24.7396 15.1629 0.0000 0.0000 0.0000
# 2 24.7396 92.8151 37.1963 0.0000 0.0000 0.0000
# 3 15.1629 37.1963 85.0312 0.0000 0.0000 0.0000
# 4 0.0000 0.0000 0.0000 36.6922 0.0000 0.0000
# 5 0.0000 0.0000 0.0000 0.0000 15.4140 0.0000
# 6 0.0000 0.0000 0.0000 0.0000 0.0000 13.0921
#
#
#
# Elastic Compliance Matrix: (Units=1/GPa)
#
#
# Indices 1 2 3 4 5 6 
#
# 1 0.029328 -0.006938 -0.002195 0.000000 0.000000 0.000000
# 2 -0.006938 0.014706 -0.005196 0.000000 0.000000 0.000000
# 3 -0.002195 -0.005196 0.014425 0.000000 0.000000 0.000000
# 4 0.000000 0.000000 0.000000 0.027254 0.000000 0.000000
# 5 0.000000 0.000000 0.000000 0.000000 0.064876 0.000000
# 6 0.000000 0.000000 0.000000 0.000000 0.000000 0.076382
#
#
# Mechanical properties :
#
#
# Convention : Reuss Voigt Hill
#
# Bulk Modulus (GPa) = 33.55536 41.45869 37.50702
# Shear Modulus (GPa) = 18.82812 22.49512 20.66162
#
# Velocity S-wave (km/s) = 3.26052 3.56392 3.41559
# Velocity P-wave (km/s) = 5.75510 6.35172 6.06076
#
# Compressibility (1/GPa) = 0.02980150
#
# Stress axis : x y z
#
# Youngs Moduli (GPa) = 34.09708 68.00164 69.32582
#
# Poissons Ratio (x) = 0.47177 0.15217
# Poissons Ratio (y) = 0.23655 0.36020
# Poissons Ratio (z) = 0.07484 0.35332
#
# Static dielectric constant tensor:
#      x y z
#    x 1.639790 0.000000 0.000000 
#    y 0.000000 1.620710 0.000000 
#    z 0.000000 0.000000 1.590750 
# 
# From -- ./inp_files/24877.got.cif
#   From: 2010.05.17/outbox.cif.g08.bks.cpg/sg69_13_cif.got.tgz:24877.got - 2010.06.03 19:29:58.
