data_PCOD9511556
_publ_section_title
;
Structure prediction by ZEFSAII (Michael W. Deem and Ramdas Pophale) SiO2 
 PCOD9511556
Probable space group: F M M M
;
_chemical_formula_sum "Si O2"
_cell_formula_units_Z 176
_cell_length_a 18.429546
_cell_length_b 27.191505
_cell_length_c 19.938205
_cell_angle_alpha 90.000000
_cell_angle_beta 90.000000
_cell_angle_gamma 90.000000
_cell_volume 9991.574695
_symmetry_space_group_name_H-M "F M M M"
_symmetry_group_IT_number 69
_symmetry_cell_setting 'orthorhombic'
loop_
_space_group_symop_operation_xyz
x,y,z
-x,-y,z
x,-y,-z
-x,y,-z
-x,-y,-z
x,y,-z
-x,y,z
x,-y,z
x,1/2+y,1/2+z
-x,1/2-y,1/2+z
x,1/2-y,1/2-z
-x,1/2+y,1/2-z
-x,1/2-y,1/2-z
x,1/2+y,1/2-z
-x,1/2+y,1/2+z
x,1/2-y,1/2+z
1/2+x,y,1/2+z
1/2-x,-y,1/2+z
1/2+x,-y,1/2-z
1/2-x,y,1/2-z
1/2-x,-y,1/2-z
1/2+x,y,1/2-z
1/2-x,y,1/2+z
1/2+x,-y,1/2+z
1/2+x,1/2+y,z
1/2-x,1/2-y,z
1/2+x,1/2-y,-z
1/2-x,1/2+y,-z
1/2-x,1/2-y,-z
1/2+x,1/2+y,-z
1/2-x,1/2+y,z
1/2+x,1/2-y,z
loop_
_atom_site_type_symbol
_atom_site_label
_atom_site_fract_x
_atom_site_fract_y
_atom_site_fract_z
Si Si1 0.764007 0.623538 0.423886
Si Si2 0.913743 0.500000 0.423471
Si Si3 0.211777 0.302893 0.815580
Si Si4 0.915908 0.139414 0.724799
Si Si5 0.417052 0.108451 0.620582
Si Si6 0.802656 0.943273 0.314849
O O1 0.739812 0.619577 0.500000
O O2 0.729242 0.668399 0.383057
O O3 0.850869 0.630525 0.420924
O O4 0.740645 0.576536 0.379582
O O5 0.881949 0.500000 0.500000
O O6 0.900152 0.450112 0.382789
O O7 0.000000 0.500000 0.432505
O O8 0.250000 0.327286 0.750000
O O9 0.250000 0.250000 0.819976
O O10 0.127431 0.311477 0.797996
O O11 0.913144 0.130599 0.804921
O O12 0.870462 0.093478 0.695110
O O13 0.000000 0.139939 0.704760
O O14 0.500000 0.115102 0.595829
O O15 0.750000 0.939921 0.250000
O O16 0.824352 0.000000 0.322088
#
# Coordination Sequence:
#
# PCOD9511556 Si02
#       6
#    32  16  32  32  32  32
#     4  11  21  34  54  80 110 147 188 229 279 336
#     4   9  18  28  38  61 106 158 188 209 258 325
#     4  10  20  40  61  79 108 140 179 234 288 339
#     4  10  19  34  58  85 111 143 187 236 286 332
#     4  10  19  31  47  75 114 148 183 225 273 331
#     4  10  20  35  53  78 115 155 194 233 267 314
#
# _framework density 17.614840000000001
#
# number of rings (size 3 to 8) (size 9 to 14) (size 15 to 20)
#    0.000    1.909    3.636    1.636    2.545    2.182 
#    0.000    2.727    0.000    8.727    0.000    5.091 
#    0.000    0.000    0.000    0.000    0.000    0.000 
#
# Total GULP energy -245049.563250 kJ/mol
# GULP energy per Si atom -5569.308256 kJ/mol
# Density = 1.757475 g / cm^3
# Si number density = 17.614840 Si / 1000 Ang^3
#
#
#
# Elastic Constant Matrix: (Units=GPa)
#
#
# Indices 1 2 3 4 5 6 
#
# 1 121.8760 31.0727 30.8057 0.0000 0.0000 0.0000
# 2 31.0727 89.0977 26.2903 0.0000 0.0000 0.0000
# 3 30.8057 26.2903 111.1373 0.0000 0.0000 0.0000
# 4 0.0000 0.0000 0.0000 107.2509 0.0000 0.0000
# 5 0.0000 0.0000 0.0000 0.0000 -6.0016 0.0000
# 6 0.0000 0.0000 0.0000 0.0000 0.0000 8.4924
#
#
#
# Elastic Compliance Matrix: (Units=1/GPa)
#
#
# Indices 1 2 3 4 5 6 
#
# 1 0.009389 -0.002694 -0.001965 0.000000 0.000000 0.000000
# 2 -0.002694 0.012839 -0.002290 0.000000 0.000000 0.000000
# 3 -0.001965 -0.002290 0.010084 0.000000 0.000000 0.000000
# 4 0.000000 0.000000 0.000000 0.009324 0.000000 0.000000
# 5 0.000000 0.000000 0.000000 0.000000 -0.166624 0.000000
# 6 0.000000 0.000000 0.000000 0.000000 0.000000 0.117752
#
#
# Mechanical properties :
#
#
# Convention : Reuss Voigt Hill
#
# Bulk Modulus (GPa) = 54.31074 55.38316 54.84695
# Shear Modulus (GPa) = 390.55847 37.54451 214.05149
#
# Velocity S-wave (km/s) = 14.90646 4.62173 11.03547
# Velocity P-wave (km/s) = 18.08783 7.74532 13.91329
#
# Compressibility (1/GPa) = 0.01841257
#
# Stress axis : x y z
#
# Youngs Moduli (GPa) = 106.51088 77.88685 99.16362
#
# Poissons Ratio (x) = 0.20986 0.19486
# Poissons Ratio (y) = 0.28699 0.22712
# Poissons Ratio (z) = 0.20930 0.17839
#
# Static dielectric constant tensor:
#      x y z
#    x 1.633460 0.000000 0.000000 
#    y 0.000000 1.647820 0.000000 
#    z 0.000000 0.000000 1.603580 
# 
# From -- ./inp_files/23577.got.cif
#   From: 2010.05.17/outbox.cif.g08.bks.cpg/sg69_12_cif.got.tgz:23577.got - 2010.06.03 19:29:58.
