data_PCOD9511023
_publ_section_title
;
Structure prediction by ZEFSAII (Michael W. Deem and Ramdas Pophale) SiO2 
 PCOD9511023
Probable space group: F M M M
;
_chemical_formula_sum "Si O2"
_cell_formula_units_Z 192
_cell_length_a 19.483629
_cell_length_b 30.065019
_cell_length_c 14.134469
_cell_angle_alpha 90.000000
_cell_angle_beta 90.000000
_cell_angle_gamma 90.000000
_cell_volume 8279.628134
_symmetry_space_group_name_H-M "F M M M"
_symmetry_group_IT_number 69
_symmetry_cell_setting 'orthorhombic'
loop_
_space_group_symop_operation_xyz
x,y,z
-x,-y,z
x,-y,-z
-x,y,-z
-x,-y,-z
x,y,-z
-x,y,z
x,-y,z
x,1/2+y,1/2+z
-x,1/2-y,1/2+z
x,1/2-y,1/2-z
-x,1/2+y,1/2-z
-x,1/2-y,1/2-z
x,1/2+y,1/2-z
-x,1/2+y,1/2+z
x,1/2-y,1/2+z
1/2+x,y,1/2+z
1/2-x,-y,1/2+z
1/2+x,-y,1/2-z
1/2-x,y,1/2-z
1/2-x,-y,1/2-z
1/2+x,y,1/2-z
1/2-x,y,1/2+z
1/2+x,-y,1/2+z
1/2+x,1/2+y,z
1/2-x,1/2-y,z
1/2+x,1/2-y,-z
1/2-x,1/2+y,-z
1/2-x,1/2-y,-z
1/2+x,1/2+y,-z
1/2-x,1/2+y,z
1/2+x,1/2-y,z
loop_
_atom_site_type_symbol
_atom_site_label
_atom_site_fract_x
_atom_site_fract_y
_atom_site_fract_z
Si Si1 0.078249 0.598160 0.265877
Si Si2 0.292813 0.408356 0.651320
Si Si3 0.282945 0.810018 0.894034
Si Si4 0.573928 0.274943 0.385528
Si Si5 0.633171 0.318572 0.885537
Si Si6 0.736195 0.500000 0.865478
Si Si7 0.422447 0.000000 0.359252
O O1 0.127350 0.593877 0.176235
O O2 0.110512 0.635741 0.335303
O O3 0.078528 0.548026 0.307757
O O4 0.000000 0.610056 0.245932
O O5 0.250000 0.405893 0.750000
O O6 0.277083 0.363096 0.599736
O O7 0.270944 0.454186 0.604618
O O8 0.356384 0.798095 0.849032
O O9 0.208002 0.799577 0.853111
O O10 0.285751 0.791149 0.000000
O O11 0.573103 0.281432 0.500000
O O12 0.500000 0.290681 0.349252
O O13 0.581976 0.222314 0.368403
O O14 0.636450 0.325430 0.000000
O O15 0.750000 0.500000 0.750000
O O16 0.656568 0.500000 0.895413
O O17 0.500000 0.000000 0.403354
#
# Coordination Sequence:
#
# PCOD9511023 Si02
#       7
#    32  32  32  32  32  16  16
#     4  11  21  33  53  80 107 139 178 219 264 315
#     4  11  19  35  56  77 106 142 175 214 260 308
#     4  10  20  34  56  81 105 136 178 219 262 314
#     4   9  18  33  53  76 104 139 177 217 263 316
#     4  10  19  34  55  79 105 140 181 219 258 313
#     4  10  16  32  55  75 101 144 177 209 256 308
#     4  10  18  30  49  76 105 136 179 218 256 315
#
# _framework density 23.189447000000001
#
# number of rings (size 3 to 8) (size 9 to 14) (size 15 to 20)
#    0.000    1.833    5.000    1.000    0.000    3.667 
#    0.000    1.667    0.000    6.500    0.000    0.000 
#    0.000    6.000    0.000    0.000    0.000    0.000 
#
# Total GULP energy -267786.259630 kJ/mol
# GULP energy per Si atom -5578.880409 kJ/mol
# Density = 2.313667 g / cm^3
# Si number density = 23.189447 Si / 1000 Ang^3
#
#
#
# Elastic Constant Matrix: (Units=GPa)
#
#
# Indices 1 2 3 4 5 6 
#
# 1 226.2241 37.9192 28.3159 0.0000 0.0000 0.0000
# 2 37.9192 130.1452 11.8657 0.0000 0.0000 0.0000
# 3 28.3159 11.8657 64.4879 0.0000 0.0000 0.0000
# 4 0.0000 0.0000 0.0000 -82.4509 0.0000 0.0000
# 5 0.0000 0.0000 0.0000 0.0000 -14.7415 0.0000
# 6 0.0000 0.0000 0.0000 0.0000 0.0000 28.5828
#
#
#
# Elastic Compliance Matrix: (Units=1/GPa)
#
#
# Indices 1 2 3 4 5 6 
#
# 1 0.004868 -0.001244 -0.001908 0.000000 0.000000 0.000000
# 2 -0.001244 0.008133 -0.000950 0.000000 0.000000 0.000000
# 3 -0.001908 -0.000950 0.016520 0.000000 0.000000 0.000000
# 4 0.000000 0.000000 0.000000 -0.012128 0.000000 0.000000
# 5 0.000000 0.000000 0.000000 0.000000 -0.067836 0.000000
# 6 0.000000 0.000000 0.000000 0.000000 0.000000 0.034986
#
#
# Mechanical properties :
#
#
# Convention : Reuss Voigt Hill
#
# Bulk Modulus (GPa) = 46.91614 64.11762 55.51688
# Shear Modulus (GPa) = -33988.01056 9.12850 -16989.44103
#
# Velocity S-wave (km/s) = -121.19608 1.98621 -85.68706
# Velocity P-wave (km/s) = 139.87272 5.74191 98.82158
#
# Compressibility (1/GPa) = 0.02131463
#
# Stress axis : x y z
#
# Youngs Moduli (GPa) = 205.42994 122.95756 60.53422
#
# Poissons Ratio (x) = 0.15300 0.11553
# Poissons Ratio (y) = 0.25562 0.05751
# Poissons Ratio (z) = 0.39206 0.11682
#
# Static dielectric constant tensor:
#      x y z
#    x 1.907380 0.000000 0.000000 
#    y 0.000000 1.865080 0.000000 
#    z 0.000000 0.000000 1.877190 
# 
# From -- ./inp_files/23669.got.cif
#   From: 2010.05.17/outbox.cif.g08.bks.cpg/sg69_12_cif.got.tgz:23669.got - 2010.06.03 19:29:58.
