data_PCOD9511191
_publ_section_title
;
Structure prediction by ZEFSAII (Michael W. Deem and Ramdas Pophale) SiO2 
 PCOD9511191
Probable space group: F M M M
;
_chemical_formula_sum "Si O2"
_cell_formula_units_Z 192
_cell_length_a 20.530247
_cell_length_b 18.137158
_cell_length_c 26.751639
_cell_angle_alpha 90.000000
_cell_angle_beta 90.000000
_cell_angle_gamma 90.000000
_cell_volume 9961.249223
_symmetry_space_group_name_H-M "F M M M"
_symmetry_group_IT_number 69
_symmetry_cell_setting 'orthorhombic'
loop_
_space_group_symop_operation_xyz
x,y,z
-x,-y,z
x,-y,-z
-x,y,-z
-x,-y,-z
x,y,-z
-x,y,z
x,-y,z
x,1/2+y,1/2+z
-x,1/2-y,1/2+z
x,1/2-y,1/2-z
-x,1/2+y,1/2-z
-x,1/2-y,1/2-z
x,1/2+y,1/2-z
-x,1/2+y,1/2+z
x,1/2-y,1/2+z
1/2+x,y,1/2+z
1/2-x,-y,1/2+z
1/2+x,-y,1/2-z
1/2-x,y,1/2-z
1/2-x,-y,1/2-z
1/2+x,y,1/2-z
1/2-x,y,1/2+z
1/2+x,-y,1/2+z
1/2+x,1/2+y,z
1/2-x,1/2-y,z
1/2+x,1/2-y,-z
1/2-x,1/2+y,-z
1/2-x,1/2-y,-z
1/2+x,1/2+y,-z
1/2-x,1/2+y,z
1/2+x,1/2-y,z
loop_
_atom_site_type_symbol
_atom_site_label
_atom_site_fract_x
_atom_site_fract_y
_atom_site_fract_z
Si Si1 0.500000 0.189335 0.054386
Si Si2 0.861474 0.730938 0.442919
Si Si3 0.426332 0.190858 0.294770
Si Si4 0.575258 0.916435 0.439287
Si Si5 0.682773 0.285965 0.654667
Si Si6 0.872010 0.585021 0.216430
Si Si7 0.500000 0.081911 0.147815
O O1 0.435099 0.237815 0.055674
O O2 0.500000 0.138929 0.103044
O O3 0.500000 0.149935 0.000000
O O4 0.836714 0.731420 0.500000
O O5 0.872868 0.646314 0.425113
O O6 0.821304 0.783189 0.405501
O O7 0.500000 0.175252 0.312719
O O8 0.432504 0.250000 0.250000
O O9 0.378567 0.233853 0.331549
O O10 0.390963 0.120821 0.269691
O O11 0.574250 0.915405 0.500000
O O12 0.500000 0.901424 0.423652
O O13 0.591428 0.000000 0.423273
O O14 0.750000 0.250000 0.671093
O O15 0.675165 0.362035 0.684621
O O16 0.851701 0.500000 0.220393
O O17 0.938011 0.589123 0.183548
O O18 0.500000 0.000000 0.125906
#
# Coordination Sequence:
#
# PCOD9511191 Si02
#       7
#    16  32  32  32  32  32  16
#     4  10  18  29  50  85 116 147 196 248 291 344
#     4  10  19  32  53  78 111 151 198 245 291 345
#     4   9  19  34  58  85 111 143 186 236 284 338
#     4   8  13  23  42  70 101 132 173 229 288 337
#     4  11  24  39  57  83 117 157 202 238 287 352
#     4  10  20  37  63  89 119 151 188 234 293 356
#     4  10  18  31  56  89 118 151 185 233 297 353
#
# _framework density 19.274691000000001
#
# number of rings (size 3 to 8) (size 9 to 14) (size 15 to 20)
#    0.000    2.333    3.333    0.500    2.333    3.500 
#    0.000    3.333    0.000    0.500    0.000    0.000 
#    0.000    0.000    0.000    0.000    0.000    0.000 
#
# Total GULP energy -267533.270635 kJ/mol
# GULP energy per Si atom -5573.609805 kJ/mol
# Density = 1.923082 g / cm^3
# Si number density = 19.274691 Si / 1000 Ang^3
#
#
#
# Elastic Constant Matrix: (Units=GPa)
#
#
# Indices 1 2 3 4 5 6 
#
# 1 43.3716 9.7064 -5.4740 0.0000 0.0000 0.0000
# 2 9.7064 106.8006 22.4081 0.0000 0.0000 0.0000
# 3 -5.4740 22.4081 47.5483 0.0000 0.0000 0.0000
# 4 0.0000 0.0000 0.0000 24.2222 0.0000 0.0000
# 5 0.0000 0.0000 0.0000 0.0000 -5.3851 0.0000
# 6 0.0000 0.0000 0.0000 0.0000 0.0000 -5.6640
#
#
#
# Elastic Compliance Matrix: (Units=1/GPa)
#
#
# Indices 1 2 3 4 5 6 
#
# 1 0.024288 -0.003101 0.004257 0.000000 0.000000 0.000000
# 2 -0.003101 0.010786 -0.005440 0.000000 0.000000 0.000000
# 3 0.004257 -0.005440 0.024085 0.000000 0.000000 0.000000
# 4 0.000000 0.000000 0.000000 0.041284 0.000000 0.000000
# 5 0.000000 0.000000 0.000000 0.000000 -0.185698 0.000000
# 6 0.000000 0.000000 0.000000 0.000000 0.000000 -0.176553
#
#
# Mechanical properties :
#
#
# Convention : Reuss Voigt Hill
#
# Bulk Modulus (GPa) = 19.76579 27.88906 23.82742
# Shear Modulus (GPa) = -21.15272 14.03995 -3.55639
#
# Velocity S-wave (km/s) = -3.31635 2.70184 -1.35982
# Velocity P-wave (km/s) = 2.09456 4.92280 3.15014
#
# Compressibility (1/GPa) = 0.05059246
#
# Stress axis : x y z
#
# Youngs Moduli (GPa) = 41.17289 92.70862 41.51916
#
# Poissons Ratio (x) = 0.28745 -0.17676
# Poissons Ratio (y) = 0.12766 0.22588
# Poissons Ratio (z) = -0.17529 0.50436
#
# Static dielectric constant tensor:
#      x y z
#    x 1.730110 0.000000 0.000000 
#    y 0.000000 1.696280 0.000000 
#    z 0.000000 0.000000 1.730680 
# 
# From -- ./inp_files/37376.got.cif
#   From: 2010.05.17/outbox.cif.g08.bks.cpg/sg69_19_cif.got.tgz:37376.got - 2010.06.03 19:29:58.
