data_PCOD9511519
_publ_section_title
;
Structure prediction by ZEFSAII (Michael W. Deem and Ramdas Pophale) SiO2 
 PCOD9511519
Probable space group: F M M M
;
_chemical_formula_sum "Si O2"
_cell_formula_units_Z 192
_cell_length_a 18.770808
_cell_length_b 31.586457
_cell_length_c 19.074743
_cell_angle_alpha 90.000000
_cell_angle_beta 90.000000
_cell_angle_gamma 90.000000
_cell_volume 11309.478448
_symmetry_space_group_name_H-M "F M M M"
_symmetry_group_IT_number 69
_symmetry_cell_setting 'orthorhombic'
loop_
_space_group_symop_operation_xyz
x,y,z
-x,-y,z
x,-y,-z
-x,y,-z
-x,-y,-z
x,y,-z
-x,y,z
x,-y,z
x,1/2+y,1/2+z
-x,1/2-y,1/2+z
x,1/2-y,1/2-z
-x,1/2+y,1/2-z
-x,1/2-y,1/2-z
x,1/2+y,1/2-z
-x,1/2+y,1/2+z
x,1/2-y,1/2+z
1/2+x,y,1/2+z
1/2-x,-y,1/2+z
1/2+x,-y,1/2-z
1/2-x,y,1/2-z
1/2-x,-y,1/2-z
1/2+x,y,1/2-z
1/2-x,y,1/2+z
1/2+x,-y,1/2+z
1/2+x,1/2+y,z
1/2-x,1/2-y,z
1/2+x,1/2-y,-z
1/2-x,1/2+y,-z
1/2-x,1/2-y,-z
1/2+x,1/2+y,-z
1/2-x,1/2+y,z
1/2+x,1/2-y,z
loop_
_atom_site_type_symbol
_atom_site_label
_atom_site_fract_x
_atom_site_fract_y
_atom_site_fract_z
Si Si1 0.296462 0.451104 0.818261
Si Si2 0.083737 0.626569 0.847355
Si Si3 0.664652 0.548230 0.416423
Si Si4 0.585314 0.287933 0.583397
Si Si5 0.913250 0.194093 0.080997
Si Si6 0.083563 0.382777 0.681540
O O1 0.316788 0.500000 0.805782
O O2 0.250000 0.437522 0.750000
O O3 0.243735 0.449099 0.884372
O O4 0.364750 0.422262 0.829401
O O5 0.120335 0.584948 0.878702
O O6 0.114008 0.670283 0.879103
O O7 0.089232 0.628373 0.763630
O O8 0.000000 0.624004 0.865824
O O9 0.663557 0.553896 0.500000
O O10 0.638923 0.500000 0.400819
O O11 0.595205 0.291985 0.500000
O O12 0.500000 0.287519 0.596741
O O13 0.611886 0.241051 0.603621
O O14 0.893148 0.156460 0.132888
O O15 0.000000 0.195491 0.080967
O O16 0.891559 0.186778 0.000000
O O17 0.000000 0.391862 0.666778
#
# Coordination Sequence:
#
# PCOD9511519 Si02
#       6
#    32  32  32  32  32  32
#     4  10  20  37  56  72  99 139 174 208 251 302
#     4  10  19  30  48  78 111 139 172 214 257 304
#     4  10  21  36  54  76 101 136 179 215 255 310
#     4   8  14  26  45  69 101 140 174 207 253 305
#     4   8  15  29  48  72 103 136 171 213 259 305
#     4  10  20  32  52  82 107 132 170 213 260 308
#
# _framework density 16.97691
#
# number of rings (size 3 to 8) (size 9 to 14) (size 15 to 20)
#    0.000    2.667    1.667    1.500    0.000    3.000 
#    0.000    5.833    0.000    1.000    0.000    8.167 
#    0.000    0.000    0.000    0.000    0.000    0.000 
#
# Total GULP energy -267345.671545 kJ/mol
# GULP energy per Si atom -5569.701491 kJ/mol
# Density = 1.693827 g / cm^3
# Si number density = 16.976910 Si / 1000 Ang^3
#
#
#
# Elastic Constant Matrix: (Units=GPa)
#
#
# Indices 1 2 3 4 5 6 
#
# 1 39.0773 61.5305 27.6932 0.0000 0.0000 0.0000
# 2 61.5305 161.3447 70.9952 0.0000 0.0000 0.0000
# 3 27.6932 70.9952 61.6144 0.0000 0.0000 0.0000
# 4 0.0000 0.0000 0.0000 29.3700 0.0000 0.0000
# 5 0.0000 0.0000 0.0000 0.0000 16.2174 0.0000
# 6 0.0000 0.0000 0.0000 0.0000 0.0000 -19.6538
#
#
#
# Elastic Compliance Matrix: (Units=1/GPa)
#
#
# Indices 1 2 3 4 5 6 
#
# 1 0.064105 -0.023873 -0.001305 0.000000 0.000000 0.000000
# 2 -0.023873 0.021463 -0.014000 0.000000 0.000000 0.000000
# 3 -0.001305 -0.014000 0.032948 0.000000 0.000000 0.000000
# 4 0.000000 0.000000 0.000000 0.034048 0.000000 0.000000
# 5 0.000000 0.000000 0.000000 0.000000 0.061662 0.000000
# 6 0.000000 0.000000 0.000000 0.000000 0.000000 -0.050881
#
#
# Mechanical properties :
#
#
# Convention : Reuss Voigt Hill
#
# Bulk Modulus (GPa) = 24.90070 64.71933 44.81002
# Shear Modulus (GPa) = 19.60100 11.97457 15.78778
#
# Velocity S-wave (km/s) = 3.40158 2.65871 3.05283
# Velocity P-wave (km/s) = 5.48880 6.90143 6.23525
#
# Compressibility (1/GPa) = 0.04015951
#
# Stress axis : x y z
#
# Youngs Moduli (GPa) = 15.59936 46.59278 30.35046
#
# Poissons Ratio (x) = 1.11231 0.03961
# Poissons Ratio (y) = 0.37240 0.42492
# Poissons Ratio (z) = 0.02036 0.65231
#
# Static dielectric constant tensor:
#      x y z
#    x 1.561290 0.000000 0.000000 
#    y 0.000000 1.591560 0.000000 
#    z 0.000000 0.000000 1.569060 
# 
# From -- ./inp_files/32102.got.cif
#   From: 2010.05.17/outbox.cif.g08.bks.cpg/sg69_17_cif.got.tgz:32102.got - 2010.06.03 19:29:58.
