data_PCOD9511561
_publ_section_title
;
Structure prediction by ZEFSAII (Michael W. Deem and Ramdas Pophale) SiO2 
 PCOD9511561
Probable space group: F M M M
;
_chemical_formula_sum "Si O2"
_cell_formula_units_Z 192
_cell_length_a 21.079684
_cell_length_b 29.965939
_cell_length_c 18.151275
_cell_angle_alpha 90.000000
_cell_angle_beta 90.000000
_cell_angle_gamma 90.000000
_cell_volume 11465.661709
_symmetry_space_group_name_H-M "F M M M"
_symmetry_group_IT_number 69
_symmetry_cell_setting 'orthorhombic'
loop_
_space_group_symop_operation_xyz
x,y,z
-x,-y,z
x,-y,-z
-x,y,-z
-x,-y,-z
x,y,-z
-x,y,z
x,-y,z
x,1/2+y,1/2+z
-x,1/2-y,1/2+z
x,1/2-y,1/2-z
-x,1/2+y,1/2-z
-x,1/2-y,1/2-z
x,1/2+y,1/2-z
-x,1/2+y,1/2+z
x,1/2-y,1/2+z
1/2+x,y,1/2+z
1/2-x,-y,1/2+z
1/2+x,-y,1/2-z
1/2-x,y,1/2-z
1/2-x,-y,1/2-z
1/2+x,y,1/2-z
1/2-x,y,1/2+z
1/2+x,-y,1/2+z
1/2+x,1/2+y,z
1/2-x,1/2-y,z
1/2+x,1/2-y,-z
1/2-x,1/2+y,-z
1/2-x,1/2-y,-z
1/2+x,1/2+y,-z
1/2-x,1/2+y,z
1/2+x,1/2-y,z
loop_
_atom_site_type_symbol
_atom_site_label
_atom_site_fract_x
_atom_site_fract_y
_atom_site_fract_z
Si Si1 0.753379 0.551697 0.000000
Si Si2 0.573643 0.291897 0.804516
Si Si3 0.739669 0.623970 0.873829
Si Si4 0.904751 0.449199 0.000000
Si Si5 0.191027 0.719416 0.584467
Si Si6 0.352490 0.874472 0.235735
Si Si7 0.572751 0.050521 0.160946
O O1 0.737473 0.581672 0.071753
O O2 0.729726 0.500000 0.000000
O O3 0.829362 0.549127 0.000000
O O4 0.500000 0.299755 0.829192
O O5 0.572599 0.250000 0.750000
O O6 0.626558 0.280956 0.867263
O O7 0.601350 0.334113 0.758876
O O8 0.716935 0.668838 0.913763
O O9 0.692633 0.617300 0.805341
O O10 0.807815 0.633483 0.835693
O O11 0.924621 0.429494 0.078091
O O12 0.930311 0.500000 0.000000
O O13 0.178273 0.733157 0.500000
O O14 0.250000 0.750000 0.613224
O O15 0.390435 0.918689 0.216414
O O16 0.500000 0.048041 0.182702
O O17 0.599242 0.000000 0.157101
#
# Coordination Sequence:
#
# PCOD9511561 Si02
#       7
#    16  32  32  16  32  32  32
#     4  11  20  33  51  74 106 142 172 216 276 323
#     4  10  21  37  56  79 111 145 175 213 265 320
#     4  10  20  34  52  77 106 134 174 221 263 319
#     4   9  17  30  47  69  99 137 172 205 254 313
#     4  10  20  35  58  84 107 137 180 221 264 311
#     4  10  20  33  53  77 102 136 177 218 263 311
#     4  10  19  31  48  71 101 136 176 217 258 312
#
# _framework density 16.745653000000001
#
# number of rings (size 3 to 8) (size 9 to 14) (size 15 to 20)
#    0.000    2.000    2.500    1.750    0.000    3.667 
#    0.000    1.667    0.000    0.000    0.000    0.000 
#    0.000    5.333    0.000    0.000    0.000    0.000 
#
# Total GULP energy -267273.902755 kJ/mol
# GULP energy per Si atom -5568.206307 kJ/mol
# Density = 1.670754 g / cm^3
# Si number density = 16.745653 Si / 1000 Ang^3
#
#
#
# Elastic Constant Matrix: (Units=GPa)
#
#
# Indices 1 2 3 4 5 6 
#
# 1 109.4659 49.5168 38.5950 0.0000 0.0000 0.0000
# 2 49.5168 89.3422 36.0570 0.0000 0.0000 0.0000
# 3 38.5950 36.0570 67.1470 0.0000 0.0000 0.0000
# 4 0.0000 0.0000 0.0000 27.7160 0.0000 0.0000
# 5 0.0000 0.0000 0.0000 0.0000 20.6343 0.0000
# 6 0.0000 0.0000 0.0000 0.0000 0.0000 25.1000
#
#
#
# Elastic Compliance Matrix: (Units=1/GPa)
#
#
# Indices 1 2 3 4 5 6 
#
# 1 0.013256 -0.005454 -0.004691 0.000000 0.000000 0.000000
# 2 -0.005454 0.016534 -0.005744 0.000000 0.000000 0.000000
# 3 -0.004691 -0.005744 0.020673 0.000000 0.000000 0.000000
# 4 0.000000 0.000000 0.000000 0.036080 0.000000 0.000000
# 5 0.000000 0.000000 0.000000 0.000000 0.048463 0.000000
# 6 0.000000 0.000000 0.000000 0.000000 0.000000 0.039841
#
#
# Mechanical properties :
#
#
# Convention : Reuss Voigt Hill
#
# Bulk Modulus (GPa) = 53.51460 57.14364 55.32912
# Shear Modulus (GPa) = 23.49048 24.14247 23.81647
#
# Velocity S-wave (km/s) = 3.74943 3.80111 3.77536
# Velocity P-wave (km/s) = 7.12538 7.31185 7.21922
#
# Compressibility (1/GPa) = 0.01868649
#
# Stress axis : x y z
#
# Youngs Moduli (GPa) = 75.43627 60.48250 48.37216
#
# Poissons Ratio (x) = 0.32987 0.22690
# Poissons Ratio (y) = 0.41143 0.27783
# Poissons Ratio (z) = 0.35385 0.34738
#
# Static dielectric constant tensor:
#      x y z
#    x 1.577150 0.000000 0.000000 
#    y 0.000000 1.566980 0.000000 
#    z 0.000000 0.000000 1.590820 
# 
# From -- ./inp_files/32191.got.cif
#   From: 2010.05.17/outbox.cif.g08.bks.cpg/sg69_17_cif.got.tgz:32191.got - 2010.06.03 19:29:58.
