data_PCOD9511379
_publ_section_title
;
Structure prediction by ZEFSAII (Michael W. Deem and Ramdas Pophale) SiO2 
 PCOD9511379
Probable space group: F M M M
;
_chemical_formula_sum "Si O2"
_cell_formula_units_Z 232
_cell_length_a 23.034772
_cell_length_b 16.134773
_cell_length_c 33.788978
_cell_angle_alpha 90.000000
_cell_angle_beta 90.000000
_cell_angle_gamma 90.000000
_cell_volume 12558.039180
_symmetry_space_group_name_H-M "F M M M"
_symmetry_group_IT_number 69
_symmetry_cell_setting 'orthorhombic'
loop_
_space_group_symop_operation_xyz
x,y,z
-x,-y,z
x,-y,-z
-x,y,-z
-x,-y,-z
x,y,-z
-x,y,z
x,-y,z
x,1/2+y,1/2+z
-x,1/2-y,1/2+z
x,1/2-y,1/2-z
-x,1/2+y,1/2-z
-x,1/2-y,1/2-z
x,1/2+y,1/2-z
-x,1/2+y,1/2+z
x,1/2-y,1/2+z
1/2+x,y,1/2+z
1/2-x,-y,1/2+z
1/2+x,-y,1/2-z
1/2-x,y,1/2-z
1/2-x,-y,1/2-z
1/2+x,y,1/2-z
1/2-x,y,1/2+z
1/2+x,-y,1/2+z
1/2+x,1/2+y,z
1/2-x,1/2-y,z
1/2+x,1/2-y,-z
1/2-x,1/2+y,-z
1/2-x,1/2-y,-z
1/2+x,1/2+y,-z
1/2-x,1/2+y,z
1/2+x,1/2-y,z
loop_
_atom_site_type_symbol
_atom_site_label
_atom_site_fract_x
_atom_site_fract_y
_atom_site_fract_z
Si Si1 0.672514 0.900169 0.073432
Si Si2 0.706578 0.400134 0.339204
Si Si3 0.183104 0.651608 0.755513
Si Si4 0.841341 0.098152 0.827728
Si Si5 0.564436 0.700337 0.454848
Si Si6 0.798134 0.899813 0.044040
Si Si7 0.000000 0.000000 0.909422
Si Si8 0.095526 0.353186 0.598413
O O1 0.678852 0.874150 0.119345
O O2 0.616561 0.862424 0.053012
O O3 0.732523 0.873053 0.052927
O O4 0.670193 0.000000 0.071953
O O5 0.708033 0.500000 0.338192
O O6 0.671276 0.369920 0.300942
O O7 0.774590 0.373541 0.336406
O O8 0.181064 0.750000 0.750000
O O9 0.250000 0.622549 0.750000
O O10 0.148985 0.611155 0.719113
O O11 0.886331 0.146413 0.855472
O O12 0.845220 0.000000 0.837265
O O13 0.569292 0.733659 0.500000
O O14 0.500000 0.662649 0.451552
O O15 0.570473 0.771513 0.421965
O O16 0.843787 0.869382 0.075875
O O17 0.798353 0.000000 0.045639
O O18 0.815566 0.873828 0.000000
O O19 0.050838 0.072448 0.908905
#
# Coordination Sequence:
#
# PCOD9511379 Si02
#       8
#    32  32  32  32  32  32   8  32
#     4  10  21  39  64  89 115 154 194 247 308 365
#     4   9  17  32  54  84 118 149 190 237 295 354
#     4   9  18  29  46  81 123 155 185 229 293 353
#     4  10  18  32  56  81 116 156 195 240 287 352
#     4  11  26  44  59  84 118 153 203 258 302 354
#     4  10  19  34  57  86 118 150 194 245 295 357
#     4  12  24  40  65  88 118 166 206 242 284 356
#     4  12  22  40  59  87 119 159 205 244 296 350
#
# _framework density 18.474222000000001
#
# number of rings (size 3 to 8) (size 9 to 14) (size 15 to 20)
#    0.000    1.793    3.448    1.241    1.931    3.310 
#    0.000    3.448    0.000    0.000    1.793    1.448 
#    0.000    0.000    0.000    0.000    0.000    0.000 
#
# Total GULP energy -323081.467849 kJ/mol
# GULP energy per Si atom -5570.370135 kJ/mol
# Density = 1.843217 g / cm^3
# Si number density = 18.474222 Si / 1000 Ang^3
#
#
#
# Elastic Constant Matrix: (Units=GPa)
#
#
# Indices 1 2 3 4 5 6 
#
# 1 95.9305 15.4331 11.8417 0.0000 0.0000 0.0000
# 2 15.4331 15.3822 5.4624 0.0000 0.0000 0.0000
# 3 11.8417 5.4624 82.9893 0.0000 0.0000 0.0000
# 4 0.0000 0.0000 0.0000 24.6363 0.0000 0.0000
# 5 0.0000 0.0000 0.0000 0.0000 10.7722 0.0000
# 6 0.0000 0.0000 0.0000 0.0000 0.0000 31.7416
#
#
#
# Elastic Compliance Matrix: (Units=1/GPa)
#
#
# Indices 1 2 3 4 5 6 
#
# 1 0.012508 -0.012201 -0.000982 0.000000 0.000000 0.000000
# 2 -0.012201 0.078467 -0.003424 0.000000 0.000000 0.000000
# 3 -0.000982 -0.003424 0.012415 0.000000 0.000000 0.000000
# 4 0.000000 0.000000 0.000000 0.040591 0.000000 0.000000
# 5 0.000000 0.000000 0.000000 0.000000 0.092831 0.000000
# 6 0.000000 0.000000 0.000000 0.000000 0.000000 0.031504
#
#
# Mechanical properties :
#
#
# Convention : Reuss Voigt Hill
#
# Bulk Modulus (GPa) = 14.24954 28.86405 21.55680
# Shear Modulus (GPa) = 15.38826 24.20100 19.79463
#
# Velocity S-wave (km/s) = 2.88923 3.62330 3.27689
# Velocity P-wave (km/s) = 4.34283 5.75867 5.10012
#
# Compressibility (1/GPa) = 0.07017769
#
# Stress axis : x y z
#
# Youngs Moduli (GPa) = 79.94704 12.74415 80.54649
#
# Poissons Ratio (x) = 0.15549 0.07907
# Poissons Ratio (y) = 0.97544 0.27578
# Poissons Ratio (z) = 0.07849 0.04363
#
# Static dielectric constant tensor:
#      x y z
#    x 1.615020 0.000000 0.000000 
#    y 0.000000 1.648780 0.000000 
#    z 0.000000 0.000000 1.673290 
# 
# From -- ./inp_files/47081.got.cif
#   From: 2010.05.17/outbox.cif.g08.bks.cpg/sg69_24_cif.got.tgz:47081.got - 2010.06.03 19:29:58.
