data_PCOD9511487
_publ_section_title
;
Structure prediction by ZEFSAII (Michael W. Deem and Ramdas Pophale) SiO2 
 PCOD9511487
Probable space group: F M M M
;
_chemical_formula_sum "Si O2"
_cell_formula_units_Z 144
_cell_length_a 15.714703
_cell_length_b 15.660527
_cell_length_c 28.803677
_cell_angle_alpha 90.000000
_cell_angle_beta 90.000000
_cell_angle_gamma 90.000000
_cell_volume 7088.600194
_symmetry_space_group_name_H-M "F M M M"
_symmetry_group_IT_number 69
_symmetry_cell_setting 'orthorhombic'
loop_
_space_group_symop_operation_xyz
x,y,z
-x,-y,z
x,-y,-z
-x,y,-z
-x,-y,-z
x,y,-z
-x,y,z
x,-y,z
x,1/2+y,1/2+z
-x,1/2-y,1/2+z
x,1/2-y,1/2-z
-x,1/2+y,1/2-z
-x,1/2-y,1/2-z
x,1/2+y,1/2-z
-x,1/2+y,1/2+z
x,1/2-y,1/2+z
1/2+x,y,1/2+z
1/2-x,-y,1/2+z
1/2+x,-y,1/2-z
1/2-x,y,1/2-z
1/2-x,-y,1/2-z
1/2+x,y,1/2-z
1/2-x,y,1/2+z
1/2+x,-y,1/2+z
1/2+x,1/2+y,z
1/2-x,1/2-y,z
1/2+x,1/2-y,-z
1/2-x,1/2+y,-z
1/2-x,1/2-y,-z
1/2+x,1/2+y,-z
1/2-x,1/2+y,z
1/2+x,1/2-y,z
loop_
_atom_site_type_symbol
_atom_site_label
_atom_site_fract_x
_atom_site_fract_y
_atom_site_fract_z
Si Si1 0.769762 0.895898 0.355247
Si Si2 0.687783 0.395695 0.053007
Si Si3 0.901852 0.331828 0.782052
Si Si4 0.500000 0.098726 0.556318
Si Si5 0.406693 0.403311 0.186809
O O1 0.759566 0.873699 0.409520
O O2 0.842558 0.852249 0.325108
O O3 0.679295 0.866638 0.333823
O O4 0.777596 0.000000 0.350874
O O5 0.682924 0.500000 0.052441
O O6 0.593005 0.365479 0.068958
O O7 0.703470 0.368240 0.000000
O O8 0.879040 0.250000 0.750000
O O9 0.897355 0.404007 0.742424
O O10 0.000000 0.323533 0.796384
O O11 0.500000 0.098408 0.500000
O O12 0.500000 0.000000 0.571422
O O13 0.500000 0.364615 0.176372
O O14 0.409149 0.500000 0.169454
#
# Coordination Sequence:
#
# PCOD9511487 Si02
#       5
#    32  32  32  16  32
#     4  10  19  29  48  76 104 136 170 206 254 307
#     4   8  14  24  40  67 104 139 168 202 244 295
#     4  10  21  36  51  67  90 126 175 223 265 310
#     4   7  10  18  34  58  93 136 170 196 234 285
#     4   9  18  31  47  71 103 131 159 202 254 309
#
# _framework density 20.314305999999998
#
# number of rings (size 3 to 8) (size 9 to 14) (size 15 to 20)
#    0.000    3.000    0.000    2.667    1.556    4.889 
#    0.000    0.000    0.000    0.667    0.000    6.222 
#    0.000    5.333    0.000    0.222    0.000    0.222 
#
# Total GULP energy -200544.369441 kJ/mol
# GULP energy per Si atom -5570.676929 kJ/mol
# Density = 2.026807 g / cm^3
# Si number density = 20.314306 Si / 1000 Ang^3
#
#
#
# Elastic Constant Matrix: (Units=GPa)
#
#
# Indices 1 2 3 4 5 6 
#
# 1 110.7858 27.3695 97.7078 0.0000 0.0000 0.0000
# 2 27.3695 43.1935 25.8298 0.0000 0.0000 0.0000
# 3 97.7078 25.8298 148.4494 0.0000 0.0000 0.0000
# 4 0.0000 0.0000 0.0000 11.0015 0.0000 0.0000
# 5 0.0000 0.0000 0.0000 0.0000 42.1979 0.0000
# 6 0.0000 0.0000 0.0000 0.0000 0.0000 -5.5974
#
#
#
# Elastic Compliance Matrix: (Units=1/GPa)
#
#
# Indices 1 2 3 4 5 6 
#
# 1 0.022885 -0.006131 -0.013996 0.000000 0.000000 0.000000
# 2 -0.006131 0.027483 -0.000746 0.000000 0.000000 0.000000
# 3 -0.013996 -0.000746 0.016078 0.000000 0.000000 0.000000
# 4 0.000000 0.000000 0.000000 0.090897 0.000000 0.000000
# 5 0.000000 0.000000 0.000000 0.000000 0.023698 0.000000
# 6 0.000000 0.000000 0.000000 0.000000 0.000000 -0.178654
#
#
# Mechanical properties :
#
#
# Convention : Reuss Voigt Hill
#
# Bulk Modulus (GPa) = 40.48757 67.13810 53.81283
# Shear Modulus (GPa) = 95.48337 19.62185 57.55261
#
# Velocity S-wave (km/s) = 6.86331 3.11129 5.32847
# Velocity P-wave (km/s) = 9.09838 6.78441 8.02523
#
# Compressibility (1/GPa) = 0.02469894
#
# Stress axis : x y z
#
# Youngs Moduli (GPa) = 43.69757 36.38597 62.19733
#
# Poissons Ratio (x) = 0.22310 0.87048
# Poissons Ratio (y) = 0.26793 0.04642
# Poissons Ratio (z) = 0.61157 0.02716
#
# Static dielectric constant tensor:
#      x y z
#    x 1.741760 0.000000 0.000000 
#    y 0.000000 1.820000 0.000000 
#    z 0.000000 0.000000 1.761800 
# 
# From -- ./inp_files/45617.got.cif
#   From: 2010.05.17/outbox.cif.g08.bks.cpg/sg69_23_cif.got.tgz:45617.got - 2010.06.03 19:29:58.
