data_PCOD9511024
_publ_section_title
;
Structure prediction by ZEFSAII (Michael W. Deem and Ramdas Pophale) SiO2 
 PCOD9511024
Probable space group: F M M M
;
_chemical_formula_sum "Si O2"
_cell_formula_units_Z 136
_cell_length_a 29.851915
_cell_length_b 21.435330
_cell_length_c 11.156704
_cell_angle_alpha 90.000000
_cell_angle_beta 90.000000
_cell_angle_gamma 90.000000
_cell_volume 7139.014781
_symmetry_space_group_name_H-M "F M M M"
_symmetry_group_IT_number 69
_symmetry_cell_setting 'orthorhombic'
loop_
_space_group_symop_operation_xyz
x,y,z
-x,-y,z
x,-y,-z
-x,y,-z
-x,-y,-z
x,y,-z
-x,y,z
x,-y,z
x,1/2+y,1/2+z
-x,1/2-y,1/2+z
x,1/2-y,1/2-z
-x,1/2+y,1/2-z
-x,1/2-y,1/2-z
x,1/2+y,1/2-z
-x,1/2+y,1/2+z
x,1/2-y,1/2+z
1/2+x,y,1/2+z
1/2-x,-y,1/2+z
1/2+x,-y,1/2-z
1/2-x,y,1/2-z
1/2-x,-y,1/2-z
1/2+x,y,1/2-z
1/2-x,y,1/2+z
1/2+x,-y,1/2+z
1/2+x,1/2+y,z
1/2-x,1/2-y,z
1/2+x,1/2-y,-z
1/2-x,1/2+y,-z
1/2-x,1/2-y,-z
1/2+x,1/2+y,-z
1/2-x,1/2+y,z
1/2+x,1/2-y,z
loop_
_atom_site_type_symbol
_atom_site_label
_atom_site_fract_x
_atom_site_fract_y
_atom_site_fract_z
Si Si1 0.311437 0.795956 0.137585
Si Si2 0.693803 0.500000 0.867349
Si Si3 0.596789 0.370363 0.357665
Si Si4 0.250000 0.393029 0.250000
Si Si5 0.500000 0.634883 0.642337
Si Si6 0.097972 0.000000 0.217037
Si Si7 0.500000 0.000000 0.260323
O O1 0.304178 0.750000 0.250000
O O2 0.360254 0.826831 0.158645
O O3 0.273816 0.849255 0.152465
O O4 0.309928 0.770920 0.000000
O O5 0.712283 0.438742 0.802111
O O6 0.640337 0.500000 0.868743
O O7 0.712959 0.500000 0.000000
O O8 0.593173 0.381560 0.500000
O O9 0.548838 0.342144 0.314433
O O10 0.602639 0.437146 0.295090
O O11 0.500000 0.643809 0.500000
O O12 0.500000 0.561451 0.677090
O O13 0.046922 0.000000 0.169019
#
# Coordination Sequence:
#
# PCOD9511024 Si02
#       7
#    32  16  32  16  16  16   8
#     4  11  24  41  61  84 112 150 197 245 289 336
#     4  11  23  37  58  87 117 147 180 227 286 347
#     4   9  17  31  53  83 114 146 184 227 282 338
#     4  11  23  42  60  82 111 147 194 230 288 341
#     4   8  13  24  47  78 112 144 178 224 273 334
#     4  10  16  33  52  84 113 146 178 226 278 342
#     4   8  15  22  49  78 112 142 178 216 270 334
#
# _framework density 19.050246999999999
#
# number of rings (size 3 to 8) (size 9 to 14) (size 15 to 20)
#    0.000    2.118    2.353    1.588    0.000    5.647 
#    0.000    0.882    0.000    0.000    0.000    0.000 
#    0.000    0.000    0.000    0.000    0.000    0.000 
#
# Total GULP energy -189333.659059 kJ/mol
# GULP energy per Si atom -5568.637031 kJ/mol
# Density = 1.900689 g / cm^3
# Si number density = 19.050247 Si / 1000 Ang^3
#
#
#
# Elastic Constant Matrix: (Units=GPa)
#
#
# Indices 1 2 3 4 5 6 
#
# 1 131.2355 30.4448 28.3869 0.0000 0.0000 0.0000
# 2 30.4448 57.7336 40.0367 0.0000 0.0000 0.0000
# 3 28.3869 40.0367 82.7046 0.0001 0.0000 0.0000
# 4 0.0000 0.0000 0.0001 13.3993 0.0000 0.0000
# 5 0.0000 0.0000 0.0000 0.0000 21.0133 0.0000
# 6 0.0000 0.0000 0.0000 0.0000 0.0000 24.7823
#
#
#
# Elastic Compliance Matrix: (Units=1/GPa)
#
#
# Indices 1 2 3 4 5 6 
#
# 1 0.008755 -0.003813 -0.001159 0.000000 0.000000 0.000000
# 2 -0.003813 0.027735 -0.012117 0.000000 0.000000 0.000000
# 3 -0.001159 -0.012117 0.018355 0.000000 0.000000 0.000000
# 4 0.000000 0.000000 0.000000 0.074631 0.000000 0.000000
# 5 0.000000 0.000000 0.000000 0.000000 0.047589 0.000000
# 6 0.000000 0.000000 0.000000 0.000000 0.000000 0.040351
#
#
# Mechanical properties :
#
#
# Convention : Reuss Voigt Hill
#
# Bulk Modulus (GPa) = 48.38936 52.15671 50.27303
# Shear Modulus (GPa) = 19.34354 23.35933 21.35143
#
# Velocity S-wave (km/s) = 3.18998 3.50551 3.35146
# Velocity P-wave (km/s) = 6.24692 6.61987 6.43610
#
# Compressibility (1/GPa) = 0.02066570
#
# Stress axis : x y z
#
# Youngs Moduli (GPa) = 114.21786 36.05577 54.48086
#
# Poissons Ratio (x) = 0.13748 0.06315
# Poissons Ratio (y) = 0.43551 0.66017
# Poissons Ratio (z) = 0.13240 0.43690
#
# Static dielectric constant tensor:
#      x y z
#    x 1.735840 0.000000 0.000000 
#    y 0.000000 1.641950 0.000000 
#    z 0.000000 0.000000 1.611890 
# 
# From -- ./inp_files/11211.got.cif
#   From: 2010.05.17/outbox.cif.g08.bks.cpg/sg69_6_cif.got.tgz:11211.got - 2010.06.03 19:29:58.
