data_PCOD9511069
_publ_section_title
;
Structure prediction by ZEFSAII (Michael W. Deem and Ramdas Pophale) SiO2 
 PCOD9511069
Probable space group: F M M M
;
_chemical_formula_sum "Si O2"
_cell_formula_units_Z 160
_cell_length_a 8.078931
_cell_length_b 33.709880
_cell_length_c 30.596103
_cell_angle_alpha 90.000000
_cell_angle_beta 90.000000
_cell_angle_gamma 90.000000
_cell_volume 8332.536405
_symmetry_space_group_name_H-M "F M M M"
_symmetry_group_IT_number 69
_symmetry_cell_setting 'orthorhombic'
loop_
_space_group_symop_operation_xyz
x,y,z
-x,-y,z
x,-y,-z
-x,y,-z
-x,-y,-z
x,y,-z
-x,y,z
x,-y,z
x,1/2+y,1/2+z
-x,1/2-y,1/2+z
x,1/2-y,1/2-z
-x,1/2+y,1/2-z
-x,1/2-y,1/2-z
x,1/2+y,1/2-z
-x,1/2+y,1/2+z
x,1/2-y,1/2+z
1/2+x,y,1/2+z
1/2-x,-y,1/2+z
1/2+x,-y,1/2-z
1/2-x,y,1/2-z
1/2-x,-y,1/2-z
1/2+x,y,1/2-z
1/2-x,y,1/2+z
1/2+x,-y,1/2+z
1/2+x,1/2+y,z
1/2-x,1/2-y,z
1/2+x,1/2-y,-z
1/2-x,1/2+y,-z
1/2-x,1/2-y,-z
1/2+x,1/2+y,-z
1/2-x,1/2+y,z
1/2+x,1/2-y,z
loop_
_atom_site_type_symbol
_atom_site_label
_atom_site_fract_x
_atom_site_fract_y
_atom_site_fract_z
Si Si1 0.802184 0.704235 0.549420
Si Si2 0.298883 0.415263 0.454051
Si Si3 0.302238 0.640652 0.379472
Si Si4 0.802903 0.088495 0.200907
Si Si5 0.199028 0.000000 0.422386
Si Si6 0.193060 0.500000 0.675862
O O1 0.740187 0.691882 0.500000
O O2 0.750000 0.750000 0.554204
O O3 0.744029 0.679815 0.592311
O O4 0.000000 0.701368 0.548412
O O5 0.236154 0.399455 0.500000
O O6 0.500000 0.411466 0.453753
O O7 0.234462 0.392917 0.412271
O O8 0.260580 0.461044 0.449029
O O9 0.500000 0.640465 0.377773
O O10 0.247717 0.623830 0.332354
O O11 0.750000 0.098254 0.250000
O O12 0.736110 0.043288 0.190645
O O13 0.000000 0.085628 0.197968
O O14 0.288478 0.000000 0.376204
O O15 0.000000 0.000000 0.413954
O O16 0.000000 0.500000 0.689107
#
# Coordination Sequence:
#
# PCOD9511069 Si02
#       6
#    32  32  32  32  16  16
#     4  10  21  38  61  90 123 157 192 231 277 332
#     4   9  17  28  46  74 106 142 185 229 271 321
#     4  11  21  35  57  84 115 150 188 234 286 342
#     4  11  23  39  58  81 110 147 193 245 298 349
#     4  10  17  29  49  71 101 143 190 232 272 325
#     4  10  21  36  54  76 108 145 188 244 300 345
#
# _framework density 19.201837000000001
#
# number of rings (size 3 to 8) (size 9 to 14) (size 15 to 20)
#    0.000    1.800    2.000    3.000    0.000    4.000 
#    0.000    0.000    0.000    3.000    0.000    4.200 
#    0.000    0.000    0.000    0.000    0.000    0.000 
#
# Total GULP energy -222782.016390 kJ/mol
# GULP energy per Si atom -5569.550410 kJ/mol
# Density = 1.915813 g / cm^3
# Si number density = 19.201837 Si / 1000 Ang^3
#
#
#
# Elastic Constant Matrix: (Units=GPa)
#
#
# Indices 1 2 3 4 5 6 
#
# 1 42.0612 18.6452 20.2822 0.0000 0.0000 0.0000
# 2 18.6452 120.7162 67.3637 0.0000 0.0000 0.0000
# 3 20.2822 67.3637 171.6678 0.0000 0.0000 0.0000
# 4 0.0000 0.0000 0.0000 10.9038 0.0000 0.0000
# 5 0.0000 0.0000 0.0000 0.0000 6.2150 0.0000
# 6 0.0000 0.0000 0.0000 0.0000 0.0000 16.1362
#
#
#
# Elastic Compliance Matrix: (Units=1/GPa)
#
#
# Indices 1 2 3 4 5 6 
#
# 1 0.026005 -0.002948 -0.001916 0.000000 0.000000 0.000000
# 2 -0.002948 0.010941 -0.003945 0.000000 0.000000 0.000000
# 3 -0.001916 -0.003945 0.007600 0.000000 0.000000 0.000000
# 4 0.000000 0.000000 0.000000 0.091711 0.000000 0.000000
# 5 0.000000 0.000000 0.000000 0.000000 0.160900 0.000000
# 6 0.000000 0.000000 0.000000 0.000000 0.000000 0.061972
#
#
# Mechanical properties :
#
#
# Convention : Reuss Voigt Hill
#
# Bulk Modulus (GPa) = 37.13492 60.78084 48.95788
# Shear Modulus (GPa) = 12.96272 21.86129 17.41200
#
# Velocity S-wave (km/s) = 2.60104 3.37783 3.01456
# Velocity P-wave (km/s) = 5.32933 6.85094 6.13747
#
# Compressibility (1/GPa) = 0.02692883
#
# Stress axis : x y z
#
# Youngs Moduli (GPa) = 38.45370 91.40315 131.58645
#
# Poissons Ratio (x) = 0.26942 0.25210
# Poissons Ratio (y) = 0.11334 0.51910
# Poissons Ratio (z) = 0.07367 0.36058
#
# Static dielectric constant tensor:
#      x y z
#    x 1.680780 0.000000 0.000000 
#    y 0.000000 1.704770 0.000000 
#    z 0.000000 0.000000 1.680080 
# 
# From -- ./inp_files/44597.got.cif
#   From: 2010.05.17/outbox.cif.g08.bks.cpg/sg69_23_cif.got.tgz:44597.got - 2010.06.03 19:29:58.
