data_PCOD9511409
_publ_section_title
;
Structure prediction by ZEFSAII (Michael W. Deem and Ramdas Pophale) SiO2 
 PCOD9511409
Probable space group: F M M M
;
_chemical_formula_sum "Si O2"
_cell_formula_units_Z 160
_cell_length_a 18.590162
_cell_length_b 32.255217
_cell_length_c 15.452968
_cell_angle_alpha 90.000000
_cell_angle_beta 90.000000
_cell_angle_gamma 90.000000
_cell_volume 9266.058711
_symmetry_space_group_name_H-M "F M M M"
_symmetry_group_IT_number 69
_symmetry_cell_setting 'orthorhombic'
loop_
_space_group_symop_operation_xyz
x,y,z
-x,-y,z
x,-y,-z
-x,y,-z
-x,-y,-z
x,y,-z
-x,y,z
x,-y,z
x,1/2+y,1/2+z
-x,1/2-y,1/2+z
x,1/2-y,1/2-z
-x,1/2+y,1/2-z
-x,1/2-y,1/2-z
x,1/2+y,1/2-z
-x,1/2+y,1/2+z
x,1/2-y,1/2+z
1/2+x,y,1/2+z
1/2-x,-y,1/2+z
1/2+x,-y,1/2-z
1/2-x,y,1/2-z
1/2-x,-y,1/2-z
1/2+x,y,1/2-z
1/2-x,y,1/2+z
1/2+x,-y,1/2+z
1/2+x,1/2+y,z
1/2-x,1/2-y,z
1/2+x,1/2-y,-z
1/2-x,1/2+y,-z
1/2-x,1/2-y,-z
1/2+x,1/2+y,-z
1/2-x,1/2+y,z
1/2+x,1/2-y,z
loop_
_atom_site_type_symbol
_atom_site_label
_atom_site_fract_x
_atom_site_fract_y
_atom_site_fract_z
Si Si1 0.707884 0.952846 0.000000
Si Si2 0.302238 0.938791 0.328772
Si Si3 0.794443 0.657071 0.666198
Si Si4 0.193407 0.641070 0.000000
Si Si5 0.915301 0.274081 0.659503
Si Si6 0.584955 0.785668 0.000000
Si Si7 0.585330 0.000000 0.604320
O O1 0.756939 0.948826 0.085058
O O2 0.669233 0.907481 0.000000
O O3 0.675502 0.000000 0.000000
O O4 0.250000 0.951771 0.250000
O O5 0.317675 0.890268 0.316117
O O6 0.376673 0.961871 0.346801
O O7 0.750000 0.671925 0.750000
O O8 0.742321 0.652175 0.583414
O O9 0.861669 0.687220 0.652468
O O10 0.126590 0.671569 0.000000
O O11 0.906647 0.250000 0.750000
O O12 0.897334 0.241827 0.583639
O O13 0.000000 0.285896 0.651169
O O14 0.500000 0.793081 0.000000
O O15 0.500000 0.000000 0.612912
O O16 0.601304 0.000000 0.500000
#
# Coordination Sequence:
#
# PCOD9511409 Si02
#       7
#    16  32  32  16  32  16  16
#     4  10  18  33  55  82 105 134 181 222 272 331
#     4  10  19  34  56  80 110 147 182 221 274 331
#     4  10  21  34  53  83 108 136 185 224 265 315
#     4  10  21  34  54  81 106 136 175 231 269 309
#     4  10  21  36  54  74 106 146 177 215 269 323
#     4  10  21  37  54  76 105 143 181 213 271 332
#     4  11  21  34  54  83 115 147 181 225 283 334
#
# _framework density 17.267320000000002
#
# number of rings (size 3 to 8) (size 9 to 14) (size 15 to 20)
#    0.000    1.900    2.000    2.100    0.000    4.400 
#    0.000    0.000    0.000    7.500    0.000    0.000 
#    0.000    0.000    0.000    0.000    0.000    0.000 
#
# Total GULP energy -222901.756344 kJ/mol
# GULP energy per Si atom -5572.543909 kJ/mol
# Density = 1.722802 g / cm^3
# Si number density = 17.267320 Si / 1000 Ang^3
#
#
#
# Elastic Constant Matrix: (Units=GPa)
#
#
# Indices 1 2 3 4 5 6 
#
# 1 79.7258 77.6607 36.3695 0.0000 0.0000 0.0000
# 2 77.6607 151.3963 32.9408 0.0000 0.0000 0.0000
# 3 36.3695 32.9408 116.9516 0.0000 0.0000 0.0000
# 4 0.0000 0.0000 0.0000 14.7204 0.0000 0.0000
# 5 0.0000 0.0000 0.0000 0.0000 -27.1723 0.0000
# 6 0.0000 0.0000 0.0000 0.0000 0.0000 -25.3102
#
#
#
# Elastic Compliance Matrix: (Units=1/GPa)
#
#
# Indices 1 2 3 4 5 6 
#
# 1 0.027446 -0.013020 -0.004868 0.000000 0.000000 0.000000
# 2 -0.013020 0.013213 0.000327 0.000000 0.000000 0.000000
# 3 -0.004868 0.000327 0.009972 0.000000 0.000000 0.000000
# 4 0.000000 0.000000 0.000000 0.067933 0.000000 0.000000
# 5 0.000000 0.000000 0.000000 0.000000 -0.036802 0.000000
# 6 0.000000 0.000000 0.000000 0.000000 0.000000 -0.039510
#
#
# Mechanical properties :
#
#
# Convention : Reuss Voigt Hill
#
# Bulk Modulus (GPa) = 64.47359 71.33509 67.90434
# Shear Modulus (GPa) = 60.57472 5.85442 33.21457
#
# Velocity S-wave (km/s) = 5.92931 1.84332 4.39059
# Velocity P-wave (km/s) = 9.18124 6.77734 8.06931
#
# Compressibility (1/GPa) = 0.01551023
#
# Stress axis : x y z
#
# Youngs Moduli (GPa) = 36.43506 75.68558 100.27886
#
# Poissons Ratio (x) = 0.98540 0.48816
# Poissons Ratio (y) = 0.47437 -0.03283
# Poissons Ratio (z) = 0.17737 -0.02478
#
# Static dielectric constant tensor:
#      x y z
#    x 1.551810 0.000000 0.000000 
#    y 0.000000 1.610050 0.000000 
#    z 0.000000 0.000000 1.592280 
# 
# From -- ./inp_files/15722.got.cif
#   From: 2010.05.17/outbox.cif.g08.bks.cpg/sg69_8_cif.got.tgz:15722.got - 2010.06.03 19:29:58.
