data_PCOD9511004
_publ_section_title
;
Structure prediction by ZEFSAII (Michael W. Deem and Ramdas Pophale) SiO2 
 PCOD9511004
Probable space group: F M M M
;
_chemical_formula_sum "Si O2"
_cell_formula_units_Z 80
_cell_length_a 7.876099
_cell_length_b 30.281873
_cell_length_c 17.324162
_cell_angle_alpha 90.000000
_cell_angle_beta 90.000000
_cell_angle_gamma 90.000000
_cell_volume 4131.865123
_symmetry_space_group_name_H-M "F M M M"
_symmetry_group_IT_number 69
_symmetry_cell_setting 'orthorhombic'
loop_
_space_group_symop_operation_xyz
x,y,z
-x,-y,z
x,-y,-z
-x,y,-z
-x,-y,-z
x,y,-z
-x,y,z
x,-y,z
x,1/2+y,1/2+z
-x,1/2-y,1/2+z
x,1/2-y,1/2-z
-x,1/2+y,1/2-z
-x,1/2-y,1/2-z
x,1/2+y,1/2-z
-x,1/2+y,1/2+z
x,1/2-y,1/2+z
1/2+x,y,1/2+z
1/2-x,-y,1/2+z
1/2+x,-y,1/2-z
1/2-x,y,1/2-z
1/2-x,-y,1/2-z
1/2+x,y,1/2-z
1/2-x,y,1/2+z
1/2+x,-y,1/2+z
1/2+x,1/2+y,z
1/2-x,1/2-y,z
1/2+x,1/2-y,-z
1/2-x,1/2+y,-z
1/2-x,1/2-y,-z
1/2+x,1/2+y,-z
1/2-x,1/2+y,z
1/2+x,1/2-y,z
loop_
_atom_site_type_symbol
_atom_site_label
_atom_site_fract_x
_atom_site_fract_y
_atom_site_fract_z
Si Si1 0.700908 0.797764 0.840783
Si Si2 0.804529 0.107231 0.159839
Si Si3 0.000000 0.449619 0.092042
O O1 0.500000 0.803579 0.846500
O O2 0.750000 0.795713 0.750000
O O3 0.750000 0.750000 0.874517
O O4 0.786983 0.842383 0.870917
O O5 0.750000 0.108549 0.250000
O O6 0.667760 0.076018 0.119693
O O7 0.000000 0.092992 0.153201
O O8 0.000000 0.500000 0.121573
O O9 0.000000 0.450518 0.000000
#
# Coordination Sequence:
#
# PCOD9511004 Si02
#       3
#    32  32  16
#     4  10  16  26  47  84 124 157 193 242 295 348
#     4  11  20  38  63  94 125 157 203 254 302 353
#     4  11  26  46  64  87 121 161 203 250 309 371
#
# _framework density 19.361716000000001
#
# number of rings (size 3 to 8) (size 9 to 14) (size 15 to 20)
#    0.000    1.400    4.000    7.200    0.000    2.400 
#    0.000    2.000    0.000    1.200    0.000    0.000 
#    0.000    0.000    0.000    0.000    0.000    0.000 
#
# Total GULP energy -111607.998514 kJ/mol
# GULP energy per Si atom -5580.399926 kJ/mol
# Density = 1.931765 g / cm^3
# Si number density = 19.361716 Si / 1000 Ang^3
#
#
#
# Elastic Constant Matrix: (Units=GPa)
#
#
# Indices 1 2 3 4 5 6 
#
# 1 197.7756 68.3218 21.4078 0.0000 0.0000 0.0000
# 2 68.3218 171.5955 30.8851 0.0000 0.0000 0.0000
# 3 21.4078 30.8851 22.7476 0.0000 0.0000 0.0000
# 4 0.0000 0.0000 0.0000 155.7689 0.0000 0.0000
# 5 0.0000 0.0000 0.0000 0.0000 12.6290 0.0000
# 6 0.0000 0.0000 0.0000 0.0000 0.0000 17.0168
#
#
#
# Elastic Compliance Matrix: (Units=1/GPa)
#
#
# Indices 1 2 3 4 5 6 
#
# 1 0.006033 -0.001827 -0.003198 0.000000 0.000000 0.000000
# 2 -0.001827 0.008265 -0.009503 0.000000 0.000000 0.000000
# 3 -0.003198 -0.009503 0.059873 0.000000 0.000000 0.000000
# 4 0.000000 0.000000 0.000000 0.006420 0.000000 0.000000
# 5 0.000000 0.000000 0.000000 0.000000 0.079183 0.000000
# 6 0.000000 0.000000 0.000000 0.000000 0.000000 0.058766
#
#
# Mechanical properties :
#
#
# Convention : Reuss Voigt Hill
#
# Bulk Modulus (GPa) = 22.16495 70.37200 46.26848
# Shear Modulus (GPa) = 19.03788 55.18318 37.11053
#
# Velocity S-wave (km/s) = 3.13912 5.34444 4.38276
# Velocity P-wave (km/s) = 4.96099 8.63186 7.03990
#
# Compressibility (1/GPa) = 0.04511627
#
# Stress axis : x y z
#
# Youngs Moduli (GPa) = 165.74382 120.98628 16.70205
#
# Poissons Ratio (x) = 0.22100 0.05341
# Poissons Ratio (y) = 0.30276 0.15872
# Poissons Ratio (z) = 0.53004 1.14975
#
# Static dielectric constant tensor:
#      x y z
#    x 1.591080 0.000000 0.000000 
#    y 0.000000 1.729190 0.000000 
#    z 0.000000 0.000000 1.656980 
# 
# From -- ./inp_files/2185.got.cif
#   From: 2010.05.17/outbox.cif.g08.bks.cpg/sg69_2_cif.got.tgz:2185.got - 2010.06.03 19:29:58.
