data_PCOD9511279
_publ_section_title
;
Structure prediction by ZEFSAII (Michael W. Deem and Ramdas Pophale) SiO2 
 PCOD9511279
Probable space group: F M M M
;
_chemical_formula_sum "Si O2"
_cell_formula_units_Z 208
_cell_length_a 22.172983
_cell_length_b 30.197168
_cell_length_c 17.094381
_cell_angle_alpha 90.000000
_cell_angle_beta 90.000000
_cell_angle_gamma 90.000000
_cell_volume 11445.735840
_symmetry_space_group_name_H-M "F M M M"
_symmetry_group_IT_number 69
_symmetry_cell_setting 'orthorhombic'
loop_
_space_group_symop_operation_xyz
x,y,z
-x,-y,z
x,-y,-z
-x,y,-z
-x,-y,-z
x,y,-z
-x,y,z
x,-y,z
x,1/2+y,1/2+z
-x,1/2-y,1/2+z
x,1/2-y,1/2-z
-x,1/2+y,1/2-z
-x,1/2-y,1/2-z
x,1/2+y,1/2-z
-x,1/2+y,1/2+z
x,1/2-y,1/2+z
1/2+x,y,1/2+z
1/2-x,-y,1/2+z
1/2+x,-y,1/2-z
1/2-x,y,1/2-z
1/2-x,-y,1/2-z
1/2+x,y,1/2-z
1/2-x,y,1/2+z
1/2+x,-y,1/2+z
1/2+x,1/2+y,z
1/2-x,1/2-y,z
1/2+x,1/2-y,-z
1/2-x,1/2+y,-z
1/2-x,1/2-y,-z
1/2+x,1/2+y,-z
1/2-x,1/2+y,z
1/2+x,1/2-y,z
loop_
_atom_site_type_symbol
_atom_site_label
_atom_site_fract_x
_atom_site_fract_y
_atom_site_fract_z
Si Si1 0.500000 0.053766 0.088806
Si Si2 0.633081 0.448191 0.405841
Si Si3 0.566916 0.647851 0.261319
Si Si4 0.746204 0.303590 0.092506
Si Si5 0.068828 0.796574 0.414693
Si Si6 0.806621 0.622441 0.193551
Si Si7 0.632576 0.278821 0.175434
O O1 0.565232 0.065101 0.123101
O O2 0.500000 0.000000 0.084088
O O3 0.500000 0.071481 0.000000
O O4 0.632745 0.444245 0.500000
O O5 0.642065 0.500000 0.387280
O O6 0.682373 0.416992 0.367454
O O7 0.500000 0.629113 0.245115
O O8 0.568163 0.665595 0.350274
O O9 0.631135 0.623511 0.256764
O O10 0.577903 0.691808 0.208731
O O11 0.750000 0.250000 0.098089
O O12 0.793468 0.332589 0.143011
O O13 0.682249 0.310030 0.136021
O O14 0.747806 0.314895 0.000000
O O15 0.087020 0.813204 0.500000
O O16 0.110015 0.756304 0.387806
O O17 0.000000 0.780199 0.417872
O O18 0.750000 0.615970 0.250000
O O19 0.655992 0.250000 0.250000
#
# Coordination Sequence:
#
# PCOD9511279 Si02
#       7
#    16  32  32  32  32  32  32
#     4   7  12  28  56  88 116 143 171 207 267 336
#     4   9  19  37  61  87 116 145 177 221 274 336
#     4  10  21  35  51  72 104 142 180 222 277 332
#     4  11  23  36  53  76 106 149 193 233 274 328
#     4   9  17  29  47  73 101 132 179 236 288 333
#     4  12  24  37  55  82 113 150 184 230 276 325
#     4  10  18  31  51  70  97 137 185 234 283 322
#
# _framework density 18.172706999999999
#
# number of rings (size 3 to 8) (size 9 to 14) (size 15 to 20)
#    0.000    2.077    1.538    4.154    1.077    4.615 
#    0.000    0.000    0.000    0.000    0.000    0.000 
#    0.000    0.000    0.000    1.692    0.000    0.000 
#
# Total GULP energy -289875.746653 kJ/mol
# GULP energy per Si atom -5574.533589 kJ/mol
# Density = 1.813135 g / cm^3
# Si number density = 18.172707 Si / 1000 Ang^3
#
#
#
# Elastic Constant Matrix: (Units=GPa)
#
#
# Indices 1 2 3 4 5 6 
#
# 1 127.3778 36.8821 36.4155 0.0000 0.0000 0.0000
# 2 36.8821 72.6070 19.8796 0.0000 0.0000 0.0000
# 3 36.4155 19.8796 54.2360 0.0000 0.0000 0.0000
# 4 0.0000 0.0000 0.0000 20.7847 0.0000 0.0000
# 5 0.0000 0.0000 0.0000 0.0000 23.0461 0.0000
# 6 0.0000 0.0000 0.0000 0.0000 0.0000 22.2233
#
#
#
# Elastic Compliance Matrix: (Units=1/GPa)
#
#
# Indices 1 2 3 4 5 6 
#
# 1 0.010588 -0.003815 -0.005711 0.000000 0.000000 0.000000
# 2 -0.003815 0.016684 -0.003554 0.000000 0.000000 0.000000
# 3 -0.005711 -0.003554 0.023575 0.000000 0.000000 0.000000
# 4 0.000000 0.000000 0.000000 0.048112 0.000000 0.000000
# 5 0.000000 0.000000 0.000000 0.000000 0.043391 0.000000
# 6 0.000000 0.000000 0.000000 0.000000 0.000000 0.044998
#
#
# Mechanical properties :
#
#
# Convention : Reuss Voigt Hill
#
# Bulk Modulus (GPa) = 40.50597 48.95280 44.72939
# Shear Modulus (GPa) = 22.54936 23.94704 23.24820
#
# Velocity S-wave (km/s) = 3.52637 3.63402 3.58060
# Velocity P-wave (km/s) = 6.23845 6.67863 6.46229
#
# Compressibility (1/GPa) = 0.02468772
#
# Stress axis : x y z
#
# Youngs Moduli (GPa) = 94.44807 59.93920 42.41796
#
# Poissons Ratio (x) = 0.22865 0.24224
# Poissons Ratio (y) = 0.36029 0.15075
# Poissons Ratio (z) = 0.53937 0.21302
#
# Static dielectric constant tensor:
#      x y z
#    x 1.714110 0.000000 0.000000 
#    y 0.000000 1.634770 0.000000 
#    z 0.000000 0.000000 1.640360 
# 
# From -- ./inp_files/25173.got.cif
#   From: 2010.05.17/outbox.cif.g08.bks.cpg/sg69_13_cif.got.tgz:25173.got - 2010.06.03 19:29:58.
