data_PCOD9511947
_publ_section_title
;
Structure prediction by ZEFSAII (Michael W. Deem and Ramdas Pophale) SiO2 
 PCOD9511947
Probable space group: F M M M
;
_chemical_formula_sum "Si O2"
_cell_formula_units_Z 192
_cell_length_a 29.019993
_cell_length_b 15.758454
_cell_length_c 20.629614
_cell_angle_alpha 90.000000
_cell_angle_beta 90.000000
_cell_angle_gamma 90.000000
_cell_volume 9434.133415
_symmetry_space_group_name_H-M "F M M M"
_symmetry_group_IT_number 69
_symmetry_cell_setting 'orthorhombic'
loop_
_space_group_symop_operation_xyz
x,y,z
-x,-y,z
x,-y,-z
-x,y,-z
-x,-y,-z
x,y,-z
-x,y,z
x,-y,z
x,1/2+y,1/2+z
-x,1/2-y,1/2+z
x,1/2-y,1/2-z
-x,1/2+y,1/2-z
-x,1/2-y,1/2-z
x,1/2+y,1/2-z
-x,1/2+y,1/2+z
x,1/2-y,1/2+z
1/2+x,y,1/2+z
1/2-x,-y,1/2+z
1/2+x,-y,1/2-z
1/2-x,y,1/2-z
1/2-x,-y,1/2-z
1/2+x,y,1/2-z
1/2-x,y,1/2+z
1/2+x,-y,1/2+z
1/2+x,1/2+y,z
1/2-x,1/2-y,z
1/2+x,1/2-y,-z
1/2-x,1/2+y,-z
1/2-x,1/2-y,-z
1/2+x,1/2+y,-z
1/2-x,1/2+y,z
1/2+x,1/2-y,z
loop_
_atom_site_type_symbol
_atom_site_label
_atom_site_fract_x
_atom_site_fract_y
_atom_site_fract_z
Si Si1 0.209813 0.640143 0.000000
Si Si2 0.553491 0.658494 0.782248
Si Si3 0.302132 0.896643 0.750761
Si Si4 0.449318 0.402620 0.358557
Si Si5 0.865066 0.602061 0.370748
Si Si6 0.648032 0.899640 0.121767
Si Si7 0.685004 0.838454 0.500000
O O1 0.183579 0.607724 0.063521
O O2 0.264095 0.617669 0.000000
O O3 0.199507 0.740389 0.000000
O O4 0.500000 0.655197 0.802075
O O5 0.562821 0.750000 0.750000
O O6 0.559089 0.598103 0.719227
O O7 0.587243 0.636484 0.840762
O O8 0.250000 0.865867 0.750000
O O9 0.327992 0.876543 0.684885
O O10 0.329730 0.863331 0.812917
O O11 0.300864 0.000000 0.755755
O O12 0.500000 0.362399 0.369206
O O13 0.452816 0.500000 0.380744
O O14 0.403336 0.363291 0.389742
O O15 0.868415 0.500000 0.376571
O O16 0.845270 0.638877 0.437290
O O17 0.640685 0.000000 0.133050
#
# Coordination Sequence:
#
# PCOD9511947 Si02
#       7
#    16  32  32  32  32  32  16
#     4  11  25  43  58  81 120 166 206 254 320 375
#     4  10  21  36  60  93 125 157 195 244 310 371
#     4   9  17  30  53  85 113 138 185 248 300 354
#     4   9  17  32  56  88 121 148 183 234 291 357
#     4  11  22  39  62  88 119 162 211 260 310 363
#     4  10  19  34  59  88 114 151 194 240 305 374
#     4  11  27  43  58  81 118 168 214 258 314 370
#
# _framework density 20.351631000000001
#
# number of rings (size 3 to 8) (size 9 to 14) (size 15 to 20)
#    0.000    2.000    1.667    2.000    2.333    3.667 
#    0.000    0.833    0.000    7.000    0.000    0.000 
#    0.000    0.000    0.000    0.000    0.000    0.000 
#
# Total GULP energy -267847.983215 kJ/mol
# GULP energy per Si atom -5580.166317 kJ/mol
# Density = 2.030531 g / cm^3
# Si number density = 20.351631 Si / 1000 Ang^3
#
#
#
# Elastic Constant Matrix: (Units=GPa)
#
#
# Indices 1 2 3 4 5 6 
#
# 1 161.2082 15.0142 43.6903 0.0000 0.0000 0.0000
# 2 15.0142 40.8410 0.9058 0.0000 0.0000 0.0000
# 3 43.6903 0.9058 80.8157 0.0000 0.0000 0.0000
# 4 0.0000 0.0000 0.0000 24.7509 0.0000 0.0000
# 5 0.0000 0.0000 0.0000 0.0000 9.5518 0.0000
# 6 0.0000 0.0000 0.0000 0.0000 0.0000 19.2489
#
#
#
# Elastic Compliance Matrix: (Units=1/GPa)
#
#
# Indices 1 2 3 4 5 6 
#
# 1 0.007552 -0.002686 -0.004052 0.000000 0.000000 0.000000
# 2 -0.002686 0.025447 0.001167 0.000000 0.000000 0.000000
# 3 -0.004052 0.001167 0.014552 0.000000 0.000000 0.000000
# 4 0.000000 0.000000 0.000000 0.040403 0.000000 0.000000
# 5 0.000000 0.000000 0.000000 0.000000 0.104692 0.000000
# 6 0.000000 0.000000 0.000000 0.000000 0.000000 0.051951
#
#
# Mechanical properties :
#
#
# Convention : Reuss Voigt Hill
#
# Bulk Modulus (GPa) = 27.46747 44.67617 36.07182
# Shear Modulus (GPa) = 18.66546 25.59395 22.12971
#
# Velocity S-wave (km/s) = 3.03173 3.55010 3.30110
# Velocity P-wave (km/s) = 5.07749 6.22929 5.68265
#
# Compressibility (1/GPa) = 0.03640670
#
# Stress axis : x y z
#
# Youngs Moduli (GPa) = 132.42183 39.29755 68.72112
#
# Poissons Ratio (x) = 0.10556 0.27849
# Poissons Ratio (y) = 0.35572 -0.08020
# Poissons Ratio (z) = 0.53663 -0.04586
#
# Static dielectric constant tensor:
#      x y z
#    x 1.773780 0.000000 0.000000 
#    y 0.000000 1.773980 0.000000 
#    z 0.000000 0.000000 1.673070 
# 
# From -- ./inp_files/27809.got.cif
#   From: 2010.05.17/outbox.cif.g08.bks.cpg/sg69_14_cif.got.tgz:27809.got - 2010.06.03 19:29:58.
