data_PCOD9511738
_publ_section_title
;
Structure prediction by ZEFSAII (Michael W. Deem and Ramdas Pophale) SiO2 
 PCOD9511738
Probable space group: F M M M
;
_chemical_formula_sum "Si O2"
_cell_formula_units_Z 176
_cell_length_a 15.326481
_cell_length_b 21.494175
_cell_length_c 24.658276
_cell_angle_alpha 90.000000
_cell_angle_beta 90.000000
_cell_angle_gamma 90.000000
_cell_volume 8123.177459
_symmetry_space_group_name_H-M "F M M M"
_symmetry_group_IT_number 69
_symmetry_cell_setting 'orthorhombic'
loop_
_space_group_symop_operation_xyz
x,y,z
-x,-y,z
x,-y,-z
-x,y,-z
-x,-y,-z
x,y,-z
-x,y,z
x,-y,z
x,1/2+y,1/2+z
-x,1/2-y,1/2+z
x,1/2-y,1/2-z
-x,1/2+y,1/2-z
-x,1/2-y,1/2-z
x,1/2+y,1/2-z
-x,1/2+y,1/2+z
x,1/2-y,1/2+z
1/2+x,y,1/2+z
1/2-x,-y,1/2+z
1/2+x,-y,1/2-z
1/2-x,y,1/2-z
1/2-x,-y,1/2-z
1/2+x,y,1/2-z
1/2-x,y,1/2+z
1/2+x,-y,1/2+z
1/2+x,1/2+y,z
1/2-x,1/2-y,z
1/2+x,1/2-y,-z
1/2-x,1/2+y,-z
1/2-x,1/2-y,-z
1/2+x,1/2+y,-z
1/2-x,1/2+y,z
1/2+x,1/2-y,z
loop_
_atom_site_type_symbol
_atom_site_label
_atom_site_fract_x
_atom_site_fract_y
_atom_site_fract_z
Si Si1 0.899614 0.426036 0.614593
Si Si2 0.750000 0.250000 0.088766
Si Si3 0.402094 0.110172 0.156019
Si Si4 0.350374 0.625381 0.767806
Si Si5 0.401528 0.740777 0.168242
Si Si6 0.273331 0.614188 0.440456
O O1 0.900066 0.500000 0.609764
O O2 0.867822 0.408453 0.675322
O O3 0.827059 0.401195 0.572993
O O4 0.000000 0.404299 0.606734
O O5 0.674185 0.277378 0.126895
O O6 0.715649 0.189356 0.058518
O O7 0.500000 0.098400 0.136602
O O8 0.390793 0.087143 0.217583
O O9 0.391361 0.184470 0.168257
O O10 0.332507 0.091842 0.110345
O O11 0.250000 0.632759 0.750000
O O12 0.388035 0.694593 0.780953
O O13 0.500000 0.730233 0.149379
O O14 0.297254 0.589562 0.500000
#
# Coordination Sequence:
#
# PCOD9511738 Si02
#       6
#    32  16  32  32  32  32
#     4  11  25  45  68  94 125 165 214 266 322 382
#     4  10  19  36  59  90 124 163 205 248 316 384
#     4  10  21  36  57  92 130 169 208 246 307 383
#     4  12  20  36  61  92 127 165 203 256 322 383
#     4  10  19  32  55  88 129 166 199 245 304 375
#     4  11  23  41  62  89 124 165 211 264 314 368
#
# _framework density 21.666398999999998
#
# number of rings (size 3 to 8) (size 9 to 14) (size 15 to 20)
#    0.000    1.273    3.636    3.545    0.000    3.636 
#    0.000    0.909    0.000    3.818    0.000    1.273 
#    0.000    0.000    0.000    0.000    0.000    0.000 
#
# Total GULP energy -245358.557551 kJ/mol
# GULP energy per Si atom -5576.330853 kJ/mol
# Density = 2.161708 g / cm^3
# Si number density = 21.666399 Si / 1000 Ang^3
#
#
#
# Elastic Constant Matrix: (Units=GPa)
#
#
# Indices 1 2 3 4 5 6 
#
# 1 149.0814 -1.2931 50.4605 0.0000 0.0000 0.0000
# 2 -1.2931 39.9050 -2.5482 0.0000 0.0000 0.0000
# 3 50.4605 -2.5482 137.2498 0.0000 0.0000 0.0000
# 4 0.0000 0.0000 0.0000 4.5615 0.0000 0.0000
# 5 0.0000 0.0000 0.0000 0.0000 52.7194 0.0000
# 6 0.0000 0.0000 0.0000 0.0000 0.0000 18.5922
#
#
#
# Elastic Compliance Matrix: (Units=1/GPa)
#
#
# Indices 1 2 3 4 5 6 
#
# 1 0.007661 0.000068 -0.002815 0.000000 0.000000 0.000000
# 2 0.000068 0.025090 0.000441 0.000000 0.000000 0.000000
# 3 -0.002815 0.000441 0.008329 0.000000 0.000000 0.000000
# 4 0.000000 0.000000 0.000000 0.219224 0.000000 0.000000
# 5 0.000000 0.000000 0.000000 0.000000 0.018968 0.000000
# 6 0.000000 0.000000 0.000000 0.000000 0.000000 0.053786
#
#
# Mechanical properties :
#
#
# Convention : Reuss Voigt Hill
#
# Bulk Modulus (GPa) = 27.42144 46.60829 37.01487
# Shear Modulus (GPa) = 14.29276 33.81576 24.05426
#
# Velocity S-wave (km/s) = 2.57120 3.95491 3.33560
# Velocity P-wave (km/s) = 4.63664 6.51257 5.65297
#
# Compressibility (1/GPa) = 0.03646781
#
# Stress axis : x y z
#
# Youngs Moduli (GPa) = 130.52613 39.85671 120.05846
#
# Poissons Ratio (x) = -0.00273 0.33802
# Poissons Ratio (y) = -0.00894 -0.05290
# Poissons Ratio (z) = 0.36749 -0.01756
#
# Static dielectric constant tensor:
#      x y z
#    x 1.798830 0.000000 0.000000 
#    y 0.000000 1.842110 0.000000 
#    z 0.000000 0.000000 1.830750 
# 
# From -- ./inp_files/35927.got.cif
#   From: 2010.05.17/outbox.cif.g08.bks.cpg/sg69_18_cif.got.tgz:35927.got - 2010.06.03 19:29:58.
