data_PCOD9511614
_publ_section_title
;
Structure prediction by ZEFSAII (Michael W. Deem and Ramdas Pophale) SiO2 
 PCOD9511614
Probable space group: F M M M
;
_chemical_formula_sum "Si O2"
_cell_formula_units_Z 176
_cell_length_a 22.417814
_cell_length_b 29.660693
_cell_length_c 14.267419
_cell_angle_alpha 90.000000
_cell_angle_beta 90.000000
_cell_angle_gamma 90.000000
_cell_volume 9486.804937
_symmetry_space_group_name_H-M "F M M M"
_symmetry_group_IT_number 69
_symmetry_cell_setting 'orthorhombic'
loop_
_space_group_symop_operation_xyz
x,y,z
-x,-y,z
x,-y,-z
-x,y,-z
-x,-y,-z
x,y,-z
-x,y,z
x,-y,z
x,1/2+y,1/2+z
-x,1/2-y,1/2+z
x,1/2-y,1/2-z
-x,1/2+y,1/2-z
-x,1/2-y,1/2-z
x,1/2+y,1/2-z
-x,1/2+y,1/2+z
x,1/2-y,1/2+z
1/2+x,y,1/2+z
1/2-x,-y,1/2+z
1/2+x,-y,1/2-z
1/2-x,y,1/2-z
1/2-x,-y,1/2-z
1/2+x,y,1/2-z
1/2-x,y,1/2+z
1/2+x,-y,1/2+z
1/2+x,1/2+y,z
1/2-x,1/2-y,z
1/2+x,1/2-y,-z
1/2-x,1/2+y,-z
1/2-x,1/2-y,-z
1/2+x,1/2+y,-z
1/2-x,1/2+y,z
1/2+x,1/2-y,z
loop_
_atom_site_type_symbol
_atom_site_label
_atom_site_fract_x
_atom_site_fract_y
_atom_site_fract_z
Si Si1 0.891940 0.895803 0.717669
Si Si2 0.000000 0.445670 0.113261
Si Si3 0.202983 0.950835 0.387418
Si Si4 0.323346 0.085133 0.606738
Si Si5 0.147676 0.797251 0.729504
Si Si6 0.238520 0.683373 0.607001
O O1 0.832344 0.911633 0.663637
O O2 0.878445 0.911895 0.823394
O O3 0.893654 0.841511 0.723175
O O4 0.944002 0.921182 0.662687
O O5 0.000000 0.500000 0.128261
O O6 0.000000 0.438665 0.000000
O O7 0.198967 0.944739 0.500000
O O8 0.272850 0.950089 0.363344
O O9 0.176788 0.000000 0.364833
O O10 0.341717 0.077230 0.500000
O O11 0.283801 0.131268 0.609245
O O12 0.114707 0.750000 0.750000
O O13 0.191834 0.796546 0.819533
O O14 0.195410 0.805087 0.644804
O O15 0.232282 0.698340 0.500000
#
# Coordination Sequence:
#
# PCOD9511614 Si02
#       6
#    32  16  32  32  32  32
#     4  11  21  37  57  78 110 152 186 235 290 334
#     4  11  26  46  66  87 107 137 191 246 291 347
#     4  10  19  31  52  83 115 147 185 232 289 348
#     4   9  18  32  52  82 117 150 186 227 277 340
#     4  10  20  31  48  80 113 147 191 229 269 334
#     4   9  16  29  48  75 117 157 185 221 270 325
#
# _framework density 18.552084000000001
#
# number of rings (size 3 to 8) (size 9 to 14) (size 15 to 20)
#    0.000    2.091    1.818    2.727    0.000    5.818 
#    0.000    0.909    0.000    0.545    0.000    0.000 
#    0.000    0.000    0.000    0.000    0.000    0.000 
#
# Total GULP energy -244977.903014 kJ/mol
# GULP energy per Si atom -5567.679614 kJ/mol
# Density = 1.850986 g / cm^3
# Si number density = 18.552084 Si / 1000 Ang^3
#
#
#
# Elastic Constant Matrix: (Units=GPa)
#
#
# Indices 1 2 3 4 5 6 
#
# 1 61.2897 27.0032 42.7442 0.0000 0.0000 0.0000
# 2 27.0032 122.7241 30.4031 0.0000 0.0000 0.0000
# 3 42.7442 30.4031 109.4728 0.0000 0.0000 0.0000
# 4 0.0000 0.0000 0.0000 14.5773 0.0000 0.0000
# 5 0.0000 0.0000 0.0000 0.0000 19.3319 0.0000
# 6 0.0000 0.0000 0.0000 0.0000 0.0000 14.9948
#
#
#
# Elastic Compliance Matrix: (Units=1/GPa)
#
#
# Indices 1 2 3 4 5 6 
#
# 1 0.023476 -0.003109 -0.008303 0.000000 0.000000 0.000000
# 2 -0.003109 0.009162 -0.001331 0.000000 0.000000 0.000000
# 3 -0.008303 -0.001331 0.012746 0.000000 0.000000 0.000000
# 4 0.000000 0.000000 0.000000 0.068600 0.000000 0.000000
# 5 0.000000 0.000000 0.000000 0.000000 0.051728 0.000000
# 6 0.000000 0.000000 0.000000 0.000000 0.000000 0.066690
#
#
# Mechanical properties :
#
#
# Convention : Reuss Voigt Hill
#
# Bulk Modulus (GPa) = 50.25201 54.86528 52.55865
# Shear Modulus (GPa) = 18.90214 22.66987 20.78600
#
# Velocity S-wave (km/s) = 3.19544 3.49944 3.35089
# Velocity P-wave (km/s) = 6.38437 6.77982 6.58507
#
# Compressibility (1/GPa) = 0.01989970
#
# Stress axis : x y z
#
# Youngs Moduli (GPa) = 42.59636 109.14634 78.45450
#
# Poissons Ratio (x) = 0.33929 0.65141
# Poissons Ratio (y) = 0.13241 0.10440
# Poissons Ratio (z) = 0.35368 0.14525
#
# Static dielectric constant tensor:
#      x y z
#    x 1.644960 0.000000 0.000000 
#    y 0.000000 1.762390 0.000000 
#    z 0.000000 0.000000 1.664300 
# 
# From -- ./inp_files/18281.got.cif
#   From: 2010.05.17/outbox.cif.g08.bks.cpg/sg69_10_cif.got.tgz:18281.got - 2010.06.03 19:29:58.
