data_PCOD9511943
_publ_section_title
;
Structure prediction by ZEFSAII (Michael W. Deem and Ramdas Pophale) SiO2 
 PCOD9511943
Probable space group: F M M M
;
_chemical_formula_sum "Si O2"
_cell_formula_units_Z 144
_cell_length_a 13.468789
_cell_length_b 18.684686
_cell_length_c 31.136257
_cell_angle_alpha 90.000000
_cell_angle_beta 90.000000
_cell_angle_gamma 90.000000
_cell_volume 7835.753341
_symmetry_space_group_name_H-M "F M M M"
_symmetry_group_IT_number 69
_symmetry_cell_setting 'orthorhombic'
loop_
_space_group_symop_operation_xyz
x,y,z
-x,-y,z
x,-y,-z
-x,y,-z
-x,-y,-z
x,y,-z
-x,y,z
x,-y,z
x,1/2+y,1/2+z
-x,1/2-y,1/2+z
x,1/2-y,1/2-z
-x,1/2+y,1/2-z
-x,1/2-y,1/2-z
x,1/2+y,1/2-z
-x,1/2+y,1/2+z
x,1/2-y,1/2+z
1/2+x,y,1/2+z
1/2-x,-y,1/2+z
1/2+x,-y,1/2-z
1/2-x,y,1/2-z
1/2-x,-y,1/2-z
1/2+x,y,1/2-z
1/2-x,y,1/2+z
1/2+x,-y,1/2+z
1/2+x,1/2+y,z
1/2-x,1/2-y,z
1/2+x,1/2-y,-z
1/2-x,1/2+y,-z
1/2-x,1/2-y,-z
1/2+x,1/2+y,-z
1/2-x,1/2+y,z
1/2+x,1/2-y,z
loop_
_atom_site_type_symbol
_atom_site_label
_atom_site_fract_x
_atom_site_fract_y
_atom_site_fract_z
Si Si1 0.274193 0.166787 0.811341
Si Si2 0.383923 0.915391 0.263918
Si Si3 0.000000 0.416326 0.952283
Si Si4 0.817408 0.842217 0.588800
Si Si5 0.614811 0.311589 0.051641
O O1 0.250000 0.250000 0.801890
O O2 0.349850 0.130957 0.777443
O O3 0.176229 0.119247 0.803175
O O4 0.310398 0.161869 0.859972
O O5 0.500000 0.908255 0.270357
O O6 0.361415 0.000000 0.258344
O O7 0.099020 0.395701 0.927145
O O8 0.000000 0.500000 0.957341
O O9 0.000000 0.381335 0.000000
O O10 0.707212 0.857302 0.570060
O O11 0.858055 0.766401 0.570588
O O12 0.500000 0.329997 0.062947
O O13 0.621395 0.309982 0.000000
#
# Coordination Sequence:
#
# PCOD9511943 Si02
#       5
#    32  32  16  32  32
#     4  11  22  37  58  91 118 146 194 250 302 355
#     4  10  23  42  62  80 112 161 199 238 299 369
#     4  11  24  40  60  88 125 168 207 247 296 359
#     4  11  21  36  56  89 122 153 195 247 300 354
#     4  10  19  34  59  85 118 160 195 238 297 359
#
# _framework density 18.377302
#
# number of rings (size 3 to 8) (size 9 to 14) (size 15 to 20)
#    0.000    1.444    3.333    5.333    1.556    4.444 
#    0.000    0.000    0.000    0.667    0.000    3.111 
#    0.000    0.000    0.000    0.000    0.000    0.000 
#
# Total GULP energy -200756.805060 kJ/mol
# GULP energy per Si atom -5576.577918 kJ/mol
# Density = 1.833547 g / cm^3
# Si number density = 18.377302 Si / 1000 Ang^3
#
#
#
# Elastic Constant Matrix: (Units=GPa)
#
#
# Indices 1 2 3 4 5 6 
#
# 1 145.2759 34.6594 24.8112 0.0000 0.0000 0.0000
# 2 34.6594 87.5766 32.3270 0.0000 0.0000 0.0000
# 3 24.8112 32.3270 95.8174 0.0000 0.0000 0.0000
# 4 0.0000 0.0000 0.0000 -30.6167 0.0000 0.0000
# 5 0.0000 0.0000 0.0000 0.0000 -55.1491 0.0000
# 6 0.0000 0.0000 0.0000 0.0000 0.0000 121.5641
#
#
#
# Elastic Compliance Matrix: (Units=1/GPa)
#
#
# Indices 1 2 3 4 5 6 
#
# 1 0.007702 -0.002641 -0.001103 0.000000 0.000000 0.000000
# 2 -0.002641 0.013948 -0.004022 0.000000 0.000000 0.000000
# 3 -0.001103 -0.004022 0.012079 0.000000 0.000000 0.000000
# 4 0.000000 0.000000 0.000000 -0.032662 0.000000 0.000000
# 5 0.000000 0.000000 0.000000 0.000000 -0.018133 0.000000
# 6 0.000000 0.000000 0.000000 0.000000 0.000000 0.008226
#
#
# Mechanical properties :
#
#
# Convention : Reuss Voigt Hill
#
# Bulk Modulus (GPa) = 54.95445 56.91834 55.93639
# Shear Modulus (GPa) = 391.86967 22.95115 207.41041
#
# Velocity S-wave (km/s) = 14.61843 3.53779 10.63519
# Velocity P-wave (km/s) = 17.74542 6.90849 13.46527
#
# Compressibility (1/GPa) = 0.01819689
#
# Stress axis : x y z
#
# Youngs Moduli (GPa) = 129.83741 71.69287 82.78684
#
# Poissons Ratio (x) = 0.18933 0.09135
# Poissons Ratio (y) = 0.34288 0.33298
# Poissons Ratio (z) = 0.14326 0.28836
#
# Static dielectric constant tensor:
#      x y z
#    x 1.682540 0.000000 0.000000 
#    y 0.000000 1.640250 0.000000 
#    z 0.000000 0.000000 1.621540 
# 
# From -- ./inp_files/45623.got.cif
#   From: 2010.05.17/outbox.cif.g08.bks.cpg/sg69_23_cif.got.tgz:45623.got - 2010.06.03 19:29:58.
