data_PCOD9511638
_publ_section_title
;
Structure prediction by ZEFSAII (Michael W. Deem and Ramdas Pophale) SiO2 
 PCOD9511638
Probable space group: F M M M
;
_chemical_formula_sum "Si O2"
_cell_formula_units_Z 208
_cell_length_a 18.540956
_cell_length_b 29.449376
_cell_length_c 23.928439
_cell_angle_alpha 90.000000
_cell_angle_beta 90.000000
_cell_angle_gamma 90.000000
_cell_volume 13065.396324
_symmetry_space_group_name_H-M "F M M M"
_symmetry_group_IT_number 69
_symmetry_cell_setting 'orthorhombic'
loop_
_space_group_symop_operation_xyz
x,y,z
-x,-y,z
x,-y,-z
-x,y,-z
-x,-y,-z
x,y,-z
-x,y,z
x,-y,z
x,1/2+y,1/2+z
-x,1/2-y,1/2+z
x,1/2-y,1/2-z
-x,1/2+y,1/2-z
-x,1/2-y,1/2-z
x,1/2+y,1/2-z
-x,1/2+y,1/2+z
x,1/2-y,1/2+z
1/2+x,y,1/2+z
1/2-x,-y,1/2+z
1/2+x,-y,1/2-z
1/2-x,y,1/2-z
1/2-x,-y,1/2-z
1/2+x,y,1/2-z
1/2-x,y,1/2+z
1/2+x,-y,1/2+z
1/2+x,1/2+y,z
1/2-x,1/2-y,z
1/2+x,1/2-y,-z
1/2-x,1/2+y,-z
1/2-x,1/2-y,-z
1/2+x,1/2+y,-z
1/2-x,1/2+y,z
1/2+x,1/2-y,z
loop_
_atom_site_type_symbol
_atom_site_label
_atom_site_fract_x
_atom_site_fract_y
_atom_site_fract_z
Si Si1 0.585583 0.000000 0.066182
Si Si2 0.914870 0.554319 0.258851
Si Si3 0.787791 0.607232 0.689861
Si Si4 0.643681 0.331271 0.435392
Si Si5 0.580459 0.266163 0.934744
Si Si6 0.356137 0.417992 0.637450
Si Si7 0.218956 0.797781 0.130384
O O1 0.620806 0.956656 0.094976
O O2 0.500000 0.000000 0.077920
O O3 0.595823 0.000000 0.000000
O O4 0.899746 0.500000 0.260307
O O5 0.863306 0.581289 0.301964
O O6 0.894772 0.572410 0.196692
O O7 0.000000 0.560912 0.269035
O O8 0.750000 0.605356 0.750000
O O9 0.729955 0.583382 0.648875
O O10 0.791168 0.659772 0.671512
O O11 0.645022 0.346856 0.500000
O O12 0.591189 0.288177 0.431407
O O13 0.624007 0.370391 0.391647
O O14 0.722152 0.312714 0.416206
O O15 0.500000 0.278757 0.917031
O O16 0.642979 0.287894 0.898366
O O17 0.589861 0.278281 0.000000
O O18 0.250000 0.750000 0.154540
#
# Coordination Sequence:
#
# PCOD9511638 Si02
#       7
#    16  32  32  32  32  32  32
#     4  11  22  32  45  70 101 129 154 185 230 278
#     4  10  20  34  52  72  97 126 161 206 254 296
#     4   9  20  33  51  74  92 123 165 205 243 287
#     4   9  17  30  47  68  95 128 162 192 227 282
#     4   9  17  28  45  70  97 126 158 193 235 282
#     4  10  19  32  50  69  95 128 160 194 233 283
#     4   9  17  31  49  69  95 126 159 199 244 285
#
# _framework density 15.919915
#
# number of rings (size 3 to 8) (size 9 to 14) (size 15 to 20)
#    0.000    2.538    0.769    1.385    1.077    4.923 
#    0.000    1.538    0.000    0.000    0.000    8.615 
#    0.000    0.615    0.000    0.000    0.000    0.000 
#
# Total GULP energy -289678.308398 kJ/mol
# GULP energy per Si atom -5570.736700 kJ/mol
# Density = 1.588368 g / cm^3
# Si number density = 15.919915 Si / 1000 Ang^3
#
#
#
# Elastic Constant Matrix: (Units=GPa)
#
#
# Indices 1 2 3 4 5 6 
#
# 1 97.7177 49.4462 27.7314 0.0000 0.0000 0.0000
# 2 49.4462 81.3695 32.2929 0.0000 0.0000 0.0000
# 3 27.7314 32.2929 42.5850 0.0000 0.0000 0.0000
# 4 0.0000 0.0000 0.0000 2.1474 0.0000 0.0000
# 5 0.0000 0.0000 0.0000 0.0000 18.5609 0.0000
# 6 0.0000 0.0000 0.0000 0.0000 0.0000 10.5609
#
#
#
# Elastic Compliance Matrix: (Units=1/GPa)
#
#
# Indices 1 2 3 4 5 6 
#
# 1 0.015276 -0.007632 -0.004161 0.000000 0.000000 0.000000
# 2 -0.007632 0.021393 -0.011253 0.000000 0.000000 0.000000
# 3 -0.004161 -0.011253 0.034725 0.000000 0.000000 0.000000
# 4 0.000000 0.000000 0.000000 0.465682 0.000000 0.000000
# 5 0.000000 0.000000 0.000000 0.000000 0.053877 0.000000
# 6 0.000000 0.000000 0.000000 0.000000 0.000000 0.094689
#
#
# Mechanical properties :
#
#
# Convention : Reuss Voigt Hill
#
# Bulk Modulus (GPa) = 39.51966 48.95702 44.23834
# Shear Modulus (GPa) = 6.75523 13.73395 10.24459
#
# Velocity S-wave (km/s) = 2.06215 2.94034 2.53950
# Velocity P-wave (km/s) = 5.52701 6.50741 6.03714
#
# Compressibility (1/GPa) = 0.02530386
#
# Stress axis : x y z
#
# Youngs Moduli (GPa) = 65.46223 46.74390 28.79753
#
# Poissons Ratio (x) = 0.35673 0.11981
# Poissons Ratio (y) = 0.49959 0.32406
# Poissons Ratio (z) = 0.27236 0.52601
#
# Static dielectric constant tensor:
#      x y z
#    x 1.535170 0.000000 0.000000 
#    y 0.000000 1.539550 0.000000 
#    z 0.000000 0.000000 1.514470 
# 
# From -- ./inp_files/27011.got.cif
#   From: 2010.05.17/outbox.cif.g08.bks.cpg/sg69_14_cif.got.tgz:27011.got - 2010.06.03 19:29:58.
