data_PCOD9511107
_publ_section_title
;
Structure prediction by ZEFSAII (Michael W. Deem and Ramdas Pophale) SiO2 
 PCOD9511107
Probable space group: F M M M
;
_chemical_formula_sum "Si O2"
_cell_formula_units_Z 160
_cell_length_a 21.476467
_cell_length_b 13.765703
_cell_length_c 19.945396
_cell_angle_alpha 90.000000
_cell_angle_beta 90.000000
_cell_angle_gamma 90.000000
_cell_volume 5896.630270
_symmetry_space_group_name_H-M "F M M M"
_symmetry_group_IT_number 69
_symmetry_cell_setting 'orthorhombic'
loop_
_space_group_symop_operation_xyz
x,y,z
-x,-y,z
x,-y,-z
-x,y,-z
-x,-y,-z
x,y,-z
-x,y,z
x,-y,z
x,1/2+y,1/2+z
-x,1/2-y,1/2+z
x,1/2-y,1/2-z
-x,1/2+y,1/2-z
-x,1/2-y,1/2-z
x,1/2+y,1/2-z
-x,1/2+y,1/2+z
x,1/2-y,1/2+z
1/2+x,y,1/2+z
1/2-x,-y,1/2+z
1/2+x,-y,1/2-z
1/2-x,y,1/2-z
1/2-x,-y,1/2-z
1/2+x,y,1/2-z
1/2-x,y,1/2+z
1/2+x,-y,1/2+z
1/2+x,1/2+y,z
1/2-x,1/2-y,z
1/2+x,1/2-y,-z
1/2-x,1/2+y,-z
1/2-x,1/2-y,-z
1/2+x,1/2+y,-z
1/2-x,1/2+y,z
1/2+x,1/2-y,z
loop_
_atom_site_type_symbol
_atom_site_label
_atom_site_fract_x
_atom_site_fract_y
_atom_site_fract_z
Si Si1 0.074012 0.116365 0.070836
Si Si2 0.598210 0.889218 0.000000
Si Si3 0.752174 0.364117 0.000000
Si Si4 0.623236 0.618507 0.788387
Si Si5 0.752558 0.889629 0.149647
Si Si6 0.388455 0.119770 0.857097
O O1 0.093944 0.154963 0.142825
O O2 0.000000 0.125616 0.068329
O O3 0.087122 0.000000 0.071313
O O4 0.100076 0.155855 0.000000
O O5 0.674536 0.894692 0.000000
O O6 0.580985 0.847205 0.072939
O O7 0.574924 0.000000 0.000000
O O8 0.750000 0.250000 0.000000
O O9 0.723697 0.393270 0.927957
O O10 0.621403 0.500000 0.789207
O O11 0.695604 0.646539 0.799053
O O12 0.591861 0.646378 0.718208
O O13 0.683974 0.846230 0.142787
O O14 0.740882 0.000000 0.170338
O O15 0.390190 0.000000 0.860788
#
# Coordination Sequence:
#
# PCOD9511107 Si02
#       6
#    32  16  16  32  32  32
#     4   8  14  23  32  47  77 111 135 159 200 248
#     4   8  14  26  42  54  73 101 129 160 200 239
#     4  10  18  26  36  52  77 109 137 161 194 235
#     4   9  15  21  36  57  75  99 137 172 197 229
#     4   9  16  25  38  55  77 104 137 173 201 228
#     4   8  13  22  35  55  75  95 126 167 201 227
#
# _framework density 27.134141
#
# number of rings (size 3 to 8) (size 9 to 14) (size 15 to 20)
#    0.000    3.400    0.000    3.300    1.400    2.400 
#    0.000    0.000    0.000    9.600    0.000    0.700 
#    0.000    5.600    0.000   21.600    0.000   28.800 
#
# Total GULP energy -223421.653676 kJ/mol
# GULP energy per Si atom -5585.541342 kJ/mol
# Density = 2.707238 g / cm^3
# Si number density = 27.134141 Si / 1000 Ang^3
#
#
#
# Elastic Constant Matrix: (Units=GPa)
#
#
# Indices 1 2 3 4 5 6 
#
# 1 40.1656 0.2268 31.3784 0.0000 0.0000 0.0000
# 2 0.2268 107.7262 28.4798 0.0000 0.0000 0.0000
# 3 31.3784 28.4798 313.2244 0.0000 0.0000 0.0000
# 4 0.0000 0.0000 0.0000 41.6713 0.0000 0.0000
# 5 0.0000 0.0000 0.0000 0.0000 22.4904 0.0000
# 6 0.0000 0.0000 0.0000 0.0000 0.0000 -158.2480
#
#
#
# Elastic Compliance Matrix: (Units=1/GPa)
#
#
# Indices 1 2 3 4 5 6 
#
# 1 0.027059 0.000676 -0.002772 0.000000 0.000000 0.000000
# 2 0.000676 0.009528 -0.000934 0.000000 0.000000 0.000000
# 3 -0.002772 -0.000934 0.003555 0.000000 0.000000 0.000000
# 4 0.000000 0.000000 0.000000 0.023997 0.000000 0.000000
# 5 0.000000 0.000000 0.000000 0.000000 0.044463 0.000000
# 6 0.000000 0.000000 0.000000 0.000000 0.000000 -0.006319
#
#
# Mechanical properties :
#
#
# Convention : Reuss Voigt Hill
#
# Bulk Modulus (GPa) = 29.34126 64.58736 46.96431
# Shear Modulus (GPa) = 41.76932 7.91816 24.84374
#
# Velocity S-wave (km/s) = 3.92773 1.71011 3.02915
# Velocity P-wave (km/s) = 5.60413 5.26820 5.43876
#
# Compressibility (1/GPa) = 0.03408170
#
# Stress axis : x y z
#
# Youngs Moduli (GPa) = 36.95658 104.95039 281.27478
#
# Poissons Ratio (x) = -0.07094 0.77974
# Poissons Ratio (y) = -0.02498 0.26273
# Poissons Ratio (z) = 0.10245 0.09803
#
# Static dielectric constant tensor:
#      x y z
#    x 2.063660 0.000000 0.000000 
#    y 0.000000 2.145710 0.000000 
#    z 0.000000 0.000000 2.197250 
# 
# From -- ./inp_files/27863.got.cif
#   From: 2010.05.17/outbox.cif.g08.bks.cpg/sg69_14_cif.got.tgz:27863.got - 2010.06.03 19:29:58.
