data_PCOD9511089
_publ_section_title
;
Structure prediction by ZEFSAII (Michael W. Deem and Ramdas Pophale) SiO2 
 PCOD9511089
Probable space group: F M M M
;
_chemical_formula_sum "Si O2"
_cell_formula_units_Z 136
_cell_length_a 17.497109
_cell_length_b 22.159949
_cell_length_c 15.972583
_cell_angle_alpha 90.000000
_cell_angle_beta 90.000000
_cell_angle_gamma 90.000000
_cell_volume 6193.130158
_symmetry_space_group_name_H-M "F M M M"
_symmetry_group_IT_number 69
_symmetry_cell_setting 'orthorhombic'
loop_
_space_group_symop_operation_xyz
x,y,z
-x,-y,z
x,-y,-z
-x,y,-z
-x,-y,-z
x,y,-z
-x,y,z
x,-y,z
x,1/2+y,1/2+z
-x,1/2-y,1/2+z
x,1/2-y,1/2-z
-x,1/2+y,1/2-z
-x,1/2-y,1/2-z
x,1/2+y,1/2-z
-x,1/2+y,1/2+z
x,1/2-y,1/2+z
1/2+x,y,1/2+z
1/2-x,-y,1/2+z
1/2+x,-y,1/2-z
1/2-x,y,1/2-z
1/2-x,-y,1/2-z
1/2+x,y,1/2-z
1/2-x,y,1/2+z
1/2+x,-y,1/2+z
1/2+x,1/2+y,z
1/2-x,1/2-y,z
1/2+x,1/2-y,-z
1/2-x,1/2+y,-z
1/2-x,1/2-y,-z
1/2+x,1/2+y,-z
1/2-x,1/2+y,z
1/2+x,1/2-y,z
loop_
_atom_site_type_symbol
_atom_site_label
_atom_site_fract_x
_atom_site_fract_y
_atom_site_fract_z
Si Si1 0.912762 0.338915 0.398773
Si Si2 0.500000 0.637712 0.595109
Si Si3 0.353538 0.206667 0.898432
Si Si4 0.260806 0.890115 0.653428
Si Si5 0.661079 0.500000 0.594963
Si Si6 0.000000 0.000000 0.367824
O O1 0.914100 0.339240 0.500000
O O2 0.880888 0.273052 0.373017
O O3 0.849769 0.386548 0.369432
O O4 0.000000 0.347732 0.369374
O O5 0.500000 0.661975 0.500000
O O6 0.577792 0.663183 0.632092
O O7 0.500000 0.566449 0.593007
O O8 0.277168 0.175253 0.865577
O O9 0.346485 0.206256 0.000000
O O10 0.250000 0.903987 0.750000
O O11 0.213302 0.940907 0.604498
O O12 0.628697 0.500000 0.500000
O O13 0.590118 0.500000 0.660623
#
# Coordination Sequence:
#
# PCOD9511089 Si02
#       6
#    32  16  32  32  16   8
#     4  10  21  41  67  93 124 169 225 271 303 360
#     4  10  17  30  56  96 122 144 194 260 320 363
#     4  10  19  36  64  93 123 161 211 263 306 361
#     4  12  26  42  59  91 133 168 206 254 330 393
#     4  12  24  43  70  94 119 158 212 269 315 378
#     4  12  21  34  66 100 120 144 197 270 335 370
#
# _framework density 21.959816
#
# number of rings (size 3 to 8) (size 9 to 14) (size 15 to 20)
#    0.000    1.176    3.529    4.235    0.000    3.765 
#    4.235    1.765    0.000    2.118    0.000    0.000 
#    0.000    0.000    0.000    0.000    0.000    0.000 
#
# Total GULP energy -189767.404493 kJ/mol
# GULP energy per Si atom -5581.394250 kJ/mol
# Density = 2.190983 g / cm^3
# Si number density = 21.959816 Si / 1000 Ang^3
#
#
#
# Elastic Constant Matrix: (Units=GPa)
#
#
# Indices 1 2 3 4 5 6 
#
# 1 203.9590 57.0429 10.6471 0.0000 0.0000 0.0000
# 2 57.0429 71.8137 5.6593 0.0000 0.0000 0.0000
# 3 10.6471 5.6593 21.4537 0.0000 0.0000 0.0000
# 4 0.0000 0.0000 0.0000 16.1565 0.0000 0.0000
# 5 0.0000 0.0000 0.0000 0.0000 23.9125 0.0000
# 6 0.0000 0.0000 0.0000 0.0000 0.0000 34.3064
#
#
#
# Elastic Compliance Matrix: (Units=1/GPa)
#
#
# Indices 1 2 3 4 5 6 
#
# 1 0.006376 -0.004917 -0.001867 0.000000 0.000000 0.000000
# 2 -0.004917 0.018013 -0.002311 0.000000 0.000000 0.000000
# 3 -0.001867 -0.002311 0.048148 0.000000 0.000000 0.000000
# 4 0.000000 0.000000 0.000000 0.061895 0.000000 0.000000
# 5 0.000000 0.000000 0.000000 0.000000 0.041819 0.000000
# 6 0.000000 0.000000 0.000000 0.000000 0.000000 0.029149
#
#
# Mechanical properties :
#
#
# Convention : Reuss Voigt Hill
#
# Bulk Modulus (GPa) = 18.40068 49.32500 33.86284
# Shear Modulus (GPa) = 20.68630 29.80022 25.24326
#
# Velocity S-wave (km/s) = 3.07254 3.68779 3.39414
# Velocity P-wave (km/s) = 4.58092 6.37521 5.55104
#
# Compressibility (1/GPa) = 0.05434581
#
# Stress axis : x y z
#
# Youngs Moduli (GPa) = 156.84740 55.51595 20.76914
#
# Poissons Ratio (x) = 0.27298 0.03878
# Poissons Ratio (y) = 0.77124 0.04800
# Poissons Ratio (z) = 0.29284 0.12832
#
# Static dielectric constant tensor:
#      x y z
#    x 1.852390 0.000000 0.000000 
#    y 0.000000 1.788500 0.000000 
#    z 0.000000 0.000000 1.790220 
# 
# From -- ./inp_files/22630.got.cif
#   From: 2010.05.17/outbox.cif.g08.bks.cpg/sg69_12_cif.got.tgz:22630.got - 2010.06.03 19:29:58.
