data_PCOD9511588
_publ_section_title
;
Structure prediction by ZEFSAII (Michael W. Deem and Ramdas Pophale) SiO2 
 PCOD9511588
Probable space group: F M M M
;
_chemical_formula_sum "Si O2"
_cell_formula_units_Z 192
_cell_length_a 30.216935
_cell_length_b 19.441615
_cell_length_c 19.458062
_cell_angle_alpha 90.000000
_cell_angle_beta 90.000000
_cell_angle_gamma 90.000000
_cell_volume 11430.950177
_symmetry_space_group_name_H-M "F M M M"
_symmetry_group_IT_number 69
_symmetry_cell_setting 'orthorhombic'
loop_
_space_group_symop_operation_xyz
x,y,z
-x,-y,z
x,-y,-z
-x,y,-z
-x,-y,-z
x,y,-z
-x,y,z
x,-y,z
x,1/2+y,1/2+z
-x,1/2-y,1/2+z
x,1/2-y,1/2-z
-x,1/2+y,1/2-z
-x,1/2-y,1/2-z
x,1/2+y,1/2-z
-x,1/2+y,1/2+z
x,1/2-y,1/2+z
1/2+x,y,1/2+z
1/2-x,-y,1/2+z
1/2+x,-y,1/2-z
1/2-x,y,1/2-z
1/2-x,-y,1/2-z
1/2+x,y,1/2-z
1/2-x,y,1/2+z
1/2+x,-y,1/2+z
1/2+x,1/2+y,z
1/2-x,1/2-y,z
1/2+x,1/2-y,-z
1/2-x,1/2+y,-z
1/2-x,1/2-y,-z
1/2+x,1/2+y,-z
1/2-x,1/2+y,z
1/2+x,1/2-y,z
loop_
_atom_site_type_symbol
_atom_site_label
_atom_site_fract_x
_atom_site_fract_y
_atom_site_fract_z
Si Si1 0.948226 0.581676 0.842539
Si Si2 0.124280 0.326163 0.918773
Si Si3 0.552441 0.422803 0.179947
Si Si4 0.889387 0.336166 0.419368
Si Si5 0.198222 0.578060 0.583259
Si Si6 0.725796 0.821325 0.916131
O O1 0.943274 0.500000 0.857371
O O2 0.912064 0.626809 0.881870
O O3 0.940903 0.590787 0.760782
O O4 0.000000 0.599632 0.857542
O O5 0.112979 0.245575 0.911734
O O6 0.175191 0.331633 0.893440
O O7 0.123881 0.343020 0.000000
O O8 0.500000 0.422850 0.168873
O O9 0.569373 0.500000 0.164647
O O10 0.574844 0.368716 0.130449
O O11 0.898041 0.351429 0.500000
O O12 0.842940 0.372559 0.400647
O O13 0.199748 0.575132 0.500000
O O14 0.193221 0.500000 0.608583
O O15 0.243088 0.615666 0.605488
O O16 0.750000 0.750000 0.895080
O O17 0.724460 0.818763 0.000000
#
# Coordination Sequence:
#
# PCOD9511588 Si02
#       6
#    32  32  32  32  32  32
#     4   9  20  39  57  73  99 137 181 225 267 313
#     4  10  20  32  52  80 107 137 173 213 263 313
#     4   9  19  36  55  73  98 136 176 213 259 314
#     4  10  19  31  49  78 110 135 164 210 263 314
#     4   9  16  26  44  71 101 134 169 203 247 306
#     4   9  15  28  47  69 103 139 167 206 257 304
#
# _framework density 16.796503999999999
#
# number of rings (size 3 to 8) (size 9 to 14) (size 15 to 20)
#    0.000    2.667    1.667    1.500    0.000    4.000 
#    0.000    6.667    0.000    1.000    0.000    3.500 
#    0.000    0.000    0.000    0.000    0.000    0.000 
#
# Total GULP energy -267400.408052 kJ/mol
# GULP energy per Si atom -5570.841834 kJ/mol
# Density = 1.675827 g / cm^3
# Si number density = 16.796504 Si / 1000 Ang^3
#
#
#
# Elastic Constant Matrix: (Units=GPa)
#
#
# Indices 1 2 3 4 5 6 
#
# 1 123.9637 75.6739 55.0928 0.0000 0.0000 0.0000
# 2 75.6739 96.3305 43.2299 0.0000 0.0000 0.0000
# 3 55.0928 43.2299 31.8692 0.0000 0.0000 0.0000
# 4 0.0000 0.0000 0.0000 7.2656 0.0000 0.0000
# 5 0.0000 0.0000 0.0000 0.0000 -41.1094 0.0000
# 6 0.0000 0.0000 0.0000 0.0000 0.0000 35.9256
#
#
#
# Elastic Compliance Matrix: (Units=1/GPa)
#
#
# Indices 1 2 3 4 5 6 
#
# 1 0.034842 -0.000871 -0.059051 0.000000 0.000000 0.000000
# 2 -0.000871 0.026554 -0.034514 0.000000 0.000000 0.000000
# 3 -0.059051 -0.034514 0.180279 0.000000 0.000000 0.000000
# 4 0.000000 0.000000 0.000000 0.137634 0.000000 0.000000
# 5 0.000000 0.000000 0.000000 0.000000 -0.024325 0.000000
# 6 0.000000 0.000000 0.000000 0.000000 0.000000 0.027835
#
#
# Mechanical properties :
#
#
# Convention : Reuss Voigt Hill
#
# Bulk Modulus (GPa) = 18.93858 66.68406 42.81132
# Shear Modulus (GPa) = 8.48473 5.62748 7.05611
#
# Velocity S-wave (km/s) = 2.24999 1.83239 2.05184
# Velocity P-wave (km/s) = 4.24850 6.65314 5.58184
#
# Compressibility (1/GPa) = 0.05280227
#
# Stress axis : x y z
#
# Youngs Moduli (GPa) = 28.70062 37.65928 5.54695
#
# Poissons Ratio (x) = 0.03279 0.32756
# Poissons Ratio (y) = 0.02499 0.19145
# Poissons Ratio (z) = 1.69481 1.29979
#
# Static dielectric constant tensor:
#      x y z
#    x 1.571770 0.000000 0.000000 
#    y 0.000000 1.568950 0.000000 
#    z 0.000000 0.000000 1.550050 
# 
# From -- ./inp_files/32109.got.cif
#   From: 2010.05.17/outbox.cif.g08.bks.cpg/sg69_17_cif.got.tgz:32109.got - 2010.06.03 19:29:58.
