data_PCOD9511311
_publ_section_title
;
Structure prediction by ZEFSAII (Michael W. Deem and Ramdas Pophale) SiO2 
 PCOD9511311
Probable space group: F M M M
;
_chemical_formula_sum "Si O2"
_cell_formula_units_Z 100
_cell_length_a 8.876929
_cell_length_b 25.168419
_cell_length_c 23.362508
_cell_angle_alpha 90.000000
_cell_angle_beta 90.000000
_cell_angle_gamma 90.000000
_cell_volume 5219.611085
_symmetry_space_group_name_H-M "F M M M"
_symmetry_group_IT_number 69
_symmetry_cell_setting 'orthorhombic'
loop_
_space_group_symop_operation_xyz
x,y,z
-x,-y,z
x,-y,-z
-x,y,-z
-x,-y,-z
x,y,-z
-x,y,z
x,-y,z
x,1/2+y,1/2+z
-x,1/2-y,1/2+z
x,1/2-y,1/2-z
-x,1/2+y,1/2-z
-x,1/2-y,1/2-z
x,1/2+y,1/2-z
-x,1/2+y,1/2+z
x,1/2-y,1/2+z
1/2+x,y,1/2+z
1/2-x,-y,1/2+z
1/2+x,-y,1/2-z
1/2-x,y,1/2-z
1/2-x,-y,1/2-z
1/2+x,y,1/2-z
1/2-x,y,1/2+z
1/2+x,-y,1/2+z
1/2+x,1/2+y,z
1/2-x,1/2-y,z
1/2+x,1/2-y,-z
1/2-x,1/2+y,-z
1/2-x,1/2-y,-z
1/2+x,1/2+y,-z
1/2-x,1/2+y,z
1/2+x,1/2-y,z
loop_
_atom_site_type_symbol
_atom_site_label
_atom_site_fract_x
_atom_site_fract_y
_atom_site_fract_z
Si Si1 0.666062 0.000000 0.381251
Si Si2 0.321495 0.090602 0.811531
Si Si3 0.180828 0.809527 0.000000
Si Si4 0.320320 0.691778 0.616869
Si Si5 0.000000 0.000000 0.000000
O O1 0.752962 0.051311 0.358605
O O2 0.500000 0.000000 0.352785
O O3 0.629141 0.000000 0.448532
O O4 0.500000 0.082865 0.808660
O O5 0.250000 0.079971 0.750000
O O6 0.292292 0.150958 0.831987
O O7 0.250000 0.750000 0.000000
O O8 0.244424 0.832092 0.059243
O O9 0.000000 0.809202 0.000000
O O10 0.500000 0.697184 0.607668
O O11 0.250000 0.750000 0.626909
#
# Coordination Sequence:
#
# PCOD9511311 Si02
#       5
#    16  32  16  32   4
#     4  10  22  44  68  94 127 156 208 255 320 379
#     4  11  24  41  64  93 126 172 217 263 316 379
#     4  10  18  31  54  81 113 158 206 259 315 371
#     4  10  21  37  57  86 125 166 217 265 320 374
#     4   8  24  44  70 100 128 156 202 258 320 382
#
# _framework density 19.158515000000001
#
# number of rings (size 3 to 8) (size 9 to 14) (size 15 to 20)
#    0.480    1.280    0.000    6.240    0.000    7.040 
#    2.880    6.400    0.000    0.000    0.000    0.000 
#    0.000    0.000    0.000    0.000    0.000    0.000 
#
# Total GULP energy -139235.083057 kJ/mol
# GULP energy per Si atom -5569.403322 kJ/mol
# Density = 1.911491 g / cm^3
# Si number density = 19.158515 Si / 1000 Ang^3
#
#
#
# Elastic Constant Matrix: (Units=GPa)
#
#
# Indices 1 2 3 4 5 6 
#
# 1 106.5504 51.0878 57.8764 0.0000 0.0000 0.0000
# 2 51.0878 86.3798 50.8664 0.0000 0.0000 0.0000
# 3 57.8764 50.8664 149.6945 0.0000 0.0000 0.0000
# 4 0.0000 0.0000 0.0000 11.8618 0.0000 0.0000
# 5 0.0000 0.0000 0.0000 0.0000 28.6625 0.0000
# 6 0.0000 0.0000 0.0000 0.0000 0.0000 24.7940
#
#
#
# Elastic Compliance Matrix: (Units=1/GPa)
#
#
# Indices 1 2 3 4 5 6 
#
# 1 0.014309 -0.006507 -0.003321 0.000000 0.000000 0.000000
# 2 -0.006507 0.017432 -0.003408 0.000000 0.000000 0.000000
# 3 -0.003321 -0.003408 0.009122 0.000000 0.000000 0.000000
# 4 0.000000 0.000000 0.000000 0.084304 0.000000 0.000000
# 5 0.000000 0.000000 0.000000 0.000000 0.034889 0.000000
# 6 0.000000 0.000000 0.000000 0.000000 0.000000 0.040332
#
#
# Mechanical properties :
#
#
# Convention : Reuss Voigt Hill
#
# Bulk Modulus (GPa) = 69.48526 73.58733 71.53629
# Shear Modulus (GPa) = 21.58353 25.24993 23.41673
#
# Velocity S-wave (km/s) = 3.36009 3.63429 3.49988
# Velocity P-wave (km/s) = 7.16945 7.49025 7.33161
#
# Compressibility (1/GPa) = 0.01439154
#
# Stress axis : x y z
#
# Youngs Moduli (GPa) = 69.88474 57.36600 109.62211
#
# Poissons Ratio (x) = 0.37329 0.36408
# Poissons Ratio (y) = 0.45475 0.37354
# Poissons Ratio (z) = 0.23210 0.19548
#
# Static dielectric constant tensor:
#      x y z
#    x 1.645250 0.000000 0.000000 
#    y 0.000000 1.696840 0.000000 
#    z 0.000000 0.000000 1.680530 
# 
# From -- ./inp_files/4358.got.cif
#   From: 2010.05.17/outbox.cif.g08.bks.cpg/sg69_3_cif.got.tgz:4358.got - 2010.06.03 19:29:58.
