data_PCOD9511739
_publ_section_title
;
Structure prediction by ZEFSAII (Michael W. Deem and Ramdas Pophale) SiO2 
 PCOD9511739
Probable space group: F M M M
;
_chemical_formula_sum "Si O2"
_cell_formula_units_Z 144
_cell_length_a 33.070303
_cell_length_b 14.081572
_cell_length_c 16.934933
_cell_angle_alpha 90.000000
_cell_angle_beta 90.000000
_cell_angle_gamma 90.000000
_cell_volume 7886.290976
_symmetry_space_group_name_H-M "F M M M"
_symmetry_group_IT_number 69
_symmetry_cell_setting 'orthorhombic'
loop_
_space_group_symop_operation_xyz
x,y,z
-x,-y,z
x,-y,-z
-x,y,-z
-x,-y,-z
x,y,-z
-x,y,z
x,-y,z
x,1/2+y,1/2+z
-x,1/2-y,1/2+z
x,1/2-y,1/2-z
-x,1/2+y,1/2-z
-x,1/2-y,1/2-z
x,1/2+y,1/2-z
-x,1/2+y,1/2+z
x,1/2-y,1/2+z
1/2+x,y,1/2+z
1/2-x,-y,1/2+z
1/2+x,-y,1/2-z
1/2-x,y,1/2-z
1/2-x,-y,1/2-z
1/2+x,y,1/2-z
1/2-x,y,1/2+z
1/2+x,-y,1/2+z
1/2+x,1/2+y,z
1/2-x,1/2-y,z
1/2+x,1/2-y,-z
1/2-x,1/2+y,-z
1/2-x,1/2-y,-z
1/2+x,1/2+y,-z
1/2-x,1/2+y,z
1/2+x,1/2-y,z
loop_
_atom_site_type_symbol
_atom_site_label
_atom_site_fract_x
_atom_site_fract_y
_atom_site_fract_z
Si Si1 0.456828 0.500000 0.214907
Si Si2 0.370358 0.000000 0.301133
Si Si3 0.044290 0.712425 0.660027
Si Si4 0.127727 0.688091 0.408037
Si Si5 0.790443 0.500000 0.197417
Si Si6 0.793389 0.286922 0.158144
O O1 0.500000 0.500000 0.260470
O O2 0.411765 0.500000 0.250922
O O3 0.457242 0.402696 0.165044
O O4 0.370311 0.093169 0.355371
O O5 0.330172 0.000000 0.251006
O O6 0.047884 0.750000 0.750000
O O7 0.085052 0.738051 0.614215
O O8 0.000000 0.744421 0.629896
O O9 0.127670 0.664660 0.500000
O O10 0.167211 0.748307 0.385691
O O11 0.750000 0.500000 0.250000
O O12 0.791545 0.400381 0.152981
O O13 0.796572 0.250000 0.250000
O O14 0.750000 0.250000 0.128533
#
# Coordination Sequence:
#
# PCOD9511739 Si02
#       6
#    16  16  32  32  16  32
#     4   8  16  29  47  76 105 131 169 223 278 310
#     4  10  19  32  56  78 106 145 182 229 268 325
#     4   9  18  33  54  78 106 141 186 230 269 315
#     4  11  22  35  52  80 117 149 180 220 277 336
#     4  12  20  35  60  86 105 134 186 233 273 317
#     4  11  21  37  59  83 108 140 182 231 272 318
#
# _framework density 18.259535
#
# number of rings (size 3 to 8) (size 9 to 14) (size 15 to 20)
#    0.000    1.778    4.444    1.000    3.111    0.889 
#    0.000    0.556    0.000    6.667    0.000    0.000 
#    0.000    6.222    0.000    0.000    0.000    0.000 
#
# Total GULP energy -200489.335402 kJ/mol
# GULP energy per Si atom -5569.148206 kJ/mol
# Density = 1.821798 g / cm^3
# Si number density = 18.259535 Si / 1000 Ang^3
#
#
#
# Elastic Constant Matrix: (Units=GPa)
#
#
# Indices 1 2 3 4 5 6 
#
# 1 222.7787 45.4143 37.9455 0.0000 0.0000 0.0000
# 2 45.4143 104.6265 13.9662 0.0000 0.0000 0.0000
# 3 37.9455 13.9662 24.3136 0.0000 0.0000 0.0000
# 4 0.0000 0.0000 0.0000 -11.7989 0.0000 0.0000
# 5 0.0000 0.0000 0.0000 0.0000 3.5883 0.0000
# 6 0.0000 0.0000 0.0000 0.0000 0.0000 25.3850
#
#
#
# Elastic Compliance Matrix: (Units=1/GPa)
#
#
# Indices 1 2 3 4 5 6 
#
# 1 0.006338 -0.001549 -0.009001 0.000000 0.000000 0.000000
# 2 -0.001549 0.010730 -0.003746 0.000000 0.000000 0.000000
# 3 -0.009001 -0.003746 0.057328 0.000000 0.000000 0.000000
# 4 0.000000 0.000000 0.000000 -0.084753 0.000000 0.000000
# 5 0.000000 0.000000 0.000000 0.000000 0.278687 0.000000
# 6 0.000000 0.000000 0.000000 0.000000 0.000000 0.039393
#
#
# Mechanical properties :
#
#
# Convention : Reuss Voigt Hill
#
# Bulk Modulus (GPa) = 21.83201 60.70788 41.26994
# Shear Modulus (GPa) = 14.22138 20.39438 17.30788
#
# Velocity S-wave (km/s) = 2.79381 3.34566 3.08211
# Velocity P-wave (km/s) = 4.73177 6.94579 5.94279
#
# Compressibility (1/GPa) = 0.04580431
#
# Stress axis : x y z
#
# Youngs Moduli (GPa) = 157.78437 93.19367 17.44337
#
# Poissons Ratio (x) = 0.14440 0.15701
# Poissons Ratio (y) = 0.24448 0.06533
# Poissons Ratio (z) = 1.42023 0.34906
#
# Static dielectric constant tensor:
#      x y z
#    x 1.690420 0.000000 0.000000 
#    y 0.000000 1.689040 0.000000 
#    z 0.000000 0.000000 1.588420 
# 
# From -- ./inp_files/27433.got.cif
#   From: 2010.05.17/outbox.cif.g08.bks.cpg/sg69_14_cif.got.tgz:27433.got - 2010.06.03 19:29:58.
