data_PCOD9511728
_publ_section_title
;
Structure prediction by ZEFSAII (Michael W. Deem and Ramdas Pophale) SiO2 
 PCOD9511728
Probable space group: F M M M
;
_chemical_formula_sum "Si O2"
_cell_formula_units_Z 168
_cell_length_a 28.277477
_cell_length_b 14.088416
_cell_length_c 19.211729
_cell_angle_alpha 90.000000
_cell_angle_beta 90.000000
_cell_angle_gamma 90.000000
_cell_volume 7653.661957
_symmetry_space_group_name_H-M "F M M M"
_symmetry_group_IT_number 69
_symmetry_cell_setting 'orthorhombic'
loop_
_space_group_symop_operation_xyz
x,y,z
-x,-y,z
x,-y,-z
-x,y,-z
-x,-y,-z
x,y,-z
-x,y,z
x,-y,z
x,1/2+y,1/2+z
-x,1/2-y,1/2+z
x,1/2-y,1/2-z
-x,1/2+y,1/2-z
-x,1/2-y,1/2-z
x,1/2+y,1/2-z
-x,1/2+y,1/2+z
x,1/2-y,1/2+z
1/2+x,y,1/2+z
1/2-x,-y,1/2+z
1/2+x,-y,1/2-z
1/2-x,y,1/2-z
1/2-x,-y,1/2-z
1/2+x,y,1/2-z
1/2-x,y,1/2+z
1/2+x,-y,1/2+z
1/2+x,1/2+y,z
1/2-x,1/2-y,z
1/2+x,1/2-y,-z
1/2-x,1/2+y,-z
1/2-x,1/2-y,-z
1/2+x,1/2+y,-z
1/2-x,1/2+y,z
1/2+x,1/2-y,z
loop_
_atom_site_type_symbol
_atom_site_label
_atom_site_fract_x
_atom_site_fract_y
_atom_site_fract_z
Si Si1 0.000000 0.848041 0.500000
Si Si2 0.341528 0.690024 0.386399
Si Si3 0.751480 0.108538 0.670464
Si Si4 0.857013 0.604579 0.379030
Si Si5 0.401363 0.111810 0.230430
Si Si6 0.500000 0.611067 0.666449
Si Si7 0.902539 0.604939 0.000000
O O1 0.000000 0.881913 0.582512
O O2 0.944753 0.818496 0.500000
O O3 0.286142 0.668760 0.378530
O O4 0.356641 0.793037 0.415106
O O5 0.361724 0.671581 0.309389
O O6 0.369031 0.616149 0.434275
O O7 0.750000 0.142363 0.750000
O O8 0.697381 0.103208 0.646927
O O9 0.770577 0.000000 0.671253
O O10 0.865961 0.500000 0.411462
O O11 0.891902 0.614087 0.312724
O O12 0.451795 0.147922 0.201651
O O13 0.396564 0.000000 0.211338
O O14 0.500000 0.500000 0.683930
O O15 0.925854 0.500000 0.000000
#
# Coordination Sequence:
#
# PCOD9511728 Si02
#       7
#     8  32  32  32  32  16  16
#     4  12  21  36  58  86 125 166 197 234 298 370
#     4  12  22  36  58  88 118 156 196 243 295 351
#     4  10  19  33  57  87 118 151 191 242 295 353
#     4  10  22  38  56  82 117 157 200 244 293 349
#     4  10  19  33  55  86 119 150 189 240 300 357
#     4  10  19  32  54  84 123 161 192 240 304 365
#     4  12  25  40  62  90 123 155 191 243 297 360
#
# _framework density 21.950275999999999
#
# number of rings (size 3 to 8) (size 9 to 14) (size 15 to 20)
#    0.000    1.333    3.810    3.714    0.000    0.762 
#    0.000    5.238    0.000    2.286    0.000    0.667 
#    0.000    0.000    0.000    0.000    0.000    0.000 
#
# Total GULP energy -234026.047866 kJ/mol
# GULP energy per Si atom -5572.048759 kJ/mol
# Density = 2.190032 g / cm^3
# Si number density = 21.950276 Si / 1000 Ang^3
#
#
#
# Elastic Constant Matrix: (Units=GPa)
#
#
# Indices 1 2 3 4 5 6 
#
# 1 125.0236 2.2418 30.3559 0.0000 0.0000 0.0000
# 2 2.2418 114.8309 13.1539 0.0000 0.0000 0.0000
# 3 30.3559 13.1539 61.0665 0.0000 0.0000 0.0000
# 4 0.0000 0.0000 0.0000 -1.6728 0.0000 0.0000
# 5 0.0000 0.0000 0.0000 0.0000 70.4012 0.0000
# 6 0.0000 0.0000 0.0000 0.0000 0.0000 -25.8531
#
#
#
# Elastic Compliance Matrix: (Units=1/GPa)
#
#
# Indices 1 2 3 4 5 6 
#
# 1 0.009110 0.000350 -0.004604 0.000000 0.000000 0.000000
# 2 0.000350 0.008942 -0.002100 0.000000 0.000000 0.000000
# 3 -0.004604 -0.002100 0.019116 0.000000 0.000000 0.000000
# 4 0.000000 0.000000 0.000000 -0.597799 0.000000 0.000000
# 5 0.000000 0.000000 0.000000 0.000000 0.014204 0.000000
# 6 0.000000 0.000000 0.000000 0.000000 0.000000 -0.038680
#
#
# Mechanical properties :
#
#
# Convention : Reuss Voigt Hill
#
# Bulk Modulus (GPa) = 40.88271 43.60266 42.24269
# Shear Modulus (GPa) = -8.86140 25.58636 8.36248
#
# Velocity S-wave (km/s) = -2.01142 3.41787 1.95397
# Velocity P-wave (km/s) = 3.64296 5.95677 4.93732
#
# Compressibility (1/GPa) = 0.02446022
#
# Stress axis : x y z
#
# Youngs Moduli (GPa) = 109.76899 111.82955 52.31088
#
# Poissons Ratio (x) = -0.03909 0.24083
# Poissons Ratio (y) = -0.03837 0.10985
# Poissons Ratio (z) = 0.50536 0.23483
#
# Static dielectric constant tensor:
#      x y z
#    x 1.794870 0.000000 0.000000 
#    y 0.000000 1.937200 0.000000 
#    z 0.000000 0.000000 1.685670 
# 
# From -- ./inp_files/33914.got.cif
#   From: 2010.05.17/outbox.cif.g08.bks.cpg/sg69_17_cif.got.tgz:33914.got - 2010.06.03 19:29:58.
