data_PCOD9511708
_publ_section_title
;
Structure prediction by ZEFSAII (Michael W. Deem and Ramdas Pophale) SiO2 
 PCOD9511708
Probable space group: F M M M
;
_chemical_formula_sum "Si O2"
_cell_formula_units_Z 160
_cell_length_a 25.353805
_cell_length_b 19.349649
_cell_length_c 18.978598
_cell_angle_alpha 90.000000
_cell_angle_beta 90.000000
_cell_angle_gamma 90.000000
_cell_volume 9310.657776
_symmetry_space_group_name_H-M "F M M M"
_symmetry_group_IT_number 69
_symmetry_cell_setting 'orthorhombic'
loop_
_space_group_symop_operation_xyz
x,y,z
-x,-y,z
x,-y,-z
-x,y,-z
-x,-y,-z
x,y,-z
-x,y,z
x,-y,z
x,1/2+y,1/2+z
-x,1/2-y,1/2+z
x,1/2-y,1/2-z
-x,1/2+y,1/2-z
-x,1/2-y,1/2-z
x,1/2+y,1/2-z
-x,1/2+y,1/2+z
x,1/2-y,1/2+z
1/2+x,y,1/2+z
1/2-x,-y,1/2+z
1/2+x,-y,1/2-z
1/2-x,y,1/2-z
1/2-x,-y,1/2-z
1/2+x,y,1/2-z
1/2-x,y,1/2+z
1/2+x,-y,1/2+z
1/2+x,1/2+y,z
1/2-x,1/2-y,z
1/2+x,1/2-y,-z
1/2-x,1/2+y,-z
1/2-x,1/2-y,-z
1/2+x,1/2+y,-z
1/2-x,1/2+y,z
1/2+x,1/2-y,z
loop_
_atom_site_type_symbol
_atom_site_label
_atom_site_fract_x
_atom_site_fract_y
_atom_site_fract_z
Si Si1 0.103976 0.420243 0.811752
Si Si2 0.500000 0.227231 0.667781
Si Si3 0.693379 0.713181 0.078846
Si Si4 0.810410 0.669478 0.270466
Si Si5 0.500000 0.922771 0.714692
Si Si6 0.910574 0.695250 0.080828
O O1 0.117906 0.500000 0.822831
O O2 0.149558 0.378996 0.770780
O O3 0.092815 0.379560 0.883721
O O4 0.051430 0.417271 0.764080
O O5 0.500000 0.250000 0.750000
O O6 0.500000 0.144155 0.665132
O O7 0.550657 0.259110 0.628962
O O8 0.750000 0.750000 0.089080
O O9 0.684317 0.663803 0.145194
O O10 0.647120 0.769911 0.081691
O O11 0.692735 0.682321 0.000000
O O12 0.820981 0.750000 0.250000
O O13 0.750000 0.655161 0.250000
O O14 0.500000 0.000000 0.682251
O O15 0.928799 0.693341 0.000000
#
# Coordination Sequence:
#
# PCOD9511708 Si02
#       6
#    32  16  32  32  16  32
#     4  11  22  36  55  81 116 153 192 234 290 350
#     4  12  21  36  63  82 109 149 190 243 280 343
#     4  10  19  32  53  82 114 145 182 236 295 342
#     4  11  19  34  57  83 112 148 195 246 287 339
#     4  10  22  36  54  84 113 145 184 232 291 340
#     4  11  22  35  55  85 114 146 193 237 285 344
#
# _framework density 17.184607
#
# number of rings (size 3 to 8) (size 9 to 14) (size 15 to 20)
#    0.000    1.200    6.000    1.500    0.000    0.800 
#    0.000    0.000    0.000    4.800    0.000    8.400 
#    0.000    0.000    0.000    0.000    0.000    0.000 
#
# Total GULP energy -223304.835317 kJ/mol
# GULP energy per Si atom -5582.620883 kJ/mol
# Density = 1.714549 g / cm^3
# Si number density = 17.184607 Si / 1000 Ang^3
#
#
#
# Elastic Constant Matrix: (Units=GPa)
#
#
# Indices 1 2 3 4 5 6 
#
# 1 106.4555 58.0729 31.8088 0.0000 0.0000 0.0000
# 2 58.0729 121.2601 57.1348 0.0000 0.0000 0.0000
# 3 31.8088 57.1348 137.0139 0.0000 0.0000 0.0000
# 4 0.0000 0.0000 0.0000 19.5150 0.0000 0.0000
# 5 0.0000 0.0000 0.0000 0.0000 26.1777 0.0000
# 6 0.0000 0.0000 0.0000 0.0000 0.0000 -71.7479
#
#
#
# Elastic Compliance Matrix: (Units=1/GPa)
#
#
# Indices 1 2 3 4 5 6 
#
# 1 0.012745 -0.005861 -0.000515 0.000000 0.000000 0.000000
# 2 -0.005861 0.012959 -0.004043 0.000000 0.000000 0.000000
# 3 -0.000515 -0.004043 0.009104 0.000000 0.000000 0.000000
# 4 0.000000 0.000000 0.000000 0.051243 0.000000 0.000000
# 5 0.000000 0.000000 0.000000 0.000000 0.038200 0.000000
# 6 0.000000 0.000000 0.000000 0.000000 0.000000 -0.013938
#
#
# Mechanical properties :
#
#
# Convention : Reuss Voigt Hill
#
# Bulk Modulus (GPa) = 71.58379 73.19582 72.38980
# Shear Modulus (GPa) = 36.81693 9.30314 23.06004
#
# Velocity S-wave (km/s) = 4.63367 2.32925 3.66717
# Velocity P-wave (km/s) = 8.38892 7.06542 7.75546
#
# Compressibility (1/GPa) = 0.01396964
#
# Stress axis : x y z
#
# Youngs Moduli (GPa) = 78.46415 77.16848 109.84200
#
# Poissons Ratio (x) = 0.45229 0.05654
# Poissons Ratio (y) = 0.45988 0.44410
# Poissons Ratio (z) = 0.04039 0.31200
#
# Static dielectric constant tensor:
#      x y z
#    x 1.583710 0.000000 0.000000 
#    y 0.000000 1.562570 0.000000 
#    z 0.000000 0.000000 1.604330 
# 
# From -- ./inp_files/25828.got.cif
#   From: 2010.05.17/outbox.cif.g08.bks.cpg/sg69_13_cif.got.tgz:25828.got - 2010.06.03 19:29:58.
