data_PCOD9511200
_publ_section_title
;
Structure prediction by ZEFSAII (Michael W. Deem and Ramdas Pophale) SiO2 
 PCOD9511200
Probable space group: F M M M
;
_chemical_formula_sum "Si O2"
_cell_formula_units_Z 116
_cell_length_a 9.125924
_cell_length_b 22.755362
_cell_length_c 27.500492
_cell_angle_alpha 90.000000
_cell_angle_beta 90.000000
_cell_angle_gamma 90.000000
_cell_volume 5710.854036
_symmetry_space_group_name_H-M "F M M M"
_symmetry_group_IT_number 69
_symmetry_cell_setting 'orthorhombic'
loop_
_space_group_symop_operation_xyz
x,y,z
-x,-y,z
x,-y,-z
-x,y,-z
-x,-y,-z
x,y,-z
-x,y,z
x,-y,z
x,1/2+y,1/2+z
-x,1/2-y,1/2+z
x,1/2-y,1/2-z
-x,1/2+y,1/2-z
-x,1/2-y,1/2-z
x,1/2+y,1/2-z
-x,1/2+y,1/2+z
x,1/2-y,1/2+z
1/2+x,y,1/2+z
1/2-x,-y,1/2+z
1/2+x,-y,1/2-z
1/2-x,y,1/2-z
1/2-x,-y,1/2-z
1/2+x,y,1/2-z
1/2-x,y,1/2+z
1/2+x,-y,1/2+z
1/2+x,1/2+y,z
1/2-x,1/2-y,z
1/2+x,1/2-y,-z
1/2-x,1/2+y,-z
1/2-x,1/2-y,-z
1/2+x,1/2+y,-z
1/2-x,1/2+y,z
1/2+x,1/2-y,z
loop_
_atom_site_type_symbol
_atom_site_label
_atom_site_fract_x
_atom_site_fract_y
_atom_site_fract_z
Si Si1 0.175855 0.124040 0.702245
Si Si2 0.500000 0.000000 0.500000
Si Si3 0.165929 0.631111 0.908863
Si Si4 0.174504 0.313116 0.500000
Si Si5 0.741552 0.500000 0.915299
Si Si6 0.335604 0.000000 0.691912
O O1 0.250000 0.153314 0.750000
O O2 0.207933 0.146743 0.647159
O O3 0.242906 0.058354 0.702044
O O4 0.000000 0.123178 0.707483
O O5 0.371592 0.000000 0.458620
O O6 0.271106 0.654766 0.950931
O O7 0.167982 0.560386 0.913999
O O8 0.000000 0.652603 0.917358
O O9 0.250000 0.250000 0.500000
O O10 0.000000 0.310075 0.500000
O O11 0.651804 0.500000 0.865714
O O12 0.500000 0.000000 0.713580
#
# Coordination Sequence:
#
# PCOD9511200 Si02
#       6
#    32   4  32  16  16  16
#     4  10  20  33  52  80 115 157 197 242 292 350
#     4  12  20  28  42  76 116 148 198 244 292 336
#     4  10  22  40  62  88 124 162 203 244 298 358
#     4  12  27  45  68  90 116 153 200 250 303 355
#     4  10  21  31  54  84 124 159 198 240 296 353
#     4  10  18  30  45  70 111 158 202 244 283 341
#
# _framework density 20.312197999999999
#
# number of rings (size 3 to 8) (size 9 to 14) (size 15 to 20)
#    0.000    1.655    0.690    4.138    3.862    5.517 
#    0.000    2.069    0.000    0.828    0.000    5.793 
#    0.000    0.000    0.000    0.000    0.000    0.000 
#
# Total GULP energy -161469.025760 kJ/mol
# GULP energy per Si atom -5567.897440 kJ/mol
# Density = 2.026597 g / cm^3
# Si number density = 20.312198 Si / 1000 Ang^3
#
#
#
# Elastic Constant Matrix: (Units=GPa)
#
#
# Indices 1 2 3 4 5 6 
#
# 1 146.2627 19.6221 88.1802 0.0000 0.0000 0.0000
# 2 19.6221 45.9303 25.2026 0.0000 0.0000 0.0000
# 3 88.1802 25.2026 221.0509 0.0000 0.0000 0.0000
# 4 0.0000 0.0000 0.0000 10.8061 0.0000 0.0000
# 5 0.0000 0.0000 0.0000 0.0000 27.4337 0.0000
# 6 0.0000 0.0000 0.0000 0.0000 0.0000 12.7373
#
#
#
# Elastic Compliance Matrix: (Units=1/GPa)
#
#
# Indices 1 2 3 4 5 6 
#
# 1 0.009178 -0.002040 -0.003429 0.000000 0.000000 0.000000
# 2 -0.002040 0.023678 -0.001886 0.000000 0.000000 0.000000
# 3 -0.003429 -0.001886 0.006107 0.000000 0.000000 0.000000
# 4 0.000000 0.000000 0.000000 0.092540 0.000000 0.000000
# 5 0.000000 0.000000 0.000000 0.000000 0.036452 0.000000
# 6 0.000000 0.000000 0.000000 0.000000 0.000000 0.078510
#
#
# Mechanical properties :
#
#
# Convention : Reuss Voigt Hill
#
# Bulk Modulus (GPa) = 41.22978 75.47263 58.35121
# Shear Modulus (GPa) = 18.56962 28.87802 23.72382
#
# Velocity S-wave (km/s) = 3.02687 3.77465 3.42125
# Velocity P-wave (km/s) = 5.70597 7.49895 6.66304
#
# Compressibility (1/GPa) = 0.02425431
#
# Stress axis : x y z
#
# Youngs Moduli (GPa) = 108.96002 42.23271 163.75789
#
# Poissons Ratio (x) = 0.08614 0.56145
# Poissons Ratio (y) = 0.22223 0.30885
# Poissons Ratio (z) = 0.37358 0.07965
#
# Static dielectric constant tensor:
#      x y z
#    x 1.706720 0.000000 0.000000 
#    y 0.000000 1.725660 0.000000 
#    z 0.000000 0.000000 1.781360 
# 
# From -- ./inp_files/4538.got.cif
#   From: 2010.05.17/outbox.cif.g08.bks.cpg/sg69_3_cif.got.tgz:4538.got - 2010.06.03 19:29:58.
