data_PCOD9511328
_publ_section_title
;
Structure prediction by ZEFSAII (Michael W. Deem and Ramdas Pophale) SiO2 
 PCOD9511328
Probable space group: F M M M
;
_chemical_formula_sum "Si O2"
_cell_formula_units_Z 208
_cell_length_a 27.259875
_cell_length_b 27.139420
_cell_length_c 17.243699
_cell_angle_alpha 90.000000
_cell_angle_beta 90.000000
_cell_angle_gamma 90.000000
_cell_volume 12757.185056
_symmetry_space_group_name_H-M "F M M M"
_symmetry_group_IT_number 69
_symmetry_cell_setting 'orthorhombic'
loop_
_space_group_symop_operation_xyz
x,y,z
-x,-y,z
x,-y,-z
-x,y,-z
-x,-y,-z
x,y,-z
-x,y,z
x,-y,z
x,1/2+y,1/2+z
-x,1/2-y,1/2+z
x,1/2-y,1/2-z
-x,1/2+y,1/2-z
-x,1/2-y,1/2-z
x,1/2+y,1/2-z
-x,1/2+y,1/2+z
x,1/2-y,1/2+z
1/2+x,y,1/2+z
1/2-x,-y,1/2+z
1/2+x,-y,1/2-z
1/2-x,y,1/2-z
1/2-x,-y,1/2-z
1/2+x,y,1/2-z
1/2-x,y,1/2+z
1/2+x,-y,1/2+z
1/2+x,1/2+y,z
1/2-x,1/2-y,z
1/2+x,1/2-y,-z
1/2-x,1/2+y,-z
1/2-x,1/2-y,-z
1/2+x,1/2+y,-z
1/2-x,1/2+y,z
1/2+x,1/2-y,z
loop_
_atom_site_type_symbol
_atom_site_label
_atom_site_fract_x
_atom_site_fract_y
_atom_site_fract_z
Si Si1 0.058946 0.055750 0.000000
Si Si2 0.306873 0.408313 0.087903
Si Si3 0.441678 0.616850 0.843603
Si Si4 0.637133 0.943369 0.736675
Si Si5 0.285590 0.880171 0.825222
Si Si6 0.303785 0.767383 0.160375
Si Si7 0.127404 0.689449 0.410970
O O1 0.070579 0.086433 0.922993
O O2 0.000000 0.051686 0.000000
O O3 0.078844 0.000000 0.000000
O O4 0.332472 0.439720 0.155418
O O5 0.249856 0.401740 0.108907
O O6 0.331668 0.354026 0.094650
O O7 0.314608 0.425910 0.000000
O O8 0.500000 0.618329 0.833802
O O9 0.412364 0.587577 0.777676
O O10 0.416806 0.669845 0.857627
O O11 0.671577 0.916744 0.799221
O O12 0.627337 0.000000 0.754488
O O13 0.250000 0.873423 0.750000
O O14 0.305643 0.826153 0.844640
O O15 0.306897 0.750000 0.250000
O O16 0.250000 0.750000 0.131694
O O17 0.346438 0.739011 0.115706
O O18 0.111180 0.692558 0.500000
#
# Coordination Sequence:
#
# PCOD9511328 Si02
#       7
#    16  32  32  32  32  32  32
#     4   9  16  26  44  66  89 122 162 198 228 265
#     4   9  18  30  45  68  99 130 162 201 239 292
#     4  10  19  33  49  68  98 129 163 199 236 287
#     4  10  21  33  48  69  96 131 166 204 247 292
#     4  10  18  32  48  68  97 130 167 202 245 294
#     4  11  17  28  48  68  91 130 166 204 241 282
#     4  10  19  30  46  72 101 129 160 201 245 285
#
# _framework density 16.304537
#
# number of rings (size 3 to 8) (size 9 to 14) (size 15 to 20)
#    0.000    2.077    3.846    2.308    1.077    4.923 
#    0.000    0.000    0.000    4.154    0.000    0.000 
#    0.000    0.615    0.000    1.385    0.000    0.462 
#
# Total GULP energy -290050.498483 kJ/mol
# GULP energy per Si atom -5577.894202 kJ/mol
# Density = 1.626743 g / cm^3
# Si number density = 16.304537 Si / 1000 Ang^3
#
#
#
# Elastic Constant Matrix: (Units=GPa)
#
#
# Indices 1 2 3 4 5 6 
#
# 1 110.6716 40.6181 20.6194 0.0000 0.0000 0.0000
# 2 40.6181 67.2351 4.3241 0.0000 0.0000 0.0000
# 3 20.6194 4.3241 19.6470 0.0000 0.0000 0.0000
# 4 0.0000 0.0000 0.0000 10.0183 0.0000 0.0000
# 5 0.0000 0.0000 0.0000 0.0000 20.8573 0.0000
# 6 0.0000 0.0000 0.0000 0.0000 0.0000 16.3217
#
#
#
# Elastic Compliance Matrix: (Units=1/GPa)
#
#
# Indices 1 2 3 4 5 6 
#
# 1 0.014411 -0.007844 -0.013398 0.000000 0.000000 0.000000
# 2 -0.007844 0.019357 0.003972 0.000000 0.000000 0.000000
# 3 -0.013398 0.003972 0.064085 0.000000 0.000000 0.000000
# 4 0.000000 0.000000 0.000000 0.099817 0.000000 0.000000
# 5 0.000000 0.000000 0.000000 0.000000 0.047945 0.000000
# 6 0.000000 0.000000 0.000000 0.000000 0.000000 0.061268
#
#
# Mechanical properties :
#
#
# Convention : Reuss Voigt Hill
#
# Bulk Modulus (GPa) = 15.79454 36.51963 26.15708
# Shear Modulus (GPa) = 13.79212 18.23894 16.01553
#
# Velocity S-wave (km/s) = 2.91160 3.34824 3.13753
# Velocity P-wave (km/s) = 4.58383 6.11512 5.40399
#
# Compressibility (1/GPa) = 0.06331302
#
# Stress axis : x y z
#
# Youngs Moduli (GPa) = 69.39239 51.66204 15.60436
#
# Poissons Ratio (x) = 0.40525 0.20906
# Poissons Ratio (y) = 0.54433 -0.06199
# Poissons Ratio (z) = 0.92969 -0.20522
#
# Static dielectric constant tensor:
#      x y z
#    x 1.554330 0.000000 0.000000 
#    y 0.000000 1.549500 0.000000 
#    z 0.000000 0.000000 1.560790 
# 
# From -- ./inp_files/27067.got.cif
#   From: 2010.05.17/outbox.cif.g08.bks.cpg/sg69_14_cif.got.tgz:27067.got - 2010.06.03 19:29:58.
