data_PCOD9511032
_publ_section_title
;
Structure prediction by ZEFSAII (Michael W. Deem and Ramdas Pophale) SiO2 
 PCOD9511032
Probable space group: F M M M
;
_chemical_formula_sum "Si O2"
_cell_formula_units_Z 136
_cell_length_a 14.142902
_cell_length_b 22.615400
_cell_length_c 26.409165
_cell_angle_alpha 90.000000
_cell_angle_beta 90.000000
_cell_angle_gamma 90.000000
_cell_volume 8446.902389
_symmetry_space_group_name_H-M "F M M M"
_symmetry_group_IT_number 69
_symmetry_cell_setting 'orthorhombic'
loop_
_space_group_symop_operation_xyz
x,y,z
-x,-y,z
x,-y,-z
-x,y,-z
-x,-y,-z
x,y,-z
-x,y,z
x,-y,z
x,1/2+y,1/2+z
-x,1/2-y,1/2+z
x,1/2-y,1/2-z
-x,1/2+y,1/2-z
-x,1/2-y,1/2-z
x,1/2+y,1/2-z
-x,1/2+y,1/2+z
x,1/2-y,1/2+z
1/2+x,y,1/2+z
1/2-x,-y,1/2+z
1/2+x,-y,1/2-z
1/2-x,y,1/2-z
1/2-x,-y,1/2-z
1/2+x,y,1/2-z
1/2-x,y,1/2+z
1/2+x,-y,1/2+z
1/2+x,1/2+y,z
1/2-x,1/2-y,z
1/2+x,1/2-y,-z
1/2-x,1/2+y,-z
1/2-x,1/2-y,-z
1/2+x,1/2+y,-z
1/2-x,1/2+y,z
1/2+x,1/2-y,z
loop_
_atom_site_type_symbol
_atom_site_label
_atom_site_fract_x
_atom_site_fract_y
_atom_site_fract_z
Si Si1 0.750000 0.250000 0.250000
Si Si2 0.699232 0.825799 0.657830
Si Si3 0.106203 0.784779 0.388330
Si Si4 0.862000 0.256897 0.000000
Si Si5 0.892690 0.118139 0.000000
Si Si6 0.886405 0.430521 0.607232
O O1 0.694239 0.206020 0.287621
O O2 0.807655 0.819454 0.638337
O O3 0.634310 0.783579 0.622656
O O4 0.662272 0.891432 0.650570
O O5 0.109368 0.790005 0.448874
O O6 0.000000 0.797438 0.370070
O O7 0.750000 0.250000 0.000000
O O8 0.896710 0.189065 0.000000
O O9 0.850917 0.094404 0.052696
O O10 0.000000 0.094393 0.000000
O O11 0.867387 0.500000 0.610757
O O12 0.000000 0.421757 0.609925
#
# Coordination Sequence:
#
# PCOD9511032 Si02
#       6
#     8  32  32  16  16  32
#     4   8  20  36  52  70  92 122 156 210 254 290
#     4  10  19  34  49  69  96 124 162 199 249 289
#     4  10  18  28  46  70 100 128 156 195 238 290
#     4  12  16  25  41  72 101 133 158 186 233 285
#     4  10  17  26  42  68 103 131 153 181 223 280
#     4  10  19  31  49  73 101 131 160 193 235 286
#
# _framework density 16.100577000000001
#
# number of rings (size 3 to 8) (size 9 to 14) (size 15 to 20)
#    0.000    2.118    4.706    2.118    0.000    1.412 
#    0.000   15.294    0.000    0.706    0.000    0.000 
#    0.000    5.647    0.000    0.000    0.000    0.000 
#
# Total GULP energy -189301.885907 kJ/mol
# GULP energy per Si atom -5567.702527 kJ/mol
# Density = 1.606393 g / cm^3
# Si number density = 16.100577 Si / 1000 Ang^3
#
#
#
# Elastic Constant Matrix: (Units=GPa)
#
#
# Indices 1 2 3 4 5 6 
#
# 1 84.7070 25.3719 15.1162 0.0000 0.0000 0.0000
# 2 25.3719 84.1464 30.2858 0.0000 0.0000 0.0000
# 3 15.1162 30.2858 90.0825 0.0000 0.0000 0.0000
# 4 0.0000 0.0000 0.0000 12.4784 0.0000 0.0000
# 5 0.0000 0.0000 0.0000 0.0000 5.3520 0.0000
# 6 0.0000 0.0000 0.0000 0.0000 0.0000 20.2794
#
#
#
# Elastic Compliance Matrix: (Units=1/GPa)
#
#
# Indices 1 2 3 4 5 6 
#
# 1 0.013054 -0.003581 -0.000987 0.000000 0.000000 0.000000
# 2 -0.003581 0.014502 -0.004275 0.000000 0.000000 0.000000
# 3 -0.000987 -0.004275 0.012704 0.000000 0.000000 0.000000
# 4 0.000000 0.000000 0.000000 0.080138 0.000000 0.000000
# 5 0.000000 0.000000 0.000000 0.000000 0.186846 0.000000
# 6 0.000000 0.000000 0.000000 0.000000 0.000000 0.049311
#
#
# Mechanical properties :
#
#
# Convention : Reuss Voigt Hill
#
# Bulk Modulus (GPa) = 44.29612 44.49820 44.39716
# Shear Modulus (GPa) = 13.09704 20.16610 16.63157
#
# Velocity S-wave (km/s) = 2.85520 3.54292 3.21749
# Velocity P-wave (km/s) = 6.20011 6.66588 6.43721
#
# Compressibility (1/GPa) = 0.02257534
#
# Stress axis : x y z
#
# Youngs Moduli (GPa) = 76.60457 68.95422 78.71734
#
# Poissons Ratio (x) = 0.24692 0.07766
# Poissons Ratio (y) = 0.27432 0.33650
# Poissons Ratio (z) = 0.07558 0.29477
#
# Static dielectric constant tensor:
#      x y z
#    x 1.562730 0.000000 0.000000 
#    y 0.000000 1.526440 0.000000 
#    z 0.000000 0.000000 1.594930 
# 
# From -- ./inp_files/35952.got.cif
#   From: 2010.05.17/outbox.cif.g08.bks.cpg/sg69_18_cif.got.tgz:35952.got - 2010.06.03 19:29:58.
