data_PCOD9511345
_publ_section_title
;
Structure prediction by ZEFSAII (Michael W. Deem and Ramdas Pophale) SiO2 
 PCOD9511345
Probable space group: F M M M
;
_chemical_formula_sum "Si O2"
_cell_formula_units_Z 112
_cell_length_a 31.425871
_cell_length_b 8.597520
_cell_length_c 25.727819
_cell_angle_alpha 90.000000
_cell_angle_beta 90.000000
_cell_angle_gamma 90.000000
_cell_volume 6951.259313
_symmetry_space_group_name_H-M "F M M M"
_symmetry_group_IT_number 69
_symmetry_cell_setting 'orthorhombic'
loop_
_space_group_symop_operation_xyz
x,y,z
-x,-y,z
x,-y,-z
-x,y,-z
-x,-y,-z
x,y,-z
-x,y,z
x,-y,z
x,1/2+y,1/2+z
-x,1/2-y,1/2+z
x,1/2-y,1/2-z
-x,1/2+y,1/2-z
-x,1/2-y,1/2-z
x,1/2+y,1/2-z
-x,1/2+y,1/2+z
x,1/2-y,1/2+z
1/2+x,y,1/2+z
1/2-x,-y,1/2+z
1/2+x,-y,1/2-z
1/2-x,y,1/2-z
1/2-x,-y,1/2-z
1/2+x,y,1/2-z
1/2-x,y,1/2+z
1/2+x,-y,1/2+z
1/2+x,1/2+y,z
1/2-x,1/2-y,z
1/2+x,1/2-y,-z
1/2-x,1/2+y,-z
1/2-x,1/2-y,-z
1/2+x,1/2+y,-z
1/2-x,1/2+y,z
1/2+x,1/2-y,z
loop_
_atom_site_type_symbol
_atom_site_label
_atom_site_fract_x
_atom_site_fract_y
_atom_site_fract_z
Si Si1 0.201893 0.314084 0.109060
Si Si2 0.953463 0.313310 0.190935
Si Si3 0.635490 0.814303 0.308909
Si Si4 0.201632 0.186085 0.000000
O O1 0.203423 0.500000 0.107392
O O2 0.250000 0.250000 0.114997
O O3 0.172626 0.254983 0.155719
O O4 0.183713 0.249905 0.054205
O O5 0.949104 0.500000 0.192066
O O6 0.954875 0.250000 0.250000
O O7 0.910518 0.239255 0.168879
O O8 0.000000 0.275467 0.167460
O O9 0.638873 0.750000 0.250000
O O10 0.637600 0.000000 0.307606
O O11 0.250000 0.250000 0.000000
O O12 0.201779 0.000000 0.000000
#
# Coordination Sequence:
#
# PCOD9511345 Si02
#       4
#    32  32  32  16
#     4  11  21  35  52  72  97 127 162 200 241 283
#     4   9  16  27  44  66  92 123 158 196 237 280
#     4  11  21  33  48  70  99 131 164 198 239 288
#     4  10  18  32  52  74  95 120 157 200 242 280
#
# _framework density 16.112188
#
# number of rings (size 3 to 8) (size 9 to 14) (size 15 to 20)
#    0.000    1.714    0.000   10.714    0.000    2.286 
#    0.000    2.857    0.000    0.000    0.000    1.000 
#    0.000    8.000    0.000    0.000    0.000    0.000 
#
# Total GULP energy -156107.614879 kJ/mol
# GULP energy per Si atom -5575.271960 kJ/mol
# Density = 1.607552 g / cm^3
# Si number density = 16.112188 Si / 1000 Ang^3
#
#
#
# Elastic Constant Matrix: (Units=GPa)
#
#
# Indices 1 2 3 4 5 6 
#
# 1 110.2190 55.3611 54.2807 0.0000 0.0000 0.0001
# 2 55.3611 172.0389 46.7372 0.0000 0.0000 0.0002
# 3 54.2807 46.7372 81.4701 0.0000 0.0000 0.0000
# 4 0.0000 0.0000 0.0000 23.8052 0.0000 0.0000
# 5 0.0000 0.0000 0.0000 0.0000 -1.9690 0.0000
# 6 0.0001 0.0002 0.0000 0.0000 0.0000 28.3527
#
#
#
# Elastic Compliance Matrix: (Units=1/GPa)
#
#
# Indices 1 2 3 4 5 6 
#
# 1 0.014283 -0.002382 -0.008150 0.000000 0.000000 0.000000
# 2 -0.002382 0.007283 -0.002591 0.000000 0.000000 0.000000
# 3 -0.008150 -0.002591 0.019191 0.000000 0.000000 0.000000
# 4 0.000000 0.000000 0.000000 0.042008 0.000000 0.000000
# 5 0.000000 0.000000 0.000000 0.000000 -0.507879 0.000000
# 6 0.000000 0.000000 0.000000 0.000000 0.000000 0.035270
#
#
# Mechanical properties :
#
#
# Convention : Reuss Voigt Hill
#
# Bulk Modulus (GPa) = 68.91267 75.16510 72.03888
# Shear Modulus (GPa) = -13.93680 23.86106 4.96213
#
# Velocity S-wave (km/s) = -2.94425 3.85246 1.75682
# Velocity P-wave (km/s) = 5.59511 8.15727 6.99450
#
# Compressibility (1/GPa) = 0.01451112
#
# Stress axis : x y z
#
# Youngs Moduli (GPa) = 70.01387 137.30443 52.10886
#
# Poissons Ratio (x) = 0.32708 0.42467
# Poissons Ratio (y) = 0.16679 0.13501
# Poissons Ratio (z) = 0.57058 0.35575
#
# Static dielectric constant tensor:
#      x y z
#    x -7.748080 0.000000 0.000010 
#    y 0.000000 1.531300 0.000000 
#    z 0.000010 0.000000 1.543020 
# 
# From -- ./inp_files/4719.got.cif
#   From: 2010.05.17/outbox.cif.g08.bks.cpg/sg69_3_cif.got.tgz:4719.got - 2010.06.03 19:29:58.
