data_PCOD9511402
_publ_section_title
;
Structure prediction by ZEFSAII (Michael W. Deem and Ramdas Pophale) SiO2 
 PCOD9511402
Probable space group: F M M M
;
_chemical_formula_sum "Si O2"
_cell_formula_units_Z 208
_cell_length_a 28.250853
_cell_length_b 18.299812
_cell_length_c 23.255233
_cell_angle_alpha 90.000000
_cell_angle_beta 90.000000
_cell_angle_gamma 90.000000
_cell_volume 12022.613580
_symmetry_space_group_name_H-M "F M M M"
_symmetry_group_IT_number 69
_symmetry_cell_setting 'orthorhombic'
loop_
_space_group_symop_operation_xyz
x,y,z
-x,-y,z
x,-y,-z
-x,y,-z
-x,-y,-z
x,y,-z
-x,y,z
x,-y,z
x,1/2+y,1/2+z
-x,1/2-y,1/2+z
x,1/2-y,1/2-z
-x,1/2+y,1/2-z
-x,1/2-y,1/2-z
x,1/2+y,1/2-z
-x,1/2+y,1/2+z
x,1/2-y,1/2+z
1/2+x,y,1/2+z
1/2-x,-y,1/2+z
1/2+x,-y,1/2-z
1/2-x,y,1/2-z
1/2-x,-y,1/2-z
1/2+x,y,1/2-z
1/2-x,y,1/2+z
1/2+x,-y,1/2+z
1/2+x,1/2+y,z
1/2-x,1/2-y,z
1/2+x,1/2-y,-z
1/2-x,1/2+y,-z
1/2-x,1/2-y,-z
1/2+x,1/2+y,-z
1/2-x,1/2+y,z
1/2+x,1/2-y,z
loop_
_atom_site_type_symbol
_atom_site_label
_atom_site_fract_x
_atom_site_fract_y
_atom_site_fract_z
Si Si1 0.283851 0.180139 0.430476
Si Si2 0.200185 0.581250 0.930786
Si Si3 0.892490 0.167386 0.568741
Si Si4 0.107837 0.331512 0.603933
Si Si5 0.947038 0.412688 0.835409
Si Si6 0.442657 0.412393 0.792913
Si Si7 0.944085 0.412383 0.500000
O O1 0.291919 0.183822 0.500000
O O2 0.250000 0.250000 0.416835
O O3 0.251791 0.110219 0.415271
O O4 0.335024 0.171336 0.401663
O O5 0.189074 0.500000 0.908087
O O6 0.161468 0.643243 0.918096
O O7 0.199618 0.576491 0.000000
O O8 0.899587 0.162498 0.500000
O O9 0.905292 0.247732 0.590466
O O10 0.921611 0.111901 0.607306
O O11 0.086672 0.363975 0.662472
O O12 0.083505 0.380496 0.554680
O O13 0.948940 0.500000 0.834378
O O14 0.927700 0.392330 0.772393
O O15 0.000000 0.382728 0.837590
O O16 0.500000 0.401591 0.798404
O O17 0.434894 0.500000 0.801975
O O18 0.942135 0.500000 0.500000
O O19 0.000000 0.391432 0.500000
#
# Coordination Sequence:
#
# PCOD9511402 Si02
#       7
#    32  32  32  32  32  32  16
#     4  10  18  33  53  76 116 152 188 243 291 339
#     4   9  18  31  51  77 108 148 188 229 283 347
#     4  11  21  35  54  84 120 150 184 235 297 349
#     4  12  21  35  57  84 114 155 193 233 293 349
#     4   9  20  39  60  81 109 149 195 242 290 344
#     4   9  20  40  61  81 111 153 200 245 287 342
#     4  11  24  38  51  78 121 161 196 241 294 344
#
# _framework density 17.300730000000001
#
# number of rings (size 3 to 8) (size 9 to 14) (size 15 to 20)
#    0.000    1.923    3.077    2.308    0.000    5.538 
#    0.000    2.308    0.000    0.923    0.000    3.231 
#    0.000    0.000    0.000    0.000    0.000    0.000 
#
# Total GULP energy -289624.225866 kJ/mol
# GULP energy per Si atom -5569.696651 kJ/mol
# Density = 1.726135 g / cm^3
# Si number density = 17.300730 Si / 1000 Ang^3
#
#
#
# Elastic Constant Matrix: (Units=GPa)
#
#
# Indices 1 2 3 4 5 6 
#
# 1 76.5231 23.6450 34.0708 0.0000 0.0000 0.0000
# 2 23.6450 61.7722 20.4880 0.0000 0.0000 0.0000
# 3 34.0708 20.4880 61.3813 0.0000 0.0000 0.0000
# 4 0.0000 0.0000 0.0000 64.6346 0.0000 0.0000
# 5 0.0000 0.0000 0.0000 0.0000 -59.8116 0.0000
# 6 0.0000 0.0000 0.0000 0.0000 0.0000 33.3553
#
#
#
# Elastic Compliance Matrix: (Units=1/GPa)
#
#
# Indices 1 2 3 4 5 6 
#
# 1 0.018225 -0.004072 -0.008757 0.000000 0.000000 0.000000
# 2 -0.004072 0.019113 -0.004120 0.000000 0.000000 0.000000
# 3 -0.008757 -0.004120 0.022527 0.000000 0.000000 0.000000
# 4 0.000000 0.000000 0.000000 0.015472 0.000000 0.000000
# 5 0.000000 0.000000 0.000000 0.000000 -0.016719 0.000000
# 6 0.000000 0.000000 0.000000 0.000000 0.000000 0.029980
#
#
# Mechanical properties :
#
#
# Convention : Reuss Voigt Hill
#
# Bulk Modulus (GPa) = 38.50733 39.56490 39.03612
# Shear Modulus (GPa) = 38.12377 15.73385 26.92881
#
# Velocity S-wave (km/s) = 4.69934 3.01895 3.94955
# Velocity P-wave (km/s) = 7.19382 5.92205 6.58869
#
# Compressibility (1/GPa) = 0.02596908
#
# Stress axis : x y z
#
# Youngs Moduli (GPa) = 54.86966 52.31925 44.39024
#
# Poissons Ratio (x) = 0.21303 0.38873
# Poissons Ratio (y) = 0.22341 0.18287
# Poissons Ratio (z) = 0.48050 0.21554
#
# Static dielectric constant tensor:
#      x y z
#    x 1.613730 0.000000 0.000000 
#    y 0.000000 1.628030 0.000000 
#    z 0.000000 0.000000 1.580250 
# 
# From -- ./inp_files/38473.got.cif
#   From: 2010.05.17/outbox.cif.g08.bks.cpg/sg69_20_cif.got.tgz:38473.got - 2010.06.03 19:29:58.
