data_PCOD9511026
_publ_section_title
;
Structure prediction by ZEFSAII (Michael W. Deem and Ramdas Pophale) SiO2 
 PCOD9511026
Probable space group: F M M M
;
_chemical_formula_sum "Si O2"
_cell_formula_units_Z 160
_cell_length_a 31.737127
_cell_length_b 13.966211
_cell_length_c 17.775608
_cell_angle_alpha 90.000000
_cell_angle_beta 90.000000
_cell_angle_gamma 90.000000
_cell_volume 7878.992247
_symmetry_space_group_name_H-M "F M M M"
_symmetry_group_IT_number 69
_symmetry_cell_setting 'orthorhombic'
loop_
_space_group_symop_operation_xyz
x,y,z
-x,-y,z
x,-y,-z
-x,y,-z
-x,-y,-z
x,y,-z
-x,y,z
x,-y,z
x,1/2+y,1/2+z
-x,1/2-y,1/2+z
x,1/2-y,1/2-z
-x,1/2+y,1/2-z
-x,1/2-y,1/2-z
x,1/2+y,1/2-z
-x,1/2+y,1/2+z
x,1/2-y,1/2+z
1/2+x,y,1/2+z
1/2-x,-y,1/2+z
1/2+x,-y,1/2-z
1/2-x,y,1/2-z
1/2-x,-y,1/2-z
1/2+x,y,1/2-z
1/2-x,y,1/2+z
1/2+x,-y,1/2+z
1/2+x,1/2+y,z
1/2-x,1/2-y,z
1/2+x,1/2-y,-z
1/2-x,1/2+y,-z
1/2-x,1/2-y,-z
1/2+x,1/2+y,-z
1/2-x,1/2+y,z
1/2+x,1/2-y,z
loop_
_atom_site_type_symbol
_atom_site_label
_atom_site_fract_x
_atom_site_fract_y
_atom_site_fract_z
Si Si1 0.744670 0.384875 0.000000
Si Si2 0.546756 0.392227 0.629959
Si Si3 0.862814 0.886204 0.844048
Si Si4 0.763781 0.115375 0.166319
Si Si5 0.116068 0.106707 0.500000
Si Si6 0.578591 0.750000 0.250000
Si Si7 0.148697 0.810062 0.000000
O O1 0.758209 0.354408 0.913965
O O2 0.695590 0.353517 0.000000
O O3 0.747548 0.500000 0.000000
O O4 0.500000 0.386497 0.594848
O O5 0.549792 0.500000 0.663742
O O6 0.584812 0.385165 0.570971
O O7 0.551765 0.307717 0.689261
O O8 0.813368 0.861423 0.836284
O O9 0.891151 0.829381 0.786317
O O10 0.867004 0.000000 0.836872
O O11 0.874369 0.849875 0.926848
O O12 0.750000 0.146782 0.250000
O O13 0.759651 0.000000 0.165965
O O14 0.148034 0.194930 0.500000
O O15 0.135661 0.000000 0.500000
#
# Coordination Sequence:
#
# PCOD9511026 Si02
#       7
#    16  32  32  32  16  16  16
#     4   8  14  24  47  81 111 145 187 228 281 340
#     4  10  21  37  56  78 107 145 188 231 277 334
#     4  10  20  33  54  82 110 146 187 231 279 332
#     4   8  14  27  48  75 109 146 186 231 278 332
#     4  10  19  34  56  82 108 141 188 230 276 334
#     4  12  21  34  53  82 112 144 180 232 281 342
#     4  10  16  33  54  80 110 141 184 231 277 331
#
# _framework density 20.307165000000001
#
# number of rings (size 3 to 8) (size 9 to 14) (size 15 to 20)
#    0.000    2.400    2.000    3.300    0.000    1.200 
#    0.000    0.500    0.000    2.400    0.000   12.600 
#    0.000   19.200    0.000    0.000    0.000    0.000 
#
# Total GULP energy -222920.892227 kJ/mol
# GULP energy per Si atom -5573.022306 kJ/mol
# Density = 2.026095 g / cm^3
# Si number density = 20.307165 Si / 1000 Ang^3
#
#
#
# Elastic Constant Matrix: (Units=GPa)
#
#
# Indices 1 2 3 4 5 6 
#
# 1 29.2052 16.5480 24.9370 0.0000 0.0000 0.0000
# 2 16.5480 58.6396 5.7425 0.0000 0.0000 0.0000
# 3 24.9370 5.7425 115.1205 0.0000 0.0000 0.0000
# 4 0.0000 0.0000 0.0000 18.5716 0.0000 0.0000
# 5 0.0000 0.0000 0.0000 0.0000 5.3968 0.0000
# 6 0.0000 0.0000 0.0000 0.0000 0.0000 -2.5886
#
#
#
# Elastic Compliance Matrix: (Units=1/GPa)
#
#
# Indices 1 2 3 4 5 6 
#
# 1 0.050532 -0.013253 -0.010285 0.000000 0.000000 0.000000
# 2 -0.013253 0.020613 0.001843 0.000000 0.000000 0.000000
# 3 -0.010285 0.001843 0.010823 0.000000 0.000000 0.000000
# 4 0.000000 0.000000 0.000000 0.053846 0.000000 0.000000
# 5 0.000000 0.000000 0.000000 0.000000 0.185294 0.000000
# 6 0.000000 0.000000 0.000000 0.000000 0.000000 -0.386311
#
#
# Mechanical properties :
#
#
# Convention : Reuss Voigt Hill
#
# Bulk Modulus (GPa) = 25.92242 33.04670 29.48456
# Shear Modulus (GPa) = -558.33811 14.65848 -271.83981
#
# Velocity S-wave (km/s) = -16.59950 2.68962 -11.58251
# Velocity P-wave (km/s) = 18.83078 5.09452 12.81881
#
# Compressibility (1/GPa) = 0.03857665
#
# Stress axis : x y z
#
# Youngs Moduli (GPa) = 19.78963 48.51351 92.40003
#
# Poissons Ratio (x) = 0.64294 0.95032
# Poissons Ratio (y) = 0.26227 -0.17025
# Poissons Ratio (z) = 0.20353 -0.08939
#
# Static dielectric constant tensor:
#      x y z
#    x 1.695140 0.000000 0.000000 
#    y 0.000000 1.718060 0.000000 
#    z 0.000000 0.000000 1.825290 
# 
# From -- ./inp_files/27555.got.cif
#   From: 2010.05.17/outbox.cif.g08.bks.cpg/sg69_14_cif.got.tgz:27555.got - 2010.06.03 19:29:58.
