data_PCOD9511346
_publ_section_title
;
Structure prediction by ZEFSAII (Michael W. Deem and Ramdas Pophale) SiO2 
 PCOD9511346
Probable space group: F M M M
;
_chemical_formula_sum "Si O2"
_cell_formula_units_Z 128
_cell_length_a 25.478887
_cell_length_b 8.738455
_cell_length_c 31.137819
_cell_angle_alpha 90.000000
_cell_angle_beta 90.000000
_cell_angle_gamma 90.000000
_cell_volume 6932.714196
_symmetry_space_group_name_H-M "F M M M"
_symmetry_group_IT_number 69
_symmetry_cell_setting 'orthorhombic'
loop_
_space_group_symop_operation_xyz
x,y,z
-x,-y,z
x,-y,-z
-x,y,-z
-x,-y,-z
x,y,-z
-x,y,z
x,-y,z
x,1/2+y,1/2+z
-x,1/2-y,1/2+z
x,1/2-y,1/2-z
-x,1/2+y,1/2-z
-x,1/2-y,1/2-z
x,1/2+y,1/2-z
-x,1/2+y,1/2+z
x,1/2-y,1/2+z
1/2+x,y,1/2+z
1/2-x,-y,1/2+z
1/2+x,-y,1/2-z
1/2-x,y,1/2-z
1/2-x,-y,1/2-z
1/2+x,y,1/2-z
1/2-x,y,1/2+z
1/2+x,-y,1/2+z
1/2+x,1/2+y,z
1/2-x,1/2-y,z
1/2+x,1/2-y,-z
1/2-x,1/2+y,-z
1/2-x,1/2-y,-z
1/2+x,1/2+y,-z
1/2-x,1/2+y,z
1/2+x,1/2-y,z
loop_
_atom_site_type_symbol
_atom_site_label
_atom_site_fract_x
_atom_site_fract_y
_atom_site_fract_z
Si Si1 0.590258 0.682127 0.118888
Si Si2 0.691844 0.681474 0.588186
Si Si3 0.308711 0.682525 0.000000
Si Si4 0.061976 0.671944 0.792798
Si Si5 0.000000 0.186186 0.050780
O O1 0.597471 0.500000 0.114522
O O2 0.646585 0.765303 0.119738
O O3 0.566570 0.725225 0.164866
O O4 0.550821 0.731360 0.079940
O O5 0.696860 0.500000 0.584837
O O6 0.750000 0.750000 0.595898
O O7 0.669316 0.751378 0.543645
O O8 0.250000 0.750000 0.000000
O O9 0.308909 0.500000 0.000000
O O10 0.083265 0.500000 0.799912
O O11 0.085007 0.750000 0.750000
O O12 0.000000 0.655416 0.785193
O O13 0.000000 0.000000 0.049702
O O14 0.000000 0.235582 0.000000
#
# Coordination Sequence:
#
# PCOD9511346 Si02
#       5
#    32  32  16  32  16
#     4  11  21  36  59  85 116 154 194 237 287 344
#     4  11  22  37  55  80 111 148 193 242 289 337
#     4  10  18  32  52  75 102 139 186 238 284 329
#     4  10  20  35  57  84 115 147 187 238 290 341
#     4   9  20  36  54  81 116 157 197 232 277 338
#
# _framework density 18.463187999999999
#
# number of rings (size 3 to 8) (size 9 to 14) (size 15 to 20)
#    0.000    1.625    1.250    6.375    1.750    1.000 
#    0.000    0.000    0.000    3.750    0.000    5.250 
#    0.000    0.000    0.000    0.000    0.000    0.000 
#
# Total GULP energy -178280.336671 kJ/mol
# GULP energy per Si atom -5571.260521 kJ/mol
# Density = 1.842117 g / cm^3
# Si number density = 18.463188 Si / 1000 Ang^3
#
#
#
# Elastic Constant Matrix: (Units=GPa)
#
#
# Indices 1 2 3 4 5 6 
#
# 1 85.9771 36.1481 26.2445 0.0000 0.0000 0.0000
# 2 36.1481 128.2274 21.6391 0.0000 0.0000 -0.0001
# 3 26.2445 21.6391 97.1399 0.0000 0.0000 0.0000
# 4 0.0000 0.0000 0.0000 25.5970 0.0000 0.0000
# 5 0.0000 0.0000 0.0000 0.0000 7.4182 0.0000
# 6 0.0000 -0.0001 0.0000 0.0000 0.0000 23.1186
#
#
#
# Elastic Compliance Matrix: (Units=1/GPa)
#
#
# Indices 1 2 3 4 5 6 
#
# 1 0.013997 -0.003437 -0.003016 0.000000 0.000000 0.000000
# 2 -0.003437 0.008947 -0.001065 0.000000 0.000000 0.000000
# 3 -0.003016 -0.001065 0.011346 0.000000 0.000000 0.000000
# 4 0.000000 0.000000 0.000000 0.039067 0.000000 0.000000
# 5 0.000000 0.000000 0.000000 0.000000 0.134803 0.000000
# 6 0.000000 0.000000 0.000000 0.000000 0.000000 0.043255
#
#
# Mechanical properties :
#
#
# Convention : Reuss Voigt Hill
#
# Bulk Modulus (GPa) = 51.93290 53.26755 52.60023
# Shear Modulus (GPa) = 18.32386 26.38095 22.35241
#
# Velocity S-wave (km/s) = 3.15374 3.78410 3.48321
# Velocity P-wave (km/s) = 6.43819 6.92863 6.68791
#
# Compressibility (1/GPa) = 0.01925562
#
# Stress axis : x y z
#
# Youngs Moduli (GPa) = 71.44618 111.76750 88.13373
#
# Poissons Ratio (x) = 0.38412 0.26580
# Poissons Ratio (y) = 0.24554 0.09382
# Poissons Ratio (z) = 0.21547 0.11898
#
# Static dielectric constant tensor:
#      x y z
#    x 1.625390 0.000000 0.000000 
#    y 0.000000 1.653070 0.000000 
#    z 0.000000 0.000000 1.735940 
# 
# From -- ./inp_files/4844.got.cif
#   From: 2010.05.17/outbox.cif.g08.bks.cpg/sg69_3_cif.got.tgz:4844.got - 2010.06.03 19:29:58.
