data_PCOD9511901
_publ_section_title
;
Structure prediction by ZEFSAII (Michael W. Deem and Ramdas Pophale) SiO2 
 PCOD9511901
Probable space group: F M M M
;
_chemical_formula_sum "Si O2"
_cell_formula_units_Z 160
_cell_length_a 16.235460
_cell_length_b 31.309729
_cell_length_c 18.049215
_cell_angle_alpha 90.000000
_cell_angle_beta 90.000000
_cell_angle_gamma 90.000000
_cell_volume 9174.918706
_symmetry_space_group_name_H-M "F M M M"
_symmetry_group_IT_number 69
_symmetry_cell_setting 'orthorhombic'
loop_
_space_group_symop_operation_xyz
x,y,z
-x,-y,z
x,-y,-z
-x,y,-z
-x,-y,-z
x,y,-z
-x,y,z
x,-y,z
x,1/2+y,1/2+z
-x,1/2-y,1/2+z
x,1/2-y,1/2-z
-x,1/2+y,1/2-z
-x,1/2-y,1/2-z
x,1/2+y,1/2-z
-x,1/2+y,1/2+z
x,1/2-y,1/2+z
1/2+x,y,1/2+z
1/2-x,-y,1/2+z
1/2+x,-y,1/2-z
1/2-x,y,1/2-z
1/2-x,-y,1/2-z
1/2+x,y,1/2-z
1/2-x,y,1/2+z
1/2+x,-y,1/2+z
1/2+x,1/2+y,z
1/2-x,1/2-y,z
1/2+x,1/2-y,-z
1/2-x,1/2+y,-z
1/2-x,1/2-y,-z
1/2+x,1/2+y,-z
1/2-x,1/2+y,z
1/2+x,1/2-y,z
loop_
_atom_site_type_symbol
_atom_site_label
_atom_site_fract_x
_atom_site_fract_y
_atom_site_fract_z
Si Si1 0.500000 0.348319 0.419105
Si Si2 0.159361 0.853313 0.227689
Si Si3 0.354928 0.410048 0.628260
Si Si4 0.000000 0.700405 0.768861
Si Si5 0.830963 0.589936 0.583856
Si Si6 0.600177 0.000000 0.644722
Si Si7 0.903326 0.500000 0.185459
O O1 0.500000 0.328723 0.500000
O O2 0.578403 0.379431 0.409342
O O3 0.500000 0.312830 0.355412
O O4 0.250000 0.834615 0.250000
O O5 0.152442 0.890940 0.288641
O O6 0.083481 0.821345 0.238259
O O7 0.149937 0.875030 0.147254
O O8 0.268097 0.410625 0.587625
O O9 0.381591 0.458321 0.639586
O O10 0.000000 0.750000 0.750000
O O11 0.858130 0.600013 0.500000
O O12 0.866484 0.543540 0.607357
O O13 0.500000 0.000000 0.641249
O O14 0.631188 0.000000 0.730501
O O15 0.000000 0.500000 0.197430
#
# Coordination Sequence:
#
# PCOD9511901 Si02
#       7
#    16  32  32  16  32  16  16
#     4  10  20  37  60  86 114 140 172 228 287 328
#     4   9  20  37  59  83 110 147 185 228 277 330
#     4  10  19  34  56  78 107 151 193 227 273 326
#     4  10  22  40  65  91 112 140 182 218 270 357
#     4  11  22  35  51  78 112 149 193 236 274 318
#     4  11  24  34  50  70 109 152 198 238 279 314
#     4  11  19  31  53  80 104 150 198 241 268 320
#
# _framework density 17.438846999999999
#
# number of rings (size 3 to 8) (size 9 to 14) (size 15 to 20)
#    0.000    1.800    3.000    1.500    1.400    2.000 
#    0.000    3.000    0.000    0.000    0.000    8.400 
#    0.000    0.000    0.000    0.000    0.000    0.000 
#
# Total GULP energy -223007.753884 kJ/mol
# GULP energy per Si atom -5575.193847 kJ/mol
# Density = 1.739916 g / cm^3
# Si number density = 17.438847 Si / 1000 Ang^3
#
#
#
# Elastic Constant Matrix: (Units=GPa)
#
#
# Indices 1 2 3 4 5 6 
#
# 1 100.9470 59.3039 30.1481 0.0000 0.0000 0.0000
# 2 59.3039 114.5011 53.5436 0.0000 0.0000 0.0000
# 3 30.1481 53.5436 138.2643 0.0000 0.0000 0.0000
# 4 0.0000 0.0000 0.0000 5.1941 0.0000 0.0000
# 5 0.0000 0.0000 0.0000 0.0000 21.7921 0.0000
# 6 0.0000 0.0000 0.0000 0.0000 0.0000 13.9319
#
#
#
# Elastic Compliance Matrix: (Units=1/GPa)
#
#
# Indices 1 2 3 4 5 6 
#
# 1 0.014249 -0.007238 -0.000304 0.000000 0.000000 0.000000
# 2 -0.007238 0.014341 -0.003976 0.000000 0.000000 0.000000
# 3 -0.000304 -0.003976 0.008838 0.000000 0.000000 0.000000
# 4 0.000000 0.000000 0.000000 0.192525 0.000000 0.000000
# 5 0.000000 0.000000 0.000000 0.000000 0.045888 0.000000
# 6 0.000000 0.000000 0.000000 0.000000 0.000000 0.071778
#
#
# Mechanical properties :
#
#
# Convention : Reuss Voigt Hill
#
# Bulk Modulus (GPa) = 69.47436 71.07817 70.27627
# Shear Modulus (GPa) = 13.31724 22.23141 17.77433
#
# Velocity S-wave (km/s) = 2.76643 3.57434 3.19601
# Velocity P-wave (km/s) = 7.08022 7.60799 7.34884
#
# Compressibility (1/GPa) = 0.01439380
#
# Stress axis : x y z
#
# Youngs Moduli (GPa) = 70.18002 69.72845 113.14285
#
# Poissons Ratio (x) = 0.50469 0.03440
# Poissons Ratio (y) = 0.50795 0.44981
# Poissons Ratio (z) = 0.02134 0.27721
#
# Static dielectric constant tensor:
#      x y z
#    x 1.636290 0.000000 0.000000 
#    y 0.000000 1.533310 0.000000 
#    z 0.000000 0.000000 1.628090 
# 
# From -- ./inp_files/15736.got.cif
#   From: 2010.05.17/outbox.cif.g08.bks.cpg/sg69_8_cif.got.tgz:15736.got - 2010.06.03 19:29:58.
