data_PCOD9511707
_publ_section_title
;
Structure prediction by ZEFSAII (Michael W. Deem and Ramdas Pophale) SiO2 
 PCOD9511707
Probable space group: F M M M
;
_chemical_formula_sum "Si O2"
_cell_formula_units_Z 208
_cell_length_a 19.098192
_cell_length_b 31.961566
_cell_length_c 18.646551
_cell_angle_alpha 90.000000
_cell_angle_beta 90.000000
_cell_angle_gamma 90.000000
_cell_volume 11382.006217
_symmetry_space_group_name_H-M "F M M M"
_symmetry_group_IT_number 69
_symmetry_cell_setting 'orthorhombic'
loop_
_space_group_symop_operation_xyz
x,y,z
-x,-y,z
x,-y,-z
-x,y,-z
-x,-y,-z
x,y,-z
-x,y,z
x,-y,z
x,1/2+y,1/2+z
-x,1/2-y,1/2+z
x,1/2-y,1/2-z
-x,1/2+y,1/2-z
-x,1/2-y,1/2-z
x,1/2+y,1/2-z
-x,1/2+y,1/2+z
x,1/2-y,1/2+z
1/2+x,y,1/2+z
1/2-x,-y,1/2+z
1/2+x,-y,1/2-z
1/2-x,y,1/2-z
1/2-x,-y,1/2-z
1/2+x,y,1/2-z
1/2-x,y,1/2+z
1/2+x,-y,1/2+z
1/2+x,1/2+y,z
1/2-x,1/2-y,z
1/2+x,1/2-y,-z
1/2-x,1/2+y,-z
1/2-x,1/2-y,-z
1/2+x,1/2+y,-z
1/2-x,1/2+y,z
1/2+x,1/2-y,z
loop_
_atom_site_type_symbol
_atom_site_label
_atom_site_fract_x
_atom_site_fract_y
_atom_site_fract_z
Si Si1 0.584141 0.453359 0.000000
Si Si2 0.418858 0.903703 0.644525
Si Si3 0.703735 0.547543 0.820154
Si Si4 0.079680 0.660120 0.914305
Si Si5 0.778567 0.116373 0.584672
Si Si6 0.850099 0.176420 0.086008
Si Si7 0.582024 0.751443 0.164668
O O1 0.600972 0.427509 0.929533
O O2 0.613294 0.500000 0.000000
O O3 0.500000 0.456550 0.000000
O O4 0.500000 0.909287 0.660582
O O5 0.366953 0.926792 0.698206
O O6 0.400948 0.855972 0.627430
O O7 0.688884 0.500000 0.845052
O O8 0.750000 0.544635 0.750000
O O9 0.746896 0.576801 0.874575
O O10 0.142373 0.628723 0.895358
O O11 0.088221 0.702178 0.868055
O O12 0.000000 0.644516 0.902951
O O13 0.086474 0.669669 0.000000
O O14 0.776338 0.107969 0.500000
O O15 0.726855 0.156252 0.597240
O O16 0.866604 0.220884 0.121054
O O17 0.863542 0.176898 0.000000
O O18 0.500000 0.738684 0.153968
O O19 0.595850 0.750000 0.250000
#
# Coordination Sequence:
#
# PCOD9511707 Si02
#       7
#    16  32  32  32  32  32  32
#     4   9  16  26  44  76 112 137 165 209 255 310
#     4  10  19  32  53  82 112 144 180 214 259 321
#     4  10  22  38  54  76 110 146 178 213 261 323
#     4   9  18  35  57  76  97 132 180 228 272 312
#     4   9  20  37  57  81 104 133 177 223 270 324
#     4  10  19  33  53  78 112 144 172 214 266 325
#     4  10  21  34  49  74 107 142 180 219 260 308
#
# _framework density 18.274457999999999
#
# number of rings (size 3 to 8) (size 9 to 14) (size 15 to 20)
#    0.000    2.385    0.769    1.385    1.077    5.846 
#    0.000    5.385    0.000    1.385    0.000    2.154 
#    0.000    0.000    0.000    0.000    0.000    0.000 
#
# Total GULP energy -289900.065635 kJ/mol
# GULP energy per Si atom -5575.001262 kJ/mol
# Density = 1.823286 g / cm^3
# Si number density = 18.274458 Si / 1000 Ang^3
#
#
#
# Elastic Constant Matrix: (Units=GPa)
#
#
# Indices 1 2 3 4 5 6 
#
# 1 124.5885 49.5283 39.1320 0.0000 0.0000 0.0000
# 2 49.5283 65.8603 17.0531 0.0000 0.0000 0.0000
# 3 39.1320 17.0531 33.5543 0.0000 0.0000 0.0000
# 4 0.0000 0.0000 0.0000 20.8685 0.0000 0.0000
# 5 0.0000 0.0000 0.0000 0.0000 24.6259 0.0000
# 6 0.0000 0.0000 0.0000 0.0000 0.0000 18.8910
#
#
#
# Elastic Compliance Matrix: (Units=1/GPa)
#
#
# Indices 1 2 3 4 5 6 
#
# 1 0.015726 -0.008150 -0.014198 0.000000 0.000000 0.000000
# 2 -0.008150 0.021708 -0.001528 0.000000 0.000000 0.000000
# 3 -0.014198 -0.001528 0.047137 0.000000 0.000000 0.000000
# 4 0.000000 0.000000 0.000000 0.047919 0.000000 0.000000
# 5 0.000000 0.000000 0.000000 0.000000 0.040608 0.000000
# 6 0.000000 0.000000 0.000000 0.000000 0.000000 0.052935
#
#
# Mechanical properties :
#
#
# Convention : Reuss Voigt Hill
#
# Bulk Modulus (GPa) = 27.15959 48.38111 37.77035
# Shear Modulus (GPa) = 17.47904 20.76307 19.12105
#
# Velocity S-wave (km/s) = 3.09605 3.37438 3.23821
# Velocity P-wave (km/s) = 5.26070 6.45865 5.89021
#
# Compressibility (1/GPa) = 0.03681941
#
# Stress axis : x y z
#
# Youngs Moduli (GPa) = 63.59040 46.06576 21.21482
#
# Poissons Ratio (x) = 0.37543 0.30120
# Poissons Ratio (y) = 0.51825 0.03242
# Poissons Ratio (z) = 0.90284 0.07039
#
# Static dielectric constant tensor:
#      x y z
#    x 1.657420 0.000000 0.000000 
#    y 0.000000 1.632290 0.000000 
#    z 0.000000 0.000000 1.551260 
# 
# From -- ./inp_files/25209.got.cif
#   From: 2010.05.17/outbox.cif.g08.bks.cpg/sg69_13_cif.got.tgz:25209.got - 2010.06.03 19:29:58.
