data_PCOD9511796
_publ_section_title
;
Structure prediction by ZEFSAII (Michael W. Deem and Ramdas Pophale) SiO2 
 PCOD9511796
Probable space group: F M M M
;
_chemical_formula_sum "Si O2"
_cell_formula_units_Z 192
_cell_length_a 18.226600
_cell_length_b 16.632638
_cell_length_c 33.425380
_cell_angle_alpha 90.000000
_cell_angle_beta 90.000000
_cell_angle_gamma 90.000000
_cell_volume 10133.119199
_symmetry_space_group_name_H-M "F M M M"
_symmetry_group_IT_number 69
_symmetry_cell_setting 'orthorhombic'
loop_
_space_group_symop_operation_xyz
x,y,z
-x,-y,z
x,-y,-z
-x,y,-z
-x,-y,-z
x,y,-z
-x,y,z
x,-y,z
x,1/2+y,1/2+z
-x,1/2-y,1/2+z
x,1/2-y,1/2-z
-x,1/2+y,1/2-z
-x,1/2-y,1/2-z
x,1/2+y,1/2-z
-x,1/2+y,1/2+z
x,1/2-y,1/2+z
1/2+x,y,1/2+z
1/2-x,-y,1/2+z
1/2+x,-y,1/2-z
1/2-x,y,1/2-z
1/2-x,-y,1/2-z
1/2+x,y,1/2-z
1/2-x,y,1/2+z
1/2+x,-y,1/2+z
1/2+x,1/2+y,z
1/2-x,1/2-y,z
1/2+x,1/2-y,-z
1/2-x,1/2+y,-z
1/2-x,1/2-y,-z
1/2+x,1/2+y,-z
1/2-x,1/2+y,z
1/2+x,1/2-y,z
loop_
_atom_site_type_symbol
_atom_site_label
_atom_site_fract_x
_atom_site_fract_y
_atom_site_fract_z
Si Si1 0.412890 0.329774 0.583639
Si Si2 0.844823 0.596984 0.836959
Si Si3 0.176293 0.402478 0.679538
Si Si4 0.910738 0.592871 0.000000
Si Si5 0.086591 0.145155 0.897637
Si Si6 0.410704 0.000000 0.545479
Si Si7 0.417435 0.098027 0.244764
O O1 0.500000 0.348612 0.588186
O O2 0.370503 0.366365 0.621308
O O3 0.387416 0.364827 0.541125
O O4 0.404850 0.233929 0.584899
O O5 0.849510 0.500000 0.839930
O O6 0.761403 0.618018 0.825647
O O7 0.895189 0.623794 0.799762
O O8 0.170217 0.500000 0.677233
O O9 0.130598 0.365865 0.643155
O O10 0.140800 0.376962 0.721638
O O11 0.888341 0.500000 0.000000
O O12 0.000000 0.595772 0.000000
O O13 0.111312 0.078356 0.929526
O O14 0.000000 0.131699 0.889573
O O15 0.500000 0.000000 0.543883
O O16 0.383852 0.000000 0.500000
O O17 0.500000 0.123677 0.255007
O O18 0.416522 0.000000 0.244444
#
# Coordination Sequence:
#
# PCOD9511796 Si02
#       7
#    32  32  32  16  32  16  32
#     4  10  21  35  55  82 112 144 185 235 280 326
#     4  10  20  34  54  79 113 151 189 228 276 328
#     4  10  19  33  54  79 112 148 189 226 273 331
#     4   9  18  34  58  84 109 145 188 230 278 326
#     4  10  20  34  55  82 111 144 183 229 280 332
#     4   9  18  32  56  84 109 140 179 227 286 340
#     4   9  17  30  53  83 111 144 188 233 275 325
#
# _framework density 18.947769000000001
#
# number of rings (size 3 to 8) (size 9 to 14) (size 15 to 20)
#    0.000    2.333    0.833    2.000    1.167    5.000 
#    0.000    0.833    1.833    6.000    0.000    0.000 
#    0.000    0.000    0.000    0.000    0.000    0.000 
#
# Total GULP energy -267961.300376 kJ/mol
# GULP energy per Si atom -5582.527091 kJ/mol
# Density = 1.890464 g / cm^3
# Si number density = 18.947769 Si / 1000 Ang^3
#
#
#
# Elastic Constant Matrix: (Units=GPa)
#
#
# Indices 1 2 3 4 5 6 
#
# 1 71.1319 37.9345 56.5665 0.0000 0.0000 0.0000
# 2 37.9345 37.2508 43.5602 0.0000 0.0000 0.0000
# 3 56.5665 43.5602 168.3496 0.0000 0.0000 0.0000
# 4 0.0000 0.0000 0.0000 13.4993 0.0000 0.0000
# 5 0.0000 0.0000 0.0000 0.0000 -10.9439 0.0000
# 6 0.0000 0.0000 0.0000 0.0000 0.0000 14.5103
#
#
#
# Elastic Compliance Matrix: (Units=1/GPa)
#
#
# Indices 1 2 3 4 5 6 
#
# 1 0.032018 -0.028713 -0.003329 0.000000 0.000000 0.000000
# 2 -0.028713 0.064241 -0.006974 0.000000 0.000000 0.000000
# 3 -0.003329 -0.006974 0.008863 0.000000 0.000000 0.000000
# 4 0.000000 0.000000 0.000000 0.074078 0.000000 0.000000
# 5 0.000000 0.000000 0.000000 0.000000 -0.091375 0.000000
# 6 0.000000 0.000000 0.000000 0.000000 0.000000 0.068917
#
#
# Mechanical properties :
#
#
# Convention : Reuss Voigt Hill
#
# Bulk Modulus (GPa) = 36.91482 61.42829 49.17156
# Shear Modulus (GPa) = 20.50819 12.65788 16.58303
#
# Velocity S-wave (km/s) = 3.29348 2.58745 2.96158
# Velocity P-wave (km/s) = 5.82987 6.43558 6.14020
#
# Compressibility (1/GPa) = 0.02708939
#
# Stress axis : x y z
#
# Youngs Moduli (GPa) = 31.23214 15.56638 112.82683
#
# Poissons Ratio (x) = 0.44696 0.37558
# Poissons Ratio (y) = 0.89678 0.78690
# Poissons Ratio (z) = 0.10397 0.10857
#
# Static dielectric constant tensor:
#      x y z
#    x 1.648840 0.000000 0.000000 
#    y 0.000000 1.654540 0.000000 
#    z 0.000000 0.000000 1.624400 
# 
# From -- ./inp_files/46426.got.cif
#   From: 2010.05.17/outbox.cif.g08.bks.cpg/sg69_24_cif.got.tgz:46426.got - 2010.06.03 19:29:58.
