data_PCOD9511441
_publ_section_title
;
Structure prediction by ZEFSAII (Michael W. Deem and Ramdas Pophale) SiO2 
 PCOD9511441
Probable space group: F M M M
;
_chemical_formula_sum "Si O2"
_cell_formula_units_Z 128
_cell_length_a 18.177314
_cell_length_b 21.187879
_cell_length_c 17.754811
_cell_angle_alpha 90.000000
_cell_angle_beta 90.000000
_cell_angle_gamma 90.000000
_cell_volume 6838.065352
_symmetry_space_group_name_H-M "F M M M"
_symmetry_group_IT_number 69
_symmetry_cell_setting 'orthorhombic'
loop_
_space_group_symop_operation_xyz
x,y,z
-x,-y,z
x,-y,-z
-x,y,-z
-x,-y,-z
x,y,-z
-x,y,z
x,-y,z
x,1/2+y,1/2+z
-x,1/2-y,1/2+z
x,1/2-y,1/2-z
-x,1/2+y,1/2-z
-x,1/2-y,1/2-z
x,1/2+y,1/2-z
-x,1/2+y,1/2+z
x,1/2-y,1/2+z
1/2+x,y,1/2+z
1/2-x,-y,1/2+z
1/2+x,-y,1/2-z
1/2-x,y,1/2-z
1/2-x,-y,1/2-z
1/2+x,y,1/2-z
1/2-x,y,1/2+z
1/2+x,-y,1/2+z
1/2+x,1/2+y,z
1/2-x,1/2-y,z
1/2+x,1/2-y,-z
1/2-x,1/2+y,-z
1/2-x,1/2-y,-z
1/2+x,1/2+y,-z
1/2-x,1/2+y,z
1/2+x,1/2-y,z
loop_
_atom_site_type_symbol
_atom_site_label
_atom_site_fract_x
_atom_site_fract_y
_atom_site_fract_z
Si Si1 0.088018 0.000000 0.125569
Si Si2 0.087781 0.862383 0.873330
Si Si3 0.832253 0.500000 0.216443
Si Si4 0.332610 0.361188 0.714842
Si Si5 0.663474 0.764851 0.918261
O O1 0.113920 0.931459 0.096687
O O2 0.111681 0.000000 0.213182
O O3 0.000000 0.000000 0.118184
O O4 0.113658 0.858320 0.786423
O O5 0.122257 0.801717 0.912009
O O6 0.000000 0.860440 0.879082
O O7 0.750000 0.500000 0.250000
O O8 0.838591 0.431493 0.179046
O O9 0.250000 0.352530 0.750000
O O10 0.351213 0.309340 0.652849
O O11 0.750000 0.750000 0.915631
O O12 0.646333 0.793964 0.000000
#
# Coordination Sequence:
#
# PCOD9511441 Si02
#       5
#    16  32  16  32  32
#     4   8  16  32  53  82 111 132 170 232 285 320
#     4  10  20  35  59  85 108 140 185 231 275 323
#     4   8  16  28  51  81 103 131 177 224 269 313
#     4  10  18  34  57  79 106 141 180 226 270 322
#     4  11  23  36  50  75 113 151 182 219 270 324
#
# _framework density 18.718744999999998
#
# number of rings (size 3 to 8) (size 9 to 14) (size 15 to 20)
#    0.000    2.250    2.500    0.750    0.000    2.500 
#    0.000    1.250    0.000    5.250    0.000    0.000 
#    0.000   12.000    0.000    0.000    0.000    0.000 
#
# Total GULP energy -178251.480586 kJ/mol
# GULP energy per Si atom -5570.358768 kJ/mol
# Density = 1.867614 g / cm^3
# Si number density = 18.718745 Si / 1000 Ang^3
#
#
#
# Elastic Constant Matrix: (Units=GPa)
#
#
# Indices 1 2 3 4 5 6 
#
# 1 45.3539 27.7313 5.8946 0.0000 0.0000 0.0000
# 2 27.7313 148.8237 48.5999 0.0000 0.0000 0.0000
# 3 5.8946 48.5999 71.9854 0.0000 0.0000 0.0000
# 4 0.0000 0.0000 0.0000 -6.7036 0.0000 0.0000
# 5 0.0000 0.0000 0.0000 0.0000 543.7324 0.0000
# 6 0.0000 0.0000 0.0000 0.0000 0.0000 28.9845
#
#
#
# Elastic Compliance Matrix: (Units=1/GPa)
#
#
# Indices 1 2 3 4 5 6 
#
# 1 0.024995 -0.005117 0.001408 0.000000 0.000000 0.000000
# 2 -0.005117 0.009667 -0.006108 0.000000 0.000000 0.000000
# 3 0.001408 -0.006108 0.017900 0.000000 0.000000 0.000000
# 4 0.000000 0.000000 0.000000 -0.149174 0.000000 0.000000
# 5 0.000000 0.000000 0.000000 0.000000 0.001839 0.000000
# 6 0.000000 0.000000 0.000000 0.000000 0.000000 0.034501
#
#
# Mechanical properties :
#
#
# Convention : Reuss Voigt Hill
#
# Bulk Modulus (GPa) = 30.36904 47.84608 39.10756
# Shear Modulus (GPa) = -168.57023 125.46514 -21.55255
#
# Velocity S-wave (km/s) = -9.49999 8.19585 -3.39689
# Velocity P-wave (km/s) = 10.20166 10.73213 2.35635
#
# Compressibility (1/GPa) = 0.03292828
#
# Stress axis : x y z
#
# Youngs Moduli (GPa) = 40.00840 103.43967 55.86590
#
# Poissons Ratio (x) = 0.52933 -0.07867
# Poissons Ratio (y) = 0.20473 0.34122
# Poissons Ratio (z) = -0.05634 0.63179
#
# Static dielectric constant tensor:
#      x y z
#    x 1.629120 0.000000 0.000000 
#    y 0.000000 1.714800 0.000000 
#    z 0.000000 0.000000 1.625380 
# 
# From -- ./inp_files/24358.got.cif
#   From: 2010.05.17/outbox.cif.g08.bks.cpg/sg69_13_cif.got.tgz:24358.got - 2010.06.03 19:29:58.
