data_PCOD9511080
_publ_section_title
;
Structure prediction by ZEFSAII (Michael W. Deem and Ramdas Pophale) SiO2 
 PCOD9511080
Probable space group: F M M M
;
_chemical_formula_sum "Si O2"
_cell_formula_units_Z 160
_cell_length_a 23.193513
_cell_length_b 14.135445
_cell_length_c 23.432014
_cell_angle_alpha 90.000000
_cell_angle_beta 90.000000
_cell_angle_gamma 90.000000
_cell_volume 7682.200490
_symmetry_space_group_name_H-M "F M M M"
_symmetry_group_IT_number 69
_symmetry_cell_setting 'orthorhombic'
loop_
_space_group_symop_operation_xyz
x,y,z
-x,-y,z
x,-y,-z
-x,y,-z
-x,-y,-z
x,y,-z
-x,y,z
x,-y,z
x,1/2+y,1/2+z
-x,1/2-y,1/2+z
x,1/2-y,1/2-z
-x,1/2+y,1/2-z
-x,1/2-y,1/2-z
x,1/2+y,1/2-z
-x,1/2+y,1/2+z
x,1/2-y,1/2+z
1/2+x,y,1/2+z
1/2-x,-y,1/2+z
1/2+x,-y,1/2-z
1/2-x,y,1/2-z
1/2-x,-y,1/2-z
1/2+x,y,1/2-z
1/2-x,y,1/2+z
1/2+x,-y,1/2+z
1/2+x,1/2+y,z
1/2-x,1/2-y,z
1/2+x,1/2-y,-z
1/2-x,1/2+y,-z
1/2-x,1/2-y,-z
1/2+x,1/2+y,-z
1/2-x,1/2+y,z
1/2+x,1/2-y,z
loop_
_atom_site_type_symbol
_atom_site_label
_atom_site_fract_x
_atom_site_fract_y
_atom_site_fract_z
Si Si1 0.243885 0.610287 0.937614
Si Si2 0.883802 0.606326 0.563976
Si Si3 0.566564 0.107114 0.222880
Si Si4 0.108189 0.711866 0.330456
Si Si5 0.231346 0.614323 0.684677
O O1 0.227221 0.500000 0.939117
O O2 0.313906 0.614799 0.938828
O O3 0.231234 0.642946 0.872218
O O4 0.223819 0.650925 0.000000
O O5 0.905696 0.613776 0.500000
O O6 0.895611 0.500000 0.585968
O O7 0.907948 0.684350 0.605838
O O8 0.500000 0.106789 0.204447
O O9 0.602378 0.178618 0.183987
O O10 0.569898 0.153572 0.285385
O O11 0.588888 0.000000 0.223536
O O12 0.171497 0.669623 0.320584
O O13 0.223343 0.500000 0.679627
O O14 0.250000 0.631959 0.750000
#
# Coordination Sequence:
#
# PCOD9511080 Si02
#       5
#    32  32  32  32  32
#     4   7  10  18  33  56  91 134 173 205 240 285
#     4   8  13  22  41  72 105 134 166 206 253 303
#     4  10  21  36  54  75  97 124 164 214 263 313
#     4  10  17  30  52  75 103 137 168 203 255 313
#     4   9  16  25  41  71 109 142 171 206 249 297
#
# _framework density 20.827366000000001
#
# number of rings (size 3 to 8) (size 9 to 14) (size 15 to 20)
#    0.000    3.200    0.000    5.400    0.000    0.000 
#    0.000    2.000    0.000    4.800    0.000   14.000 
#    0.000   32.000    0.000   23.600    0.000    0.800 
#
# Total GULP energy -222859.862092 kJ/mol
# GULP energy per Si atom -5571.496552 kJ/mol
# Density = 2.077996 g / cm^3
# Si number density = 20.827366 Si / 1000 Ang^3
#
#
#
# Elastic Constant Matrix: (Units=GPa)
#
#
# Indices 1 2 3 4 5 6 
#
# 1 29.1079 14.3348 20.0647 0.0000 0.0000 0.0000
# 2 14.3348 119.5109 33.0896 0.0000 0.0000 0.0000
# 3 20.0647 33.0896 160.9417 0.0000 0.0000 0.0000
# 4 0.0000 0.0000 0.0000 19.4913 0.0000 0.0000
# 5 0.0000 0.0000 0.0000 0.0000 8.7196 0.0000
# 6 0.0000 0.0000 0.0000 0.0000 0.0000 18.2465
#
#
#
# Elastic Compliance Matrix: (Units=1/GPa)
#
#
# Indices 1 2 3 4 5 6 
#
# 1 0.038938 -0.003527 -0.004129 0.000000 0.000000 0.000000
# 2 -0.003527 0.009192 -0.001450 0.000000 0.000000 0.000000
# 3 -0.004129 -0.001450 0.007026 0.000000 0.000000 0.000000
# 4 0.000000 0.000000 0.000000 0.051305 0.000000 0.000000
# 5 0.000000 0.000000 0.000000 0.000000 0.114685 0.000000
# 6 0.000000 0.000000 0.000000 0.000000 0.000000 0.054805
#
#
# Mechanical properties :
#
#
# Convention : Reuss Voigt Hill
#
# Bulk Modulus (GPa) = 27.06834 49.39318 38.23076
# Shear Modulus (GPa) = 16.31434 25.42958 20.87196
#
# Velocity S-wave (km/s) = 2.80181 3.49803 3.16910
# Velocity P-wave (km/s) = 4.84681 6.33103 5.63798
#
# Compressibility (1/GPa) = 0.03694352
#
# Stress axis : x y z
#
# Youngs Moduli (GPa) = 25.68166 108.79008 142.32088
#
# Poissons Ratio (x) = 0.38372 0.58768
# Poissons Ratio (y) = 0.09058 0.20639
# Poissons Ratio (z) = 0.10605 0.15776
#
# Static dielectric constant tensor:
#      x y z
#    x 1.761100 0.000000 0.000000 
#    y 0.000000 1.758800 0.000000 
#    z 0.000000 0.000000 1.845680 
# 
# From -- ./inp_files/37757.got.cif
#   From: 2010.05.17/outbox.cif.g08.bks.cpg/sg69_19_cif.got.tgz:37757.got - 2010.06.03 19:29:58.
