data_PCOD9511371
_publ_section_title
;
Structure prediction by ZEFSAII (Michael W. Deem and Ramdas Pophale) SiO2 
 PCOD9511371
Probable space group: F M M M
;
_chemical_formula_sum "Si O2"
_cell_formula_units_Z 112
_cell_length_a 14.497029
_cell_length_b 29.748223
_cell_length_c 14.042517
_cell_angle_alpha 90.000000
_cell_angle_beta 90.000000
_cell_angle_gamma 90.000000
_cell_volume 6055.987839
_symmetry_space_group_name_H-M "F M M M"
_symmetry_group_IT_number 69
_symmetry_cell_setting 'orthorhombic'
loop_
_space_group_symop_operation_xyz
x,y,z
-x,-y,z
x,-y,-z
-x,y,-z
-x,-y,-z
x,y,-z
-x,y,z
x,-y,z
x,1/2+y,1/2+z
-x,1/2-y,1/2+z
x,1/2-y,1/2-z
-x,1/2+y,1/2-z
-x,1/2-y,1/2-z
x,1/2+y,1/2-z
-x,1/2+y,1/2+z
x,1/2-y,1/2+z
1/2+x,y,1/2+z
1/2-x,-y,1/2+z
1/2+x,-y,1/2-z
1/2-x,y,1/2-z
1/2-x,-y,1/2-z
1/2+x,y,1/2-z
1/2-x,y,1/2+z
1/2+x,-y,1/2+z
1/2+x,1/2+y,z
1/2-x,1/2-y,z
1/2+x,1/2-y,-z
1/2-x,1/2+y,-z
1/2-x,1/2-y,-z
1/2+x,1/2+y,-z
1/2-x,1/2+y,z
1/2+x,1/2-y,z
loop_
_atom_site_type_symbol
_atom_site_label
_atom_site_fract_x
_atom_site_fract_y
_atom_site_fract_z
Si Si1 0.000000 0.335943 0.381440
Si Si2 0.189042 0.616955 0.661436
Si Si3 0.887334 0.446593 0.500000
Si Si4 0.000000 0.729073 0.115190
Si Si5 0.196363 0.205735 0.613225
O O1 0.089213 0.358754 0.334306
O O2 0.000000 0.282385 0.367809
O O3 0.000000 0.341574 0.500000
O O4 0.250000 0.599469 0.750000
O O5 0.163604 0.577101 0.588933
O O6 0.252229 0.659092 0.628668
O O7 0.875276 0.500000 0.500000
O O8 0.000000 0.438752 0.500000
O O9 0.906676 0.707264 0.152949
O O10 0.000000 0.723559 0.000000
O O11 0.189589 0.211355 0.500000
O O12 0.250000 0.250000 0.647427
#
# Coordination Sequence:
#
# PCOD9511371 Si02
#       5
#    16  32  16  16  32
#     4  11  18  39  63  86 128 175 221 264 295 343
#     4  12  23  37  65  97 127 163 208 261 319 374
#     4  11  24  48  77  95 115 157 213 270 327 387
#     4   9  18  29  53  83 121 177 226 257 286 356
#     4  10  18  32  54  84 125 178 218 252 304 362
#
# _framework density 18.494091999999998
#
# number of rings (size 3 to 8) (size 9 to 14) (size 15 to 20)
#    0.000    1.286    7.143    0.000    0.000    2.286 
#    0.000    1.429    0.000    0.000    0.000    4.000 
#    0.000    0.000    0.000    0.000    0.000    0.000 
#
# Total GULP energy -156053.709656 kJ/mol
# GULP energy per Si atom -5573.346773 kJ/mol
# Density = 1.845200 g / cm^3
# Si number density = 18.494092 Si / 1000 Ang^3
#
#
#
# Elastic Constant Matrix: (Units=GPa)
#
#
# Indices 1 2 3 4 5 6 
#
# 1 195.3878 81.9285 61.3428 0.0000 0.0000 0.0000
# 2 81.9285 153.7958 44.1166 0.0000 0.0000 0.0000
# 3 61.3428 44.1166 108.7082 0.0000 0.0000 0.0000
# 4 0.0000 0.0000 0.0000 -44.5517 0.0000 0.0000
# 5 0.0000 0.0000 0.0000 0.0000 13.6393 0.0000
# 6 0.0000 0.0000 0.0000 0.0000 0.0000 30.3519
#
#
#
# Elastic Compliance Matrix: (Units=1/GPa)
#
#
# Indices 1 2 3 4 5 6 
#
# 1 0.007308 -0.003067 -0.002879 0.000000 0.000000 0.000000
# 2 -0.003067 0.008646 -0.001778 0.000000 0.000000 0.000000
# 3 -0.002879 -0.001778 0.011545 0.000000 0.000000 0.000000
# 4 0.000000 0.000000 0.000000 -0.022446 0.000000 0.000000
# 5 0.000000 0.000000 0.000000 0.000000 0.073318 0.000000
# 6 0.000000 0.000000 0.000000 0.000000 0.000000 0.032947
#
#
# Mechanical properties :
#
#
# Convention : Reuss Voigt Hill
#
# Bulk Modulus (GPa) = 82.98312 92.51864 87.75088
# Shear Modulus (GPa) = 38.23117 17.92150 28.07633
#
# Velocity S-wave (km/s) = 4.55159 3.11632 3.90054
# Velocity P-wave (km/s) = 8.51998 7.94249 8.23630
#
# Compressibility (1/GPa) = 0.01205064
#
# Stress axis : x y z
#
# Youngs Moduli (GPa) = 136.83557 115.65935 86.61646
#
# Poissons Ratio (x) = 0.35475 0.24938
# Poissons Ratio (y) = 0.41970 0.15401
# Poissons Ratio (z) = 0.39396 0.20565
#
# Static dielectric constant tensor:
#      x y z
#    x 1.719160 0.000000 0.000000 
#    y 0.000000 1.611420 0.000000 
#    z 0.000000 0.000000 1.755920 
# 
# From -- ./inp_files/14303.got.cif
#   From: 2010.05.17/outbox.cif.g08.bks.cpg/sg69_8_cif.got.tgz:14303.got - 2010.06.03 19:29:58.
