data_PCOD9511229
_publ_section_title
;
Structure prediction by ZEFSAII (Michael W. Deem and Ramdas Pophale) SiO2 
 PCOD9511229
Probable space group: F M M M
;
_chemical_formula_sum "Si O2"
_cell_formula_units_Z 136
_cell_length_a 18.122823
_cell_length_b 17.838873
_cell_length_c 23.302917
_cell_angle_alpha 90.000000
_cell_angle_beta 90.000000
_cell_angle_gamma 90.000000
_cell_volume 7533.617232
_symmetry_space_group_name_H-M "F M M M"
_symmetry_group_IT_number 69
_symmetry_cell_setting 'orthorhombic'
loop_
_space_group_symop_operation_xyz
x,y,z
-x,-y,z
x,-y,-z
-x,y,-z
-x,-y,-z
x,y,-z
-x,y,z
x,-y,z
x,1/2+y,1/2+z
-x,1/2-y,1/2+z
x,1/2-y,1/2-z
-x,1/2+y,1/2-z
-x,1/2-y,1/2-z
x,1/2+y,1/2-z
-x,1/2+y,1/2+z
x,1/2-y,1/2+z
1/2+x,y,1/2+z
1/2-x,-y,1/2+z
1/2+x,-y,1/2-z
1/2-x,y,1/2-z
1/2-x,-y,1/2-z
1/2+x,y,1/2-z
1/2-x,y,1/2+z
1/2+x,-y,1/2+z
1/2+x,1/2+y,z
1/2-x,1/2-y,z
1/2+x,1/2-y,-z
1/2-x,1/2+y,-z
1/2-x,1/2-y,-z
1/2+x,1/2+y,-z
1/2-x,1/2+y,z
1/2+x,1/2-y,z
loop_
_atom_site_type_symbol
_atom_site_label
_atom_site_fract_x
_atom_site_fract_y
_atom_site_fract_z
Si Si1 0.088098 0.581377 0.237111
Si Si2 0.268960 0.660691 0.564977
Si Si3 0.750000 0.250000 0.250000
Si Si4 0.844933 0.843435 0.840544
Si Si5 0.413392 0.311977 0.368246
O O1 0.116709 0.500000 0.217389
O O2 0.113246 0.596771 0.301839
O O3 0.106155 0.647594 0.192282
O O4 0.000000 0.579339 0.236894
O O5 0.261624 0.633241 0.500000
O O6 0.250000 0.750000 0.565523
O O7 0.209174 0.627988 0.609479
O O8 0.352945 0.655909 0.587510
O O9 0.795056 0.198233 0.206757
O O10 0.898525 0.777194 0.863219
O O11 0.500000 0.325731 0.380931
#
# Coordination Sequence:
#
# PCOD9511229 Si02
#       5
#    32  32   8  32  32
#     4  10  20  32  49  77 107 129 157 203 255 302
#     4   9  18  32  49  71  99 130 165 209 248 281
#     4  12  16  28  50  76 100 128 160 202 244 292
#     4  11  17  31  52  72 101 133 165 200 247 297
#     4  10  18  30  50  74  99 130 164 201 248 301
#
# _framework density 18.052416000000001
#
# number of rings (size 3 to 8) (size 9 to 14) (size 15 to 20)
#    0.000    1.882    5.882    0.706    0.000    2.353 
#    0.000    5.294    0.000    4.941    0.000    4.941 
#    0.000    0.000    0.000    0.000    0.000    0.000 
#
# Total GULP energy -189355.173913 kJ/mol
# GULP energy per Si atom -5569.269821 kJ/mol
# Density = 1.801133 g / cm^3
# Si number density = 18.052416 Si / 1000 Ang^3
#
#
#
# Elastic Constant Matrix: (Units=GPa)
#
#
# Indices 1 2 3 4 5 6 
#
# 1 81.1686 16.4021 53.4677 0.0000 0.0000 0.0000
# 2 16.4021 29.7467 6.0388 0.0000 0.0000 0.0000
# 3 53.4677 6.0388 119.7663 0.0000 0.0000 0.0000
# 4 0.0000 0.0000 0.0000 -0.1138 0.0000 0.0000
# 5 0.0000 0.0000 0.0000 0.0000 13.0142 0.0000
# 6 0.0000 0.0000 0.0000 0.0000 0.0000 7.7373
#
#
#
# Elastic Compliance Matrix: (Units=1/GPa)
#
#
# Indices 1 2 3 4 5 6 
#
# 1 0.019639 -0.009143 -0.008307 0.000000 0.000000 0.000000
# 2 -0.009143 0.038221 0.002154 0.000000 0.000000 0.000000
# 3 -0.008307 0.002154 0.011949 0.000000 0.000000 0.000000
# 4 0.000000 0.000000 0.000000 -8.787840 0.000000 0.000000
# 5 0.000000 0.000000 0.000000 0.000000 0.076839 0.000000
# 6 0.000000 0.000000 0.000000 0.000000 0.000000 0.129244
#
#
# Mechanical properties :
#
#
# Convention : Reuss Voigt Hill
#
# Bulk Modulus (GPa) = 25.49728 42.49985 33.99856
# Shear Modulus (GPa) = -0.59044 14.44573 6.92765
#
# Velocity S-wave (km/s) = -0.57252 2.83187 1.96108
# Velocity P-wave (km/s) = 3.70373 5.85544 4.89918
#
# Compressibility (1/GPa) = 0.03921987
#
# Stress axis : x y z
#
# Youngs Moduli (GPa) = 50.91815 26.16362 83.68658
#
# Poissons Ratio (x) = 0.23921 0.69516
# Poissons Ratio (y) = 0.46553 -0.18030
# Poissons Ratio (z) = 0.42296 -0.05637
#
# Static dielectric constant tensor:
#      x y z
#    x 1.649800 0.000000 0.000000 
#    y 0.000000 1.650890 0.000000 
#    z 0.000000 0.000000 1.616070 
# 
# From -- ./inp_files/25600.got.cif
#   From: 2010.05.17/outbox.cif.g08.bks.cpg/sg69_13_cif.got.tgz:25600.got - 2010.06.03 19:29:58.
