data_PCOD9511960
_publ_section_title
;
Structure prediction by ZEFSAII (Michael W. Deem and Ramdas Pophale) SiO2 
 PCOD9511960
Probable space group: F M M M
;
_chemical_formula_sum "Si O2"
_cell_formula_units_Z 120
_cell_length_a 19.029043
_cell_length_b 17.522347
_cell_length_c 18.090406
_cell_angle_alpha 90.000000
_cell_angle_beta 90.000000
_cell_angle_gamma 90.000000
_cell_volume 6031.947290
_symmetry_space_group_name_H-M "F M M M"
_symmetry_group_IT_number 69
_symmetry_cell_setting 'orthorhombic'
loop_
_space_group_symop_operation_xyz
x,y,z
-x,-y,z
x,-y,-z
-x,y,-z
-x,-y,-z
x,y,-z
-x,y,z
x,-y,z
x,1/2+y,1/2+z
-x,1/2-y,1/2+z
x,1/2-y,1/2-z
-x,1/2+y,1/2-z
-x,1/2-y,1/2-z
x,1/2+y,1/2-z
-x,1/2+y,1/2+z
x,1/2-y,1/2+z
1/2+x,y,1/2+z
1/2-x,-y,1/2+z
1/2+x,-y,1/2-z
1/2-x,y,1/2-z
1/2-x,-y,1/2-z
1/2+x,y,1/2-z
1/2-x,y,1/2+z
1/2+x,-y,1/2+z
1/2+x,1/2+y,z
1/2-x,1/2-y,z
1/2+x,1/2-y,-z
1/2-x,1/2+y,-z
1/2-x,1/2-y,-z
1/2+x,1/2+y,-z
1/2-x,1/2+y,z
1/2+x,1/2-y,z
loop_
_atom_site_type_symbol
_atom_site_label
_atom_site_fract_x
_atom_site_fract_y
_atom_site_fract_z
Si Si1 0.333679 0.849364 0.366907
Si Si2 0.750000 0.250000 0.250000
Si Si3 0.415181 0.000000 0.589939
Si Si4 0.921558 0.794860 0.412258
Si Si5 0.312365 0.584952 0.586873
O O1 0.301503 0.807024 0.295034
O O2 0.380733 0.925851 0.370943
O O3 0.380636 0.783986 0.403445
O O4 0.261843 0.872984 0.407547
O O5 0.500000 0.000000 0.595877
O O6 0.398582 0.000000 0.500000
O O7 0.927588 0.807963 0.500000
O O8 0.873387 0.862359 0.380029
O O9 0.000000 0.792180 0.380600
O O10 0.327167 0.577215 0.500000
O O11 0.308237 0.500000 0.619649
#
# Coordination Sequence:
#
# PCOD9511960 Si02
#       5
#    32   8  16  32  32
#     4  12  22  41  62  89 128 167 215 260 302 372
#     4  12  28  42  64  88 124 186 230 250 286 364
#     4  11  24  43  72 106 131 154 198 271 343 382
#     4  10  20  35  59  91 126 161 203 266 333 380
#     4  10  19  34  61  93 121 157 207 267 328 377
#
# _framework density 19.894072999999999
#
# number of rings (size 3 to 8) (size 9 to 14) (size 15 to 20)
#    0.000    1.200    4.000    3.200    0.000    5.333 
#    0.000    5.333    0.000    0.000    0.000    0.000 
#    0.000    0.000    0.000    0.000    0.000    0.000 
#
# Total GULP energy -167160.911816 kJ/mol
# GULP energy per Si atom -5572.030394 kJ/mol
# Density = 1.984879 g / cm^3
# Si number density = 19.894073 Si / 1000 Ang^3
#
#
#
# Elastic Constant Matrix: (Units=GPa)
#
#
# Indices 1 2 3 4 5 6 
#
# 1 186.2082 99.6940 18.7162 0.0000 0.0000 0.0000
# 2 99.6940 160.6061 31.7541 0.0000 0.0000 0.0000
# 3 18.7162 31.7541 41.8163 0.0000 0.0000 0.0000
# 4 0.0000 0.0000 0.0000 29.3739 0.0000 0.0000
# 5 0.0000 0.0000 0.0000 0.0000 50.6059 0.0000
# 6 0.0000 0.0000 0.0000 0.0000 0.0000 581.4127
#
#
#
# Elastic Compliance Matrix: (Units=1/GPa)
#
#
# Indices 1 2 3 4 5 6 
#
# 1 0.008045 -0.005039 0.000225 0.000000 0.000000 0.000000
# 2 -0.005039 0.010482 -0.005704 0.000000 0.000000 0.000000
# 3 0.000225 -0.005704 0.028145 0.000000 0.000000 0.000000
# 4 0.000000 0.000000 0.000000 0.034044 0.000000 0.000000
# 5 0.000000 0.000000 0.000000 0.000000 0.019761 0.000000
# 6 0.000000 0.000000 0.000000 0.000000 0.000000 0.001720
#
#
# Mechanical properties :
#
#
# Convention : Reuss Voigt Hill
#
# Bulk Modulus (GPa) = 39.00664 76.55104 57.77884
# Shear Modulus (GPa) = 37.94268 148.17625 93.05947
#
# Velocity S-wave (km/s) = 4.37193 8.63969 6.84683
# Velocity P-wave (km/s) = 6.71824 11.75111 9.57140
#
# Compressibility (1/GPa) = 0.02563666
#
# Stress axis : x y z
#
# Youngs Moduli (GPa) = 124.29673 95.40298 35.53010
#
# Poissons Ratio (x) = 0.48069 -0.00800
# Poissons Ratio (y) = 0.62627 0.20268
# Poissons Ratio (z) = -0.02799 0.54422
#
# Static dielectric constant tensor:
#      x y z
#    x 1.698000 0.000000 0.000000 
#    y 0.000000 1.722880 0.000000 
#    z 0.000000 0.000000 1.733490 
# 
# From -- ./inp_files/25552.got.cif
#   From: 2010.05.17/outbox.cif.g08.bks.cpg/sg69_13_cif.got.tgz:25552.got - 2010.06.03 19:29:58.
