data_PCOD9511456
_publ_section_title
;
Structure prediction by ZEFSAII (Michael W. Deem and Ramdas Pophale) SiO2 
 PCOD9511456
Probable space group: F M M M
;
_chemical_formula_sum "Si O2"
_cell_formula_units_Z 112
_cell_length_a 22.425575
_cell_length_b 25.771622
_cell_length_c 10.098642
_cell_angle_alpha 90.000000
_cell_angle_beta 90.000000
_cell_angle_gamma 90.000000
_cell_volume 5836.443917
_symmetry_space_group_name_H-M "F M M M"
_symmetry_group_IT_number 69
_symmetry_cell_setting 'orthorhombic'
loop_
_space_group_symop_operation_xyz
x,y,z
-x,-y,z
x,-y,-z
-x,y,-z
-x,-y,-z
x,y,-z
-x,y,z
x,-y,z
x,1/2+y,1/2+z
-x,1/2-y,1/2+z
x,1/2-y,1/2-z
-x,1/2+y,1/2-z
-x,1/2-y,1/2-z
x,1/2+y,1/2-z
-x,1/2+y,1/2+z
x,1/2-y,1/2+z
1/2+x,y,1/2+z
1/2-x,-y,1/2+z
1/2+x,-y,1/2-z
1/2-x,y,1/2-z
1/2-x,-y,1/2-z
1/2+x,y,1/2-z
1/2-x,y,1/2+z
1/2+x,-y,1/2+z
1/2+x,1/2+y,z
1/2-x,1/2-y,z
1/2+x,1/2-y,-z
1/2-x,1/2+y,-z
1/2-x,1/2-y,-z
1/2+x,1/2+y,-z
1/2-x,1/2+y,z
1/2+x,1/2-y,z
loop_
_atom_site_type_symbol
_atom_site_label
_atom_site_fract_x
_atom_site_fract_y
_atom_site_fract_z
Si Si1 0.500000 0.315039 0.140570
Si Si2 0.396555 0.750000 0.250000
Si Si3 0.500000 0.407347 0.658515
Si Si4 0.131181 0.056425 0.339884
Si Si5 0.694237 0.163545 0.156417
O O1 0.558493 0.279692 0.152349
O O2 0.500000 0.353497 0.264024
O O3 0.500000 0.343423 0.000000
O O4 0.355555 0.792596 0.179193
O O5 0.500000 0.398995 0.500000
O O6 0.561345 0.436225 0.693136
O O7 0.134230 0.055804 0.500000
O O8 0.167485 0.107554 0.300285
O O9 0.152335 0.000000 0.291090
O O10 0.750000 0.175621 0.250000
O O11 0.709688 0.161690 0.000000
#
# Coordination Sequence:
#
# PCOD9511456 Si02
#       5
#    16  16  16  32  32
#     4  11  23  36  60  92 121 152 189 240 300 351
#     4  11  23  40  60  86 117 161 194 240 286 361
#     4  10  18  35  61  90 120 152 191 236 291 357
#     4   9  18  35  61  90 117 150 194 241 289 349
#     4  11  24  41  61  86 117 156 202 247 290 343
#
# _framework density 19.189765999999999
#
# number of rings (size 3 to 8) (size 9 to 14) (size 15 to 20)
#    0.000    1.714    2.857    1.714    0.000    8.000 
#    0.000    0.000    0.000    3.429    0.000    0.000 
#    0.000    0.000    0.000    0.000    0.000    0.000 
#
# Total GULP energy -156229.777803 kJ/mol
# GULP energy per Si atom -5579.634922 kJ/mol
# Density = 1.914609 g / cm^3
# Si number density = 19.189766 Si / 1000 Ang^3
#
#
#
# Elastic Constant Matrix: (Units=GPa)
#
#
# Indices 1 2 3 4 5 6 
#
# 1 96.2586 36.8571 32.3979 0.0000 0.0000 0.0000
# 2 36.8571 125.7187 21.5509 0.0000 0.0000 0.0000
# 3 32.3979 21.5509 59.8806 0.0000 0.0000 0.0000
# 4 0.0000 0.0000 0.0000 18.8930 0.0000 0.0000
# 5 0.0000 0.0000 0.0000 0.0000 -29.1396 0.0000
# 6 0.0000 0.0000 0.0000 0.0000 0.0000 -0.2422
#
#
#
# Elastic Compliance Matrix: (Units=1/GPa)
#
#
# Indices 1 2 3 4 5 6 
#
# 1 0.013634 -0.002912 -0.006328 0.000000 0.000000 0.000000
# 2 -0.002912 0.009099 -0.001699 0.000000 0.000000 0.000000
# 3 -0.006328 -0.001699 0.020735 0.000000 0.000000 0.000000
# 4 0.000000 0.000000 0.000000 0.052930 0.000000 -0.000001
# 5 0.000000 0.000000 0.000000 0.000000 -0.034318 0.000000
# 6 0.000000 0.000000 0.000000 -0.000001 0.000000 -4.129591
#
#
# Mechanical properties :
#
#
# Convention : Reuss Voigt Hill
#
# Bulk Modulus (GPa) = 46.32007 51.49664 48.90836
# Shear Modulus (GPa) = -1.23810 10.63904 4.70047
#
# Velocity S-wave (km/s) = -0.80411 2.35715 1.56677
# Velocity P-wave (km/s) = 4.82993 5.85679 5.36797
#
# Compressibility (1/GPa) = 0.02158891
#
# Stress axis : x y z
#
# Youngs Moduli (GPa) = 73.34773 109.89832 48.22688
#
# Poissons Ratio (x) = 0.32005 0.30519
# Poissons Ratio (y) = 0.21360 0.08195
# Poissons Ratio (z) = 0.46417 0.18674
#
# Static dielectric constant tensor:
#      x y z
#    x 1.660540 0.000000 0.000000 
#    y 0.000000 1.703170 0.000000 
#    z 0.000000 0.000000 1.646990 
# 
# From -- ./inp_files/10052.got.cif
#   From: 2010.05.17/outbox.cif.g08.bks.cpg/sg69_6_cif.got.tgz:10052.got - 2010.06.03 19:29:58.
