data_PCOD9511709
_publ_section_title
;
Structure prediction by ZEFSAII (Michael W. Deem and Ramdas Pophale) SiO2 
 PCOD9511709
Probable space group: F M M M
;
_chemical_formula_sum "Si O2"
_cell_formula_units_Z 176
_cell_length_a 18.143828
_cell_length_b 18.515618
_cell_length_c 28.099869
_cell_angle_alpha 90.000000
_cell_angle_beta 90.000000
_cell_angle_gamma 90.000000
_cell_volume 9439.987683
_symmetry_space_group_name_H-M "F M M M"
_symmetry_group_IT_number 69
_symmetry_cell_setting 'orthorhombic'
loop_
_space_group_symop_operation_xyz
x,y,z
-x,-y,z
x,-y,-z
-x,y,-z
-x,-y,-z
x,y,-z
-x,y,z
x,-y,z
x,1/2+y,1/2+z
-x,1/2-y,1/2+z
x,1/2-y,1/2-z
-x,1/2+y,1/2-z
-x,1/2-y,1/2-z
x,1/2+y,1/2-z
-x,1/2+y,1/2+z
x,1/2-y,1/2+z
1/2+x,y,1/2+z
1/2-x,-y,1/2+z
1/2+x,-y,1/2-z
1/2-x,y,1/2-z
1/2-x,-y,1/2-z
1/2+x,y,1/2-z
1/2-x,y,1/2+z
1/2+x,-y,1/2+z
1/2+x,1/2+y,z
1/2-x,1/2-y,z
1/2+x,1/2-y,-z
1/2-x,1/2+y,-z
1/2-x,1/2-y,-z
1/2+x,1/2+y,-z
1/2-x,1/2+y,z
1/2+x,1/2-y,z
loop_
_atom_site_type_symbol
_atom_site_label
_atom_site_fract_x
_atom_site_fract_y
_atom_site_fract_z
Si Si1 0.414331 0.414520 0.732710
Si Si2 0.823806 0.653782 0.681677
Si Si3 0.155662 0.083763 0.916711
Si Si4 0.793000 0.325921 0.052669
Si Si5 0.500000 0.417973 0.056164
Si Si6 0.345679 0.816926 0.157653
O O1 0.500000 0.407325 0.747484
O O2 0.398309 0.500000 0.727593
O O3 0.360267 0.377993 0.771238
O O4 0.400756 0.370589 0.684101
O O5 0.837671 0.597725 0.639205
O O6 0.735681 0.665991 0.679776
O O7 0.858055 0.732333 0.669028
O O8 0.226754 0.117225 0.941418
O O9 0.077089 0.118004 0.930521
O O10 0.152908 0.000000 0.929222
O O11 0.750000 0.250000 0.055148
O O12 0.841191 0.328878 0.100709
O O13 0.827492 0.332612 0.000000
O O14 0.500000 0.500000 0.077635
O O15 0.500000 0.424977 0.000000
#
# Coordination Sequence:
#
# PCOD9511709 Si02
#       6
#    32  32  32  32  16  32
#     4  11  25  40  57  83 116 153 194 240 285 335
#     4  10  20  37  58  86 114 147 188 234 286 347
#     4  10  19  32  53  82 114 149 189 233 281 341
#     4  10  19  36  59  83 114 149 187 235 284 334
#     4   9  18  30  44  72 115 152 179 223 283 338
#     4  10  20  39  59  87 113 150 187 236 290 343
#
# _framework density 18.644092000000001
#
# number of rings (size 3 to 8) (size 9 to 14) (size 15 to 20)
#    0.000    1.909    3.636    2.182    1.273    8.364 
#    0.000    0.000    0.000    0.545    0.000    1.273 
#    0.000    0.000    0.000    0.000    0.000    0.000 
#
# Total GULP energy -245264.526519 kJ/mol
# GULP energy per Si atom -5574.193785 kJ/mol
# Density = 1.860166 g / cm^3
# Si number density = 18.644092 Si / 1000 Ang^3
#
#
#
# Elastic Constant Matrix: (Units=GPa)
#
#
# Indices 1 2 3 4 5 6 
#
# 1 14.5971 15.8474 11.7917 0.0000 0.0000 0.0000
# 2 15.8474 67.7602 18.5786 0.0000 0.0000 0.0000
# 3 11.7917 18.5786 116.6071 0.0000 0.0000 0.0000
# 4 0.0000 0.0000 0.0000 3.7497 0.0000 0.0000
# 5 0.0000 0.0000 0.0000 0.0000 4.9239 0.0000
# 6 0.0000 0.0000 0.0000 0.0000 0.0000 15.1975
#
#
#
# Elastic Compliance Matrix: (Units=1/GPa)
#
#
# Indices 1 2 3 4 5 6 
#
# 1 0.096214 -0.020740 -0.006425 0.000000 0.000000 0.000000
# 2 -0.020740 0.019903 -0.001074 0.000000 0.000000 0.000000
# 3 -0.006425 -0.001074 0.009397 0.000000 0.000000 0.000000
# 4 0.000000 0.000000 0.000000 0.266688 0.000000 0.000000
# 5 0.000000 0.000000 0.000000 0.000000 0.203093 0.000000
# 6 0.000000 0.000000 0.000000 0.000000 0.000000 0.065800
#
#
# Mechanical properties :
#
#
# Convention : Reuss Voigt Hill
#
# Bulk Modulus (GPa) = 14.48533 32.37776 23.43155
# Shear Modulus (GPa) = 6.75142 14.95732 10.85437
#
# Velocity S-wave (km/s) = 1.90501 2.83548 2.41548
# Velocity P-wave (km/s) = 3.55317 5.30320 4.51381
#
# Compressibility (1/GPa) = 0.06903535
#
# Stress axis : x y z
#
# Youngs Moduli (GPa) = 10.39347 50.24365 106.42147
#
# Poissons Ratio (x) = 1.04208 0.68376
# Poissons Ratio (y) = 0.21557 0.11427
# Poissons Ratio (z) = 0.06678 0.05395
#
# Static dielectric constant tensor:
#      x y z
#    x 13.363840 0.000000 0.000000 
#    y 0.000000 1.655630 0.000000 
#    z 0.000000 0.000000 1.673830 
# 
# From -- ./inp_files/46389.got.cif
#   From: 2010.05.17/outbox.cif.g08.bks.cpg/sg69_24_cif.got.tgz:46389.got - 2010.06.03 19:29:58.
