data_PCOD9511931
_publ_section_title
;
Structure prediction by ZEFSAII (Michael W. Deem and Ramdas Pophale) SiO2 
 PCOD9511931
Probable space group: F M M M
;
_chemical_formula_sum "Si O2"
_cell_formula_units_Z 144
_cell_length_a 17.866819
_cell_length_b 14.873532
_cell_length_c 24.366813
_cell_angle_alpha 90.000000
_cell_angle_beta 90.000000
_cell_angle_gamma 90.000000
_cell_volume 6475.302778
_symmetry_space_group_name_H-M "F M M M"
_symmetry_group_IT_number 69
_symmetry_cell_setting 'orthorhombic'
loop_
_space_group_symop_operation_xyz
x,y,z
-x,-y,z
x,-y,-z
-x,y,-z
-x,-y,-z
x,y,-z
-x,y,z
x,-y,z
x,1/2+y,1/2+z
-x,1/2-y,1/2+z
x,1/2-y,1/2-z
-x,1/2+y,1/2-z
-x,1/2-y,1/2-z
x,1/2+y,1/2-z
-x,1/2+y,1/2+z
x,1/2-y,1/2+z
1/2+x,y,1/2+z
1/2-x,-y,1/2+z
1/2+x,-y,1/2-z
1/2-x,y,1/2-z
1/2-x,-y,1/2-z
1/2+x,y,1/2-z
1/2-x,y,1/2+z
1/2+x,-y,1/2+z
1/2+x,1/2+y,z
1/2-x,1/2-y,z
1/2+x,1/2-y,-z
1/2-x,1/2+y,-z
1/2-x,1/2-y,-z
1/2+x,1/2+y,-z
1/2-x,1/2+y,z
1/2+x,1/2-y,z
loop_
_atom_site_type_symbol
_atom_site_label
_atom_site_fract_x
_atom_site_fract_y
_atom_site_fract_z
Si Si1 0.634420 0.895485 0.634861
Si Si2 0.914380 0.609091 0.132797
Si Si3 0.500000 0.110788 0.438035
Si Si4 0.336885 0.109842 0.246318
Si Si5 0.773600 0.853402 0.438017
O O1 0.573585 0.857141 0.593490
O O2 0.630112 0.857066 0.695905
O O3 0.715856 0.892921 0.606779
O O4 0.614697 0.000000 0.641227
O O5 0.915031 0.500000 0.133080
O O6 0.879050 0.638180 0.191316
O O7 0.856891 0.637052 0.085322
O O8 0.000000 0.639530 0.126429
O O9 0.500000 0.142465 0.500000
O O10 0.500000 0.000000 0.439975
O O11 0.250000 0.135982 0.250000
O O12 0.338319 0.000000 0.246114
O O13 0.765808 0.890865 0.500000
O O14 0.750000 0.750000 0.440571
#
# Coordination Sequence:
#
# PCOD9511931 Si02
#       5
#    32  32  16  32  32
#     4  10  19  34  58  84 112 147 189 239 288 345
#     4  10  21  38  63  94 123 152 195 250 301 357
#     4   9  18  30  48  80 111 136 178 234 283 328
#     4   9  16  30  55  87 116 145 185 233 290 345
#     4  11  24  41  58  80 113 157 203 244 297 360
#
# _framework density 22.238343
#
# number of rings (size 3 to 8) (size 9 to 14) (size 15 to 20)
#    0.000    2.111    2.222    1.333    1.556    3.111 
#    2.000    3.333    0.000    1.333    0.000    0.000 
#    0.000    0.000    0.000    0.000    0.000    0.000 
#
# Total GULP energy -201111.687605 kJ/mol
# GULP energy per Si atom -5586.435767 kJ/mol
# Density = 2.218773 g / cm^3
# Si number density = 22.238343 Si / 1000 Ang^3
#
#
#
# Elastic Constant Matrix: (Units=GPa)
#
#
# Indices 1 2 3 4 5 6 
#
# 1 129.5932 3.8476 23.1227 0.0000 0.0000 0.0000
# 2 3.8476 54.7011 2.4821 0.0000 0.0000 0.0000
# 3 23.1227 2.4821 109.2391 0.0000 0.0000 0.0000
# 4 0.0000 0.0000 0.0000 1.8813 0.0000 0.0000
# 5 0.0000 0.0000 0.0000 0.0000 38.7881 0.0000
# 6 0.0000 0.0000 0.0000 0.0000 0.0000 11.3169
#
#
#
# Elastic Compliance Matrix: (Units=1/GPa)
#
#
# Indices 1 2 3 4 5 6 
#
# 1 0.008032 -0.000488 -0.001689 0.000000 0.000000 0.000000
# 2 -0.000488 0.018330 -0.000313 0.000000 0.000000 0.000000
# 3 -0.001689 -0.000313 0.009519 0.000000 0.000000 0.000000
# 4 0.000000 0.000000 0.000000 0.531535 0.000000 0.000000
# 5 0.000000 0.000000 0.000000 0.000000 0.025781 0.000000
# 6 0.000000 0.000000 0.000000 0.000000 0.000000 0.088364
#
#
# Mechanical properties :
#
#
# Convention : Reuss Voigt Hill
#
# Bulk Modulus (GPa) = 32.36268 39.15980 35.76124
# Shear Modulus (GPa) = 7.17523 28.00266 17.58894
#
# Velocity S-wave (km/s) = 1.79820 3.55238 2.81540
# Velocity P-wave (km/s) = 4.34691 5.87139 5.16570
#
# Compressibility (1/GPa) = 0.03089979
#
# Stress axis : x y z
#
# Youngs Moduli (GPa) = 124.49678 54.55624 105.05435
#
# Poissons Ratio (x) = 0.02664 0.17745
# Poissons Ratio (y) = 0.06080 0.03289
# Poissons Ratio (z) = 0.21029 0.01708
#
# Static dielectric constant tensor:
#      x y z
#    x 1.840660 0.000000 0.000000 
#    y 0.000000 1.854190 0.000000 
#    z 0.000000 0.000000 1.829410 
# 
# From -- ./inp_files/36478.got.cif
#   From: 2010.05.17/outbox.cif.g08.bks.cpg/sg69_19_cif.got.tgz:36478.got - 2010.06.03 19:29:58.
