data_PCOD9511837
_publ_section_title
;
Structure prediction by ZEFSAII (Michael W. Deem and Ramdas Pophale) SiO2 
 PCOD9511837
Probable space group: F M M M
;
_chemical_formula_sum "Si O2"
_cell_formula_units_Z 160
_cell_length_a 28.771046
_cell_length_b 16.452442
_cell_length_c 15.624858
_cell_angle_alpha 90.000000
_cell_angle_beta 90.000000
_cell_angle_gamma 90.000000
_cell_volume 7396.088496
_symmetry_space_group_name_H-M "F M M M"
_symmetry_group_IT_number 69
_symmetry_cell_setting 'orthorhombic'
loop_
_space_group_symop_operation_xyz
x,y,z
-x,-y,z
x,-y,-z
-x,y,-z
-x,-y,-z
x,y,-z
-x,y,z
x,-y,z
x,1/2+y,1/2+z
-x,1/2-y,1/2+z
x,1/2-y,1/2-z
-x,1/2+y,1/2-z
-x,1/2-y,1/2-z
x,1/2+y,1/2-z
-x,1/2+y,1/2+z
x,1/2-y,1/2+z
1/2+x,y,1/2+z
1/2-x,-y,1/2+z
1/2+x,-y,1/2-z
1/2-x,y,1/2-z
1/2-x,-y,1/2-z
1/2+x,y,1/2-z
1/2-x,y,1/2+z
1/2+x,-y,1/2+z
1/2+x,1/2+y,z
1/2-x,1/2-y,z
1/2+x,1/2-y,-z
1/2-x,1/2+y,-z
1/2-x,1/2-y,-z
1/2+x,1/2+y,-z
1/2-x,1/2+y,z
1/2+x,1/2-y,z
loop_
_atom_site_type_symbol
_atom_site_label
_atom_site_fract_x
_atom_site_fract_y
_atom_site_fract_z
Si Si1 0.264717 0.411846 0.850800
Si Si2 0.812155 0.300526 0.093049
Si Si3 0.861645 0.847575 0.164842
Si Si4 0.947685 0.248903 0.854721
Si Si5 0.891917 0.094079 0.352872
O O1 0.248801 0.500000 0.881968
O O2 0.250000 0.407330 0.750000
O O3 0.238456 0.336543 0.892270
O O4 0.319928 0.405290 0.865058
O O5 0.832961 0.237936 0.161614
O O6 0.845430 0.379251 0.098516
O O7 0.817060 0.262142 0.000000
O O8 0.909202 0.818143 0.118948
O O9 0.878843 0.886413 0.253802
O O10 0.947209 0.250000 0.750000
O O11 0.930298 0.339058 0.879653
O O12 0.000000 0.232221 0.883007
O O13 0.904148 0.000000 0.363783
#
# Coordination Sequence:
#
# PCOD9511837 Si02
#       5
#    32  32  32  32  32
#     4  11  22  34  54  81 111 148 188 227 272 331
#     4  11  23  37  55  82 115 150 185 228 279 327
#     4  10  20  35  57  79 108 147 192 230 266 333
#     4   8  16  31  51  79 111 143 181 232 282 324
#     4  10  19  33  56  84 111 148 188 225 275 335
#
# _framework density 21.633056
#
# number of rings (size 3 to 8) (size 9 to 14) (size 15 to 20)
#    0.000    2.000    2.000    3.600    0.000    4.400 
#    0.000    0.000    0.000   13.200    0.000    5.600 
#    0.000    0.000    0.000   75.000    0.000    0.000 
#
# Total GULP energy -222858.308844 kJ/mol
# GULP energy per Si atom -5571.457721 kJ/mol
# Density = 2.158382 g / cm^3
# Si number density = 21.633056 Si / 1000 Ang^3
#
#
#
# Elastic Constant Matrix: (Units=GPa)
#
#
# Indices 1 2 3 4 5 6 
#
# 1 155.4409 27.1853 -1.1955 0.0000 0.0000 0.0000
# 2 27.1853 113.2550 13.2104 0.0000 0.0000 0.0000
# 3 -1.1955 13.2104 47.7154 0.0000 0.0000 0.0000
# 4 0.0000 0.0000 0.0000 -1.9178 0.0000 0.0000
# 5 0.0000 0.0000 0.0000 0.0000 -7.8497 0.0000
# 6 0.0000 0.0000 0.0000 0.0000 0.0000 23.9383
#
#
#
# Elastic Compliance Matrix: (Units=1/GPa)
#
#
# Indices 1 2 3 4 5 6 
#
# 1 0.006734 -0.001691 0.000637 0.000000 0.000000 0.000000
# 2 -0.001691 0.009549 -0.002686 0.000000 0.000000 0.000000
# 3 0.000637 -0.002686 0.021717 0.000000 0.000000 0.000000
# 4 0.000000 0.000000 0.000000 -0.521417 0.000000 0.000000
# 5 0.000000 0.000000 0.000000 0.000000 -0.127393 0.000000
# 6 0.000000 0.000000 0.000000 0.000000 0.000000 0.041774
#
#
# Mechanical properties :
#
#
# Convention : Reuss Voigt Hill
#
# Bulk Modulus (GPa) = 32.76533 43.86799 38.31666
# Shear Modulus (GPa) = -9.06810 21.31489 6.12340
#
# Velocity S-wave (km/s) = -2.04960 3.14234 1.68426
# Velocity P-wave (km/s) = 3.09478 5.78688 4.64035
#
# Compressibility (1/GPa) = 0.03052007
#
# Stress axis : x y z
#
# Youngs Moduli (GPa) = 148.50253 104.72574 46.04652
#
# Poissons Ratio (x) = 0.17706 -0.02932
# Poissons Ratio (y) = 0.25107 0.12368
# Poissons Ratio (z) = -0.09456 0.28129
#
# Static dielectric constant tensor:
#      x y z
#    x 1.834140 0.000000 0.000000 
#    y 0.000000 1.798970 0.000000 
#    z 0.000000 0.000000 1.832030 
# 
# From -- ./inp_files/27606.got.cif
#   From: 2010.05.17/outbox.cif.g08.bks.cpg/sg69_14_cif.got.tgz:27606.got - 2010.06.03 19:29:58.
