data_PCOD9511139
_publ_section_title
;
Structure prediction by ZEFSAII (Michael W. Deem and Ramdas Pophale) SiO2 
 PCOD9511139
Probable space group: F M M M
;
_chemical_formula_sum "Si O2"
_cell_formula_units_Z 136
_cell_length_a 19.433894
_cell_length_b 17.252142
_cell_length_c 20.002021
_cell_angle_alpha 90.000000
_cell_angle_beta 90.000000
_cell_angle_gamma 90.000000
_cell_volume 6706.203571
_symmetry_space_group_name_H-M "F M M M"
_symmetry_group_IT_number 69
_symmetry_cell_setting 'orthorhombic'
loop_
_space_group_symop_operation_xyz
x,y,z
-x,-y,z
x,-y,-z
-x,y,-z
-x,-y,-z
x,y,-z
-x,y,z
x,-y,z
x,1/2+y,1/2+z
-x,1/2-y,1/2+z
x,1/2-y,1/2-z
-x,1/2+y,1/2-z
-x,1/2-y,1/2-z
x,1/2+y,1/2-z
-x,1/2+y,1/2+z
x,1/2-y,1/2+z
1/2+x,y,1/2+z
1/2-x,-y,1/2+z
1/2+x,-y,1/2-z
1/2-x,y,1/2-z
1/2-x,-y,1/2-z
1/2+x,y,1/2-z
1/2-x,y,1/2+z
1/2+x,-y,1/2+z
1/2+x,1/2+y,z
1/2-x,1/2-y,z
1/2+x,1/2-y,-z
1/2-x,1/2+y,-z
1/2-x,1/2-y,-z
1/2+x,1/2+y,-z
1/2-x,1/2+y,z
1/2+x,1/2-y,z
loop_
_atom_site_type_symbol
_atom_site_label
_atom_site_fract_x
_atom_site_fract_y
_atom_site_fract_z
Si Si1 0.610695 0.409416 0.500000
Si Si2 0.119614 0.647067 0.604633
Si Si3 0.829663 0.155035 0.751505
Si Si4 0.763015 0.842124 0.000000
Si Si5 0.423234 0.175625 0.867882
Si Si6 0.500000 0.394327 0.000000
O O1 0.603720 0.500000 0.500000
O O2 0.690756 0.384705 0.500000
O O3 0.577199 0.373478 0.434643
O O4 0.132855 0.624706 0.681651
O O5 0.190948 0.638827 0.564607
O O6 0.100916 0.738574 0.609807
O O7 0.060441 0.608936 0.559187
O O8 0.830185 0.250000 0.750000
O O9 0.750000 0.130902 0.750000
O O10 0.872061 0.137052 0.685067
O O11 0.750000 0.750000 0.000000
O O12 0.500000 0.182714 0.839001
#
# Coordination Sequence:
#
# PCOD9511139 Si02
#       6
#    16  32  32  16  32   8
#     4  12  25  39  57  84 123 161 205 246 292 364
#     4  10  19  30  54  84 119 148 195 249 309 357
#     4   9  19  31  49  78 117 156 198 246 304 358
#     4  11  19  33  60  83 109 161 199 249 298 351
#     4  11  21  33  55  82 118 163 199 244 302 360
#     4  10  18  28  44  82 120 140 176 244 310 370
#
# _framework density 20.279731000000002
#
# number of rings (size 3 to 8) (size 9 to 14) (size 15 to 20)
#    0.000    1.647    3.529    2.471    4.941    2.353 
#    0.000    0.000    0.000    6.353    0.000    6.588 
#    0.000    0.000    0.000    0.000    0.000    0.000 
#
# Total GULP energy -189305.941730 kJ/mol
# GULP energy per Si atom -5567.821816 kJ/mol
# Density = 2.023357 g / cm^3
# Si number density = 20.279731 Si / 1000 Ang^3
#
#
#
# Elastic Constant Matrix: (Units=GPa)
#
#
# Indices 1 2 3 4 5 6 
#
# 1 132.4452 -5.1480 51.6331 0.0000 0.0000 0.0000
# 2 -5.1480 17.2194 4.4656 0.0000 0.0000 0.0000
# 3 51.6331 4.4656 156.1393 0.0000 0.0000 0.0000
# 4 0.0000 0.0000 0.0000 -10.1092 0.0000 0.0000
# 5 0.0000 0.0000 0.0000 0.0000 33.5789 0.0000
# 6 0.0000 0.0000 0.0000 0.0000 0.0000 100.3927
#
#
#
# Elastic Compliance Matrix: (Units=1/GPa)
#
#
# Indices 1 2 3 4 5 6 
#
# 1 0.008865 0.003436 -0.003030 0.000000 0.000000 0.000000
# 2 0.003436 0.059840 -0.002848 0.000000 0.000000 0.000000
# 3 -0.003030 -0.002848 0.007488 0.000000 0.000000 0.000000
# 4 0.000000 0.000000 0.000000 -0.098919 0.000000 0.000000
# 5 0.000000 0.000000 0.000000 0.000000 0.029781 0.000000
# 6 0.000000 0.000000 0.000000 0.000000 0.000000 0.009961
#
#
# Mechanical properties :
#
#
# Convention : Reuss Voigt Hill
#
# Bulk Modulus (GPa) = 14.02335 45.30059 29.66197
# Shear Modulus (GPa) = 109.48741 41.76269 75.62505
#
# Velocity S-wave (km/s) = 7.35566 4.54291 6.11326
# Velocity P-wave (km/s) = 8.89219 7.06426 8.03040
#
# Compressibility (1/GPa) = 0.07130966
#
# Stress axis : x y z
#
# Youngs Moduli (GPa) = 112.80320 16.71134 133.54889
#
# Poissons Ratio (x) = -0.05742 0.40463
# Poissons Ratio (y) = -0.38759 0.38030
# Poissons Ratio (z) = 0.34177 0.04759
#
# Static dielectric constant tensor:
#      x y z
#    x 1.711740 0.000000 0.000000 
#    y 0.000000 1.699500 0.000000 
#    z 0.000000 0.000000 1.713270 
# 
# From -- ./inp_files/22610.got.cif
#   From: 2010.05.17/outbox.cif.g08.bks.cpg/sg69_12_cif.got.tgz:22610.got - 2010.06.03 19:29:58.
