data_PCOD9511027
_publ_section_title
;
Structure prediction by ZEFSAII (Michael W. Deem and Ramdas Pophale) SiO2 
 PCOD9511027
Probable space group: F M M M
;
_chemical_formula_sum "Si O2"
_cell_formula_units_Z 104
_cell_length_a 23.156006
_cell_length_b 22.759421
_cell_length_c 10.106905
_cell_angle_alpha 90.000000
_cell_angle_beta 90.000000
_cell_angle_gamma 90.000000
_cell_volume 5326.513676
_symmetry_space_group_name_H-M "F M M M"
_symmetry_group_IT_number 69
_symmetry_cell_setting 'orthorhombic'
loop_
_space_group_symop_operation_xyz
x,y,z
-x,-y,z
x,-y,-z
-x,y,-z
-x,-y,-z
x,y,-z
-x,y,z
x,-y,z
x,1/2+y,1/2+z
-x,1/2-y,1/2+z
x,1/2-y,1/2-z
-x,1/2+y,1/2-z
-x,1/2-y,1/2-z
x,1/2+y,1/2-z
-x,1/2+y,1/2+z
x,1/2-y,1/2+z
1/2+x,y,1/2+z
1/2-x,-y,1/2+z
1/2+x,-y,1/2-z
1/2-x,y,1/2-z
1/2-x,-y,1/2-z
1/2+x,y,1/2-z
1/2-x,y,1/2+z
1/2+x,-y,1/2+z
1/2+x,1/2+y,z
1/2-x,1/2-y,z
1/2+x,1/2-y,-z
1/2-x,1/2+y,-z
1/2-x,1/2-y,-z
1/2+x,1/2+y,-z
1/2-x,1/2+y,z
1/2+x,1/2-y,z
loop_
_atom_site_type_symbol
_atom_site_label
_atom_site_fract_x
_atom_site_fract_y
_atom_site_fract_z
Si Si1 0.250000 0.750000 0.250000
Si Si2 0.604571 0.680304 0.000000
Si Si3 0.933372 0.374337 0.765128
Si Si4 0.361796 0.681522 0.500000
Si Si5 0.070005 0.000000 0.151911
Si Si6 0.776457 0.177404 0.000000
O O1 0.216750 0.709982 0.356205
O O2 0.570391 0.663187 0.869266
O O3 0.622418 0.749036 0.000000
O O4 0.664331 0.641488 0.000000
O O5 0.914674 0.440486 0.727825
O O6 0.000000 0.375113 0.811810
O O7 0.891321 0.346547 0.872247
O O8 0.292775 0.667353 0.500000
O O9 0.000000 0.000000 0.144811
O O10 0.090783 0.000000 0.000000
#
# Coordination Sequence:
#
# PCOD9511027 Si02
#       6
#     8  16  32  16  16  16
#     4  10  16  34  56  74 106 152 216 234 248 324
#     4  12  22  37  63  88 126 157 198 241 290 361
#     4  11  24  39  62  89 117 161 197 244 301 347
#     4  12  24  37  57  90 132 153 188 245 300 363
#     4   9  18  41  65  82 108 151 218 249 268 350
#     4  11  22  36  58  85 114 165 208 232 279 340
#
# _framework density 19.524965999999999
#
# number of rings (size 3 to 8) (size 9 to 14) (size 15 to 20)
#    0.000    1.077    4.615    3.692    0.000    4.308 
#    0.000    2.308    0.000    5.538    0.000    0.000 
#    0.000    0.000    0.000    0.000    0.000    0.000 
#
# Total GULP energy -144777.746376 kJ/mol
# GULP energy per Si atom -5568.374861 kJ/mol
# Density = 1.948053 g / cm^3
# Si number density = 19.524966 Si / 1000 Ang^3
#
#
#
# Elastic Constant Matrix: (Units=GPa)
#
#
# Indices 1 2 3 4 5 6 
#
# 1 103.0639 35.0510 33.0908 0.0004 -0.0001 0.0000
# 2 35.0510 107.1022 43.0466 0.0003 -0.0001 0.0000
# 3 33.0908 43.0466 142.7369 0.0017 -0.0003 0.0000
# 4 0.0004 0.0003 0.0017 225.5566 0.0008 0.0003
# 5 -0.0001 -0.0001 -0.0003 0.0008 67.7360 0.0005
# 6 0.0000 0.0000 0.0000 0.0003 0.0005 -6.4536
#
#
#
# Elastic Compliance Matrix: (Units=1/GPa)
#
#
# Indices 1 2 3 4 5 6 
#
# 1 0.011272 -0.003003 -0.001708 0.000000 0.000000 0.000000
# 2 -0.003003 0.011425 -0.002749 0.000000 0.000000 0.000000
# 3 -0.001708 -0.002749 0.008231 0.000000 0.000000 0.000000
# 4 0.000000 0.000000 0.000000 0.004433 0.000000 0.000000
# 5 0.000000 0.000000 0.000000 0.000000 0.014763 0.000001
# 6 0.000000 0.000000 0.000000 0.000000 0.000001 -0.154953
#
#
# Mechanical properties :
#
#
# Convention : Reuss Voigt Hill
#
# Bulk Modulus (GPa) = 62.46743 63.91998 63.19370
# Shear Modulus (GPa) = -59.12056 73.48211 7.18077
#
# Velocity S-wave (km/s) = -5.50865 6.14139 1.91982
# Velocity P-wave (km/s) = 2.89779 9.11578 6.11148
#
# Compressibility (1/GPa) = 0.01600834
#
# Stress axis : x y z
#
# Youngs Moduli (GPa) = 88.71404 87.53084 121.49292
#
# Poissons Ratio (x) = 0.26282 0.20747
# Poissons Ratio (y) = 0.26638 0.33402
# Poissons Ratio (z) = 0.15150 0.24065
#
# Static dielectric constant tensor:
#      x y z
#    x 1.695530 0.000000 0.000000 
#    y 0.000000 1.719820 0.000000 
#    z 0.000000 0.000000 1.672300 
# 
# From -- ./inp_files/3674.got.cif
#   From: 2010.05.17/outbox.cif.g08.bks.cpg/sg69_2_cif.got.tgz:3674.got - 2010.06.03 19:29:58.
