data_PCOD9511043
_publ_section_title
;
Structure prediction by ZEFSAII (Michael W. Deem and Ramdas Pophale) SiO2 
 PCOD9511043
Probable space group: F M M M
;
_chemical_formula_sum "Si O2"
_cell_formula_units_Z 208
_cell_length_a 15.891974
_cell_length_b 29.871394
_cell_length_c 23.431091
_cell_angle_alpha 90.000000
_cell_angle_beta 90.000000
_cell_angle_gamma 90.000000
_cell_volume 11123.100130
_symmetry_space_group_name_H-M "F M M M"
_symmetry_group_IT_number 69
_symmetry_cell_setting 'orthorhombic'
loop_
_space_group_symop_operation_xyz
x,y,z
-x,-y,z
x,-y,-z
-x,y,-z
-x,-y,-z
x,y,-z
-x,y,z
x,-y,z
x,1/2+y,1/2+z
-x,1/2-y,1/2+z
x,1/2-y,1/2-z
-x,1/2+y,1/2-z
-x,1/2-y,1/2-z
x,1/2+y,1/2-z
-x,1/2+y,1/2+z
x,1/2-y,1/2+z
1/2+x,y,1/2+z
1/2-x,-y,1/2+z
1/2+x,-y,1/2-z
1/2-x,y,1/2-z
1/2-x,-y,1/2-z
1/2+x,y,1/2-z
1/2-x,y,1/2+z
1/2+x,-y,1/2+z
1/2+x,1/2+y,z
1/2-x,1/2-y,z
1/2+x,1/2-y,-z
1/2-x,1/2+y,-z
1/2-x,1/2-y,-z
1/2+x,1/2+y,-z
1/2-x,1/2+y,z
1/2+x,1/2-y,z
loop_
_atom_site_type_symbol
_atom_site_label
_atom_site_fract_x
_atom_site_fract_y
_atom_site_fract_z
Si Si1 0.601884 0.052404 0.500000
Si Si2 0.597178 0.403511 0.115951
Si Si3 0.404687 0.273133 0.567913
Si Si4 0.841446 0.180769 0.066729
Si Si5 0.602355 0.052404 0.858984
Si Si6 0.158689 0.134803 0.566572
Si Si7 0.602281 0.948516 0.728726
O O1 0.500000 0.058920 0.500000
O O2 0.634755 0.074279 0.441523
O O3 0.618769 0.000000 0.500000
O O4 0.500000 0.418562 0.117313
O O5 0.601299 0.350888 0.105087
O O6 0.634270 0.418649 0.176327
O O7 0.388612 0.278606 0.500000
O O8 0.500000 0.257441 0.575809
O O9 0.345357 0.232239 0.585957
O O10 0.395367 0.323351 0.590817
O O11 0.751053 0.157071 0.069076
O O12 0.869310 0.179661 0.000000
O O13 0.500000 0.056615 0.863052
O O14 0.644560 0.089398 0.899023
O O15 0.629154 0.061422 0.793292
O O16 0.621944 0.000000 0.871753
O O17 0.138014 0.126064 0.500000
O O18 0.500000 0.945686 0.730879
O O19 0.623810 0.000000 0.715684
#
# Coordination Sequence:
#
# PCOD9511043 Si02
#       7
#    16  32  32  32  32  32  32
#     4   9  16  24  38  64  95 126 161 203 243 278
#     4  10  17  27  46  70  98 131 168 206 242 290
#     4   9  17  30  51  76  99 128 167 208 248 299
#     4  10  19  31  46  70 107 138 163 194 247 303
#     4   9  18  34  55  75  96 127 169 215 259 303
#     4  10  20  33  50  73 104 134 166 206 259 306
#     4   8  15  29  49  71  94 125 168 214 256 296
#
# _framework density 18.699822999999999
#
# number of rings (size 3 to 8) (size 9 to 14) (size 15 to 20)
#    0.000    2.692    0.769    2.769    0.000    5.538 
#    0.000    3.077    0.000    2.769    0.000    6.462 
#    0.000    0.000    0.000    0.000    0.000    0.000 
#
# Total GULP energy -289595.655492 kJ/mol
# GULP energy per Si atom -5569.147221 kJ/mol
# Density = 1.865726 g / cm^3
# Si number density = 18.699823 Si / 1000 Ang^3
#
#
#
# Elastic Constant Matrix: (Units=GPa)
#
#
# Indices 1 2 3 4 5 6 
#
# 1 21.2274 30.0077 22.3396 0.0000 0.0000 0.0000
# 2 30.0077 142.8389 82.3597 0.0000 0.0000 0.0000
# 3 22.3396 82.3597 92.9555 0.0000 0.0000 0.0000
# 4 0.0000 0.0000 0.0000 17.5582 0.0000 0.0000
# 5 0.0000 0.0000 0.0000 0.0000 4.8918 0.0000
# 6 0.0000 0.0000 0.0000 0.0000 0.0000 21.2254
#
#
#
# Elastic Compliance Matrix: (Units=1/GPa)
#
#
# Indices 1 2 3 4 5 6 
#
# 1 0.069612 -0.010177 -0.007713 0.000000 0.000000 0.000000
# 2 -0.010177 0.015801 -0.011554 0.000000 0.000000 0.000000
# 3 -0.007713 -0.011554 0.022848 0.000000 0.000000 0.000000
# 4 0.000000 0.000000 0.000000 0.056953 0.000000 0.000000
# 5 0.000000 0.000000 0.000000 0.000000 0.204424 0.000000
# 6 0.000000 0.000000 0.000000 0.000000 0.000000 0.047113
#
#
# Mechanical properties :
#
#
# Convention : Reuss Voigt Hill
#
# Bulk Modulus (GPa) = 20.25348 58.49287 39.37317
# Shear Modulus (GPa) = 10.16059 16.88940 13.52499
#
# Velocity S-wave (km/s) = 2.33352 3.00856 2.69228
# Velocity P-wave (km/s) = 4.25615 6.58911 5.54667
#
# Compressibility (1/GPa) = 0.04937424
#
# Stress axis : x y z
#
# Youngs Moduli (GPa) = 14.36524 63.28811 43.76713
#
# Poissons Ratio (x) = 0.64410 0.33756
# Poissons Ratio (y) = 0.14620 0.50568
# Poissons Ratio (z) = 0.11079 0.73122
#
# Static dielectric constant tensor:
#      x y z
#    x 1.737920 0.000000 0.000000 
#    y 0.000000 1.670250 0.000000 
#    z 0.000000 0.000000 1.639850 
# 
# From -- ./inp_files/26126.got.cif
#   From: 2010.05.17/outbox.cif.g08.bks.cpg/sg69_14_cif.got.tgz:26126.got - 2010.06.03 19:29:58.
