data_PCOD9511712
_publ_section_title
;
Structure prediction by ZEFSAII (Michael W. Deem and Ramdas Pophale) SiO2 
 PCOD9511712
Probable space group: F M M M
;
_chemical_formula_sum "Si O2"
_cell_formula_units_Z 160
_cell_length_a 21.667356
_cell_length_b 14.203502
_cell_length_c 23.939171
_cell_angle_alpha 90.000000
_cell_angle_beta 90.000000
_cell_angle_gamma 90.000000
_cell_volume 7367.335756
_symmetry_space_group_name_H-M "F M M M"
_symmetry_group_IT_number 69
_symmetry_cell_setting 'orthorhombic'
loop_
_space_group_symop_operation_xyz
x,y,z
-x,-y,z
x,-y,-z
-x,y,-z
-x,-y,-z
x,y,-z
-x,y,z
x,-y,z
x,1/2+y,1/2+z
-x,1/2-y,1/2+z
x,1/2-y,1/2-z
-x,1/2+y,1/2-z
-x,1/2-y,1/2-z
x,1/2+y,1/2-z
-x,1/2+y,1/2+z
x,1/2-y,1/2+z
1/2+x,y,1/2+z
1/2-x,-y,1/2+z
1/2+x,-y,1/2-z
1/2-x,y,1/2-z
1/2-x,-y,1/2-z
1/2+x,y,1/2-z
1/2-x,y,1/2+z
1/2+x,-y,1/2+z
1/2+x,1/2+y,z
1/2-x,1/2-y,z
1/2+x,1/2-y,-z
1/2-x,1/2+y,-z
1/2-x,1/2-y,-z
1/2+x,1/2+y,-z
1/2-x,1/2+y,z
1/2+x,1/2-y,z
loop_
_atom_site_type_symbol
_atom_site_label
_atom_site_fract_x
_atom_site_fract_y
_atom_site_fract_z
Si Si1 0.433437 0.613249 0.174583
Si Si2 0.763862 0.860816 0.939072
Si Si3 0.352808 0.105411 0.877380
Si Si4 0.897538 0.205948 0.935401
Si Si5 0.678305 0.613547 0.747036
O O1 0.500000 0.632250 0.203624
O O2 0.429142 0.500000 0.168412
O O3 0.436055 0.662660 0.114566
O O4 0.371043 0.645224 0.206409
O O5 0.750000 0.750000 0.939417
O O6 0.719994 0.901166 0.892516
O O7 0.836684 0.861362 0.933106
O O8 0.745812 0.897693 0.000000
O O9 0.380569 0.186846 0.916737
O O10 0.352384 0.134501 0.812899
O O11 0.379430 0.000000 0.884514
O O12 0.918730 0.205819 0.000000
O O13 0.680993 0.500000 0.750876
O O14 0.750000 0.645964 0.750000
#
# Coordination Sequence:
#
# PCOD9511712 Si02
#       5
#    32  32  32  32  32
#     4  10  22  41  63  85 112 149 194 246 302 356
#     4   8  15  28  46  73 112 153 191 233 280 332
#     4  10  19  32  53  82 117 156 195 238 295 361
#     4  10  21  36  54  81 116 152 197 249 297 352
#     4   9  18  34  58  88 120 154 195 244 297 354
#
# _framework density 21.717483999999999
#
# number of rings (size 3 to 8) (size 9 to 14) (size 15 to 20)
#    0.000    2.600    0.000    3.000    0.000    5.600 
#    0.000    6.000    0.000    1.800    0.000    1.400 
#    0.000    0.000    0.000    0.000    0.000    4.200 
#
# Total GULP energy -222879.567846 kJ/mol
# GULP energy per Si atom -5571.989196 kJ/mol
# Density = 2.166805 g / cm^3
# Si number density = 21.717484 Si / 1000 Ang^3
#
#
#
# Elastic Constant Matrix: (Units=GPa)
#
#
# Indices 1 2 3 4 5 6 
#
# 1 106.7206 17.2885 48.8520 0.0000 0.0000 0.0000
# 2 17.2885 96.8805 23.5574 0.0000 0.0000 0.0000
# 3 48.8520 23.5574 135.9282 0.0000 0.0000 0.0000
# 4 0.0000 0.0000 0.0000 24.3991 0.0000 0.0000
# 5 0.0000 0.0000 0.0000 0.0000 12.8692 0.0000
# 6 0.0000 0.0000 0.0000 0.0000 0.0000 5.6714
#
#
#
# Elastic Compliance Matrix: (Units=1/GPa)
#
#
# Indices 1 2 3 4 5 6 
#
# 1 0.011322 -0.001076 -0.003882 0.000000 0.000000 0.000000
# 2 -0.001076 0.010878 -0.001498 0.000000 0.000000 0.000000
# 3 -0.003882 -0.001498 0.009012 0.000000 0.000000 0.000000
# 4 0.000000 0.000000 0.000000 0.040985 0.000000 0.000000
# 5 0.000000 0.000000 0.000000 0.000000 0.077705 0.000000
# 6 0.000000 0.000000 0.000000 0.000000 0.000000 0.176323
#
#
# Mechanical properties :
#
#
# Convention : Reuss Voigt Hill
#
# Bulk Modulus (GPa) = 54.65216 57.65835 56.15525
# Shear Modulus (GPa) = 14.48271 25.24337 19.86304
#
# Velocity S-wave (km/s) = 2.58518 3.41303 3.02753
# Velocity P-wave (km/s) = 5.84214 6.49142 6.17532
#
# Compressibility (1/GPa) = 0.01829754
#
# Stress axis : x y z
#
# Youngs Moduli (GPa) = 88.32470 91.92498 110.96465
#
# Poissons Ratio (x) = 0.09894 0.43082
# Poissons Ratio (y) = 0.09507 0.16628
# Poissons Ratio (z) = 0.34292 0.13775
#
# Static dielectric constant tensor:
#      x y z
#    x 1.939540 0.000000 0.000000 
#    y 0.000000 1.812410 0.000000 
#    z 0.000000 0.000000 1.794740 
# 
# From -- ./inp_files/37764.got.cif
#   From: 2010.05.17/outbox.cif.g08.bks.cpg/sg69_19_cif.got.tgz:37764.got - 2010.06.03 19:29:58.
