data_PCOD9511318
_publ_section_title
;
Structure prediction by ZEFSAII (Michael W. Deem and Ramdas Pophale) SiO2 
 PCOD9511318
Probable space group: F M M M
;
_chemical_formula_sum "Si O2"
_cell_formula_units_Z 160
_cell_length_a 34.378584
_cell_length_b 15.166762
_cell_length_c 17.360030
_cell_angle_alpha 90.000000
_cell_angle_beta 90.000000
_cell_angle_gamma 90.000000
_cell_volume 9051.724515
_symmetry_space_group_name_H-M "F M M M"
_symmetry_group_IT_number 69
_symmetry_cell_setting 'orthorhombic'
loop_
_space_group_symop_operation_xyz
x,y,z
-x,-y,z
x,-y,-z
-x,y,-z
-x,-y,-z
x,y,-z
-x,y,z
x,-y,z
x,1/2+y,1/2+z
-x,1/2-y,1/2+z
x,1/2-y,1/2-z
-x,1/2+y,1/2-z
-x,1/2-y,1/2-z
x,1/2+y,1/2-z
-x,1/2+y,1/2+z
x,1/2-y,1/2+z
1/2+x,y,1/2+z
1/2-x,-y,1/2+z
1/2+x,-y,1/2-z
1/2-x,y,1/2-z
1/2-x,-y,1/2-z
1/2+x,y,1/2-z
1/2-x,y,1/2+z
1/2+x,-y,1/2+z
1/2+x,1/2+y,z
1/2-x,1/2-y,z
1/2+x,1/2-y,-z
1/2-x,1/2+y,-z
1/2-x,1/2-y,-z
1/2+x,1/2+y,-z
1/2-x,1/2+y,z
1/2+x,1/2-y,z
loop_
_atom_site_type_symbol
_atom_site_label
_atom_site_fract_x
_atom_site_fract_y
_atom_site_fract_z
Si Si1 0.000000 0.897199 0.405835
Si Si2 0.132674 0.500000 0.087118
Si Si3 0.418167 0.179849 0.089518
Si Si4 0.637262 0.810737 0.321767
Si Si5 0.144936 0.500000 0.737352
Si Si6 0.219359 0.677514 0.591667
Si Si7 0.270071 0.500000 0.167858
O O1 0.960866 0.847381 0.381294
O O2 0.000000 0.898733 0.500000
O O3 0.000000 0.000000 0.381674
O O4 0.106855 0.410965 0.090667
O O5 0.153807 0.500000 0.170574
O O6 0.151247 0.500000 0.000000
O O7 0.396697 0.257427 0.135049
O O8 0.421324 0.206195 0.000000
O O9 0.648619 0.750000 0.250000
O O10 0.625602 0.907632 0.289358
O O11 0.675990 0.815174 0.374086
O O12 0.184700 0.500000 0.690010
O O13 0.216365 0.683209 0.500000
O O14 0.250000 0.750000 0.619896
O O15 0.237624 0.585733 0.618279
O O16 0.250000 0.500000 0.250000
#
# Coordination Sequence:
#
# PCOD9511318 Si02
#       7
#    16  16  32  32  16  32  16
#     4   9  16  30  55  87 121 155 187 235 295 348
#     4  10  18  31  55  83 113 139 180 235 283 331
#     4  10  19  33  56  86 116 149 190 236 285 338
#     4  11  22  36  59  82 114 151 192 236 286 352
#     4  10  22  39  53  81 112 154 186 228 287 346
#     4  10  23  40  59  83 113 148 191 238 285 339
#     4  10  23  37  60  81 110 150 191 230 284 343
#
# _framework density 17.676189999999998
#
# number of rings (size 3 to 8) (size 9 to 14) (size 15 to 20)
#    0.000    1.900    3.000    0.900    5.600    0.000 
#    0.000    3.000    0.000    0.600    0.000    2.100 
#    0.000    0.000    0.000    0.000    0.000    0.200 
#
# Total GULP energy -222894.644540 kJ/mol
# GULP energy per Si atom -5572.366113 kJ/mol
# Density = 1.763596 g / cm^3
# Si number density = 17.676190 Si / 1000 Ang^3
#
#
#
# Elastic Constant Matrix: (Units=GPa)
#
#
# Indices 1 2 3 4 5 6 
#
# 1 49.4169 48.9015 20.9821 0.0000 0.0000 0.0000
# 2 48.9015 151.7088 42.8015 0.0000 0.0000 0.0000
# 3 20.9821 42.8015 69.3904 0.0000 0.0000 0.0000
# 4 0.0000 0.0000 0.0000 33.9892 0.0000 0.0000
# 5 0.0000 0.0000 0.0000 0.0000 11.6612 0.0000
# 6 0.0000 0.0000 0.0000 0.0000 0.0000 24.0738
#
#
#
# Elastic Compliance Matrix: (Units=1/GPa)
#
#
# Indices 1 2 3 4 5 6 
#
# 1 0.030531 -0.008762 -0.003828 0.000000 0.000000 0.000000
# 2 -0.008762 0.010495 -0.003824 0.000000 0.000000 0.000000
# 3 -0.003828 -0.003824 0.017927 0.000000 0.000000 0.000000
# 4 0.000000 0.000000 0.000000 0.029421 0.000000 0.000000
# 5 0.000000 0.000000 0.000000 0.000000 0.085755 0.000000
# 6 0.000000 0.000000 0.000000 0.000000 0.000000 0.041539
#
#
# Mechanical properties :
#
#
# Convention : Reuss Voigt Hill
#
# Bulk Modulus (GPa) = 38.27479 55.09847 46.68663
# Shear Modulus (GPa) = 19.43985 24.46690 21.95338
#
# Velocity S-wave (km/s) = 3.31989 3.72448 3.52799
# Velocity P-wave (km/s) = 6.03290 7.05226 6.56240
#
# Compressibility (1/GPa) = 0.02612686
#
# Stress axis : x y z
#
# Youngs Moduli (GPa) = 32.75320 95.28708 55.78069
#
# Poissons Ratio (x) = 0.83486 0.21351
# Poissons Ratio (y) = 0.28697 0.21331
# Poissons Ratio (z) = 0.12537 0.36438
#
# Static dielectric constant tensor:
#      x y z
#    x 1.613000 0.000000 0.000000 
#    y 0.000000 1.603610 0.000000 
#    z 0.000000 0.000000 1.604190 
# 
# From -- ./inp_files/27544.got.cif
#   From: 2010.05.17/outbox.cif.g08.bks.cpg/sg69_14_cif.got.tgz:27544.got - 2010.06.03 19:29:58.
