data_PCOD9511129
_publ_section_title
;
Structure prediction by ZEFSAII (Michael W. Deem and Ramdas Pophale) SiO2 
 PCOD9511129
Probable space group: F M M M
;
_chemical_formula_sum "Si O2"
_cell_formula_units_Z 144
_cell_length_a 17.034963
_cell_length_b 23.487125
_cell_length_c 23.424138
_cell_angle_alpha 90.000000
_cell_angle_beta 90.000000
_cell_angle_gamma 90.000000
_cell_volume 9372.051615
_symmetry_space_group_name_H-M "F M M M"
_symmetry_group_IT_number 69
_symmetry_cell_setting 'orthorhombic'
loop_
_space_group_symop_operation_xyz
x,y,z
-x,-y,z
x,-y,-z
-x,y,-z
-x,-y,-z
x,y,-z
-x,y,z
x,-y,z
x,1/2+y,1/2+z
-x,1/2-y,1/2+z
x,1/2-y,1/2-z
-x,1/2+y,1/2-z
-x,1/2-y,1/2-z
x,1/2+y,1/2-z
-x,1/2+y,1/2+z
x,1/2-y,1/2+z
1/2+x,y,1/2+z
1/2-x,-y,1/2+z
1/2+x,-y,1/2-z
1/2-x,y,1/2-z
1/2-x,-y,1/2-z
1/2+x,y,1/2-z
1/2-x,y,1/2+z
1/2+x,-y,1/2+z
1/2+x,1/2+y,z
1/2-x,1/2-y,z
1/2+x,1/2-y,-z
1/2-x,1/2+y,-z
1/2-x,1/2-y,-z
1/2+x,1/2+y,-z
1/2-x,1/2+y,z
1/2+x,1/2-y,z
loop_
_atom_site_type_symbol
_atom_site_label
_atom_site_fract_x
_atom_site_fract_y
_atom_site_fract_z
Si Si1 0.879576 0.869505 0.145480
Si Si2 0.213038 0.149311 0.313205
Si Si3 0.000000 0.066974 0.931856
Si Si4 0.413201 0.757693 0.181298
Si Si5 0.088982 0.432969 0.235390
O O1 0.785210 0.866904 0.146434
O O2 0.924441 0.901216 0.094904
O O3 0.905884 0.804142 0.153114
O O4 0.904033 0.902964 0.203059
O O5 0.250000 0.162946 0.250000
O O6 0.159493 0.201738 0.333241
O O7 0.153959 0.097115 0.303148
O O8 0.000000 0.000000 0.915269
O O9 0.000000 0.070538 0.000000
O O10 0.500000 0.781674 0.168152
O O11 0.409979 0.750000 0.250000
O O12 0.103090 0.500000 0.241060
O O13 0.000000 0.424154 0.214522
#
# Coordination Sequence:
#
# PCOD9511129 Si02
#       5
#    32  32  16  32  32
#     4  11  20  32  48  73  97 130 171 218 251 297
#     4  10  20  27  44  71 107 136 169 196 243 308
#     4  11  24  42  59  72  92 132 184 229 264 297
#     4  11  18  28  46  71 107 140 171 194 241 310
#     4  10  18  28  42  65 104 141 166 196 240 302
#
# _framework density 15.364832
#
# number of rings (size 3 to 8) (size 9 to 14) (size 15 to 20)
#    0.000    1.444    6.667    2.000    0.000    4.889 
#    0.000    0.000    0.000    2.667    0.000    0.000 
#    0.000    0.000    0.000    8.667    0.000    0.000 
#
# Total GULP energy -200772.251113 kJ/mol
# GULP energy per Si atom -5577.006975 kJ/mol
# Density = 1.532986 g / cm^3
# Si number density = 15.364832 Si / 1000 Ang^3
#
#
#
# Elastic Constant Matrix: (Units=GPa)
#
#
# Indices 1 2 3 4 5 6 
#
# 1 149.4629 70.3970 31.6962 0.0000 0.0000 0.0000
# 2 70.3970 122.1491 26.1709 0.0000 0.0000 0.0000
# 3 31.6962 26.1709 33.3432 0.0000 0.0000 0.0000
# 4 0.0000 0.0000 0.0000 13.5204 0.0000 0.0000
# 5 0.0000 0.0000 0.0000 0.0000 4.5509 0.0000
# 6 0.0000 0.0000 0.0000 0.0000 0.0000 45.5205
#
#
#
# Elastic Compliance Matrix: (Units=1/GPa)
#
#
# Indices 1 2 3 4 5 6 
#
# 1 0.010107 -0.004528 -0.006054 0.000000 0.000000 0.000000
# 2 -0.004528 0.011870 -0.005013 0.000000 0.000000 0.000000
# 3 -0.006054 -0.005013 0.039680 0.000000 0.000000 0.000000
# 4 0.000000 0.000000 0.000000 0.073962 0.000000 0.000000
# 5 0.000000 0.000000 0.000000 0.000000 0.219736 0.000000
# 6 0.000000 0.000000 0.000000 0.000000 0.000000 0.021968
#
#
# Mechanical properties :
#
#
# Convention : Reuss Voigt Hill
#
# Bulk Modulus (GPa) = 32.82045 62.38702 47.60374
# Shear Modulus (GPa) = 11.94261 24.49776 18.22018
#
# Velocity S-wave (km/s) = 2.79098 3.99733 3.44733
# Velocity P-wave (km/s) = 5.63855 7.87381 6.84799
#
# Compressibility (1/GPa) = 0.03046881
#
# Stress axis : x y z
#
# Youngs Moduli (GPa) = 98.94054 84.24472 25.20133
#
# Poissons Ratio (x) = 0.38145 0.15257
# Poissons Ratio (y) = 0.44799 0.12633
# Poissons Ratio (z) = 0.59898 0.42229
#
# Static dielectric constant tensor:
#      x y z
#    x 2.891230 0.000000 0.000000 
#    y 0.000000 1.526880 0.000000 
#    z 0.000000 0.000000 1.465200 
# 
# From -- ./inp_files/24778.got.cif
#   From: 2010.05.17/outbox.cif.g08.bks.cpg/sg69_13_cif.got.tgz:24778.got - 2010.06.03 19:29:58.
