data_PCOD9511717
_publ_section_title
;
Structure prediction by ZEFSAII (Michael W. Deem and Ramdas Pophale) SiO2 
 PCOD9511717
Probable space group: F M M M
;
_chemical_formula_sum "Si O2"
_cell_formula_units_Z 112
_cell_length_a 23.704331
_cell_length_b 25.379564
_cell_length_c 9.463188
_cell_angle_alpha 90.000000
_cell_angle_beta 90.000000
_cell_angle_gamma 90.000000
_cell_volume 5693.106759
_symmetry_space_group_name_H-M "F M M M"
_symmetry_group_IT_number 69
_symmetry_cell_setting 'orthorhombic'
loop_
_space_group_symop_operation_xyz
x,y,z
-x,-y,z
x,-y,-z
-x,y,-z
-x,-y,-z
x,y,-z
-x,y,z
x,-y,z
x,1/2+y,1/2+z
-x,1/2-y,1/2+z
x,1/2-y,1/2-z
-x,1/2+y,1/2-z
-x,1/2-y,1/2-z
x,1/2+y,1/2-z
-x,1/2+y,1/2+z
x,1/2-y,1/2+z
1/2+x,y,1/2+z
1/2-x,-y,1/2+z
1/2+x,-y,1/2-z
1/2-x,y,1/2-z
1/2-x,-y,1/2-z
1/2+x,y,1/2-z
1/2-x,y,1/2+z
1/2+x,-y,1/2+z
1/2+x,1/2+y,z
1/2-x,1/2-y,z
1/2+x,1/2-y,-z
1/2-x,1/2+y,-z
1/2-x,1/2-y,-z
1/2+x,1/2+y,-z
1/2-x,1/2+y,z
1/2+x,1/2-y,z
loop_
_atom_site_type_symbol
_atom_site_label
_atom_site_fract_x
_atom_site_fract_y
_atom_site_fract_z
Si Si1 0.691543 0.000000 0.333352
Si Si2 0.000000 0.324738 0.659781
Si Si3 0.500000 0.060606 0.245074
Si Si4 0.112051 0.702261 0.165977
Si Si5 0.373800 0.418336 0.655865
O O1 0.750000 0.000000 0.250000
O O2 0.655732 0.049840 0.279433
O O3 0.699229 0.000000 0.500000
O O4 0.000000 0.388569 0.653521
O O5 0.053810 0.306590 0.748913
O O6 0.000000 0.304180 0.500000
O O7 0.558916 0.069522 0.162412
O O8 0.500000 0.000000 0.298324
O O9 0.141506 0.750000 0.250000
O O10 0.138036 0.643793 0.170978
O O11 0.103968 0.714878 0.000000
O O12 0.353745 0.435131 0.500000
#
# Coordination Sequence:
#
# PCOD9511717 Si02
#       5
#    16  16  16  32  32
#     4  12  26  43  64  87 115 152 194 242 293 344
#     4  10  20  31  45  70 110 156 199 241 280 335
#     4  10  19  32  53  87 120 159 192 232 286 344
#     4  10  20  34  53  78 111 152 193 236 284 340
#     4  10  21  38  60  88 120 157 197 235 286 346
#
# _framework density 19.672915
#
# number of rings (size 3 to 8) (size 9 to 14) (size 15 to 20)
#    0.000    1.714    1.429    3.429    0.000   10.000 
#    0.000    0.000    0.000    0.857    0.000    6.000 
#    0.000    0.000    0.000    0.000    0.000    0.000 
#
# Total GULP energy -156128.341440 kJ/mol
# GULP energy per Si atom -5576.012194 kJ/mol
# Density = 1.962814 g / cm^3
# Si number density = 19.672915 Si / 1000 Ang^3
#
#
#
# Elastic Constant Matrix: (Units=GPa)
#
#
# Indices 1 2 3 4 5 6 
#
# 1 49.4628 14.7937 38.4879 -0.0002 0.0002 0.0002
# 2 14.7937 161.9298 58.9200 -0.0003 0.0002 0.0003
# 3 38.4879 58.9200 193.9439 -0.0014 0.0015 0.0009
# 4 -0.0002 -0.0003 -0.0014 26.9237 0.0006 0.0004
# 5 0.0002 0.0002 0.0015 0.0006 12.5961 -0.0003
# 6 0.0002 0.0003 0.0009 0.0004 -0.0003 -5.7879
#
#
#
# Elastic Compliance Matrix: (Units=1/GPa)
#
#
# Indices 1 2 3 4 5 6 
#
# 1 0.023947 -0.000516 -0.004596 0.000000 0.000000 0.000000
# 2 -0.000516 0.006954 -0.002010 0.000000 0.000000 0.000000
# 3 -0.004596 -0.002010 0.006679 0.000000 -0.000001 0.000001
# 4 0.000000 0.000000 0.000000 0.037142 -0.000002 0.000003
# 5 0.000000 0.000000 -0.000001 -0.000002 0.079390 -0.000004
# 6 0.000000 0.000000 0.000001 0.000003 -0.000004 -0.172773
#
#
# Mechanical properties :
#
#
# Convention : Reuss Voigt Hill
#
# Bulk Modulus (GPa) = 42.85017 69.97108 56.41062
# Shear Modulus (GPa) = 1487.58509 26.28870 756.93689
#
# Velocity S-wave (km/s) = 27.52818 3.65949 19.63660
# Velocity P-wave (km/s) = 32.12833 7.31439 23.29946
#
# Compressibility (1/GPa) = 0.02333713
#
# Stress axis : x y z
#
# Youngs Moduli (GPa) = 41.75815 143.80005 149.72590
#
# Poissons Ratio (x) = 0.07415 0.68809
# Poissons Ratio (y) = 0.02153 0.30100
# Poissons Ratio (z) = 0.19191 0.28908
#
# Static dielectric constant tensor:
#      x y z
#    x 1.676670 0.000000 0.000000 
#    y 0.000000 1.766900 0.000000 
#    z 0.000000 0.000000 1.670140 
# 
# From -- ./inp_files/3783.got.cif
#   From: 2010.05.17/outbox.cif.g08.bks.cpg/sg69_2_cif.got.tgz:3783.got - 2010.06.03 19:29:58.
