data_PCOD9511932
_publ_section_title
;
Structure prediction by ZEFSAII (Michael W. Deem and Ramdas Pophale) SiO2 
 PCOD9511932
Probable space group: F M M M
;
_chemical_formula_sum "Si O2"
_cell_formula_units_Z 208
_cell_length_a 20.714299
_cell_length_b 18.687566
_cell_length_c 28.888913
_cell_angle_alpha 90.000000
_cell_angle_beta 90.000000
_cell_angle_gamma 90.000000
_cell_volume 11182.893303
_symmetry_space_group_name_H-M "F M M M"
_symmetry_group_IT_number 69
_symmetry_cell_setting 'orthorhombic'
loop_
_space_group_symop_operation_xyz
x,y,z
-x,-y,z
x,-y,-z
-x,y,-z
-x,-y,-z
x,y,-z
-x,y,z
x,-y,z
x,1/2+y,1/2+z
-x,1/2-y,1/2+z
x,1/2-y,1/2-z
-x,1/2+y,1/2-z
-x,1/2-y,1/2-z
x,1/2+y,1/2-z
-x,1/2+y,1/2+z
x,1/2-y,1/2+z
1/2+x,y,1/2+z
1/2-x,-y,1/2+z
1/2+x,-y,1/2-z
1/2-x,y,1/2-z
1/2-x,-y,1/2-z
1/2+x,y,1/2-z
1/2-x,y,1/2+z
1/2+x,-y,1/2+z
1/2+x,1/2+y,z
1/2-x,1/2-y,z
1/2+x,1/2-y,-z
1/2-x,1/2+y,-z
1/2-x,1/2-y,-z
1/2+x,1/2+y,-z
1/2-x,1/2+y,z
1/2+x,1/2-y,z
loop_
_atom_site_type_symbol
_atom_site_label
_atom_site_fract_x
_atom_site_fract_y
_atom_site_fract_z
Si Si1 0.405368 0.848726 0.869737
Si Si2 0.266670 0.584167 0.373698
Si Si3 0.425846 0.313262 0.106993
Si Si4 0.500000 0.913761 0.944984
Si Si5 0.640456 0.414447 0.818765
Si Si6 0.794801 0.818159 0.054401
Si Si7 0.928338 0.583902 0.228753
O O1 0.330447 0.868964 0.870329
O O2 0.420795 0.765234 0.870659
O O3 0.439878 0.883788 0.914768
O O4 0.428288 0.879784 0.820885
O O5 0.282352 0.500000 0.375087
O O6 0.214931 0.596916 0.332804
O O7 0.230660 0.611792 0.419453
O O8 0.500000 0.325230 0.091914
O O9 0.403103 0.372026 0.144350
O O10 0.369890 0.310199 0.068098
O O11 0.500000 0.000000 0.943104
O O12 0.500000 0.893331 0.000000
O O13 0.628085 0.500000 0.821999
O O14 0.622423 0.390675 0.766991
O O15 0.750000 0.750000 0.069104
O O16 0.787647 0.824964 0.000000
O O17 0.916139 0.500000 0.220307
O O18 0.000000 0.591300 0.249697
#
# Coordination Sequence:
#
# PCOD9511932 Si02
#       7
#    32  32  32  16  32  32  32
#     4  12  22  37  58  89 122 158 198 245 303 362
#     4  10  21  38  61  86 118 155 197 250 301 362
#     4  11  22  38  60  88 123 158 197 250 307 360
#     4  11  24  40  56  81 121 163 203 244 289 354
#     4   9  21  39  60  87 115 157 207 252 305 360
#     4  10  21  39  61  83 113 156 200 245 297 356
#     4  10  19  34  58  84 118 161 203 247 300 363
#
# _framework density 18.599837999999998
#
# number of rings (size 3 to 8) (size 9 to 14) (size 15 to 20)
#    0.000    1.615    3.077    1.846    0.000    4.000 
#    0.000    3.846    0.000    1.846    0.000    4.308 
#    0.000    0.000    0.000    0.000    0.000    0.000 
#
# Total GULP energy -289992.866130 kJ/mol
# GULP energy per Si atom -5576.785887 kJ/mol
# Density = 1.855750 g / cm^3
# Si number density = 18.599838 Si / 1000 Ang^3
#
#
#
# Elastic Constant Matrix: (Units=GPa)
#
#
# Indices 1 2 3 4 5 6 
#
# 1 119.5003 25.2374 34.4041 0.0000 0.0000 0.0000
# 2 25.2374 43.4079 23.8070 0.0000 0.0000 0.0000
# 3 34.4041 23.8070 106.3886 0.0000 0.0000 0.0000
# 4 0.0000 0.0000 0.0000 18.6232 0.0000 0.0000
# 5 0.0000 0.0000 0.0000 0.0000 46.6584 0.0000
# 6 0.0000 0.0000 0.0000 0.0000 0.0000 27.6174
#
#
#
# Elastic Compliance Matrix: (Units=1/GPa)
#
#
# Indices 1 2 3 4 5 6 
#
# 1 0.009970 -0.004592 -0.002197 0.000000 0.000000 0.000000
# 2 -0.004592 0.028375 -0.004865 0.000000 0.000000 0.000000
# 3 -0.002197 -0.004865 0.011198 0.000000 0.000000 0.000000
# 4 0.000000 0.000000 0.000000 0.053697 0.000000 0.000000
# 5 0.000000 0.000000 0.000000 0.000000 0.021432 0.000000
# 6 0.000000 0.000000 0.000000 0.000000 0.000000 0.036209
#
#
# Mechanical properties :
#
#
# Convention : Reuss Voigt Hill
#
# Bulk Modulus (GPa) = 38.11373 48.46598 43.28985
# Shear Modulus (GPa) = 25.91555 30.96967 28.44261
#
# Velocity S-wave (km/s) = 3.73677 4.08493 3.91472
# Velocity P-wave (km/s) = 6.25730 6.95433 6.61500
#
# Compressibility (1/GPa) = 0.02623726
#
# Stress axis : x y z
#
# Youngs Moduli (GPa) = 100.29692 35.24217 89.29812
#
# Poissons Ratio (x) = 0.16183 0.19616
# Poissons Ratio (y) = 0.46057 0.43440
# Poissons Ratio (z) = 0.22032 0.17144
#
# Static dielectric constant tensor:
#      x y z
#    x 1.692110 0.000000 0.000000 
#    y 0.000000 1.627150 0.000000 
#    z 0.000000 0.000000 1.625950 
# 
# From -- ./inp_files/42735.got.cif
#   From: 2010.05.17/outbox.cif.g08.bks.cpg/sg69_22_cif.got.tgz:42735.got - 2010.06.03 19:29:58.
