data_PCOD9511952
_publ_section_title
;
Structure prediction by ZEFSAII (Michael W. Deem and Ramdas Pophale) SiO2 
 PCOD9511952
Probable space group: F M M M
;
_chemical_formula_sum "Si O2"
_cell_formula_units_Z 136
_cell_length_a 19.973386
_cell_length_b 22.796817
_cell_length_c 15.152543
_cell_angle_alpha 90.000000
_cell_angle_beta 90.000000
_cell_angle_gamma 90.000000
_cell_volume 6899.401730
_symmetry_space_group_name_H-M "F M M M"
_symmetry_group_IT_number 69
_symmetry_cell_setting 'orthorhombic'
loop_
_space_group_symop_operation_xyz
x,y,z
-x,-y,z
x,-y,-z
-x,y,-z
-x,-y,-z
x,y,-z
-x,y,z
x,-y,z
x,1/2+y,1/2+z
-x,1/2-y,1/2+z
x,1/2-y,1/2-z
-x,1/2+y,1/2-z
-x,1/2-y,1/2-z
x,1/2+y,1/2-z
-x,1/2+y,1/2+z
x,1/2-y,1/2+z
1/2+x,y,1/2+z
1/2-x,-y,1/2+z
1/2+x,-y,1/2-z
1/2-x,y,1/2-z
1/2-x,-y,1/2-z
1/2+x,y,1/2-z
1/2-x,y,1/2+z
1/2+x,-y,1/2+z
1/2+x,1/2+y,z
1/2-x,1/2-y,z
1/2+x,1/2-y,-z
1/2-x,1/2+y,-z
1/2-x,1/2-y,-z
1/2+x,1/2+y,-z
1/2-x,1/2+y,z
1/2+x,1/2-y,z
loop_
_atom_site_type_symbol
_atom_site_label
_atom_site_fract_x
_atom_site_fract_y
_atom_site_fract_z
Si Si1 0.166499 0.565966 0.348736
Si Si2 0.132618 0.000000 0.500000
Si Si3 0.819422 0.090263 0.357125
Si Si4 0.322660 0.225428 0.107239
Si Si5 0.075416 0.824642 0.105711
O O1 0.149045 0.500000 0.376632
O O2 0.171773 0.568885 0.242749
O O3 0.241223 0.580713 0.383076
O O4 0.114113 0.614907 0.377094
O O5 0.137475 0.051389 0.576869
O O6 0.833376 0.159377 0.361022
O O7 0.250000 0.250000 0.134720
O O8 0.379007 0.270874 0.138245
O O9 0.322805 0.223836 0.000000
O O10 0.000000 0.824747 0.141592
O O11 0.071495 0.817890 0.000000
#
# Coordination Sequence:
#
# PCOD9511952 Si02
#       5
#    32   8  32  32  32
#     4  11  22  37  55  87 130 158 198 250 304 357
#     4  12  20  34  62  92 120 154 202 250 320 360
#     4  11  21  35  58  92 121 157 199 257 306 353
#     4  10  19  34  60  88 117 159 206 251 299 351
#     4  10  23  41  61  88 123 161 203 245 301 373
#
# _framework density 19.711853999999999
#
# number of rings (size 3 to 8) (size 9 to 14) (size 15 to 20)
#    0.000    1.412    5.882    0.706    1.647    1.882 
#    0.000    3.529    0.000    0.000    0.000    3.294 
#    0.000    0.000    0.000    0.000    0.000    0.000 
#
# Total GULP energy -189477.410206 kJ/mol
# GULP energy per Si atom -5572.865006 kJ/mol
# Density = 1.966699 g / cm^3
# Si number density = 19.711854 Si / 1000 Ang^3
#
#
#
# Elastic Constant Matrix: (Units=GPa)
#
#
# Indices 1 2 3 4 5 6 
#
# 1 78.2544 55.9447 -5.8925 0.0000 0.0000 0.0000
# 2 55.9447 215.3398 -3.9228 0.0000 0.0000 0.0000
# 3 -5.8925 -3.9228 30.4446 0.0000 0.0000 0.0000
# 4 0.0000 0.0000 0.0000 -74.5570 0.0000 0.0000
# 5 0.0000 0.0000 0.0000 0.0000 11.8186 0.0000
# 6 0.0000 0.0000 0.0000 0.0000 0.0000 -5.3411
#
#
#
# Elastic Compliance Matrix: (Units=1/GPa)
#
#
# Indices 1 2 3 4 5 6 
#
# 1 0.015889 -0.004081 0.002549 0.000000 0.000000 0.000000
# 2 -0.004081 0.005703 -0.000055 0.000000 0.000000 0.000000
# 3 0.002549 -0.000055 0.033333 0.000000 0.000000 0.000000
# 4 0.000000 0.000000 0.000000 -0.013413 0.000000 0.000000
# 5 0.000000 0.000000 0.000000 0.000000 0.084612 0.000000
# 6 0.000000 0.000000 0.000000 0.000000 0.000000 -0.187229
#
#
# Mechanical properties :
#
#
# Convention : Reuss Voigt Hill
#
# Bulk Modulus (GPa) = 19.32354 46.25529 32.78941
# Shear Modulus (GPa) = -122.90947 4.91142 -58.99903
#
# Velocity S-wave (km/s) = -7.90496 1.58019 -5.47683
# Velocity P-wave (km/s) = 8.57284 5.18131 4.82947
#
# Compressibility (1/GPa) = 0.05175036
#
# Stress axis : x y z
#
# Youngs Moduli (GPa) = 62.93818 175.34175 30.00039
#
# Poissons Ratio (x) = 0.71564 -0.07648
# Poissons Ratio (y) = 0.25687 0.00165
# Poissons Ratio (z) = -0.16045 0.00966
#
# Static dielectric constant tensor:
#      x y z
#    x 1.689850 0.000000 0.000000 
#    y 0.000000 1.668920 0.000000 
#    z 0.000000 0.000000 1.716100 
# 
# From -- ./inp_files/16563.got.cif
#   From: 2010.05.17/outbox.cif.g08.bks.cpg/sg69_9_cif.got.tgz:16563.got - 2010.06.03 19:29:58.
