data_PCOD9511098
_publ_section_title
;
Structure prediction by ZEFSAII (Michael W. Deem and Ramdas Pophale) SiO2 
 PCOD9511098
Probable space group: F M M M
;
_chemical_formula_sum "Si O2"
_cell_formula_units_Z 192
_cell_length_a 29.984662
_cell_length_b 20.124301
_cell_length_c 15.835717
_cell_angle_alpha 90.000000
_cell_angle_beta 90.000000
_cell_angle_gamma 90.000000
_cell_volume 9555.594108
_symmetry_space_group_name_H-M "F M M M"
_symmetry_group_IT_number 69
_symmetry_cell_setting 'orthorhombic'
loop_
_space_group_symop_operation_xyz
x,y,z
-x,-y,z
x,-y,-z
-x,y,-z
-x,-y,-z
x,y,-z
-x,y,z
x,-y,z
x,1/2+y,1/2+z
-x,1/2-y,1/2+z
x,1/2-y,1/2-z
-x,1/2+y,1/2-z
-x,1/2-y,1/2-z
x,1/2+y,1/2-z
-x,1/2+y,1/2+z
x,1/2-y,1/2+z
1/2+x,y,1/2+z
1/2-x,-y,1/2+z
1/2+x,-y,1/2-z
1/2-x,y,1/2-z
1/2-x,-y,1/2-z
1/2+x,y,1/2-z
1/2-x,y,1/2+z
1/2+x,-y,1/2+z
1/2+x,1/2+y,z
1/2-x,1/2-y,z
1/2+x,1/2-y,-z
1/2-x,1/2+y,-z
1/2-x,1/2-y,-z
1/2+x,1/2+y,-z
1/2-x,1/2+y,z
1/2+x,1/2-y,z
loop_
_atom_site_type_symbol
_atom_site_label
_atom_site_fract_x
_atom_site_fract_y
_atom_site_fract_z
Si Si1 0.500000 0.884620 0.599510
Si Si2 0.093495 0.929164 0.103580
Si Si3 0.330271 0.423849 0.398342
Si Si4 0.151533 0.689869 0.601179
Si Si5 0.748859 0.826168 0.350648
Si Si6 0.098080 0.319746 0.897254
Si Si7 0.500000 0.767875 0.152161
O O1 0.500000 0.898559 0.500000
O O2 0.543486 0.919497 0.634147
O O3 0.500000 0.804849 0.607832
O O4 0.117629 0.864328 0.134436
O O5 0.112574 0.000000 0.128994
O O6 0.094305 0.927142 0.000000
O O7 0.332106 0.426995 0.500000
O O8 0.325425 0.500000 0.366884
O O9 0.287949 0.375751 0.378574
O O10 0.376098 0.387016 0.370620
O O11 0.150077 0.694579 0.500000
O O12 0.198826 0.657733 0.623358
O O13 0.132669 0.760998 0.631315
O O14 0.750000 0.823110 0.250000
O O15 0.750000 0.750000 0.384547
O O16 0.047040 0.305025 0.868901
O O17 0.096584 0.318614 0.000000
O O18 0.500000 0.750000 0.250000
#
# Coordination Sequence:
#
# PCOD9511098 Si02
#       7
#    16  32  32  32  32  32  16
#     4  10  17  32  54  78 111 151 189 222 281 349
#     4   9  17  29  50  82 115 143 177 226 278 335
#     4  10  22  41  65  89 115 154 205 258 307 353
#     4  10  19  33  58  86 113 149 194 241 287 341
#     4  11  23  37  58  88 123 161 195 238 296 366
#     4  10  20  38  62  87 114 147 194 246 297 350
#     4  12  24  35  58  88 118 150 192 246 291 350
#
# _framework density 20.092942000000001
#
# number of rings (size 3 to 8) (size 9 to 14) (size 15 to 20)
#    0.000    1.833    3.333    1.500    0.000    4.000 
#    0.000    2.083    0.000    3.000    0.000    0.000 
#    0.000    0.000    0.000    0.000    0.000    0.000 
#
# Total GULP energy -267296.466023 kJ/mol
# GULP energy per Si atom -5568.676375 kJ/mol
# Density = 2.004721 g / cm^3
# Si number density = 20.092942 Si / 1000 Ang^3
#
#
#
# Elastic Constant Matrix: (Units=GPa)
#
#
# Indices 1 2 3 4 5 6 
#
# 1 119.4049 59.4743 12.6158 0.0000 0.0000 0.0000
# 2 59.4743 147.1392 10.0147 0.0000 0.0000 0.0000
# 3 12.6158 10.0147 19.4173 0.0000 0.0000 0.0000
# 4 0.0000 0.0000 0.0000 -3.8414 0.0000 0.0000
# 5 0.0000 0.0000 0.0000 0.0000 28.9631 0.0000
# 6 0.0000 0.0000 0.0000 0.0000 0.0000 23.2960
#
#
#
# Elastic Compliance Matrix: (Units=1/GPa)
#
#
# Indices 1 2 3 4 5 6 
#
# 1 0.010935 -0.004080 -0.005001 0.000000 0.000000 0.000000
# 2 -0.004080 0.008566 -0.001767 0.000000 0.000000 0.000000
# 3 -0.005001 -0.001767 0.055661 0.000000 0.000000 0.000000
# 4 0.000000 0.000000 0.000000 -0.260320 0.000000 0.000000
# 5 0.000000 0.000000 0.000000 0.000000 0.034527 0.000000
# 6 0.000000 0.000000 0.000000 0.000000 0.000000 0.042926
#
#
# Mechanical properties :
#
#
# Convention : Reuss Voigt Hill
#
# Bulk Modulus (GPa) = 18.70320 50.01900 34.36110
# Shear Modulus (GPa) = -73.32655 23.27398 -25.02629
#
# Velocity S-wave (km/s) = -6.04755 3.40710 -3.53303
# Velocity P-wave (km/s) = 6.27976 6.35811 0.70366
#
# Compressibility (1/GPa) = 0.05346677
#
# Stress axis : x y z
#
# Youngs Moduli (GPa) = 91.44719 116.74602 17.96590
#
# Poissons Ratio (x) = 0.47629 0.08984
# Poissons Ratio (y) = 0.37308 0.03175
# Poissons Ratio (z) = 0.45730 0.20631
#
# Static dielectric constant tensor:
#      x y z
#    x 1.644630 0.000000 0.000000 
#    y 0.000000 1.800080 0.000000 
#    z 0.000000 0.000000 1.700840 
# 
# From -- ./inp_files/27822.got.cif
#   From: 2010.05.17/outbox.cif.g08.bks.cpg/sg69_14_cif.got.tgz:27822.got - 2010.06.03 19:29:58.
