data_PCOD9511834
_publ_section_title
;
Structure prediction by ZEFSAII (Michael W. Deem and Ramdas Pophale) SiO2 
 PCOD9511834
Probable space group: F M M M
;
_chemical_formula_sum "Si O2"
_cell_formula_units_Z 208
_cell_length_a 18.013721
_cell_length_b 27.716285
_cell_length_c 24.649250
_cell_angle_alpha 90.000000
_cell_angle_beta 90.000000
_cell_angle_gamma 90.000000
_cell_volume 12306.715475
_symmetry_space_group_name_H-M "F M M M"
_symmetry_group_IT_number 69
_symmetry_cell_setting 'orthorhombic'
loop_
_space_group_symop_operation_xyz
x,y,z
-x,-y,z
x,-y,-z
-x,y,-z
-x,-y,-z
x,y,-z
-x,y,z
x,-y,z
x,1/2+y,1/2+z
-x,1/2-y,1/2+z
x,1/2-y,1/2-z
-x,1/2+y,1/2-z
-x,1/2-y,1/2-z
x,1/2+y,1/2-z
-x,1/2+y,1/2+z
x,1/2-y,1/2+z
1/2+x,y,1/2+z
1/2-x,-y,1/2+z
1/2+x,-y,1/2-z
1/2-x,y,1/2-z
1/2-x,-y,1/2-z
1/2+x,y,1/2-z
1/2-x,y,1/2+z
1/2+x,-y,1/2+z
1/2+x,1/2+y,z
1/2-x,1/2-y,z
1/2+x,1/2-y,-z
1/2-x,1/2+y,-z
1/2-x,1/2-y,-z
1/2+x,1/2+y,-z
1/2-x,1/2+y,z
1/2+x,1/2-y,z
loop_
_atom_site_type_symbol
_atom_site_label
_atom_site_fract_x
_atom_site_fract_y
_atom_site_fract_z
Si Si1 0.914867 0.781348 0.695419
Si Si2 0.579333 0.849881 0.435369
Si Si3 0.643215 0.052135 0.565275
Si Si4 0.209350 0.139064 0.693769
Si Si5 0.690114 0.286502 0.124377
Si Si6 0.913553 0.058493 0.500000
Si Si7 0.687121 0.943091 0.104029
O O1 0.916905 0.750000 0.750000
O O2 0.864901 0.829152 0.703634
O O3 0.869944 0.746867 0.654565
O O4 0.000000 0.791807 0.679043
O O5 0.575888 0.852352 0.500000
O O6 0.500000 0.831965 0.414473
O O7 0.595704 0.903413 0.413875
O O8 0.647020 0.817175 0.419114
O O9 0.637993 0.051927 0.500000
O O10 0.729396 0.058264 0.580083
O O11 0.617852 0.000000 0.585512
O O12 0.250000 0.124677 0.750000
O O13 0.266397 0.176343 0.663914
O O14 0.189066 0.094074 0.654505
O O15 0.750000 0.250000 0.100522
O O16 0.869002 0.072056 0.555187
O O17 0.000000 0.074340 0.500000
O O18 0.913167 0.000000 0.500000
O O19 0.671956 0.000000 0.117870
#
# Coordination Sequence:
#
# PCOD9511834 Si02
#       7
#    32  32  32  32  32  16  32
#     4  10  20  35  57  79 101 132 180 234 279 320
#     4  10  20  33  51  77 108 140 175 215 270 333
#     4   9  16  29  50  76 104 134 178 220 257 308
#     4  11  21  35  55  82 112 141 183 228 273 331
#     4  10  20  34  55  78 101 137 178 229 272 320
#     4   9  18  34  58  86 112 145 191 239 280 322
#     4  10  19  33  56  83 112 149 184 223 271 327
#
# _framework density 16.901342
#
# number of rings (size 3 to 8) (size 9 to 14) (size 15 to 20)
#    0.000    2.077    3.846    0.462    0.000    1.538 
#    0.000    1.538    1.692    0.000    0.000    0.000 
#    0.000    0.000    0.000    0.000    0.000    0.000 
#
# Total GULP energy -289539.392536 kJ/mol
# GULP energy per Si atom -5568.065241 kJ/mol
# Density = 1.686287 g / cm^3
# Si number density = 16.901342 Si / 1000 Ang^3
#
#
#
# Elastic Constant Matrix: (Units=GPa)
#
#
# Indices 1 2 3 4 5 6 
#
# 1 118.4003 49.0912 42.0896 0.0000 0.0000 0.0000
# 2 49.0912 93.6293 48.2189 0.0000 0.0000 0.0000
# 3 42.0896 48.2189 55.9771 0.0000 0.0000 0.0000
# 4 0.0000 0.0000 0.0000 27.7359 0.0000 0.0000
# 5 0.0000 0.0000 0.0000 0.0000 16.6550 0.0000
# 6 0.0000 0.0000 0.0000 0.0000 0.0000 -37.1069
#
#
#
# Elastic Compliance Matrix: (Units=1/GPa)
#
#
# Indices 1 2 3 4 5 6 
#
# 1 0.011963 -0.002948 -0.006456 0.000000 0.000000 0.000000
# 2 -0.002948 0.019923 -0.014945 0.000000 0.000000 0.000000
# 3 -0.006456 -0.014945 0.035593 0.000000 0.000000 0.000000
# 4 0.000000 0.000000 0.000000 0.036054 0.000000 0.000000
# 5 0.000000 0.000000 0.000000 0.000000 0.060042 0.000000
# 6 0.000000 0.000000 0.000000 0.000000 0.000000 -0.026949
#
#
# Mechanical properties :
#
#
# Convention : Reuss Voigt Hill
#
# Bulk Modulus (GPa) = 53.24595 60.75621 57.00108
# Shear Modulus (GPa) = 26.09833 10.03060 18.06446
#
# Velocity S-wave (km/s) = 3.93384 2.43879 3.27283
# Velocity P-wave (km/s) = 7.22536 6.62992 6.93403
#
# Compressibility (1/GPa) = 0.01878077
#
# Stress axis : x y z
#
# Youngs Moduli (GPa) = 83.59040 50.19443 28.09577
#
# Poissons Ratio (x) = 0.14795 0.18139
# Poissons Ratio (y) = 0.24639 0.41989
# Poissons Ratio (z) = 0.53967 0.75016
#
# Static dielectric constant tensor:
#      x y z
#    x 1.584340 0.000000 0.000000 
#    y 0.000000 1.587060 0.000000 
#    z 0.000000 0.000000 1.560850 
# 
# From -- ./inp_files/25195.got.cif
#   From: 2010.05.17/outbox.cif.g08.bks.cpg/sg69_13_cif.got.tgz:25195.got - 2010.06.03 19:29:58.
