data_PCOD9511166
_publ_section_title
;
Structure prediction by ZEFSAII (Michael W. Deem and Ramdas Pophale) SiO2 
 PCOD9511166
Probable space group: F M M M
;
_chemical_formula_sum "Si O2"
_cell_formula_units_Z 192
_cell_length_a 23.772381
_cell_length_b 17.052207
_cell_length_c 28.275823
_cell_angle_alpha 90.000000
_cell_angle_beta 90.000000
_cell_angle_gamma 90.000000
_cell_volume 11462.214528
_symmetry_space_group_name_H-M "F M M M"
_symmetry_group_IT_number 69
_symmetry_cell_setting 'orthorhombic'
loop_
_space_group_symop_operation_xyz
x,y,z
-x,-y,z
x,-y,-z
-x,y,-z
-x,-y,-z
x,y,-z
-x,y,z
x,-y,z
x,1/2+y,1/2+z
-x,1/2-y,1/2+z
x,1/2-y,1/2-z
-x,1/2+y,1/2-z
-x,1/2-y,1/2-z
x,1/2+y,1/2-z
-x,1/2+y,1/2+z
x,1/2-y,1/2+z
1/2+x,y,1/2+z
1/2-x,-y,1/2+z
1/2+x,-y,1/2-z
1/2-x,y,1/2-z
1/2-x,-y,1/2-z
1/2+x,y,1/2-z
1/2-x,y,1/2+z
1/2+x,-y,1/2+z
1/2+x,1/2+y,z
1/2-x,1/2-y,z
1/2+x,1/2-y,-z
1/2-x,1/2+y,-z
1/2-x,1/2-y,-z
1/2+x,1/2+y,-z
1/2-x,1/2+y,z
1/2+x,1/2-y,z
loop_
_atom_site_type_symbol
_atom_site_label
_atom_site_fract_x
_atom_site_fract_y
_atom_site_fract_z
Si Si1 0.821776 0.136084 0.053824
Si Si2 0.793446 0.406013 0.102606
Si Si3 0.767490 0.404041 0.301999
Si Si4 0.500000 0.904812 0.372083
Si Si5 0.121110 0.409002 0.649897
Si Si6 0.619036 0.196940 0.054663
Si Si7 0.000000 0.270782 0.556515
O O1 0.757112 0.123200 0.068459
O O2 0.858291 0.096176 0.095313
O O3 0.840799 0.226519 0.055680
O O4 0.831669 0.108268 0.000000
O O5 0.794958 0.500000 0.099789
O O6 0.775195 0.383060 0.155801
O O7 0.851356 0.367726 0.086496
O O8 0.769153 0.500000 0.301513
O O9 0.750000 0.377713 0.250000
O O10 0.828810 0.374112 0.318658
O O11 0.442364 0.879492 0.346571
O O12 0.500000 0.856775 0.420774
O O13 0.500000 0.000000 0.378105
O O14 0.118203 0.500000 0.662885
O O15 0.557061 0.225160 0.069881
O O16 0.615630 0.170433 0.000000
O O17 0.000000 0.278202 0.500000
#
# Coordination Sequence:
#
# PCOD9511166 Si02
#       7
#    32  32  32  16  32  32  16
#     4  10  18  29  46  68  98 131 161 193 236 297
#     4  10  20  32  49  74  98 123 160 209 258 295
#     4   8  15  30  51  73  97 123 154 198 251 306
#     4  10  18  29  46  72 102 129 163 204 241 287
#     4   9  17  27  44  72 100 128 159 192 237 289
#     4  10  20  33  49  68  95 133 174 202 235 293
#     4  10  20  35  49  67  95 140 182 203 235 286
#
# _framework density 16.750689999999999
#
# number of rings (size 3 to 8) (size 9 to 14) (size 15 to 20)
#    0.000    2.500    1.667    2.500    0.000    3.833 
#    0.000    2.083    0.000   10.500    0.000    4.667 
#    0.000    0.000    0.000    0.000    0.000    0.000 
#
# Total GULP energy -267323.265835 kJ/mol
# GULP energy per Si atom -5569.234705 kJ/mol
# Density = 1.671256 g / cm^3
# Si number density = 16.750690 Si / 1000 Ang^3
#
#
#
# Elastic Constant Matrix: (Units=GPa)
#
#
# Indices 1 2 3 4 5 6 
#
# 1 119.1541 42.1281 63.6570 0.0000 0.0000 0.0000
# 2 42.1281 29.4478 20.6296 0.0000 0.0000 0.0000
# 3 63.6570 20.6296 94.4974 0.0000 0.0000 0.0000
# 4 0.0000 0.0000 0.0000 -32.3158 0.0000 0.0000
# 5 0.0000 0.0000 0.0000 0.0000 11.8114 0.0000
# 6 0.0000 0.0000 0.0000 0.0000 0.0000 25.8143
#
#
#
# Elastic Compliance Matrix: (Units=1/GPa)
#
#
# Indices 1 2 3 4 5 6 
#
# 1 0.022563 -0.025536 -0.009624 0.000000 0.000000 0.000000
# 2 -0.025536 0.068990 0.002141 0.000000 0.000000 0.000000
# 3 -0.009624 0.002141 0.016598 0.000000 0.000000 0.000000
# 4 0.000000 0.000000 0.000000 -0.030945 0.000000 0.000000
# 5 0.000000 0.000000 0.000000 0.000000 0.084664 0.000000
# 6 0.000000 0.000000 0.000000 0.000000 0.000000 0.038738
#
#
# Mechanical properties :
#
#
# Convention : Reuss Voigt Hill
#
# Bulk Modulus (GPa) = 23.74605 55.10317 39.42461
# Shear Modulus (GPa) = 17.81355 8.84096 13.32726
#
# Velocity S-wave (km/s) = 3.26460 2.29988 2.82374
# Velocity P-wave (km/s) = 5.33077 6.32614 5.84966
#
# Compressibility (1/GPa) = 0.04211228
#
# Stress axis : x y z
#
# Youngs Moduli (GPa) = 44.32105 14.49482 60.24716
#
# Poissons Ratio (x) = 0.37014 0.57984
# Poissons Ratio (y) = 1.13177 -0.12897
# Poissons Ratio (z) = 0.42656 -0.03103
#
# Static dielectric constant tensor:
#      x y z
#    x 1.593740 0.000000 0.000000 
#    y 0.000000 1.572500 0.000000 
#    z 0.000000 0.000000 1.560610 
# 
# From -- ./inp_files/42822.got.cif
#   From: 2010.05.17/outbox.cif.g08.bks.cpg/sg69_22_cif.got.tgz:42822.got - 2010.06.03 19:29:58.
