data_PCOD9511748
_publ_section_title
;
Structure prediction by ZEFSAII (Michael W. Deem and Ramdas Pophale) SiO2 
 PCOD9511748
Probable space group: F M M M
;
_chemical_formula_sum "Si O2"
_cell_formula_units_Z 96
_cell_length_a 31.338651
_cell_length_b 31.364265
_cell_length_c 5.286495
_cell_angle_alpha 90.000000
_cell_angle_beta 90.000000
_cell_angle_gamma 90.000000
_cell_volume 5196.168650
_symmetry_space_group_name_H-M "F M M M"
_symmetry_group_IT_number 69
_symmetry_cell_setting 'orthorhombic'
loop_
_space_group_symop_operation_xyz
x,y,z
-x,-y,z
x,-y,-z
-x,y,-z
-x,-y,-z
x,y,-z
-x,y,z
x,-y,z
x,1/2+y,1/2+z
-x,1/2-y,1/2+z
x,1/2-y,1/2-z
-x,1/2+y,1/2-z
-x,1/2-y,1/2-z
x,1/2+y,1/2-z
-x,1/2+y,1/2+z
x,1/2-y,1/2+z
1/2+x,y,1/2+z
1/2-x,-y,1/2+z
1/2+x,-y,1/2-z
1/2-x,y,1/2-z
1/2-x,-y,1/2-z
1/2+x,y,1/2-z
1/2-x,y,1/2+z
1/2+x,-y,1/2+z
1/2+x,1/2+y,z
1/2-x,1/2-y,z
1/2+x,1/2-y,-z
1/2-x,1/2+y,-z
1/2-x,1/2-y,-z
1/2+x,1/2+y,-z
1/2-x,1/2+y,z
1/2+x,1/2-y,z
loop_
_atom_site_type_symbol
_atom_site_label
_atom_site_fract_x
_atom_site_fract_y
_atom_site_fract_z
Si Si1 0.858688 0.366114 0.500000
Si Si2 0.721253 0.000000 0.000000
Si Si3 0.000000 0.220806 0.000000
Si Si4 0.045103 0.599096 0.500000
Si Si5 0.161207 0.083435 0.500000
Si Si6 0.435447 0.049927 0.000000
Si Si7 0.097824 0.720966 0.500000
O O1 0.908601 0.379637 0.500000
O O2 0.837453 0.386864 0.749487
O O3 0.865513 0.315234 0.500000
O O4 0.693695 0.043773 0.000000
O O5 0.750000 0.000000 0.750000
O O6 0.000000 0.250000 0.250000
O O7 0.951225 0.202387 0.000000
O O8 0.045680 0.570741 0.249708
O O9 0.000000 0.624034 0.500000
O O10 0.114699 0.061332 0.500000
O O11 0.441787 0.000000 0.000000
O O12 0.101572 0.750000 0.250000
#
# Coordination Sequence:
#
# PCOD9511748 Si02
#       7
#    16   8   8  16  16  16  16
#     4  10  21  35  56  75 111 157 181 235 288 324
#     4  12  24  40  68  96 119 146 177 216 266 346
#     4   8  16  28  44  70 104 141 182 253 304 322
#     4  10  21  31  44  69  96 135 194 238 268 312
#     4  10  21  39  55  82 115 143 181 213 277 343
#     4  10  19  33  50  65  95 142 175 224 279 311
#     4  10  19  33  52  77 107 145 199 245 292 336
#
# _framework density 18.475149999999999
#
# number of rings (size 3 to 8) (size 9 to 14) (size 15 to 20)
#    0.000    2.000    0.833    3.000    1.167    2.000 
#    0.000    0.000    0.000    0.000    0.000    0.000 
#    0.000   46.667    0.000    0.000    0.000    0.000 
#
# Total GULP energy -133730.977401 kJ/mol
# GULP energy per Si atom -5572.124058 kJ/mol
# Density = 1.843310 g / cm^3
# Si number density = 18.475150 Si / 1000 Ang^3
#
#
#
# Elastic Constant Matrix: (Units=GPa)
#
#
# Indices 1 2 3 4 5 6 
#
# 1 79.6734 40.1829 47.0664 -0.0355 0.0218 0.0337
# 2 40.1829 113.0173 71.3289 -0.2049 0.0907 0.0427
# 3 47.0664 71.3289 193.1414 -0.4263 0.1047 0.0678
# 4 -0.0355 -0.2049 -0.4263 11.7101 0.0742 0.0347
# 5 0.0218 0.0907 0.1047 0.0742 -1.7044 -0.0259
# 6 0.0337 0.0427 0.0678 0.0347 -0.0259 30.2599
#
#
#
# Elastic Compliance Matrix: (Units=1/GPa)
#
#
# Indices 1 2 3 4 5 6 
#
# 1 0.016076 -0.004229 -0.002356 -0.000110 -0.000169 -0.000007
# 2 -0.004229 0.012650 -0.003641 0.000073 0.000399 -0.000005
# 3 -0.002356 -0.003641 0.007097 0.000186 0.000220 -0.000008
# 4 -0.000110 0.000073 0.000186 0.085381 0.003734 -0.000095
# 5 -0.000169 0.000399 0.000220 0.003734 -0.586512 -0.000507
# 6 -0.000007 -0.000005 -0.000008 -0.000095 -0.000507 0.033047
#
#
# Mechanical properties :
#
#
# Convention : Reuss Voigt Hill
#
# Bulk Modulus (GPa) = 65.06070 78.10984 71.58527
# Shear Modulus (GPa) = -12.29445 23.20337 5.45446
#
# Velocity S-wave (km/s) = -2.58245 3.54775 1.72010
# Velocity P-wave (km/s) = 5.13806 7.69104 6.54033
#
# Compressibility (1/GPa) = 0.01537026
#
# Stress axis : x y z
#
# Youngs Moduli (GPa) = 62.20538 79.05368 140.91139
#
# Poissons Ratio (x) = 0.33431 0.33197
# Poissons Ratio (y) = 0.26306 0.51308
# Poissons Ratio (z) = 0.14655 0.28785
#
# Static dielectric constant tensor:
#      x y z
#    x 1.629220 0.000030 0.000020 
#    y 0.000030 1.643350 -0.000160 
#    z 0.000020 -0.000160 1.607680 
# 
# From -- ./inp_files/878.got.cif
#   From: 2010.05.17/outbox.cif.g08.bks.cpg/sg69_1_cif.got.tgz:878.got - 2010.06.03 19:29:58.
