data_PCOD9511121
_publ_section_title
;
Structure prediction by ZEFSAII (Michael W. Deem and Ramdas Pophale) SiO2 
 PCOD9511121
Probable space group: F M M M
;
_chemical_formula_sum "Si O2"
_cell_formula_units_Z 192
_cell_length_a 27.029249
_cell_length_b 23.925664
_cell_length_c 18.192418
_cell_angle_alpha 90.000000
_cell_angle_beta 90.000000
_cell_angle_gamma 90.000000
_cell_volume 11764.904457
_symmetry_space_group_name_H-M "F M M M"
_symmetry_group_IT_number 69
_symmetry_cell_setting 'orthorhombic'
loop_
_space_group_symop_operation_xyz
x,y,z
-x,-y,z
x,-y,-z
-x,y,-z
-x,-y,-z
x,y,-z
-x,y,z
x,-y,z
x,1/2+y,1/2+z
-x,1/2-y,1/2+z
x,1/2-y,1/2-z
-x,1/2+y,1/2-z
-x,1/2-y,1/2-z
x,1/2+y,1/2-z
-x,1/2+y,1/2+z
x,1/2-y,1/2+z
1/2+x,y,1/2+z
1/2-x,-y,1/2+z
1/2+x,-y,1/2-z
1/2-x,y,1/2-z
1/2-x,-y,1/2-z
1/2+x,y,1/2-z
1/2-x,y,1/2+z
1/2+x,-y,1/2+z
1/2+x,1/2+y,z
1/2-x,1/2-y,z
1/2+x,1/2-y,-z
1/2-x,1/2+y,-z
1/2-x,1/2-y,-z
1/2+x,1/2+y,-z
1/2-x,1/2+y,z
1/2+x,1/2-y,z
loop_
_atom_site_type_symbol
_atom_site_label
_atom_site_fract_x
_atom_site_fract_y
_atom_site_fract_z
Si Si1 0.383572 0.753627 0.583375
Si Si2 0.720740 0.306354 0.584423
Si Si3 0.134429 0.813108 0.774857
Si Si4 0.442119 0.659708 0.348273
Si Si5 0.126725 0.436172 0.085683
Si Si6 0.791435 0.397275 0.801875
O O1 0.385376 0.772334 0.500000
O O2 0.337109 0.710333 0.590289
O O3 0.375212 0.804171 0.639395
O O4 0.430199 0.716089 0.606092
O O5 0.731133 0.322019 0.500000
O O6 0.750000 0.250000 0.600990
O O7 0.733829 0.353685 0.641843
O O8 0.149727 0.750000 0.750000
O O9 0.085130 0.828757 0.729384
O O10 0.174111 0.858752 0.750436
O O11 0.500000 0.649824 0.341378
O O12 0.414111 0.608368 0.388021
O O13 0.108507 0.500000 0.088242
O O14 0.172355 0.430936 0.143250
O O15 0.140864 0.424232 0.000000
O O16 0.750000 0.424997 0.750000
#
# Coordination Sequence:
#
# PCOD9511121 Si02
#       6
#    32  32  32  32  32  32
#     4  10  18  29  44  67 101 135 167 198 232 286
#     4  10  18  27  43  67  96 129 165 203 237 275
#     4   9  17  30  44  66  98 133 164 196 233 284
#     4  10  20  33  51  72  96 127 164 206 251 297
#     4  10  21  38  55  70  94 125 161 209 258 302
#     4  11  20  29  49  70  96 129 162 203 239 288
#
# _framework density 16.319724999999998
#
# number of rings (size 3 to 8) (size 9 to 14) (size 15 to 20)
#    0.000    2.000    5.000    2.000    0.000    5.000 
#    0.000    1.667    0.000    0.000    0.000    0.000 
#    0.000    6.000    0.000    6.000    0.000    0.000 
#
# Total GULP energy -267501.854644 kJ/mol
# GULP energy per Si atom -5572.955305 kJ/mol
# Density = 1.628258 g / cm^3
# Si number density = 16.319725 Si / 1000 Ang^3
#
#
#
# Elastic Constant Matrix: (Units=GPa)
#
#
# Indices 1 2 3 4 5 6 
#
# 1 58.8570 6.1258 4.8512 0.0000 0.0000 0.0000
# 2 6.1258 46.2352 22.9774 0.0000 0.0000 0.0000
# 3 4.8512 22.9774 98.5988 0.0000 0.0000 0.0000
# 4 0.0000 0.0000 0.0000 17.4777 0.0000 0.0000
# 5 0.0000 0.0000 0.0000 0.0000 13.7223 0.0000
# 6 0.0000 0.0000 0.0000 0.0000 0.0000 4.1780
#
#
#
# Elastic Compliance Matrix: (Units=1/GPa)
#
#
# Indices 1 2 3 4 5 6 
#
# 1 0.017239 -0.002106 -0.000357 0.000000 0.000000 0.000000
# 2 -0.002106 0.024719 -0.005657 0.000000 0.000000 0.000000
# 3 -0.000357 -0.005657 0.011478 0.000000 0.000000 0.000000
# 4 0.000000 0.000000 0.000000 0.057216 0.000000 0.000000
# 5 0.000000 0.000000 0.000000 0.000000 0.072874 0.000000
# 6 0.000000 0.000000 0.000000 0.000000 0.000000 0.239350
#
#
# Mechanical properties :
#
#
# Convention : Reuss Voigt Hill
#
# Bulk Modulus (GPa) = 26.88556 30.17775 28.53166
# Shear Modulus (GPa) = 11.07383 18.39137 14.73260
#
# Velocity S-wave (km/s) = 2.60773 3.36064 3.00784
# Velocity P-wave (km/s) = 5.05738 5.79571 5.43909
#
# Compressibility (1/GPa) = 0.03719468
#
# Stress axis : x y z
#
# Youngs Moduli (GPa) = 58.00797 40.45487 87.12354
#
# Poissons Ratio (x) = 0.08522 0.03113
# Poissons Ratio (y) = 0.12219 0.49284
# Poissons Ratio (z) = 0.02073 0.22885
#
# Static dielectric constant tensor:
#      x y z
#    x 1.577240 0.000000 0.000000 
#    y 0.000000 1.537250 0.000000 
#    z 0.000000 0.000000 1.584440 
# 
# From -- ./inp_files/33618.got.cif
#   From: 2010.05.17/outbox.cif.g08.bks.cpg/sg69_17_cif.got.tgz:33618.got - 2010.06.03 19:29:58.
