data_PCOD9511820
_publ_section_title
;
Structure prediction by ZEFSAII (Michael W. Deem and Ramdas Pophale) SiO2 
 PCOD9511820
Probable space group: F M M M
;
_chemical_formula_sum "Si O2"
_cell_formula_units_Z 144
_cell_length_a 18.024402
_cell_length_b 20.492915
_cell_length_c 19.609093
_cell_angle_alpha 90.000000
_cell_angle_beta 90.000000
_cell_angle_gamma 90.000000
_cell_volume 7243.060451
_symmetry_space_group_name_H-M "F M M M"
_symmetry_group_IT_number 69
_symmetry_cell_setting 'orthorhombic'
loop_
_space_group_symop_operation_xyz
x,y,z
-x,-y,z
x,-y,-z
-x,y,-z
-x,-y,-z
x,y,-z
-x,y,z
x,-y,z
x,1/2+y,1/2+z
-x,1/2-y,1/2+z
x,1/2-y,1/2-z
-x,1/2+y,1/2-z
-x,1/2-y,1/2-z
x,1/2+y,1/2-z
-x,1/2+y,1/2+z
x,1/2-y,1/2+z
1/2+x,y,1/2+z
1/2-x,-y,1/2+z
1/2+x,-y,1/2-z
1/2-x,y,1/2-z
1/2-x,-y,1/2-z
1/2+x,y,1/2-z
1/2-x,y,1/2+z
1/2+x,-y,1/2+z
1/2+x,1/2+y,z
1/2-x,1/2-y,z
1/2+x,1/2-y,-z
1/2-x,1/2+y,-z
1/2-x,1/2-y,-z
1/2+x,1/2+y,-z
1/2-x,1/2+y,z
1/2+x,1/2-y,z
loop_
_atom_site_type_symbol
_atom_site_label
_atom_site_fract_x
_atom_site_fract_y
_atom_site_fract_z
Si Si1 0.500000 0.578604 0.578205
Si Si2 0.638683 0.421361 0.676884
Si Si3 0.417124 0.133120 0.576106
Si Si4 0.739841 0.923715 0.425539
Si Si5 0.087826 0.682462 0.279706
O O1 0.500000 0.500000 0.572856
O O2 0.500000 0.603978 0.500000
O O3 0.427452 0.594456 0.623087
O O4 0.638535 0.500000 0.689790
O O5 0.713687 0.399450 0.638584
O O6 0.625171 0.380111 0.744847
O O7 0.413938 0.162257 0.500000
O O8 0.500000 0.103783 0.583618
O O9 0.348156 0.084470 0.581265
O O10 0.406660 0.181689 0.638759
O O11 0.761015 0.895160 0.500000
O O12 0.758443 0.000000 0.428413
O O13 0.117154 0.750000 0.250000
O O14 0.000000 0.677936 0.262976
#
# Coordination Sequence:
#
# PCOD9511820 Si02
#       5
#    16  32  32  32  32
#     4   9  16  28  49  78 111 147 183 218 264 330
#     4  10  19  33  55  83 114 148 185 228 283 342
#     4   9  19  37  58  77 103 146 194 236 280 337
#     4   9  18  33  54  83 118 150 185 235 286 333
#     4  10  21  38  59  82 115 149 186 237 287 335
#
# _framework density 19.881098999999999
#
# number of rings (size 3 to 8) (size 9 to 14) (size 15 to 20)
#    0.000    2.556    1.111    0.667    0.000    4.889 
#    0.000   11.111    0.000    2.667    0.000    0.000 
#    0.000    0.000    0.000    0.000    0.000    0.000 
#
# Total GULP energy -200489.492014 kJ/mol
# GULP energy per Si atom -5569.152556 kJ/mol
# Density = 1.983585 g / cm^3
# Si number density = 19.881099 Si / 1000 Ang^3
#
#
#
# Elastic Constant Matrix: (Units=GPa)
#
#
# Indices 1 2 3 4 5 6 
#
# 1 76.8278 13.4927 42.5605 0.0000 0.0000 0.0000
# 2 13.4927 49.3387 43.1719 0.0000 0.0000 0.0000
# 3 42.5605 43.1719 129.9210 0.0000 0.0000 0.0000
# 4 0.0000 0.0000 0.0000 13.1460 0.0000 0.0000
# 5 0.0000 0.0000 0.0000 0.0000 23.7875 0.0000
# 6 0.0000 0.0000 0.0000 0.0000 0.0000 6.7174
#
#
#
# Elastic Compliance Matrix: (Units=1/GPa)
#
#
# Indices 1 2 3 4 5 6 
#
# 1 0.015905 0.000295 -0.005308 0.000000 0.000000 0.000000
# 2 0.000295 0.028583 -0.009595 0.000000 0.000000 0.000000
# 3 -0.005308 -0.009595 0.012624 0.000000 0.000000 0.000000
# 4 0.000000 0.000000 0.000000 0.076069 0.000000 0.000000
# 5 0.000000 0.000000 0.000000 0.000000 0.042039 0.000000
# 6 0.000000 0.000000 0.000000 0.000000 0.000000 0.148866
#
#
# Mechanical properties :
#
#
# Convention : Reuss Voigt Hill
#
# Bulk Modulus (GPa) = 35.84676 50.50420 43.17548
# Shear Modulus (GPa) = 13.78932 19.18769 16.48851
#
# Velocity S-wave (km/s) = 2.63647 3.11001 2.88298
# Velocity P-wave (km/s) = 5.22854 6.19310 5.73115
#
# Compressibility (1/GPa) = 0.02789652
#
# Stress axis : x y z
#
# Youngs Moduli (GPa) = 62.87344 34.98628 79.21316
#
# Poissons Ratio (x) = -0.01033 0.42050
# Poissons Ratio (y) = -0.01857 0.76002
# Poissons Ratio (z) = 0.33376 0.33568
#
# Static dielectric constant tensor:
#      x y z
#    x 1.730140 0.000000 0.000000 
#    y 0.000000 1.660610 0.000000 
#    z 0.000000 0.000000 1.744230 
# 
# From -- ./inp_files/22881.got.cif
#   From: 2010.05.17/outbox.cif.g08.bks.cpg/sg69_12_cif.got.tgz:22881.got - 2010.06.03 19:29:58.
