data_PCOD9511587
_publ_section_title
;
Structure prediction by ZEFSAII (Michael W. Deem and Ramdas Pophale) SiO2 
 PCOD9511587
Probable space group: F M M M
;
_chemical_formula_sum "Si O2"
_cell_formula_units_Z 160
_cell_length_a 25.655643
_cell_length_b 17.086127
_cell_length_c 20.742647
_cell_angle_alpha 90.000000
_cell_angle_beta 90.000000
_cell_angle_gamma 90.000000
_cell_volume 9092.654944
_symmetry_space_group_name_H-M "F M M M"
_symmetry_group_IT_number 69
_symmetry_cell_setting 'orthorhombic'
loop_
_space_group_symop_operation_xyz
x,y,z
-x,-y,z
x,-y,-z
-x,y,-z
-x,-y,-z
x,y,-z
-x,y,z
x,-y,z
x,1/2+y,1/2+z
-x,1/2-y,1/2+z
x,1/2-y,1/2-z
-x,1/2+y,1/2-z
-x,1/2-y,1/2-z
x,1/2+y,1/2-z
-x,1/2+y,1/2+z
x,1/2-y,1/2+z
1/2+x,y,1/2+z
1/2-x,-y,1/2+z
1/2+x,-y,1/2-z
1/2-x,y,1/2-z
1/2-x,-y,1/2-z
1/2+x,y,1/2-z
1/2-x,y,1/2+z
1/2+x,-y,1/2+z
1/2+x,1/2+y,z
1/2-x,1/2-y,z
1/2+x,1/2-y,-z
1/2-x,1/2+y,-z
1/2-x,1/2-y,-z
1/2+x,1/2+y,-z
1/2-x,1/2+y,z
1/2+x,1/2-y,z
loop_
_atom_site_type_symbol
_atom_site_label
_atom_site_fract_x
_atom_site_fract_y
_atom_site_fract_z
Si Si1 0.675873 0.090623 0.389604
Si Si2 0.656190 0.590687 0.736814
Si Si3 0.559308 0.186807 0.192566
Si Si4 0.779859 0.169755 0.372981
Si Si5 0.378624 0.250938 0.928475
O O1 0.666210 0.100726 0.312678
O O2 0.736713 0.111086 0.401356
O O3 0.641602 0.159450 0.421214
O O4 0.664455 0.000000 0.406671
O O5 0.662553 0.500000 0.721628
O O6 0.599317 0.620301 0.715550
O O7 0.696734 0.637611 0.693230
O O8 0.500000 0.160028 0.183075
O O9 0.560017 0.250000 0.250000
O O10 0.582020 0.227564 0.128365
O O11 0.750000 0.250000 0.359407
O O12 0.828161 0.194857 0.417862
O O13 0.400059 0.239733 0.000000
#
# Coordination Sequence:
#
# PCOD9511587 Si02
#       5
#    32  32  32  32  32
#     4  10  19  31  49  77 111 146 179 212 261 317
#     4  10  19  32  52  82 112 138 173 224 275 316
#     4  10  20  37  60  81 100 132 177 224 273 323
#     4   9  19  30  50  75 108 147 186 220 256 304
#     4  10  21  36  53  77 109 142 180 223 264 309
#
# _framework density 17.596620000000001
#
# number of rings (size 3 to 8) (size 9 to 14) (size 15 to 20)
#    0.000    2.200    2.000    1.200    0.000    8.800 
#    0.000    0.000    0.000   15.000    0.000    7.000 
#    0.000    0.000    0.000    0.000    0.000    0.000 
#
# Total GULP energy -223133.967340 kJ/mol
# GULP energy per Si atom -5578.349183 kJ/mol
# Density = 1.755657 g / cm^3
# Si number density = 17.596620 Si / 1000 Ang^3
#
#
#
# Elastic Constant Matrix: (Units=GPa)
#
#
# Indices 1 2 3 4 5 6 
#
# 1 63.4858 -10.6354 11.4096 0.0000 0.0000 0.0000
# 2 -10.6354 31.4624 14.5319 0.0000 0.0000 0.0000
# 3 11.4096 14.5319 83.8411 0.0000 0.0000 0.0000
# 4 0.0000 0.0000 0.0000 6.6026 0.0000 0.0000
# 5 0.0000 0.0000 0.0000 0.0000 -1.5575 0.0000
# 6 0.0000 0.0000 0.0000 0.0000 0.0000 10.8167
#
#
#
# Elastic Compliance Matrix: (Units=1/GPa)
#
#
# Indices 1 2 3 4 5 6 
#
# 1 0.017719 0.007722 -0.003750 0.000000 0.000000 0.000000
# 2 0.007722 0.037915 -0.007622 0.000000 0.000000 0.000000
# 3 -0.003750 -0.007622 0.013759 0.000000 0.000000 0.000000
# 4 0.000000 0.000000 0.000000 0.151455 0.000000 0.000000
# 5 0.000000 0.000000 0.000000 0.000000 -0.642054 0.000000
# 6 0.000000 0.000000 0.000000 0.000000 0.000000 0.092450
#
#
# Mechanical properties :
#
#
# Convention : Reuss Voigt Hill
#
# Bulk Modulus (GPa) = 16.10526 23.26683 19.68605
# Shear Modulus (GPa) = -16.62461 14.07124 -1.27669
#
# Velocity S-wave (km/s) = -3.07703 2.83089 -0.85270
# Velocity P-wave (km/s) = 1.85791 4.89247 3.20035
#
# Compressibility (1/GPa) = 0.06209150
#
# Stress axis : x y z
#
# Youngs Moduli (GPa) = 56.43665 26.37490 72.68089
#
# Poissons Ratio (x) = -0.20366 0.27253
# Poissons Ratio (y) = -0.43578 0.55401
# Poissons Ratio (z) = 0.21162 0.20104
#
# Static dielectric constant tensor:
#      x y z
#    x 1.601290 0.000000 0.000000 
#    y 0.000000 1.595760 0.000000 
#    z 0.000000 0.000000 1.602150 
# 
# From -- ./inp_files/18882.got.cif
#   From: 2010.05.17/outbox.cif.g08.bks.cpg/sg69_10_cif.got.tgz:18882.got - 2010.06.03 19:29:58.
