data_PCOD9511013
_publ_section_title
;
Structure prediction by ZEFSAII (Michael W. Deem and Ramdas Pophale) SiO2 
 PCOD9511013
Probable space group: F M M M
;
_chemical_formula_sum "Si O2"
_cell_formula_units_Z 116
_cell_length_a 15.694240
_cell_length_b 18.861958
_cell_length_c 16.501469
_cell_angle_alpha 90.000000
_cell_angle_beta 90.000000
_cell_angle_gamma 90.000000
_cell_volume 4884.832439
_symmetry_space_group_name_H-M "F M M M"
_symmetry_group_IT_number 69
_symmetry_cell_setting 'orthorhombic'
loop_
_space_group_symop_operation_xyz
x,y,z
-x,-y,z
x,-y,-z
-x,y,-z
-x,-y,-z
x,y,-z
-x,y,z
x,-y,z
x,1/2+y,1/2+z
-x,1/2-y,1/2+z
x,1/2-y,1/2-z
-x,1/2+y,1/2-z
-x,1/2-y,1/2-z
x,1/2+y,1/2-z
-x,1/2+y,1/2+z
x,1/2-y,1/2+z
1/2+x,y,1/2+z
1/2-x,-y,1/2+z
1/2+x,-y,1/2-z
1/2-x,y,1/2-z
1/2-x,-y,1/2-z
1/2+x,y,1/2-z
1/2-x,y,1/2+z
1/2+x,-y,1/2+z
1/2+x,1/2+y,z
1/2-x,1/2-y,z
1/2+x,1/2-y,-z
1/2-x,1/2+y,-z
1/2-x,1/2-y,-z
1/2+x,1/2+y,-z
1/2-x,1/2+y,z
1/2+x,1/2-y,z
loop_
_atom_site_type_symbol
_atom_site_label
_atom_site_fract_x
_atom_site_fract_y
_atom_site_fract_z
Si Si1 0.673222 0.423765 0.500000
Si Si2 0.652243 0.274063 0.092640
Si Si3 0.500000 0.500000 0.500000
Si Si4 0.103163 0.419438 0.667413
Si Si5 0.900178 0.635991 0.844822
O O1 0.719634 0.500000 0.500000
O O2 0.573861 0.441753 0.500000
O O3 0.670394 0.385724 0.413100
O O4 0.750000 0.250000 0.099246
O O5 0.638027 0.356123 0.112344
O O6 0.601975 0.221218 0.151794
O O7 0.624048 0.260624 0.000000
O O8 0.130895 0.500000 0.649460
O O9 0.125650 0.398414 0.759826
O O10 0.000000 0.417940 0.661293
O O11 0.000000 0.613691 0.856117
#
# Coordination Sequence:
#
# PCOD9511013 Si02
#       5
#    16  32   4  32  32
#     4  10  16  28  51  85 121 153 186 243 307 363
#     4  11  25  43  62  86 124 168 216 263 314 379
#     4   8  16  24  48  84 120 156 176 244 310 360
#     4  10  23  41  66  97 129 165 208 262 318 380
#     4  11  19  35  62  93 122 157 207 260 315 374
#
# _framework density 23.746977000000001
#
# number of rings (size 3 to 8) (size 9 to 14) (size 15 to 20)
#    0.414    1.103    2.759    2.483    0.000    7.724 
#    0.000    5.517    0.000    0.000    0.000    0.000 
#    0.000    0.000    0.000    0.000    0.000    0.000 
#
# Total GULP energy -161453.096740 kJ/mol
# GULP energy per Si atom -5567.348163 kJ/mol
# Density = 2.369293 g / cm^3
# Si number density = 23.746977 Si / 1000 Ang^3
#
#
#
# Elastic Constant Matrix: (Units=GPa)
#
#
# Indices 1 2 3 4 5 6 
#
# 1 37.0972 9.0135 9.4568 0.0000 0.0000 0.0000
# 2 9.0135 153.9218 18.0581 0.0000 0.0000 0.0000
# 3 9.4568 18.0581 53.4313 0.0000 0.0000 0.0000
# 4 0.0000 0.0000 0.0000 40.6026 0.0000 0.0000
# 5 0.0000 0.0000 0.0000 0.0000 -2.5904 0.0000
# 6 0.0000 0.0000 0.0000 0.0000 0.0000 -21.2172
#
#
#
# Elastic Compliance Matrix: (Units=1/GPa)
#
#
# Indices 1 2 3 4 5 6 
#
# 1 0.028414 -0.001118 -0.004651 0.000000 0.000000 0.000000
# 2 -0.001118 0.006809 -0.002103 0.000000 0.000000 0.000000
# 3 -0.004651 -0.002103 0.020250 0.000000 0.000000 0.000000
# 4 0.000000 0.000000 0.000000 0.024629 0.000000 0.000000
# 5 0.000000 0.000000 0.000000 0.000000 -0.386044 0.000000
# 6 0.000000 0.000000 0.000000 0.000000 0.000000 -0.047132
#
#
# Mechanical properties :
#
#
# Convention : Reuss Voigt Hill
#
# Bulk Modulus (GPa) = 25.17166 35.27855 30.22510
# Shear Modulus (GPa) = -15.42798 17.22045 0.89624
#
# Velocity S-wave (km/s) = -2.55165 2.69581 0.61500
# Velocity P-wave (km/s) = 1.39346 4.95763 3.64142
#
# Compressibility (1/GPa) = 0.03972722
#
# Stress axis : x y z
#
# Youngs Moduli (GPa) = 35.19446 146.86332 49.38350
#
# Poissons Ratio (x) = 0.16422 0.22968
# Poissons Ratio (y) = 0.03935 0.10387
# Poissons Ratio (z) = 0.16369 0.30890
#
# Static dielectric constant tensor:
#      x y z
#    x 1.865330 0.000000 0.000000 
#    y 0.000000 1.903810 0.000000 
#    z 0.000000 0.000000 2.010860 
# 
# From -- ./inp_files/22384.got.cif
#   From: 2010.05.17/outbox.cif.g08.bks.cpg/sg69_12_cif.got.tgz:22384.got - 2010.06.03 19:29:58.
