data_PCOD9511392
_publ_section_title
;
Structure prediction by ZEFSAII (Michael W. Deem and Ramdas Pophale) SiO2 
 PCOD9511392
Probable space group: F M M M
;
_chemical_formula_sum "Si O2"
_cell_formula_units_Z 176
_cell_length_a 16.575067
_cell_length_b 17.300340
_cell_length_c 28.867853
_cell_angle_alpha 90.000000
_cell_angle_beta 90.000000
_cell_angle_gamma 90.000000
_cell_volume 8277.980824
_symmetry_space_group_name_H-M "F M M M"
_symmetry_group_IT_number 69
_symmetry_cell_setting 'orthorhombic'
loop_
_space_group_symop_operation_xyz
x,y,z
-x,-y,z
x,-y,-z
-x,y,-z
-x,-y,-z
x,y,-z
-x,y,z
x,-y,z
x,1/2+y,1/2+z
-x,1/2-y,1/2+z
x,1/2-y,1/2-z
-x,1/2+y,1/2-z
-x,1/2-y,1/2-z
x,1/2+y,1/2-z
-x,1/2+y,1/2+z
x,1/2-y,1/2+z
1/2+x,y,1/2+z
1/2-x,-y,1/2+z
1/2+x,-y,1/2-z
1/2-x,y,1/2-z
1/2-x,-y,1/2-z
1/2+x,y,1/2-z
1/2-x,y,1/2+z
1/2+x,-y,1/2+z
1/2+x,1/2+y,z
1/2-x,1/2-y,z
1/2+x,1/2-y,-z
1/2-x,1/2+y,-z
1/2-x,1/2-y,-z
1/2+x,1/2+y,-z
1/2-x,1/2+y,z
1/2+x,1/2-y,z
loop_
_atom_site_type_symbol
_atom_site_label
_atom_site_fract_x
_atom_site_fract_y
_atom_site_fract_z
Si Si1 0.353117 0.911224 0.101765
Si Si2 0.098261 0.087104 0.775831
Si Si3 0.585092 0.762433 0.143600
Si Si4 0.120357 0.750000 0.750000
Si Si5 0.668593 0.116760 0.377010
Si Si6 0.096120 0.000000 0.947654
Si Si7 0.093139 0.093239 0.500000
O O1 0.404395 0.850906 0.130875
O O2 0.262028 0.904417 0.119942
O O3 0.362421 0.886449 0.047850
O O4 0.380057 0.000000 0.105690
O O5 0.147737 0.158835 0.753020
O O6 0.124935 0.088955 0.829742
O O7 0.000000 0.100087 0.771496
O O8 0.114481 0.000000 0.757874
O O9 0.500000 0.732445 0.124866
O O10 0.583980 0.753277 0.198803
O O11 0.654991 0.708696 0.123529
O O12 0.627118 0.074099 0.419705
O O13 0.000000 0.000000 0.948177
O O14 0.127572 0.000000 0.000000
O O15 0.000000 0.121509 0.500000
O O16 0.089718 0.000000 0.500000
#
# Coordination Sequence:
#
# PCOD9511392 Si02
#       7
#    32  32  32  16  32  16  16
#     4  11  23  40  65  92 124 164 207 257 316 371
#     4  10  18  32  58  85 118 163 208 251 307 374
#     4  11  23  41  64  90 126 165 212 262 311 372
#     4  10  21  38  61  90 119 158 213 268 309 362
#     4  11  21  39  60  88 127 163 204 246 317 375
#     4  11  22  36  62  94 125 162 208 258 307 363
#     4   9  20  40  65  90 120 163 214 254 298 364
#
# _framework density 21.261223999999999
#
# number of rings (size 3 to 8) (size 9 to 14) (size 15 to 20)
#    0.000    1.455    1.818    5.455    1.273    1.818 
#    1.636    8.182    0.000    5.455    0.000    0.000 
#    0.000    0.000    0.000    0.000    0.000    0.000 
#
# Total GULP energy -245115.453194 kJ/mol
# GULP energy per Si atom -5570.805754 kJ/mol
# Density = 2.121283 g / cm^3
# Si number density = 21.261224 Si / 1000 Ang^3
#
#
#
# Elastic Constant Matrix: (Units=GPa)
#
#
# Indices 1 2 3 4 5 6 
#
# 1 55.2988 15.7227 11.0942 0.0000 0.0000 0.0000
# 2 15.7227 154.2695 38.8858 0.0000 0.0000 0.0000
# 3 11.0942 38.8858 71.6169 0.0000 0.0000 0.0000
# 4 0.0000 0.0000 0.0000 34.4995 0.0000 0.0000
# 5 0.0000 0.0000 0.0000 0.0000 -19.2866 0.0000
# 6 0.0000 0.0000 0.0000 0.0000 0.0000 16.3219
#
#
#
# Elastic Compliance Matrix: (Units=1/GPa)
#
#
# Indices 1 2 3 4 5 6 
#
# 1 0.018913 -0.001378 -0.002182 0.000000 0.000000 0.000000
# 2 -0.001378 0.007610 -0.003919 0.000000 0.000000 0.000000
# 3 -0.002182 -0.003919 0.016429 0.000000 0.000000 0.000000
# 4 0.000000 0.000000 0.000000 0.028986 0.000000 0.000000
# 5 0.000000 0.000000 0.000000 0.000000 -0.051849 0.000000
# 6 0.000000 0.000000 0.000000 0.000000 0.000000 0.061267
#
#
# Mechanical properties :
#
#
# Convention : Reuss Voigt Hill
#
# Bulk Modulus (GPa) = 35.71955 45.84340 40.78147
# Shear Modulus (GPa) = 47.32850 20.67246 34.00048
#
# Velocity S-wave (km/s) = 4.72322 3.12157 4.00331
# Velocity P-wave (km/s) = 6.82509 5.88226 6.37114
#
# Compressibility (1/GPa) = 0.02799587
#
# Stress axis : x y z
#
# Youngs Moduli (GPa) = 52.87374 131.40007 60.86817
#
# Poissons Ratio (x) = 0.18102 0.13280
# Poissons Ratio (y) = 0.07284 0.23853
# Poissons Ratio (z) = 0.11536 0.51493
#
# Static dielectric constant tensor:
#      x y z
#    x 1.766770 0.000000 0.000000 
#    y 0.000000 1.837420 0.000000 
#    z 0.000000 0.000000 1.742080 
# 
# From -- ./inp_files/41911.got.cif
#   From: 2010.05.17/outbox.cif.g08.bks.cpg/sg69_21_cif.got.tgz:41911.got - 2010.06.03 19:29:58.
