data_PCOD9511014
_publ_section_title
;
Structure prediction by ZEFSAII (Michael W. Deem and Ramdas Pophale) SiO2 
 PCOD9511014
Probable space group: F M M M
;
_chemical_formula_sum "Si O2"
_cell_formula_units_Z 128
_cell_length_a 25.313855
_cell_length_b 14.972616
_cell_length_c 16.924198
_cell_angle_alpha 90.000000
_cell_angle_beta 90.000000
_cell_angle_gamma 90.000000
_cell_volume 6414.518650
_symmetry_space_group_name_H-M "F M M M"
_symmetry_group_IT_number 69
_symmetry_cell_setting 'orthorhombic'
loop_
_space_group_symop_operation_xyz
x,y,z
-x,-y,z
x,-y,-z
-x,y,-z
-x,-y,-z
x,y,-z
-x,y,z
x,-y,z
x,1/2+y,1/2+z
-x,1/2-y,1/2+z
x,1/2-y,1/2-z
-x,1/2+y,1/2-z
-x,1/2-y,1/2-z
x,1/2+y,1/2-z
-x,1/2+y,1/2+z
x,1/2-y,1/2+z
1/2+x,y,1/2+z
1/2-x,-y,1/2+z
1/2+x,-y,1/2-z
1/2-x,y,1/2-z
1/2-x,-y,1/2-z
1/2+x,y,1/2-z
1/2-x,y,1/2+z
1/2+x,-y,1/2+z
1/2+x,1/2+y,z
1/2-x,1/2-y,z
1/2+x,1/2-y,-z
1/2-x,1/2+y,-z
1/2-x,1/2-y,-z
1/2+x,1/2+y,-z
1/2-x,1/2+y,z
1/2+x,1/2-y,z
loop_
_atom_site_type_symbol
_atom_site_label
_atom_site_fract_x
_atom_site_fract_y
_atom_site_fract_z
Si Si1 0.000000 0.153290 0.791065
Si Si2 0.386024 0.604448 0.183738
Si Si3 0.500000 0.400006 0.617179
Si Si4 0.384433 0.605688 0.374320
Si Si5 0.809530 0.736203 0.409266
O O1 0.000000 0.250000 0.750000
O O2 0.945806 0.135373 0.836401
O O3 0.000000 0.092508 0.712639
O O4 0.379205 0.500000 0.164575
O O5 0.382152 0.614177 0.278927
O O6 0.343501 0.667063 0.142006
O O7 0.500000 0.500000 0.585559
O O8 0.442704 0.360868 0.598105
O O9 0.379559 0.500000 0.393094
O O10 0.339671 0.669153 0.407480
O O11 0.806492 0.704460 0.500000
O O12 0.750000 0.750000 0.379219
#
# Coordination Sequence:
#
# PCOD9511014 Si02
#       5
#    16  32  16  32  32
#     4  10  16  28  56  89 118 146 175 218 276 339
#     4  10  20  36  60  88 116 145 182 231 284 338
#     4   8  14  28  52  83 112 131 158 209 274 332
#     4   9  18  35  61  88 110 136 176 230 284 333
#     4  11  25  41  54  73 108 154 197 234 278 336
#
# _framework density 19.954732
#
# number of rings (size 3 to 8) (size 9 to 14) (size 15 to 20)
#    0.000    2.250    0.000    6.375    0.000    4.000 
#    0.000    7.500    0.000    3.750    0.000    0.000 
#    0.000    0.000    0.000    0.000    0.000    0.000 
#
# Total GULP energy -178561.855577 kJ/mol
# GULP energy per Si atom -5580.057987 kJ/mol
# Density = 1.990931 g / cm^3
# Si number density = 19.954732 Si / 1000 Ang^3
#
#
#
# Elastic Constant Matrix: (Units=GPa)
#
#
# Indices 1 2 3 4 5 6 
#
# 1 207.6785 71.9744 38.0481 0.0000 0.0000 0.0000
# 2 71.9744 120.0826 33.2501 0.0000 0.0000 0.0000
# 3 38.0481 33.2501 50.6845 0.0000 0.0000 0.0000
# 4 0.0000 0.0000 0.0000 -2.0715 0.0000 0.0000
# 5 0.0000 0.0000 0.0000 0.0000 35.7571 0.0000
# 6 0.0000 0.0000 0.0000 0.0000 0.0000 10.7838
#
#
#
# Elastic Compliance Matrix: (Units=1/GPa)
#
#
# Indices 1 2 3 4 5 6 
#
# 1 0.006385 -0.003055 -0.002789 0.000000 0.000000 0.000000
# 2 -0.003055 0.011637 -0.005341 0.000000 0.000000 0.000000
# 3 -0.002789 -0.005341 0.025328 0.000000 0.000000 0.000000
# 4 0.000000 0.000000 0.000000 -0.482734 0.000000 0.000000
# 5 0.000000 0.000000 0.000000 0.000000 0.027966 0.000000
# 6 0.000000 0.000000 0.000000 0.000000 0.000000 0.092732
#
#
# Mechanical properties :
#
#
# Convention : Reuss Voigt Hill
#
# Bulk Modulus (GPa) = 47.66492 73.88787 60.77639
# Shear Modulus (GPa) = -17.28173 24.57208 3.64518
#
# Velocity S-wave (km/s) = -2.94606 3.51293 1.35303
# Velocity P-wave (km/s) = 3.51654 7.31863 5.74144
#
# Compressibility (1/GPa) = 0.02097979
#
# Stress axis : x y z
#
# Youngs Moduli (GPa) = 156.62391 85.92976 39.48259
#
# Poissons Ratio (x) = 0.26248 0.11012
# Poissons Ratio (y) = 0.47842 0.21089
# Poissons Ratio (z) = 0.43683 0.45898
#
# Static dielectric constant tensor:
#      x y z
#    x 1.725940 0.000000 0.000000 
#    y 0.000000 1.727830 0.000000 
#    z 0.000000 0.000000 1.719800 
# 
# From -- ./inp_files/15368.got.cif
#   From: 2010.05.17/outbox.cif.g08.bks.cpg/sg69_8_cif.got.tgz:15368.got - 2010.06.03 19:29:58.
