data_PCOD9511904
_publ_section_title
;
Structure prediction by ZEFSAII (Michael W. Deem and Ramdas Pophale) SiO2 
 PCOD9511904
Probable space group: F M M M
;
_chemical_formula_sum "Si O2"
_cell_formula_units_Z 160
_cell_length_a 25.362505
_cell_length_b 15.483211
_cell_length_c 20.719245
_cell_angle_alpha 90.000000
_cell_angle_beta 90.000000
_cell_angle_gamma 90.000000
_cell_volume 8136.302817
_symmetry_space_group_name_H-M "F M M M"
_symmetry_group_IT_number 69
_symmetry_cell_setting 'orthorhombic'
loop_
_space_group_symop_operation_xyz
x,y,z
-x,-y,z
x,-y,-z
-x,y,-z
-x,-y,-z
x,y,-z
-x,y,z
x,-y,z
x,1/2+y,1/2+z
-x,1/2-y,1/2+z
x,1/2-y,1/2-z
-x,1/2+y,1/2-z
-x,1/2-y,1/2-z
x,1/2+y,1/2-z
-x,1/2+y,1/2+z
x,1/2-y,1/2+z
1/2+x,y,1/2+z
1/2-x,-y,1/2+z
1/2+x,-y,1/2-z
1/2-x,y,1/2-z
1/2-x,-y,1/2-z
1/2+x,y,1/2-z
1/2-x,y,1/2+z
1/2+x,-y,1/2+z
1/2+x,1/2+y,z
1/2-x,1/2-y,z
1/2+x,1/2-y,-z
1/2-x,1/2+y,-z
1/2-x,1/2-y,-z
1/2+x,1/2+y,-z
1/2-x,1/2+y,z
1/2+x,1/2-y,z
loop_
_atom_site_type_symbol
_atom_site_label
_atom_site_fract_x
_atom_site_fract_y
_atom_site_fract_z
Si Si1 0.225472 0.400724 0.684411
Si Si2 0.500000 0.906351 0.379923
Si Si3 0.398204 0.169980 0.155357
Si Si4 0.201209 0.604843 0.073882
Si Si5 0.500000 0.710332 0.574717
Si Si6 0.895723 0.368296 0.700827
O O1 0.244199 0.500000 0.685343
O O2 0.250000 0.360071 0.750000
O O3 0.249521 0.365252 0.618047
O O4 0.162568 0.401907 0.685248
O O5 0.500000 0.815496 0.418272
O O6 0.553283 0.902765 0.336888
O O7 0.500000 0.000000 0.414286
O O8 0.349585 0.136663 0.113440
O O9 0.449561 0.172462 0.111178
O O10 0.391298 0.268091 0.179990
O O11 0.404261 0.119484 0.222698
O O12 0.200150 0.500000 0.070466
O O13 0.202512 0.636390 0.000000
O O14 0.500000 0.688000 0.500000
#
# Coordination Sequence:
#
# PCOD9511904 Si02
#       6
#    32  16  32  32  16  32
#     4  10  19  34  56  81 113 149 190 232 276 329
#     4  10  21  36  57  84 111 141 188 238 278 325
#     4  10  20  36  56  82 112 146 185 231 279 340
#     4  10  21  37  56  81 115 151 186 231 285 339
#     4  10  21  38  58  79 113 153 184 223 282 340
#     4  10  20  35  57  85 112 144 183 237 286 327
#
# _framework density 19.664950999999999
#
# number of rings (size 3 to 8) (size 9 to 14) (size 15 to 20)
#    0.000    2.000    2.000    1.800    0.000    4.200 
#    0.000    6.500    0.000    6.600    0.000    0.000 
#    0.000    0.000    0.000    0.000    0.000    0.000 
#
# Total GULP energy -223003.066234 kJ/mol
# GULP energy per Si atom -5575.076656 kJ/mol
# Density = 1.962019 g / cm^3
# Si number density = 19.664951 Si / 1000 Ang^3
#
#
#
# Elastic Constant Matrix: (Units=GPa)
#
#
# Indices 1 2 3 4 5 6 
#
# 1 129.7535 8.1288 71.2971 0.0000 0.0000 0.0000
# 2 8.1288 25.7123 5.5609 0.0000 0.0000 0.0000
# 3 71.2971 5.5609 165.4221 0.0000 0.0000 0.0000
# 4 0.0000 0.0000 0.0000 8.6821 0.0000 0.0000
# 5 0.0000 0.0000 0.0000 0.0000 8.5190 0.0000
# 6 0.0000 0.0000 0.0000 0.0000 0.0000 17.9505
#
#
#
# Elastic Compliance Matrix: (Units=1/GPa)
#
#
# Indices 1 2 3 4 5 6 
#
# 1 0.010232 -0.002298 -0.004333 0.000000 0.000000 0.000000
# 2 -0.002298 0.039693 -0.000344 0.000000 0.000000 0.000000
# 3 -0.004333 -0.000344 0.007924 0.000000 0.000000 0.000000
# 4 0.000000 0.000000 0.000000 0.115179 0.000000 0.000000
# 5 0.000000 0.000000 0.000000 0.000000 0.117384 0.000000
# 6 0.000000 0.000000 0.000000 0.000000 0.000000 0.055709
#
#
# Mechanical properties :
#
#
# Convention : Reuss Voigt Hill
#
# Bulk Modulus (GPa) = 22.77915 54.54017 38.65966
# Shear Modulus (GPa) = 13.34395 22.75708 18.05052
#
# Velocity S-wave (km/s) = 2.60775 3.40551 3.03298
# Velocity P-wave (km/s) = 4.54708 6.57710 5.65395
#
# Compressibility (1/GPa) = 0.04389979
#
# Stress axis : x y z
#
# Youngs Moduli (GPa) = 97.73718 25.19357 126.19820
#
# Poissons Ratio (x) = 0.05789 0.54676
# Poissons Ratio (y) = 0.22456 0.04342
# Poissons Ratio (z) = 0.42345 0.00867
#
# Static dielectric constant tensor:
#      x y z
#    x 1.652170 0.000000 0.000000 
#    y 0.000000 1.730120 0.000000 
#    z 0.000000 0.000000 1.690560 
# 
# From -- ./inp_files/24872.got.cif
#   From: 2010.05.17/outbox.cif.g08.bks.cpg/sg69_13_cif.got.tgz:24872.got - 2010.06.03 19:29:58.
