data_PCOD9511996
_publ_section_title
;
Structure prediction by ZEFSAII (Michael W. Deem and Ramdas Pophale) SiO2 
 PCOD9511996
Probable space group: F M M M
;
_chemical_formula_sum "Si O2"
_cell_formula_units_Z 192
_cell_length_a 23.684843
_cell_length_b 14.881577
_cell_length_c 28.023751
_cell_angle_alpha 90.000000
_cell_angle_beta 90.000000
_cell_angle_gamma 90.000000
_cell_volume 9877.470279
_symmetry_space_group_name_H-M "F M M M"
_symmetry_group_IT_number 69
_symmetry_cell_setting 'orthorhombic'
loop_
_space_group_symop_operation_xyz
x,y,z
-x,-y,z
x,-y,-z
-x,y,-z
-x,-y,-z
x,y,-z
-x,y,z
x,-y,z
x,1/2+y,1/2+z
-x,1/2-y,1/2+z
x,1/2-y,1/2-z
-x,1/2+y,1/2-z
-x,1/2-y,1/2-z
x,1/2+y,1/2-z
-x,1/2+y,1/2+z
x,1/2-y,1/2+z
1/2+x,y,1/2+z
1/2-x,-y,1/2+z
1/2+x,-y,1/2-z
1/2-x,y,1/2-z
1/2-x,-y,1/2-z
1/2+x,y,1/2-z
1/2-x,y,1/2+z
1/2+x,-y,1/2+z
1/2+x,1/2+y,z
1/2-x,1/2-y,z
1/2+x,1/2-y,-z
1/2-x,1/2+y,-z
1/2-x,1/2-y,-z
1/2+x,1/2+y,-z
1/2-x,1/2+y,z
1/2+x,1/2-y,z
loop_
_atom_site_type_symbol
_atom_site_label
_atom_site_fract_x
_atom_site_fract_y
_atom_site_fract_z
Si Si1 0.694012 0.605538 0.886016
Si Si2 0.613878 0.665434 0.286635
Si Si3 0.199510 0.899993 0.780437
Si Si4 0.500000 0.892204 0.158838
Si Si5 0.875628 0.249087 0.054970
Si Si6 0.327342 0.394220 0.379556
Si Si7 0.500000 0.703657 0.555554
O O1 0.678137 0.500000 0.891410
O O2 0.684854 0.638068 0.831676
O O3 0.658890 0.670534 0.919576
O O4 0.761412 0.612569 0.892323
O O5 0.610424 0.750000 0.250000
O O6 0.643722 0.595639 0.251006
O O7 0.554691 0.642867 0.311791
O O8 0.657050 0.659707 0.331446
O O9 0.250000 0.856049 0.750000
O O10 0.221761 0.000000 0.792436
O O11 0.500000 0.858928 0.103367
O O12 0.500000 0.000000 0.159075
O O13 0.861552 0.344461 0.079223
O O14 0.942941 0.238679 0.059129
O O15 0.859630 0.251703 0.000000
O O16 0.341602 0.500000 0.373472
O O17 0.500000 0.665063 0.500000
#
# Coordination Sequence:
#
# PCOD9511996 Si02
#       7
#    32  32  32  16  32  32  16
#     4  10  22  40  64  96 133 171 216 264 318 391
#     4  12  24  38  59  91 129 169 211 257 317 387
#     4  10  19  35  58  86 123 163 205 252 301 367
#     4  12  25  44  66  88 125 169 216 272 328 389
#     4  11  24  43  65  92 127 167 215 276 340 393
#     4  11  22  40  66  97 132 172 217 264 321 393
#     4  10  24  44  67  91 120 162 218 279 328 390
#
# _framework density 19.438175999999999
#
# number of rings (size 3 to 8) (size 9 to 14) (size 15 to 20)
#    0.000    1.167    3.333    3.250    0.000    2.500 
#    0.000    3.750    0.000    1.500    0.000    0.000 
#    0.000    0.000    0.000    0.000    0.000    0.000 
#
# Total GULP energy -267538.480654 kJ/mol
# GULP energy per Si atom -5573.718347 kJ/mol
# Density = 1.939393 g / cm^3
# Si number density = 19.438176 Si / 1000 Ang^3
#
#
#
# Elastic Constant Matrix: (Units=GPa)
#
#
# Indices 1 2 3 4 5 6 
#
# 1 104.2518 54.0023 62.5363 0.0000 0.0000 0.0000
# 2 54.0023 124.0709 61.4860 0.0000 0.0000 0.0000
# 3 62.5363 61.4860 159.3606 0.0000 0.0000 0.0000
# 4 0.0000 0.0000 0.0000 -23.3754 0.0000 0.0000
# 5 0.0000 0.0000 0.0000 0.0000 38.9095 0.0000
# 6 0.0000 0.0000 0.0000 0.0000 0.0000 14.5624
#
#
#
# Elastic Compliance Matrix: (Units=1/GPa)
#
#
# Indices 1 2 3 4 5 6 
#
# 1 0.014121 -0.004204 -0.003919 0.000000 0.000000 0.000000
# 2 -0.004204 0.011217 -0.002678 0.000000 0.000000 0.000000
# 3 -0.003919 -0.002678 0.008846 0.000000 0.000000 0.000000
# 4 0.000000 0.000000 0.000000 -0.042780 0.000000 0.000000
# 5 0.000000 0.000000 0.000000 0.000000 0.025701 0.000000
# 6 0.000000 0.000000 0.000000 0.000000 0.000000 0.068670
#
#
# Mechanical properties :
#
#
# Convention : Reuss Voigt Hill
#
# Bulk Modulus (GPa) = 79.48188 82.63695 81.05941
# Shear Modulus (GPa) = 44.81458 19.99657 32.40558
#
# Velocity S-wave (km/s) = 4.80676 3.21086 4.08746
# Velocity P-wave (km/s) = 8.47260 7.50674 8.00425
#
# Compressibility (1/GPa) = 0.01258148
#
# Stress axis : x y z
#
# Youngs Moduli (GPa) = 70.81775 89.15175 113.04051
#
# Poissons Ratio (x) = 0.37478 0.44304
# Poissons Ratio (y) = 0.29770 0.30274
# Poissons Ratio (z) = 0.27756 0.23876
#
# Static dielectric constant tensor:
#      x y z
#    x 1.705710 0.000000 0.000000 
#    y 0.000000 1.706760 0.000000 
#    z 0.000000 0.000000 1.707100 
# 
# From -- ./inp_files/38367.got.cif
#   From: 2010.05.17/outbox.cif.g08.bks.cpg/sg69_20_cif.got.tgz:38367.got - 2010.06.03 19:29:58.
