data_PCOD9511661
_publ_section_title
;
Structure prediction by ZEFSAII (Michael W. Deem and Ramdas Pophale) SiO2 
 PCOD9511661
Probable space group: F M M M
;
_chemical_formula_sum "Si O2"
_cell_formula_units_Z 176
_cell_length_a 20.768080
_cell_length_b 30.236344
_cell_length_c 16.231724
_cell_angle_alpha 90.000000
_cell_angle_beta 90.000000
_cell_angle_gamma 90.000000
_cell_volume 10192.724251
_symmetry_space_group_name_H-M "F M M M"
_symmetry_group_IT_number 69
_symmetry_cell_setting 'orthorhombic'
loop_
_space_group_symop_operation_xyz
x,y,z
-x,-y,z
x,-y,-z
-x,y,-z
-x,-y,-z
x,y,-z
-x,y,z
x,-y,z
x,1/2+y,1/2+z
-x,1/2-y,1/2+z
x,1/2-y,1/2-z
-x,1/2+y,1/2-z
-x,1/2-y,1/2-z
x,1/2+y,1/2-z
-x,1/2+y,1/2+z
x,1/2-y,1/2+z
1/2+x,y,1/2+z
1/2-x,-y,1/2+z
1/2+x,-y,1/2-z
1/2-x,y,1/2-z
1/2-x,-y,1/2-z
1/2+x,y,1/2-z
1/2-x,y,1/2+z
1/2+x,-y,1/2+z
1/2+x,1/2+y,z
1/2-x,1/2-y,z
1/2+x,1/2-y,-z
1/2-x,1/2+y,-z
1/2-x,1/2-y,-z
1/2+x,1/2+y,-z
1/2-x,1/2+y,z
1/2+x,1/2-y,z
loop_
_atom_site_type_symbol
_atom_site_label
_atom_site_fract_x
_atom_site_fract_y
_atom_site_fract_z
Si Si1 0.870357 0.089230 0.338571
Si Si2 0.749410 0.349563 0.659060
Si Si3 0.708950 0.204594 0.500000
Si Si4 0.848903 0.500000 0.405706
Si Si5 0.424169 0.154781 0.500000
Si Si6 0.287285 0.000000 0.834571
Si Si7 0.378903 0.904063 0.343628
Si Si8 0.574535 0.949712 0.000000
O O1 0.819305 0.128035 0.354311
O O2 0.904052 0.099172 0.250609
O O3 0.910545 0.078885 0.419340
O O4 0.829741 0.043806 0.332694
O O5 0.750000 0.328017 0.750000
O O6 0.767794 0.319228 0.583223
O O7 0.804819 0.387182 0.662104
O O8 0.750000 0.250000 0.500000
O O9 0.630491 0.194239 0.500000
O O10 0.868124 0.500000 0.500000
O O11 0.770763 0.500000 0.400115
O O12 0.876191 0.455478 0.366080
O O13 0.500000 0.167918 0.500000
O O14 0.410590 0.124741 0.582503
O O15 0.250000 0.000000 0.750000
O O16 0.500000 0.957369 0.000000
O O17 0.605880 0.000000 0.000000
#
# Coordination Sequence:
#
# PCOD9511661 Si02
#       8
#    32  32  16  16  16  16  32  16
#     4  11  19  33  52  72 103 143 187 230 281 315
#     4   9  18  32  54  86 110 132 166 218 280 341
#     4  10  21  37  60  87 113 136 169 220 285 347
#     4  12  20  26  44  76 118 145 183 235 275 317
#     4  10  22  40  58  81 111 148 187 222 274 344
#     4  12  18  26  46  77 104 136 182 229 286 325
#     4  10  19  32  51  78 111 146 183 229 272 322
#     4  11  25  36  41  59  94 144 204 238 260 303
#
# _framework density 17.267219999999998
#
# number of rings (size 3 to 8) (size 9 to 14) (size 15 to 20)
#    0.000    1.545    5.455    1.091    1.273    1.091 
#    0.000    0.909    0.000    2.182    0.000   11.455 
#    0.000    0.000    0.000    0.000    0.000    0.000 
#
# Total GULP energy -244950.696675 kJ/mol
# GULP energy per Si atom -5567.061288 kJ/mol
# Density = 1.722792 g / cm^3
# Si number density = 17.267220 Si / 1000 Ang^3
#
#
#
# Elastic Constant Matrix: (Units=GPa)
#
#
# Indices 1 2 3 4 5 6 
#
# 1 69.5512 26.5406 48.2050 0.0000 0.0000 0.0000
# 2 26.5406 65.7846 36.3315 0.0000 0.0000 0.0000
# 3 48.2050 36.3315 157.8553 0.0000 0.0000 0.0000
# 4 0.0000 0.0000 0.0000 8.7949 0.0000 0.0000
# 5 0.0000 0.0000 0.0000 0.0000 8.0791 0.0000
# 6 0.0000 0.0000 0.0000 0.0000 0.0000 13.4741
#
#
#
# Elastic Compliance Matrix: (Units=1/GPa)
#
#
# Indices 1 2 3 4 5 6 
#
# 1 0.019733 -0.005308 -0.004804 0.000000 0.000000 0.000000
# 2 -0.005308 0.018843 -0.002716 0.000000 0.000000 0.000000
# 3 -0.004804 -0.002716 0.008427 0.000000 0.000000 0.000000
# 4 0.000000 0.000000 0.000000 0.113703 0.000000 0.000000
# 5 0.000000 0.000000 0.000000 0.000000 0.123776 0.000000
# 6 0.000000 0.000000 0.000000 0.000000 0.000000 0.074216
#
#
# Mechanical properties :
#
#
# Convention : Reuss Voigt Hill
#
# Bulk Modulus (GPa) = 46.84595 57.26058 52.05326
# Shear Modulus (GPa) = 12.77239 18.21055 15.49147
#
# Velocity S-wave (km/s) = 2.72267 3.25103 2.99851
# Velocity P-wave (km/s) = 6.08875 6.87937 6.49610
#
# Compressibility (1/GPa) = 0.02134656
#
# Stress axis : x y z
#
# Youngs Moduli (GPa) = 50.67585 53.07145 118.66465
#
# Poissons Ratio (x) = 0.28170 0.57011
# Poissons Ratio (y) = 0.26899 0.32227
# Poissons Ratio (z) = 0.24347 0.14413
#
# Static dielectric constant tensor:
#      x y z
#    x 1.611010 0.000000 0.000000 
#    y 0.000000 1.596090 0.000000 
#    z 0.000000 0.000000 1.627930 
# 
# From -- ./inp_files/18200.got.cif
#   From: 2010.05.17/outbox.cif.g08.bks.cpg/sg69_10_cif.got.tgz:18200.got - 2010.06.03 19:29:58.
