data_PCOD9511827
_publ_section_title
;
Structure prediction by ZEFSAII (Michael W. Deem and Ramdas Pophale) SiO2 
 PCOD9511827
Probable space group: F M M M
;
_chemical_formula_sum "Si O2"
_cell_formula_units_Z 192
_cell_length_a 14.971131
_cell_length_b 27.140501
_cell_length_c 27.353416
_cell_angle_alpha 90.000000
_cell_angle_beta 90.000000
_cell_angle_gamma 90.000000
_cell_volume 11114.349290
_symmetry_space_group_name_H-M "F M M M"
_symmetry_group_IT_number 69
_symmetry_cell_setting 'orthorhombic'
loop_
_space_group_symop_operation_xyz
x,y,z
-x,-y,z
x,-y,-z
-x,y,-z
-x,-y,-z
x,y,-z
-x,y,z
x,-y,z
x,1/2+y,1/2+z
-x,1/2-y,1/2+z
x,1/2-y,1/2-z
-x,1/2+y,1/2-z
-x,1/2-y,1/2-z
x,1/2+y,1/2-z
-x,1/2+y,1/2+z
x,1/2-y,1/2+z
1/2+x,y,1/2+z
1/2-x,-y,1/2+z
1/2+x,-y,1/2-z
1/2-x,y,1/2-z
1/2-x,-y,1/2-z
1/2+x,y,1/2-z
1/2-x,y,1/2+z
1/2+x,-y,1/2+z
1/2+x,1/2+y,z
1/2-x,1/2-y,z
1/2+x,1/2-y,-z
1/2-x,1/2+y,-z
1/2-x,1/2-y,-z
1/2+x,1/2+y,-z
1/2-x,1/2+y,z
1/2+x,1/2-y,z
loop_
_atom_site_type_symbol
_atom_site_label
_atom_site_fract_x
_atom_site_fract_y
_atom_site_fract_z
Si Si1 0.895953 0.771825 0.409581
Si Si2 0.779492 0.321607 0.443123
Si Si3 0.801734 0.941803 0.301956
Si Si4 0.837010 0.625768 0.648928
Si Si5 0.853384 0.766523 0.804196
Si Si6 0.500000 0.444514 0.831973
Si Si7 0.000000 0.944291 0.284818
O O1 0.844636 0.725856 0.435397
O O2 0.821451 0.812890 0.422534
O O3 0.895824 0.760455 0.351295
O O4 0.000000 0.778427 0.424736
O O5 0.775111 0.333278 0.500000
O O6 0.825312 0.359654 0.407030
O O7 0.750000 0.940542 0.250000
O O8 0.750516 0.902889 0.334456
O O9 0.903893 0.923734 0.298532
O O10 0.798748 0.000000 0.316877
O O11 0.855613 0.674999 0.681976
O O12 0.915038 0.586827 0.653987
O O13 0.886752 0.750000 0.750000
O O14 0.750000 0.750000 0.805403
O O15 0.500000 0.500000 0.851378
O O16 0.500000 0.447504 0.773462
O O17 0.000000 0.000000 0.304602
#
# Coordination Sequence:
#
# PCOD9511827 Si02
#       7
#    32  32  32  32  32  16  16
#     4  10  19  37  59  81 110 151 197 239 280 327
#     4  10  22  39  56  81 109 143 195 247 290 344
#     4  10  19  33  56  81 110 144 188 234 281 339
#     4  11  22  37  56  81 112 156 187 235 298 337
#     4  10  21  35  52  80 125 163 190 222 264 348
#     4  11  22  38  60  87 116 145 199 244 283 347
#     4   9  18  32  52  82 108 139 181 225 269 329
#
# _framework density 17.274965999999999
#
# number of rings (size 3 to 8) (size 9 to 14) (size 15 to 20)
#    0.000    1.833    5.000    1.500    7.000    1.667 
#    1.500    0.000    0.000    2.500    0.000    0.000 
#    0.000    2.000    0.000    0.000    0.000    0.000 
#
# Total GULP energy -267230.229480 kJ/mol
# GULP energy per Si atom -5567.296447 kJ/mol
# Density = 1.723565 g / cm^3
# Si number density = 17.274966 Si / 1000 Ang^3
#
#
#
# Elastic Constant Matrix: (Units=GPa)
#
#
# Indices 1 2 3 4 5 6 
#
# 1 137.2295 30.4998 24.5013 0.0000 0.0000 0.0000
# 2 30.4998 77.1841 42.6017 0.0000 0.0000 0.0000
# 3 24.5013 42.6017 107.4479 0.0000 0.0000 0.0000
# 4 0.0000 0.0000 0.0000 7.0994 0.0000 0.0000
# 5 0.0000 0.0000 0.0000 0.0000 5.9973 0.0000
# 6 0.0000 0.0000 0.0000 0.0000 0.0000 -10.8476
#
#
#
# Elastic Compliance Matrix: (Units=1/GPa)
#
#
# Indices 1 2 3 4 5 6 
#
# 1 0.008034 -0.002770 -0.000734 0.000000 0.000000 0.000000
# 2 -0.002770 0.017540 -0.006323 0.000000 0.000000 0.000000
# 3 -0.000734 -0.006323 0.011981 0.000000 0.000000 0.000000
# 4 0.000000 0.000000 0.000000 0.140858 0.000000 0.000000
# 5 0.000000 0.000000 0.000000 0.000000 0.166741 0.000000
# 6 0.000000 0.000000 0.000000 0.000000 0.000000 -0.092186
#
#
# Mechanical properties :
#
#
# Convention : Reuss Voigt Hill
#
# Bulk Modulus (GPa) = 55.85815 57.45191 56.65503
# Shear Modulus (GPa) = 17.94764 15.40039 16.67402
#
# Velocity S-wave (km/s) = 3.22676 2.98902 3.11016
# Velocity P-wave (km/s) = 6.80349 6.72620 6.76496
#
# Compressibility (1/GPa) = 0.01790249
#
# Stress axis : x y z
#
# Youngs Moduli (GPa) = 124.47695 57.01119 83.46426
#
# Poissons Ratio (x) = 0.15789 0.06125
# Poissons Ratio (y) = 0.34474 0.52775
# Poissons Ratio (z) = 0.09134 0.36048
#
# Static dielectric constant tensor:
#      x y z
#    x 1.537120 0.000000 0.000000 
#    y 0.000000 1.611810 0.000000 
#    z 0.000000 0.000000 1.590550 
# 
# From -- ./inp_files/41292.got.cif
#   From: 2010.05.17/outbox.cif.g08.bks.cpg/sg69_21_cif.got.tgz:41292.got - 2010.06.03 19:29:58.
