data_PCOD9511967
_publ_section_title
;
Structure prediction by ZEFSAII (Michael W. Deem and Ramdas Pophale) SiO2 
 PCOD9511967
Probable space group: F M M M
;
_chemical_formula_sum "Si O2"
_cell_formula_units_Z 192
_cell_length_a 27.573408
_cell_length_b 14.527228
_cell_length_c 28.096700
_cell_angle_alpha 90.000000
_cell_angle_beta 90.000000
_cell_angle_gamma 90.000000
_cell_volume 11254.559826
_symmetry_space_group_name_H-M "F M M M"
_symmetry_group_IT_number 69
_symmetry_cell_setting 'orthorhombic'
loop_
_space_group_symop_operation_xyz
x,y,z
-x,-y,z
x,-y,-z
-x,y,-z
-x,-y,-z
x,y,-z
-x,y,z
x,-y,z
x,1/2+y,1/2+z
-x,1/2-y,1/2+z
x,1/2-y,1/2-z
-x,1/2+y,1/2-z
-x,1/2-y,1/2-z
x,1/2+y,1/2-z
-x,1/2+y,1/2+z
x,1/2-y,1/2+z
1/2+x,y,1/2+z
1/2-x,-y,1/2+z
1/2+x,-y,1/2-z
1/2-x,y,1/2-z
1/2-x,-y,1/2-z
1/2+x,y,1/2-z
1/2-x,y,1/2+z
1/2+x,-y,1/2+z
1/2+x,1/2+y,z
1/2-x,1/2-y,z
1/2+x,1/2-y,-z
1/2-x,1/2+y,-z
1/2-x,1/2-y,-z
1/2+x,1/2+y,-z
1/2-x,1/2+y,z
1/2+x,1/2-y,z
loop_
_atom_site_type_symbol
_atom_site_label
_atom_site_fract_x
_atom_site_fract_y
_atom_site_fract_z
Si Si1 0.674896 0.797420 0.056893
Si Si2 0.945593 0.107460 0.723726
Si Si3 0.222814 0.105317 0.942488
Si Si4 0.877199 0.347942 0.144325
Si Si5 0.141329 0.816000 0.211262
Si Si6 0.195356 0.500000 0.299430
Si Si7 0.695340 0.500000 0.315709
O O1 0.722588 0.859405 0.068317
O O2 0.688287 0.691595 0.070896
O O3 0.631185 0.837197 0.088396
O O4 0.667248 0.800927 0.000000
O O5 0.925790 0.115862 0.669643
O O6 0.905948 0.151954 0.758794
O O7 0.000000 0.144410 0.728371
O O8 0.946144 0.000000 0.735659
O O9 0.213196 0.000000 0.926162
O O10 0.220259 0.102682 0.000000
O O11 0.871411 0.248312 0.167616
O O12 0.834235 0.413046 0.164595
O O13 0.168913 0.750000 0.250000
O O14 0.168699 0.904333 0.191409
O O15 0.247505 0.500000 0.324305
O O16 0.194898 0.500000 0.241540
#
# Coordination Sequence:
#
# PCOD9511967 Si02
#       7
#    32  32  32  32  32  16  16
#     4   9  19  33  50  73 102 137 182 225 257 301
#     4  10  19  36  61  80 101 133 167 215 270 318
#     4   8  15  30  49  68  95 132 178 223 258 291
#     4  11  21  36  51  78 104 135 180 217 255 317
#     4  10  19  35  52  73 103 134 175 211 248 310
#     4  11  20  36  48  70 108 145 168 203 249 301
#     4  11  22  34  49  68 108 146 174 199 245 309
#
# _framework density 17.059753000000001
#
# number of rings (size 3 to 8) (size 9 to 14) (size 15 to 20)
#    0.000    2.167    5.000    1.000    1.167    6.333 
#    1.500    0.000    0.000    0.500    0.000    1.167 
#    0.000    0.000    0.000    6.000    0.000    0.000 
#
# Total GULP energy -267226.463164 kJ/mol
# GULP energy per Si atom -5567.217983 kJ/mol
# Density = 1.702092 g / cm^3
# Si number density = 17.059753 Si / 1000 Ang^3
#
#
#
# Elastic Constant Matrix: (Units=GPa)
#
#
# Indices 1 2 3 4 5 6 
#
# 1 76.1471 36.9430 16.4609 0.0000 0.0000 0.0000
# 2 36.9430 108.2640 5.6677 0.0000 0.0000 0.0000
# 3 16.4609 5.6677 59.9620 0.0000 0.0000 0.0000
# 4 0.0000 0.0000 0.0000 -44.7924 0.0000 0.0000
# 5 0.0000 0.0000 0.0000 0.0000 12.6109 0.0000
# 6 0.0000 0.0000 0.0000 0.0000 0.0000 98.8344
#
#
#
# Elastic Compliance Matrix: (Units=1/GPa)
#
#
# Indices 1 2 3 4 5 6 
#
# 1 0.016666 -0.005474 -0.004058 0.000000 0.000000 0.000000
# 2 -0.005474 0.011081 0.000455 0.000000 0.000000 0.000000
# 3 -0.004058 0.000455 0.017748 0.000000 0.000000 0.000000
# 4 0.000000 0.000000 0.000000 -0.022325 0.000000 0.000000
# 5 0.000000 0.000000 0.000000 0.000000 0.079296 0.000000
# 6 0.000000 0.000000 0.000000 0.000000 0.000000 0.010118
#
#
# Mechanical properties :
#
#
# Convention : Reuss Voigt Hill
#
# Bulk Modulus (GPa) = 36.57454 40.27958 38.42706
# Shear Modulus (GPa) = 35.75249 25.68402 30.71825
#
# Velocity S-wave (km/s) = 4.58287 3.88433 4.24798
# Velocity P-wave (km/s) = 7.03486 6.61661 6.82894
#
# Compressibility (1/GPa) = 0.02734143
#
# Stress axis : x y z
#
# Youngs Moduli (GPa) = 60.00405 90.24569 56.34414
#
# Poissons Ratio (x) = 0.49404 0.22862
# Poissons Ratio (y) = 0.32848 -0.02566
# Poissons Ratio (z) = 0.24347 -0.04110
#
# Static dielectric constant tensor:
#      x y z
#    x 1.590360 0.000000 0.000000 
#    y 0.000000 1.845240 0.000000 
#    z 0.000000 0.000000 1.592730 
# 
# From -- ./inp_files/43990.got.cif
#   From: 2010.05.17/outbox.cif.g08.bks.cpg/sg69_22_cif.got.tgz:43990.got - 2010.06.03 19:29:58.
