data_PCOD9511364
_publ_section_title
;
Structure prediction by ZEFSAII (Michael W. Deem and Ramdas Pophale) SiO2 
 PCOD9511364
Probable space group: F M M M
;
_chemical_formula_sum "Si O2"
_cell_formula_units_Z 176
_cell_length_a 24.067874
_cell_length_b 24.953678
_cell_length_c 14.566202
_cell_angle_alpha 90.000000
_cell_angle_beta 90.000000
_cell_angle_gamma 90.000000
_cell_volume 8748.198408
_symmetry_space_group_name_H-M "F M M M"
_symmetry_group_IT_number 69
_symmetry_cell_setting 'orthorhombic'
loop_
_space_group_symop_operation_xyz
x,y,z
-x,-y,z
x,-y,-z
-x,y,-z
-x,-y,-z
x,y,-z
-x,y,z
x,-y,z
x,1/2+y,1/2+z
-x,1/2-y,1/2+z
x,1/2-y,1/2-z
-x,1/2+y,1/2-z
-x,1/2-y,1/2-z
x,1/2+y,1/2-z
-x,1/2+y,1/2+z
x,1/2-y,1/2+z
1/2+x,y,1/2+z
1/2-x,-y,1/2+z
1/2+x,-y,1/2-z
1/2-x,y,1/2-z
1/2-x,-y,1/2-z
1/2+x,y,1/2-z
1/2-x,y,1/2+z
1/2+x,-y,1/2+z
1/2+x,1/2+y,z
1/2-x,1/2-y,z
1/2+x,1/2-y,-z
1/2-x,1/2+y,-z
1/2-x,1/2-y,-z
1/2+x,1/2+y,-z
1/2-x,1/2+y,z
1/2+x,1/2-y,z
loop_
_atom_site_type_symbol
_atom_site_label
_atom_site_fract_x
_atom_site_fract_y
_atom_site_fract_z
Si Si1 0.000000 0.693442 0.799326
Si Si2 0.381533 0.351758 0.100330
Si Si3 0.876513 0.937619 0.389096
Si Si4 0.500000 0.636666 0.896262
Si Si5 0.111102 0.276109 0.893753
Si Si6 0.186763 0.149486 0.280209
Si Si7 0.500000 0.564614 0.395684
O O1 0.000000 0.750000 0.750000
O O2 0.055024 0.694598 0.861094
O O3 0.000000 0.656840 0.709464
O O4 0.438048 0.386169 0.100027
O O5 0.397219 0.288243 0.112617
O O6 0.344542 0.364358 0.186146
O O7 0.354576 0.356342 0.000000
O O8 0.877762 0.933910 0.500000
O O9 0.830067 0.898640 0.348592
O O10 0.939332 0.922361 0.355269
O O11 0.866889 0.000000 0.365681
O O12 0.500000 0.666793 0.000000
O O13 0.159991 0.298142 0.828869
O O14 0.122806 0.288516 0.000000
O O15 0.250000 0.156469 0.250000
O O16 0.500000 0.500000 0.401348
O O17 0.500000 0.586013 0.500000
#
# Coordination Sequence:
#
# PCOD9511364 Si02
#       7
#    16  32  32  16  32  32  16
#     4  12  17  30  55  84 116 144 185 233 291 348
#     4  10  21  37  55  77 110 151 190 233 285 337
#     4   9  19  38  63  90 118 143 171 222 292 355
#     4  10  18  32  54  80 111 149 190 232 283 336
#     4  11  22  36  55  83 115 149 187 239 299 348
#     4  12  25  38  54  78 110 149 201 240 273 326
#     4   7  12  28  57  90 118 137 156 198 275 357
#
# _framework density 20.118428000000002
#
# number of rings (size 3 to 8) (size 9 to 14) (size 15 to 20)
#    0.000    1.727    3.636    2.455    0.000    4.727 
#    0.000    3.636    0.000    0.545    0.000    0.000 
#    0.000    4.364    0.000    0.000    0.000    0.000 
#
# Total GULP energy -245043.052132 kJ/mol
# GULP energy per Si atom -5569.160276 kJ/mol
# Density = 2.007264 g / cm^3
# Si number density = 20.118428 Si / 1000 Ang^3
#
#
#
# Elastic Constant Matrix: (Units=GPa)
#
#
# Indices 1 2 3 4 5 6 
#
# 1 131.3561 -1.3438 36.1398 0.0000 0.0000 0.0000
# 2 -1.3438 45.4862 -4.8689 0.0000 0.0000 0.0000
# 3 36.1398 -4.8689 101.1971 0.0000 0.0000 0.0000
# 4 0.0000 0.0000 0.0000 24.0339 0.0000 0.0000
# 5 0.0000 0.0000 0.0000 0.0000 7.5875 0.0000
# 6 0.0000 0.0000 0.0000 0.0000 0.0000 8.8732
#
#
#
# Elastic Compliance Matrix: (Units=1/GPa)
#
#
# Indices 1 2 3 4 5 6 
#
# 1 0.008443 -0.000074 -0.003019 0.000000 0.000000 0.000000
# 2 -0.000074 0.022099 0.001090 0.000000 0.000000 0.000000
# 3 -0.003019 0.001090 0.011012 0.000000 0.000000 0.000000
# 4 0.000000 0.000000 0.000000 0.041608 0.000000 0.000000
# 5 0.000000 0.000000 0.000000 0.000000 0.131796 0.000000
# 6 0.000000 0.000000 0.000000 0.000000 0.000000 0.112698
#
#
# Mechanical properties :
#
#
# Convention : Reuss Voigt Hill
#
# Bulk Modulus (GPa) = 26.63226 37.54373 32.08799
# Shear Modulus (GPa) = 14.52737 24.63974 19.58356
#
# Velocity S-wave (km/s) = 2.69009 3.50342 3.12334
# Velocity P-wave (km/s) = 4.78699 5.92175 5.38435
#
# Compressibility (1/GPa) = 0.03754845
#
# Stress axis : x y z
#
# Youngs Moduli (GPa) = 118.44633 45.25068 90.80883
#
# Poissons Ratio (x) = 0.00333 0.27412
# Poissons Ratio (y) = 0.00873 -0.09894
# Poissons Ratio (z) = 0.35754 -0.04930
#
# Static dielectric constant tensor:
#      x y z
#    x 1.752980 0.000000 0.000000 
#    y 0.000000 1.763580 0.000000 
#    z 0.000000 0.000000 1.756500 
# 
# From -- ./inp_files/18172.got.cif
#   From: 2010.05.17/outbox.cif.g08.bks.cpg/sg69_10_cif.got.tgz:18172.got - 2010.06.03 19:29:58.
