data_PCOD9511242
_publ_section_title
;
Structure prediction by ZEFSAII (Michael W. Deem and Ramdas Pophale) SiO2 
 PCOD9511242
Probable space group: F M M M
;
_chemical_formula_sum "Si O2"
_cell_formula_units_Z 192
_cell_length_a 30.272554
_cell_length_b 19.481121
_cell_length_c 19.556850
_cell_angle_alpha 90.000000
_cell_angle_beta 90.000000
_cell_angle_gamma 90.000000
_cell_volume 11533.521011
_symmetry_space_group_name_H-M "F M M M"
_symmetry_group_IT_number 69
_symmetry_cell_setting 'orthorhombic'
loop_
_space_group_symop_operation_xyz
x,y,z
-x,-y,z
x,-y,-z
-x,y,-z
-x,-y,-z
x,y,-z
-x,y,z
x,-y,z
x,1/2+y,1/2+z
-x,1/2-y,1/2+z
x,1/2-y,1/2-z
-x,1/2+y,1/2-z
-x,1/2-y,1/2-z
x,1/2+y,1/2-z
-x,1/2+y,1/2+z
x,1/2-y,1/2+z
1/2+x,y,1/2+z
1/2-x,-y,1/2+z
1/2+x,-y,1/2-z
1/2-x,y,1/2-z
1/2-x,-y,1/2-z
1/2+x,y,1/2-z
1/2-x,y,1/2+z
1/2+x,-y,1/2+z
1/2+x,1/2+y,z
1/2-x,1/2-y,z
1/2+x,1/2-y,-z
1/2-x,1/2+y,-z
1/2-x,1/2-y,-z
1/2+x,1/2+y,-z
1/2-x,1/2+y,z
1/2+x,1/2-y,z
loop_
_atom_site_type_symbol
_atom_site_label
_atom_site_fract_x
_atom_site_fract_y
_atom_site_fract_z
Si Si1 0.300240 0.225864 0.671982
Si Si2 0.052271 0.419632 0.698873
Si Si3 0.201129 0.923218 0.217942
Si Si4 0.373479 0.701957 0.580375
Si Si5 0.618732 0.920649 0.819044
Si Si6 0.948123 0.685446 0.578486
O O1 0.310823 0.250000 0.750000
O O2 0.250000 0.250000 0.659330
O O3 0.304017 0.143249 0.670512
O O4 0.333549 0.260676 0.619656
O O5 0.061528 0.500000 0.684690
O O6 0.081468 0.399550 0.764005
O O7 0.062871 0.372801 0.633733
O O8 0.000000 0.413019 0.713091
O O9 0.250000 0.918937 0.250000
O O10 0.165021 0.917001 0.278069
O O11 0.195700 0.000000 0.187539
O O12 0.364479 0.694885 0.500000
O O13 0.380725 0.629608 0.617245
O O14 0.416704 0.749559 0.588898
O O15 0.611113 0.000000 0.837952
O O16 0.942018 0.661381 0.500000
O O17 0.000000 0.702882 0.586625
#
# Coordination Sequence:
#
# PCOD9511242 Si02
#       6
#    32  32  32  32  32  32
#     4  11  19  34  56  81 106 137 176 217 259 315
#     4   9  18  32  52  79 106 134 173 217 259 308
#     4  10  18  30  51  79 106 133 169 211 256 306
#     4  11  23  36  53  76 104 139 176 219 266 313
#     4  10  20  34  52  74 101 134 172 218 263 307
#     4   9  19  34  51  75 107 140 173 211 260 315
#
# _framework density 16.647127999999999
#
# number of rings (size 3 to 8) (size 9 to 14) (size 15 to 20)
#    0.000    2.000    3.333    1.000    0.000    1.667 
#    0.000    3.333    0.000    1.500    0.000    4.667 
#    0.000    0.000    0.000    0.000    0.000    0.000 
#
# Total GULP energy -267728.591678 kJ/mol
# GULP energy per Si atom -5577.678993 kJ/mol
# Density = 1.660924 g / cm^3
# Si number density = 16.647128 Si / 1000 Ang^3
#
#
#
# Elastic Constant Matrix: (Units=GPa)
#
#
# Indices 1 2 3 4 5 6 
#
# 1 65.2988 43.8134 66.3786 0.0000 0.0000 0.0000
# 2 43.8134 120.1316 81.5597 0.0000 0.0000 0.0000
# 3 66.3786 81.5597 115.6114 0.0000 0.0000 0.0000
# 4 0.0000 0.0000 0.0000 24.4362 0.0000 0.0000
# 5 0.0000 0.0000 0.0000 0.0000 20.5897 0.0000
# 6 0.0000 0.0000 0.0000 0.0000 0.0000 22.3910
#
#
#
# Elastic Compliance Matrix: (Units=1/GPa)
#
#
# Indices 1 2 3 4 5 6 
#
# 1 0.036979 0.001781 -0.022488 0.000000 0.000000 0.000000
# 2 0.001781 0.016062 -0.012353 0.000000 0.000000 0.000000
# 3 -0.022488 -0.012353 0.030276 0.000000 0.000000 0.000000
# 4 0.000000 0.000000 0.000000 0.040923 0.000000 0.000000
# 5 0.000000 0.000000 0.000000 0.000000 0.048568 0.000000
# 6 0.000000 0.000000 0.000000 0.000000 0.000000 0.044661
#
#
# Mechanical properties :
#
#
# Convention : Reuss Voigt Hill
#
# Bulk Modulus (GPa) = 58.15379 76.06061 67.10720
# Shear Modulus (GPa) = 17.28181 20.76940 19.02560
#
# Velocity S-wave (km/s) = 3.22549 3.53601 3.38431
# Velocity P-wave (km/s) = 6.99148 7.90318 7.46127
#
# Compressibility (1/GPa) = 0.01719578
#
# Stress axis : x y z
#
# Youngs Moduli (GPa) = 27.04223 62.25997 33.02939
#
# Poissons Ratio (x) = -0.11087 0.74276
# Poissons Ratio (y) = -0.04816 0.40802
# Poissons Ratio (z) = 0.60813 0.76912
#
# Static dielectric constant tensor:
#      x y z
#    x 1.562740 0.000000 0.000000 
#    y 0.000000 1.575100 0.000000 
#    z 0.000000 0.000000 1.522340 
# 
# From -- ./inp_files/33533.got.cif
#   From: 2010.05.17/outbox.cif.g08.bks.cpg/sg69_17_cif.got.tgz:33533.got - 2010.06.03 19:29:58.
