data_PCOD9511133
_publ_section_title
;
Structure prediction by ZEFSAII (Michael W. Deem and Ramdas Pophale) SiO2 
 PCOD9511133
Probable space group: F M M M
;
_chemical_formula_sum "Si O2"
_cell_formula_units_Z 160
_cell_length_a 25.489704
_cell_length_b 16.052900
_cell_length_c 24.179930
_cell_angle_alpha 90.000000
_cell_angle_beta 90.000000
_cell_angle_gamma 90.000000
_cell_volume 9894.032482
_symmetry_space_group_name_H-M "F M M M"
_symmetry_group_IT_number 69
_symmetry_cell_setting 'orthorhombic'
loop_
_space_group_symop_operation_xyz
x,y,z
-x,-y,z
x,-y,-z
-x,y,-z
-x,-y,-z
x,y,-z
-x,y,z
x,-y,z
x,1/2+y,1/2+z
-x,1/2-y,1/2+z
x,1/2-y,1/2-z
-x,1/2+y,1/2-z
-x,1/2-y,1/2-z
x,1/2+y,1/2-z
-x,1/2+y,1/2+z
x,1/2-y,1/2+z
1/2+x,y,1/2+z
1/2-x,-y,1/2+z
1/2+x,-y,1/2-z
1/2-x,y,1/2-z
1/2-x,-y,1/2-z
1/2+x,y,1/2-z
1/2-x,y,1/2+z
1/2+x,-y,1/2+z
1/2+x,1/2+y,z
1/2-x,1/2-y,z
1/2+x,1/2-y,-z
1/2-x,1/2+y,-z
1/2-x,1/2-y,-z
1/2+x,1/2+y,-z
1/2-x,1/2+y,z
1/2+x,1/2-y,z
loop_
_atom_site_type_symbol
_atom_site_label
_atom_site_fract_x
_atom_site_fract_y
_atom_site_fract_z
Si Si1 0.557291 0.149983 0.754973
Si Si2 0.666392 0.601793 0.562667
Si Si3 0.441940 0.899501 0.116694
Si Si4 0.262618 0.597545 0.336747
Si Si5 0.170181 0.153138 0.233239
O O1 0.500000 0.117186 0.736913
O O2 0.555244 0.250000 0.750000
O O3 0.563778 0.127610 0.819597
O O4 0.610708 0.122521 0.725094
O O5 0.677409 0.627646 0.500000
O O6 0.666365 0.500000 0.564001
O O7 0.608202 0.628944 0.581860
O O8 0.708642 0.629150 0.608278
O O9 0.500000 0.872027 0.097315
O O10 0.441607 0.000000 0.115556
O O11 0.250958 0.500000 0.343361
O O12 0.209407 0.642074 0.317840
O O13 0.303051 0.607324 0.285473
O O14 0.168788 0.250000 0.250000
#
# Coordination Sequence:
#
# PCOD9511133 Si02
#       5
#    32  32  32  32  32
#     4   9  17  28  42  63  86 113 141 170 212 254
#     4   9  17  28  41  59  84 112 143 178 213 249
#     4   9  16  26  41  61  86 113 143 177 209 249
#     4  10  18  28  43  62  85 113 145 173 206 249
#     4  10  18  28  44  64  85 112 139 177 211 254
#
# _framework density 16.171364000000001
#
# number of rings (size 3 to 8) (size 9 to 14) (size 15 to 20)
#    0.000    2.600    2.000    2.400    0.000    1.200 
#    0.000    2.000    0.000    2.400    0.000    0.000 
#    0.000    0.800    0.000    5.000    0.000    0.200 
#
# Total GULP energy -222728.431719 kJ/mol
# GULP energy per Si atom -5568.210793 kJ/mol
# Density = 1.613456 g / cm^3
# Si number density = 16.171364 Si / 1000 Ang^3
#
#
#
# Elastic Constant Matrix: (Units=GPa)
#
#
# Indices 1 2 3 4 5 6 
#
# 1 172.9707 11.5821 72.0593 0.0000 0.0000 0.0000
# 2 11.5821 15.5241 4.2418 0.0000 0.0000 0.0000
# 3 72.0593 4.2418 88.2587 0.0000 0.0000 0.0000
# 4 0.0000 0.0000 0.0000 -2.4303 0.0000 0.0000
# 5 0.0000 0.0000 0.0000 0.0000 25.0821 0.0000
# 6 0.0000 0.0000 0.0000 0.0000 0.0000 26.9087
#
#
#
# Elastic Compliance Matrix: (Units=1/GPa)
#
#
# Indices 1 2 3 4 5 6 
#
# 1 0.009105 -0.004825 -0.007202 0.000000 0.000000 0.000000
# 2 -0.004825 0.067830 0.000679 0.000000 0.000000 0.000000
# 3 -0.007202 0.000679 0.017177 0.000000 0.000000 0.000000
# 4 0.000000 0.000000 0.000000 -0.411466 0.000000 0.000000
# 5 0.000000 0.000000 0.000000 0.000000 0.039869 0.000000
# 6 0.000000 0.000000 0.000000 0.000000 0.000000 0.037163
#
#
# Mechanical properties :
#
#
# Convention : Reuss Voigt Hill
#
# Bulk Modulus (GPa) = 14.00215 50.27999 32.14107
# Shear Modulus (GPa) = -25.79686 22.50345 -1.64670
#
# Velocity S-wave (km/s) = -3.99835 3.73441 -1.01019
# Velocity P-wave (km/s) = 3.55505 7.05365 4.30788
#
# Compressibility (1/GPa) = 0.07141762
#
# Stress axis : x y z
#
# Youngs Moduli (GPa) = 109.83498 14.74276 58.21587
#
# Poissons Ratio (x) = 0.07113 0.41925
# Poissons Ratio (y) = 0.52994 -0.03955
# Poissons Ratio (z) = 0.79099 -0.01002
#
# Static dielectric constant tensor:
#      x y z
#    x 1.605840 0.000000 0.000000 
#    y 0.000000 1.564710 0.000000 
#    z 0.000000 0.000000 1.522620 
# 
# From -- ./inp_files/18003.got.cif
#   From: 2010.05.17/outbox.cif.g08.bks.cpg/sg69_10_cif.got.tgz:18003.got - 2010.06.03 19:29:58.
