data_PCOD9511124
_publ_section_title
;
Structure prediction by ZEFSAII (Michael W. Deem and Ramdas Pophale) SiO2 
 PCOD9511124
Probable space group: F M M M
;
_chemical_formula_sum "Si O2"
_cell_formula_units_Z 100
_cell_length_a 8.560872
_cell_length_b 18.522255
_cell_length_c 25.619322
_cell_angle_alpha 90.000000
_cell_angle_beta 90.000000
_cell_angle_gamma 90.000000
_cell_volume 4062.370173
_symmetry_space_group_name_H-M "F M M M"
_symmetry_group_IT_number 69
_symmetry_cell_setting 'orthorhombic'
loop_
_space_group_symop_operation_xyz
x,y,z
-x,-y,z
x,-y,-z
-x,y,-z
-x,-y,-z
x,y,-z
-x,y,z
x,-y,z
x,1/2+y,1/2+z
-x,1/2-y,1/2+z
x,1/2-y,1/2-z
-x,1/2+y,1/2-z
-x,1/2-y,1/2-z
x,1/2+y,1/2-z
-x,1/2+y,1/2+z
x,1/2-y,1/2+z
1/2+x,y,1/2+z
1/2-x,-y,1/2+z
1/2+x,-y,1/2-z
1/2-x,y,1/2-z
1/2-x,-y,1/2-z
1/2+x,y,1/2-z
1/2-x,y,1/2+z
1/2+x,-y,1/2+z
1/2+x,1/2+y,z
1/2-x,1/2-y,z
1/2+x,1/2-y,-z
1/2-x,1/2+y,-z
1/2-x,1/2-y,-z
1/2+x,1/2+y,-z
1/2-x,1/2+y,z
1/2+x,1/2-y,z
loop_
_atom_site_type_symbol
_atom_site_label
_atom_site_fract_x
_atom_site_fract_y
_atom_site_fract_z
Si Si1 0.000000 0.360042 0.077550
Si Si2 0.670162 0.136922 0.559651
Si Si3 0.750000 0.250000 0.750000
Si Si4 0.500000 0.000000 0.000000
Si Si5 0.823216 0.000000 0.137015
Si Si6 0.000000 0.500000 0.796219
Si Si7 0.000000 0.151029 0.300364
O O1 0.164750 0.322703 0.064222
O O2 0.000000 0.435519 0.045481
O O3 0.000000 0.369864 0.139474
O O4 0.666740 0.108762 0.500000
O O5 0.500000 0.171598 0.569228
O O6 0.682897 0.070313 0.599757
O O7 0.853274 0.199176 0.713969
O O8 0.669803 0.000000 0.173621
O O9 0.000000 0.000000 0.160244
O O10 0.000000 0.576990 0.768075
#
# Coordination Sequence:
#
# PCOD9511124 Si02
#       7
#    16  32   8   4  16   8  16
#     4  12  20  35  63 105 149 206 230 310 385 484
#     4  10  18  27  45  86 148 201 233 282 366 458
#     4  10  28  60  76 108 152 216 268 350 392 510
#     4  12  22  32  66 124 180 182 244 326 404 458
#     4  10  18  29  46  96 153 191 227 295 367 446
#     4  12  21  40  75 120 138 178 246 337 403 474
#     4  11  25  51  86 111 154 201 276 333 431 462
#
# _framework density 24.616173
#
# number of rings (size 3 to 8) (size 9 to 14) (size 15 to 20)
#    0.000    1.280    4.800    1.920    0.000    2.560 
#   11.520    0.000    0.000    0.960    0.000    0.000 
#    0.000    0.000    0.000    0.000    0.000    0.000 
#
# Total GULP energy -139420.358128 kJ/mol
# GULP energy per Si atom -5576.814325 kJ/mol
# Density = 2.456015 g / cm^3
# Si number density = 24.616173 Si / 1000 Ang^3
#
#
#
# Elastic Constant Matrix: (Units=GPa)
#
#
# Indices 1 2 3 4 5 6 
#
# 1 282.3147 67.0168 26.0502 0.0000 0.0000 0.0000
# 2 67.0168 134.9795 33.7112 0.0000 0.0000 0.0000
# 3 26.0502 33.7112 92.9059 0.0000 0.0000 0.0000
# 4 0.0000 0.0000 0.0000 59.7656 0.0000 0.0000
# 5 0.0000 0.0000 0.0000 0.0000 -68.3343 0.0000
# 6 0.0000 0.0000 0.0000 0.0000 0.0000 52.4994
#
#
#
# Elastic Compliance Matrix: (Units=1/GPa)
#
#
# Indices 1 2 3 4 5 6 
#
# 1 0.004032 -0.001891 -0.000444 0.000000 0.000000 0.000000
# 2 -0.001891 0.009034 -0.002748 0.000000 0.000000 0.000000
# 3 -0.000444 -0.002748 0.011885 0.000000 0.000000 0.000000
# 4 0.000000 0.000000 0.000000 0.016732 0.000000 0.000000
# 5 0.000000 0.000000 0.000000 0.000000 -0.014634 0.000000
# 6 0.000000 0.000000 0.000000 0.000000 0.000000 0.019048
#
#
# Mechanical properties :
#
#
# Convention : Reuss Voigt Hill
#
# Bulk Modulus (GPa) = 67.63700 84.86183 76.24941
# Shear Modulus (GPa) = 81.71140 34.34761 58.02951
#
# Velocity S-wave (km/s) = 5.76769 3.73946 4.86055
# Velocity P-wave (km/s) = 8.47887 7.29339 7.90838
#
# Compressibility (1/GPa) = 0.01478481
#
# Stress axis : x y z
#
# Youngs Moduli (GPa) = 248.01464 110.69805 84.13830
#
# Poissons Ratio (x) = 0.20932 0.03739
# Poissons Ratio (y) = 0.46897 0.23118
# Poissons Ratio (z) = 0.11023 0.30416
#
# Static dielectric constant tensor:
#      x y z
#    x 2.060250 0.000000 0.000000 
#    y 0.000000 1.884180 0.000000 
#    z 0.000000 0.000000 1.931860 
# 
# From -- ./inp_files/39417.got.cif
#   From: 2010.05.17/outbox.cif.g08.bks.cpg/sg69_20_cif.got.tgz:39417.got - 2010.06.03 19:29:58.
