data_PCOD9511100
_publ_section_title
;
Structure prediction by ZEFSAII (Michael W. Deem and Ramdas Pophale) SiO2 
 PCOD9511100
Probable space group: F M M M
;
_chemical_formula_sum "Si O2"
_cell_formula_units_Z 152
_cell_length_a 24.414300
_cell_length_b 22.348791
_cell_length_c 13.921393
_cell_angle_alpha 90.000000
_cell_angle_beta 90.000000
_cell_angle_gamma 90.000000
_cell_volume 7595.930889
_symmetry_space_group_name_H-M "F M M M"
_symmetry_group_IT_number 69
_symmetry_cell_setting 'orthorhombic'
loop_
_space_group_symop_operation_xyz
x,y,z
-x,-y,z
x,-y,-z
-x,y,-z
-x,-y,-z
x,y,-z
-x,y,z
x,-y,z
x,1/2+y,1/2+z
-x,1/2-y,1/2+z
x,1/2-y,1/2-z
-x,1/2+y,1/2-z
-x,1/2-y,1/2-z
x,1/2+y,1/2-z
-x,1/2+y,1/2+z
x,1/2-y,1/2+z
1/2+x,y,1/2+z
1/2-x,-y,1/2+z
1/2+x,-y,1/2-z
1/2-x,y,1/2-z
1/2-x,-y,1/2-z
1/2+x,y,1/2-z
1/2-x,y,1/2+z
1/2+x,-y,1/2+z
1/2+x,1/2+y,z
1/2-x,1/2-y,z
1/2+x,1/2-y,-z
1/2-x,1/2+y,-z
1/2-x,1/2-y,-z
1/2+x,1/2+y,-z
1/2-x,1/2+y,z
1/2+x,1/2-y,z
loop_
_atom_site_type_symbol
_atom_site_label
_atom_site_fract_x
_atom_site_fract_y
_atom_site_fract_z
Si Si1 0.130466 0.000000 0.500000
Si Si2 0.240260 0.127743 0.604808
Si Si3 0.883460 0.500000 0.787897
Si Si4 0.216408 0.500000 0.347016
Si Si5 0.170111 0.818965 0.775868
Si Si6 0.563939 0.869955 0.787699
Si Si7 0.064509 0.876822 0.500000
O O1 0.152148 0.000000 0.388878
O O2 0.096434 0.060908 0.500000
O O3 0.216309 0.140458 0.500000
O O4 0.196934 0.140094 0.690175
O O5 0.292212 0.168488 0.632424
O O6 0.265569 0.061308 0.603974
O O7 0.845623 0.500000 0.693113
O O8 0.920205 0.559688 0.788316
O O9 0.250000 0.500000 0.250000
O O10 0.175404 0.750000 0.750000
O O11 0.107139 0.837905 0.781511
O O12 0.500000 0.861841 0.765603
O O13 0.574933 0.846508 0.897125
O O14 0.000000 0.891349 0.500000
#
# Coordination Sequence:
#
# PCOD9511100 Si02
#       7
#     8  32  16  16  32  32  16
#     4   8  15  24  46  80 110 156 182 214 291 360
#     4  11  23  41  64  89 119 155 195 249 307 358
#     4  10  17  33  54  82 122 155 191 245 300 365
#     4  12  19  38  59  89 124 149 187 247 303 366
#     4  11  24  41  60  88 119 159 210 245 289 354
#     4  10  19  34  57  86 122 157 195 246 300 354
#     4   8  15  26  46  80 116 149 185 229 285 348
#
# _framework density 20.010712999999999
#
# number of rings (size 3 to 8) (size 9 to 14) (size 15 to 20)
#    0.000    1.684    4.211    2.053    1.474    4.632 
#    5.684    0.000    0.000    0.632    0.000    1.474 
#    0.000    0.000    0.000    0.000    0.000    0.000 
#
# Total GULP energy -211939.587579 kJ/mol
# GULP energy per Si atom -5577.357568 kJ/mol
# Density = 1.996517 g / cm^3
# Si number density = 20.010713 Si / 1000 Ang^3
#
#
#
# Elastic Constant Matrix: (Units=GPa)
#
#
# Indices 1 2 3 4 5 6 
#
# 1 97.4793 1.2103 -0.3647 0.0000 0.0000 0.0000
# 2 1.2103 82.9825 -10.7499 0.0000 0.0000 0.0000
# 3 -0.3647 -10.7499 48.5423 0.0000 0.0000 0.0000
# 4 0.0000 0.0000 0.0000 -0.3039 0.0000 0.0000
# 5 0.0000 0.0000 0.0000 0.0000 22.4317 0.0000
# 6 0.0000 0.0000 0.0000 0.0000 0.0000 9.9407
#
#
#
# Elastic Compliance Matrix: (Units=1/GPa)
#
#
# Indices 1 2 3 4 5 6 
#
# 1 0.010261 -0.000144 0.000045 0.000000 0.000000 0.000000
# 2 -0.000144 0.012409 0.002747 0.000000 0.000000 0.000000
# 3 0.000045 0.002747 0.021209 0.000000 0.000000 0.000000
# 4 0.000000 0.000000 0.000000 -3.290839 0.000000 0.000000
# 5 0.000000 0.000000 0.000000 0.000000 0.044580 0.000000
# 6 0.000000 0.000000 0.000000 0.000000 0.000000 0.100596
#
#
# Mechanical properties :
#
#
# Convention : Reuss Voigt Hill
#
# Bulk Modulus (GPa) = 20.33551 23.24396 21.78974
# Shear Modulus (GPa) = -1.61776 22.34094 10.36159
#
# Velocity S-wave (km/s) = -0.90011 3.34496 2.27800
# Velocity P-wave (km/s) = 3.01730 5.15357 4.22276
#
# Compressibility (1/GPa) = 0.04917505
#
# Stress axis : x y z
#
# Youngs Moduli (GPa) = 97.46077 80.58886 47.14931
#
# Poissons Ratio (x) = 0.01159 -0.00213
# Poissons Ratio (y) = 0.01401 -0.12951
# Poissons Ratio (z) = -0.00441 -0.22137
#
# Static dielectric constant tensor:
#      x y z
#    x 1.732460 0.000000 0.000000 
#    y 0.000000 1.714630 0.000000 
#    z 0.000000 0.000000 1.763910 
# 
# From -- ./inp_files/17826.got.cif
#   From: 2010.05.17/outbox.cif.g08.bks.cpg/sg69_9_cif.got.tgz:17826.got - 2010.06.03 19:29:58.
