data_PCOD9511627
_publ_section_title
;
Structure prediction by ZEFSAII (Michael W. Deem and Ramdas Pophale) SiO2 
 PCOD9511627
Probable space group: F M M M
;
_chemical_formula_sum "Si O2"
_cell_formula_units_Z 192
_cell_length_a 18.512709
_cell_length_b 19.226088
_cell_length_c 32.322639
_cell_angle_alpha 90.000000
_cell_angle_beta 90.000000
_cell_angle_gamma 90.000000
_cell_volume 11504.499038
_symmetry_space_group_name_H-M "F M M M"
_symmetry_group_IT_number 69
_symmetry_cell_setting 'orthorhombic'
loop_
_space_group_symop_operation_xyz
x,y,z
-x,-y,z
x,-y,-z
-x,y,-z
-x,-y,-z
x,y,-z
-x,y,z
x,-y,z
x,1/2+y,1/2+z
-x,1/2-y,1/2+z
x,1/2-y,1/2-z
-x,1/2+y,1/2-z
-x,1/2-y,1/2-z
x,1/2+y,1/2-z
-x,1/2+y,1/2+z
x,1/2-y,1/2+z
1/2+x,y,1/2+z
1/2-x,-y,1/2+z
1/2+x,-y,1/2-z
1/2-x,y,1/2-z
1/2-x,-y,1/2-z
1/2+x,y,1/2-z
1/2-x,y,1/2+z
1/2+x,-y,1/2+z
1/2+x,1/2+y,z
1/2-x,1/2-y,z
1/2+x,1/2-y,-z
1/2-x,1/2+y,-z
1/2-x,1/2-y,-z
1/2+x,1/2+y,-z
1/2-x,1/2+y,z
1/2+x,1/2-y,z
loop_
_atom_site_type_symbol
_atom_site_label
_atom_site_fract_x
_atom_site_fract_y
_atom_site_fract_z
Si Si1 0.627295 0.855643 0.952498
Si Si2 0.771679 0.331077 0.403706
Si Si3 0.723457 0.083709 0.319201
Si Si4 0.000000 0.582215 0.101089
Si Si5 0.358107 0.916177 0.241289
Si Si6 0.416469 0.193105 0.452137
Si Si7 0.000000 0.085510 0.304600
O O1 0.707949 0.857706 0.934028
O O2 0.571101 0.895372 0.923618
O O3 0.599158 0.775916 0.952367
O O4 0.625764 0.880138 0.000000
O O5 0.750000 0.250000 0.396149
O O6 0.772515 0.374359 0.361437
O O7 0.850685 0.336256 0.424857
O O8 0.659461 0.106506 0.287943
O O9 0.793678 0.097601 0.290856
O O10 0.719779 0.000000 0.326573
O O11 0.000000 0.610011 0.148043
O O12 0.000000 0.500000 0.104236
O O13 0.430460 0.890382 0.220438
O O14 0.361792 0.000000 0.244039
O O15 0.410128 0.169529 0.500000
O O16 0.500000 0.180894 0.438776
O O17 0.000000 0.000000 0.305173
#
# Coordination Sequence:
#
# PCOD9511627 Si02
#       7
#    32  32  32  16  32  32  16
#     4  10  19  32  48  70 102 136 171 207 243 296
#     4  10  20  32  51  79 101 130 171 219 254 299
#     4   9  17  32  51  71  97 129 164 205 253 300
#     4  11  21  30  47  77 110 139 164 201 260 318
#     4   8  15  29  49  68  92 129 168 200 239 302
#     4   9  17  33  54  71  93 131 174 212 248 291
#     4   9  16  27  44  68  92 123 166 205 240 295
#
# _framework density 16.689122999999999
#
# number of rings (size 3 to 8) (size 9 to 14) (size 15 to 20)
#    0.000    2.667    0.833    2.750    0.000    4.667 
#    1.500    1.667    0.000    1.500    0.000    4.667 
#    0.000    0.000    0.000    0.000    0.000    0.000 
#
# Total GULP energy -267284.374473 kJ/mol
# GULP energy per Si atom -5568.424468 kJ/mol
# Density = 1.665114 g / cm^3
# Si number density = 16.689123 Si / 1000 Ang^3
#
#
#
# Elastic Constant Matrix: (Units=GPa)
#
#
# Indices 1 2 3 4 5 6 
#
# 1 144.0320 22.3868 80.1012 0.0000 0.0000 0.0000
# 2 22.3868 16.4850 22.0572 0.0000 0.0000 0.0000
# 3 80.1012 22.0572 109.7565 0.0000 0.0000 0.0000
# 4 0.0000 0.0000 0.0000 28.5535 0.0000 0.0000
# 5 0.0000 0.0000 0.0000 0.0000 4.7636 0.0000
# 6 0.0000 0.0000 0.0000 0.0000 0.0000 14.4311
#
#
#
# Elastic Compliance Matrix: (Units=1/GPa)
#
#
# Indices 1 2 3 4 5 6 
#
# 1 0.012152 -0.006341 -0.007594 0.000000 0.000000 0.000000
# 2 -0.006341 0.086281 -0.012711 0.000000 0.000000 0.000000
# 3 -0.007594 -0.012711 0.017208 0.000000 0.000000 0.000000
# 4 0.000000 0.000000 0.000000 0.035022 0.000000 0.000000
# 5 0.000000 0.000000 0.000000 0.000000 0.209927 0.000000
# 6 0.000000 0.000000 0.000000 0.000000 0.000000 0.069295
#
#
# Mechanical properties :
#
#
# Convention : Reuss Voigt Hill
#
# Bulk Modulus (GPa) = 16.03934 57.70709 36.87322
# Shear Modulus (GPa) = 9.92142 19.26485 14.59313
#
# Velocity S-wave (km/s) = 2.44085 3.40124 2.96025
# Velocity P-wave (km/s) = 4.19228 7.07653 5.81603
#
# Compressibility (1/GPa) = 0.06234671
#
# Stress axis : x y z
#
# Youngs Moduli (GPa) = 82.29150 11.59008 58.11269
#
# Poissons Ratio (x) = 0.07350 0.44132
# Poissons Ratio (y) = 0.52183 0.73870
# Poissons Ratio (z) = 0.62494 0.14733
#
# Static dielectric constant tensor:
#      x y z
#    x 1.571360 0.000000 0.000000 
#    y 0.000000 1.550230 0.000000 
#    z 0.000000 0.000000 1.553230 
# 
# From -- ./inp_files/27772.got.cif
#   From: 2010.05.17/outbox.cif.g08.bks.cpg/sg69_14_cif.got.tgz:27772.got - 2010.06.03 19:29:58.
