data_PCOD9511479
_publ_section_title
;
Structure prediction by ZEFSAII (Michael W. Deem and Ramdas Pophale) SiO2 
 PCOD9511479
Probable space group: F M M M
;
_chemical_formula_sum "Si O2"
_cell_formula_units_Z 144
_cell_length_a 26.985341
_cell_length_b 13.758886
_cell_length_c 25.963755
_cell_angle_alpha 90.000000
_cell_angle_beta 90.000000
_cell_angle_gamma 90.000000
_cell_volume 9640.036651
_symmetry_space_group_name_H-M "F M M M"
_symmetry_group_IT_number 69
_symmetry_cell_setting 'orthorhombic'
loop_
_space_group_symop_operation_xyz
x,y,z
-x,-y,z
x,-y,-z
-x,y,-z
-x,-y,-z
x,y,-z
-x,y,z
x,-y,z
x,1/2+y,1/2+z
-x,1/2-y,1/2+z
x,1/2-y,1/2-z
-x,1/2+y,1/2-z
-x,1/2-y,1/2-z
x,1/2+y,1/2-z
-x,1/2+y,1/2+z
x,1/2-y,1/2+z
1/2+x,y,1/2+z
1/2-x,-y,1/2+z
1/2+x,-y,1/2-z
1/2-x,y,1/2-z
1/2-x,-y,1/2-z
1/2+x,y,1/2-z
1/2-x,y,1/2+z
1/2+x,-y,1/2+z
1/2+x,1/2+y,z
1/2-x,1/2-y,z
1/2+x,1/2-y,-z
1/2-x,1/2+y,-z
1/2-x,1/2-y,-z
1/2+x,1/2+y,-z
1/2-x,1/2+y,z
1/2+x,1/2-y,z
loop_
_atom_site_type_symbol
_atom_site_label
_atom_site_fract_x
_atom_site_fract_y
_atom_site_fract_z
Si Si1 0.945005 0.882886 0.791199
Si Si2 0.155569 0.384818 0.236022
Si Si3 0.057236 0.382059 0.500000
Si Si4 0.111995 0.617623 0.605325
Si Si5 0.806201 0.276100 0.334733
O O1 0.900986 0.860098 0.751813
O O2 0.925566 0.857065 0.848083
O O3 0.000000 0.845488 0.780884
O O4 0.947633 0.000000 0.790891
O O5 0.160955 0.500000 0.230304
O O6 0.188476 0.347294 0.284611
O O7 0.169618 0.323474 0.186166
O O8 0.055104 0.500000 0.500000
O O9 0.087160 0.354731 0.448627
O O10 0.000000 0.348008 0.500000
O O11 0.119618 0.500000 0.606324
O O12 0.162397 0.672907 0.620360
O O13 0.750000 0.250000 0.347413
#
# Coordination Sequence:
#
# PCOD9511479 Si02
#       5
#    32  32  16  32  32
#     4   8  13  23  39  58  83 111 133 162 207 252
#     4   9  17  28  42  61  86 116 150 181 207 247
#     4   9  16  28  49  72  91 111 134 169 220 272
#     4   9  17  29  44  64  88 110 137 173 216 266
#     4  10  19  29  41  60  86 116 149 180 212 248
#
# _framework density 14.937703000000001
#
# number of rings (size 3 to 8) (size 9 to 14) (size 15 to 20)
#    0.000    3.000    0.000    4.000    0.000    5.333 
#    0.000   10.556    0.000    0.000    0.000    0.778 
#    0.000    0.889    0.000    0.000    0.000    0.000 
#
# Total GULP energy -200429.255853 kJ/mol
# GULP energy per Si atom -5567.479329 kJ/mol
# Density = 1.490370 g / cm^3
# Si number density = 14.937703 Si / 1000 Ang^3
#
#
#
# Elastic Constant Matrix: (Units=GPa)
#
#
# Indices 1 2 3 4 5 6 
#
# 1 142.7429 36.6994 62.7863 0.0000 0.0000 0.0000
# 2 36.6994 80.3313 28.6884 0.0000 0.0000 0.0000
# 3 62.7863 28.6884 75.5208 0.0000 0.0000 0.0000
# 4 0.0000 0.0000 0.0000 13.4113 0.0000 0.0000
# 5 0.0000 0.0000 0.0000 0.0000 56.6578 0.0000
# 6 0.0000 0.0000 0.0000 0.0000 0.0000 30.3308
#
#
#
# Elastic Compliance Matrix: (Units=1/GPa)
#
#
# Indices 1 2 3 4 5 6 
#
# 1 0.011342 -0.002099 -0.008632 0.000000 0.000000 0.000000
# 2 -0.002099 0.014791 -0.003874 0.000000 0.000000 0.000000
# 3 -0.008632 -0.003874 0.021890 0.000000 0.000000 0.000000
# 4 0.000000 0.000000 0.000000 0.074564 0.000000 0.000000
# 5 0.000000 0.000000 0.000000 0.000000 0.017650 0.000000
# 6 0.000000 0.000000 0.000000 0.000000 0.000000 0.032970
#
#
# Mechanical properties :
#
#
# Convention : Reuss Voigt Hill
#
# Bulk Modulus (GPa) = 53.15530 61.66034 57.40782
# Shear Modulus (GPa) = 23.95932 31.44137 27.70034
#
# Velocity S-wave (km/s) = 4.00928 4.59282 4.31094
# Velocity P-wave (km/s) = 7.55608 8.33626 7.95574
#
# Compressibility (1/GPa) = 0.01881280
#
# Stress axis : x y z
#
# Youngs Moduli (GPa) = 88.16620 67.61010 45.68371
#
# Poissons Ratio (x) = 0.14190 0.39436
# Poissons Ratio (y) = 0.18505 0.17696
# Poissons Ratio (z) = 0.76108 0.26190
#
# Static dielectric constant tensor:
#      x y z
#    x 1.525480 0.000000 0.000000 
#    y 0.000000 1.508640 0.000000 
#    z 0.000000 0.000000 1.476880 
# 
# From -- ./inp_files/19037.got.cif
#   From: 2010.05.17/outbox.cif.g08.bks.cpg/sg69_10_cif.got.tgz:19037.got - 2010.06.03 19:29:58.
