data_PCOD9511874
_publ_section_title
;
Structure prediction by ZEFSAII (Michael W. Deem and Ramdas Pophale) SiO2 
 PCOD9511874
Probable space group: F M M M
;
_chemical_formula_sum "Si O2"
_cell_formula_units_Z 144
_cell_length_a 32.577566
_cell_length_b 9.682310
_cell_length_c 27.491849
_cell_angle_alpha 90.000000
_cell_angle_beta 90.000000
_cell_angle_gamma 90.000000
_cell_volume 8671.646521
_symmetry_space_group_name_H-M "F M M M"
_symmetry_group_IT_number 69
_symmetry_cell_setting 'orthorhombic'
loop_
_space_group_symop_operation_xyz
x,y,z
-x,-y,z
x,-y,-z
-x,y,-z
-x,-y,-z
x,y,-z
-x,y,z
x,-y,z
x,1/2+y,1/2+z
-x,1/2-y,1/2+z
x,1/2-y,1/2-z
-x,1/2+y,1/2-z
-x,1/2-y,1/2-z
x,1/2+y,1/2-z
-x,1/2+y,1/2+z
x,1/2-y,1/2+z
1/2+x,y,1/2+z
1/2-x,-y,1/2+z
1/2+x,-y,1/2-z
1/2-x,y,1/2-z
1/2-x,-y,1/2-z
1/2+x,y,1/2-z
1/2-x,y,1/2+z
1/2+x,-y,1/2+z
1/2+x,1/2+y,z
1/2-x,1/2-y,z
1/2+x,1/2-y,-z
1/2-x,1/2+y,-z
1/2-x,1/2-y,-z
1/2+x,1/2+y,-z
1/2-x,1/2+y,z
1/2+x,1/2-y,z
loop_
_atom_site_type_symbol
_atom_site_label
_atom_site_fract_x
_atom_site_fract_y
_atom_site_fract_z
Si Si1 0.500000 0.342326 0.059120
Si Si2 0.339108 0.284694 0.605243
Si Si3 0.291053 0.331124 0.699391
Si Si4 0.682619 0.500000 0.941367
Si Si5 0.779275 0.500000 0.057456
Si Si6 0.575943 0.344462 0.556871
O O1 0.500000 0.500000 0.075652
O O2 0.458848 0.261640 0.073387
O O3 0.500000 0.341114 0.000000
O O4 0.327557 0.303044 0.661530
O O5 0.303055 0.369773 0.578727
O O6 0.383301 0.339199 0.589069
O O7 0.336428 0.132102 0.584216
O O8 0.285123 0.500000 0.704153
O O9 0.298983 0.250000 0.750000
O O10 0.250000 0.250000 0.680619
O O11 0.731372 0.500000 0.931144
O O12 0.676749 0.500000 0.000000
O O13 0.783736 0.500000 0.000000
O O14 0.587033 0.315331 0.500000
O O15 0.558950 0.500000 0.557987
#
# Coordination Sequence:
#
# PCOD9511874 Si02
#       6
#    16  32  32  16  16  32
#     4   9  19  33  51  77 108 141 178 221 268 322
#     4  12  23  35  55  79 108 144 190 231 274 326
#     4  11  23  39  59  80 105 141 188 241 290 330
#     4  11  24  34  49  76 112 152 186 222 269 319
#     4  11  20  36  51  72 108 148 184 220 261 323
#     4  10  19  34  54  77 108 145 182 220 268 330
#
# _framework density 16.605843
#
# number of rings (size 3 to 8) (size 9 to 14) (size 15 to 20)
#    0.000    1.222    2.222    5.667    4.667    3.111 
#    0.000    0.000    0.000    0.000    0.000    0.778 
#    0.000    0.000    0.000    0.000    0.000    0.000 
#
# Total GULP energy -200868.010528 kJ/mol
# GULP energy per Si atom -5579.666959 kJ/mol
# Density = 1.656805 g / cm^3
# Si number density = 16.605843 Si / 1000 Ang^3
#
#
#
# Elastic Constant Matrix: (Units=GPa)
#
#
# Indices 1 2 3 4 5 6 
#
# 1 73.4846 34.2848 49.2189 0.0000 0.0000 0.0000
# 2 34.2848 148.9393 30.1499 0.0000 0.0000 0.0000
# 3 49.2189 30.1499 48.8281 0.0000 0.0000 0.0000
# 4 0.0000 0.0000 0.0000 23.3623 0.0000 0.0000
# 5 0.0000 0.0000 0.0000 0.0000 16.2572 0.0000
# 6 0.0000 0.0000 0.0000 0.0000 0.0000 16.4730
#
#
#
# Elastic Compliance Matrix: (Units=1/GPa)
#
#
# Indices 1 2 3 4 5 6 
#
# 1 0.042096 -0.001258 -0.041656 0.000000 0.000000 0.000000
# 2 -0.001258 0.007711 -0.003494 0.000000 0.000000 0.000000
# 3 -0.041656 -0.003494 0.064627 0.000000 0.000000 0.000000
# 4 0.000000 0.000000 0.000000 0.042804 0.000000 0.000000
# 5 0.000000 0.000000 0.000000 0.000000 0.061511 0.000000
# 6 0.000000 0.000000 0.000000 0.000000 0.000000 0.060705
#
#
# Mechanical properties :
#
#
# Convention : Reuss Voigt Hill
#
# Bulk Modulus (GPa) = 46.25619 55.39547 50.82583
# Shear Modulus (GPa) = 13.17609 21.72503 17.45056
#
# Velocity S-wave (km/s) = 2.81990 3.62093 3.24523
# Velocity P-wave (km/s) = 6.20631 7.13533 6.68698
#
# Compressibility (1/GPa) = 0.02161873
#
# Stress axis : x y z
#
# Youngs Moduli (GPa) = 23.75533 129.68755 15.47346
#
# Poissons Ratio (x) = 0.16310 0.64457
# Poissons Ratio (y) = 0.02988 0.05406
# Poissons Ratio (z) = 0.98956 0.45306
#
# Static dielectric constant tensor:
#      x y z
#    x 1.541810 0.000000 0.000000 
#    y 0.000000 1.557490 0.000000 
#    z 0.000000 0.000000 1.566540 
# 
# From -- ./inp_files/5672.got.cif
#   From: 2010.05.17/outbox.cif.g08.bks.cpg/sg69_3_cif.got.tgz:5672.got - 2010.06.03 19:29:58.
