data_PCOD9511536
_publ_section_title
;
Structure prediction by ZEFSAII (Michael W. Deem and Ramdas Pophale) SiO2 
 PCOD9511536
Probable space group: F M M M
;
_chemical_formula_sum "Si O2"
_cell_formula_units_Z 160
_cell_length_a 18.819964
_cell_length_b 16.377238
_cell_length_c 25.920564
_cell_angle_alpha 90.000000
_cell_angle_beta 90.000000
_cell_angle_gamma 90.000000
_cell_volume 7989.211082
_symmetry_space_group_name_H-M "F M M M"
_symmetry_group_IT_number 69
_symmetry_cell_setting 'orthorhombic'
loop_
_space_group_symop_operation_xyz
x,y,z
-x,-y,z
x,-y,-z
-x,y,-z
-x,-y,-z
x,y,-z
-x,y,z
x,-y,z
x,1/2+y,1/2+z
-x,1/2-y,1/2+z
x,1/2-y,1/2-z
-x,1/2+y,1/2-z
-x,1/2-y,1/2-z
x,1/2+y,1/2-z
-x,1/2+y,1/2+z
x,1/2-y,1/2+z
1/2+x,y,1/2+z
1/2-x,-y,1/2+z
1/2+x,-y,1/2-z
1/2-x,y,1/2-z
1/2-x,-y,1/2-z
1/2+x,y,1/2-z
1/2-x,y,1/2+z
1/2+x,-y,1/2+z
1/2+x,1/2+y,z
1/2-x,1/2-y,z
1/2+x,1/2-y,-z
1/2-x,1/2+y,-z
1/2-x,1/2-y,-z
1/2+x,1/2+y,-z
1/2-x,1/2+y,z
1/2+x,1/2-y,z
loop_
_atom_site_type_symbol
_atom_site_label
_atom_site_fract_x
_atom_site_fract_y
_atom_site_fract_z
Si Si1 0.086182 0.645392 0.558333
Si Si2 0.083532 0.405543 0.164694
Si Si3 0.279118 0.667090 0.308242
Si Si4 0.779483 0.000000 0.808420
Si Si5 0.915320 0.500000 0.363648
Si Si6 0.086016 0.167979 0.557276
O O1 0.109572 0.623160 0.500000
O O2 0.103216 0.578885 0.601398
O O3 0.109080 0.738673 0.568918
O O4 0.000000 0.646507 0.556945
O O5 0.095472 0.500000 0.178978
O O6 0.136285 0.344323 0.193564
O O7 0.102244 0.391136 0.104436
O O8 0.000000 0.387566 0.171876
O O9 0.250000 0.667655 0.250000
O O10 0.250000 0.750000 0.333018
O O11 0.249819 0.583490 0.332785
O O12 0.750000 0.000000 0.750000
O O13 0.864376 0.000000 0.814145
O O14 0.000000 0.500000 0.352634
O O15 0.111687 0.145091 0.500000
O O16 0.000000 0.169749 0.554769
#
# Coordination Sequence:
#
# PCOD9511536 Si02
#       6
#    32  32  32  16  16  32
#     4   8  14  26  46  76 115 150 181 225 281 335
#     4  10  20  35  60  90 114 147 198 247 283 334
#     4  10  22  42  63  82 110 154 193 234 306 366
#     4  10  22  41  57  78 116 150 189 236 294 367
#     4  10  19  30  52  85 111 146 193 236 276 331
#     4   8  15  28  48  78 116 150 181 230 287 331
#
# _framework density 20.027009
#
# number of rings (size 3 to 8) (size 9 to 14) (size 15 to 20)
#    0.000    2.800    1.000    1.500    2.800    1.600 
#    0.000    8.000    0.000    3.000    0.000    0.000 
#    0.000    0.000    0.000    0.000    0.000    0.000 
#
# Total GULP energy -222729.405874 kJ/mol
# GULP energy per Si atom -5568.235147 kJ/mol
# Density = 1.998143 g / cm^3
# Si number density = 20.027009 Si / 1000 Ang^3
#
#
#
# Elastic Constant Matrix: (Units=GPa)
#
#
# Indices 1 2 3 4 5 6 
#
# 1 98.3122 43.2991 37.8104 0.0000 0.0000 0.0000
# 2 43.2991 106.8951 9.0514 0.0000 0.0000 0.0000
# 3 37.8104 9.0514 58.8285 0.0000 0.0000 0.0000
# 4 0.0000 0.0000 0.0000 -57.5919 0.0000 0.0000
# 5 0.0000 0.0000 0.0000 0.0000 15.0775 0.0000
# 6 0.0000 0.0000 0.0000 0.0000 0.0000 -0.5389
#
#
#
# Elastic Compliance Matrix: (Units=1/GPa)
#
#
# Indices 1 2 3 4 5 6 
#
# 1 0.016476 -0.005853 -0.009689 0.000000 0.000000 0.000000
# 2 -0.005853 0.011558 0.001984 0.000000 0.000000 0.000000
# 3 -0.009689 0.001984 0.022921 0.000000 0.000000 0.000000
# 4 0.000000 0.000000 0.000000 -0.017364 0.000000 0.000000
# 5 0.000000 0.000000 0.000000 0.000000 0.066324 0.000000
# 6 0.000000 0.000000 0.000000 0.000000 0.000000 -1.855799
#
#
# Mechanical properties :
#
#
# Convention : Reuss Voigt Hill
#
# Bulk Modulus (GPa) = 41.95055 49.37308 45.66182
# Shear Modulus (GPa) = -2.90559 2.98100 0.03771
#
# Velocity S-wave (km/s) = -1.20581 1.22136 0.13736
# Velocity P-wave (km/s) = 4.36507 5.16679 4.78276
#
# Compressibility (1/GPa) = 0.02383759
#
# Stress axis : x y z
#
# Youngs Moduli (GPa) = 60.69461 86.52046 43.62888
#
# Poissons Ratio (x) = 0.50643 0.42271
# Poissons Ratio (y) = 0.35527 -0.08655
# Poissons Ratio (z) = 0.58806 -0.17164
#
# Static dielectric constant tensor:
#      x y z
#    x 1.739140 0.000000 0.000000 
#    y 0.000000 1.779750 0.000000 
#    z 0.000000 0.000000 1.714470 
# 
# From -- ./inp_files/41773.got.cif
#   From: 2010.05.17/outbox.cif.g08.bks.cpg/sg69_21_cif.got.tgz:41773.got - 2010.06.03 19:29:58.
