data_PCOD9511062
_publ_section_title
;
Structure prediction by ZEFSAII (Michael W. Deem and Ramdas Pophale) SiO2 
 PCOD9511062
Probable space group: F M M M
;
_chemical_formula_sum "Si O2"
_cell_formula_units_Z 104
_cell_length_a 14.629315
_cell_length_b 36.041515
_cell_length_c 7.911023
_cell_angle_alpha 90.000000
_cell_angle_beta 90.000000
_cell_angle_gamma 90.000000
_cell_volume 4171.187157
_symmetry_space_group_name_H-M "F M M M"
_symmetry_group_IT_number 69
_symmetry_cell_setting 'orthorhombic'
loop_
_space_group_symop_operation_xyz
x,y,z
-x,-y,z
x,-y,-z
-x,y,-z
-x,-y,-z
x,y,-z
-x,y,z
x,-y,z
x,1/2+y,1/2+z
-x,1/2-y,1/2+z
x,1/2-y,1/2-z
-x,1/2+y,1/2-z
-x,1/2-y,1/2-z
x,1/2+y,1/2-z
-x,1/2+y,1/2+z
x,1/2-y,1/2+z
1/2+x,y,1/2+z
1/2-x,-y,1/2+z
1/2+x,-y,1/2-z
1/2-x,y,1/2-z
1/2-x,-y,1/2-z
1/2+x,y,1/2-z
1/2-x,y,1/2+z
1/2+x,-y,1/2+z
1/2+x,1/2+y,z
1/2-x,1/2-y,z
1/2+x,1/2-y,-z
1/2-x,1/2+y,-z
1/2-x,1/2-y,-z
1/2+x,1/2+y,-z
1/2-x,1/2+y,z
1/2+x,1/2-y,z
loop_
_atom_site_type_symbol
_atom_site_label
_atom_site_fract_x
_atom_site_fract_y
_atom_site_fract_z
Si Si1 0.331881 0.500000 0.000000
Si Si2 0.857289 0.209917 0.300834
Si Si3 0.144119 0.869527 0.803579
Si Si4 0.606294 0.949252 0.188948
O O1 0.343051 0.468022 0.152963
O O2 0.863433 0.206576 0.500000
O O3 0.895798 0.250000 0.250000
O O4 0.750000 0.211088 0.250000
O O5 0.894906 0.171602 0.226478
O O6 0.250000 0.867288 0.750000
O O7 0.107414 0.904815 0.704135
O O8 0.135239 0.878062 0.000000
O O9 0.500000 0.960428 0.200336
O O10 0.641418 0.959557 0.000000
#
# Coordination Sequence:
#
# PCOD9511062 Si02
#       4
#     8  32  32  32
#     4  12  23  42  66  90 114 150 195 240 291 344
#     4  10  17  28  47  76 110 148 193 235 282 335
#     4  11  21  36  58  84 120 156 192 240 292 346
#     4  11  23  40  64  90 116 150 195 241 287 346
#
# _framework density 24.932950999999999
#
# number of rings (size 3 to 8) (size 9 to 14) (size 15 to 20)
#    0.000    1.231    1.538   10.154    0.000    1.231 
#    0.000    0.769    0.000    0.923    0.000    0.000 
#    0.000    0.000    0.000    0.000    0.000    0.000 
#
# Total GULP energy -145004.041967 kJ/mol
# GULP energy per Si atom -5577.078537 kJ/mol
# Density = 2.487620 g / cm^3
# Si number density = 24.932951 Si / 1000 Ang^3
#
#
#
# Elastic Constant Matrix: (Units=GPa)
#
#
# Indices 1 2 3 4 5 6 
#
# 1 88.5588 14.1722 6.3111 0.0000 0.0000 0.0000
# 2 14.1722 266.6762 47.5613 0.0000 0.0000 0.0000
# 3 6.3111 47.5613 229.5996 0.0000 0.0000 0.0000
# 4 0.0000 0.0000 0.0000 66.8086 0.0000 0.0000
# 5 0.0000 0.0000 0.0000 0.0000 2.9560 0.0000
# 6 0.0000 0.0000 0.0000 0.0000 0.0000 -76.6145
#
#
#
# Elastic Compliance Matrix: (Units=1/GPa)
#
#
# Indices 1 2 3 4 5 6 
#
# 1 0.011397 -0.000571 -0.000195 0.000000 0.000000 0.000000
# 2 -0.000571 0.003922 -0.000797 0.000000 0.000000 0.000000
# 3 -0.000195 -0.000797 0.004526 0.000000 0.000000 0.000000
# 4 0.000000 0.000000 0.000000 0.014968 0.000000 0.000000
# 5 0.000000 0.000000 0.000000 0.000000 0.338298 0.000000
# 6 0.000000 0.000000 0.000000 0.000000 0.000000 -0.013052
#
#
# Mechanical properties :
#
#
# Convention : Reuss Voigt Hill
#
# Bulk Modulus (GPa) = 59.80910 80.10265 69.95588
# Shear Modulus (GPa) = 13.55903 33.08269 23.32086
#
# Velocity S-wave (km/s) = 2.33452 3.64657 3.06166
# Velocity P-wave (km/s) = 5.59524 7.06590 6.37313
#
# Compressibility (1/GPa) = 0.01671986
#
# Stress axis : x y z
#
# Youngs Moduli (GPa) = 87.74090 254.95142 220.95413
#
# Poissons Ratio (x) = 0.14555 0.04309
# Poissons Ratio (y) = 0.05009 0.17606
# Poissons Ratio (z) = 0.01711 0.20315
#
# Static dielectric constant tensor:
#      x y z
#    x 2.028650 0.000000 0.000000 
#    y 0.000000 2.055370 0.000000 
#    z 0.000000 0.000000 1.884010 
# 
# From -- ./inp_files/3924.got.cif
#   From: 2010.05.17/outbox.cif.g08.bks.cpg/sg69_2_cif.got.tgz:3924.got - 2010.06.03 19:29:58.
