data_PCOD9511611
_publ_section_title
;
Structure prediction by ZEFSAII (Michael W. Deem and Ramdas Pophale) SiO2 
 PCOD9511611
Probable space group: F M M M
;
_chemical_formula_sum "Si O2"
_cell_formula_units_Z 176
_cell_length_a 27.934860
_cell_length_b 26.695778
_cell_length_c 13.732008
_cell_angle_alpha 90.000000
_cell_angle_beta 90.000000
_cell_angle_gamma 90.000000
_cell_volume 10240.546384
_symmetry_space_group_name_H-M "F M M M"
_symmetry_group_IT_number 69
_symmetry_cell_setting 'orthorhombic'
loop_
_space_group_symop_operation_xyz
x,y,z
-x,-y,z
x,-y,-z
-x,y,-z
-x,-y,-z
x,y,-z
-x,y,z
x,-y,z
x,1/2+y,1/2+z
-x,1/2-y,1/2+z
x,1/2-y,1/2-z
-x,1/2+y,1/2-z
-x,1/2-y,1/2-z
x,1/2+y,1/2-z
-x,1/2+y,1/2+z
x,1/2-y,1/2+z
1/2+x,y,1/2+z
1/2-x,-y,1/2+z
1/2+x,-y,1/2-z
1/2-x,y,1/2-z
1/2-x,-y,1/2-z
1/2+x,y,1/2-z
1/2-x,y,1/2+z
1/2+x,-y,1/2+z
1/2+x,1/2+y,z
1/2-x,1/2-y,z
1/2+x,1/2-y,-z
1/2-x,1/2+y,-z
1/2-x,1/2-y,-z
1/2+x,1/2+y,-z
1/2-x,1/2+y,z
1/2+x,1/2-y,z
loop_
_atom_site_type_symbol
_atom_site_label
_atom_site_fract_x
_atom_site_fract_y
_atom_site_fract_z
Si Si1 0.556614 0.379696 0.385613
Si Si2 0.444673 0.939141 0.500000
Si Si3 0.798200 0.280680 0.615478
Si Si4 0.696699 0.119157 0.739230
Si Si5 0.143222 0.812271 0.614212
Si Si6 0.601826 0.059933 0.293508
O O1 0.565459 0.395345 0.500000
O O2 0.500000 0.371499 0.376259
O O3 0.589058 0.330263 0.368666
O O4 0.574355 0.417566 0.301078
O O5 0.500000 0.923470 0.500000
O O6 0.420455 0.923390 0.397787
O O7 0.443300 0.000000 0.500000
O O8 0.798309 0.287936 0.500000
O O9 0.750000 0.250000 0.640431
O O10 0.800403 0.334185 0.665216
O O11 0.841583 0.243579 0.643286
O O12 0.750000 0.098113 0.750000
O O13 0.677343 0.146913 0.835700
O O14 0.656186 0.079771 0.710398
O O15 0.152442 0.814601 0.500000
O O16 0.599614 0.000000 0.289008
#
# Coordination Sequence:
#
# PCOD9511611 Si02
#       6
#    32  16  32  32  32  32
#     4   9  18  34  58  85 110 138 175 221 275 331
#     4   9  18  36  60  78  99 138 186 236 278 317
#     4  10  19  31  52  79 105 136 180 221 260 314
#     4  11  21  32  53  77 107 145 180 225 264 317
#     4   9  18  32  49  77 110 137 168 216 263 319
#     4  10  22  37  54  80 111 144 186 228 274 327
#
# _framework density 17.186582000000001
#
# number of rings (size 3 to 8) (size 9 to 14) (size 15 to 20)
#    0.000    2.273    1.818    1.091    1.273    1.818 
#    0.000    0.909    0.000    9.818    0.000    0.000 
#    0.000    0.000    0.000    0.000    0.000    0.000 
#
# Total GULP energy -245135.657748 kJ/mol
# GULP energy per Si atom -5571.264949 kJ/mol
# Density = 1.714747 g / cm^3
# Si number density = 17.186582 Si / 1000 Ang^3
#
#
#
# Elastic Constant Matrix: (Units=GPa)
#
#
# Indices 1 2 3 4 5 6 
#
# 1 143.9547 34.7779 61.3650 0.0000 0.0000 0.0000
# 2 34.7779 45.9047 36.1097 0.0000 0.0000 0.0000
# 3 61.3650 36.1097 116.0617 0.0000 0.0000 0.0000
# 4 0.0000 0.0000 0.0000 17.7132 0.0000 0.0000
# 5 0.0000 0.0000 0.0000 0.0000 19.6364 0.0000
# 6 0.0000 0.0000 0.0000 0.0000 0.0000 20.2662
#
#
#
# Elastic Compliance Matrix: (Units=1/GPa)
#
#
# Indices 1 2 3 4 5 6 
#
# 1 0.009577 -0.004333 -0.003716 0.000000 0.000000 0.000000
# 2 -0.004333 0.030804 -0.007293 0.000000 0.000000 0.000000
# 3 -0.003716 -0.007293 0.012850 0.000000 0.000000 0.000000
# 4 0.000000 0.000000 0.000000 0.056455 0.000000 0.000000
# 5 0.000000 0.000000 0.000000 0.000000 0.050926 0.000000
# 6 0.000000 0.000000 0.000000 0.000000 0.000000 0.049343
#
#
# Mechanical properties :
#
#
# Convention : Reuss Voigt Hill
#
# Bulk Modulus (GPa) = 44.35052 63.38066 53.86559
# Shear Modulus (GPa) = 20.14879 23.10106 21.62493
#
# Velocity S-wave (km/s) = 3.42768 3.67022 3.55102
# Velocity P-wave (km/s) = 6.44412 7.41072 6.94426
#
# Compressibility (1/GPa) = 0.02254765
#
# Stress axis : x y z
#
# Youngs Moduli (GPa) = 104.41269 32.46363 77.82306
#
# Poissons Ratio (x) = 0.14067 0.28917
# Poissons Ratio (y) = 0.45243 0.56755
# Poissons Ratio (z) = 0.38797 0.23675
#
# Static dielectric constant tensor:
#      x y z
#    x 1.598370 0.000000 0.000000 
#    y 0.000000 1.558230 0.000000 
#    z 0.000000 0.000000 1.612330 
# 
# From -- ./inp_files/18101.got.cif
#   From: 2010.05.17/outbox.cif.g08.bks.cpg/sg69_10_cif.got.tgz:18101.got - 2010.06.03 19:29:58.
