data_PCOD9511053
_publ_section_title
;
Structure prediction by ZEFSAII (Michael W. Deem and Ramdas Pophale) SiO2 
 PCOD9511053
Probable space group: F M M M
;
_chemical_formula_sum "Si O2"
_cell_formula_units_Z 176
_cell_length_a 27.996306
_cell_length_b 14.454922
_cell_length_c 24.785684
_cell_angle_alpha 90.000000
_cell_angle_beta 90.000000
_cell_angle_gamma 90.000000
_cell_volume 10030.380142
_symmetry_space_group_name_H-M "F M M M"
_symmetry_group_IT_number 69
_symmetry_cell_setting 'orthorhombic'
loop_
_space_group_symop_operation_xyz
x,y,z
-x,-y,z
x,-y,-z
-x,y,-z
-x,-y,-z
x,y,-z
-x,y,z
x,-y,z
x,1/2+y,1/2+z
-x,1/2-y,1/2+z
x,1/2-y,1/2-z
-x,1/2+y,1/2-z
-x,1/2-y,1/2-z
x,1/2+y,1/2-z
-x,1/2+y,1/2+z
x,1/2-y,1/2+z
1/2+x,y,1/2+z
1/2-x,-y,1/2+z
1/2+x,-y,1/2-z
1/2-x,y,1/2-z
1/2-x,-y,1/2-z
1/2+x,y,1/2-z
1/2-x,y,1/2+z
1/2+x,-y,1/2+z
1/2+x,1/2+y,z
1/2-x,1/2-y,z
1/2+x,1/2-y,-z
1/2-x,1/2+y,-z
1/2-x,1/2-y,-z
1/2+x,1/2+y,-z
1/2-x,1/2+y,z
1/2+x,1/2-y,z
loop_
_atom_site_type_symbol
_atom_site_label
_atom_site_fract_x
_atom_site_fract_y
_atom_site_fract_z
Si Si1 0.602000 0.388469 0.102590
Si Si2 0.202948 0.110210 0.939313
Si Si3 0.105807 0.145300 0.770247
Si Si4 0.203252 0.899158 0.711788
Si Si5 0.000000 0.356575 0.730427
Si Si6 0.000000 0.611040 0.601575
Si Si7 0.750000 0.750000 0.357124
O O1 0.599657 0.500000 0.104120
O O2 0.647168 0.364722 0.066710
O O3 0.609167 0.359283 0.164828
O O4 0.550903 0.353453 0.081229
O O5 0.228734 0.170097 0.894471
O O6 0.207668 0.000000 0.929621
O O7 0.219790 0.129587 0.000000
O O8 0.105295 0.250000 0.750000
O O9 0.153698 0.103364 0.744595
O O10 0.052939 0.106164 0.753985
O O11 0.250000 0.898313 0.750000
O O12 0.210464 0.805091 0.677819
O O13 0.204590 0.000000 0.682762
O O14 0.000000 0.250000 0.750000
O O15 0.000000 0.367584 0.665595
O O16 0.000000 0.500000 0.594181
#
# Coordination Sequence:
#
# PCOD9511053 Si02
#       7
#    32  32  32  32  16  16  16
#     4   9  16  28  45  65  92 121 149 184 226 274
#     4  10  21  36  53  72  92 118 156 200 246 295
#     4  10  17  28  45  68  98 131 164 196 232 278
#     4  11  22  33  48  73 101 130 166 202 237 284
#     4   8  16  26  40  63  93 129 164 195 227 267
#     4   8  14  24  41  64  88 118 149 177 219 273
#     4  12  22  36  52  68  94 128 160 200 248 288
#
# _framework density 17.546693000000001
#
# number of rings (size 3 to 8) (size 9 to 14) (size 15 to 20)
#    0.000    2.182    0.000    4.909    0.000    3.636 
#    0.000    0.455    0.000    2.727    0.000    0.000 
#    0.000    0.000    0.000    0.000    0.000   52.364 
#
# Total GULP energy -244935.468723 kJ/mol
# GULP energy per Si atom -5566.715198 kJ/mol
# Density = 1.750676 g / cm^3
# Si number density = 17.546693 Si / 1000 Ang^3
#
#
#
# Elastic Constant Matrix: (Units=GPa)
#
#
# Indices 1 2 3 4 5 6 
#
# 1 119.7970 14.4285 19.4811 0.0000 0.0000 0.0000
# 2 14.4285 56.2061 13.0073 0.0000 0.0000 0.0000
# 3 19.4811 13.0073 35.0665 0.0000 0.0000 0.0000
# 4 0.0000 0.0000 0.0000 21.9716 0.0000 0.0000
# 5 0.0000 0.0000 0.0000 0.0000 306.1840 0.0000
# 6 0.0000 0.0000 0.0000 0.0000 0.0000 -15.2262
#
#
#
# Elastic Compliance Matrix: (Units=1/GPa)
#
#
# Indices 1 2 3 4 5 6 
#
# 1 0.009262 -0.001298 -0.004664 0.000000 0.000000 0.000000
# 2 -0.001298 0.019644 -0.006565 0.000000 0.000000 0.000000
# 3 -0.004664 -0.006565 0.033544 0.000000 0.000000 0.000000
# 4 0.000000 0.000000 0.000000 0.045513 0.000000 0.000000
# 5 0.000000 0.000000 0.000000 0.000000 0.003266 0.000000
# 6 0.000000 0.000000 0.000000 0.000000 0.000000 -0.065676
#
#
# Mechanical properties :
#
#
# Convention : Reuss Voigt Hill
#
# Bulk Modulus (GPa) = 26.74177 33.87816 30.30996
# Shear Modulus (GPa) = 60.18751 73.52939 66.85845
#
# Velocity S-wave (km/s) = 5.86309 6.48043 6.17947
# Velocity P-wave (km/s) = 7.81715 8.68009 8.25990
#
# Compressibility (1/GPa) = 0.03739469
#
# Stress axis : x y z
#
# Youngs Moduli (GPa) = 107.96475 50.90523 29.81188
#
# Poissons Ratio (x) = 0.06609 0.13904
# Poissons Ratio (y) = 0.14018 0.19573
# Poissons Ratio (z) = 0.50355 0.33421
#
# Static dielectric constant tensor:
#      x y z
#    x 1.672860 0.000000 0.000000 
#    y 0.000000 1.618420 0.000000 
#    z 0.000000 0.000000 1.587870 
# 
# From -- ./inp_files/43650.got.cif
#   From: 2010.05.17/outbox.cif.g08.bks.cpg/sg69_22_cif.got.tgz:43650.got - 2010.06.03 19:29:58.
