data_PCOD9511066
_publ_section_title
;
Structure prediction by ZEFSAII (Michael W. Deem and Ramdas Pophale) SiO2 
 PCOD9511066
Probable space group: F M M M
;
_chemical_formula_sum "Si O2"
_cell_formula_units_Z 144
_cell_length_a 19.822514
_cell_length_b 16.574720
_cell_length_c 28.398136
_cell_angle_alpha 90.000000
_cell_angle_beta 90.000000
_cell_angle_gamma 90.000000
_cell_volume 9330.281965
_symmetry_space_group_name_H-M "F M M M"
_symmetry_group_IT_number 69
_symmetry_cell_setting 'orthorhombic'
loop_
_space_group_symop_operation_xyz
x,y,z
-x,-y,z
x,-y,-z
-x,y,-z
-x,-y,-z
x,y,-z
-x,y,z
x,-y,z
x,1/2+y,1/2+z
-x,1/2-y,1/2+z
x,1/2-y,1/2-z
-x,1/2+y,1/2-z
-x,1/2-y,1/2-z
x,1/2+y,1/2-z
-x,1/2+y,1/2+z
x,1/2-y,1/2+z
1/2+x,y,1/2+z
1/2-x,-y,1/2+z
1/2+x,-y,1/2-z
1/2-x,y,1/2-z
1/2-x,-y,1/2-z
1/2+x,y,1/2-z
1/2-x,y,1/2+z
1/2+x,-y,1/2+z
1/2+x,1/2+y,z
1/2-x,1/2-y,z
1/2+x,1/2-y,-z
1/2-x,1/2+y,-z
1/2-x,1/2-y,-z
1/2+x,1/2+y,-z
1/2-x,1/2+y,z
1/2+x,1/2-y,z
loop_
_atom_site_type_symbol
_atom_site_label
_atom_site_fract_x
_atom_site_fract_y
_atom_site_fract_z
Si Si1 0.352267 0.595101 0.732167
Si Si2 0.420913 0.901899 0.500000
Si Si3 0.633243 0.597644 0.898958
Si Si4 0.500000 0.402375 0.842538
Si Si5 0.500000 0.097707 0.233312
Si Si6 0.728111 0.342453 0.178970
O O1 0.356723 0.500000 0.744328
O O2 0.426240 0.624041 0.715588
O O3 0.325887 0.639301 0.779330
O O4 0.294483 0.607538 0.693555
O O5 0.500000 0.875924 0.500000
O O6 0.381582 0.877864 0.452670
O O7 0.423475 0.000000 0.500000
O O8 0.638033 0.500000 0.897461
O O9 0.566822 0.622823 0.869756
O O10 0.696213 0.633173 0.870723
O O11 0.500000 0.500000 0.843076
O O12 0.500000 0.378931 0.788322
O O13 0.500000 0.000000 0.228926
O O14 0.750000 0.250000 0.180277
#
# Coordination Sequence:
#
# PCOD9511066 Si02
#       6
#    32  16  32  16  16  32
#     4  10  18  31  49  66  86 119 159 195 231 264
#     4   9  16  26  47  78  98 107 139 194 235 271
#     4  10  17  29  48  69  94 119 145 182 231 278
#     4   9  14  23  43  70  92 111 141 180 225 277
#     4   9  16  26  45  70  86 107 150 195 228 263
#     4  11  21  31  41  62  95 128 157 183 213 268
#
# _framework density 15.433617
#
# number of rings (size 3 to 8) (size 9 to 14) (size 15 to 20)
#    0.000    2.111    3.333    4.000    0.000    0.000 
#    0.000    3.889    0.000    0.000    0.000    0.000 
#    0.000    0.000    0.000    8.222    0.000    0.889 
#
# Total GULP energy -200538.026146 kJ/mol
# GULP energy per Si atom -5570.500726 kJ/mol
# Density = 1.539849 g / cm^3
# Si number density = 15.433617 Si / 1000 Ang^3
#
#
#
# Elastic Constant Matrix: (Units=GPa)
#
#
# Indices 1 2 3 4 5 6 
#
# 1 128.3610 17.1868 47.8771 0.0000 0.0000 0.0000
# 2 17.1868 36.9083 8.1241 0.0000 0.0000 0.0000
# 3 47.8771 8.1241 82.0591 0.0000 0.0000 0.0000
# 4 0.0000 0.0000 0.0000 15.5103 0.0000 0.0000
# 5 0.0000 0.0000 0.0000 0.0000 25.1947 0.0000
# 6 0.0000 0.0000 0.0000 0.0000 0.0000 -5.8658
#
#
#
# Elastic Compliance Matrix: (Units=1/GPa)
#
#
# Indices 1 2 3 4 5 6 
#
# 1 0.010402 -0.003586 -0.005714 0.000000 0.000000 0.000000
# 2 -0.003586 0.028934 -0.000772 0.000000 0.000000 0.000000
# 3 -0.005714 -0.000772 0.015597 0.000000 0.000000 0.000000
# 4 0.000000 0.000000 0.000000 0.064473 0.000000 0.000000
# 5 0.000000 0.000000 0.000000 0.000000 0.039691 0.000000
# 6 0.000000 0.000000 0.000000 0.000000 0.000000 -0.170479
#
#
# Mechanical properties :
#
#
# Convention : Reuss Voigt Hill
#
# Bulk Modulus (GPa) = 28.74554 43.74494 36.24524
# Shear Modulus (GPa) = 245.59776 18.57719 132.08747
#
# Velocity S-wave (km/s) = 12.62843 3.47318 9.26121
# Velocity P-wave (km/s) = 15.20861 6.67004 11.74290
#
# Compressibility (1/GPa) = 0.03478800
#
# Stress axis : x y z
#
# Youngs Moduli (GPa) = 96.13619 34.56134 64.11667
#
# Poissons Ratio (x) = 0.12394 0.36636
# Poissons Ratio (y) = 0.34475 0.04952
# Poissons Ratio (z) = 0.54932 0.02669
#
# Static dielectric constant tensor:
#      x y z
#    x 1.554950 0.000000 0.000000 
#    y 0.000000 1.519920 0.000000 
#    z 0.000000 0.000000 1.509600 
# 
# From -- ./inp_files/15627.got.cif
#   From: 2010.05.17/outbox.cif.g08.bks.cpg/sg69_8_cif.got.tgz:15627.got - 2010.06.03 19:29:58.
