data_PCOD9511938
_publ_section_title
;
Structure prediction by ZEFSAII (Michael W. Deem and Ramdas Pophale) SiO2 
 PCOD9511938
Probable space group: F M M M
;
_chemical_formula_sum "Si O2"
_cell_formula_units_Z 240
_cell_length_a 20.281411
_cell_length_b 22.017797
_cell_length_c 26.920047
_cell_angle_alpha 90.000000
_cell_angle_beta 90.000000
_cell_angle_gamma 90.000000
_cell_volume 12021.200566
_symmetry_space_group_name_H-M "F M M M"
_symmetry_group_IT_number 69
_symmetry_cell_setting 'orthorhombic'
loop_
_space_group_symop_operation_xyz
x,y,z
-x,-y,z
x,-y,-z
-x,y,-z
-x,-y,-z
x,y,-z
-x,y,z
x,-y,z
x,1/2+y,1/2+z
-x,1/2-y,1/2+z
x,1/2-y,1/2-z
-x,1/2+y,1/2-z
-x,1/2-y,1/2-z
x,1/2+y,1/2-z
-x,1/2+y,1/2+z
x,1/2-y,1/2+z
1/2+x,y,1/2+z
1/2-x,-y,1/2+z
1/2+x,-y,1/2-z
1/2-x,y,1/2-z
1/2-x,-y,1/2-z
1/2+x,y,1/2-z
1/2-x,y,1/2+z
1/2+x,-y,1/2+z
1/2+x,1/2+y,z
1/2-x,1/2-y,z
1/2+x,1/2-y,-z
1/2-x,1/2+y,-z
1/2-x,1/2-y,-z
1/2+x,1/2+y,-z
1/2-x,1/2+y,z
1/2+x,1/2-y,z
loop_
_atom_site_type_symbol
_atom_site_label
_atom_site_fract_x
_atom_site_fract_y
_atom_site_fract_z
Si Si1 0.680055 0.427112 0.221425
Si Si2 0.734285 0.070465 0.387316
Si Si3 0.323850 0.757267 0.555949
Si Si4 0.359361 0.880317 0.942953
Si Si5 0.396290 0.570341 0.944729
Si Si6 0.068742 0.176092 0.883025
Si Si7 0.923620 0.180144 0.234723
Si Si8 0.000000 0.570263 0.939841
O O1 0.659518 0.500000 0.222860
O O2 0.750000 0.423148 0.250000
O O3 0.698625 0.410217 0.164031
O O4 0.627195 0.377213 0.243041
O O5 0.800696 0.101559 0.406006
O O6 0.681155 0.074659 0.431642
O O7 0.750510 0.000000 0.379143
O O8 0.318784 0.782807 0.500000
O O9 0.250000 0.750000 0.575175
O O10 0.356717 0.691774 0.553294
O O11 0.368202 0.796833 0.590846
O O12 0.430867 0.900789 0.924058
O O13 0.348873 0.904507 0.000000
O O14 0.414200 0.500000 0.943274
O O15 0.431461 0.607360 0.901988
O O16 0.410722 0.594008 0.000000
O O17 0.072352 0.181766 0.824738
O O18 0.000000 0.205620 0.900497
O O19 0.903919 0.250000 0.250000
O O20 0.000000 0.169932 0.253230
O O21 0.000000 0.500000 0.925872
O O22 0.000000 0.574854 0.000000
#
# Coordination Sequence:
#
# PCOD9511938 Si02
#       8
#    32  32  32  32  32  32  32  16
#     4  10  22  41  67  98 127 160 208 265 328 396
#     4  10  19  34  58  88 122 160 201 253 311 368
#     4  10  22  37  54  79 116 161 208 252 299 363
#     4  10  20  33  53  80 115 160 210 258 304 363
#     4  10  20  34  56  90 130 169 209 248 296 371
#     4  11  23  39  61  86 119 162 204 255 316 370
#     4  10  23  44  67  95 127 162 213 267 324 398
#     4   9  18  32  50  76 110 152 204 255 303 359
#
# _framework density 19.964727
#
# number of rings (size 3 to 8) (size 9 to 14) (size 15 to 20)
#    0.000    1.933    1.333    2.000    0.933    5.333 
#    0.000    2.000    1.467    0.000    0.000    0.000 
#    0.000    0.000    0.000    0.000    0.000    0.000 
#
# Total GULP energy -334374.964842 kJ/mol
# GULP energy per Si atom -5572.916081 kJ/mol
# Density = 1.991929 g / cm^3
# Si number density = 19.964727 Si / 1000 Ang^3
#
#
#
# Elastic Constant Matrix: (Units=GPa)
#
#
# Indices 1 2 3 4 5 6 
#
# 1 125.4513 59.9870 13.4597 0.0000 0.0000 0.0000
# 2 59.9870 106.5847 25.4066 0.0000 0.0000 0.0000
# 3 13.4597 25.4066 60.8714 0.0000 0.0000 0.0000
# 4 0.0000 0.0000 0.0000 46.3528 0.0000 0.0000
# 5 0.0000 0.0000 0.0000 0.0000 31.6217 0.0000
# 6 0.0000 0.0000 0.0000 0.0000 0.0000 19.9370
#
#
#
# Elastic Compliance Matrix: (Units=1/GPa)
#
#
# Indices 1 2 3 4 5 6 
#
# 1 0.010908 -0.006179 0.000167 0.000000 0.000000 0.000000
# 2 -0.006179 0.013919 -0.004443 0.000000 0.000000 0.000000
# 3 0.000167 -0.004443 0.018246 0.000000 0.000000 0.000000
# 4 0.000000 0.000000 0.000000 0.021574 0.000000 0.000000
# 5 0.000000 0.000000 0.000000 0.000000 0.031624 0.000000
# 6 0.000000 0.000000 0.000000 0.000000 0.000000 0.050158
#
#
# Mechanical properties :
#
#
# Convention : Reuss Voigt Hill
#
# Bulk Modulus (GPa) = 45.12177 54.51267 49.81722
# Shear Modulus (GPa) = 28.61634 32.51925 30.56779
#
# Velocity S-wave (km/s) = 3.79006 4.04026 3.91716
# Velocity P-wave (km/s) = 6.46549 7.00919 6.74282
#
# Compressibility (1/GPa) = 0.02216225
#
# Stress axis : x y z
#
# Youngs Moduli (GPa) = 91.67719 71.84489 54.80755
#
# Poissons Ratio (x) = 0.44392 -0.00915
# Poissons Ratio (y) = 0.56646 0.24352
# Poissons Ratio (z) = -0.01531 0.31922
#
# Static dielectric constant tensor:
#      x y z
#    x 1.740480 0.000000 0.000000 
#    y 0.000000 1.738840 0.000000 
#    z 0.000000 0.000000 1.704130 
# 
# From -- ./inp_files/42832.got.cif
#   From: 2010.05.17/outbox.cif.g08.bks.cpg/sg69_22_cif.got.tgz:42832.got - 2010.06.03 19:29:58.
