data_PCOD9511725
_publ_section_title
;
Structure prediction by ZEFSAII (Michael W. Deem and Ramdas Pophale) SiO2 
 PCOD9511725
Probable space group: F M M M
;
_chemical_formula_sum "Si O2"
_cell_formula_units_Z 104
_cell_length_a 19.827923
_cell_length_b 12.058564
_cell_length_c 24.250084
_cell_angle_alpha 90.000000
_cell_angle_beta 90.000000
_cell_angle_gamma 90.000000
_cell_volume 5798.104837
_symmetry_space_group_name_H-M "F M M M"
_symmetry_group_IT_number 69
_symmetry_cell_setting 'orthorhombic'
loop_
_space_group_symop_operation_xyz
x,y,z
-x,-y,z
x,-y,-z
-x,y,-z
-x,-y,-z
x,y,-z
-x,y,z
x,-y,z
x,1/2+y,1/2+z
-x,1/2-y,1/2+z
x,1/2-y,1/2-z
-x,1/2+y,1/2-z
-x,1/2-y,1/2-z
x,1/2+y,1/2-z
-x,1/2+y,1/2+z
x,1/2-y,1/2+z
1/2+x,y,1/2+z
1/2-x,-y,1/2+z
1/2+x,-y,1/2-z
1/2-x,y,1/2-z
1/2-x,-y,1/2-z
1/2+x,y,1/2-z
1/2-x,y,1/2+z
1/2+x,-y,1/2+z
1/2+x,1/2+y,z
1/2-x,1/2-y,z
1/2+x,1/2-y,-z
1/2-x,1/2+y,-z
1/2-x,1/2-y,-z
1/2+x,1/2+y,-z
1/2-x,1/2+y,z
1/2+x,1/2-y,z
loop_
_atom_site_type_symbol
_atom_site_label
_atom_site_fract_x
_atom_site_fract_y
_atom_site_fract_z
Si Si1 0.383938 0.500000 0.500000
Si Si2 0.580731 0.778172 0.189576
Si Si3 0.921838 0.868247 0.087184
Si Si4 0.169965 0.255781 0.000000
Si Si5 0.079279 0.500000 0.871724
O O1 0.344939 0.614627 0.500000
O O2 0.417007 0.500000 0.438529
O O3 0.500000 0.795286 0.196106
O O4 0.608718 0.750000 0.250000
O O5 0.588077 0.673310 0.149350
O O6 0.606956 0.888016 0.157464
O O7 0.867697 0.803482 0.050857
O O8 0.000000 0.838913 0.071654
O O9 0.914860 0.000000 0.080997
O O10 0.250000 0.250000 0.000000
O O11 0.000000 0.500000 0.860145
#
# Coordination Sequence:
#
# PCOD9511725 Si02
#       5
#     8  32  32  16  16
#     4  12  23  38  56  82 111 154 194 238 294 356
#     4   9  18  31  51  83 118 150 186 231 286 341
#     4  10  21  38  60  85 115 154 195 238 286 345
#     4  12  26  40  58  83 116 150 193 241 297 353
#     4  10  19  32  54  83 118 149 184 241 293 343
#
# _framework density 17.936895
#
# number of rings (size 3 to 8) (size 9 to 14) (size 15 to 20)
#    0.000    1.846    3.077    1.154    4.308    2.462 
#    0.000    0.000    0.000    0.923    0.000    4.308 
#    0.000    0.000    0.000    0.000    0.000    0.000 
#
# Total GULP energy -144757.873729 kJ/mol
# GULP energy per Si atom -5567.610528 kJ/mol
# Density = 1.789607 g / cm^3
# Si number density = 17.936895 Si / 1000 Ang^3
#
#
#
# Elastic Constant Matrix: (Units=GPa)
#
#
# Indices 1 2 3 4 5 6 
#
# 1 79.5941 50.2804 41.4677 0.0000 0.0000 0.0000
# 2 50.2804 122.2683 48.7168 0.0000 0.0000 0.0000
# 3 41.4677 48.7168 143.2340 0.0000 0.0000 0.0000
# 4 0.0000 0.0000 0.0000 17.7910 0.0000 0.0000
# 5 0.0000 0.0000 0.0000 0.0000 -16.0193 0.0000
# 6 0.0000 0.0000 0.0000 0.0000 0.0000 -3.2403
#
#
#
# Elastic Compliance Matrix: (Units=1/GPa)
#
#
# Indices 1 2 3 4 5 6 
#
# 1 0.018114 -0.006200 -0.003135 0.000000 0.000000 0.000000
# 2 -0.006200 0.011583 -0.002145 0.000000 0.000000 0.000000
# 3 -0.003135 -0.002145 0.008619 0.000000 0.000000 0.000000
# 4 0.000000 0.000000 0.000000 0.056208 0.000000 0.000000
# 5 0.000000 0.000000 0.000000 0.000000 -0.062425 0.000000
# 6 0.000000 0.000000 0.000000 0.000000 0.000000 -0.308611
#
#
# Mechanical properties :
#
#
# Convention : Reuss Voigt Hill
#
# Bulk Modulus (GPa) = 65.12249 69.55848 67.34049
# Shear Modulus (GPa) = -20.12599 13.34838 -3.38880
#
# Velocity S-wave (km/s) = -3.35333 2.73094 -1.37601
# Velocity P-wave (km/s) = 4.62517 6.98626 5.92452
#
# Compressibility (1/GPa) = 0.01535568
#
# Stress axis : x y z
#
# Youngs Moduli (GPa) = 55.20705 86.33561 116.02563
#
# Poissons Ratio (x) = 0.53524 0.36380
# Poissons Ratio (y) = 0.34226 0.24884
# Poissons Ratio (z) = 0.17310 0.18516
#
# Static dielectric constant tensor:
#      x y z
#    x 1.589960 0.000000 0.000000 
#    y 0.000000 1.614020 0.000000 
#    z 0.000000 0.000000 1.658490 
# 
# From -- ./inp_files/9118.got.cif
#   From: 2010.05.17/outbox.cif.g08.bks.cpg/sg69_5_cif.got.tgz:9118.got - 2010.06.03 19:29:58.
