data_PCOD9511869
_publ_section_title
;
Structure prediction by ZEFSAII (Michael W. Deem and Ramdas Pophale) SiO2 
 PCOD9511869
Probable space group: F M M M
;
_chemical_formula_sum "Si O2"
_cell_formula_units_Z 192
_cell_length_a 21.061939
_cell_length_b 15.208012
_cell_length_c 31.303022
_cell_angle_alpha 90.000000
_cell_angle_beta 90.000000
_cell_angle_gamma 90.000000
_cell_volume 10026.677897
_symmetry_space_group_name_H-M "F M M M"
_symmetry_group_IT_number 69
_symmetry_cell_setting 'orthorhombic'
loop_
_space_group_symop_operation_xyz
x,y,z
-x,-y,z
x,-y,-z
-x,y,-z
-x,-y,-z
x,y,-z
-x,y,z
x,-y,z
x,1/2+y,1/2+z
-x,1/2-y,1/2+z
x,1/2-y,1/2-z
-x,1/2+y,1/2-z
-x,1/2-y,1/2-z
x,1/2+y,1/2-z
-x,1/2+y,1/2+z
x,1/2-y,1/2+z
1/2+x,y,1/2+z
1/2-x,-y,1/2+z
1/2+x,-y,1/2-z
1/2-x,y,1/2-z
1/2-x,-y,1/2-z
1/2+x,y,1/2-z
1/2-x,y,1/2+z
1/2+x,-y,1/2+z
1/2+x,1/2+y,z
1/2-x,1/2-y,z
1/2+x,1/2-y,-z
1/2-x,1/2+y,-z
1/2-x,1/2-y,-z
1/2+x,1/2+y,-z
1/2-x,1/2+y,z
1/2+x,1/2-y,z
loop_
_atom_site_type_symbol
_atom_site_label
_atom_site_fract_x
_atom_site_fract_y
_atom_site_fract_z
Si Si1 0.300989 0.168844 0.953772
Si Si2 0.255655 0.355621 0.634269
Si Si3 0.310632 0.894866 0.224072
Si Si4 0.108991 0.101278 0.869848
Si Si5 0.073500 0.782478 0.951582
Si Si6 0.430461 0.892358 0.276453
O O1 0.250000 0.250000 0.954642
O O2 0.284263 0.116632 0.911223
O O3 0.371677 0.208691 0.949629
O O4 0.295169 0.124243 0.000000
O O5 0.250000 0.250000 0.634458
O O6 0.298874 0.379043 0.674399
O O7 0.184823 0.393271 0.637410
O O8 0.250000 0.859625 0.250000
O O9 0.374771 0.860863 0.245491
O O10 0.311369 0.000000 0.230148
O O11 0.089195 0.153172 0.912293
O O12 0.079792 0.136174 0.825519
O O13 0.089905 0.000000 0.874991
O O14 0.000000 0.752874 0.947568
O O15 0.079616 0.821293 0.000000
O O16 0.500000 0.866543 0.261295
O O17 0.427992 0.000000 0.277606
#
# Coordination Sequence:
#
# PCOD9511869 Si02
#       6
#    32  32  32  32  32  32
#     4   9  17  33  54  72  98 140 179 210 252 305
#     4  11  20  33  54  79 101 134 178 221 257 297
#     4  10  19  34  54  75 101 133 171 214 257 306
#     4  11  20  33  53  78 107 140 175 212 261 316
#     4  10  20  34  52  77 109 143 177 214 260 316
#     4   9  18  33  52  72  99 137 171 200 249 317
#
# _framework density 19.148914000000001
#
# number of rings (size 3 to 8) (size 9 to 14) (size 15 to 20)
#    0.000    2.000    5.000    1.000    0.000    1.667 
#    0.000    1.667    0.000    2.500    0.000    0.000 
#    0.000    0.000    0.000   20.833    0.000    0.000 
#
# Total GULP energy -267644.164591 kJ/mol
# GULP energy per Si atom -5575.920096 kJ/mol
# Density = 1.910533 g / cm^3
# Si number density = 19.148914 Si / 1000 Ang^3
#
#
#
# Elastic Constant Matrix: (Units=GPa)
#
#
# Indices 1 2 3 4 5 6 
#
# 1 146.4476 6.6168 76.3672 0.0000 0.0000 0.0000
# 2 6.6168 17.3225 -3.4317 0.0000 0.0000 0.0000
# 3 76.3672 -3.4317 147.9202 0.0000 0.0000 0.0000
# 4 0.0000 0.0000 0.0000 14.2328 0.0000 0.0000
# 5 0.0000 0.0000 0.0000 0.0000 32.2399 0.0000
# 6 0.0000 0.0000 0.0000 0.0000 0.0000 6.2152
#
#
#
# Elastic Compliance Matrix: (Units=1/GPa)
#
#
# Indices 1 2 3 4 5 6 
#
# 1 0.009714 -0.004726 -0.005125 0.000000 0.000000 0.000000
# 2 -0.004726 0.060294 0.003839 0.000000 0.000000 0.000000
# 3 -0.005125 0.003839 0.009495 0.000000 0.000000 0.000000
# 4 0.000000 0.000000 0.000000 0.070260 0.000000 0.000000
# 5 0.000000 0.000000 0.000000 0.000000 0.031017 0.000000
# 6 0.000000 0.000000 0.000000 0.000000 0.000000 0.160895
#
#
# Mechanical properties :
#
#
# Convention : Reuss Voigt Hill
#
# Bulk Modulus (GPa) = 14.81930 52.31053 33.56491
# Shear Modulus (GPa) = 13.29099 26.01344 19.65222
#
# Velocity S-wave (km/s) = 2.63741 3.68976 3.20704
# Velocity P-wave (km/s) = 4.12678 6.74755 5.59284
#
# Compressibility (1/GPa) = 0.06747955
#
# Stress axis : x y z
#
# Youngs Moduli (GPa) = 102.94028 16.58534 105.31515
#
# Poissons Ratio (x) = 0.07838 0.53973
# Poissons Ratio (y) = 0.48649 -0.40428
# Poissons Ratio (z) = 0.52756 -0.06367
#
# Static dielectric constant tensor:
#      x y z
#    x 1.687820 0.000000 0.000000 
#    y 0.000000 1.639440 0.000000 
#    z 0.000000 0.000000 1.697120 
# 
# From -- ./inp_files/42760.got.cif
#   From: 2010.05.17/outbox.cif.g08.bks.cpg/sg69_22_cif.got.tgz:42760.got - 2010.06.03 19:29:58.
