data_PCOD9511597
_publ_section_title
;
Structure prediction by ZEFSAII (Michael W. Deem and Ramdas Pophale) SiO2 
 PCOD9511597
Probable space group: F M M M
;
_chemical_formula_sum "Si O2"
_cell_formula_units_Z 104
_cell_length_a 14.932097
_cell_length_b 21.099452
_cell_length_c 20.782935
_cell_angle_alpha 90.000000
_cell_angle_beta 90.000000
_cell_angle_gamma 90.000000
_cell_volume 6547.852046
_symmetry_space_group_name_H-M "F M M M"
_symmetry_group_IT_number 69
_symmetry_cell_setting 'orthorhombic'
loop_
_space_group_symop_operation_xyz
x,y,z
-x,-y,z
x,-y,-z
-x,y,-z
-x,-y,-z
x,y,-z
-x,y,z
x,-y,z
x,1/2+y,1/2+z
-x,1/2-y,1/2+z
x,1/2-y,1/2-z
-x,1/2+y,1/2-z
-x,1/2-y,1/2-z
x,1/2+y,1/2-z
-x,1/2+y,1/2+z
x,1/2-y,1/2+z
1/2+x,y,1/2+z
1/2-x,-y,1/2+z
1/2+x,-y,1/2-z
1/2-x,y,1/2-z
1/2-x,-y,1/2-z
1/2+x,y,1/2-z
1/2-x,y,1/2+z
1/2+x,-y,1/2+z
1/2+x,1/2+y,z
1/2-x,1/2-y,z
1/2+x,1/2-y,-z
1/2-x,1/2+y,-z
1/2-x,1/2-y,-z
1/2+x,1/2+y,-z
1/2-x,1/2+y,z
1/2+x,1/2-y,z
loop_
_atom_site_type_symbol
_atom_site_label
_atom_site_fract_x
_atom_site_fract_y
_atom_site_fract_z
Si Si1 0.000000 0.575956 0.726202
Si Si2 0.690280 0.873097 0.690399
Si Si3 0.500000 0.076716 0.124177
Si Si4 0.250000 0.250000 0.250000
Si Si5 0.805558 0.423475 0.074170
O O1 0.909470 0.601010 0.694303
O O2 0.000000 0.596435 0.801251
O O3 0.000000 0.500000 0.724624
O O4 0.750000 0.901018 0.750000
O O5 0.693281 0.798057 0.705998
O O6 0.739711 0.891072 0.624935
O O7 0.592265 0.096290 0.090483
O O8 0.500000 0.000000 0.122790
O O9 0.800063 0.500000 0.082459
O O10 0.785120 0.409088 0.000000
#
# Coordination Sequence:
#
# PCOD9511597 Si02
#       5
#    16  32  16   8  32
#     4  11  20  30  56  87 106 137 177 227 284 323
#     4  10  20  36  53  76 109 141 185 223 258 316
#     4   9  15  26  46  75 105 132 168 216 269 319
#     4   8  20  38  56  76 102 148 194 224 260 296
#     4  10  19  31  50  78 112 143 173 221 281 331
#
# _framework density 15.883070999999999
#
# number of rings (size 3 to 8) (size 9 to 14) (size 15 to 20)
#    0.923    1.231    3.077    1.385    0.000    3.692 
#    0.000    1.538    0.000    2.769    0.000    0.000 
#    0.000    0.000    0.000    0.000    0.000    0.000 
#
# Total GULP energy -144785.117544 kJ/mol
# GULP energy per Si atom -5568.658367 kJ/mol
# Density = 1.584692 g / cm^3
# Si number density = 15.883071 Si / 1000 Ang^3
#
#
#
# Elastic Constant Matrix: (Units=GPa)
#
#
# Indices 1 2 3 4 5 6 
#
# 1 142.0613 47.1368 76.5875 0.0000 0.0000 0.0000
# 2 47.1368 66.1405 47.9304 0.0000 0.0000 0.0000
# 3 76.5875 47.9304 140.4292 0.0000 0.0000 0.0000
# 4 0.0000 0.0000 0.0000 -20.5942 0.0000 0.0000
# 5 0.0000 0.0000 0.0000 0.0000 20.3556 0.0000
# 6 0.0000 0.0000 0.0000 0.0000 0.0000 15.5334
#
#
#
# Elastic Compliance Matrix: (Units=1/GPa)
#
#
# Indices 1 2 3 4 5 6 
#
# 1 0.010937 -0.004613 -0.004390 0.000000 0.000000 0.000000
# 2 -0.004613 0.022033 -0.005005 0.000000 0.000000 0.000000
# 3 -0.004390 -0.005005 0.011224 0.000000 0.000000 0.000000
# 4 0.000000 0.000000 0.000000 -0.048557 0.000000 0.000000
# 5 0.000000 0.000000 0.000000 0.000000 0.049127 0.000000
# 6 0.000000 0.000000 0.000000 0.000000 0.000000 0.064378
#
#
# Mechanical properties :
#
#
# Convention : Reuss Voigt Hill
#
# Bulk Modulus (GPa) = 61.81089 76.88227 69.34658
# Shear Modulus (GPa) = 35.07581 14.85736 24.96659
#
# Velocity S-wave (km/s) = 4.70444 3.06178 3.96902
# Velocity P-wave (km/s) = 8.27706 7.81086 8.04734
#
# Compressibility (1/GPa) = 0.01617838
#
# Stress axis : x y z
#
# Youngs Moduli (GPa) = 91.43607 45.38555 89.09876
#
# Poissons Ratio (x) = 0.20935 0.39116
# Poissons Ratio (y) = 0.42177 0.44590
# Poissons Ratio (z) = 0.40142 0.22714
#
# Static dielectric constant tensor:
#      x y z
#    x 1.520100 0.000000 0.000000 
#    y 0.000000 1.528290 0.000000 
#    z 0.000000 0.000000 1.523020 
# 
# From -- ./inp_files/29724.got.cif
#   From: 2010.05.17/outbox.cif.g08.bks.cpg/sg69_15_cif.got.tgz:29724.got - 2010.06.03 19:29:58.
