data_PCOD9511660
_publ_section_title
;
Structure prediction by ZEFSAII (Michael W. Deem and Ramdas Pophale) SiO2 
 PCOD9511660
Probable space group: F M M M
;
_chemical_formula_sum "Si O2"
_cell_formula_units_Z 240
_cell_length_a 29.246856
_cell_length_b 14.341378
_cell_length_c 32.608714
_cell_angle_alpha 90.000000
_cell_angle_beta 90.000000
_cell_angle_gamma 90.000000
_cell_volume 13677.406083
_symmetry_space_group_name_H-M "F M M M"
_symmetry_group_IT_number 69
_symmetry_cell_setting 'orthorhombic'
loop_
_space_group_symop_operation_xyz
x,y,z
-x,-y,z
x,-y,-z
-x,y,-z
-x,-y,-z
x,y,-z
-x,y,z
x,-y,z
x,1/2+y,1/2+z
-x,1/2-y,1/2+z
x,1/2-y,1/2-z
-x,1/2+y,1/2-z
-x,1/2-y,1/2-z
x,1/2+y,1/2-z
-x,1/2+y,1/2+z
x,1/2-y,1/2+z
1/2+x,y,1/2+z
1/2-x,-y,1/2+z
1/2+x,-y,1/2-z
1/2-x,y,1/2-z
1/2-x,-y,1/2-z
1/2+x,y,1/2-z
1/2-x,y,1/2+z
1/2+x,-y,1/2+z
1/2+x,1/2+y,z
1/2-x,1/2-y,z
1/2+x,1/2-y,-z
1/2-x,1/2+y,-z
1/2-x,1/2-y,-z
1/2+x,1/2+y,-z
1/2-x,1/2+y,z
1/2+x,1/2-y,z
loop_
_atom_site_type_symbol
_atom_site_label
_atom_site_fract_x
_atom_site_fract_y
_atom_site_fract_z
Si Si1 0.839374 0.605029 0.952219
Si Si2 0.074739 0.612296 0.615338
Si Si3 0.352760 0.111695 0.744550
Si Si4 0.195895 0.252615 0.191447
Si Si5 0.770739 0.392797 0.547278
Si Si6 0.500000 0.613315 0.952101
Si Si7 0.664092 0.771318 0.602085
Si Si8 0.050161 0.386942 0.708203
O O1 0.853223 0.500000 0.940719
O O2 0.784010 0.610013 0.948638
O O3 0.857054 0.686374 0.923629
O O4 0.850501 0.619462 0.000000
O O5 0.075952 0.500000 0.615489
O O6 0.124584 0.654795 0.610757
O O7 0.056536 0.641500 0.660452
O O8 0.043232 0.640337 0.576532
O O9 0.324974 0.153645 0.705991
O O10 0.330197 0.167982 0.782265
O O11 0.405714 0.137760 0.735488
O O12 0.348729 0.000000 0.748362
O O13 0.250000 0.250000 0.199395
O O14 0.185406 0.266074 0.143998
O O15 0.781684 0.369982 0.500000
O O16 0.784877 0.500000 0.555058
O O17 0.796742 0.322515 0.576262
O O18 0.500000 0.500000 0.953798
O O19 0.500000 0.645057 0.000000
O O20 0.049942 0.500000 0.707941
O O21 0.000000 0.355564 0.722657
#
# Coordination Sequence:
#
# PCOD9511660 Si02
#       8
#    32  32  32  32  32  16  32  32
#     4   9  19  35  51  69  99 141 186 226 263 302
#     4  10  19  32  51  78 111 140 168 208 260 328
#     4  10  21  39  58  76 105 142 181 227 278 333
#     4  11  24  37  51  78 113 145 187 231 269 327
#     4   9  18  32  50  75 106 137 173 219 269 318
#     4   9  18  32  50  76 116 153 169 195 265 351
#     4  12  21  32  53  78 108 140 181 227 265 312
#     4   9  16  32  60  84 102 133 172 215 272 333
#
# _framework density 17.547187000000001
#
# number of rings (size 3 to 8) (size 9 to 14) (size 15 to 20)
#    0.000    2.067    2.000    3.600    0.000    4.267 
#    0.000    2.667    1.467    0.000    0.000    0.467 
#    0.000    1.600    0.000    0.000    0.000    0.000 
#
# Total GULP energy -334544.513433 kJ/mol
# GULP energy per Si atom -5575.741891 kJ/mol
# Density = 1.750725 g / cm^3
# Si number density = 17.547187 Si / 1000 Ang^3
#
#
#
# Elastic Constant Matrix: (Units=GPa)
#
#
# Indices 1 2 3 4 5 6 
#
# 1 96.6344 20.6320 27.9184 0.0000 0.0000 0.0000
# 2 20.6320 61.5251 38.9022 0.0000 0.0000 0.0000
# 3 27.9184 38.9022 78.7486 0.0000 0.0000 0.0000
# 4 0.0000 0.0000 0.0000 -5.9351 0.0000 0.0000
# 5 0.0000 0.0000 0.0000 0.0000 5.9800 0.0000
# 6 0.0000 0.0000 0.0000 0.0000 0.0000 9.9202
#
#
#
# Elastic Compliance Matrix: (Units=1/GPa)
#
#
# Indices 1 2 3 4 5 6 
#
# 1 0.011678 -0.001888 -0.003207 0.000000 0.000000 0.000000
# 2 -0.001888 0.023942 -0.011158 0.000000 0.000000 0.000000
# 3 -0.003207 -0.011158 0.019348 0.000000 0.000000 0.000000
# 4 0.000000 0.000000 0.000000 -0.168490 0.000000 0.000000
# 5 0.000000 0.000000 0.000000 0.000000 0.167225 0.000000
# 6 0.000000 0.000000 0.000000 0.000000 0.000000 0.100805
#
#
# Mechanical properties :
#
#
# Convention : Reuss Voigt Hill
#
# Bulk Modulus (GPa) = 44.52225 45.75705 45.13965
# Shear Modulus (GPa) = 25.70663 11.95670 18.83167
#
# Velocity S-wave (km/s) = 3.83168 2.61320 3.27953
# Velocity P-wave (km/s) = 6.70848 5.93618 6.33411
#
# Compressibility (1/GPa) = 0.02246068
#
# Stress axis : x y z
#
# Youngs Moduli (GPa) = 85.63069 41.76771 51.68516
#
# Poissons Ratio (x) = 0.07886 0.16578
# Poissons Ratio (y) = 0.16168 0.57671
# Poissons Ratio (z) = 0.27466 0.46605
#
# Static dielectric constant tensor:
#      x y z
#    x 1.602940 0.000000 0.000000 
#    y 0.000000 1.604400 0.000000 
#    z 0.000000 0.000000 1.609420 
# 
# From -- ./inp_files/47577.got.cif
#   From: 2010.05.17/outbox.cif.g08.bks.cpg/sg69_24_cif.got.tgz:47577.got - 2010.06.03 19:29:58.
