data_PCOD9511264
_publ_section_title
;
Structure prediction by ZEFSAII (Michael W. Deem and Ramdas Pophale) SiO2 
 PCOD9511264
Probable space group: F M M M
;
_chemical_formula_sum "Si O2"
_cell_formula_units_Z 136
_cell_length_a 17.481735
_cell_length_b 14.652050
_cell_length_c 23.799144
_cell_angle_alpha 90.000000
_cell_angle_beta 90.000000
_cell_angle_gamma 90.000000
_cell_volume 6095.990218
_symmetry_space_group_name_H-M "F M M M"
_symmetry_group_IT_number 69
_symmetry_cell_setting 'orthorhombic'
loop_
_space_group_symop_operation_xyz
x,y,z
-x,-y,z
x,-y,-z
-x,y,-z
-x,-y,-z
x,y,-z
-x,y,z
x,-y,z
x,1/2+y,1/2+z
-x,1/2-y,1/2+z
x,1/2-y,1/2-z
-x,1/2+y,1/2-z
-x,1/2-y,1/2-z
x,1/2+y,1/2-z
-x,1/2+y,1/2+z
x,1/2-y,1/2+z
1/2+x,y,1/2+z
1/2-x,-y,1/2+z
1/2+x,-y,1/2-z
1/2-x,y,1/2-z
1/2-x,-y,1/2-z
1/2+x,y,1/2-z
1/2-x,y,1/2+z
1/2+x,-y,1/2+z
1/2+x,1/2+y,z
1/2-x,1/2-y,z
1/2+x,1/2-y,-z
1/2-x,1/2+y,-z
1/2-x,1/2-y,-z
1/2+x,1/2+y,-z
1/2-x,1/2+y,z
1/2+x,1/2-y,z
loop_
_atom_site_type_symbol
_atom_site_label
_atom_site_fract_x
_atom_site_fract_y
_atom_site_fract_z
Si Si1 0.500000 0.000000 0.087835
Si Si2 0.088926 0.648378 0.371872
Si Si3 0.161075 0.361180 0.253497
Si Si4 0.378989 0.134404 0.132438
Si Si5 0.735248 0.140493 0.437786
O O1 0.434340 0.078687 0.093001
O O2 0.119834 0.614499 0.311428
O O3 0.099820 0.758752 0.370780
O O4 0.149277 0.618205 0.419115
O O5 0.000000 0.626190 0.380325
O O6 0.162042 0.250000 0.250000
O O7 0.250000 0.389532 0.250000
O O8 0.116554 0.392523 0.197841
O O9 0.293688 0.114115 0.111058
O O10 0.752760 0.105426 0.500000
O O11 0.750000 0.250000 0.440229
#
# Coordination Sequence:
#
# PCOD9511264 Si02
#       5
#     8  32  32  32  32
#     4  12  24  36  53  80 118 154 185 224 258 336
#     4  10  18  30  56  88 111 139 179 232 290 335
#     4   9  16  29  53  79 105 140 184 231 277 330
#     4  10  20  35  50  78 115 153 185 218 275 337
#     4   9  18  34  55  77 106 142 183 235 285 324
#
# _framework density 22.309747999999999
#
# number of rings (size 3 to 8) (size 9 to 14) (size 15 to 20)
#    0.000    2.353    3.529    0.000    1.647    1.882 
#    0.000    2.353    0.000    0.000    0.000    0.000 
#    0.000    1.882    0.000    0.000    0.000    0.000 
#
# Total GULP energy -189302.996087 kJ/mol
# GULP energy per Si atom -5567.735179 kJ/mol
# Density = 2.225897 g / cm^3
# Si number density = 22.309748 Si / 1000 Ang^3
#
#
#
# Elastic Constant Matrix: (Units=GPa)
#
#
# Indices 1 2 3 4 5 6 
#
# 1 153.5807 -6.7581 20.8800 0.0000 0.0000 0.0000
# 2 -6.7581 68.8740 -2.2305 0.0000 0.0000 0.0000
# 3 20.8800 -2.2305 92.8626 0.0000 0.0000 0.0000
# 4 0.0000 0.0000 0.0000 1.0500 0.0000 0.0000
# 5 0.0000 0.0000 0.0000 0.0000 1.6978 0.0000
# 6 0.0000 0.0000 0.0000 0.0000 0.0000 148.3302
#
#
#
# Elastic Compliance Matrix: (Units=1/GPa)
#
#
# Indices 1 2 3 4 5 6 
#
# 1 0.006742 0.000613 -0.001501 0.000000 0.000000 0.000000
# 2 0.000613 0.014586 0.000213 0.000000 0.000000 0.000000
# 3 -0.001501 0.000213 0.011111 0.000000 0.000000 0.000000
# 4 0.000000 0.000000 0.000000 0.952355 0.000000 0.000000
# 5 0.000000 0.000000 0.000000 0.000000 0.588984 0.000000
# 6 0.000000 0.000000 0.000000 0.000000 0.000000 0.006742
#
#
# Mechanical properties :
#
#
# Convention : Reuss Voigt Hill
#
# Bulk Modulus (GPa) = 32.16643 37.67778 34.92211
# Shear Modulus (GPa) = 3.14024 50.44401 26.79213
#
# Velocity S-wave (km/s) = 1.18770 4.76023 3.46918
# Velocity P-wave (km/s) = 4.04107 6.86573 5.63332
#
# Compressibility (1/GPa) = 0.03108831
#
# Stress axis : x y z
#
# Youngs Moduli (GPa) = 148.31714 68.55747 89.99877
#
# Poissons Ratio (x) = -0.04202 0.13511
# Poissons Ratio (y) = -0.09091 -0.01913
# Poissons Ratio (z) = 0.22266 -0.01457
#
# Static dielectric constant tensor:
#      x y z
#    x 1.803890 0.000000 0.000000 
#    y 0.000000 1.914140 0.000000 
#    z 0.000000 0.000000 1.796890 
# 
# From -- ./inp_files/22874.got.cif
#   From: 2010.05.17/outbox.cif.g08.bks.cpg/sg69_12_cif.got.tgz:22874.got - 2010.06.03 19:29:58.
