data_PCOD9511618
_publ_section_title
;
Structure prediction by ZEFSAII (Michael W. Deem and Ramdas Pophale) SiO2 
 PCOD9511618
Probable space group: F M M M
;
_chemical_formula_sum "Si O2"
_cell_formula_units_Z 136
_cell_length_a 24.529142
_cell_length_b 14.442317
_cell_length_c 16.716193
_cell_angle_alpha 90.000000
_cell_angle_beta 90.000000
_cell_angle_gamma 90.000000
_cell_volume 5921.839157
_symmetry_space_group_name_H-M "F M M M"
_symmetry_group_IT_number 69
_symmetry_cell_setting 'orthorhombic'
loop_
_space_group_symop_operation_xyz
x,y,z
-x,-y,z
x,-y,-z
-x,y,-z
-x,-y,-z
x,y,-z
-x,y,z
x,-y,z
x,1/2+y,1/2+z
-x,1/2-y,1/2+z
x,1/2-y,1/2-z
-x,1/2+y,1/2-z
-x,1/2-y,1/2-z
x,1/2+y,1/2-z
-x,1/2+y,1/2+z
x,1/2-y,1/2+z
1/2+x,y,1/2+z
1/2-x,-y,1/2+z
1/2+x,-y,1/2-z
1/2-x,y,1/2-z
1/2-x,-y,1/2-z
1/2+x,y,1/2-z
1/2-x,y,1/2+z
1/2+x,-y,1/2+z
1/2+x,1/2+y,z
1/2-x,1/2-y,z
1/2+x,1/2-y,-z
1/2-x,1/2+y,-z
1/2-x,1/2-y,-z
1/2+x,1/2+y,-z
1/2-x,1/2+y,z
1/2+x,1/2-y,z
loop_
_atom_site_type_symbol
_atom_site_label
_atom_site_fract_x
_atom_site_fract_y
_atom_site_fract_z
Si Si1 0.887327 0.887803 0.330708
Si Si2 0.500000 0.325202 0.407464
Si Si3 0.121041 0.897017 0.000000
Si Si4 0.276080 0.112457 0.090162
Si Si5 0.833006 0.113260 0.834325
Si Si6 0.000000 0.147569 0.000000
O O1 0.837084 0.859528 0.387694
O O2 0.867004 0.857712 0.242792
O O3 0.945369 0.852889 0.361271
O O4 0.890405 0.000000 0.331148
O O5 0.500000 0.364010 0.500000
O O6 0.500000 0.215718 0.423740
O O7 0.139116 0.854511 0.916575
O O8 0.056377 0.904024 0.000000
O O9 0.146376 0.000000 0.000000
O O10 0.230074 0.141009 0.153936
O O11 0.276048 0.000000 0.091373
O O12 0.261283 0.140999 0.000000
O O13 0.833692 0.000000 0.830896
#
# Coordination Sequence:
#
# PCOD9511618 Si02
#       6
#    32  16  16  32  32   8
#     4  10  19  31  53  84 117 156 192 226 264 316
#     4  10  23  40  53  71 113 149 194 230 265 322
#     4  10  19  38  63  83 104 136 177 231 291 349
#     4   9  15  26  48  83 121 150 179 225 284 329
#     4   9  17  30  53  86 117 138 177 235 286 327
#     4  10  25  42  57  76 104 142 188 232 285 334
#
# _framework density 22.965838000000002
#
# number of rings (size 3 to 8) (size 9 to 14) (size 15 to 20)
#    0.353    2.118    1.176    1.941    0.000    5.647 
#    0.000    5.882    0.000    2.824    0.000    3.294 
#    0.000    0.000    0.000    0.000    0.000    0.941 
#
# Total GULP energy -189908.153991 kJ/mol
# GULP energy per Si atom -5585.533941 kJ/mol
# Density = 2.291357 g / cm^3
# Si number density = 22.965838 Si / 1000 Ang^3
#
#
#
# Elastic Constant Matrix: (Units=GPa)
#
#
# Indices 1 2 3 4 5 6 
#
# 1 224.0381 29.9030 95.7643 0.0000 0.0000 0.0000
# 2 29.9030 84.8591 23.9405 0.0000 0.0000 0.0000
# 3 95.7643 23.9405 164.6336 0.0000 0.0000 0.0000
# 4 0.0000 0.0000 0.0000 -25.7521 0.0000 0.0000
# 5 0.0000 0.0000 0.0000 0.0000 20.7127 0.0000
# 6 0.0000 0.0000 0.0000 0.0000 0.0000 -13.6168
#
#
#
# Elastic Compliance Matrix: (Units=1/GPa)
#
#
# Indices 1 2 3 4 5 6 
#
# 1 0.006053 -0.001188 -0.003348 0.000000 0.000000 0.000000
# 2 -0.001188 0.012522 -0.001130 0.000000 0.000000 0.000000
# 3 -0.003348 -0.001130 0.008186 0.000000 0.000000 0.000000
# 4 0.000000 0.000000 0.000000 -0.038832 0.000000 0.000000
# 5 0.000000 0.000000 0.000000 0.000000 0.048280 0.000000
# 6 0.000000 0.000000 0.000000 0.000000 0.000000 -0.073439
#
#
# Mechanical properties :
#
#
# Convention : Reuss Voigt Hill
#
# Bulk Modulus (GPa) = 64.81554 85.86073 75.33813
# Shear Modulus (GPa) = -240.91263 17.86363 -111.52450
#
# Velocity S-wave (km/s) = -10.25320 2.79199 -6.97614
# Velocity P-wave (km/s) = 10.57767 6.91817 5.65800
#
# Compressibility (1/GPa) = 0.01542840
#
# Stress axis : x y z
#
# Youngs Moduli (GPa) = 165.19691 79.86126 122.15973
#
# Poissons Ratio (x) = 0.09491 0.40903
# Poissons Ratio (y) = 0.19633 0.13799
# Poissons Ratio (z) = 0.55313 0.09021
#
# Static dielectric constant tensor:
#      x y z
#    x 1.800370 0.000000 0.000000 
#    y 0.000000 1.895820 0.000000 
#    z 0.000000 0.000000 1.862520 
# 
# From -- ./inp_files/17581.got.cif
#   From: 2010.05.17/outbox.cif.g08.bks.cpg/sg69_9_cif.got.tgz:17581.got - 2010.06.03 19:29:58.
