data_PCOD9511547
_publ_section_title
;
Structure prediction by ZEFSAII (Michael W. Deem and Ramdas Pophale) SiO2 
 PCOD9511547
Probable space group: F M M M
;
_chemical_formula_sum "Si O2"
_cell_formula_units_Z 160
_cell_length_a 33.300746
_cell_length_b 30.933848
_cell_length_c 7.718925
_cell_angle_alpha 90.000000
_cell_angle_beta 90.000000
_cell_angle_gamma 90.000000
_cell_volume 7951.420681
_symmetry_space_group_name_H-M "F M M M"
_symmetry_group_IT_number 69
_symmetry_cell_setting 'orthorhombic'
loop_
_space_group_symop_operation_xyz
x,y,z
-x,-y,z
x,-y,-z
-x,y,-z
-x,-y,-z
x,y,-z
-x,y,z
x,-y,z
x,1/2+y,1/2+z
-x,1/2-y,1/2+z
x,1/2-y,1/2-z
-x,1/2+y,1/2-z
-x,1/2-y,1/2-z
x,1/2+y,1/2-z
-x,1/2+y,1/2+z
x,1/2-y,1/2+z
1/2+x,y,1/2+z
1/2-x,-y,1/2+z
1/2+x,-y,1/2-z
1/2-x,y,1/2-z
1/2-x,-y,1/2-z
1/2+x,y,1/2-z
1/2-x,y,1/2+z
1/2+x,-y,1/2+z
1/2+x,1/2+y,z
1/2-x,1/2-y,z
1/2+x,1/2-y,-z
1/2-x,1/2+y,-z
1/2-x,1/2-y,-z
1/2+x,1/2+y,-z
1/2-x,1/2+y,z
1/2+x,1/2-y,z
loop_
_atom_site_type_symbol
_atom_site_label
_atom_site_fract_x
_atom_site_fract_y
_atom_site_fract_z
Si Si1 0.885563 0.798015 0.203284
Si Si2 0.452009 0.949114 0.000000
Si Si3 0.672359 0.408965 0.712236
Si Si4 0.703868 0.000000 0.793134
Si Si5 0.582778 0.887275 0.701215
Si Si6 0.294122 0.679510 0.704562
O O1 0.899135 0.750000 0.250000
O O2 0.912828 0.837697 0.273228
O O3 0.837504 0.801156 0.242322
O O4 0.888671 0.803685 0.000000
O O5 0.438161 0.921106 0.168077
O O6 0.500000 0.951030 0.000000
O O7 0.437234 0.000000 0.000000
O O8 0.668837 0.408099 0.500000
O O9 0.685772 0.455646 0.772101
O O10 0.629530 0.399797 0.793617
O O11 0.702271 0.370421 0.764237
O O12 0.750000 0.000000 0.750000
O O13 0.698266 0.000000 0.000000
O O14 0.568108 0.888838 0.500000
O O15 0.295316 0.680738 0.500000
O O16 0.250000 0.697447 0.750000
#
# Coordination Sequence:
#
# PCOD9511547 Si02
#       6
#    32  16  32  16  32  32
#     4  10  21  36  59  91 119 159 216 265 316 374
#     4  11  26  46  72 102 136 169 198 248 311 374
#     4   9  18  32  51  74 108 155 205 256 312 368
#     4  10  20  30  44  70 106 151 202 257 311 363
#     4  10  22  40  66  97 127 165 210 255 305 372
#     4  10  19  31  47  69 109 158 206 267 322 371
#
# _framework density 20.12219
#
# number of rings (size 3 to 8) (size 9 to 14) (size 15 to 20)
#    0.000    2.100    1.000    1.800    4.200    2.800 
#    0.000    3.000    0.000    0.600    0.000    0.000 
#    0.000    0.000    0.000    0.000    0.000    0.000 
#
# Total GULP energy -222830.743595 kJ/mol
# GULP energy per Si atom -5570.768590 kJ/mol
# Density = 2.007639 g / cm^3
# Si number density = 20.122190 Si / 1000 Ang^3
#
#
#
# Elastic Constant Matrix: (Units=GPa)
#
#
# Indices 1 2 3 4 5 6 
#
# 1 44.9167 28.3924 15.7472 0.0055 0.0027 0.0072
# 2 28.3924 174.3994 38.4202 0.0030 0.0064 0.0208
# 3 15.7472 38.4202 73.2786 -0.0161 0.0148 0.0471
# 4 0.0055 0.0030 -0.0161 20.8011 0.0073 0.0289
# 5 0.0027 0.0064 0.0148 0.0073 9.5519 -0.0237
# 6 0.0072 0.0208 0.0471 0.0289 -0.0237 4.7502
#
#
#
# Elastic Compliance Matrix: (Units=1/GPa)
#
#
# Indices 1 2 3 4 5 6 
#
# 1 0.025704 -0.003355 -0.003764 -0.000009 0.000001 0.000013
# 2 -0.003355 0.006921 -0.002908 -0.000002 0.000001 0.000004
# 3 -0.003764 -0.002908 0.015980 0.000014 -0.000022 -0.000140
# 4 -0.000009 -0.000002 0.000014 0.048075 -0.000037 -0.000292
# 5 0.000001 0.000001 -0.000022 -0.000037 0.104692 0.000523
# 6 0.000013 0.000004 -0.000140 -0.000292 0.000523 0.210525
#
#
# Mechanical properties :
#
#
# Convention : Reuss Voigt Hill
#
# Bulk Modulus (GPa) = 35.02599 50.85713 42.94156
# Shear Modulus (GPa) = 11.32585 21.02296 16.17441
#
# Velocity S-wave (km/s) = 2.37503 3.23579 2.83823
# Velocity P-wave (km/s) = 4.99654 6.26813 5.66811
#
# Compressibility (1/GPa) = 0.02855023
#
# Stress axis : x y z
#
# Youngs Moduli (GPa) = 38.90425 144.49308 62.57802
#
# Poissons Ratio (x) = 0.48482 0.23557
# Poissons Ratio (y) = 0.13054 0.18195
# Poissons Ratio (z) = 0.14645 0.42012
#
# Static dielectric constant tensor:
#      x y z
#    x 1.500630 -0.000610 -0.000110 
#    y -0.000610 2.002050 -0.000140 
#    z -0.000110 -0.000140 1.729030 
# 
# From -- ./inp_files/5751.got.cif
#   From: 2010.05.17/outbox.cif.g08.bks.cpg/sg69_3_cif.got.tgz:5751.got - 2010.06.03 19:29:58.
