data_PCOD9511630
_publ_section_title
;
Structure prediction by ZEFSAII (Michael W. Deem and Ramdas Pophale) SiO2 
 PCOD9511630
Probable space group: F M M M
;
_chemical_formula_sum "Si O2"
_cell_formula_units_Z 192
_cell_length_a 17.174881
_cell_length_b 32.095100
_cell_length_c 19.790094
_cell_angle_alpha 90.000000
_cell_angle_beta 90.000000
_cell_angle_gamma 90.000000
_cell_volume 10908.884079
_symmetry_space_group_name_H-M "F M M M"
_symmetry_group_IT_number 69
_symmetry_cell_setting 'orthorhombic'
loop_
_space_group_symop_operation_xyz
x,y,z
-x,-y,z
x,-y,-z
-x,y,-z
-x,-y,-z
x,y,-z
-x,y,z
x,-y,z
x,1/2+y,1/2+z
-x,1/2-y,1/2+z
x,1/2-y,1/2-z
-x,1/2+y,1/2-z
-x,1/2-y,1/2-z
x,1/2+y,1/2-z
-x,1/2+y,1/2+z
x,1/2-y,1/2+z
1/2+x,y,1/2+z
1/2-x,-y,1/2+z
1/2+x,-y,1/2-z
1/2-x,y,1/2-z
1/2-x,-y,1/2-z
1/2+x,y,1/2-z
1/2-x,y,1/2+z
1/2+x,-y,1/2+z
1/2+x,1/2+y,z
1/2-x,1/2-y,z
1/2+x,1/2-y,-z
1/2-x,1/2+y,-z
1/2-x,1/2-y,-z
1/2+x,1/2+y,-z
1/2-x,1/2+y,z
1/2+x,1/2-y,z
loop_
_atom_site_type_symbol
_atom_site_label
_atom_site_fract_x
_atom_site_fract_y
_atom_site_fract_z
Si Si1 0.808861 0.950564 0.000000
Si Si2 0.410255 0.906248 0.609119
Si Si3 0.160061 0.706713 0.276995
Si Si4 0.866933 0.449935 0.000000
Si Si5 0.089057 0.451896 0.851382
Si Si6 0.591534 0.191287 0.577511
Si Si7 0.843217 0.385247 0.247384
O O1 0.855479 0.934826 0.064587
O O2 0.721088 0.933420 0.000000
O O3 0.805104 0.000000 0.000000
O O4 0.500000 0.919600 0.605795
O O5 0.405742 0.859019 0.581041
O O6 0.379410 0.904525 0.684989
O O7 0.125043 0.750000 0.250000
O O8 0.250000 0.707003 0.250000
O O9 0.144494 0.705487 0.358387
O O10 0.127784 0.662969 0.247180
O O11 0.908033 0.439888 0.930179
O O12 0.863104 0.500000 0.000000
O O13 0.118844 0.500000 0.844005
O O14 0.134212 0.416283 0.812021
O O15 0.000000 0.452051 0.827911
O O16 0.612939 0.203904 0.500000
O O17 0.500000 0.202966 0.588659
O O18 0.750000 0.383535 0.250000
#
# Coordination Sequence:
#
# PCOD9511630 Si02
#       7
#    16  32  32  16  32  32  32
#     4  11  21  31  47  73 106 137 168 215 269 316
#     4  10  19  32  48  71 102 136 174 214 257 316
#     4   9  19  36  56  80 113 143 181 224 272 330
#     4   9  19  35  53  73  98 135 182 221 261 318
#     4  10  20  35  55  77 103 139 182 224 265 316
#     4   9  17  32  55  78 100 137 185 223 259 317
#     4  10  20  34  55  79 107 140 178 221 268 319
#
# _framework density 17.600334
#
# number of rings (size 3 to 8) (size 9 to 14) (size 15 to 20)
#    0.000    2.333    0.833    2.000    0.000    3.667 
#    0.000    1.667    1.833    0.000    0.000    0.000 
#    0.000    0.000    0.000    0.000    0.000    0.000 
#
# Total GULP energy -267224.566812 kJ/mol
# GULP energy per Si atom -5567.178475 kJ/mol
# Density = 1.756027 g / cm^3
# Si number density = 17.600334 Si / 1000 Ang^3
#
#
#
# Elastic Constant Matrix: (Units=GPa)
#
#
# Indices 1 2 3 4 5 6 
#
# 1 63.5221 19.8520 25.9726 0.0000 0.0000 0.0000
# 2 19.8520 92.1449 51.3192 0.0000 0.0000 0.0000
# 3 25.9726 51.3192 116.9437 0.0000 0.0000 0.0000
# 4 0.0000 0.0000 0.0000 25.7811 0.0000 0.0000
# 5 0.0000 0.0000 0.0000 0.0000 33.6549 0.0000
# 6 0.0000 0.0000 0.0000 0.0000 0.0000 7.5858
#
#
#
# Elastic Compliance Matrix: (Units=1/GPa)
#
#
# Indices 1 2 3 4 5 6 
#
# 1 0.017628 -0.002141 -0.002976 0.000000 0.000000 0.000000
# 2 -0.002141 0.014623 -0.005942 0.000000 0.000000 0.000000
# 3 -0.002976 -0.005942 0.011819 0.000000 0.000000 0.000000
# 4 0.000000 0.000000 0.000000 0.038788 0.000000 0.000000
# 5 0.000000 0.000000 0.000000 0.000000 0.029713 0.000000
# 6 0.000000 0.000000 0.000000 0.000000 0.000000 0.131825
#
#
# Mechanical properties :
#
#
# Convention : Reuss Voigt Hill
#
# Bulk Modulus (GPa) = 45.54864 51.87758 48.71311
# Shear Modulus (GPa) = 18.25944 25.10216 21.68080
#
# Velocity S-wave (km/s) = 3.22444 3.78065 3.51357
# Velocity P-wave (km/s) = 6.30859 6.97116 6.64813
#
# Compressibility (1/GPa) = 0.02195455
#
# Stress axis : x y z
#
# Youngs Moduli (GPa) = 56.72712 68.38654 84.60651
#
# Poissons Ratio (x) = 0.14638 0.25177
# Poissons Ratio (y) = 0.12143 0.50270
# Poissons Ratio (z) = 0.16881 0.40633
#
# Static dielectric constant tensor:
#      x y z
#    x 1.618330 0.000000 0.000000 
#    y 0.000000 1.601660 0.000000 
#    z 0.000000 0.000000 1.604040 
# 
# From -- ./inp_files/23711.got.cif
#   From: 2010.05.17/outbox.cif.g08.bks.cpg/sg69_12_cif.got.tgz:23711.got - 2010.06.03 19:29:58.
