data_PCOD9511008
_publ_section_title
;
Structure prediction by ZEFSAII (Michael W. Deem and Ramdas Pophale) SiO2 
 PCOD9511008
Probable space group: F M M M
;
_chemical_formula_sum "Si O2"
_cell_formula_units_Z 160
_cell_length_a 28.183797
_cell_length_b 17.524529
_cell_length_c 16.459912
_cell_angle_alpha 90.000000
_cell_angle_beta 90.000000
_cell_angle_gamma 90.000000
_cell_volume 8129.678395
_symmetry_space_group_name_H-M "F M M M"
_symmetry_group_IT_number 69
_symmetry_cell_setting 'orthorhombic'
loop_
_space_group_symop_operation_xyz
x,y,z
-x,-y,z
x,-y,-z
-x,y,-z
-x,-y,-z
x,y,-z
-x,y,z
x,-y,z
x,1/2+y,1/2+z
-x,1/2-y,1/2+z
x,1/2-y,1/2-z
-x,1/2+y,1/2-z
-x,1/2-y,1/2-z
x,1/2+y,1/2-z
-x,1/2+y,1/2+z
x,1/2-y,1/2+z
1/2+x,y,1/2+z
1/2-x,-y,1/2+z
1/2+x,-y,1/2-z
1/2-x,y,1/2-z
1/2-x,-y,1/2-z
1/2+x,y,1/2-z
1/2-x,y,1/2+z
1/2+x,-y,1/2+z
1/2+x,1/2+y,z
1/2-x,1/2-y,z
1/2+x,1/2-y,-z
1/2-x,1/2+y,-z
1/2-x,1/2-y,-z
1/2+x,1/2+y,-z
1/2-x,1/2+y,z
1/2+x,1/2-y,z
loop_
_atom_site_type_symbol
_atom_site_label
_atom_site_fract_x
_atom_site_fract_y
_atom_site_fract_z
Si Si1 0.286820 0.147976 0.598259
Si Si2 0.553890 0.500000 0.120322
Si Si3 0.817664 0.588421 0.901709
Si Si4 0.861212 0.235665 0.344099
Si Si5 0.161865 0.500000 0.590401
Si Si6 0.052929 0.664325 0.404775
O O1 0.288324 0.155895 0.500000
O O2 0.234149 0.121799 0.620966
O O3 0.311542 0.223332 0.631846
O O4 0.320042 0.078135 0.627769
O O5 0.500000 0.500000 0.085402
O O6 0.606023 0.500000 0.082285
O O7 0.555529 0.411816 0.151452
O O8 0.821935 0.500000 0.876373
O O9 0.855762 0.647010 0.865927
O O10 0.820408 0.590543 0.000000
O O11 0.869154 0.250000 0.250000
O O12 0.904270 0.278080 0.389627
O O13 0.184286 0.500000 0.500000
O O14 0.056237 0.638728 0.500000
O O15 0.000000 0.697729 0.394226
#
# Coordination Sequence:
#
# PCOD9511008 Si02
#       6
#    32  16  32  32  16  32
#     4  10  19  35  59  84 109 145 194 242 285 330
#     4  10  18  29  54  91 118 135 168 228 299 357
#     4  10  21  40  63  84 110 151 206 256 289 326
#     4  12  25  38  53  84 120 158 190 230 290 360
#     4  10  16  27  52  84 113 134 169 227 290 341
#     4  10  20  36  61  89 114 144 187 239 290 342
#
# _framework density 19.680975
#
# number of rings (size 3 to 8) (size 9 to 14) (size 15 to 20)
#    0.000    1.600    3.000    3.300    0.000    5.800 
#    3.600    1.000    0.000    0.600    0.000    2.800 
#    0.000    0.000    0.000    0.000    0.000    0.000 
#
# Total GULP energy -222686.250674 kJ/mol
# GULP energy per Si atom -5567.156267 kJ/mol
# Density = 1.963618 g / cm^3
# Si number density = 19.680975 Si / 1000 Ang^3
#
#
#
# Elastic Constant Matrix: (Units=GPa)
#
#
# Indices 1 2 3 4 5 6 
#
# 1 105.2173 69.1259 14.9314 0.0000 0.0000 0.0000
# 2 69.1259 154.9126 17.5905 0.0000 0.0000 0.0000
# 3 14.9314 17.5905 18.4442 0.0000 0.0000 0.0000
# 4 0.0000 0.0000 0.0000 14.4341 0.0000 0.0000
# 5 0.0000 0.0000 0.0000 0.0000 5.9869 0.0000
# 6 0.0000 0.0000 0.0000 0.0000 0.0000 20.0806
#
#
#
# Elastic Compliance Matrix: (Units=1/GPa)
#
#
# Indices 1 2 3 4 5 6 
#
# 1 0.014021 -0.005571 -0.006038 0.000000 0.000000 0.000000
# 2 -0.005571 0.009453 -0.004505 0.000000 0.000000 0.000000
# 3 -0.006038 -0.004505 0.063402 0.000000 0.000000 0.000000
# 4 0.000000 0.000000 0.000000 0.069280 0.000000 0.000000
# 5 0.000000 0.000000 0.000000 0.000000 0.167032 0.000000
# 6 0.000000 0.000000 0.000000 0.000000 0.000000 0.049799
#
#
# Mechanical properties :
#
#
# Convention : Reuss Voigt Hill
#
# Bulk Modulus (GPa) = 18.29883 53.54110 35.91996
# Shear Modulus (GPa) = 11.80830 19.89541 15.85186
#
# Velocity S-wave (km/s) = 2.45212 3.18291 2.84111
# Velocity P-wave (km/s) = 4.16354 6.38525 5.39011
#
# Compressibility (1/GPa) = 0.05464832
#
# Stress axis : x y z
#
# Youngs Moduli (GPa) = 71.32195 105.78966 15.77233
#
# Poissons Ratio (x) = 0.58935 0.09523
# Poissons Ratio (y) = 0.39733 0.07106
# Poissons Ratio (z) = 0.43061 0.47661
#
# Static dielectric constant tensor:
#      x y z
#    x 1.683060 0.000000 0.000000 
#    y 0.000000 1.747210 0.000000 
#    z 0.000000 0.000000 1.699550 
# 
# From -- ./inp_files/27496.got.cif
#   From: 2010.05.17/outbox.cif.g08.bks.cpg/sg69_14_cif.got.tgz:27496.got - 2010.06.03 19:29:58.
