data_PCOD9511720
_publ_section_title
;
Structure prediction by ZEFSAII (Michael W. Deem and Ramdas Pophale) SiO2 
 PCOD9511720
Probable space group: F M M M
;
_chemical_formula_sum "Si O2"
_cell_formula_units_Z 208
_cell_length_a 17.656369
_cell_length_b 23.711925
_cell_length_c 29.304786
_cell_angle_alpha 90.000000
_cell_angle_beta 90.000000
_cell_angle_gamma 90.000000
_cell_volume 12268.932115
_symmetry_space_group_name_H-M "F M M M"
_symmetry_group_IT_number 69
_symmetry_cell_setting 'orthorhombic'
loop_
_space_group_symop_operation_xyz
x,y,z
-x,-y,z
x,-y,-z
-x,y,-z
-x,-y,-z
x,y,-z
-x,y,z
x,-y,z
x,1/2+y,1/2+z
-x,1/2-y,1/2+z
x,1/2-y,1/2-z
-x,1/2+y,1/2-z
-x,1/2-y,1/2-z
x,1/2+y,1/2-z
-x,1/2+y,1/2+z
x,1/2-y,1/2+z
1/2+x,y,1/2+z
1/2-x,-y,1/2+z
1/2+x,-y,1/2-z
1/2-x,y,1/2-z
1/2-x,-y,1/2-z
1/2+x,y,1/2-z
1/2-x,y,1/2+z
1/2+x,-y,1/2+z
1/2+x,1/2+y,z
1/2-x,1/2-y,z
1/2+x,1/2-y,-z
1/2-x,1/2+y,-z
1/2-x,1/2-y,-z
1/2+x,1/2+y,-z
1/2-x,1/2+y,z
1/2+x,1/2-y,z
loop_
_atom_site_type_symbol
_atom_site_label
_atom_site_fract_x
_atom_site_fract_y
_atom_site_fract_z
Si Si1 0.624962 0.388416 0.228953
Si Si2 0.910535 0.124989 0.445466
Si Si3 0.913586 0.767727 0.799681
Si Si4 0.680366 0.288312 0.381369
Si Si5 0.917831 0.500000 0.679349
Si Si6 0.744965 0.000000 0.633442
Si Si7 0.289061 0.611053 0.683661
Si Si8 0.345014 0.500000 0.445781
O O1 0.586226 0.334984 0.205908
O O2 0.588452 0.445692 0.211738
O O3 0.638007 0.384653 0.283322
O O4 0.710654 0.389127 0.210783
O O5 0.898305 0.131652 0.500000
O O6 0.866603 0.174717 0.418265
O O7 0.885812 0.059994 0.434018
O O8 0.000000 0.130071 0.436108
O O9 0.878614 0.750000 0.750000
O O10 0.870456 0.747541 0.845101
O O11 0.000000 0.745894 0.801199
O O12 0.750000 0.250000 0.399459
O O13 0.715148 0.336185 0.349180
O O14 0.843760 0.500000 0.646778
O O15 0.000000 0.500000 0.655937
O O16 0.785659 0.946386 0.655795
O O17 0.765203 0.000000 0.580450
O O18 0.336798 0.500000 0.500000
#
# Coordination Sequence:
#
# PCOD9511720 Si02
#       8
#    32  32  32  32  16  16  32  16
#     4  10  19  34  52  72 104 144 189 228 268 318
#     4  10  22  41  62  86 117 146 178 230 293 351
#     4  11  22  33  48  74 109 147 184 225 269 322
#     4  12  22  35  57  81 110 146 192 228 274 332
#     4  10  21  35  53  76 107 149 192 232 281 329
#     4  10  19  35  57  82 111 139 184 234 279 337
#     4  10  19  32  54  77 102 142 182 229 273 316
#     4  10  19  35  65  94 113 141 180 226 287 353
#
# _framework density 16.953391
#
# number of rings (size 3 to 8) (size 9 to 14) (size 15 to 20)
#    0.000    1.538    4.615    1.615    0.000    3.385 
#    0.000    0.000    0.000    0.231    0.000    0.000 
#    0.000    0.000    0.000    0.000    0.000    0.308 
#
# Total GULP energy -289503.509778 kJ/mol
# GULP energy per Si atom -5567.375188 kJ/mol
# Density = 1.691480 g / cm^3
# Si number density = 16.953391 Si / 1000 Ang^3
#
#
#
# Elastic Constant Matrix: (Units=GPa)
#
#
# Indices 1 2 3 4 5 6 
#
# 1 87.1522 40.4998 48.2479 0.0000 0.0000 0.0000
# 2 40.4998 131.9943 39.8658 0.0000 0.0000 0.0000
# 3 48.2479 39.8658 67.5885 0.0000 0.0000 0.0000
# 4 0.0000 0.0000 0.0000 29.7430 0.0000 0.0000
# 5 0.0000 0.0000 0.0000 0.0000 15.4624 0.0000
# 6 0.0000 0.0000 0.0000 0.0000 0.0000 34.1805
#
#
#
# Elastic Compliance Matrix: (Units=1/GPa)
#
#
# Indices 1 2 3 4 5 6 
#
# 1 0.019465 -0.002161 -0.012621 0.000000 0.000000 0.000000
# 2 -0.002161 0.009458 -0.004036 0.000000 0.000000 0.000000
# 3 -0.012621 -0.004036 0.026185 0.000000 0.000000 0.000000
# 4 0.000000 0.000000 0.000000 0.033621 0.000000 0.000000
# 5 0.000000 0.000000 0.000000 0.000000 0.064673 0.000000
# 6 0.000000 0.000000 0.000000 0.000000 0.000000 0.029256
#
#
# Mechanical properties :
#
#
# Convention : Reuss Voigt Hill
#
# Bulk Modulus (GPa) = 57.23019 60.44022 58.83521
# Shear Modulus (GPa) = 22.11223 26.41862 24.26542
#
# Velocity S-wave (km/s) = 3.61542 3.95182 3.78736
# Velocity P-wave (km/s) = 7.15954 7.52002 7.34200
#
# Compressibility (1/GPa) = 0.01747329
#
# Stress axis : x y z
#
# Youngs Moduli (GPa) = 51.37383 105.72932 38.18922
#
# Poissons Ratio (x) = 0.22845 0.48198
# Poissons Ratio (y) = 0.11100 0.15414
# Poissons Ratio (z) = 0.64837 0.42675
#
# Static dielectric constant tensor:
#      x y z
#    x 1.401790 0.000000 0.000000 
#    y 0.000000 1.595590 0.000000 
#    z 0.000000 0.000000 1.590150 
# 
# From -- ./inp_files/42143.got.cif
#   From: 2010.05.17/outbox.cif.g08.bks.cpg/sg69_22_cif.got.tgz:42143.got - 2010.06.03 19:29:58.
