data_PCOD9511286
_publ_section_title
;
Structure prediction by ZEFSAII (Michael W. Deem and Ramdas Pophale) SiO2 
 PCOD9511286
Probable space group: F M M M
;
_chemical_formula_sum "Si O2"
_cell_formula_units_Z 144
_cell_length_a 32.645647
_cell_length_b 14.253148
_cell_length_c 17.857208
_cell_angle_alpha 90.000000
_cell_angle_beta 90.000000
_cell_angle_gamma 90.000000
_cell_volume 8309.016708
_symmetry_space_group_name_H-M "F M M M"
_symmetry_group_IT_number 69
_symmetry_cell_setting 'orthorhombic'
loop_
_space_group_symop_operation_xyz
x,y,z
-x,-y,z
x,-y,-z
-x,y,-z
-x,-y,-z
x,y,-z
-x,y,z
x,-y,z
x,1/2+y,1/2+z
-x,1/2-y,1/2+z
x,1/2-y,1/2-z
-x,1/2+y,1/2-z
-x,1/2-y,1/2-z
x,1/2+y,1/2-z
-x,1/2+y,1/2+z
x,1/2-y,1/2+z
1/2+x,y,1/2+z
1/2-x,-y,1/2+z
1/2+x,-y,1/2-z
1/2-x,y,1/2-z
1/2-x,-y,1/2-z
1/2+x,y,1/2-z
1/2-x,y,1/2+z
1/2+x,-y,1/2+z
1/2+x,1/2+y,z
1/2-x,1/2-y,z
1/2+x,1/2-y,-z
1/2-x,1/2+y,-z
1/2-x,1/2-y,-z
1/2+x,1/2+y,-z
1/2-x,1/2+y,z
1/2+x,1/2-y,z
loop_
_atom_site_type_symbol
_atom_site_label
_atom_site_fract_x
_atom_site_fract_y
_atom_site_fract_z
Si Si1 0.545853 0.000000 0.787528
Si Si2 0.121110 0.500000 0.676791
Si Si3 0.376474 0.195304 0.411130
Si Si4 0.293184 0.713058 0.163462
Si Si5 0.790598 0.000000 0.199797
Si Si6 0.453424 0.210029 0.165132
O O1 0.580694 0.000000 0.725748
O O2 0.549535 0.097151 0.832259
O O3 0.500000 0.000000 0.753727
O O4 0.121745 0.592248 0.625876
O O5 0.162140 0.500000 0.728972
O O6 0.374296 0.189939 0.500000
O O7 0.334764 0.241045 0.378354
O O8 0.417229 0.248470 0.384401
O O9 0.296245 0.750000 0.250000
O O10 0.250000 0.750000 0.133213
O O11 0.289341 0.600180 0.159303
O O12 0.750000 0.000000 0.250000
O O13 0.500000 0.235377 0.141758
O O14 0.448202 0.250000 0.250000
#
# Coordination Sequence:
#
# PCOD9511286 Si02
#       6
#    16  16  32  32  16  32
#     4  10  20  35  58  87 110 135 183 240 277 314
#     4  10  21  34  58  80 113 146 178 227 283 327
#     4  11  23  37  54  82 118 150 181 221 278 339
#     4  10  20  34  57  81 106 141 187 230 272 316
#     4  10  18  31  51  84 107 132 172 232 278 317
#     4  10  20  36  59  83 109 143 186 231 272 319
#
# _framework density 17.330570999999999
#
# number of rings (size 3 to 8) (size 9 to 14) (size 15 to 20)
#    0.000    1.778    4.444    1.000    3.111    0.889 
#    0.000    0.556    0.000    4.000    0.000    0.000 
#    0.000    0.000    0.000    0.000    0.000    0.000 
#
# Total GULP energy -200504.881055 kJ/mol
# GULP energy per Si atom -5569.580029 kJ/mol
# Density = 1.729113 g / cm^3
# Si number density = 17.330571 Si / 1000 Ang^3
#
#
#
# Elastic Constant Matrix: (Units=GPa)
#
#
# Indices 1 2 3 4 5 6 
#
# 1 203.0536 47.6997 71.8867 0.0000 0.0000 0.0000
# 2 47.6997 90.5695 5.4154 0.0000 0.0000 0.0000
# 3 71.8867 5.4154 54.7835 0.0000 0.0000 0.0000
# 4 0.0000 0.0000 0.0000 26.3360 0.0000 0.0000
# 5 0.0000 0.0000 0.0000 0.0000 9.2022 0.0000
# 6 0.0000 0.0000 0.0000 0.0000 0.0000 30.8836
#
#
#
# Elastic Compliance Matrix: (Units=1/GPa)
#
#
# Indices 1 2 3 4 5 6 
#
# 1 0.011059 -0.004986 -0.014019 0.000000 0.000000 0.000000
# 2 -0.004986 0.013355 0.005223 0.000000 0.000000 0.000000
# 3 -0.014019 0.005223 0.036133 0.000000 0.000000 0.000000
# 4 0.000000 0.000000 0.000000 0.037971 0.000000 0.000000
# 5 0.000000 0.000000 0.000000 0.000000 0.108670 0.000000
# 6 0.000000 0.000000 0.000000 0.000000 0.000000 0.032380
#
#
# Mechanical properties :
#
#
# Convention : Reuss Voigt Hill
#
# Bulk Modulus (GPa) = 30.31912 66.48999 48.40456
# Shear Modulus (GPa) = 17.97742 28.17801 23.07772
#
# Velocity S-wave (km/s) = 3.22425 4.03664 3.65309
# Velocity P-wave (km/s) = 5.60300 7.75725 6.76641
#
# Compressibility (1/GPa) = 0.03298248
#
# Stress axis : x y z
#
# Youngs Moduli (GPa) = 90.42178 74.87798 27.67542
#
# Poissons Ratio (x) = 0.37336 0.38798
# Poissons Ratio (y) = 0.45087 -0.14454
# Poissons Ratio (z) = 1.26763 -0.39108
#
# Static dielectric constant tensor:
#      x y z
#    x 1.616610 0.000000 0.000000 
#    y 0.000000 2.438860 0.000000 
#    z 0.000000 0.000000 1.550910 
# 
# From -- ./inp_files/15634.got.cif
#   From: 2010.05.17/outbox.cif.g08.bks.cpg/sg69_8_cif.got.tgz:15634.got - 2010.06.03 19:29:58.
