data_PCOD9511095
_publ_section_title
;
Structure prediction by ZEFSAII (Michael W. Deem and Ramdas Pophale) SiO2 
 PCOD9511095
Probable space group: F M M M
;
_chemical_formula_sum "Si O2"
_cell_formula_units_Z 128
_cell_length_a 24.543974
_cell_length_b 31.946274
_cell_length_c 8.273803
_cell_angle_alpha 90.000000
_cell_angle_beta 90.000000
_cell_angle_gamma 90.000000
_cell_volume 6487.393936
_symmetry_space_group_name_H-M "F M M M"
_symmetry_group_IT_number 69
_symmetry_cell_setting 'orthorhombic'
loop_
_space_group_symop_operation_xyz
x,y,z
-x,-y,z
x,-y,-z
-x,y,-z
-x,-y,-z
x,y,-z
-x,y,z
x,-y,z
x,1/2+y,1/2+z
-x,1/2-y,1/2+z
x,1/2-y,1/2-z
-x,1/2+y,1/2-z
-x,1/2-y,1/2-z
x,1/2+y,1/2-z
-x,1/2+y,1/2+z
x,1/2-y,1/2+z
1/2+x,y,1/2+z
1/2-x,-y,1/2+z
1/2+x,-y,1/2-z
1/2-x,y,1/2-z
1/2-x,-y,1/2-z
1/2+x,y,1/2-z
1/2-x,y,1/2+z
1/2+x,-y,1/2+z
1/2+x,1/2+y,z
1/2-x,1/2-y,z
1/2+x,1/2-y,-z
1/2-x,1/2+y,-z
1/2-x,1/2-y,-z
1/2+x,1/2+y,-z
1/2-x,1/2+y,z
1/2+x,1/2-y,z
loop_
_atom_site_type_symbol
_atom_site_label
_atom_site_fract_x
_atom_site_fract_y
_atom_site_fract_z
Si Si1 0.500000 0.676126 0.194724
Si Si2 0.882538 0.046693 0.697369
Si Si3 0.000000 0.919927 0.304466
Si Si4 0.617795 0.204631 0.306824
Si Si5 0.187971 0.374280 0.806606
O O1 0.500000 0.627516 0.242804
O O2 0.444043 0.696818 0.255159
O O3 0.500000 0.678944 0.000000
O O4 0.881791 0.046856 0.500000
O O5 0.944473 0.057345 0.746690
O O6 0.843174 0.083940 0.752960
O O7 0.867057 0.000000 0.750528
O O8 0.000000 0.918868 0.500000
O O9 0.616583 0.204104 0.500000
O O10 0.637187 0.250000 0.250000
O O11 0.655369 0.166644 0.249624
O O12 0.250000 0.373406 0.750000
O O13 0.186800 0.375005 0.000000
#
# Coordination Sequence:
#
# PCOD9511095 Si02
#       5
#    16  32  16  32  32
#     4  10  21  36  58  88 124 155 184 232 292 349
#     4   9  18  33  57  89 120 152 193 240 289 343
#     4  10  17  31  59  89 117 153 194 236 284 347
#     4  11  23  40  62  89 120 154 192 237 290 349
#     4  11  23  40  61  85 116 155 200 247 293 343
#
# _framework density 19.730571999999999
#
# number of rings (size 3 to 8) (size 9 to 14) (size 15 to 20)
#    0.000    1.750    2.500    2.250    0.000    3.500 
#    0.000    2.500    0.000    6.750    0.000    0.000 
#    0.000    0.000    0.000    0.000    0.000    0.000 
#
# Total GULP energy -178795.563947 kJ/mol
# GULP energy per Si atom -5587.361373 kJ/mol
# Density = 1.968566 g / cm^3
# Si number density = 19.730572 Si / 1000 Ang^3
#
#
#
# Elastic Constant Matrix: (Units=GPa)
#
#
# Indices 1 2 3 4 5 6 
#
# 1 163.2922 97.3034 22.9706 0.0063 -0.0054 -0.0034
# 2 97.3034 207.7243 19.2092 0.0043 -0.0099 -0.0021
# 3 22.9706 19.2092 26.8082 0.0138 -0.0213 0.0031
# 4 0.0063 0.0043 0.0138 23.2064 -0.0101 -0.0031
# 5 -0.0054 -0.0099 -0.0213 -0.0101 2.9191 -0.0105
# 6 -0.0034 -0.0021 0.0031 -0.0031 -0.0105 -0.1795
#
#
#
# Elastic Compliance Matrix: (Units=1/GPa)
#
#
# Indices 1 2 3 4 5 6 
#
# 1 0.009098 -0.003792 -0.005078 0.000001 -0.000034 -0.000214
# 2 -0.003792 0.006736 -0.001578 0.000001 0.000004 -0.000033
# 3 -0.005078 -0.001578 0.042784 -0.000024 0.000301 0.000826
# 4 0.000001 0.000001 -0.000024 0.043092 0.000146 -0.000741
# 5 -0.000034 0.000004 0.000301 0.000146 0.342499 -0.019963
# 6 -0.000214 -0.000033 0.000826 -0.000741 -0.019963 -5.569349
#
#
# Mechanical properties :
#
#
# Convention : Reuss Voigt Hill
#
# Bulk Modulus (GPa) = 26.50968 75.19900 50.85434
# Shear Modulus (GPa) = -0.98200 22.41197 10.71499
#
# Velocity S-wave (km/s) = -0.70625 3.37397 2.33290
# Velocity P-wave (km/s) = 3.57770 7.30574 5.75212
#
# Compressibility (1/GPa) = 0.03772208
#
# Stress axis : x y z
#
# Youngs Moduli (GPa) = 109.91358 148.44957 23.37326
#
# Poissons Ratio (x) = 0.56294 0.11870
# Poissons Ratio (y) = 0.41681 0.03687
# Poissons Ratio (z) = 0.55819 0.23419
#
# Static dielectric constant tensor:
#      x y z
#    x 1.684690 0.000000 0.000000 
#    y 0.000000 1.675160 0.000000 
#    z 0.000000 0.000000 1.677800 
# 
# From -- ./inp_files/4821.got.cif
#   From: 2010.05.17/outbox.cif.g08.bks.cpg/sg69_3_cif.got.tgz:4821.got - 2010.06.03 19:29:58.
