data_PCOD9511181
_publ_section_title
;
Structure prediction by ZEFSAII (Michael W. Deem and Ramdas Pophale) SiO2 
 PCOD9511181
Probable space group: F M M M
;
_chemical_formula_sum "Si O2"
_cell_formula_units_Z 208
_cell_length_a 29.606786
_cell_length_b 19.290142
_cell_length_c 20.060606
_cell_angle_alpha 90.000000
_cell_angle_beta 90.000000
_cell_angle_gamma 90.000000
_cell_volume 11456.995367
_symmetry_space_group_name_H-M "F M M M"
_symmetry_group_IT_number 69
_symmetry_cell_setting 'orthorhombic'
loop_
_space_group_symop_operation_xyz
x,y,z
-x,-y,z
x,-y,-z
-x,y,-z
-x,-y,-z
x,y,-z
-x,y,z
x,-y,z
x,1/2+y,1/2+z
-x,1/2-y,1/2+z
x,1/2-y,1/2-z
-x,1/2+y,1/2-z
-x,1/2-y,1/2-z
x,1/2+y,1/2-z
-x,1/2+y,1/2+z
x,1/2-y,1/2+z
1/2+x,y,1/2+z
1/2-x,-y,1/2+z
1/2+x,-y,1/2-z
1/2-x,y,1/2-z
1/2-x,-y,1/2-z
1/2+x,y,1/2-z
1/2-x,y,1/2+z
1/2+x,-y,1/2+z
1/2+x,1/2+y,z
1/2-x,1/2-y,z
1/2+x,1/2-y,-z
1/2-x,1/2+y,-z
1/2-x,1/2-y,-z
1/2+x,1/2+y,-z
1/2-x,1/2+y,z
1/2+x,1/2-y,z
loop_
_atom_site_type_symbol
_atom_site_label
_atom_site_fract_x
_atom_site_fract_y
_atom_site_fract_z
Si Si1 0.945803 0.581756 0.000000
Si Si2 0.104810 0.653986 0.123335
Si Si3 0.876939 0.696835 0.577198
Si Si4 0.948130 0.079880 0.732366
Si Si5 0.695534 0.580647 0.580720
Si Si6 0.551931 0.580116 0.107305
Si Si7 0.274721 0.178868 0.580859
O O1 0.925282 0.618706 0.934912
O O2 0.933179 0.500000 0.000000
O O3 0.000000 0.586585 0.000000
O O4 0.104916 0.736450 0.115869
O O5 0.085170 0.629404 0.193392
O O6 0.155086 0.625041 0.111529
O O7 0.872159 0.719378 0.500000
O O8 0.911543 0.633370 0.580278
O O9 0.826830 0.676763 0.602056
O O10 0.945396 0.083892 0.812144
O O11 0.000000 0.095230 0.713349
O O12 0.938835 0.000000 0.712912
O O13 0.691401 0.585714 0.500000
O O14 0.692147 0.500000 0.598671
O O15 0.743224 0.614639 0.600595
O O16 0.500000 0.596868 0.088307
O O17 0.560446 0.500000 0.088073
O O18 0.275182 0.179060 0.500000
O O19 0.250000 0.250000 0.601808
#
# Coordination Sequence:
#
# PCOD9511181 Si02
#       7
#    16  32  32  32  32  32  32
#     4  11  22  32  44  71 115 155 179 212 263 322
#     4  12  20  32  51  81 115 146 179 221 270 330
#     4  11  22  36  56  84 115 146 177 225 286 336
#     4   9  19  37  58  78 105 146 192 231 267 317
#     4  10  18  29  49  77 108 143 183 222 265 324
#     4   9  21  42  62  79 104 143 193 242 282 323
#     4   9  17  32  51  72 107 145 177 219 269 322
#
# _framework density 18.154848000000001
#
# number of rings (size 3 to 8) (size 9 to 14) (size 15 to 20)
#    0.000    1.923    3.077    2.769    0.000    4.308 
#    0.000    3.846    0.000    0.923    0.000    3.231 
#    0.000    0.000    0.000    0.000    0.000    0.000 
#
# Total GULP energy -290269.150556 kJ/mol
# GULP energy per Si atom -5582.099049 kJ/mol
# Density = 1.811353 g / cm^3
# Si number density = 18.154848 Si / 1000 Ang^3
#
#
#
# Elastic Constant Matrix: (Units=GPa)
#
#
# Indices 1 2 3 4 5 6 
#
# 1 107.3504 57.7348 11.8752 0.0000 0.0000 0.0000
# 2 57.7348 91.9597 6.4991 0.0000 0.0000 0.0000
# 3 11.8752 6.4991 22.5186 0.0000 0.0000 0.0000
# 4 0.0000 0.0000 0.0000 23.3987 0.0000 0.0000
# 5 0.0000 0.0000 0.0000 0.0000 8.2445 0.0000
# 6 0.0000 0.0000 0.0000 0.0000 0.0000 34.1169
#
#
#
# Elastic Compliance Matrix: (Units=1/GPa)
#
#
# Indices 1 2 3 4 5 6 
#
# 1 0.014631 -0.008820 -0.005170 0.000000 0.000000 0.000000
# 2 -0.008820 0.016418 -0.000087 0.000000 0.000000 0.000000
# 3 -0.005170 -0.000087 0.047159 0.000000 0.000000 0.000000
# 4 0.000000 0.000000 0.000000 0.042737 0.000000 0.000000
# 5 0.000000 0.000000 0.000000 0.000000 0.121293 0.000000
# 6 0.000000 0.000000 0.000000 0.000000 0.000000 0.029311
#
#
# Mechanical properties :
#
#
# Convention : Reuss Voigt Hill
#
# Bulk Modulus (GPa) = 19.97859 41.56077 30.76968
# Shear Modulus (GPa) = 15.80332 22.86665 19.33499
#
# Velocity S-wave (km/s) = 2.95358 3.55284 3.26698
# Velocity P-wave (km/s) = 4.76025 6.30653 5.58714
#
# Compressibility (1/GPa) = 0.05005359
#
# Stress axis : x y z
#
# Youngs Moduli (GPa) = 68.34851 60.90836 21.20475
#
# Poissons Ratio (x) = 0.53723 0.10963
# Poissons Ratio (y) = 0.60285 0.00185
# Poissons Ratio (z) = 0.35336 0.00530
#
# Static dielectric constant tensor:
#      x y z
#    x 1.618590 0.000000 0.000000 
#    y 0.000000 1.610010 0.000000 
#    z 0.000000 0.000000 1.623650 
# 
# From -- ./inp_files/34026.got.cif
#   From: 2010.05.17/outbox.cif.g08.bks.cpg/sg69_18_cif.got.tgz:34026.got - 2010.06.03 19:29:58.
