data_PCOD9511312
_publ_section_title
;
Structure prediction by ZEFSAII (Michael W. Deem and Ramdas Pophale) SiO2 
 PCOD9511312
Probable space group: F M M M
;
_chemical_formula_sum "Si O2"
_cell_formula_units_Z 160
_cell_length_a 19.127503
_cell_length_b 17.253215
_cell_length_c 24.986399
_cell_angle_alpha 90.000000
_cell_angle_beta 90.000000
_cell_angle_gamma 90.000000
_cell_volume 8245.784563
_symmetry_space_group_name_H-M "F M M M"
_symmetry_group_IT_number 69
_symmetry_cell_setting 'orthorhombic'
loop_
_space_group_symop_operation_xyz
x,y,z
-x,-y,z
x,-y,-z
-x,y,-z
-x,-y,-z
x,y,-z
-x,y,z
x,-y,z
x,1/2+y,1/2+z
-x,1/2-y,1/2+z
x,1/2-y,1/2-z
-x,1/2+y,1/2-z
-x,1/2-y,1/2-z
x,1/2+y,1/2-z
-x,1/2+y,1/2+z
x,1/2-y,1/2+z
1/2+x,y,1/2+z
1/2-x,-y,1/2+z
1/2+x,-y,1/2-z
1/2-x,y,1/2-z
1/2-x,-y,1/2-z
1/2+x,y,1/2-z
1/2-x,y,1/2+z
1/2+x,-y,1/2+z
1/2+x,1/2+y,z
1/2-x,1/2-y,z
1/2+x,1/2-y,-z
1/2-x,1/2+y,-z
1/2-x,1/2-y,-z
1/2+x,1/2+y,-z
1/2-x,1/2+y,z
1/2+x,1/2-y,z
loop_
_atom_site_type_symbol
_atom_site_label
_atom_site_fract_x
_atom_site_fract_y
_atom_site_fract_z
Si Si1 0.335896 0.330446 0.600904
Si Si2 0.921445 0.328591 0.000000
Si Si3 0.318002 0.589755 0.783333
Si Si4 0.417012 0.826766 0.786776
Si Si5 0.417990 0.638755 0.000000
Si Si6 0.319984 0.146648 0.598101
O O1 0.384792 0.357245 0.553335
O O2 0.373884 0.331085 0.658099
O O3 0.323136 0.239113 0.591219
O O4 0.262101 0.373945 0.594756
O O5 0.920411 0.233480 0.000000
O O6 0.000000 0.353952 0.000000
O O7 0.303027 0.500000 0.793346
O O8 0.250000 0.621744 0.750000
O O9 0.385903 0.602882 0.747340
O O10 0.335440 0.627832 0.840254
O O11 0.500000 0.829089 0.796354
O O12 0.402424 0.750000 0.750000
O O13 0.373234 0.614899 0.052980
O O14 0.500000 0.613486 0.000000
#
# Coordination Sequence:
#
# PCOD9511312 Si02
#       6
#    32  16  32  32  16  32
#     4  10  18  31  54  82 111 144 187 230 281 340
#     4   9  17  29  47  77 116 144 172 224 287 340
#     4  11  23  39  58  81 113 153 194 237 289 343
#     4  11  22  35  56  85 115 146 187 237 291 342
#     4   9  19  33  52  82 116 148 186 233 287 345
#     4  10  19  33  56  80 110 148 188 234 281 334
#
# _framework density 19.403853000000002
#
# number of rings (size 3 to 8) (size 9 to 14) (size 15 to 20)
#    0.000    1.800    4.000    1.200    0.000    4.800 
#    0.000    0.500    0.000    0.600    0.000    0.700 
#    0.000    3.200    0.000    0.000    0.000    0.000 
#
# Total GULP energy -222762.029658 kJ/mol
# GULP energy per Si atom -5569.050741 kJ/mol
# Density = 1.935969 g / cm^3
# Si number density = 19.403853 Si / 1000 Ang^3
#
#
#
# Elastic Constant Matrix: (Units=GPa)
#
#
# Indices 1 2 3 4 5 6 
#
# 1 164.3231 2.7134 103.9194 0.0000 0.0000 0.0000
# 2 2.7134 1.9703 0.4504 0.0000 0.0000 0.0000
# 3 103.9194 0.4504 169.8721 0.0000 0.0000 0.0000
# 4 0.0000 0.0000 0.0000 -22.6651 0.0000 0.0000
# 5 0.0000 0.0000 0.0000 0.0000 4.5247 0.0000
# 6 0.0000 0.0000 0.0000 0.0000 0.0000 11.0621
#
#
#
# Elastic Compliance Matrix: (Units=1/GPa)
#
#
# Indices 1 2 3 4 5 6 
#
# 1 0.010232 -0.012668 -0.006226 0.000000 0.000000 0.000000
# 2 -0.012668 0.523539 0.006362 0.000000 0.000000 0.000000
# 3 -0.006226 0.006362 0.009679 0.000000 0.000000 0.000000
# 4 0.000000 0.000000 0.000000 -0.044121 0.000000 0.000000
# 5 0.000000 0.000000 0.000000 0.000000 0.221010 0.000000
# 6 0.000000 0.000000 0.000000 0.000000 0.000000 0.090399
#
#
# Mechanical properties :
#
#
# Convention : Reuss Voigt Hill
#
# Bulk Modulus (GPa) = 1.92907 61.14798 31.53852
# Shear Modulus (GPa) = 4.95737 13.85648 9.40692
#
# Velocity S-wave (km/s) = 1.60012 2.67518 2.20420
# Velocity P-wave (km/s) = 2.10004 6.41279 4.77148
#
# Compressibility (1/GPa) = 0.51838541
#
# Stress axis : x y z
#
# Youngs Moduli (GPa) = 97.73196 1.91008 103.32060
#
# Poissons Ratio (x) = 0.02420 0.64326
# Poissons Ratio (y) = 1.23808 -0.65729
# Poissons Ratio (z) = 0.60847 -0.01215
#
# Static dielectric constant tensor:
#      x y z
#    x 1.736950 0.000000 0.000000 
#    y 0.000000 1.677030 0.000000 
#    z 0.000000 0.000000 1.517710 
# 
# From -- ./inp_files/25839.got.cif
#   From: 2010.05.17/outbox.cif.g08.bks.cpg/sg69_13_cif.got.tgz:25839.got - 2010.06.03 19:29:58.
