data_PCOD9511994
_publ_section_title
;
Structure prediction by ZEFSAII (Michael W. Deem and Ramdas Pophale) SiO2 
 PCOD9511994
Probable space group: F M M M
;
_chemical_formula_sum "Si O2"
_cell_formula_units_Z 96
_cell_length_a 14.945824
_cell_length_b 10.558505
_cell_length_c 27.936051
_cell_angle_alpha 90.000000
_cell_angle_beta 90.000000
_cell_angle_gamma 90.000000
_cell_volume 4408.464101
_symmetry_space_group_name_H-M "F M M M"
_symmetry_group_IT_number 69
_symmetry_cell_setting 'orthorhombic'
loop_
_space_group_symop_operation_xyz
x,y,z
-x,-y,z
x,-y,-z
-x,y,-z
-x,-y,-z
x,y,-z
-x,y,z
x,-y,z
x,1/2+y,1/2+z
-x,1/2-y,1/2+z
x,1/2-y,1/2-z
-x,1/2+y,1/2-z
-x,1/2-y,1/2-z
x,1/2+y,1/2-z
-x,1/2+y,1/2+z
x,1/2-y,1/2+z
1/2+x,y,1/2+z
1/2-x,-y,1/2+z
1/2+x,-y,1/2-z
1/2-x,y,1/2-z
1/2-x,-y,1/2-z
1/2+x,y,1/2-z
1/2-x,y,1/2+z
1/2+x,-y,1/2+z
1/2+x,1/2+y,z
1/2-x,1/2-y,z
1/2+x,1/2-y,-z
1/2-x,1/2+y,-z
1/2-x,1/2-y,-z
1/2+x,1/2+y,-z
1/2-x,1/2+y,z
1/2+x,1/2-y,z
loop_
_atom_site_type_symbol
_atom_site_label
_atom_site_fract_x
_atom_site_fract_y
_atom_site_fract_z
Si Si1 0.168264 0.000000 0.211584
Si Si2 0.609091 0.734522 0.150767
Si Si3 0.597768 0.500000 0.692084
Si Si4 0.108780 0.354446 0.945996
O O1 0.250000 0.000000 0.250000
O O2 0.156635 0.878807 0.178079
O O3 0.090854 0.000000 0.251165
O O4 0.500000 0.718274 0.154714
O O5 0.633630 0.755718 0.095235
O O6 0.636457 0.866906 0.175510
O O7 0.500000 0.500000 0.668316
O O8 0.136356 0.500000 0.934505
O O9 0.000000 0.355980 0.946428
O O10 0.138468 0.324306 0.000000
#
# Coordination Sequence:
#
# PCOD9511994 Si02
#       4
#    16  32  16  32
#     4  12  26  38  49  73 113 163 202 243 292 342
#     4  10  19  35  58  85 115 149 191 240 293 347
#     4  10  20  36  59  83 105 142 196 245 292 348
#     4   8  13  25  51  88 121 144 176 230 293 354
#
# _framework density 21.776291000000001
#
# number of rings (size 3 to 8) (size 9 to 14) (size 15 to 20)
#    0.000    2.333    1.667    3.500    0.000    5.333 
#    0.000    0.833    0.000    4.000    0.000    7.000 
#    0.000    0.000    0.000    0.000    0.000    2.667 
#
# Total GULP energy -133880.816678 kJ/mol
# GULP energy per Si atom -5578.367362 kJ/mol
# Density = 2.172673 g / cm^3
# Si number density = 21.776291 Si / 1000 Ang^3
#
#
#
# Elastic Constant Matrix: (Units=GPa)
#
#
# Indices 1 2 3 4 5 6 
#
# 1 93.4746 34.4640 32.7882 0.0000 0.0000 0.0000
# 2 34.4640 194.0933 117.2867 0.0000 0.0000 0.0000
# 3 32.7882 117.2867 211.6394 0.0000 0.0000 0.0000
# 4 0.0000 0.0000 0.0000 59.8056 0.0000 0.0000
# 5 0.0000 0.0000 0.0000 0.0000 6.3463 0.0000
# 6 0.0000 0.0000 0.0000 0.0000 0.0000 -1.0528
#
#
#
# Elastic Compliance Matrix: (Units=1/GPa)
#
#
# Indices 1 2 3 4 5 6 
#
# 1 0.011582 -0.001462 -0.000984 0.000000 0.000000 0.000000
# 2 -0.001462 0.007931 -0.004169 0.000000 0.000000 0.000000
# 3 -0.000984 -0.004169 0.007188 0.000000 0.000000 0.000000
# 4 0.000000 0.000000 0.000000 0.016721 0.000000 0.000000
# 5 0.000000 0.000000 0.000000 0.000000 0.157572 0.000000
# 6 0.000000 0.000000 0.000000 0.000000 0.000000 -0.949876
#
#
# Mechanical properties :
#
#
# Convention : Reuss Voigt Hill
#
# Bulk Modulus (GPa) = 74.23170 96.47612 85.35391
# Shear Modulus (GPa) = -6.83842 33.99772 13.57965
#
# Velocity S-wave (km/s) = -1.77401 3.95552 2.49990
# Velocity P-wave (km/s) = 5.47413 8.07843 6.90026
#
# Compressibility (1/GPa) = 0.01347133
#
# Stress axis : x y z
#
# Youngs Moduli (GPa) = 86.33843 126.09186 139.12729
#
# Poissons Ratio (x) = 0.18433 0.13694
# Poissons Ratio (y) = 0.12621 0.57996
# Poissons Ratio (z) = 0.08498 0.52563
#
# Static dielectric constant tensor:
#      x y z
#    x 2.022140 0.000000 0.000000 
#    y 0.000000 1.758190 0.000000 
#    z 0.000000 0.000000 1.804380 
# 
# From -- ./inp_files/33097.got.cif
#   From: 2010.05.17/outbox.cif.g08.bks.cpg/sg69_17_cif.got.tgz:33097.got - 2010.06.03 19:29:58.
