data_PCOD9511127
_publ_section_title
;
Structure prediction by ZEFSAII (Michael W. Deem and Ramdas Pophale) SiO2 
 PCOD9511127
Probable space group: F M M M
;
_chemical_formula_sum "Si O2"
_cell_formula_units_Z 192
_cell_length_a 32.632168
_cell_length_b 25.481084
_cell_length_c 14.665609
_cell_angle_alpha 90.000000
_cell_angle_beta 90.000000
_cell_angle_gamma 90.000000
_cell_volume 12194.498084
_symmetry_space_group_name_H-M "F M M M"
_symmetry_group_IT_number 69
_symmetry_cell_setting 'orthorhombic'
loop_
_space_group_symop_operation_xyz
x,y,z
-x,-y,z
x,-y,-z
-x,y,-z
-x,-y,-z
x,y,-z
-x,y,z
x,-y,z
x,1/2+y,1/2+z
-x,1/2-y,1/2+z
x,1/2-y,1/2-z
-x,1/2+y,1/2-z
-x,1/2-y,1/2-z
x,1/2+y,1/2-z
-x,1/2+y,1/2+z
x,1/2-y,1/2+z
1/2+x,y,1/2+z
1/2-x,-y,1/2+z
1/2+x,-y,1/2-z
1/2-x,y,1/2-z
1/2-x,-y,1/2-z
1/2+x,y,1/2-z
1/2-x,y,1/2+z
1/2+x,-y,1/2+z
1/2+x,1/2+y,z
1/2-x,1/2-y,z
1/2+x,1/2-y,-z
1/2-x,1/2+y,-z
1/2-x,1/2-y,-z
1/2+x,1/2+y,-z
1/2-x,1/2+y,z
1/2+x,1/2-y,z
loop_
_atom_site_type_symbol
_atom_site_label
_atom_site_fract_x
_atom_site_fract_y
_atom_site_fract_z
Si Si1 0.000000 0.100604 0.890302
Si Si2 0.591713 0.940055 0.609168
Si Si3 0.143912 0.651789 0.699506
Si Si4 0.410531 0.266485 0.899963
Si Si5 0.792442 0.225324 0.106073
Si Si6 0.354263 0.824343 0.899126
Si Si7 0.000000 0.284191 0.340927
O O1 0.956613 0.072061 0.872295
O O2 0.000000 0.153183 0.830703
O O3 0.000000 0.113202 0.000000
O O4 0.596253 0.935518 0.500000
O O5 0.623007 0.898860 0.654202
O O6 0.600347 0.000000 0.636201
O O7 0.111195 0.698322 0.676534
O O8 0.185708 0.677126 0.658002
O O9 0.149888 0.643187 0.807177
O O10 0.397448 0.206173 0.894587
O O11 0.458554 0.271843 0.893336
O O12 0.396024 0.286345 0.000000
O O13 0.750000 0.250000 0.141372
O O14 0.823263 0.274865 0.107654
O O15 0.786181 0.210037 0.000000
O O16 0.349145 0.848377 0.000000
O O17 0.000000 0.250000 0.250000
#
# Coordination Sequence:
#
# PCOD9511127 Si02
#       7
#    16  32  32  32  32  32  16
#     4  10  19  32  48  67  96 131 162 199 243 291
#     4  10  20  33  50  72  95 122 162 208 252 294
#     4  11  18  29  48  67  94 127 157 194 243 286
#     4  10  18  28  41  62  91 124 157 190 230 283
#     4   9  17  29  47  74 104 131 157 186 229 291
#     4   9  19  31  43  63  94 126 159 195 230 279
#     4  12  20  25  39  64  95 131 165 181 219 282
#
# _framework density 15.744804999999999
#
# number of rings (size 3 to 8) (size 9 to 14) (size 15 to 20)
#    0.000    2.000    1.667    6.500    0.000    2.333 
#    0.000    0.000    0.000    0.500    0.000    2.333 
#    0.000    5.333    0.000    0.000    0.000    0.000 
#
# Total GULP energy -267258.019786 kJ/mol
# GULP energy per Si atom -5567.875412 kJ/mol
# Density = 1.570897 g / cm^3
# Si number density = 15.744805 Si / 1000 Ang^3
#
#
#
# Elastic Constant Matrix: (Units=GPa)
#
#
# Indices 1 2 3 4 5 6 
#
# 1 91.1825 33.9257 23.5469 0.0000 0.0000 0.0000
# 2 33.9257 76.9460 37.5283 0.0000 0.0000 0.0000
# 3 23.5469 37.5283 103.3176 0.0000 0.0000 0.0000
# 4 0.0000 0.0000 0.0000 17.2917 0.0000 0.0000
# 5 0.0000 0.0000 0.0000 0.0000 7.2932 0.0000
# 6 0.0000 0.0000 0.0000 0.0000 0.0000 3.7238
#
#
#
# Elastic Compliance Matrix: (Units=1/GPa)
#
#
# Indices 1 2 3 4 5 6 
#
# 1 0.013219 -0.005297 -0.001089 0.000000 0.000000 0.000000
# 2 -0.005297 0.017917 -0.005301 0.000000 0.000000 0.000000
# 3 -0.001089 -0.005301 0.011852 0.000000 0.000000 0.000000
# 4 0.000000 0.000000 0.000000 0.057831 0.000000 0.000000
# 5 0.000000 0.000000 0.000000 0.000000 0.137114 0.000000
# 6 0.000000 0.000000 0.000000 0.000000 0.000000 0.268542
#
#
# Mechanical properties :
#
#
# Convention : Reuss Voigt Hill
#
# Bulk Modulus (GPa) = 50.98102 51.27198 51.12650
# Shear Modulus (GPa) = 9.32161 17.42475 13.37318
#
# Velocity S-wave (km/s) = 2.43583 3.33032 2.91756
# Velocity P-wave (km/s) = 6.35303 6.88644 6.62510
#
# Compressibility (1/GPa) = 0.01961514
#
# Stress axis : x y z
#
# Youngs Moduli (GPa) = 75.64812 55.81272 84.37122
#
# Poissons Ratio (x) = 0.29566 0.09184
# Poissons Ratio (y) = 0.40074 0.44723
# Poissons Ratio (z) = 0.08235 0.29585
#
# Static dielectric constant tensor:
#      x y z
#    x 1.577880 0.000000 0.000000 
#    y 0.000000 1.499710 0.000000 
#    z 0.000000 0.000000 1.590780 
# 
# From -- ./inp_files/19936.got.cif
#   From: 2010.05.17/outbox.cif.g08.bks.cpg/sg69_10_cif.got.tgz:19936.got - 2010.06.03 19:29:58.
