data_PCOD9511759
_publ_section_title
;
Structure prediction by ZEFSAII (Michael W. Deem and Ramdas Pophale) SiO2 
 PCOD9511759
Probable space group: F M M M
;
_chemical_formula_sum "Si O2"
_cell_formula_units_Z 144
_cell_length_a 7.972509
_cell_length_b 29.653929
_cell_length_c 32.330946
_cell_angle_alpha 90.000000
_cell_angle_beta 90.000000
_cell_angle_gamma 90.000000
_cell_volume 7643.559908
_symmetry_space_group_name_H-M "F M M M"
_symmetry_group_IT_number 69
_symmetry_cell_setting 'orthorhombic'
loop_
_space_group_symop_operation_xyz
x,y,z
-x,-y,z
x,-y,-z
-x,y,-z
-x,-y,-z
x,y,-z
-x,y,z
x,-y,z
x,1/2+y,1/2+z
-x,1/2-y,1/2+z
x,1/2-y,1/2-z
-x,1/2+y,1/2-z
-x,1/2-y,1/2-z
x,1/2+y,1/2-z
-x,1/2+y,1/2+z
x,1/2-y,1/2+z
1/2+x,y,1/2+z
1/2-x,-y,1/2+z
1/2+x,-y,1/2-z
1/2-x,y,1/2-z
1/2-x,-y,1/2-z
1/2+x,y,1/2-z
1/2-x,y,1/2+z
1/2+x,-y,1/2+z
1/2+x,1/2+y,z
1/2-x,1/2-y,z
1/2+x,1/2-y,-z
1/2-x,1/2+y,-z
1/2-x,1/2-y,-z
1/2+x,1/2+y,-z
1/2-x,1/2+y,z
1/2+x,1/2-y,z
loop_
_atom_site_type_symbol
_atom_site_label
_atom_site_fract_x
_atom_site_fract_y
_atom_site_fract_z
Si Si1 0.800579 0.801931 0.796467
Si Si2 0.206456 0.141432 0.125583
Si Si3 0.192808 0.445269 0.000000
Si Si4 0.698869 0.949301 0.409573
Si Si5 0.702153 0.302417 0.954278
O O1 0.750000 0.814922 0.750000
O O2 0.750000 0.750000 0.803408
O O3 0.734884 0.833816 0.832947
O O4 0.000000 0.803502 0.798264
O O5 0.263573 0.089852 0.120207
O O6 0.261612 0.169068 0.084914
O O7 0.000000 0.141484 0.125639
O O8 0.276366 0.432398 0.043202
O O9 0.199604 0.500000 0.000000
O O10 0.000000 0.431186 0.000000
O O11 0.500000 0.952832 0.403018
O O12 0.770830 0.000000 0.405437
O O13 0.500000 0.305340 0.954606
O O14 0.750000 0.250000 0.949351
O O15 0.762648 0.317372 0.000000
#
# Coordination Sequence:
#
# PCOD9511759 Si02
#       5
#    32  32  16  32  32
#     4  10  19  33  52  74  99 124 154 194 241 288
#     4   9  18  30  48  72  94 121 156 196 238 278
#     4   9  17  29  43  63  94 127 158 197 242 277
#     4   9  17  30  49  70  91 122 164 202 234 276
#     4   9  17  29  44  62  89 123 152 184 224 271
#
# _framework density 18.839390000000002
#
# number of rings (size 3 to 8) (size 9 to 14) (size 15 to 20)
#    0.000    2.778    0.000    2.333    1.556    1.333 
#    0.000    4.444    0.000    0.667    0.000    0.000 
#    0.000    0.000    0.000    0.000    0.000    0.889 
#
# Total GULP energy -200744.249008 kJ/mol
# GULP energy per Si atom -5576.229139 kJ/mol
# Density = 1.879651 g / cm^3
# Si number density = 18.839390 Si / 1000 Ang^3
#
#
#
# Elastic Constant Matrix: (Units=GPa)
#
#
# Indices 1 2 3 4 5 6 
#
# 1 17.7796 3.6380 8.9157 0.0000 0.0000 0.0000
# 2 3.6380 113.2184 106.8309 0.0000 0.0000 0.0000
# 3 8.9157 106.8309 155.2826 0.0000 0.0000 0.0000
# 4 0.0000 0.0000 0.0000 0.4388 0.0000 0.0000
# 5 0.0000 0.0000 0.0000 0.0000 -22.7206 0.0000
# 6 0.0000 0.0000 0.0000 0.0000 0.0000 9.5489
#
#
#
# Elastic Compliance Matrix: (Units=1/GPa)
#
#
# Indices 1 2 3 4 5 6 
#
# 1 0.058442 0.003672 -0.005882 0.000000 0.000000 0.000000
# 2 0.003672 0.025406 -0.017690 0.000000 0.000000 0.000000
# 3 -0.005882 -0.017690 0.018948 0.000000 0.000000 0.000000
# 4 0.000000 0.000000 0.000000 2.279159 0.000000 0.000000
# 5 0.000000 0.000000 0.000000 0.000000 -0.044013 0.000000
# 6 0.000000 0.000000 0.000000 0.000000 0.000000 0.104724
#
#
# Mechanical properties :
#
#
# Convention : Reuss Voigt Hill
#
# Bulk Modulus (GPa) = 15.87371 58.33888 37.10630
# Shear Modulus (GPa) = 1.99723 8.57982 5.28852
#
# Velocity S-wave (km/s) = 1.03075 2.13637 1.67728
# Velocity P-wave (km/s) = 3.14017 6.09254 4.84664
#
# Compressibility (1/GPa) = 0.06299723
#
# Stress axis : x y z
#
# Youngs Moduli (GPa) = 17.11091 39.36040 52.77672
#
# Poissons Ratio (x) = -0.14454 0.31043
# Poissons Ratio (y) = -0.06283 0.93361
# Poissons Ratio (z) = 0.10064 0.69628
#
# Static dielectric constant tensor:
#      x y z
#    x 1.671090 0.000000 0.000000 
#    y 0.000000 1.688290 0.000000 
#    z 0.000000 0.000000 1.659180 
# 
# From -- ./inp_files/5629.got.cif
#   From: 2010.05.17/outbox.cif.g08.bks.cpg/sg69_3_cif.got.tgz:5629.got - 2010.06.03 19:29:58.
