data_PCOD9511175
_publ_section_title
;
Structure prediction by ZEFSAII (Michael W. Deem and Ramdas Pophale) SiO2 
 PCOD9511175
Probable space group: F M M M
;
_chemical_formula_sum "Si O2"
_cell_formula_units_Z 176
_cell_length_a 29.262750
_cell_length_b 19.182414
_cell_length_c 14.344772
_cell_angle_alpha 90.000000
_cell_angle_beta 90.000000
_cell_angle_gamma 90.000000
_cell_volume 8052.153525
_symmetry_space_group_name_H-M "F M M M"
_symmetry_group_IT_number 69
_symmetry_cell_setting 'orthorhombic'
loop_
_space_group_symop_operation_xyz
x,y,z
-x,-y,z
x,-y,-z
-x,y,-z
-x,-y,-z
x,y,-z
-x,y,z
x,-y,z
x,1/2+y,1/2+z
-x,1/2-y,1/2+z
x,1/2-y,1/2-z
-x,1/2+y,1/2-z
-x,1/2-y,1/2-z
x,1/2+y,1/2-z
-x,1/2+y,1/2+z
x,1/2-y,1/2+z
1/2+x,y,1/2+z
1/2-x,-y,1/2+z
1/2+x,-y,1/2-z
1/2-x,y,1/2-z
1/2-x,-y,1/2-z
1/2+x,y,1/2-z
1/2-x,y,1/2+z
1/2+x,-y,1/2+z
1/2+x,1/2+y,z
1/2-x,1/2-y,z
1/2+x,1/2-y,-z
1/2-x,1/2+y,-z
1/2-x,1/2-y,-z
1/2+x,1/2+y,-z
1/2-x,1/2+y,z
1/2+x,1/2-y,z
loop_
_atom_site_type_symbol
_atom_site_label
_atom_site_fract_x
_atom_site_fract_y
_atom_site_fract_z
Si Si1 0.553713 0.848452 0.886223
Si Si2 0.944258 0.500000 0.889853
Si Si3 0.150629 0.921176 0.885837
Si Si4 0.742790 0.422297 0.612433
Si Si5 0.891554 0.782253 0.104558
Si Si6 0.796897 0.219920 0.353458
O O1 0.500000 0.844265 0.865763
O O2 0.578207 0.778751 0.851338
O O3 0.571213 0.924508 0.852679
O O4 0.558604 0.849125 0.000000
O O5 0.000000 0.500000 0.884329
O O6 0.932918 0.500000 0.000000
O O7 0.204099 0.909079 0.861814
O O8 0.118754 0.857954 0.851919
O O9 0.138204 0.000000 0.857587
O O10 0.149299 0.919242 0.000000
O O11 0.740931 0.420832 0.500000
O O12 0.730314 0.500000 0.643438
O O13 0.709768 0.362515 0.647928
O O14 0.841797 0.746790 0.097584
O O15 0.910069 0.795041 0.000000
O O16 0.799829 0.250000 0.250000
O O17 0.750000 0.250000 0.395454
#
# Coordination Sequence:
#
# PCOD9511175 Si02
#       6
#    32  16  32  32  32  32
#     4   8  14  25  43  69  97 123 154 196 249 301
#     4   7  10  20  38  62  96 127 146 176 235 308
#     4   8  14  25  43  67  90 115 154 201 246 291
#     4   9  17  32  53  73  96 128 170 217 257 300
#     4  10  18  29  49  70  91 126 166 208 247 295
#     4  11  22  34  46  68 102 138 167 207 256 301
#
# _framework density 21.857506999999998
#
# number of rings (size 3 to 8) (size 9 to 14) (size 15 to 20)
#    0.000    3.000    1.818    2.727    0.000    0.727 
#    1.636    2.727    0.000    1.091    0.000    3.818 
#    0.000    0.000    0.000    0.000    0.000    0.000 
#
# Total GULP energy -245441.563956 kJ/mol
# GULP energy per Si atom -5578.217363 kJ/mol
# Density = 2.180776 g / cm^3
# Si number density = 21.857507 Si / 1000 Ang^3
#
#
#
# Elastic Constant Matrix: (Units=GPa)
#
#
# Indices 1 2 3 4 5 6 
#
# 1 29.3229 46.4711 0.9526 0.0000 0.0000 0.0000
# 2 46.4711 241.3042 22.1266 0.0000 0.0000 0.0000
# 3 0.9526 22.1266 60.9854 0.0000 0.0000 0.0000
# 4 0.0000 0.0000 0.0000 16.8033 0.0000 0.0000
# 5 0.0000 0.0000 0.0000 0.0000 2.2852 0.0000
# 6 0.0000 0.0000 0.0000 0.0000 0.0000 40.0114
#
#
#
# Elastic Compliance Matrix: (Units=1/GPa)
#
#
# Indices 1 2 3 4 5 6 
#
# 1 0.049535 -0.009795 0.002780 0.000000 0.000000 0.000000
# 2 -0.009795 0.006223 -0.002105 0.000000 0.000000 0.000000
# 3 0.002780 -0.002105 0.017118 0.000000 0.000000 0.000000
# 4 0.000000 0.000000 0.000000 0.059512 0.000000 0.000000
# 5 0.000000 0.000000 0.000000 0.000000 0.437602 0.000000
# 6 0.000000 0.000000 0.000000 0.000000 0.000000 0.024993
#
#
# Mechanical properties :
#
#
# Convention : Reuss Voigt Hill
#
# Bulk Modulus (GPa) = 18.30260 52.30146 35.30203
# Shear Modulus (GPa) = 7.91848 29.29080 18.60464
#
# Velocity S-wave (km/s) = 1.90542 3.66468 2.92066
# Velocity P-wave (km/s) = 3.63767 6.47200 5.24974
#
# Compressibility (1/GPa) = 0.05463705
#
# Stress axis : x y z
#
# Youngs Moduli (GPa) = 20.18768 160.68307 58.41913
#
# Poissons Ratio (x) = 1.57382 -0.16240
# Poissons Ratio (y) = 0.19773 0.12297
# Poissons Ratio (z) = -0.05612 0.33824
#
# Static dielectric constant tensor:
#      x y z
#    x 1.765910 0.000000 0.000000 
#    y 0.000000 1.859380 0.000000 
#    z 0.000000 0.000000 1.833300 
# 
# From -- ./inp_files/27700.got.cif
#   From: 2010.05.17/outbox.cif.g08.bks.cpg/sg69_14_cif.got.tgz:27700.got - 2010.06.03 19:29:58.
