data_PCOD9511237
_publ_section_title
;
Structure prediction by ZEFSAII (Michael W. Deem and Ramdas Pophale) SiO2 
 PCOD9511237
Probable space group: F M M M
;
_chemical_formula_sum "Si O2"
_cell_formula_units_Z 144
_cell_length_a 19.261645
_cell_length_b 22.192550
_cell_length_c 14.272190
_cell_angle_alpha 90.000000
_cell_angle_beta 90.000000
_cell_angle_gamma 90.000000
_cell_volume 6100.861980
_symmetry_space_group_name_H-M "F M M M"
_symmetry_group_IT_number 69
_symmetry_cell_setting 'orthorhombic'
loop_
_space_group_symop_operation_xyz
x,y,z
-x,-y,z
x,-y,-z
-x,y,-z
-x,-y,-z
x,y,-z
-x,y,z
x,-y,z
x,1/2+y,1/2+z
-x,1/2-y,1/2+z
x,1/2-y,1/2-z
-x,1/2+y,1/2-z
-x,1/2-y,1/2-z
x,1/2+y,1/2-z
-x,1/2+y,1/2+z
x,1/2-y,1/2+z
1/2+x,y,1/2+z
1/2-x,-y,1/2+z
1/2+x,-y,1/2-z
1/2-x,y,1/2-z
1/2-x,-y,1/2-z
1/2+x,y,1/2-z
1/2-x,y,1/2+z
1/2+x,-y,1/2+z
1/2+x,1/2+y,z
1/2-x,1/2-y,z
1/2+x,1/2-y,-z
1/2-x,1/2+y,-z
1/2-x,1/2-y,-z
1/2+x,1/2+y,-z
1/2-x,1/2+y,z
1/2+x,1/2-y,z
loop_
_atom_site_type_symbol
_atom_site_label
_atom_site_fract_x
_atom_site_fract_y
_atom_site_fract_z
Si Si1 0.000000 0.570810 0.614873
Si Si2 0.076794 0.895263 0.390934
Si Si3 0.422651 0.746148 0.638377
Si Si4 0.358778 0.367628 0.892506
Si Si5 0.275305 0.431843 0.613387
O O1 0.070551 0.603739 0.648698
O O2 0.000000 0.500000 0.638022
O O3 0.000000 0.575358 0.500000
O O4 0.073244 0.914298 0.500000
O O5 0.087642 0.822926 0.389156
O O6 0.146766 0.922723 0.349234
O O7 0.000000 0.908284 0.350423
O O8 0.500000 0.763871 0.605125
O O9 0.422713 0.750000 0.750000
O O10 0.368495 0.795922 0.606421
O O11 0.285469 0.388278 0.851432
O O12 0.357347 0.389463 0.000000
O O13 0.281565 0.423267 0.500000
O O14 0.252261 0.500000 0.630342
#
# Coordination Sequence:
#
# PCOD9511237 Si02
#       5
#    16  32  32  32  32
#     4   9  16  26  45  74 102 132 167 198 236 295
#     4   9  18  33  54  77 100 131 172 215 255 304
#     4  10  20  34  52  75 103 137 172 213 255 302
#     4  10  18  30  51  77 106 136 166 206 254 307
#     4   9  18  32  51  78 107 132 165 214 263 303
#
# _framework density 23.603221999999999
#
# number of rings (size 3 to 8) (size 9 to 14) (size 15 to 20)
#    0.000    2.556    1.111    1.333    0.000    4.889 
#    0.000    7.778    0.000    4.000    0.000    0.000 
#    0.000    0.000    0.000    0.000    0.000    0.000 
#
# Total GULP energy -201098.405544 kJ/mol
# GULP energy per Si atom -5586.066821 kJ/mol
# Density = 2.354950 g / cm^3
# Si number density = 23.603222 Si / 1000 Ang^3
#
#
#
# Elastic Constant Matrix: (Units=GPa)
#
#
# Indices 1 2 3 4 5 6 
#
# 1 142.3808 30.2589 12.1073 0.0000 0.0000 0.0000
# 2 30.2589 44.4161 -23.2501 0.0000 0.0000 0.0000
# 3 12.1073 -23.2501 75.7641 0.0000 0.0000 0.0000
# 4 0.0000 0.0000 0.0000 -930.7829 0.0000 0.0000
# 5 0.0000 0.0000 0.0000 0.0000 20.1151 0.0000
# 6 0.0000 0.0000 0.0000 0.0000 0.0000 43.4975
#
#
#
# Elastic Compliance Matrix: (Units=1/GPa)
#
#
# Indices 1 2 3 4 5 6 
#
# 1 0.009134 -0.008323 -0.004014 0.000000 0.000000 0.000000
# 2 -0.008323 0.034408 0.011889 0.000000 0.000000 0.000000
# 3 -0.004014 0.011889 0.017489 0.000000 0.000000 0.000000
# 4 0.000000 0.000000 0.000000 -0.001074 0.000000 0.000000
# 5 0.000000 0.000000 0.000000 0.000000 0.049714 0.000000
# 6 0.000000 0.000000 0.000000 0.000000 0.000000 0.022990
#
#
# Mechanical properties :
#
#
# Convention : Reuss Voigt Hill
#
# Bulk Modulus (GPa) = 16.62941 33.42146 25.02544
# Shear Modulus (GPa) = 32.55185 -157.20440 -62.32627
#
# Velocity S-wave (km/s) = 3.71769 -8.16992 -5.14424
# Velocity P-wave (km/s) = 5.04866 8.64906 4.96575
#
# Compressibility (1/GPa) = 0.06013443
#
# Stress axis : x y z
#
# Youngs Moduli (GPa) = 109.48536 29.06276 57.17952
#
# Poissons Ratio (x) = 0.24190 0.22951
# Poissons Ratio (y) = 0.91130 -0.67982
# Poissons Ratio (z) = 0.43946 -0.34553
#
# Static dielectric constant tensor:
#      x y z
#    x 1.908540 0.000000 0.000000 
#    y 0.000000 1.836930 0.000000 
#    z 0.000000 0.000000 1.595770 
# 
# From -- ./inp_files/22863.got.cif
#   From: 2010.05.17/outbox.cif.g08.bks.cpg/sg69_12_cif.got.tgz:22863.got - 2010.06.03 19:29:58.
