data_PCOD9511194
_publ_section_title
;
Structure prediction by ZEFSAII (Michael W. Deem and Ramdas Pophale) SiO2 
 PCOD9511194
Probable space group: F M M M
;
_chemical_formula_sum "Si O2"
_cell_formula_units_Z 192
_cell_length_a 15.082312
_cell_length_b 19.253037
_cell_length_c 31.289262
_cell_angle_alpha 90.000000
_cell_angle_beta 90.000000
_cell_angle_gamma 90.000000
_cell_volume 9085.785630
_symmetry_space_group_name_H-M "F M M M"
_symmetry_group_IT_number 69
_symmetry_cell_setting 'orthorhombic'
loop_
_space_group_symop_operation_xyz
x,y,z
-x,-y,z
x,-y,-z
-x,y,-z
-x,-y,-z
x,y,-z
-x,y,z
x,-y,z
x,1/2+y,1/2+z
-x,1/2-y,1/2+z
x,1/2-y,1/2-z
-x,1/2+y,1/2-z
-x,1/2-y,1/2-z
x,1/2+y,1/2-z
-x,1/2+y,1/2+z
x,1/2-y,1/2+z
1/2+x,y,1/2+z
1/2-x,-y,1/2+z
1/2+x,-y,1/2-z
1/2-x,y,1/2-z
1/2-x,-y,1/2-z
1/2+x,y,1/2-z
1/2-x,y,1/2+z
1/2+x,-y,1/2+z
1/2+x,1/2+y,z
1/2-x,1/2-y,z
1/2+x,1/2-y,-z
1/2-x,1/2+y,-z
1/2-x,1/2-y,-z
1/2+x,1/2+y,-z
1/2-x,1/2+y,z
1/2+x,1/2-y,z
loop_
_atom_site_type_symbol
_atom_site_label
_atom_site_fract_x
_atom_site_fract_y
_atom_site_fract_z
Si Si1 0.602583 0.674181 0.828248
Si Si2 0.393726 0.670034 0.670641
Si Si3 0.840899 0.922311 0.592167
Si Si4 0.296362 0.584384 0.500000
Si Si5 0.371773 0.925311 0.404617
Si Si6 0.608695 0.079553 0.251630
Si Si7 0.597727 0.882923 0.500000
O O1 0.500000 0.682761 0.815459
O O2 0.641700 0.751303 0.827908
O O3 0.602848 0.638233 0.874493
O O4 0.640386 0.620585 0.793668
O O5 0.500000 0.673300 0.674131
O O6 0.373066 0.632800 0.626167
O O7 0.362906 0.622567 0.709961
O O8 0.853303 0.903976 0.542508
O O9 0.734437 0.925609 0.595183
O O10 0.876420 0.000000 0.601066
O O11 0.271269 0.500000 0.500000
O O12 0.206280 0.631719 0.500000
O O13 0.403720 0.919252 0.453485
O O14 0.401253 0.000000 0.386749
O O15 0.500000 0.077605 0.251876
O O16 0.638598 0.000000 0.250775
O O17 0.500000 0.843961 0.500000
#
# Coordination Sequence:
#
# PCOD9511194 Si02
#       7
#    32  32  32  16  32  32  16
#     4  10  20  33  50  76 109 138 165 206 260 314
#     4  10  20  34  53  76 102 136 177 217 258 307
#     4   9  18  34  54  75 101 133 172 218 262 306
#     4   8  16  31  50  74 105 138 171 213 265 310
#     4  10  20  33  51  76 105 138 173 209 255 310
#     4   9  17  31  53  78 102 131 169 214 263 312
#     4  10  18  29  51  81 108 136 174 217 258 306
#
# _framework density 21.131910000000001
#
# number of rings (size 3 to 8) (size 9 to 14) (size 15 to 20)
#    0.000    2.500    0.000    3.750    0.000    6.833 
#    0.000    2.083    0.000   11.500    0.000    0.000 
#    0.000    0.000    0.000    0.000    0.000    0.000 
#
# Total GULP energy -267391.113733 kJ/mol
# GULP energy per Si atom -5570.648203 kJ/mol
# Density = 2.108381 g / cm^3
# Si number density = 21.131910 Si / 1000 Ang^3
#
#
#
# Elastic Constant Matrix: (Units=GPa)
#
#
# Indices 1 2 3 4 5 6 
#
# 1 30.2496 10.8179 7.1666 0.0000 0.0000 0.0000
# 2 10.8179 179.9153 105.4019 0.0000 0.0000 0.0000
# 3 7.1666 105.4019 152.3477 0.0000 0.0000 0.0000
# 4 0.0000 0.0000 0.0000 -20.5438 0.0000 0.0000
# 5 0.0000 0.0000 0.0000 0.0000 31.9628 0.0000
# 6 0.0000 0.0000 0.0000 0.0000 0.0000 5.8021
#
#
#
# Elastic Compliance Matrix: (Units=1/GPa)
#
#
# Indices 1 2 3 4 5 6 
#
# 1 0.033793 -0.001851 -0.000309 0.000000 0.000000 0.000000
# 2 -0.001851 0.009448 -0.006449 0.000000 0.000000 0.000000
# 3 -0.000309 -0.006449 0.011040 0.000000 0.000000 0.000000
# 4 0.000000 0.000000 0.000000 -0.048677 0.000000 0.000000
# 5 0.000000 0.000000 0.000000 0.000000 0.031286 0.000000
# 6 0.000000 0.000000 0.000000 0.000000 0.000000 0.172351
#
#
# Mechanical properties :
#
#
# Convention : Reuss Voigt Hill
#
# Bulk Modulus (GPa) = 26.98112 67.69837 47.33974
# Shear Modulus (GPa) = 20.93665 19.38598 20.16132
#
# Velocity S-wave (km/s) = 3.15105 3.03211 3.09215
# Velocity P-wave (km/s) = 5.10240 6.66062 5.93289
#
# Compressibility (1/GPa) = 0.03706295
#
# Stress axis : x y z
#
# Youngs Moduli (GPa) = 29.59154 105.84508 90.57570
#
# Poissons Ratio (x) = 0.19589 0.02801
# Poissons Ratio (y) = 0.05477 0.58416
# Poissons Ratio (z) = 0.00915 0.68264
#
# Static dielectric constant tensor:
#      x y z
#    x 1.823050 0.000000 0.000000 
#    y 0.000000 1.760310 0.000000 
#    z 0.000000 0.000000 1.748530 
# 
# From -- ./inp_files/46400.got.cif
#   From: 2010.05.17/outbox.cif.g08.bks.cpg/sg69_24_cif.got.tgz:46400.got - 2010.06.03 19:29:58.
