data_PCOD9511339
_publ_section_title
;
Structure prediction by ZEFSAII (Michael W. Deem and Ramdas Pophale) SiO2 
 PCOD9511339
Probable space group: F M M M
;
_chemical_formula_sum "Si O2"
_cell_formula_units_Z 112
_cell_length_a 25.922530
_cell_length_b 31.799067
_cell_length_c 8.557003
_cell_angle_alpha 90.000000
_cell_angle_beta 90.000000
_cell_angle_gamma 90.000000
_cell_volume 7053.642553
_symmetry_space_group_name_H-M "F M M M"
_symmetry_group_IT_number 69
_symmetry_cell_setting 'orthorhombic'
loop_
_space_group_symop_operation_xyz
x,y,z
-x,-y,z
x,-y,-z
-x,y,-z
-x,-y,-z
x,y,-z
-x,y,z
x,-y,z
x,1/2+y,1/2+z
-x,1/2-y,1/2+z
x,1/2-y,1/2-z
-x,1/2+y,1/2-z
-x,1/2-y,1/2-z
x,1/2+y,1/2-z
-x,1/2+y,1/2+z
x,1/2-y,1/2+z
1/2+x,y,1/2+z
1/2-x,-y,1/2+z
1/2+x,-y,1/2-z
1/2-x,y,1/2-z
1/2-x,-y,1/2-z
1/2+x,y,1/2-z
1/2-x,y,1/2+z
1/2+x,-y,1/2+z
1/2+x,1/2+y,z
1/2-x,1/2-y,z
1/2+x,1/2-y,-z
1/2-x,1/2+y,-z
1/2-x,1/2-y,-z
1/2+x,1/2+y,-z
1/2-x,1/2+y,z
1/2+x,1/2-y,z
loop_
_atom_site_type_symbol
_atom_site_label
_atom_site_fract_x
_atom_site_fract_y
_atom_site_fract_z
Si Si1 0.691334 0.045128 0.188502
Si Si2 0.891722 0.202433 0.813811
Si Si3 0.808620 0.137774 0.688345
Si Si4 0.500000 0.702165 0.686462
O O1 0.750000 0.044815 0.250000
O O2 0.670846 0.091022 0.235543
O O3 0.667768 0.000000 0.239014
O O4 0.692226 0.045114 0.000000
O O5 0.885623 0.250000 0.750000
O O6 0.845008 0.173525 0.757322
O O7 0.946050 0.184389 0.748965
O O8 0.894093 0.204279 0.000000
O O9 0.808120 0.140495 0.500000
O O10 0.750000 0.141766 0.750000
O O11 0.500000 0.702318 0.500000
O O12 0.500000 0.750000 0.750000
#
# Coordination Sequence:
#
# PCOD9511339 Si02
#       4
#    32  32  32  16
#     4   8  14  25  42  63  88 118 151 187 225 266
#     4  11  21  34  50  69  93 122 156 192 231 272
#     4  10  19  31  46  68  97 127 158 190 228 275
#     4  10  18  32  52  72  91 114 149 192 234 271
#
# _framework density 15.878322000000001
#
# number of rings (size 3 to 8) (size 9 to 14) (size 15 to 20)
#    0.000    2.286    0.000    6.429    0.000    1.714 
#    0.000    2.857    0.000    0.000    0.000    1.000 
#    0.000    8.000    0.000    0.000    0.000    0.000 
#
# Total GULP energy -155880.919234 kJ/mol
# GULP energy per Si atom -5567.175687 kJ/mol
# Density = 1.584218 g / cm^3
# Si number density = 15.878322 Si / 1000 Ang^3
#
#
#
# Elastic Constant Matrix: (Units=GPa)
#
#
# Indices 1 2 3 4 5 6 
#
# 1 85.9822 59.3647 38.1892 -0.0001 -0.0044 -0.0034
# 2 59.3647 116.6287 40.8801 -0.0038 -0.0010 0.0022
# 3 38.1892 40.8801 103.7481 -0.0016 -0.0084 0.0001
# 4 -0.0001 -0.0038 -0.0016 15.2879 0.0006 0.0025
# 5 -0.0044 -0.0010 -0.0084 0.0006 23.2332 0.0017
# 6 -0.0034 0.0022 0.0001 0.0025 0.0017 -1.6820
#
#
#
# Elastic Compliance Matrix: (Units=1/GPa)
#
#
# Indices 1 2 3 4 5 6 
#
# 1 0.019089 -0.008416 -0.003710 -0.000002 0.000002 -0.000050
# 2 -0.008416 0.013658 -0.002284 0.000003 -0.000002 0.000035
# 3 -0.003710 -0.002284 0.011905 0.000001 0.000003 0.000005
# 4 -0.000002 0.000003 0.000001 0.065411 -0.000002 0.000098
# 5 0.000002 -0.000002 0.000003 -0.000002 0.043042 0.000043
# 6 -0.000050 0.000035 0.000005 0.000098 0.000043 -0.594520
#
#
# Mechanical properties :
#
#
# Convention : Reuss Voigt Hill
#
# Bulk Modulus (GPa) = 63.16602 64.80300 63.98451
# Shear Modulus (GPa) = -12.27546 18.56280 3.14367
#
# Velocity S-wave (km/s) = -2.78348 3.42287 1.40860
# Velocity P-wave (km/s) = 5.43483 7.51813 6.55971
#
# Compressibility (1/GPa) = 0.01583130
#
# Stress axis : x y z
#
# Youngs Moduli (GPa) = 52.38677 73.21453 84.00167
#
# Poissons Ratio (x) = 0.61616 0.31168
# Poissons Ratio (y) = 0.44087 0.19187
# Poissons Ratio (z) = 0.19438 0.16723
#
# Static dielectric constant tensor:
#      x y z
#    x 1.512540 0.000000 0.000010 
#    y 0.000000 1.571290 0.000000 
#    z 0.000010 0.000000 1.509320 
# 
# From -- ./inp_files/3747.got.cif
#   From: 2010.05.17/outbox.cif.g08.bks.cpg/sg69_2_cif.got.tgz:3747.got - 2010.06.03 19:29:58.
