data_PCOD9511184
_publ_section_title
;
Structure prediction by ZEFSAII (Michael W. Deem and Ramdas Pophale) SiO2 
 PCOD9511184
Probable space group: F M M M
;
_chemical_formula_sum "Si O2"
_cell_formula_units_Z 176
_cell_length_a 16.347309
_cell_length_b 23.282101
_cell_length_c 26.685314
_cell_angle_alpha 90.000000
_cell_angle_beta 90.000000
_cell_angle_gamma 90.000000
_cell_volume 10156.422482
_symmetry_space_group_name_H-M "F M M M"
_symmetry_group_IT_number 69
_symmetry_cell_setting 'orthorhombic'
loop_
_space_group_symop_operation_xyz
x,y,z
-x,-y,z
x,-y,-z
-x,y,-z
-x,-y,-z
x,y,-z
-x,y,z
x,-y,z
x,1/2+y,1/2+z
-x,1/2-y,1/2+z
x,1/2-y,1/2-z
-x,1/2+y,1/2-z
-x,1/2-y,1/2-z
x,1/2+y,1/2-z
-x,1/2+y,1/2+z
x,1/2-y,1/2+z
1/2+x,y,1/2+z
1/2-x,-y,1/2+z
1/2+x,-y,1/2-z
1/2-x,y,1/2-z
1/2-x,-y,1/2-z
1/2+x,y,1/2-z
1/2-x,y,1/2+z
1/2+x,-y,1/2+z
1/2+x,1/2+y,z
1/2-x,1/2-y,z
1/2+x,1/2-y,-z
1/2-x,1/2+y,-z
1/2-x,1/2-y,-z
1/2+x,1/2+y,-z
1/2-x,1/2+y,z
1/2+x,1/2-y,z
loop_
_atom_site_type_symbol
_atom_site_label
_atom_site_fract_x
_atom_site_fract_y
_atom_site_fract_z
Si Si1 0.162234 0.131808 0.901272
Si Si2 0.746658 0.319070 0.690575
Si Si3 0.092136 0.353053 0.130624
Si Si4 0.677375 0.431765 0.442208
Si Si5 0.500000 0.930657 0.560236
Si Si6 0.595452 0.753820 0.443626
O O1 0.185234 0.148963 0.843916
O O2 0.238394 0.098119 0.925053
O O3 0.080303 0.095772 0.913010
O O4 0.150514 0.192672 0.928762
O O5 0.750000 0.327537 0.750000
O O6 0.750000 0.250000 0.681022
O O7 0.660732 0.344954 0.672134
O O8 0.109928 0.407681 0.095777
O O9 0.104127 0.298518 0.094073
O O10 0.000000 0.353028 0.149981
O O11 0.659093 0.417121 0.500000
O O12 0.685607 0.500000 0.438536
O O13 0.500000 0.916211 0.500000
O O14 0.500000 0.000000 0.563791
O O15 0.612890 0.734890 0.500000
O O16 0.500000 0.772637 0.441319
#
# Coordination Sequence:
#
# PCOD9511184 Si02
#       6
#    32  32  32  32  16  32
#     4  11  20  34  56  83 116 153 190 233 281 336
#     4  10  21  40  58  82 114 146 187 240 296 343
#     4  10  21  37  56  82 111 143 188 232 280 335
#     4  10  21  35  53  79 113 154 192 224 267 328
#     4  11  22  36  58  89 126 162 193 228 276 346
#     4  10  18  29  49  81 118 148 176 220 279 341
#
# _framework density 17.328937
#
# number of rings (size 3 to 8) (size 9 to 14) (size 15 to 20)
#    0.000    1.727    2.727    2.727    0.000    2.909 
#    1.636    4.545    0.000   13.636    0.000    0.000 
#    0.000    0.000    0.000    0.000    0.000    0.000 
#
# Total GULP energy -245529.776785 kJ/mol
# GULP energy per Si atom -5580.222200 kJ/mol
# Density = 1.728950 g / cm^3
# Si number density = 17.328937 Si / 1000 Ang^3
#
#
#
# Elastic Constant Matrix: (Units=GPa)
#
#
# Indices 1 2 3 4 5 6 
#
# 1 87.6763 24.7876 49.9950 0.0000 0.0000 0.0000
# 2 24.7876 71.5494 37.2317 0.0000 0.0000 0.0000
# 3 49.9950 37.2317 124.7002 0.0000 0.0000 0.0000
# 4 0.0000 0.0000 0.0000 33.4233 0.0000 0.0000
# 5 0.0000 0.0000 0.0000 0.0000 17.3024 0.0000
# 6 0.0000 0.0000 0.0000 0.0000 0.0000 18.5464
#
#
#
# Elastic Compliance Matrix: (Units=1/GPa)
#
#
# Indices 1 2 3 4 5 6 
#
# 1 0.015146 -0.002471 -0.005335 0.000000 0.000000 0.000000
# 2 -0.002471 0.016950 -0.004070 0.000000 0.000000 0.000000
# 3 -0.005335 -0.004070 0.011373 0.000000 0.000000 0.000000
# 4 0.000000 0.000000 0.000000 0.029919 0.000000 0.000000
# 5 0.000000 0.000000 0.000000 0.000000 0.057795 0.000000
# 6 0.000000 0.000000 0.000000 0.000000 0.000000 0.053919
#
#
# Mechanical properties :
#
#
# Convention : Reuss Voigt Hill
#
# Bulk Modulus (GPa) = 50.71546 56.43938 53.57742
# Shear Modulus (GPa) = 23.20963 25.31519 24.26241
#
# Velocity S-wave (km/s) = 3.66369 3.82627 3.74586
# Velocity P-wave (km/s) = 6.87217 7.22223 7.04937
#
# Compressibility (1/GPa) = 0.01971785
#
# Stress axis : x y z
#
# Youngs Moduli (GPa) = 66.02327 58.99554 87.92618
#
# Poissons Ratio (x) = 0.14580 0.46905
# Poissons Ratio (y) = 0.16316 0.35787
# Poissons Ratio (z) = 0.35221 0.24012
#
# Static dielectric constant tensor:
#      x y z
#    x 1.604350 0.000000 0.000000 
#    y 0.000000 1.587340 0.000000 
#    z 0.000000 0.000000 1.564940 
# 
# From -- ./inp_files/41123.got.cif
#   From: 2010.05.17/outbox.cif.g08.bks.cpg/sg69_21_cif.got.tgz:41123.got - 2010.06.03 19:29:58.
