data_PCOD9511076
_publ_section_title
;
Structure prediction by ZEFSAII (Michael W. Deem and Ramdas Pophale) SiO2 
 PCOD9511076
Probable space group: F M M M
;
_chemical_formula_sum "Si O2"
_cell_formula_units_Z 176
_cell_length_a 19.507388
_cell_length_b 14.703034
_cell_length_c 29.764312
_cell_angle_alpha 90.000000
_cell_angle_beta 90.000000
_cell_angle_gamma 90.000000
_cell_volume 8536.934159
_symmetry_space_group_name_H-M "F M M M"
_symmetry_group_IT_number 69
_symmetry_cell_setting 'orthorhombic'
loop_
_space_group_symop_operation_xyz
x,y,z
-x,-y,z
x,-y,-z
-x,y,-z
-x,-y,-z
x,y,-z
-x,y,z
x,-y,z
x,1/2+y,1/2+z
-x,1/2-y,1/2+z
x,1/2-y,1/2-z
-x,1/2+y,1/2-z
-x,1/2-y,1/2-z
x,1/2+y,1/2-z
-x,1/2+y,1/2+z
x,1/2-y,1/2+z
1/2+x,y,1/2+z
1/2-x,-y,1/2+z
1/2+x,-y,1/2-z
1/2-x,y,1/2-z
1/2-x,-y,1/2-z
1/2+x,y,1/2-z
1/2-x,y,1/2+z
1/2+x,-y,1/2+z
1/2+x,1/2+y,z
1/2-x,1/2-y,z
1/2+x,1/2-y,-z
1/2-x,1/2+y,-z
1/2-x,1/2-y,-z
1/2+x,1/2+y,-z
1/2-x,1/2+y,z
1/2+x,1/2-y,z
loop_
_atom_site_type_symbol
_atom_site_label
_atom_site_fract_x
_atom_site_fract_y
_atom_site_fract_z
Si Si1 0.324165 0.390669 0.767317
Si Si2 0.267380 0.856813 0.357432
Si Si3 0.421039 0.308138 0.409469
Si Si4 0.381677 0.396178 0.322520
Si Si5 0.916828 0.500000 0.051787
Si Si6 0.309896 0.174567 0.449689
O O1 0.323047 0.500000 0.764650
O O2 0.250000 0.355922 0.750000
O O3 0.325992 0.367145 0.819705
O O4 0.378521 0.363841 0.729218
O O5 0.250000 0.750000 0.360239
O O6 0.197957 0.901054 0.338633
O O7 0.287699 0.887291 0.407391
O O8 0.500000 0.297851 0.422858
O O9 0.415970 0.324646 0.356066
O O10 0.393222 0.405666 0.427144
O O11 0.375955 0.229283 0.431069
O O12 0.409892 0.500000 0.326059
O O13 0.000000 0.500000 0.056111
O O14 0.898320 0.500000 0.000000
O O15 0.320331 0.136436 0.500000
O O16 0.250000 0.250000 0.453868
#
# Coordination Sequence:
#
# PCOD9511076 Si02
#       6
#    32  32  32  32  16  32
#     4   8  16  28  46  70  98 128 163 206 250 295
#     4  10  17  30  49  73  95 134 171 215 252 294
#     4  11  20  32  49  72 103 138 173 206 247 306
#     4  10  18  31  48  74 106 135 166 205 251 301
#     4   9  18  30  46  68  95 134 177 205 233 292
#     4  10  20  34  49  68  97 133 170 212 259 295
#
# _framework density 20.616301
#
# number of rings (size 3 to 8) (size 9 to 14) (size 15 to 20)
#    0.000    2.273    4.545    2.182    0.000    4.364 
#    0.000    0.000    0.000    3.818    0.000    0.000 
#    0.000    2.182    0.000    6.545    2.182    0.000 
#
# Total GULP energy -245169.424193 kJ/mol
# GULP energy per Si atom -5572.032368 kJ/mol
# Density = 2.056938 g / cm^3
# Si number density = 20.616301 Si / 1000 Ang^3
#
#
#
# Elastic Constant Matrix: (Units=GPa)
#
#
# Indices 1 2 3 4 5 6 
#
# 1 46.1894 3.6908 4.2330 0.0000 0.0000 0.0000
# 2 3.6908 37.1379 6.1855 0.0000 0.0000 0.0000
# 3 4.2330 6.1855 170.4050 0.0000 0.0000 0.0000
# 4 0.0000 0.0000 0.0000 10.3129 0.0000 0.0000
# 5 0.0000 0.0000 0.0000 0.0000 13.1011 0.0000
# 6 0.0000 0.0000 0.0000 0.0000 0.0000 9.4542
#
#
#
# Elastic Compliance Matrix: (Units=1/GPa)
#
#
# Indices 1 2 3 4 5 6 
#
# 1 0.021860 -0.002095 -0.000467 0.000000 0.000000 0.000000
# 2 -0.002095 0.027291 -0.000939 0.000000 0.000000 0.000000
# 3 -0.000467 -0.000939 0.005914 0.000000 0.000000 0.000000
# 4 0.000000 0.000000 0.000000 0.096966 0.000000 0.000000
# 5 0.000000 0.000000 0.000000 0.000000 0.076329 0.000000
# 6 0.000000 0.000000 0.000000 0.000000 0.000000 0.105773
#
#
# Mechanical properties :
#
#
# Convention : Reuss Voigt Hill
#
# Bulk Modulus (GPa) = 20.80526 31.32789 26.06657
# Shear Modulus (GPa) = 13.99952 22.54852 18.27402
#
# Velocity S-wave (km/s) = 2.60869 3.31074 2.98045
# Velocity P-wave (km/s) = 4.38032 5.46290 4.95129
#
# Compressibility (1/GPa) = 0.04806477
#
# Stress axis : x y z
#
# Youngs Moduli (GPa) = 45.74526 36.64193 169.08901
#
# Poissons Ratio (x) = 0.07675 0.07896
# Poissons Ratio (y) = 0.09582 0.15871
# Poissons Ratio (z) = 0.02136 0.03439
#
# Static dielectric constant tensor:
#      x y z
#    x 1.739840 0.000000 0.000000 
#    y 0.000000 1.750890 0.000000 
#    z 0.000000 0.000000 1.859940 
# 
# From -- ./inp_files/46342.got.cif
#   From: 2010.05.17/outbox.cif.g08.bks.cpg/sg69_24_cif.got.tgz:46342.got - 2010.06.03 19:29:58.
