data_PCOD9511148
_publ_section_title
;
Structure prediction by ZEFSAII (Michael W. Deem and Ramdas Pophale) SiO2 
 PCOD9511148
Probable space group: F M M M
;
_chemical_formula_sum "Si O2"
_cell_formula_units_Z 208
_cell_length_a 26.798232
_cell_length_b 14.981918
_cell_length_c 20.761306
_cell_angle_alpha 90.000000
_cell_angle_beta 90.000000
_cell_angle_gamma 90.000000
_cell_volume 8335.434207
_symmetry_space_group_name_H-M "F M M M"
_symmetry_group_IT_number 69
_symmetry_cell_setting 'orthorhombic'
loop_
_space_group_symop_operation_xyz
x,y,z
-x,-y,z
x,-y,-z
-x,y,-z
-x,-y,-z
x,y,-z
-x,y,z
x,-y,z
x,1/2+y,1/2+z
-x,1/2-y,1/2+z
x,1/2-y,1/2-z
-x,1/2+y,1/2-z
-x,1/2-y,1/2-z
x,1/2+y,1/2-z
-x,1/2+y,1/2+z
x,1/2-y,1/2+z
1/2+x,y,1/2+z
1/2-x,-y,1/2+z
1/2+x,-y,1/2-z
1/2-x,y,1/2-z
1/2-x,-y,1/2-z
1/2+x,y,1/2-z
1/2-x,y,1/2+z
1/2+x,-y,1/2+z
1/2+x,1/2+y,z
1/2-x,1/2-y,z
1/2+x,1/2-y,-z
1/2-x,1/2+y,-z
1/2-x,1/2-y,-z
1/2+x,1/2+y,-z
1/2-x,1/2+y,z
1/2+x,1/2-y,z
loop_
_atom_site_type_symbol
_atom_site_label
_atom_site_fract_x
_atom_site_fract_y
_atom_site_fract_z
Si Si1 0.946270 0.101991 0.283700
Si Si2 0.071306 0.137093 0.429502
Si Si3 0.182376 0.845390 0.603427
Si Si4 0.555168 0.851453 0.425259
Si Si5 0.333499 0.147712 0.757166
Si Si6 0.662651 0.368482 0.118406
Si Si7 0.269249 0.112969 0.500000
O O1 0.947357 0.100458 0.361776
O O2 0.894090 0.147577 0.265101
O O3 0.000000 0.140391 0.262208
O O4 0.943074 0.000000 0.260990
O O5 0.054070 0.106261 0.500000
O O6 0.130638 0.121446 0.426283
O O7 0.059819 0.243274 0.426076
O O8 0.187731 0.885368 0.675003
O O9 0.173725 0.738642 0.611249
O O10 0.227272 0.864303 0.556008
O O11 0.558971 0.879684 0.500000
O O12 0.500000 0.875954 0.401142
O O13 0.603312 0.883753 0.387100
O O14 0.316954 0.250000 0.750000
O O15 0.320637 0.103398 0.689462
O O16 0.690058 0.405395 0.056758
#
# Coordination Sequence:
#
# PCOD9511148 Si02
#       7
#    32  32  32  32  32  32  16
#     4  10  21  35  51  75 106 141 181 220 264 315
#     4   9  16  28  46  70  99 136 181 214 252 312
#     4   9  17  29  45  69 104 140 171 214 265 316
#     4   9  16  26  41  66 104 143 174 212 263 316
#     4   9  20  35  50  74 108 139 178 218 257 316
#     4  10  18  28  45  73 102 137 177 214 263 320
#     4  12  19  28  49  74 108 140 167 218 282 324
#
# _framework density 24.953709
#
# number of rings (size 3 to 8) (size 9 to 14) (size 15 to 20)
#    0.000    2.462    1.538    2.769    0.000    2.769 
#    0.000    3.077    0.000    0.000    0.000   13.462 
#    0.000    1.231    0.000    0.000    0.000    0.000 
#
# Total GULP energy -289510.323634 kJ/mol
# GULP energy per Si atom -5567.506224 kJ/mol
# Density = 2.489691 g / cm^3
# Si number density = 24.953709 Si / 1000 Ang^3
#
#
#
# Elastic Constant Matrix: (Units=GPa)
#
#
# Indices 1 2 3 4 5 6 
#
# 1 144.9299 5.1999 67.9919 0.0000 0.0000 0.0000
# 2 5.1999 54.8843 12.8805 0.0000 0.0000 0.0000
# 3 67.9919 12.8805 240.0477 0.0000 0.0000 0.0000
# 4 0.0000 0.0000 0.0000 -31.5069 0.0000 0.0000
# 5 0.0000 0.0000 0.0000 0.0000 16.4453 0.0000
# 6 0.0000 0.0000 0.0000 0.0000 0.0000 27.7346
#
#
#
# Elastic Compliance Matrix: (Units=1/GPa)
#
#
# Indices 1 2 3 4 5 6 
#
# 1 0.007960 -0.000228 -0.002242 0.000000 0.000000 0.000000
# 2 -0.000228 0.018459 -0.000926 0.000000 0.000000 0.000000
# 3 -0.002242 -0.000926 0.004851 0.000000 0.000000 0.000000
# 4 0.000000 0.000000 0.000000 -0.031739 0.000000 0.000000
# 5 0.000000 0.000000 0.000000 0.000000 0.060808 0.000000
# 6 0.000000 0.000000 0.000000 0.000000 0.000000 0.036056
#
#
# Mechanical properties :
#
#
# Convention : Reuss Voigt Hill
#
# Bulk Modulus (GPa) = 40.85418 68.00073 54.42746
# Shear Modulus (GPa) = 44.90502 26.12056 35.51279
#
# Velocity S-wave (km/s) = 4.24669 3.23888 3.77655
# Velocity P-wave (km/s) = 6.36030 6.42628 6.39337
#
# Compressibility (1/GPa) = 0.02447730
#
# Stress axis : x y z
#
# Youngs Moduli (GPa) = 125.62723 54.17401 206.15712
#
# Poissons Ratio (x) = 0.01235 0.46229
# Poissons Ratio (y) = 0.02863 0.19089
# Poissons Ratio (z) = 0.28171 0.05016
#
# Static dielectric constant tensor:
#      x y z
#    x 1.937980 0.000000 0.000000 
#    y 0.000000 2.014790 0.000000 
#    z 0.000000 0.000000 1.944220 
# 
# From -- ./inp_files/33971.got.cif
#   From: 2010.05.17/outbox.cif.g08.bks.cpg/sg69_17_cif.got.tgz:33971.got - 2010.06.03 19:29:58.
