data_PCOD9511315
_publ_section_title
;
Structure prediction by ZEFSAII (Michael W. Deem and Ramdas Pophale) SiO2 
 PCOD9511315
Probable space group: F M M M
;
_chemical_formula_sum "Si O2"
_cell_formula_units_Z 208
_cell_length_a 19.958952
_cell_length_b 16.142100
_cell_length_c 26.969024
_cell_angle_alpha 90.000000
_cell_angle_beta 90.000000
_cell_angle_gamma 90.000000
_cell_volume 8688.863946
_symmetry_space_group_name_H-M "F M M M"
_symmetry_group_IT_number 69
_symmetry_cell_setting 'orthorhombic'
loop_
_space_group_symop_operation_xyz
x,y,z
-x,-y,z
x,-y,-z
-x,y,-z
-x,-y,-z
x,y,-z
-x,y,z
x,-y,z
x,1/2+y,1/2+z
-x,1/2-y,1/2+z
x,1/2-y,1/2-z
-x,1/2+y,1/2-z
-x,1/2-y,1/2-z
x,1/2+y,1/2-z
-x,1/2+y,1/2+z
x,1/2-y,1/2+z
1/2+x,y,1/2+z
1/2-x,-y,1/2+z
1/2+x,-y,1/2-z
1/2-x,y,1/2-z
1/2-x,-y,1/2-z
1/2+x,y,1/2-z
1/2-x,y,1/2+z
1/2+x,-y,1/2+z
1/2+x,1/2+y,z
1/2-x,1/2-y,z
1/2+x,1/2-y,-z
1/2-x,1/2+y,-z
1/2-x,1/2-y,-z
1/2+x,1/2+y,-z
1/2-x,1/2+y,z
1/2+x,1/2-y,z
loop_
_atom_site_type_symbol
_atom_site_label
_atom_site_fract_x
_atom_site_fract_y
_atom_site_fract_z
Si Si1 0.576475 0.851843 0.083590
Si Si2 0.575387 0.167769 0.405575
Si Si3 0.218937 0.096403 0.446247
Si Si4 0.077430 0.500000 0.441627
Si Si5 0.749010 0.099957 0.661335
Si Si6 0.606477 0.899755 0.806643
Si Si7 0.898681 0.899969 0.197440
O O1 0.500000 0.863334 0.064729
O O2 0.600393 0.756640 0.078789
O O3 0.637689 0.902555 0.060644
O O4 0.574062 0.869612 0.142577
O O5 0.500000 0.165985 0.426806
O O6 0.571533 0.153999 0.346752
O O7 0.610817 0.084532 0.424089
O O8 0.236120 0.133556 0.500000
O O9 0.247542 0.133599 0.394998
O O10 0.239575 0.000000 0.447676
O O11 0.074358 0.500000 0.500000
O O12 0.000000 0.500000 0.421573
O O13 0.815948 0.127633 0.689112
O O14 0.680733 0.114639 0.690106
O O15 0.754684 0.000000 0.657598
O O16 0.580029 0.875989 0.752645
O O17 0.603709 0.000000 0.807394
O O18 0.911208 0.000000 0.190087
#
# Coordination Sequence:
#
# PCOD9511315 Si02
#       7
#    32  32  32  16  32  32  32
#     4  10  21  35  51  75 111 149 183 221 266 324
#     4  10  21  36  53  76 106 137 173 224 279 323
#     4   9  18  34  56  81 111 144 175 216 269 321
#     4   9  18  36  58  74  95 130 172 222 279 326
#     4   8  15  30  52  77 106 138 177 219 263 316
#     4   9  18  32  51  77 108 146 181 221 266 309
#     4  10  18  31  55  78 101 137 185 225 264 322
#
# _framework density 23.938687999999999
#
# number of rings (size 3 to 8) (size 9 to 14) (size 15 to 20)
#    0.000    2.692    0.769    1.846    0.000    5.231 
#    0.000    9.231    0.000    4.615    0.000    0.000 
#    0.000    0.000    0.000    0.000    0.000    0.000 
#
# Total GULP energy -290222.736533 kJ/mol
# GULP energy per Si atom -5581.206472 kJ/mol
# Density = 2.388420 g / cm^3
# Si number density = 23.938688 Si / 1000 Ang^3
#
#
#
# Elastic Constant Matrix: (Units=GPa)
#
#
# Indices 1 2 3 4 5 6 
#
# 1 81.8011 -6.3622 -4.1165 0.0000 0.0000 0.0000
# 2 -6.3622 50.0327 6.2985 0.0000 0.0000 0.0000
# 3 -4.1165 6.2985 107.1702 0.0000 0.0000 0.0000
# 4 0.0000 0.0000 0.0000 -3.1957 0.0000 0.0000
# 5 0.0000 0.0000 0.0000 0.0000 7.0952 0.0000
# 6 0.0000 0.0000 0.0000 0.0000 0.0000 3.1704
#
#
#
# Elastic Compliance Matrix: (Units=1/GPa)
#
#
# Indices 1 2 3 4 5 6 
#
# 1 0.012363 0.001524 0.000385 0.000000 0.000000 0.000000
# 2 0.001524 0.020324 -0.001136 0.000000 0.000000 0.000000
# 3 0.000385 -0.001136 0.009413 0.000000 0.000000 0.000000
# 4 0.000000 0.000000 0.000000 -0.312922 0.000000 0.000000
# 5 0.000000 0.000000 0.000000 0.000000 0.140940 0.000000
# 6 0.000000 0.000000 0.000000 0.000000 0.000000 0.315418
#
#
# Mechanical properties :
#
#
# Convention : Reuss Voigt Hill
#
# Bulk Modulus (GPa) = 22.91227 25.62706 24.26966
# Shear Modulus (GPa) = 25.18417 17.62627 21.40522
#
# Velocity S-wave (km/s) = 3.24702 2.71644 2.99351
# Velocity P-wave (km/s) = 4.86308 4.53512 4.70196
#
# Compressibility (1/GPa) = 0.04364474
#
# Stress axis : x y z
#
# Youngs Moduli (GPa) = 80.88877 49.20369 106.24157
#
# Poissons Ratio (x) = -0.07496 -0.04094
# Poissons Ratio (y) = -0.12324 0.12068
# Poissons Ratio (z) = -0.03117 0.05589
#
# Static dielectric constant tensor:
#      x y z
#    x 1.959530 0.000000 0.000000 
#    y 0.000000 1.938430 0.000000 
#    z 0.000000 0.000000 1.911000 
# 
# From -- ./inp_files/43281.got.cif
#   From: 2010.05.17/outbox.cif.g08.bks.cpg/sg69_22_cif.got.tgz:43281.got - 2010.06.03 19:29:58.
