data_PCOD9511136
_publ_section_title
;
Structure prediction by ZEFSAII (Michael W. Deem and Ramdas Pophale) SiO2 
 PCOD9511136
Probable space group: F M M M
;
_chemical_formula_sum "Si O2"
_cell_formula_units_Z 128
_cell_length_a 14.211803
_cell_length_b 15.895554
_cell_length_c 24.909369
_cell_angle_alpha 90.000000
_cell_angle_beta 90.000000
_cell_angle_gamma 90.000000
_cell_volume 5627.138101
_symmetry_space_group_name_H-M "F M M M"
_symmetry_group_IT_number 69
_symmetry_cell_setting 'orthorhombic'
loop_
_space_group_symop_operation_xyz
x,y,z
-x,-y,z
x,-y,-z
-x,y,-z
-x,-y,-z
x,y,-z
-x,y,z
x,-y,z
x,1/2+y,1/2+z
-x,1/2-y,1/2+z
x,1/2-y,1/2-z
-x,1/2+y,1/2-z
-x,1/2-y,1/2-z
x,1/2+y,1/2-z
-x,1/2+y,1/2+z
x,1/2-y,1/2+z
1/2+x,y,1/2+z
1/2-x,-y,1/2+z
1/2+x,-y,1/2-z
1/2-x,y,1/2-z
1/2-x,-y,1/2-z
1/2+x,y,1/2-z
1/2-x,y,1/2+z
1/2+x,-y,1/2+z
1/2+x,1/2+y,z
1/2-x,1/2-y,z
1/2+x,1/2-y,-z
1/2-x,1/2+y,-z
1/2-x,1/2-y,-z
1/2+x,1/2+y,-z
1/2-x,1/2+y,z
1/2+x,1/2-y,z
loop_
_atom_site_type_symbol
_atom_site_label
_atom_site_fract_x
_atom_site_fract_y
_atom_site_fract_z
Si Si1 0.632346 0.590624 0.380123
Si Si2 0.135471 0.748641 0.688225
Si Si3 0.897463 0.642279 0.000000
Si Si4 0.313844 0.897199 0.500000
Si Si5 0.359879 0.594739 0.884145
O O1 0.604040 0.500000 0.357967
O O2 0.603670 0.670043 0.344992
O O3 0.600577 0.597580 0.441891
O O4 0.746045 0.592083 0.380389
O O5 0.106470 0.750000 0.750000
O O6 0.250000 0.750000 0.687827
O O7 0.106578 0.664664 0.656879
O O8 0.782509 0.658445 0.000000
O O9 0.000000 0.690374 0.000000
O O10 0.372874 0.880823 0.553633
O O11 0.290613 0.000000 0.500000
O O12 0.393647 0.500000 0.874363
#
# Coordination Sequence:
#
# PCOD9511136 Si02
#       5
#    32  32  16  16  32
#     4   9  17  27  39  59  86 109 130 164 204 237
#     4   9  17  27  39  57  82 114 145 163 184 229
#     4  10  18  28  44  63  81 103 132 165 207 257
#     4   8  14  24  38  59  84 104 127 165 207 239
#     4   8  14  25  40  58  82 110 136 163 195 231
#
# _framework density 22.74691
#
# number of rings (size 3 to 8) (size 9 to 14) (size 15 to 20)
#    0.000    3.250    0.000    2.625    0.000    4.250 
#    0.000   10.000    0.000    0.750    0.000    0.000 
#    0.000    2.000    0.000    1.500    0.000    3.000 
#
# Total GULP energy -178275.118424 kJ/mol
# GULP energy per Si atom -5571.097451 kJ/mol
# Density = 2.269514 g / cm^3
# Si number density = 22.746910 Si / 1000 Ang^3
#
#
#
# Elastic Constant Matrix: (Units=GPa)
#
#
# Indices 1 2 3 4 5 6 
#
# 1 113.0755 23.3483 17.9706 0.0000 0.0000 0.0000
# 2 23.3483 176.2076 137.2156 0.0000 0.0000 0.0000
# 3 17.9706 137.2156 206.9658 0.0000 0.0000 0.0000
# 4 0.0000 0.0000 0.0000 18.2215 0.0000 0.0000
# 5 0.0000 0.0000 0.0000 0.0000 -28.7033 0.0000
# 6 0.0000 0.0000 0.0000 0.0000 0.0000 -23.7428
#
#
#
# Elastic Compliance Matrix: (Units=1/GPa)
#
#
# Indices 1 2 3 4 5 6 
#
# 1 0.009092 -0.001220 0.000019 0.000000 0.000000 0.000000
# 2 -0.001220 0.011896 -0.007781 0.000000 0.000000 0.000000
# 3 0.000019 -0.007781 0.009989 0.000000 0.000000 0.000000
# 4 0.000000 0.000000 0.000000 0.054880 0.000000 0.000000
# 5 0.000000 0.000000 0.000000 0.000000 -0.034839 0.000000
# 6 0.000000 0.000000 0.000000 0.000000 0.000000 -0.042118
#
#
# Mechanical properties :
#
#
# Convention : Reuss Voigt Hill
#
# Bulk Modulus (GPa) = 76.83968 94.81311 85.82640
# Shear Modulus (GPa) = 160.25299 14.33606 87.29452
#
# Velocity S-wave (km/s) = 8.40258 2.51319 6.20159
# Velocity P-wave (km/s) = 11.31333 7.08475 9.43889
#
# Compressibility (1/GPa) = 0.01301411
#
# Stress axis : x y z
#
# Youngs Moduli (GPa) = 109.98130 84.06308 100.11346
#
# Poissons Ratio (x) = 0.10253 -0.00192
# Poissons Ratio (y) = 0.13415 0.77897
# Poissons Ratio (z) = -0.00211 0.65408
#
# Static dielectric constant tensor:
#      x y z
#    x 1.871300 0.000000 0.000000 
#    y 0.000000 1.826920 0.000000 
#    z 0.000000 0.000000 1.781520 
# 
# From -- ./inp_files/46142.got.cif
#   From: 2010.05.17/outbox.cif.g08.bks.cpg/sg69_24_cif.got.tgz:46142.got - 2010.06.03 19:29:58.
