data_PCOD9511763
_publ_section_title
;
Structure prediction by ZEFSAII (Michael W. Deem and Ramdas Pophale) SiO2 
 PCOD9511763
Probable space group: F M M M
;
_chemical_formula_sum "Si O2"
_cell_formula_units_Z 176
_cell_length_a 25.466606
_cell_length_b 31.067005
_cell_length_c 14.775886
_cell_angle_alpha 90.000000
_cell_angle_beta 90.000000
_cell_angle_gamma 90.000000
_cell_volume 11690.255102
_symmetry_space_group_name_H-M "F M M M"
_symmetry_group_IT_number 69
_symmetry_cell_setting 'orthorhombic'
loop_
_space_group_symop_operation_xyz
x,y,z
-x,-y,z
x,-y,-z
-x,y,-z
-x,-y,-z
x,y,-z
-x,y,z
x,-y,z
x,1/2+y,1/2+z
-x,1/2-y,1/2+z
x,1/2-y,1/2-z
-x,1/2+y,1/2-z
-x,1/2-y,1/2-z
x,1/2+y,1/2-z
-x,1/2+y,1/2+z
x,1/2-y,1/2+z
1/2+x,y,1/2+z
1/2-x,-y,1/2+z
1/2+x,-y,1/2-z
1/2-x,y,1/2-z
1/2-x,-y,1/2-z
1/2+x,y,1/2-z
1/2-x,y,1/2+z
1/2+x,-y,1/2+z
1/2+x,1/2+y,z
1/2-x,1/2-y,z
1/2+x,1/2-y,-z
1/2-x,1/2+y,-z
1/2-x,1/2-y,-z
1/2+x,1/2+y,-z
1/2-x,1/2+y,z
1/2+x,1/2-y,z
loop_
_atom_site_type_symbol
_atom_site_label
_atom_site_fract_x
_atom_site_fract_y
_atom_site_fract_z
Si Si1 0.840714 0.050322 0.000000
Si Si2 0.563716 0.818085 0.718224
Si Si3 0.195431 0.947676 0.698812
Si Si4 0.715128 0.450328 0.500000
Si Si5 0.063445 0.733161 0.103471
Si Si6 0.892967 0.089056 0.175501
Si Si7 0.000000 0.551173 0.394527
O O1 0.861052 0.075921 0.086134
O O2 0.778148 0.048725 0.000000
O O3 0.859584 0.000000 0.000000
O O4 0.500000 0.824744 0.715752
O O5 0.575946 0.779593 0.647705
O O6 0.578196 0.801639 0.819426
O O7 0.593942 0.861087 0.691110
O O8 0.250000 0.935880 0.750000
O O9 0.197678 0.931701 0.595537
O O10 0.143675 0.929546 0.745839
O O11 0.193754 0.000000 0.700916
O O12 0.696872 0.500000 0.500000
O O13 0.000000 0.731432 0.099605
O O14 0.082796 0.727859 0.000000
O O15 0.948907 0.066633 0.158860
O O16 0.000000 0.500000 0.399489
O O17 0.000000 0.567447 0.500000
#
# Coordination Sequence:
#
# PCOD9511763 Si02
#       7
#    16  32  32  16  32  32  16
#     4  11  20  31  50  75 104 138 172 214 263 305
#     4   9  18  31  45  74 102 130 165 200 248 304
#     4  10  19  33  53  72  96 134 177 221 261 289
#     4   9  18  34  53  71  92 125 179 230 265 290
#     4   8  15  30  52  67  92 128 165 207 252 298
#     4  12  21  31  48  75 108 137 168 208 249 312
#     4  11  22  32  44  68 107 149 173 192 244 317
#
# _framework density 15.055274000000001
#
# number of rings (size 3 to 8) (size 9 to 14) (size 15 to 20)
#    0.000    2.091    3.636    2.727    1.273    0.000 
#    1.636    0.000    0.000    0.545    0.000    5.091 
#    0.000    7.273    0.000    0.000    0.000    0.000 
#
# Total GULP energy -244987.894106 kJ/mol
# GULP energy per Si atom -5567.906684 kJ/mol
# Density = 1.502101 g / cm^3
# Si number density = 15.055274 Si / 1000 Ang^3
#
#
#
# Elastic Constant Matrix: (Units=GPa)
#
#
# Indices 1 2 3 4 5 6 
#
# 1 68.9312 23.3327 47.6002 0.0000 0.0000 0.0000
# 2 23.3327 85.0935 53.1822 0.0000 0.0000 0.0000
# 3 47.6002 53.1822 153.8608 0.0000 0.0000 0.0000
# 4 0.0000 0.0000 0.0000 13.3576 0.0000 0.0000
# 5 0.0000 0.0000 0.0000 0.0000 89.5734 0.0000
# 6 0.0000 0.0000 0.0000 0.0000 0.0000 -31.1364
#
#
#
# Elastic Compliance Matrix: (Units=1/GPa)
#
#
# Indices 1 2 3 4 5 6 
#
# 1 0.018693 -0.001928 -0.005117 0.000000 0.000000 0.000000
# 2 -0.001928 0.015189 -0.004654 0.000000 0.000000 0.000000
# 3 -0.005117 -0.004654 0.009691 0.000000 0.000000 0.000000
# 4 0.000000 0.000000 0.000000 0.074864 0.000000 0.000000
# 5 0.000000 0.000000 0.000000 0.000000 0.011164 0.000000
# 6 0.000000 0.000000 0.000000 0.000000 0.000000 -0.032117
#
#
# Mechanical properties :
#
#
# Convention : Reuss Voigt Hill
#
# Bulk Modulus (GPa) = 49.56265 61.79063 55.67664
# Shear Modulus (GPa) = 39.18309 26.61026 32.89667
#
# Velocity S-wave (km/s) = 5.10712 4.20873 4.67953
# Velocity P-wave (km/s) = 8.23218 8.04671 8.13997
#
# Compressibility (1/GPa) = 0.02017648
#
# Stress axis : x y z
#
# Youngs Moduli (GPa) = 53.49559 65.83784 103.18940
#
# Poissons Ratio (x) = 0.12692 0.52800
# Poissons Ratio (y) = 0.10313 0.48021
# Poissons Ratio (z) = 0.27373 0.30639
#
# Static dielectric constant tensor:
#      x y z
#    x 1.483080 0.000000 0.000000 
#    y 0.000000 1.483930 0.000000 
#    z 0.000000 0.000000 1.545160 
# 
# From -- ./inp_files/18157.got.cif
#   From: 2010.05.17/outbox.cif.g08.bks.cpg/sg69_10_cif.got.tgz:18157.got - 2010.06.03 19:29:58.
