data_PCOD9511167
_publ_section_title
;
Structure prediction by ZEFSAII (Michael W. Deem and Ramdas Pophale) SiO2 
 PCOD9511167
Probable space group: F M M M
;
_chemical_formula_sum "Si O2"
_cell_formula_units_Z 192
_cell_length_a 16.061419
_cell_length_b 34.004920
_cell_length_c 20.128497
_cell_angle_alpha 90.000000
_cell_angle_beta 90.000000
_cell_angle_gamma 90.000000
_cell_volume 10993.526219
_symmetry_space_group_name_H-M "F M M M"
_symmetry_group_IT_number 69
_symmetry_cell_setting 'orthorhombic'
loop_
_space_group_symop_operation_xyz
x,y,z
-x,-y,z
x,-y,-z
-x,y,-z
-x,-y,-z
x,y,-z
-x,y,z
x,-y,z
x,1/2+y,1/2+z
-x,1/2-y,1/2+z
x,1/2-y,1/2-z
-x,1/2+y,1/2-z
-x,1/2-y,1/2-z
x,1/2+y,1/2-z
-x,1/2+y,1/2+z
x,1/2-y,1/2+z
1/2+x,y,1/2+z
1/2-x,-y,1/2+z
1/2+x,-y,1/2-z
1/2-x,y,1/2-z
1/2-x,-y,1/2-z
1/2+x,y,1/2-z
1/2-x,y,1/2+z
1/2+x,-y,1/2+z
1/2+x,1/2+y,z
1/2-x,1/2-y,z
1/2+x,1/2-y,-z
1/2-x,1/2+y,-z
1/2-x,1/2-y,-z
1/2+x,1/2+y,-z
1/2-x,1/2+y,z
1/2+x,1/2-y,z
loop_
_atom_site_type_symbol
_atom_site_label
_atom_site_fract_x
_atom_site_fract_y
_atom_site_fract_z
Si Si1 0.500000 0.544848 0.578447
Si Si2 0.314395 0.602414 0.867457
Si Si3 0.596745 0.044758 0.729029
Si Si4 0.326849 0.046154 0.128437
Si Si5 0.403213 0.793059 0.717934
Si Si6 0.250000 0.653792 0.250000
Si Si7 0.900668 0.823256 0.926603
O O1 0.500000 0.500000 0.607148
O O2 0.500000 0.542049 0.500000
O O3 0.413256 0.562875 0.600246
O O4 0.380895 0.577366 0.824933
O O5 0.251174 0.570618 0.896828
O O6 0.260018 0.627095 0.814619
O O7 0.357294 0.634721 0.913487
O O8 0.500000 0.048826 0.750364
O O9 0.658349 0.048273 0.791980
O O10 0.606809 0.000000 0.703091
O O11 0.318860 0.000000 0.110876
O O12 0.500000 0.806182 0.726480
O O13 0.396747 0.750000 0.750000
O O14 0.333881 0.820338 0.751881
O O15 0.384186 0.796234 0.638513
O O16 0.000000 0.829019 0.927053
O O17 0.876339 0.808046 0.000000
#
# Coordination Sequence:
#
# PCOD9511167 Si02
#       7
#    16  32  32  32  32  16  32
#     4   9  18  32  46  60  82 122 176 223 265 313
#     4  11  19  30  47  74 101 137 170 211 264 315
#     4  10  18  29  46  69 100 134 173 225 279 320
#     4  10  18  30  45  65  95 131 176 227 270 308
#     4   9  18  34  57  81 106 135 171 211 252 304
#     4  10  19  30  47  80 110 132 160 206 259 310
#     4   9  19  35  54  78 108 139 169 205 252 310
#
# _framework density 17.464824
#
# number of rings (size 3 to 8) (size 9 to 14) (size 15 to 20)
#    0.000    2.250    2.500    1.250    0.000    2.667 
#    1.500    0.000    0.000    9.500    0.000    5.833 
#    0.000    0.000    0.000    0.000    0.000    0.000 
#
# Total GULP energy -267348.017858 kJ/mol
# GULP energy per Si atom -5569.750372 kJ/mol
# Density = 1.742507 g / cm^3
# Si number density = 17.464824 Si / 1000 Ang^3
#
#
#
# Elastic Constant Matrix: (Units=GPa)
#
#
# Indices 1 2 3 4 5 6 
#
# 1 58.5737 33.9705 21.3283 0.0000 0.0000 0.0000
# 2 33.9705 67.4062 27.5508 0.0000 0.0000 0.0000
# 3 21.3283 27.5508 67.5348 0.0000 0.0000 0.0000
# 4 0.0000 0.0000 0.0000 12.3470 0.0000 0.0000
# 5 0.0000 0.0000 0.0000 0.0000 14.9262 0.0000
# 6 0.0000 0.0000 0.0000 0.0000 0.0000 26.6480
#
#
#
# Elastic Compliance Matrix: (Units=1/GPa)
#
#
# Indices 1 2 3 4 5 6 
#
# 1 0.024710 -0.011117 -0.003269 0.000000 0.000000 0.000000
# 2 -0.011117 0.022806 -0.005793 0.000000 0.000000 0.000000
# 3 -0.003269 -0.005793 0.018203 0.000000 0.000000 0.000000
# 4 0.000000 0.000000 0.000000 0.080992 0.000000 0.000000
# 5 0.000000 0.000000 0.000000 0.000000 0.066996 0.000000
# 6 0.000000 0.000000 0.000000 0.000000 0.000000 0.037526
#
#
# Mechanical properties :
#
#
# Convention : Reuss Voigt Hill
#
# Bulk Modulus (GPa) = 39.42947 39.91266 39.67107
# Shear Modulus (GPa) = 16.66426 18.16190 17.41308
#
# Velocity S-wave (km/s) = 3.09230 3.22827 3.16102
# Velocity P-wave (km/s) = 5.94771 6.06617 6.00723
#
# Compressibility (1/GPa) = 0.02536174
#
# Stress axis : x y z
#
# Youngs Moduli (GPa) = 40.46907 43.84857 54.93742
#
# Poissons Ratio (x) = 0.48747 0.17956
# Poissons Ratio (y) = 0.44990 0.31823
# Poissons Ratio (z) = 0.13227 0.25400
#
# Static dielectric constant tensor:
#      x y z
#    x 1.624660 0.000000 0.000000 
#    y 0.000000 1.596680 0.000000 
#    z 0.000000 0.000000 1.612460 
# 
# From -- ./inp_files/23746.got.cif
#   From: 2010.05.17/outbox.cif.g08.bks.cpg/sg69_12_cif.got.tgz:23746.got - 2010.06.03 19:29:58.
