data_PCOD9511662
_publ_section_title
;
Structure prediction by ZEFSAII (Michael W. Deem and Ramdas Pophale) SiO2 
 PCOD9511662
Probable space group: F M M M
;
_chemical_formula_sum "Si O2"
_cell_formula_units_Z 160
_cell_length_a 25.798560
_cell_length_b 18.696869
_cell_length_c 18.806890
_cell_angle_alpha 90.000000
_cell_angle_beta 90.000000
_cell_angle_gamma 90.000000
_cell_volume 9071.546585
_symmetry_space_group_name_H-M "F M M M"
_symmetry_group_IT_number 69
_symmetry_cell_setting 'orthorhombic'
loop_
_space_group_symop_operation_xyz
x,y,z
-x,-y,z
x,-y,-z
-x,y,-z
-x,-y,-z
x,y,-z
-x,y,z
x,-y,z
x,1/2+y,1/2+z
-x,1/2-y,1/2+z
x,1/2-y,1/2-z
-x,1/2+y,1/2-z
-x,1/2-y,1/2-z
x,1/2+y,1/2-z
-x,1/2+y,1/2+z
x,1/2-y,1/2+z
1/2+x,y,1/2+z
1/2-x,-y,1/2+z
1/2+x,-y,1/2-z
1/2-x,y,1/2-z
1/2-x,-y,1/2-z
1/2+x,y,1/2-z
1/2-x,y,1/2+z
1/2+x,-y,1/2+z
1/2+x,1/2+y,z
1/2-x,1/2-y,z
1/2+x,1/2-y,-z
1/2-x,1/2+y,-z
1/2-x,1/2-y,-z
1/2+x,1/2+y,-z
1/2-x,1/2+y,z
1/2+x,1/2-y,z
loop_
_atom_site_type_symbol
_atom_site_label
_atom_site_fract_x
_atom_site_fract_y
_atom_site_fract_z
Si Si1 0.724994 0.660549 0.827498
Si Si2 0.059720 0.707267 0.323386
Si Si3 0.652771 0.760523 0.080542
Si Si4 0.123889 0.918994 0.776144
Si Si5 0.673460 0.083202 0.120400
O O1 0.750000 0.677110 0.750000
O O2 0.699458 0.727602 0.870682
O O3 0.674390 0.613006 0.813633
O O4 0.767637 0.609587 0.864334
O O5 0.068704 0.750000 0.250000
O O6 0.099807 0.735226 0.382214
O O7 0.075649 0.627735 0.300709
O O8 0.000000 0.714353 0.344485
O O9 0.653325 0.846935 0.078898
O O10 0.658431 0.733637 0.000000
O O11 0.139459 0.915355 0.692936
O O12 0.115818 0.000000 0.795835
O O13 0.672379 0.000000 0.094785
#
# Coordination Sequence:
#
# PCOD9511662 Si02
#       5
#    32  32  32  32  32
#     4   9  19  33  55  80 111 149 188 226 263 320
#     4  10  20  37  60  82 104 139 186 232 279 330
#     4  11  23  37  55  82 112 146 187 231 278 329
#     4   9  17  31  54  85 112 139 180 229 274 318
#     4  10  19  32  51  78 114 150 182 220 269 324
#
# _framework density 17.637566
#
# number of rings (size 3 to 8) (size 9 to 14) (size 15 to 20)
#    0.000    2.200    2.000    1.200    0.000    7.600 
#    0.000    0.000    0.000   15.000    0.000    7.000 
#    0.000    0.000    0.000    0.000    0.000    0.000 
#
# Total GULP energy -222693.065623 kJ/mol
# GULP energy per Si atom -5567.326641 kJ/mol
# Density = 1.759742 g / cm^3
# Si number density = 17.637566 Si / 1000 Ang^3
#
#
#
# Elastic Constant Matrix: (Units=GPa)
#
#
# Indices 1 2 3 4 5 6 
#
# 1 67.3610 28.1176 58.1434 0.0000 0.0000 0.0000
# 2 28.1176 149.7621 44.8237 0.0000 0.0000 0.0000
# 3 58.1434 44.8237 74.5523 0.0000 0.0000 0.0000
# 4 0.0000 0.0000 0.0000 7.2085 0.0000 0.0000
# 5 0.0000 0.0000 0.0000 0.0000 -4.8737 0.0000
# 6 0.0000 0.0000 0.0000 0.0000 0.0000 6.4718
#
#
#
# Elastic Compliance Matrix: (Units=1/GPa)
#
#
# Indices 1 2 3 4 5 6 
#
# 1 0.046224 0.002575 -0.037598 0.000000 0.000000 0.000000
# 2 0.002575 0.008286 -0.006990 0.000000 0.000000 0.000000
# 3 -0.037598 -0.006990 0.046939 0.000000 0.000000 0.000000
# 4 0.000000 0.000000 0.000000 0.138725 0.000000 0.000000
# 5 0.000000 0.000000 0.000000 0.000000 -0.205185 0.000000
# 6 0.000000 0.000000 0.000000 0.000000 0.000000 0.154516
#
#
# Mechanical properties :
#
#
# Convention : Reuss Voigt Hill
#
# Bulk Modulus (GPa) = 57.39827 61.53831 59.46829
# Shear Modulus (GPa) = 17.89947 12.46738 15.18343
#
# Velocity S-wave (km/s) = 3.18913 2.66158 2.93722
# Velocity P-wave (km/s) = 6.79519 6.66420 6.73001
#
# Compressibility (1/GPa) = 0.01742213
#
# Stress axis : x y z
#
# Youngs Moduli (GPa) = 21.63383 120.68689 21.30441
#
# Poissons Ratio (x) = -0.31072 0.80100
# Poissons Ratio (y) = -0.05570 0.14891
# Poissons Ratio (z) = 0.81339 0.84357
#
# Static dielectric constant tensor:
#      x y z
#    x 1.575050 0.000000 0.000000 
#    y 0.000000 1.643960 0.000000 
#    z 0.000000 0.000000 1.484450 
# 
# From -- ./inp_files/23093.got.cif
#   From: 2010.05.17/outbox.cif.g08.bks.cpg/sg69_12_cif.got.tgz:23093.got - 2010.06.03 19:29:58.
