data_PCOD9511860
_publ_section_title
;
Structure prediction by ZEFSAII (Michael W. Deem and Ramdas Pophale) SiO2 
 PCOD9511860
Probable space group: F M M M
;
_chemical_formula_sum "Si O2"
_cell_formula_units_Z 192
_cell_length_a 14.807449
_cell_length_b 30.720579
_cell_length_c 24.938757
_cell_angle_alpha 90.000000
_cell_angle_beta 90.000000
_cell_angle_gamma 90.000000
_cell_volume 11344.476133
_symmetry_space_group_name_H-M "F M M M"
_symmetry_group_IT_number 69
_symmetry_cell_setting 'orthorhombic'
loop_
_space_group_symop_operation_xyz
x,y,z
-x,-y,z
x,-y,-z
-x,y,-z
-x,-y,-z
x,y,-z
-x,y,z
x,-y,z
x,1/2+y,1/2+z
-x,1/2-y,1/2+z
x,1/2-y,1/2-z
-x,1/2+y,1/2-z
-x,1/2-y,1/2-z
x,1/2+y,1/2-z
-x,1/2+y,1/2+z
x,1/2-y,1/2+z
1/2+x,y,1/2+z
1/2-x,-y,1/2+z
1/2+x,-y,1/2-z
1/2-x,y,1/2-z
1/2-x,-y,1/2-z
1/2+x,y,1/2-z
1/2-x,y,1/2+z
1/2+x,-y,1/2+z
1/2+x,1/2+y,z
1/2-x,1/2-y,z
1/2+x,1/2-y,-z
1/2-x,1/2+y,-z
1/2-x,1/2-y,-z
1/2+x,1/2+y,-z
1/2-x,1/2+y,z
1/2+x,1/2-y,z
loop_
_atom_site_type_symbol
_atom_site_label
_atom_site_fract_x
_atom_site_fract_y
_atom_site_fract_z
Si Si1 0.644260 0.551149 0.739523
Si Si2 0.303434 0.792477 0.065166
Si Si3 0.500000 0.552305 0.824837
Si Si4 0.674203 0.949175 0.122199
Si Si5 0.000000 0.319522 0.934633
Si Si6 0.500000 0.920769 0.063346
Si Si7 0.796295 0.118160 0.937279
Si Si8 0.000000 0.403462 0.560928
O O1 0.619859 0.500000 0.736248
O O2 0.750000 0.554759 0.750000
O O3 0.585260 0.568093 0.788945
O O4 0.635161 0.568034 0.679082
O O5 0.250000 0.750000 0.084429
O O6 0.407300 0.796715 0.082940
O O7 0.251398 0.836942 0.078835
O O8 0.304545 0.790505 0.000000
O O9 0.500000 0.500000 0.826542
O O10 0.500000 0.566861 0.886243
O O11 0.589927 0.944412 0.082816
O O12 0.755959 0.920478 0.099037
O O13 0.701302 0.000000 0.128323
O O14 0.000000 0.370238 0.918047
O O15 0.000000 0.319239 0.000000
O O16 0.500000 0.919415 0.000000
O O17 0.904764 0.121709 0.935173
O O18 0.772421 0.109352 0.000000
O O19 0.000000 0.423373 0.500000
#
# Coordination Sequence:
#
# PCOD9511860 Si02
#       8
#    32  32  16  32  16  16  32  16
#     4   9  18  32  49  68  91 124 169 221 267 297
#     4   9  17  30  50  72  98 135 173 211 262 316
#     4  10  19  34  52  69  96 132 171 219 263 299
#     4  11  21  32  49  73 101 138 179 215 258 312
#     4   9  16  29  47  69  98 132 166 206 258 312
#     4  11  20  31  46  68 104 142 170 204 254 306
#     4  10  20  34  48  70 105 140 175 219 261 307
#     4  10  22  35  50  71  99 137 172 208 260 313
#
# _framework density 16.924536
#
# number of rings (size 3 to 8) (size 9 to 14) (size 15 to 20)
#    0.000    2.167    1.667    2.250    0.000    5.833 
#    0.000    5.000    0.000    0.000    0.000    0.000 
#    0.000    7.333    0.000    0.000    0.000    0.000 
#
# Total GULP energy -267333.645968 kJ/mol
# GULP energy per Si atom -5569.450958 kJ/mol
# Density = 1.688602 g / cm^3
# Si number density = 16.924536 Si / 1000 Ang^3
#
#
#
# Elastic Constant Matrix: (Units=GPa)
#
#
# Indices 1 2 3 4 5 6 
#
# 1 109.4817 41.6945 36.1167 0.0000 0.0000 0.0000
# 2 41.6945 76.3900 24.1587 0.0000 0.0000 0.0000
# 3 36.1167 24.1587 81.9249 0.0000 0.0000 0.0000
# 4 0.0000 0.0000 0.0000 -2.9077 0.0000 0.0000
# 5 0.0000 0.0000 0.0000 0.0000 27.2806 0.0000
# 6 0.0000 0.0000 0.0000 0.0000 0.0000 114.9315
#
#
#
# Elastic Compliance Matrix: (Units=1/GPa)
#
#
# Indices 1 2 3 4 5 6 
#
# 1 0.012556 -0.005627 -0.003876 0.000000 0.000000 0.000000
# 2 -0.005627 0.016959 -0.002520 0.000000 0.000000 0.000000
# 3 -0.003876 -0.002520 0.014658 0.000000 0.000000 0.000000
# 4 0.000000 0.000000 0.000000 -0.343911 0.000000 0.000000
# 5 0.000000 0.000000 0.000000 0.000000 0.036656 0.000000
# 6 0.000000 0.000000 0.000000 0.000000 0.000000 0.008701
#
#
# Mechanical properties :
#
#
# Convention : Reuss Voigt Hill
#
# Bulk Modulus (GPa) = 49.68611 52.41515 51.05063
# Shear Modulus (GPa) = -22.35876 38.91596 8.27860
#
# Velocity S-wave (km/s) = -3.63862 4.80039 2.21407
# Velocity P-wave (km/s) = 3.43052 7.85889 6.06344
#
# Compressibility (1/GPa) = 0.02012635
#
# Stress axis : x y z
#
# Youngs Moduli (GPa) = 79.64600 58.96509 68.22148
#
# Poissons Ratio (x) = 0.33181 0.26441
# Poissons Ratio (y) = 0.44819 0.17194
# Poissons Ratio (z) = 0.30869 0.14861
#
# Static dielectric constant tensor:
#      x y z
#    x 1.610150 0.000000 0.000000 
#    y 0.000000 1.557970 0.000000 
#    z 0.000000 0.000000 1.596810 
# 
# From -- ./inp_files/41372.got.cif
#   From: 2010.05.17/outbox.cif.g08.bks.cpg/sg69_21_cif.got.tgz:41372.got - 2010.06.03 19:29:58.
