data_PCOD9511925
_publ_section_title
;
Structure prediction by ZEFSAII (Michael W. Deem and Ramdas Pophale) SiO2 
 PCOD9511925
Probable space group: F M M M
;
_chemical_formula_sum "Si O2"
_cell_formula_units_Z 160
_cell_length_a 23.832180
_cell_length_b 17.625180
_cell_length_c 19.657762
_cell_angle_alpha 90.000000
_cell_angle_beta 90.000000
_cell_angle_gamma 90.000000
_cell_volume 8257.173385
_symmetry_space_group_name_H-M "F M M M"
_symmetry_group_IT_number 69
_symmetry_cell_setting 'orthorhombic'
loop_
_space_group_symop_operation_xyz
x,y,z
-x,-y,z
x,-y,-z
-x,y,-z
-x,-y,-z
x,y,-z
-x,y,z
x,-y,z
x,1/2+y,1/2+z
-x,1/2-y,1/2+z
x,1/2-y,1/2-z
-x,1/2+y,1/2-z
-x,1/2-y,1/2-z
x,1/2+y,1/2-z
-x,1/2+y,1/2+z
x,1/2-y,1/2+z
1/2+x,y,1/2+z
1/2-x,-y,1/2+z
1/2+x,-y,1/2-z
1/2-x,y,1/2-z
1/2-x,-y,1/2-z
1/2+x,y,1/2-z
1/2-x,y,1/2+z
1/2+x,-y,1/2+z
1/2+x,1/2+y,z
1/2-x,1/2-y,z
1/2+x,1/2-y,-z
1/2-x,1/2+y,-z
1/2-x,1/2-y,-z
1/2+x,1/2+y,-z
1/2-x,1/2+y,z
1/2+x,1/2-y,z
loop_
_atom_site_type_symbol
_atom_site_label
_atom_site_fract_x
_atom_site_fract_y
_atom_site_fract_z
Si Si1 0.751192 0.841064 0.078762
Si Si2 0.936166 0.408913 0.000000
Si Si3 0.361323 0.409807 0.367790
Si Si4 0.064366 0.287160 0.176343
Si Si5 0.562509 0.500000 0.917415
Si Si6 0.380002 0.342124 0.917518
O O1 0.750000 0.750000 0.081169
O O2 0.701413 0.878587 0.121430
O O3 0.814840 0.857717 0.098737
O O4 0.742607 0.865109 0.000000
O O5 0.898308 0.390683 0.935057
O O6 0.941467 0.500000 0.000000
O O7 0.000000 0.378019 0.000000
O O8 0.360979 0.500000 0.357481
O O9 0.396447 0.360981 0.314581
O O10 0.061522 0.250000 0.250000
O O11 0.093597 0.228290 0.123501
O O12 0.000000 0.304578 0.154742
O O13 0.500000 0.500000 0.890671
O O14 0.589840 0.579628 0.898777
O O15 0.562152 0.500000 0.000000
O O16 0.383954 0.328498 0.000000
#
# Coordination Sequence:
#
# PCOD9511925 Si02
#       6
#    32  16  32  32  16  32
#     4  10  19  34  57  90 128 161 202 247 301 361
#     4   9  18  32  53  88 128 159 194 247 304 365
#     4  11  22  38  61  93 127 164 203 253 313 382
#     4  11  25  44  63  88 123 164 212 265 322 382
#     4   9  18  34  56  88 119 146 197 265 316 359
#     4  10  21  38  63  92 120 160 205 257 313 376
#
# _framework density 19.377091
#
# number of rings (size 3 to 8) (size 9 to 14) (size 15 to 20)
#    0.000    1.800    3.000    1.200    2.800    2.400 
#    1.800    2.000    0.000    1.200    0.000    0.000 
#    0.000    0.000    0.000    0.000    0.000    0.000 
#
# Total GULP energy -223102.065024 kJ/mol
# GULP energy per Si atom -5577.551626 kJ/mol
# Density = 1.933299 g / cm^3
# Si number density = 19.377091 Si / 1000 Ang^3
#
#
#
# Elastic Constant Matrix: (Units=GPa)
#
#
# Indices 1 2 3 4 5 6 
#
# 1 193.2792 79.9752 25.7378 0.0000 0.0000 0.0000
# 2 79.9752 122.0538 18.3500 0.0000 0.0000 0.0000
# 3 25.7378 18.3500 31.0474 0.0000 0.0000 0.0000
# 4 0.0000 0.0000 0.0000 18.5031 0.0000 0.0000
# 5 0.0000 0.0000 0.0000 0.0000 21.1823 0.0000
# 6 0.0000 0.0000 0.0000 0.0000 0.0000 35.3629
#
#
#
# Elastic Compliance Matrix: (Units=1/GPa)
#
#
# Indices 1 2 3 4 5 6 
#
# 1 0.007450 -0.004339 -0.003612 0.000000 0.000000 0.000000
# 2 -0.004339 0.011519 -0.003211 0.000000 0.000000 0.000000
# 3 -0.003612 -0.003211 0.037101 0.000000 0.000000 0.000000
# 4 0.000000 0.000000 0.000000 0.054045 0.000000 0.000000
# 5 0.000000 0.000000 0.000000 0.000000 0.047209 0.000000
# 6 0.000000 0.000000 0.000000 0.000000 0.000000 0.028278
#
#
# Mechanical properties :
#
#
# Convention : Reuss Voigt Hill
#
# Bulk Modulus (GPa) = 29.63280 66.05626 47.84453
# Shear Modulus (GPa) = 22.81290 29.83082 26.32186
#
# Velocity S-wave (km/s) = 3.43492 3.92789 3.68965
# Velocity P-wave (km/s) = 5.57292 7.39831 6.54952
#
# Compressibility (1/GPa) = 0.03374639
#
# Stress axis : x y z
#
# Youngs Moduli (GPa) = 134.22745 86.81497 26.95357
#
# Poissons Ratio (x) = 0.37666 0.09735
# Poissons Ratio (y) = 0.58236 0.08656
# Poissons Ratio (z) = 0.48479 0.27879
#
# Static dielectric constant tensor:
#      x y z
#    x 1.716860 0.000000 0.000000 
#    y 0.000000 1.603330 0.000000 
#    z 0.000000 0.000000 1.717960 
# 
# From -- ./inp_files/32671.got.cif
#   From: 2010.05.17/outbox.cif.g08.bks.cpg/sg69_17_cif.got.tgz:32671.got - 2010.06.03 19:29:58.
