data_PCOD9511274
_publ_section_title
;
Structure prediction by ZEFSAII (Michael W. Deem and Ramdas Pophale) SiO2 
 PCOD9511274
Probable space group: F M M M
;
_chemical_formula_sum "Si O2"
_cell_formula_units_Z 208
_cell_length_a 27.320890
_cell_length_b 27.589699
_cell_length_c 16.976899
_cell_angle_alpha 90.000000
_cell_angle_beta 90.000000
_cell_angle_gamma 90.000000
_cell_volume 12796.764276
_symmetry_space_group_name_H-M "F M M M"
_symmetry_group_IT_number 69
_symmetry_cell_setting 'orthorhombic'
loop_
_space_group_symop_operation_xyz
x,y,z
-x,-y,z
x,-y,-z
-x,y,-z
-x,-y,-z
x,y,-z
-x,y,z
x,-y,z
x,1/2+y,1/2+z
-x,1/2-y,1/2+z
x,1/2-y,1/2-z
-x,1/2+y,1/2-z
-x,1/2-y,1/2-z
x,1/2+y,1/2-z
-x,1/2+y,1/2+z
x,1/2-y,1/2+z
1/2+x,y,1/2+z
1/2-x,-y,1/2+z
1/2+x,-y,1/2-z
1/2-x,y,1/2-z
1/2-x,-y,1/2-z
1/2+x,y,1/2-z
1/2-x,y,1/2+z
1/2+x,-y,1/2+z
1/2+x,1/2+y,z
1/2-x,1/2-y,z
1/2+x,1/2-y,-z
1/2-x,1/2+y,-z
1/2-x,1/2-y,-z
1/2+x,1/2+y,-z
1/2-x,1/2+y,z
1/2+x,1/2-y,z
loop_
_atom_site_type_symbol
_atom_site_label
_atom_site_fract_x
_atom_site_fract_y
_atom_site_fract_z
Si Si1 0.292889 0.626475 0.694242
Si Si2 0.558008 0.292888 0.907799
Si Si3 0.359808 0.301290 0.796298
Si Si4 0.556089 0.000000 0.904696
Si Si5 0.945776 0.178451 0.405817
Si Si6 0.772495 0.803157 0.087502
Si Si7 0.623669 0.591280 0.595134
O O1 0.250000 0.605214 0.750000
O O2 0.331066 0.658838 0.744871
O O3 0.263420 0.663302 0.637911
O O4 0.325396 0.590607 0.641716
O O5 0.500000 0.302215 0.901322
O O6 0.589081 0.316260 0.837098
O O7 0.565427 0.234939 0.894277
O O8 0.571759 0.303181 0.000000
O O9 0.363116 0.250000 0.750000
O O10 0.324109 0.295659 0.870883
O O11 0.587277 0.047497 0.883813
O O12 0.500000 0.000000 0.875354
O O13 0.553054 0.000000 0.000000
O O14 0.949254 0.172076 0.500000
O O15 0.904311 0.141044 0.381683
O O16 0.000000 0.167925 0.372616
O O17 0.750000 0.750000 0.083852
O O18 0.777796 0.823274 0.000000
O O19 0.631255 0.590985 0.500000
#
# Coordination Sequence:
#
# PCOD9511274 Si02
#       7
#    32  32  32  16  32  32  32
#     4  10  21  32  44  63  94 122 155 195 239 263
#     4   9  18  31  44  59  82 118 161 195 225 268
#     4  11  19  29  42  61  89 118 151 197 240 267
#     4   9  18  32  53  78  98 114 138 181 230 277
#     4   8  14  24  40  62  85 108 139 181 222 264
#     4  10  19  30  45  62  83 119 165 201 232 266
#     4  10  18  31  50  70  91 118 151 182 224 284
#
# _framework density 16.254109
#
# number of rings (size 3 to 8) (size 9 to 14) (size 15 to 20)
#    0.000    2.385    1.538    3.231    0.000    2.154 
#    0.000    1.923    0.000    0.000    0.000    0.000 
#    0.000    0.000    0.000    0.000    0.000   30.154 
#
# Total GULP energy -289567.028816 kJ/mol
# GULP energy per Si atom -5568.596708 kJ/mol
# Density = 1.621711 g / cm^3
# Si number density = 16.254109 Si / 1000 Ang^3
#
#
#
# Elastic Constant Matrix: (Units=GPa)
#
#
# Indices 1 2 3 4 5 6 
#
# 1 100.0771 21.4322 52.3917 0.0000 0.0000 0.0000
# 2 21.4322 10.1635 8.0031 0.0000 0.0000 0.0000
# 3 52.3917 8.0031 69.0515 0.0000 0.0000 0.0000
# 4 0.0000 0.0000 0.0000 10.1798 0.0000 0.0000
# 5 0.0000 0.0000 0.0000 0.0000 41.2171 0.0000
# 6 0.0000 0.0000 0.0000 0.0000 0.0000 13.2503
#
#
#
# Elastic Compliance Matrix: (Units=1/GPa)
#
#
# Indices 1 2 3 4 5 6 
#
# 1 0.028751 -0.047815 -0.016273 0.000000 0.000000 0.000000
# 2 -0.047815 0.187791 0.014514 0.000000 0.000000 0.000000
# 3 -0.016273 0.014514 0.025147 0.000000 0.000000 0.000000
# 4 0.000000 0.000000 0.000000 0.098234 0.000000 0.000000
# 5 0.000000 0.000000 0.000000 0.000000 0.024262 0.000000
# 6 0.000000 0.000000 0.000000 0.000000 0.000000 0.075470
#
#
# Mechanical properties :
#
#
# Convention : Reuss Voigt Hill
#
# Bulk Modulus (GPa) = 7.01551 38.10511 22.56031
# Shear Modulus (GPa) = 8.52782 19.42711 13.97746
#
# Velocity S-wave (km/s) = 2.29302 3.46093 2.93564
# Velocity P-wave (km/s) = 3.36692 6.28212 5.03990
#
# Compressibility (1/GPa) = 0.14254132
#
# Stress axis : x y z
#
# Youngs Moduli (GPa) = 34.78108 5.32506 39.76689
#
# Poissons Ratio (x) = 0.25462 0.64712
# Poissons Ratio (y) = 1.66306 -0.57717
# Poissons Ratio (z) = 0.56599 -0.07729
#
# Static dielectric constant tensor:
#      x y z
#    x 1.591250 0.000000 0.000000 
#    y 0.000000 1.524950 0.000000 
#    z 0.000000 0.000000 1.583970 
# 
# From -- ./inp_files/26175.got.cif
#   From: 2010.05.17/outbox.cif.g08.bks.cpg/sg69_14_cif.got.tgz:26175.got - 2010.06.03 19:29:58.
