data_PCOD9511091
_publ_section_title
;
Structure prediction by ZEFSAII (Michael W. Deem and Ramdas Pophale) SiO2 
 PCOD9511091
Probable space group: F M M M
;
_chemical_formula_sum "Si O2"
_cell_formula_units_Z 200
_cell_length_a 20.738194
_cell_length_b 17.391368
_cell_length_c 31.643354
_cell_angle_alpha 90.000000
_cell_angle_beta 90.000000
_cell_angle_gamma 90.000000
_cell_volume 11412.668102
_symmetry_space_group_name_H-M "F M M M"
_symmetry_group_IT_number 69
_symmetry_cell_setting 'orthorhombic'
loop_
_space_group_symop_operation_xyz
x,y,z
-x,-y,z
x,-y,-z
-x,y,-z
-x,-y,-z
x,y,-z
-x,y,z
x,-y,z
x,1/2+y,1/2+z
-x,1/2-y,1/2+z
x,1/2-y,1/2-z
-x,1/2+y,1/2-z
-x,1/2-y,1/2-z
x,1/2+y,1/2-z
-x,1/2+y,1/2+z
x,1/2-y,1/2+z
1/2+x,y,1/2+z
1/2-x,-y,1/2+z
1/2+x,-y,1/2-z
1/2-x,y,1/2-z
1/2-x,-y,1/2-z
1/2+x,y,1/2-z
1/2-x,y,1/2+z
1/2+x,-y,1/2+z
1/2+x,1/2+y,z
1/2-x,1/2-y,z
1/2+x,1/2-y,-z
1/2-x,1/2+y,-z
1/2-x,1/2-y,-z
1/2+x,1/2+y,-z
1/2-x,1/2+y,z
1/2+x,1/2-y,z
loop_
_atom_site_type_symbol
_atom_site_label
_atom_site_fract_x
_atom_site_fract_y
_atom_site_fract_z
Si Si1 0.571779 0.200601 0.601178
Si Si2 0.758991 0.909310 0.375190
Si Si3 0.423025 0.590819 0.738606
Si Si4 0.500000 0.000000 0.129609
Si Si5 0.200469 0.821653 0.950988
Si Si6 0.630152 0.907627 0.670496
Si Si7 0.400583 0.859728 0.146422
O O1 0.500000 0.190433 0.583176
O O2 0.629836 0.198463 0.567362
O O3 0.586568 0.135259 0.636086
O O4 0.574917 0.281411 0.625804
O O5 0.729939 0.886351 0.420489
O O6 0.703732 0.887537 0.341403
O O7 0.826541 0.869231 0.366940
O O8 0.769130 0.000000 0.372335
O O9 0.500000 0.595652 0.744386
O O10 0.408500 0.500000 0.729976
O O11 0.388749 0.613696 0.781912
O O12 0.404796 0.638574 0.697315
O O13 0.556101 0.068063 0.131740
O O14 0.250000 0.750000 0.947409
O O15 0.196651 0.843664 0.000000
O O16 0.622566 0.000000 0.666717
#
# Coordination Sequence:
#
# PCOD9511091 Si02
#       7
#    32  32  32   8  32  32  32
#     4  11  22  36  58  87 113 146 191 231 279 340
#     4  10  20  36  58  83 110 146 188 230 279 336
#     4  10  17  31  51  74 110 154 193 230 281 330
#     4  12  20  36  52  84 119 152 186 236 281 338
#     4  10  21  39  61  83 109 143 178 224 282 340
#     4   9  21  36  53  78 112 153 193 239 282 321
#     4  12  20  33  55  83 112 151 193 232 277 332
#
# _framework density 17.524387000000001
#
# number of rings (size 3 to 8) (size 9 to 14) (size 15 to 20)
#    0.000    1.600    4.800    0.480    0.000    2.880 
#    0.000    4.000    0.000    1.920    0.000    5.600 
#    0.000    0.000    0.000    0.000    0.000    0.000 
#
# Total GULP energy -278452.827415 kJ/mol
# GULP energy per Si atom -5569.056548 kJ/mol
# Density = 1.748450 g / cm^3
# Si number density = 17.524387 Si / 1000 Ang^3
#
#
#
# Elastic Constant Matrix: (Units=GPa)
#
#
# Indices 1 2 3 4 5 6 
#
# 1 138.6310 19.1629 46.4031 0.0000 0.0000 0.0000
# 2 19.1629 22.5952 -0.1123 0.0000 0.0000 0.0000
# 3 46.4031 -0.1123 80.6914 0.0000 0.0000 0.0000
# 4 0.0000 0.0000 0.0000 27.1317 0.0000 0.0000
# 5 0.0000 0.0000 0.0000 0.0000 31.7591 0.0000
# 6 0.0000 0.0000 0.0000 0.0000 0.0000 25.4762
#
#
#
# Elastic Compliance Matrix: (Units=1/GPa)
#
#
# Indices 1 2 3 4 5 6 
#
# 1 0.010462 -0.008903 -0.006029 0.000000 0.000000 0.000000
# 2 -0.008903 0.051833 0.005192 0.000000 0.000000 0.000000
# 3 -0.006029 0.005192 0.015867 0.000000 0.000000 0.000000
# 4 0.000000 0.000000 0.000000 0.036857 0.000000 0.000000
# 5 0.000000 0.000000 0.000000 0.000000 0.031487 0.000000
# 6 0.000000 0.000000 0.000000 0.000000 0.000000 0.039252
#
#
# Mechanical properties :
#
#
# Convention : Reuss Voigt Hill
#
# Bulk Modulus (GPa) = 17.04069 41.42499 29.23284
# Shear Modulus (GPa) = 22.24207 28.63767 25.43987
#
# Velocity S-wave (km/s) = 3.56646 4.04686 3.81423
# Velocity P-wave (km/s) = 5.16765 6.74729 6.00960
#
# Compressibility (1/GPa) = 0.05868306
#
# Stress axis : x y z
#
# Youngs Moduli (GPa) = 95.58431 19.29259 63.02370
#
# Poissons Ratio (x) = 0.17176 0.37995
# Poissons Ratio (y) = 0.85096 -0.32720
# Poissons Ratio (z) = 0.57625 -0.10016
#
# Static dielectric constant tensor:
#      x y z
#    x 1.626390 0.000000 0.000000 
#    y 0.000000 1.592470 0.000000 
#    z 0.000000 0.000000 1.573380 
# 
# From -- ./inp_files/42729.got.cif
#   From: 2010.05.17/outbox.cif.g08.bks.cpg/sg69_22_cif.got.tgz:42729.got - 2010.06.03 19:29:58.
