data_PCOD9511792
_publ_section_title
;
Structure prediction by ZEFSAII (Michael W. Deem and Ramdas Pophale) SiO2 
 PCOD9511792
Probable space group: F M M M
;
_chemical_formula_sum "Si O2"
_cell_formula_units_Z 144
_cell_length_a 27.671109
_cell_length_b 8.051988
_cell_length_c 32.765979
_cell_angle_alpha 90.000000
_cell_angle_beta 90.000000
_cell_angle_gamma 90.000000
_cell_volume 7300.503822
_symmetry_space_group_name_H-M "F M M M"
_symmetry_group_IT_number 69
_symmetry_cell_setting 'orthorhombic'
loop_
_space_group_symop_operation_xyz
x,y,z
-x,-y,z
x,-y,-z
-x,y,-z
-x,-y,-z
x,y,-z
-x,y,z
x,-y,z
x,1/2+y,1/2+z
-x,1/2-y,1/2+z
x,1/2-y,1/2-z
-x,1/2+y,1/2-z
-x,1/2-y,1/2-z
x,1/2+y,1/2-z
-x,1/2+y,1/2+z
x,1/2-y,1/2+z
1/2+x,y,1/2+z
1/2-x,-y,1/2+z
1/2+x,-y,1/2-z
1/2-x,y,1/2-z
1/2-x,-y,1/2-z
1/2+x,y,1/2-z
1/2-x,y,1/2+z
1/2+x,-y,1/2+z
1/2+x,1/2+y,z
1/2-x,1/2-y,z
1/2+x,1/2-y,-z
1/2-x,1/2+y,-z
1/2-x,1/2-y,-z
1/2+x,1/2+y,-z
1/2-x,1/2+y,z
1/2+x,1/2-y,z
loop_
_atom_site_type_symbol
_atom_site_label
_atom_site_fract_x
_atom_site_fract_y
_atom_site_fract_z
Si Si1 0.556051 0.202675 0.500000
Si Si2 0.846055 0.699678 0.794493
Si Si3 0.946597 0.302443 0.828561
Si Si4 0.196630 0.698693 0.879481
Si Si5 0.903463 0.803440 0.086247
O O1 0.500000 0.248951 0.500000
O O2 0.580362 0.259722 0.542028
O O3 0.558799 0.000000 0.500000
O O4 0.847478 0.500000 0.796057
O O5 0.828840 0.750000 0.750000
O O6 0.900841 0.763707 0.802937
O O7 0.813880 0.755903 0.832799
O O8 0.948501 0.500000 0.821356
O O9 0.932352 0.276020 0.875925
O O10 0.000000 0.232698 0.819948
O O11 0.192483 0.500000 0.880586
O O12 0.250000 0.750000 0.892194
O O13 0.153041 0.771324 0.905986
O O14 0.913061 0.000000 0.088173
#
# Coordination Sequence:
#
# PCOD9511792 Si02
#       5
#    16  32  32  32  32
#     4   9  18  32  52  81 114 141 168 207 250 293
#     4   9  19  33  49  72 102 133 168 212 257 304
#     4   9  18  33  50  70 102 141 176 213 257 302
#     4  10  21  38  57  77 102 133 170 212 259 307
#     4  10  19  33  54  79 106 136 172 212 255 304
#
# _framework density 19.724665999999999
#
# number of rings (size 3 to 8) (size 9 to 14) (size 15 to 20)
#    0.000    2.556    0.000    3.333    0.000    6.667 
#    0.000    5.000    0.000    4.000    0.000    0.000 
#    0.000    0.000    0.000    0.000    0.000    0.000 
#
# Total GULP energy -200876.518911 kJ/mol
# GULP energy per Si atom -5579.903303 kJ/mol
# Density = 1.967977 g / cm^3
# Si number density = 19.724666 Si / 1000 Ang^3
#
#
#
# Elastic Constant Matrix: (Units=GPa)
#
#
# Indices 1 2 3 4 5 6 
#
# 1 74.4588 -11.4426 7.2258 0.0000 -0.0001 -0.0001
# 2 -11.4426 11.1169 -10.9187 0.0000 -0.0003 0.0004
# 3 7.2258 -10.9187 88.8441 0.0000 -0.0001 -0.0002
# 4 0.0000 0.0000 0.0000 21.6221 0.0001 0.0000
# 5 -0.0001 -0.0003 -0.0001 0.0001 -3.1089 -0.0001
# 6 -0.0001 0.0004 -0.0002 0.0000 -0.0001 12.5116
#
#
#
# Elastic Compliance Matrix: (Units=1/GPa)
#
#
# Indices 1 2 3 4 5 6 
#
# 1 0.016006 0.017283 0.000822 0.000000 -0.000002 0.000000
# 2 0.017283 0.120963 0.013460 0.000000 -0.000013 -0.000004
# 3 0.000822 0.013460 0.012843 0.000000 -0.000002 0.000000
# 4 0.000000 0.000000 0.000000 0.046249 0.000001 0.000000
# 5 -0.000002 -0.000013 -0.000002 0.000001 -0.321653 -0.000002
# 6 0.000000 -0.000004 0.000000 0.000000 -0.000002 0.079926
#
#
# Mechanical properties :
#
#
# Convention : Reuss Voigt Hill
#
# Bulk Modulus (GPa) = 4.69609 16.01655 10.35632
# Shear Modulus (GPa) = -132.21800 18.84198 -56.68801
#
# Velocity S-wave (km/s) = -8.19618 3.09406 -5.36675
# Velocity P-wave (km/s) = 9.33723 4.57187 5.75681
#
# Compressibility (1/GPa) = 0.21294296
#
# Stress axis : x y z
#
# Youngs Moduli (GPa) = 62.47483 8.26702 77.86326
#
# Poissons Ratio (x) = -0.14288 -0.06402
# Poissons Ratio (y) = -1.07975 -1.04806
# Poissons Ratio (z) = -0.05137 -0.11128
#
# Static dielectric constant tensor:
#      x y z
#    x 1.698210 0.000000 0.000000 
#    y 0.000000 1.705000 0.000000 
#    z 0.000000 0.000000 1.679740 
# 
# From -- ./inp_files/5556.got.cif
#   From: 2010.05.17/outbox.cif.g08.bks.cpg/sg69_3_cif.got.tgz:5556.got - 2010.06.03 19:29:58.
