data_PCOD9511934
_publ_section_title
;
Structure prediction by ZEFSAII (Michael W. Deem and Ramdas Pophale) SiO2 
 PCOD9511934
Probable space group: F M M M
;
_chemical_formula_sum "Si O2"
_cell_formula_units_Z 144
_cell_length_a 16.406074
_cell_length_b 27.153870
_cell_length_c 18.133043
_cell_angle_alpha 90.000000
_cell_angle_beta 90.000000
_cell_angle_gamma 90.000000
_cell_volume 8078.060324
_symmetry_space_group_name_H-M "F M M M"
_symmetry_group_IT_number 69
_symmetry_cell_setting 'orthorhombic'
loop_
_space_group_symop_operation_xyz
x,y,z
-x,-y,z
x,-y,-z
-x,y,-z
-x,-y,-z
x,y,-z
-x,y,z
x,-y,z
x,1/2+y,1/2+z
-x,1/2-y,1/2+z
x,1/2-y,1/2-z
-x,1/2+y,1/2-z
-x,1/2-y,1/2-z
x,1/2+y,1/2-z
-x,1/2+y,1/2+z
x,1/2-y,1/2+z
1/2+x,y,1/2+z
1/2-x,-y,1/2+z
1/2+x,-y,1/2-z
1/2-x,y,1/2-z
1/2-x,-y,1/2-z
1/2+x,y,1/2-z
1/2-x,y,1/2+z
1/2+x,-y,1/2+z
1/2+x,1/2+y,z
1/2-x,1/2-y,z
1/2+x,1/2-y,-z
1/2-x,1/2+y,-z
1/2-x,1/2-y,-z
1/2+x,1/2+y,-z
1/2-x,1/2+y,z
1/2+x,1/2-y,z
loop_
_atom_site_type_symbol
_atom_site_label
_atom_site_fract_x
_atom_site_fract_y
_atom_site_fract_z
Si Si1 0.500000 0.941780 0.587608
Si Si2 0.161213 0.557531 0.828702
Si Si3 0.407652 0.358230 0.587149
Si Si4 0.255866 0.805857 0.838564
Si Si5 0.662635 0.097012 0.336621
O O1 0.500000 0.934507 0.500000
O O2 0.581796 0.919299 0.622182
O O3 0.500000 0.000000 0.603274
O O4 0.144516 0.500000 0.818542
O O5 0.105687 0.585417 0.887495
O O6 0.255454 0.565480 0.853073
O O7 0.150957 0.586395 0.750848
O O8 0.393439 0.353257 0.500000
O O9 0.500000 0.342954 0.603802
O O10 0.340720 0.327653 0.632121
O O11 0.250000 0.803949 0.750000
O O12 0.250000 0.750000 0.866728
O O13 0.187426 0.846939 0.856781
#
# Coordination Sequence:
#
# PCOD9511934 Si02
#       5
#    16  32  32  32  32
#     4  11  24  38  56  87 127 163 195 240 297 354
#     4  10  19  34  58  85 113 153 197 233 281 344
#     4  10  22  39  57  83 119 153 189 239 292 342
#     4  10  20  40  64  88 111 148 197 245 299 351
#     4  10  19  37  57  85 116 152 191 242 285 346
#
# _framework density 17.826060999999999
#
# number of rings (size 3 to 8) (size 9 to 14) (size 15 to 20)
#    0.000    1.889    4.444    2.667    1.556    4.889 
#    2.000    2.222    0.000    0.000    0.000    0.000 
#    0.000    0.000    0.000    0.000    0.000    0.000 
#
# Total GULP energy -200648.168521 kJ/mol
# GULP energy per Si atom -5573.560237 kJ/mol
# Density = 1.778549 g / cm^3
# Si number density = 17.826061 Si / 1000 Ang^3
#
#
#
# Elastic Constant Matrix: (Units=GPa)
#
#
# Indices 1 2 3 4 5 6 
#
# 1 139.1602 67.7927 72.2190 0.0000 0.0000 0.0000
# 2 67.7927 154.8488 46.2712 0.0000 0.0000 0.0000
# 3 72.2190 46.2712 54.4187 0.0000 0.0000 0.0000
# 4 0.0000 0.0000 0.0000 8.0234 0.0000 0.0000
# 5 0.0000 0.0000 0.0000 0.0000 27.4139 0.0000
# 6 0.0000 0.0000 0.0000 0.0000 0.0000 9.7999
#
#
#
# Elastic Compliance Matrix: (Units=1/GPa)
#
#
# Indices 1 2 3 4 5 6 
#
# 1 0.023275 -0.001287 -0.029793 0.000000 0.000000 0.000000
# 2 -0.001287 0.008729 -0.005714 0.000000 0.000000 0.000000
# 3 -0.029793 -0.005714 0.062773 0.000000 0.000000 0.000000
# 4 0.000000 0.000000 0.000000 0.124635 0.000000 0.000000
# 5 0.000000 0.000000 0.000000 0.000000 0.036478 0.000000
# 6 0.000000 0.000000 0.000000 0.000000 0.000000 0.102041
#
#
# Mechanical properties :
#
#
# Convention : Reuss Voigt Hill
#
# Bulk Modulus (GPa) = 47.19662 80.11039 63.65351
# Shear Modulus (GPa) = 11.40035 19.85710 15.62873
#
# Velocity S-wave (km/s) = 2.53164 3.34119 2.96418
# Velocity P-wave (km/s) = 5.92278 7.74095 6.89208
#
# Compressibility (1/GPa) = 0.02118796
#
# Stress axis : x y z
#
# Youngs Moduli (GPa) = 42.96535 114.56384 15.93029
#
# Poissons Ratio (x) = 0.14743 0.47462
# Poissons Ratio (y) = 0.05529 0.09103
# Poissons Ratio (z) = 1.28009 0.65463
#
# Static dielectric constant tensor:
#      x y z
#    x 1.590690 0.000000 0.000000 
#    y 0.000000 1.636860 0.000000 
#    z 0.000000 0.000000 1.609980 
# 
# From -- ./inp_files/21746.got.cif
#   From: 2010.05.17/outbox.cif.g08.bks.cpg/sg69_11_cif.got.tgz:21746.got - 2010.06.03 19:29:58.
