data_PCOD9511848
_publ_section_title
;
Structure prediction by ZEFSAII (Michael W. Deem and Ramdas Pophale) SiO2 
 PCOD9511848
Probable space group: F M M M
;
_chemical_formula_sum "Si O2"
_cell_formula_units_Z 144
_cell_length_a 20.598690
_cell_length_b 20.958561
_cell_length_c 14.869084
_cell_angle_alpha 90.000000
_cell_angle_beta 90.000000
_cell_angle_gamma 90.000000
_cell_volume 6419.264602
_symmetry_space_group_name_H-M "F M M M"
_symmetry_group_IT_number 69
_symmetry_cell_setting 'orthorhombic'
loop_
_space_group_symop_operation_xyz
x,y,z
-x,-y,z
x,-y,-z
-x,y,-z
-x,-y,-z
x,y,-z
-x,y,z
x,-y,z
x,1/2+y,1/2+z
-x,1/2-y,1/2+z
x,1/2-y,1/2-z
-x,1/2+y,1/2-z
-x,1/2-y,1/2-z
x,1/2+y,1/2-z
-x,1/2+y,1/2+z
x,1/2-y,1/2+z
1/2+x,y,1/2+z
1/2-x,-y,1/2+z
1/2+x,-y,1/2-z
1/2-x,y,1/2-z
1/2-x,-y,1/2-z
1/2+x,y,1/2-z
1/2-x,y,1/2+z
1/2+x,-y,1/2+z
1/2+x,1/2+y,z
1/2-x,1/2-y,z
1/2+x,1/2-y,-z
1/2-x,1/2+y,-z
1/2-x,1/2-y,-z
1/2+x,1/2+y,-z
1/2-x,1/2+y,z
1/2+x,1/2-y,z
loop_
_atom_site_type_symbol
_atom_site_label
_atom_site_fract_x
_atom_site_fract_y
_atom_site_fract_z
Si Si1 0.000000 0.232066 0.110118
Si Si2 0.500000 0.878676 0.889862
Si Si3 0.608731 0.135087 0.604814
Si Si4 0.251676 0.677269 0.642987
Si Si5 0.577154 0.000000 0.603159
Si Si6 0.139487 0.570915 0.892159
O O1 0.000000 0.304954 0.140461
O O2 0.936590 0.192100 0.139865
O O3 0.000000 0.235659 0.000000
O O4 0.433302 0.912014 0.860641
O O5 0.500000 0.879261 0.000000
O O6 0.588588 0.129354 0.500000
O O7 0.684245 0.148331 0.610117
O O8 0.596912 0.066184 0.647725
O O9 0.250000 0.681570 0.750000
O O10 0.250000 0.750000 0.607365
O O11 0.311353 0.629789 0.623556
O O12 0.500000 0.000000 0.596633
O O13 0.604680 0.000000 0.500000
O O14 0.160033 0.500000 0.858878
O O15 0.135820 0.566423 0.000000
#
# Coordination Sequence:
#
# PCOD9511848 Si02
#       6
#    16  16  32  32  16  32
#     4   9  16  28  53  88 115 142 181 228 284 341
#     4   9  17  32  57  86 114 141 181 237 287 331
#     4  10  19  33  57  86 115 146 186 234 285 339
#     4  11  25  42  57  79 116 158 196 237 285 336
#     4   9  16  30  53  86 120 143 175 232 289 343
#     4  10  21  38  62  89 114 146 190 238 288 339
#
# _framework density 22.432476000000001
#
# number of rings (size 3 to 8) (size 9 to 14) (size 15 to 20)
#    0.000    2.111    1.111    2.333    1.556    5.333 
#    0.000    1.111    0.000    4.000    0.000    0.000 
#    0.000    0.000    0.000    0.000    0.000    0.000 
#
# Total GULP energy -200979.990725 kJ/mol
# GULP energy per Si atom -5582.777520 kJ/mol
# Density = 2.238142 g / cm^3
# Si number density = 22.432476 Si / 1000 Ang^3
#
#
#
# Elastic Constant Matrix: (Units=GPa)
#
#
# Indices 1 2 3 4 5 6 
#
# 1 146.1280 82.4624 -1.5543 0.0000 0.0000 0.0000
# 2 82.4624 205.0723 17.0627 0.0000 0.0000 0.0000
# 3 -1.5543 17.0627 49.0590 0.0000 0.0000 0.0000
# 4 0.0000 0.0000 0.0000 -17.4276 0.0000 0.0000
# 5 0.0000 0.0000 0.0000 0.0000 -68.3793 0.0000
# 6 0.0000 0.0000 0.0000 0.0000 0.0000 34.0834
#
#
#
# Elastic Compliance Matrix: (Units=1/GPa)
#
#
# Indices 1 2 3 4 5 6 
#
# 1 0.008970 -0.003739 0.001585 0.000000 0.000000 0.000000
# 2 -0.003739 0.006580 -0.002407 0.000000 0.000000 0.000000
# 3 0.001585 -0.002407 0.021271 0.000000 0.000000 0.000000
# 4 0.000000 0.000000 0.000000 -0.057380 0.000000 0.000000
# 5 0.000000 0.000000 0.000000 0.000000 -0.014624 0.000000
# 6 0.000000 0.000000 0.000000 0.000000 0.000000 0.029340
#
#
# Mechanical properties :
#
#
# Convention : Reuss Voigt Hill
#
# Bulk Modulus (GPa) = 36.10298 66.24454 51.17376
# Shear Modulus (GPa) = 399.62461 9.80787 204.71624
#
# Velocity S-wave (km/s) = 13.36160 2.09324 9.56331
# Velocity P-wave (km/s) = 15.94278 5.95290 12.03348
#
# Compressibility (1/GPa) = 0.02769854
#
# Stress axis : x y z
#
# Youngs Moduli (GPa) = 111.48216 151.97505 47.01243
#
# Poissons Ratio (x) = 0.56821 -0.07449
# Poissons Ratio (y) = 0.41681 0.11316
# Poissons Ratio (z) = -0.17665 0.36580
#
# Static dielectric constant tensor:
#      x y z
#    x 1.768470 0.000000 0.000000 
#    y 0.000000 1.846570 0.000000 
#    z 0.000000 0.000000 1.863410 
# 
# From -- ./inp_files/24504.got.cif
#   From: 2010.05.17/outbox.cif.g08.bks.cpg/sg69_13_cif.got.tgz:24504.got - 2010.06.03 19:29:58.
