data_PCOD9511887
_publ_section_title
;
Structure prediction by ZEFSAII (Michael W. Deem and Ramdas Pophale) SiO2 
 PCOD9511887
Probable space group: F M M M
;
_chemical_formula_sum "Si O2"
_cell_formula_units_Z 160
_cell_length_a 25.321738
_cell_length_b 15.586107
_cell_length_c 21.714687
_cell_angle_alpha 90.000000
_cell_angle_beta 90.000000
_cell_angle_gamma 90.000000
_cell_volume 8570.077277
_symmetry_space_group_name_H-M "F M M M"
_symmetry_group_IT_number 69
_symmetry_cell_setting 'orthorhombic'
loop_
_space_group_symop_operation_xyz
x,y,z
-x,-y,z
x,-y,-z
-x,y,-z
-x,-y,-z
x,y,-z
-x,y,z
x,-y,z
x,1/2+y,1/2+z
-x,1/2-y,1/2+z
x,1/2-y,1/2-z
-x,1/2+y,1/2-z
-x,1/2-y,1/2-z
x,1/2+y,1/2-z
-x,1/2+y,1/2+z
x,1/2-y,1/2+z
1/2+x,y,1/2+z
1/2-x,-y,1/2+z
1/2+x,-y,1/2-z
1/2-x,y,1/2-z
1/2-x,-y,1/2-z
1/2+x,y,1/2-z
1/2-x,y,1/2+z
1/2+x,-y,1/2+z
1/2+x,1/2+y,z
1/2-x,1/2-y,z
1/2+x,1/2-y,-z
1/2-x,1/2+y,-z
1/2-x,1/2-y,-z
1/2+x,1/2+y,-z
1/2-x,1/2+y,z
1/2+x,1/2-y,z
loop_
_atom_site_type_symbol
_atom_site_label
_atom_site_fract_x
_atom_site_fract_y
_atom_site_fract_z
Si Si1 0.724371 0.602293 0.432974
Si Si2 0.500000 0.900138 0.111974
Si Si3 0.277032 0.157098 0.689689
Si Si4 0.115423 0.898433 0.764307
Si Si5 0.000000 0.352435 0.255253
Si Si6 0.613864 0.604659 0.381141
O O1 0.741461 0.634951 0.500000
O O2 0.718926 0.500000 0.437107
O O3 0.762364 0.618107 0.375729
O O4 0.665890 0.636024 0.415626
O O5 0.500000 0.894554 0.186807
O O6 0.557133 0.863446 0.093991
O O7 0.500000 0.000000 0.093404
O O8 0.250000 0.112969 0.750000
O O9 0.250000 0.250000 0.687808
O O10 0.339284 0.154118 0.701348
O O11 0.118516 0.875678 0.691552
O O12 0.055421 0.880205 0.784799
O O13 0.126383 0.000000 0.770527
O O14 0.000000 0.250000 0.250000
O O15 0.612372 0.500000 0.384773
#
# Coordination Sequence:
#
# PCOD9511887 Si02
#       6
#    32  16  32  32  16  32
#     4  10  20  34  51  73 103 143 187 226 271 334
#     4   8  14  26  43  64  94 135 177 211 256 323
#     4  11  23  34  54  80 112 140 182 233 282 330
#     4  10  19  34  55  77 106 146 187 224 273 333
#     4  10  20  28  48  77 114 139 172 228 284 325
#     4   8  14  26  45  68  95 129 172 219 259 308
#
# _framework density 18.669611
#
# number of rings (size 3 to 8) (size 9 to 14) (size 15 to 20)
#    0.000    2.400    2.000    2.700    2.800    1.200 
#    0.000    0.500    0.000    3.000    0.000    0.700 
#    0.000    3.200    0.000    0.000    0.000    0.000 
#
# Total GULP energy -222907.870000 kJ/mol
# GULP energy per Si atom -5572.696750 kJ/mol
# Density = 1.862712 g / cm^3
# Si number density = 18.669611 Si / 1000 Ang^3
#
#
#
# Elastic Constant Matrix: (Units=GPa)
#
#
# Indices 1 2 3 4 5 6 
#
# 1 112.0883 18.7168 42.3696 0.0000 0.0000 0.0000
# 2 18.7168 46.6474 7.7986 0.0000 0.0000 0.0000
# 3 42.3696 7.7986 97.5355 0.0000 0.0000 0.0000
# 4 0.0000 0.0000 0.0000 7.1074 0.0000 0.0000
# 5 0.0000 0.0000 0.0000 0.0000 -8.0245 0.0000
# 6 0.0000 0.0000 0.0000 0.0000 0.0000 17.4620
#
#
#
# Elastic Compliance Matrix: (Units=1/GPa)
#
#
# Indices 1 2 3 4 5 6 
#
# 1 0.011290 -0.003760 -0.004604 0.000000 0.000000 0.000000
# 2 -0.003760 0.022980 -0.000204 0.000000 0.000000 0.000000
# 3 -0.004604 -0.000204 0.012269 0.000000 0.000000 0.000000
# 4 0.000000 0.000000 0.000000 0.140698 0.000000 0.000000
# 5 0.000000 0.000000 0.000000 0.000000 -0.124618 0.000000
# 6 0.000000 0.000000 0.000000 0.000000 0.000000 0.057267
#
#
# Mechanical properties :
#
#
# Convention : Reuss Voigt Hill
#
# Bulk Modulus (GPa) = 34.00995 43.78235 38.89615
# Shear Modulus (GPa) = 34.05498 15.80141 24.92820
#
# Velocity S-wave (km/s) = 4.27557 2.91240 3.65804
# Velocity P-wave (km/s) = 6.52918 5.90013 6.22261
#
# Compressibility (1/GPa) = 0.02940316
#
# Stress axis : x y z
#
# Youngs Moduli (GPa) = 88.57726 43.51558 81.50763
#
# Poissons Ratio (x) = 0.16363 0.37523
# Poissons Ratio (y) = 0.33307 0.01663
# Poissons Ratio (z) = 0.40777 0.00888
#
# Static dielectric constant tensor:
#      x y z
#    x 1.700480 0.000000 0.000000 
#    y 0.000000 1.733950 0.000000 
#    z 0.000000 0.000000 1.665520 
# 
# From -- ./inp_files/32662.got.cif
#   From: 2010.05.17/outbox.cif.g08.bks.cpg/sg69_17_cif.got.tgz:32662.got - 2010.06.03 19:29:58.
