data_PCOD9511088
_publ_section_title
;
Structure prediction by ZEFSAII (Michael W. Deem and Ramdas Pophale) SiO2 
 PCOD9511088
Probable space group: F M M M
;
_chemical_formula_sum "Si O2"
_cell_formula_units_Z 96
_cell_length_a 22.905959
_cell_length_b 13.820158
_cell_length_c 13.983305
_cell_angle_alpha 90.000000
_cell_angle_beta 90.000000
_cell_angle_gamma 90.000000
_cell_volume 4426.610580
_symmetry_space_group_name_H-M "F M M M"
_symmetry_group_IT_number 69
_symmetry_cell_setting 'orthorhombic'
loop_
_space_group_symop_operation_xyz
x,y,z
-x,-y,z
x,-y,-z
-x,y,-z
-x,-y,-z
x,y,-z
-x,y,z
x,-y,z
x,1/2+y,1/2+z
-x,1/2-y,1/2+z
x,1/2-y,1/2-z
-x,1/2+y,1/2-z
-x,1/2-y,1/2-z
x,1/2+y,1/2-z
-x,1/2+y,1/2+z
x,1/2-y,1/2+z
1/2+x,y,1/2+z
1/2-x,-y,1/2+z
1/2+x,-y,1/2-z
1/2-x,y,1/2-z
1/2-x,-y,1/2-z
1/2+x,y,1/2-z
1/2-x,y,1/2+z
1/2+x,-y,1/2+z
1/2+x,1/2+y,z
1/2-x,1/2-y,z
1/2+x,1/2-y,-z
1/2-x,1/2+y,-z
1/2-x,1/2-y,-z
1/2+x,1/2+y,-z
1/2-x,1/2+y,z
1/2+x,1/2-y,z
loop_
_atom_site_type_symbol
_atom_site_label
_atom_site_fract_x
_atom_site_fract_y
_atom_site_fract_z
Si Si1 0.563124 0.714551 0.360301
Si Si2 0.186286 0.000000 0.206129
Si Si3 0.812772 0.712744 0.640288
Si Si4 0.099794 0.500000 0.111223
O O1 0.500000 0.749808 0.397238
O O2 0.564025 0.750000 0.250000
O O3 0.626063 0.747844 0.399537
O O4 0.564860 0.599074 0.373100
O O5 0.250000 0.000000 0.250000
O O6 0.181250 0.097304 0.144880
O O7 0.145479 0.000000 0.300387
O O8 0.811792 0.750000 0.750000
O O9 0.750000 0.750000 0.601919
O O10 0.121827 0.500000 0.000000
#
# Coordination Sequence:
#
# PCOD9511088 Si02
#       4
#    32  16  32  16
#     4  10  20  35  54  81 119 162 206 247 300 374
#     4  12  18  33  59  86 116 160 208 245 304 364
#     4  10  17  30  55  82 107 149 211 247 293 346
#     4  12  23  36  58  97 127 154 200 266 328 360
#
# _framework density 21.687021000000001
#
# number of rings (size 3 to 8) (size 9 to 14) (size 15 to 20)
#    0.000    1.333   10.000    0.500    0.000    1.333 
#    0.000    0.833    0.000   16.000    0.000    1.167 
#    0.000   13.333    0.000    0.000    0.000    0.000 
#
# Total GULP energy -133693.065023 kJ/mol
# GULP energy per Si atom -5570.544376 kJ/mol
# Density = 2.163766 g / cm^3
# Si number density = 21.687021 Si / 1000 Ang^3
#
#
#
# Elastic Constant Matrix: (Units=GPa)
#
#
# Indices 1 2 3 4 5 6 
#
# 1 269.7122 58.9613 34.0215 0.0000 0.0000 0.0000
# 2 58.9613 187.0433 25.7958 0.0000 0.0000 0.0000
# 3 34.0215 25.7958 122.6502 0.0000 0.0000 0.0000
# 4 0.0000 0.0000 0.0000 -15.3929 0.0000 0.0000
# 5 0.0000 0.0000 0.0000 0.0000 -39.8838 0.0000
# 6 0.0000 0.0000 0.0000 0.0000 0.0000 27.4094
#
#
#
# Elastic Compliance Matrix: (Units=1/GPa)
#
#
# Indices 1 2 3 4 5 6 
#
# 1 0.004073 -0.001162 -0.000886 0.000000 0.000000 0.000000
# 2 -0.001162 0.005837 -0.000905 0.000000 0.000000 0.000000
# 3 -0.000886 -0.000905 0.008589 0.000000 0.000000 0.000000
# 4 0.000000 0.000000 0.000000 -0.064965 0.000000 0.000000
# 5 0.000000 0.000000 0.000000 0.000000 -0.025073 0.000000
# 6 0.000000 0.000000 0.000000 0.000000 0.000000 0.036484
#
#
# Mechanical properties :
#
#
# Convention : Reuss Voigt Hill
#
# Bulk Modulus (GPa) = 79.40014 90.77364 85.08689
# Shear Modulus (GPa) = -200.40207 25.13500 -87.63353
#
# Velocity S-wave (km/s) = -9.62326 3.40808 -6.36365
# Velocity P-wave (km/s) = 9.31583 7.57851 3.83086
#
# Compressibility (1/GPa) = 0.01259444
#
# Stress axis : x y z
#
# Youngs Moduli (GPa) = 245.49761 171.30633 116.42347
#
# Poissons Ratio (x) = 0.19904 0.10310
# Poissons Ratio (y) = 0.28525 0.10541
# Poissons Ratio (z) = 0.21739 0.15511
#
# Static dielectric constant tensor:
#      x y z
#    x 1.845630 0.000000 0.000000 
#    y 0.000000 1.774900 0.000000 
#    z 0.000000 0.000000 1.762580 
# 
# From -- ./inp_files/17177.got.cif
#   From: 2010.05.17/outbox.cif.g08.bks.cpg/sg69_9_cif.got.tgz:17177.got - 2010.06.03 19:29:58.
