data_PCOD9511078
_publ_section_title
;
Structure prediction by ZEFSAII (Michael W. Deem and Ramdas Pophale) SiO2 
 PCOD9511078
Probable space group: F M M M
;
_chemical_formula_sum "Si O2"
_cell_formula_units_Z 160
_cell_length_a 24.667822
_cell_length_b 14.438840
_cell_length_c 28.427810
_cell_angle_alpha 90.000000
_cell_angle_beta 90.000000
_cell_angle_gamma 90.000000
_cell_volume 10125.267694
_symmetry_space_group_name_H-M "F M M M"
_symmetry_group_IT_number 69
_symmetry_cell_setting 'orthorhombic'
loop_
_space_group_symop_operation_xyz
x,y,z
-x,-y,z
x,-y,-z
-x,y,-z
-x,-y,-z
x,y,-z
-x,y,z
x,-y,z
x,1/2+y,1/2+z
-x,1/2-y,1/2+z
x,1/2-y,1/2-z
-x,1/2+y,1/2-z
-x,1/2-y,1/2-z
x,1/2+y,1/2-z
-x,1/2+y,1/2+z
x,1/2-y,1/2+z
1/2+x,y,1/2+z
1/2-x,-y,1/2+z
1/2+x,-y,1/2-z
1/2-x,y,1/2-z
1/2-x,-y,1/2-z
1/2+x,y,1/2-z
1/2-x,y,1/2+z
1/2+x,-y,1/2+z
1/2+x,1/2+y,z
1/2-x,1/2-y,z
1/2+x,1/2-y,-z
1/2-x,1/2+y,-z
1/2-x,1/2-y,-z
1/2+x,1/2+y,-z
1/2-x,1/2+y,z
1/2+x,1/2-y,z
loop_
_atom_site_type_symbol
_atom_site_label
_atom_site_fract_x
_atom_site_fract_y
_atom_site_fract_z
Si Si1 0.275728 0.109935 0.699383
Si Si2 0.500000 0.388519 0.385512
Si Si3 0.617880 0.271743 0.805074
Si Si4 0.670522 0.109685 0.139649
Si Si5 0.000000 0.262236 0.693390
Si Si6 0.894259 0.388456 0.053014
O O1 0.250000 0.139068 0.750000
O O2 0.331357 0.160920 0.687655
O O3 0.230341 0.127054 0.659743
O O4 0.285239 0.000000 0.702850
O O5 0.500000 0.500000 0.378139
O O6 0.500000 0.333360 0.336480
O O7 0.552566 0.362896 0.416859
O O8 0.616875 0.250000 0.750000
O O9 0.631013 0.175354 0.830823
O O10 0.558059 0.307710 0.818722
O O11 0.657922 0.132077 0.085361
O O12 0.658961 0.000000 0.147087
O O13 0.000000 0.250000 0.750000
O O14 0.896811 0.500000 0.049325
O O15 0.893592 0.350875 0.000000
#
# Coordination Sequence:
#
# PCOD9511078 Si02
#       6
#    32  16  32  32  16  32
#     4  10  20  33  51  72  93 128 179 216 246 296
#     4  10  17  30  50  71  99 141 178 206 240 301
#     4  11  20  32  49  68 100 136 170 208 248 290
#     4  10  19  30  49  77 104 132 164 201 252 304
#     4  10  22  33  43  72 104 136 166 197 248 310
#     4   9  17  29  47  73 102 132 169 210 254 304
#
# _framework density 15.802051000000001
#
# number of rings (size 3 to 8) (size 9 to 14) (size 15 to 20)
#    0.000    2.000    4.000    0.900    0.000    1.200 
#    0.000    3.500    0.000    2.400    0.000    0.000 
#    0.000    0.000    0.000    1.800    0.000    0.200 
#
# Total GULP energy -222684.063879 kJ/mol
# GULP energy per Si atom -5567.101597 kJ/mol
# Density = 1.576608 g / cm^3
# Si number density = 15.802051 Si / 1000 Ang^3
#
#
#
# Elastic Constant Matrix: (Units=GPa)
#
#
# Indices 1 2 3 4 5 6 
#
# 1 150.1255 38.6244 49.4292 0.0000 0.0000 0.0000
# 2 38.6244 34.5945 30.0046 0.0000 0.0000 0.0000
# 3 49.4292 30.0046 117.0217 0.0000 0.0000 0.0000
# 4 0.0000 0.0000 0.0000 16.9239 0.0000 0.0000
# 5 0.0000 0.0000 0.0000 0.0000 15.6061 0.0000
# 6 0.0000 0.0000 0.0000 0.0000 0.0000 12.8502
#
#
#
# Elastic Compliance Matrix: (Units=1/GPa)
#
#
# Indices 1 2 3 4 5 6 
#
# 1 0.009596 -0.009257 -0.001680 0.000000 0.000000 0.000000
# 2 -0.009257 0.046102 -0.007911 0.000000 0.000000 0.000000
# 3 -0.001680 -0.007911 0.011283 0.000000 0.000000 0.000000
# 4 0.000000 0.000000 0.000000 0.059088 0.000000 0.000000
# 5 0.000000 0.000000 0.000000 0.000000 0.064077 0.000000
# 6 0.000000 0.000000 0.000000 0.000000 0.000000 0.077820
#
#
# Mechanical properties :
#
#
# Convention : Reuss Voigt Hill
#
# Bulk Modulus (GPa) = 34.14477 59.76200 46.95338
# Shear Modulus (GPa) = 15.85170 21.32161 18.58666
#
# Velocity S-wave (km/s) = 3.17068 3.67726 3.43332
# Velocity P-wave (km/s) = 5.92106 7.47870 6.74499
#
# Compressibility (1/GPa) = 0.02928707
#
# Stress axis : x y z
#
# Youngs Moduli (GPa) = 104.21341 21.69082 88.62657
#
# Poissons Ratio (x) = 0.20078 0.14887
# Poissons Ratio (y) = 0.96466 0.70111
# Poissons Ratio (z) = 0.17505 0.17159
#
# Static dielectric constant tensor:
#      x y z
#    x 1.576340 0.000000 0.000000 
#    y 0.000000 1.523830 0.000000 
#    z 0.000000 0.000000 1.542920 
# 
# From -- ./inp_files/18026.got.cif
#   From: 2010.05.17/outbox.cif.g08.bks.cpg/sg69_10_cif.got.tgz:18026.got - 2010.06.03 19:29:58.
