data_PCOD9511933
_publ_section_title
;
Structure prediction by ZEFSAII (Michael W. Deem and Ramdas Pophale) SiO2 
 PCOD9511933
Probable space group: F M M M
;
_chemical_formula_sum "Si O2"
_cell_formula_units_Z 192
_cell_length_a 26.331475
_cell_length_b 15.776167
_cell_length_c 23.564410
_cell_angle_alpha 90.000000
_cell_angle_beta 90.000000
_cell_angle_gamma 90.000000
_cell_volume 9788.885595
_symmetry_space_group_name_H-M "F M M M"
_symmetry_group_IT_number 69
_symmetry_cell_setting 'orthorhombic'
loop_
_space_group_symop_operation_xyz
x,y,z
-x,-y,z
x,-y,-z
-x,y,-z
-x,-y,-z
x,y,-z
-x,y,z
x,-y,z
x,1/2+y,1/2+z
-x,1/2-y,1/2+z
x,1/2-y,1/2-z
-x,1/2+y,1/2-z
-x,1/2-y,1/2-z
x,1/2+y,1/2-z
-x,1/2+y,1/2+z
x,1/2-y,1/2+z
1/2+x,y,1/2+z
1/2-x,-y,1/2+z
1/2+x,-y,1/2-z
1/2-x,y,1/2-z
1/2-x,-y,1/2-z
1/2+x,y,1/2-z
1/2-x,y,1/2+z
1/2+x,-y,1/2+z
1/2+x,1/2+y,z
1/2-x,1/2-y,z
1/2+x,1/2-y,-z
1/2-x,1/2+y,-z
1/2-x,1/2-y,-z
1/2+x,1/2+y,-z
1/2-x,1/2+y,z
1/2+x,1/2-y,z
loop_
_atom_site_type_symbol
_atom_site_label
_atom_site_fract_x
_atom_site_fract_y
_atom_site_fract_z
Si Si1 0.941845 0.832341 0.213982
Si Si2 0.383957 0.141757 0.935019
Si Si3 0.696395 0.500000 0.069059
Si Si4 0.232873 0.157839 0.568784
Si Si5 0.918946 0.000000 0.230990
Si Si6 0.081145 0.000000 0.901458
Si Si7 0.943055 0.811189 0.919116
Si Si8 0.441653 0.500000 0.635231
O O1 0.933796 0.750000 0.250000
O O2 0.900463 0.903792 0.227811
O O3 0.941213 0.808499 0.148836
O O4 0.000000 0.864838 0.227166
O O5 0.325356 0.139787 0.916226
O O6 0.403833 0.239015 0.937360
O O7 0.415648 0.082988 0.892390
O O8 0.387542 0.108963 0.000000
O O9 0.728809 0.417015 0.084707
O O10 0.642132 0.500000 0.099258
O O11 0.688619 0.500000 0.000000
O O12 0.233713 0.160553 0.500000
O O13 0.250000 0.250000 0.589753
O O14 0.940499 0.000000 0.163808
O O15 0.939420 0.000000 0.296112
O O16 0.066167 0.911211 0.931131
O O17 0.000000 0.788453 0.937391
O O18 0.500000 0.500000 0.618030
#
# Coordination Sequence:
#
# PCOD9511933 Si02
#       8
#    32  32  16  32  16  16  32  16
#     4   9  16  28  47  70  96 130 175 225 268 304
#     4  11  23  38  56  82 116 151 190 236 285 339
#     4  10  19  34  58  85 109 136 176 229 289 346
#     4   9  18  34  57  82 107 139 182 233 286 337
#     4  10  20  34  52  76 108 143 189 235 270 316
#     4  10  21  36  57  86 116 146 185 233 285 337
#     4  10  20  33  50  75 110 150 185 218 266 329
#     4  12  24  37  56  82 114 157 202 237 273 324
#
# _framework density 19.614082
#
# number of rings (size 3 to 8) (size 9 to 14) (size 15 to 20)
#    0.000    2.000    0.000    4.250    0.000    9.000 
#    0.000    0.000    0.000    3.500    0.000    1.167 
#    0.000    0.000    0.000    0.000    0.000    0.000 
#
# Total GULP energy -267224.308390 kJ/mol
# GULP energy per Si atom -5567.173091 kJ/mol
# Density = 1.956944 g / cm^3
# Si number density = 19.614082 Si / 1000 Ang^3
#
#
#
# Elastic Constant Matrix: (Units=GPa)
#
#
# Indices 1 2 3 4 5 6 
#
# 1 106.2286 32.7525 15.0096 0.0000 0.0000 0.0000
# 2 32.7525 116.0417 34.5180 0.0000 0.0000 0.0000
# 3 15.0096 34.5180 85.4124 0.0000 0.0000 0.0000
# 4 0.0000 0.0000 0.0000 5.3486 0.0000 0.0000
# 5 0.0000 0.0000 0.0000 0.0000 9.2500 0.0000
# 6 0.0000 0.0000 0.0000 0.0000 0.0000 29.3695
#
#
#
# Elastic Compliance Matrix: (Units=1/GPa)
#
#
# Indices 1 2 3 4 5 6 
#
# 1 0.010350 -0.002706 -0.000725 0.000000 0.000000 0.000000
# 2 -0.002706 0.010502 -0.003769 0.000000 0.000000 0.000000
# 3 -0.000725 -0.003769 0.013359 0.000000 0.000000 0.000000
# 4 0.000000 0.000000 0.000000 0.186966 0.000000 0.000000
# 5 0.000000 0.000000 0.000000 0.000000 0.108108 0.000000
# 6 0.000000 0.000000 0.000000 0.000000 0.000000 0.034049
#
#
# Mechanical properties :
#
#
# Convention : Reuss Voigt Hill
#
# Bulk Modulus (GPa) = 50.47610 52.47144 51.47377
# Shear Modulus (GPa) = 13.00939 23.82046 18.41492
#
# Velocity S-wave (km/s) = 2.57819 3.48869 3.06741
# Velocity P-wave (km/s) = 5.88670 6.56033 6.23262
#
# Compressibility (1/GPa) = 0.01981136
#
# Stress axis : x y z
#
# Youngs Moduli (GPa) = 96.61514 95.21691 74.85858
#
# Poissons Ratio (x) = 0.25762 0.05431
# Poissons Ratio (y) = 0.26140 0.28213
# Poissons Ratio (z) = 0.07009 0.35886
#
# Static dielectric constant tensor:
#      x y z
#    x 1.705940 0.000000 0.000000 
#    y 0.000000 1.722620 0.000000 
#    z 0.000000 0.000000 1.678500 
# 
# From -- ./inp_files/38420.got.cif
#   From: 2010.05.17/outbox.cif.g08.bks.cpg/sg69_20_cif.got.tgz:38420.got - 2010.06.03 19:29:58.
