data_PCOD9511838
_publ_section_title
;
Structure prediction by ZEFSAII (Michael W. Deem and Ramdas Pophale) SiO2 
 PCOD9511838
Probable space group: F M M M
;
_chemical_formula_sum "Si O2"
_cell_formula_units_Z 160
_cell_length_a 25.284004
_cell_length_b 19.400065
_cell_length_c 15.088476
_cell_angle_alpha 90.000000
_cell_angle_beta 90.000000
_cell_angle_gamma 90.000000
_cell_volume 7401.068296
_symmetry_space_group_name_H-M "F M M M"
_symmetry_group_IT_number 69
_symmetry_cell_setting 'orthorhombic'
loop_
_space_group_symop_operation_xyz
x,y,z
-x,-y,z
x,-y,-z
-x,y,-z
-x,-y,-z
x,y,-z
-x,y,z
x,-y,z
x,1/2+y,1/2+z
-x,1/2-y,1/2+z
x,1/2-y,1/2-z
-x,1/2+y,1/2-z
-x,1/2-y,1/2-z
x,1/2+y,1/2-z
-x,1/2+y,1/2+z
x,1/2-y,1/2+z
1/2+x,y,1/2+z
1/2-x,-y,1/2+z
1/2+x,-y,1/2-z
1/2-x,y,1/2-z
1/2-x,-y,1/2-z
1/2+x,y,1/2-z
1/2-x,y,1/2+z
1/2+x,-y,1/2+z
1/2+x,1/2+y,z
1/2-x,1/2-y,z
1/2+x,1/2-y,-z
1/2-x,1/2+y,-z
1/2-x,1/2-y,-z
1/2+x,1/2+y,-z
1/2-x,1/2+y,z
1/2+x,1/2-y,z
loop_
_atom_site_type_symbol
_atom_site_label
_atom_site_fract_x
_atom_site_fract_y
_atom_site_fract_z
Si Si1 0.094972 0.822480 0.392944
Si Si2 0.000000 0.078987 0.335436
Si Si3 0.806219 0.921510 0.108695
Si Si4 0.099433 0.328924 0.399600
Si Si5 0.500000 0.077702 0.624660
Si Si6 0.782543 0.318613 0.107660
O O1 0.092644 0.827667 0.500000
O O2 0.052691 0.878269 0.360658
O O3 0.080598 0.744423 0.363429
O O4 0.156561 0.826827 0.364676
O O5 0.000000 0.075311 0.230137
O O6 0.000000 0.000000 0.370755
O O7 0.851956 0.870076 0.142391
O O8 0.751182 0.885678 0.132300
O O9 0.812282 0.000000 0.139279
O O10 0.809522 0.923328 0.000000
O O11 0.117823 0.312303 0.500000
O O12 0.051376 0.381011 0.403529
O O13 0.500000 0.000000 0.592509
O O14 0.750000 0.250000 0.136968
O O15 0.783410 0.314554 0.000000
#
# Coordination Sequence:
#
# PCOD9511838 Si02
#       6
#    32  16  32  32  16  32
#     4  10  20  35  59  85 111 146 186 232 282 325
#     4  11  26  43  54  74 110 153 202 243 274 320
#     4   9  16  26  45  78 115 143 170 214 273 333
#     4  10  19  33  56  86 113 137 177 229 284 349
#     4  11  24  39  54  74 108 151 186 227 284 336
#     4   9  15  28  50  79 114 144 173 219 275 330
#
# _framework density 21.618500000000001
#
# number of rings (size 3 to 8) (size 9 to 14) (size 15 to 20)
#    0.000    2.200    2.000    1.800    0.000    6.400 
#    0.000    2.000    0.000    1.200    0.000    4.200 
#    0.000    0.000    0.000    0.000    0.000    0.000 
#
# Total GULP energy -223251.130280 kJ/mol
# GULP energy per Si atom -5581.278257 kJ/mol
# Density = 2.156930 g / cm^3
# Si number density = 21.618500 Si / 1000 Ang^3
#
#
#
# Elastic Constant Matrix: (Units=GPa)
#
#
# Indices 1 2 3 4 5 6 
#
# 1 159.2693 98.6195 16.1096 0.0000 0.0000 0.0000
# 2 98.6195 207.4036 23.2035 0.0000 0.0000 0.0000
# 3 16.1096 23.2035 53.6708 0.0000 0.0000 0.0000
# 4 0.0000 0.0000 0.0000 65.0239 0.0000 0.0000
# 5 0.0000 0.0000 0.0000 0.0000 11.3319 0.0000
# 6 0.0000 0.0000 0.0000 0.0000 0.0000 -82.5865
#
#
#
# Elastic Compliance Matrix: (Units=1/GPa)
#
#
# Indices 1 2 3 4 5 6 
#
# 1 0.008939 -0.004151 -0.000888 0.000000 0.000000 0.000000
# 2 -0.004151 0.006994 -0.001778 0.000000 0.000000 0.000000
# 3 -0.000888 -0.001778 0.019667 0.000000 0.000000 0.000000
# 4 0.000000 0.000000 0.000000 0.015379 0.000000 0.000000
# 5 0.000000 0.000000 0.000000 0.000000 0.088247 0.000000
# 6 0.000000 0.000000 0.000000 0.000000 0.000000 -0.012109
#
#
# Mechanical properties :
#
#
# Convention : Reuss Voigt Hill
#
# Bulk Modulus (GPa) = 45.52523 77.35655 61.44089
# Shear Modulus (GPa) = 33.76686 17.58125 25.67406
#
# Velocity S-wave (km/s) = 3.95643 2.85485 3.44989
# Velocity P-wave (km/s) = 6.47883 6.83572 6.65967
#
# Compressibility (1/GPa) = 0.02196584
#
# Stress axis : x y z
#
# Youngs Moduli (GPa) = 111.87158 142.97585 50.84557
#
# Poissons Ratio (x) = 0.59349 0.04517
# Poissons Ratio (y) = 0.46438 0.09040
# Poissons Ratio (z) = 0.09939 0.25419
#
# Static dielectric constant tensor:
#      x y z
#    x 1.776810 0.000000 0.000000 
#    y 0.000000 1.781500 0.000000 
#    z 0.000000 0.000000 1.830770 
# 
# From -- ./inp_files/26686.got.cif
#   From: 2010.05.17/outbox.cif.g08.bks.cpg/sg69_14_cif.got.tgz:26686.got - 2010.06.03 19:29:58.
