data_PCOD9511308
_publ_section_title
;
Structure prediction by ZEFSAII (Michael W. Deem and Ramdas Pophale) SiO2 
 PCOD9511308
Probable space group: F M M M
;
_chemical_formula_sum "Si O2"
_cell_formula_units_Z 120
_cell_length_a 14.229342
_cell_length_b 27.333679
_cell_length_c 17.000280
_cell_angle_alpha 90.000000
_cell_angle_beta 90.000000
_cell_angle_gamma 90.000000
_cell_volume 6612.093436
_symmetry_space_group_name_H-M "F M M M"
_symmetry_group_IT_number 69
_symmetry_cell_setting 'orthorhombic'
loop_
_space_group_symop_operation_xyz
x,y,z
-x,-y,z
x,-y,-z
-x,y,-z
-x,-y,-z
x,y,-z
-x,y,z
x,-y,z
x,1/2+y,1/2+z
-x,1/2-y,1/2+z
x,1/2-y,1/2-z
-x,1/2+y,1/2-z
-x,1/2-y,1/2-z
x,1/2+y,1/2-z
-x,1/2+y,1/2+z
x,1/2-y,1/2+z
1/2+x,y,1/2+z
1/2-x,-y,1/2+z
1/2+x,-y,1/2-z
1/2-x,y,1/2-z
1/2-x,-y,1/2-z
1/2+x,y,1/2-z
1/2-x,y,1/2+z
1/2+x,-y,1/2+z
1/2+x,1/2+y,z
1/2-x,1/2-y,z
1/2+x,1/2-y,-z
1/2-x,1/2+y,-z
1/2-x,1/2-y,-z
1/2+x,1/2+y,-z
1/2-x,1/2+y,z
1/2+x,1/2-y,z
loop_
_atom_site_type_symbol
_atom_site_label
_atom_site_fract_x
_atom_site_fract_y
_atom_site_fract_z
Si Si1 0.000000 0.201208 0.699017
Si Si2 0.288130 0.500000 0.159457
Si Si3 0.287329 0.198392 0.159165
Si Si4 0.000000 0.000000 0.802227
Si Si5 0.000000 0.094848 0.693331
Si Si6 0.690925 0.403804 0.407242
O O1 0.000000 0.250000 0.750000
O O2 0.900590 0.201942 0.654960
O O3 0.000000 0.147168 0.738485
O O4 0.250000 0.500000 0.250000
O O5 0.400635 0.500000 0.154327
O O6 0.249221 0.548997 0.119344
O O7 0.250000 0.195305 0.250000
O O8 0.250000 0.250000 0.127121
O O9 0.261237 0.147663 0.117489
O O10 0.000000 0.048484 0.748960
O O11 0.907535 0.093448 0.639463
O O12 0.674818 0.404439 0.500000
#
# Coordination Sequence:
#
# PCOD9511308 Si02
#       6
#    16  16  32   8  16  32
#     4  10  18  31  53  86 113 141 185 244 294 313
#     4  12  23  40  63  86 115 149 195 239 287 342
#     4  10  20  34  58  85 114 150 197 240 281 331
#     4  12  24  38  60  94 112 142 192 252 280 342
#     4  10  21  36  62  86 117 146 191 249 296 325
#     4  11  23  39  59  87 122 154 190 237 295 351
#
# _framework density 18.148562999999999
#
# number of rings (size 3 to 8) (size 9 to 14) (size 15 to 20)
#    0.000    1.333    5.333    1.600    3.733    0.533 
#    0.000    3.333    0.000    0.000    0.000    0.000 
#    0.000    0.000    0.000    0.000    0.000    0.000 
#
# Total GULP energy -167256.621741 kJ/mol
# GULP energy per Si atom -5575.220725 kJ/mol
# Density = 1.810726 g / cm^3
# Si number density = 18.148563 Si / 1000 Ang^3
#
#
#
# Elastic Constant Matrix: (Units=GPa)
#
#
# Indices 1 2 3 4 5 6 
#
# 1 115.6535 57.2996 7.4748 0.0000 0.0000 0.0000
# 2 57.2996 224.1488 40.0834 0.0000 0.0000 0.0000
# 3 7.4748 40.0834 35.5546 0.0000 0.0000 0.0000
# 4 0.0000 0.0000 0.0000 6.7286 0.0000 0.0000
# 5 0.0000 0.0000 0.0000 0.0000 43.2334 0.0000
# 6 0.0000 0.0000 0.0000 0.0000 0.0000 31.5678
#
#
#
# Elastic Compliance Matrix: (Units=1/GPa)
#
#
# Indices 1 2 3 4 5 6 
#
# 1 0.009927 -0.002711 0.000969 0.000000 0.000000 0.000000
# 2 -0.002711 0.006328 -0.006564 0.000000 0.000000 0.000000
# 3 0.000969 -0.006564 0.035322 0.000000 0.000000 0.000000
# 4 0.000000 0.000000 0.000000 0.148618 0.000000 0.000000
# 5 0.000000 0.000000 0.000000 0.000000 0.023130 0.000000
# 6 0.000000 0.000000 0.000000 0.000000 0.000000 0.031678
#
#
# Mechanical properties :
#
#
# Convention : Reuss Voigt Hill
#
# Bulk Modulus (GPa) = 28.59954 65.00805 46.80380
# Shear Modulus (GPa) = 17.65093 34.33925 25.99509
#
# Velocity S-wave (km/s) = 3.12200 4.35457 3.78875
# Velocity P-wave (km/s) = 5.36551 7.82181 6.70706
#
# Compressibility (1/GPa) = 0.03496559
#
# Stress axis : x y z
#
# Youngs Moduli (GPa) = 100.73528 158.02282 28.31066
#
# Poissons Ratio (x) = 0.42840 -0.02744
# Poissons Ratio (y) = 0.27309 0.18584
# Poissons Ratio (z) = -0.09764 1.03731
#
# Static dielectric constant tensor:
#      x y z
#    x 1.485600 0.000000 0.000000 
#    y 0.000000 1.649400 0.000000 
#    z 0.000000 0.000000 1.598080 
# 
# From -- ./inp_files/14481.got.cif
#   From: 2010.05.17/outbox.cif.g08.bks.cpg/sg69_8_cif.got.tgz:14481.got - 2010.06.03 19:29:58.
