data_PCOD9511646
_publ_section_title
;
Structure prediction by ZEFSAII (Michael W. Deem and Ramdas Pophale) SiO2 
 PCOD9511646
Probable space group: F M M M
;
_chemical_formula_sum "Si O2"
_cell_formula_units_Z 144
_cell_length_a 31.810586
_cell_length_b 13.458833
_cell_length_c 19.425260
_cell_angle_alpha 90.000000
_cell_angle_beta 90.000000
_cell_angle_gamma 90.000000
_cell_volume 8316.601922
_symmetry_space_group_name_H-M "F M M M"
_symmetry_group_IT_number 69
_symmetry_cell_setting 'orthorhombic'
loop_
_space_group_symop_operation_xyz
x,y,z
-x,-y,z
x,-y,-z
-x,y,-z
-x,-y,-z
x,y,-z
-x,y,z
x,-y,z
x,1/2+y,1/2+z
-x,1/2-y,1/2+z
x,1/2-y,1/2-z
-x,1/2+y,1/2-z
-x,1/2-y,1/2-z
x,1/2+y,1/2-z
-x,1/2+y,1/2+z
x,1/2-y,1/2+z
1/2+x,y,1/2+z
1/2-x,-y,1/2+z
1/2+x,-y,1/2-z
1/2-x,y,1/2-z
1/2-x,-y,1/2-z
1/2+x,y,1/2-z
1/2-x,y,1/2+z
1/2+x,-y,1/2+z
1/2+x,1/2+y,z
1/2-x,1/2-y,z
1/2+x,1/2-y,-z
1/2-x,1/2+y,-z
1/2-x,1/2-y,-z
1/2+x,1/2+y,-z
1/2-x,1/2+y,z
1/2+x,1/2-y,z
loop_
_atom_site_type_symbol
_atom_site_label
_atom_site_fract_x
_atom_site_fract_y
_atom_site_fract_z
Si Si1 0.912717 0.308245 0.641366
Si Si2 0.705103 0.119720 0.279689
Si Si3 0.000000 0.117856 0.917506
Si Si4 0.829280 0.879896 0.924440
Si Si5 0.382930 0.884531 0.786909
O O1 0.877071 0.346707 0.589335
O O2 0.902863 0.193736 0.660434
O O3 0.905343 0.367309 0.713128
O O4 0.958481 0.331009 0.612917
O O5 0.750000 0.147918 0.250000
O O6 0.696216 0.156029 0.357326
O O7 0.665758 0.142782 0.229847
O O8 0.704670 0.000000 0.283991
O O9 0.000000 0.000000 0.900420
O O10 0.000000 0.126357 0.000000
O O11 0.828201 0.000000 0.924102
O O12 0.814889 0.846026 0.000000
O O13 0.385564 0.000000 0.806848
#
# Coordination Sequence:
#
# PCOD9511646 Si02
#       5
#    32  32  16  32  32
#     4  10  19  32  50  74 101 128 161 205 252 305
#     4   8  14  27  49  75 101 131 170 212 251 296
#     4  11  22  35  55  79  99 121 155 208 268 317
#     4   9  16  28  48  72  99 129 160 203 261 312
#     4   9  18  32  50  73 102 137 170 202 248 300
#
# _framework density 17.314764
#
# number of rings (size 3 to 8) (size 9 to 14) (size 15 to 20)
#    0.000    2.778    0.000    4.000    0.000    3.556 
#    0.000   10.556    0.000    7.333    0.000    6.222 
#    0.000    0.000    0.000    0.000    0.000    0.000 
#
# Total GULP energy -200668.295460 kJ/mol
# GULP energy per Si atom -5574.119318 kJ/mol
# Density = 1.727535 g / cm^3
# Si number density = 17.314764 Si / 1000 Ang^3
#
#
#
# Elastic Constant Matrix: (Units=GPa)
#
#
# Indices 1 2 3 4 5 6 
#
# 1 154.0618 34.6109 67.9458 0.0000 0.0000 0.0000
# 2 34.6109 97.0624 35.4906 0.0000 0.0000 0.0000
# 3 67.9458 35.4906 88.2741 0.0000 0.0000 0.0000
# 4 0.0000 0.0000 0.0000 22.4382 0.0000 0.0000
# 5 0.0000 0.0000 0.0000 0.0000 10.6431 0.0000
# 6 0.0000 0.0000 0.0000 0.0000 0.0000 38.9086
#
#
#
# Elastic Compliance Matrix: (Units=1/GPa)
#
#
# Indices 1 2 3 4 5 6 
#
# 1 0.009889 -0.000871 -0.007262 0.000000 0.000000 0.000000
# 2 -0.000871 0.012155 -0.004216 0.000000 0.000000 0.000000
# 3 -0.007262 -0.004216 0.018613 0.000000 0.000000 0.000000
# 4 0.000000 0.000000 0.000000 0.044567 0.000000 0.000000
# 5 0.000000 0.000000 0.000000 0.000000 0.093958 0.000000
# 6 0.000000 0.000000 0.000000 0.000000 0.000000 0.025701
#
#
# Mechanical properties :
#
#
# Convention : Reuss Voigt Hill
#
# Bulk Modulus (GPa) = 62.66123 68.38810 65.52467
# Shear Modulus (GPa) = 21.28555 27.82136 24.55346
#
# Velocity S-wave (km/s) = 3.50998 4.01284 3.76981
# Velocity P-wave (km/s) = 7.25911 7.81366 7.54148
#
# Compressibility (1/GPa) = 0.01595883
#
# Stress axis : x y z
#
# Youngs Moduli (GPa) = 101.12047 82.27071 53.72612
#
# Poissons Ratio (x) = 0.07167 0.39014
# Poissons Ratio (y) = 0.08809 0.22653
# Poissons Ratio (z) = 0.73430 0.34688
#
# Static dielectric constant tensor:
#      x y z
#    x 1.577660 0.000000 0.000000 
#    y 0.000000 1.615570 0.000000 
#    z 0.000000 0.000000 1.592980 
# 
# From -- ./inp_files/27414.got.cif
#   From: 2010.05.17/outbox.cif.g08.bks.cpg/sg69_14_cif.got.tgz:27414.got - 2010.06.03 19:29:58.
