data_PCOD9511591
_publ_section_title
;
Structure prediction by ZEFSAII (Michael W. Deem and Ramdas Pophale) SiO2 
 PCOD9511591
Probable space group: F M M M
;
_chemical_formula_sum "Si O2"
_cell_formula_units_Z 176
_cell_length_a 17.631679
_cell_length_b 25.700117
_cell_length_c 21.229491
_cell_angle_alpha 90.000000
_cell_angle_beta 90.000000
_cell_angle_gamma 90.000000
_cell_volume 9619.851160
_symmetry_space_group_name_H-M "F M M M"
_symmetry_group_IT_number 69
_symmetry_cell_setting 'orthorhombic'
loop_
_space_group_symop_operation_xyz
x,y,z
-x,-y,z
x,-y,-z
-x,y,-z
-x,-y,-z
x,y,-z
-x,y,z
x,-y,z
x,1/2+y,1/2+z
-x,1/2-y,1/2+z
x,1/2-y,1/2-z
-x,1/2+y,1/2-z
-x,1/2-y,1/2-z
x,1/2+y,1/2-z
-x,1/2+y,1/2+z
x,1/2-y,1/2+z
1/2+x,y,1/2+z
1/2-x,-y,1/2+z
1/2+x,-y,1/2-z
1/2-x,y,1/2-z
1/2-x,-y,1/2-z
1/2+x,y,1/2-z
1/2-x,y,1/2+z
1/2+x,-y,1/2+z
1/2+x,1/2+y,z
1/2-x,1/2-y,z
1/2+x,1/2-y,-z
1/2-x,1/2+y,-z
1/2-x,1/2-y,-z
1/2+x,1/2+y,-z
1/2-x,1/2+y,z
1/2+x,1/2-y,z
loop_
_atom_site_type_symbol
_atom_site_label
_atom_site_fract_x
_atom_site_fract_y
_atom_site_fract_z
Si Si1 0.588004 0.211377 0.301604
Si Si2 0.587768 0.936589 0.000000
Si Si3 0.091539 0.332762 0.430181
Si Si4 0.647764 0.441640 0.880473
Si Si5 0.913221 0.405668 0.249169
Si Si6 0.671641 0.938501 0.873644
O O1 0.500000 0.228679 0.310406
O O2 0.623429 0.250000 0.250000
O O3 0.620799 0.202184 0.371687
O O4 0.586997 0.154083 0.271453
O O5 0.630433 0.919248 0.063148
O O6 0.500000 0.920905 0.000000
O O7 0.590290 0.000000 0.000000
O O8 0.117443 0.317431 0.500000
O O9 0.112149 0.393092 0.417315
O O10 0.000000 0.329681 0.428244
O O11 0.631760 0.500000 0.905027
O O12 0.617400 0.437561 0.808951
O O13 0.738203 0.433555 0.879608
O O14 0.861181 0.412324 0.188543
O O15 0.000000 0.420934 0.234767
O O16 0.654835 0.000000 0.867326
#
# Coordination Sequence:
#
# PCOD9511591 Si02
#       6
#    32  16  32  32  32  32
#     4   8  15  30  52  74  97 126 163 209 257 306
#     4   9  18  32  48  66  89 126 173 211 246 291
#     4   9  18  31  49  75 104 135 170 208 251 302
#     4  10  20  31  46  70 104 139 173 206 246 301
#     4  10  19  31  50  74  98 128 168 216 263 304
#     4  10  20  32  48  69  98 135 171 208 251 300
#
# _framework density 18.295501000000002
#
# number of rings (size 3 to 8) (size 9 to 14) (size 15 to 20)
#    0.000    2.636    0.000    3.273    1.273    5.091 
#    0.000    0.909    2.000    8.727    0.000    1.273 
#    0.000    0.000    0.000    0.000    0.000    0.000 
#
# Total GULP energy -245196.457681 kJ/mol
# GULP energy per Si atom -5572.646765 kJ/mol
# Density = 1.825386 g / cm^3
# Si number density = 18.295501 Si / 1000 Ang^3
#
#
#
# Elastic Constant Matrix: (Units=GPa)
#
#
# Indices 1 2 3 4 5 6 
#
# 1 15.7971 13.0995 4.2330 0.0000 0.0000 0.0000
# 2 13.0995 43.8194 36.3755 0.0000 0.0000 0.0000
# 3 4.2330 36.3755 128.0248 0.0000 0.0000 0.0000
# 4 0.0000 0.0000 0.0000 16.5894 0.0000 0.0000
# 5 0.0000 0.0000 0.0000 0.0000 13.6615 0.0000
# 6 0.0000 0.0000 0.0000 0.0000 0.0000 2.7144
#
#
#
# Elastic Compliance Matrix: (Units=1/GPa)
#
#
# Indices 1 2 3 4 5 6 
#
# 1 0.087487 -0.031084 0.005939 0.000000 0.000000 0.000000
# 2 -0.031084 0.040909 -0.010596 0.000000 0.000000 0.000000
# 3 0.005939 -0.010596 0.010625 0.000000 0.000000 0.000000
# 4 0.000000 0.000000 0.000000 0.060279 0.000000 0.000000
# 5 0.000000 0.000000 0.000000 0.000000 0.073198 0.000000
# 6 0.000000 0.000000 0.000000 0.000000 0.000000 0.368408
#
#
# Mechanical properties :
#
#
# Convention : Reuss Voigt Hill
#
# Bulk Modulus (GPa) = 14.80598 32.78415 23.79506
# Shear Modulus (GPa) = 6.80365 15.52195 11.16280
#
# Velocity S-wave (km/s) = 1.93050 2.91590 2.47278
# Velocity P-wave (km/s) = 3.61654 5.41246 4.60294
#
# Compressibility (1/GPa) = 0.06754027
#
# Stress axis : x y z
#
# Youngs Moduli (GPa) = 11.43032 24.44463 94.11652
#
# Poissons Ratio (x) = 0.75983 -0.55896
# Poissons Ratio (y) = 0.35530 0.99722
# Poissons Ratio (z) = -0.06789 0.25901
#
# Static dielectric constant tensor:
#      x y z
#    x 1.616080 0.000000 0.000000 
#    y 0.000000 1.622320 0.000000 
#    z 0.000000 0.000000 1.657390 
# 
# From -- ./inp_files/23558.got.cif
#   From: 2010.05.17/outbox.cif.g08.bks.cpg/sg69_12_cif.got.tgz:23558.got - 2010.06.03 19:29:58.
