data_PCOD9511632
_publ_section_title
;
Structure prediction by ZEFSAII (Michael W. Deem and Ramdas Pophale) SiO2 
 PCOD9511632
Probable space group: F M M M
;
_chemical_formula_sum "Si O2"
_cell_formula_units_Z 208
_cell_length_a 18.547068
_cell_length_b 23.713709
_cell_length_c 28.331662
_cell_angle_alpha 90.000000
_cell_angle_beta 90.000000
_cell_angle_gamma 90.000000
_cell_volume 12460.825160
_symmetry_space_group_name_H-M "F M M M"
_symmetry_group_IT_number 69
_symmetry_cell_setting 'orthorhombic'
loop_
_space_group_symop_operation_xyz
x,y,z
-x,-y,z
x,-y,-z
-x,y,-z
-x,-y,-z
x,y,-z
-x,y,z
x,-y,z
x,1/2+y,1/2+z
-x,1/2-y,1/2+z
x,1/2-y,1/2-z
-x,1/2+y,1/2-z
-x,1/2-y,1/2-z
x,1/2+y,1/2-z
-x,1/2+y,1/2+z
x,1/2-y,1/2+z
1/2+x,y,1/2+z
1/2-x,-y,1/2+z
1/2+x,-y,1/2-z
1/2-x,y,1/2-z
1/2-x,-y,1/2-z
1/2+x,y,1/2-z
1/2-x,y,1/2+z
1/2+x,-y,1/2+z
1/2+x,1/2+y,z
1/2-x,1/2-y,z
1/2+x,1/2-y,-z
1/2-x,1/2+y,-z
1/2-x,1/2-y,-z
1/2+x,1/2+y,-z
1/2-x,1/2+y,z
1/2+x,1/2-y,z
loop_
_atom_site_type_symbol
_atom_site_label
_atom_site_fract_x
_atom_site_fract_y
_atom_site_fract_z
Si Si1 0.843996 0.567192 0.901671
Si Si2 0.414827 0.353541 0.675638
Si Si3 0.191985 0.436062 0.554774
Si Si4 0.332649 0.316346 0.237116
Si Si5 0.414997 0.833559 0.447442
Si Si6 0.916902 0.068400 0.500000
Si Si7 0.585327 0.777486 0.350078
O O1 0.858083 0.500000 0.895403
O O2 0.874228 0.603282 0.858593
O O3 0.758968 0.574280 0.910824
O O4 0.881027 0.586247 0.950873
O O5 0.500000 0.365057 0.675210
O O6 0.383278 0.352442 0.728497
O O7 0.403367 0.289092 0.657991
O O8 0.218417 0.433304 0.500000
O O9 0.165767 0.500000 0.561956
O O10 0.130558 0.390034 0.559974
O O11 0.339850 0.250000 0.250000
O O12 0.250000 0.331392 0.250000
O O13 0.362991 0.314744 0.183770
O O14 0.397808 0.811214 0.500000
O O15 0.500000 0.846407 0.446435
O O16 0.400382 0.791982 0.404388
O O17 0.000000 0.085417 0.500000
O O18 0.912618 0.000000 0.500000
O O19 0.500000 0.788734 0.339279
#
# Coordination Sequence:
#
# PCOD9511632 Si02
#       7
#    32  32  32  32  32  16  32
#     4  10  19  32  49  72 102 135 170 212 256 296
#     4  10  20  33  51  76 100 130 173 212 250 301
#     4   9  17  31  50  71  98 134 173 210 249 295
#     4   9  18  32  52  77  98 126 165 211 251 295
#     4   9  18  32  51  76 105 135 166 204 255 311
#     4   9  16  28  46  66  92 129 171 205 238 287
#     4   9  18  34  53  74 104 137 166 205 258 307
#
# _framework density 16.692312999999999
#
# number of rings (size 3 to 8) (size 9 to 14) (size 15 to 20)
#    0.000    2.692    0.769    0.923    2.154    3.077 
#    1.385    1.538    0.000    3.231    0.000    2.154 
#    0.000    0.000    0.000    0.000    0.000    0.000 
#
# Total GULP energy -289558.426889 kJ/mol
# GULP energy per Si atom -5568.431286 kJ/mol
# Density = 1.665432 g / cm^3
# Si number density = 16.692313 Si / 1000 Ang^3
#
#
#
# Elastic Constant Matrix: (Units=GPa)
#
#
# Indices 1 2 3 4 5 6 
#
# 1 35.5803 23.2780 44.3078 0.0000 0.0000 0.0000
# 2 23.2780 32.6578 37.9688 0.0000 0.0000 0.0000
# 3 44.3078 37.9688 109.3421 0.0000 0.0000 0.0000
# 4 0.0000 0.0000 0.0000 29.7939 0.0000 0.0000
# 5 0.0000 0.0000 0.0000 0.0000 25.4596 0.0000
# 6 0.0000 0.0000 0.0000 0.0000 0.0000 21.0844
#
#
#
# Elastic Compliance Matrix: (Units=1/GPa)
#
#
# Indices 1 2 3 4 5 6 
#
# 1 0.069314 -0.028092 -0.018333 0.000000 0.000000 0.000000
# 2 -0.028092 0.062738 -0.010402 0.000000 0.000000 0.000000
# 3 -0.018333 -0.010402 0.020186 0.000000 0.000000 0.000000
# 4 0.000000 0.000000 0.000000 0.033564 0.000000 0.000000
# 5 0.000000 0.000000 0.000000 0.000000 0.039278 0.000000
# 6 0.000000 0.000000 0.000000 0.000000 0.000000 0.047428
#
#
# Mechanical properties :
#
#
# Convention : Reuss Voigt Hill
#
# Bulk Modulus (GPa) = 25.91688 43.18771 34.55229
# Shear Modulus (GPa) = 12.53060 20.06928 16.29994
#
# Velocity S-wave (km/s) = 2.74283 3.47119 3.12828
# Velocity P-wave (km/s) = 5.05873 6.48032 5.81314
#
# Compressibility (1/GPa) = 0.03858489
#
# Stress axis : x y z
#
# Youngs Moduli (GPa) = 14.42718 15.93931 49.53808
#
# Poissons Ratio (x) = 0.44776 0.90816
# Poissons Ratio (y) = 0.40529 0.51531
# Poissons Ratio (z) = 0.26449 0.16580
#
# Static dielectric constant tensor:
#      x y z
#    x 1.577660 0.000000 0.000000 
#    y 0.000000 1.529040 0.000000 
#    z 0.000000 0.000000 1.583000 
# 
# From -- ./inp_files/27009.got.cif
#   From: 2010.05.17/outbox.cif.g08.bks.cpg/sg69_14_cif.got.tgz:27009.got - 2010.06.03 19:29:58.
