data_PCOD9511877
_publ_section_title
;
Structure prediction by ZEFSAII (Michael W. Deem and Ramdas Pophale) SiO2 
 PCOD9511877
Probable space group: F M M M
;
_chemical_formula_sum "Si O2"
_cell_formula_units_Z 128
_cell_length_a 14.709166
_cell_length_b 26.257541
_cell_length_c 15.380053
_cell_angle_alpha 90.000000
_cell_angle_beta 90.000000
_cell_angle_gamma 90.000000
_cell_volume 5940.184491
_symmetry_space_group_name_H-M "F M M M"
_symmetry_group_IT_number 69
_symmetry_cell_setting 'orthorhombic'
loop_
_space_group_symop_operation_xyz
x,y,z
-x,-y,z
x,-y,-z
-x,y,-z
-x,-y,-z
x,y,-z
-x,y,z
x,-y,z
x,1/2+y,1/2+z
-x,1/2-y,1/2+z
x,1/2-y,1/2-z
-x,1/2+y,1/2-z
-x,1/2-y,1/2-z
x,1/2+y,1/2-z
-x,1/2+y,1/2+z
x,1/2-y,1/2+z
1/2+x,y,1/2+z
1/2-x,-y,1/2+z
1/2+x,-y,1/2-z
1/2-x,y,1/2-z
1/2-x,-y,1/2-z
1/2+x,y,1/2-z
1/2-x,y,1/2+z
1/2+x,-y,1/2+z
1/2+x,1/2+y,z
1/2-x,1/2-y,z
1/2+x,1/2-y,-z
1/2-x,1/2+y,-z
1/2-x,1/2-y,-z
1/2+x,1/2+y,-z
1/2-x,1/2+y,z
1/2+x,1/2-y,z
loop_
_atom_site_type_symbol
_atom_site_label
_atom_site_fract_x
_atom_site_fract_y
_atom_site_fract_z
Si Si1 0.889780 0.639492 0.360831
Si Si2 0.101659 0.835176 0.500000
Si Si3 0.611487 0.390009 0.670123
Si Si4 0.110866 0.942536 0.000000
Si Si5 0.110635 0.000000 0.601928
Si Si6 0.846972 0.775961 0.000000
O O1 0.858617 0.632774 0.262152
O O2 0.861613 0.589920 0.416119
O O3 0.860983 0.688699 0.415903
O O4 0.000000 0.640703 0.361152
O O5 0.144279 0.856215 0.588591
O O6 0.093490 0.774801 0.500000
O O7 0.000000 0.858073 0.500000
O O8 0.500000 0.388949 0.673175
O O9 0.638651 0.448187 0.650351
O O10 0.000000 0.944028 0.000000
O O11 0.144112 0.000000 0.000000
O O12 0.137622 0.000000 0.500000
O O13 0.000000 0.000000 0.601837
O O14 0.750000 0.750000 0.000000
#
# Coordination Sequence:
#
# PCOD9511877 Si02
#       6
#    32  16  32  16  16  16
#     4   9  18  33  52  79 112 140 175 223 273 326
#     4  10  19  34  54  78 106 140 180 221 272 323
#     4   9  17  28  49  81 113 143 173 215 269 325
#     4   8  14  24  42  72 107 140 169 200 249 314
#     4   9  14  24  44  79 122 148 170 213 266 319
#     4  11  23  39  55  72  97 142 188 236 280 320
#
# _framework density 21.548152999999999
#
# number of rings (size 3 to 8) (size 9 to 14) (size 15 to 20)
#    0.000    2.750    1.250    1.875    1.750    1.000 
#    0.000    6.250    0.000    0.000   13.000    1.750 
#    0.000    0.000    0.000    0.000    0.000    0.000 
#
# Total GULP energy -178659.616167 kJ/mol
# GULP energy per Si atom -5583.113005 kJ/mol
# Density = 2.149911 g / cm^3
# Si number density = 21.548153 Si / 1000 Ang^3
#
#
#
# Elastic Constant Matrix: (Units=GPa)
#
#
# Indices 1 2 3 4 5 6 
#
# 1 58.8148 12.3861 16.8232 0.0000 0.0000 0.0000
# 2 12.3861 201.0446 128.8013 0.0000 0.0000 0.0000
# 3 16.8232 128.8013 251.6026 0.0000 0.0000 0.0000
# 4 0.0000 0.0000 0.0000 9.0100 0.0000 0.0000
# 5 0.0000 0.0000 0.0000 0.0000 -7.4466 0.0000
# 6 0.0000 0.0000 0.0000 0.0000 0.0000 1.6656
#
#
#
# Elastic Compliance Matrix: (Units=1/GPa)
#
#
# Indices 1 2 3 4 5 6 
#
# 1 0.017366 -0.000485 -0.000913 0.000000 0.000000 0.000000
# 2 -0.000485 0.007415 -0.003763 0.000000 0.000000 0.000000
# 3 -0.000913 -0.003763 0.005962 0.000000 0.000000 0.000000
# 4 0.000000 0.000000 0.000000 0.110988 0.000000 0.000000
# 5 0.000000 0.000000 0.000000 0.000000 -0.134290 0.000000
# 6 0.000000 0.000000 0.000000 0.000000 0.000000 0.600377
#
#
# Mechanical properties :
#
#
# Convention : Reuss Voigt Hill
#
# Bulk Modulus (GPa) = 48.97115 91.94258 70.45686
# Shear Modulus (GPa) = 8.00067 24.20923 16.10495
#
# Velocity S-wave (km/s) = 1.92899 3.35549 2.73682
# Velocity P-wave (km/s) = 5.26660 7.60089 6.53875
#
# Compressibility (1/GPa) = 0.02042019
#
# Stress axis : x y z
#
# Youngs Moduli (GPa) = 57.58455 134.86129 167.72400
#
# Poissons Ratio (x) = 0.06542 0.15310
# Poissons Ratio (y) = 0.02793 0.63123
# Poissons Ratio (z) = 0.05256 0.50755
#
# Static dielectric constant tensor:
#      x y z
#    x 4.397820 0.000000 0.000000 
#    y 0.000000 1.737740 0.000000 
#    z 0.000000 0.000000 1.735610 
# 
# From -- ./inp_files/15377.got.cif
#   From: 2010.05.17/outbox.cif.g08.bks.cpg/sg69_8_cif.got.tgz:15377.got - 2010.06.03 19:29:58.
