data_PCOD9511953
_publ_section_title
;
Structure prediction by ZEFSAII (Michael W. Deem and Ramdas Pophale) SiO2 
 PCOD9511953
Probable space group: F M M M
;
_chemical_formula_sum "Si O2"
_cell_formula_units_Z 144
_cell_length_a 30.954898
_cell_length_b 14.263330
_cell_length_c 17.834533
_cell_angle_alpha 90.000000
_cell_angle_beta 90.000000
_cell_angle_gamma 90.000000
_cell_volume 7874.301678
_symmetry_space_group_name_H-M "F M M M"
_symmetry_group_IT_number 69
_symmetry_cell_setting 'orthorhombic'
loop_
_space_group_symop_operation_xyz
x,y,z
-x,-y,z
x,-y,-z
-x,y,-z
-x,-y,-z
x,y,-z
-x,y,z
x,-y,z
x,1/2+y,1/2+z
-x,1/2-y,1/2+z
x,1/2-y,1/2-z
-x,1/2+y,1/2-z
-x,1/2-y,1/2-z
x,1/2+y,1/2-z
-x,1/2+y,1/2+z
x,1/2-y,1/2+z
1/2+x,y,1/2+z
1/2-x,-y,1/2+z
1/2+x,-y,1/2-z
1/2-x,y,1/2-z
1/2-x,-y,1/2-z
1/2+x,y,1/2-z
1/2-x,y,1/2+z
1/2+x,-y,1/2+z
1/2+x,1/2+y,z
1/2-x,1/2-y,z
1/2+x,1/2-y,-z
1/2-x,1/2+y,-z
1/2-x,1/2-y,-z
1/2+x,1/2+y,-z
1/2-x,1/2+y,z
1/2+x,1/2-y,z
loop_
_atom_site_type_symbol
_atom_site_label
_atom_site_fract_x
_atom_site_fract_y
_atom_site_fract_z
Si Si1 0.292154 0.315150 0.913018
Si Si2 0.629608 0.000000 0.787659
Si Si3 0.713564 0.000000 0.314276
Si Si4 0.628698 0.708869 0.334627
Si Si5 0.550115 0.306356 0.089116
Si Si6 0.949877 0.000000 0.177593
O O1 0.250000 0.250000 0.908775
O O2 0.283488 0.407942 0.865108
O O3 0.332673 0.259605 0.878614
O O4 0.300619 0.338137 0.000000
O O5 0.634397 0.902973 0.832161
O O6 0.667004 0.000000 0.725293
O O7 0.583603 0.000000 0.745528
O O8 0.750000 0.000000 0.250000
O O9 0.628594 0.750000 0.250000
O O10 0.583690 0.736054 0.373347
O O11 0.500000 0.280064 0.102125
O O12 0.557127 0.407654 0.127330
O O13 0.556999 0.312701 0.000000
O O14 0.000000 0.000000 0.202189
#
# Coordination Sequence:
#
# PCOD9511953 Si02
#       6
#    32  16  16  32  32  16
#     4  11  25  43  64  93 126 165 207 252 306 368
#     4  12  24  38  57  96 119 157 205 247 311 362
#     4  12  23  39  68  94 124 162 203 257 310 363
#     4  12  23  40  63  88 124 161 204 254 310 366
#     4  10  21  38  61  89 122 161 203 253 313 372
#     4  10  19  34  60  90 123 154 197 259 312 368
#
# _framework density 18.287336
#
# number of rings (size 3 to 8) (size 9 to 14) (size 15 to 20)
#    0.000    0.889    4.444    2.667    0.000    2.667 
#    0.000    6.667    0.000    1.333    0.000    0.000 
#    0.000    0.000    0.000    0.000    0.000    0.000 
#
# Total GULP energy -201294.835801 kJ/mol
# GULP energy per Si atom -5591.523217 kJ/mol
# Density = 1.824571 g / cm^3
# Si number density = 18.287336 Si / 1000 Ang^3
#
#
#
# Elastic Constant Matrix: (Units=GPa)
#
#
# Indices 1 2 3 4 5 6 
#
# 1 82.4499 51.3069 68.8557 0.0000 0.0000 0.0000
# 2 51.3069 160.2548 72.2922 0.0000 0.0000 0.0000
# 3 68.8557 72.2922 117.4700 0.0000 0.0000 0.0000
# 4 0.0000 0.0000 0.0000 13.9481 0.0000 0.0000
# 5 0.0000 0.0000 0.0000 0.0000 39.5193 0.0000
# 6 0.0000 0.0000 0.0000 0.0000 0.0000 26.1591
#
#
#
# Elastic Compliance Matrix: (Units=1/GPa)
#
#
# Indices 1 2 3 4 5 6 
#
# 1 0.024154 -0.001864 -0.013011 0.000000 0.000000 0.000000
# 2 -0.001864 0.008782 -0.004312 0.000000 0.000000 0.000000
# 3 -0.013011 -0.004312 0.018793 0.000000 0.000000 0.000000
# 4 0.000000 0.000000 0.000000 0.071695 0.000000 0.000000
# 5 0.000000 0.000000 0.000000 0.000000 0.025304 0.000000
# 6 0.000000 0.000000 0.000000 0.000000 0.000000 0.038228
#
#
# Mechanical properties :
#
#
# Convention : Reuss Voigt Hill
#
# Bulk Modulus (GPa) = 74.87656 82.78715 78.83185
# Shear Modulus (GPa) = 21.75982 27.10662 24.43322
#
# Velocity S-wave (km/s) = 3.45321 3.85419 3.65920
# Velocity P-wave (km/s) = 7.54539 8.07310 7.81370
#
# Compressibility (1/GPa) = 0.01335532
#
# Stress axis : x y z
#
# Youngs Moduli (GPa) = 41.40055 113.86981 53.21105
#
# Poissons Ratio (x) = 0.21222 0.69234
# Poissons Ratio (y) = 0.07716 0.22945
# Poissons Ratio (z) = 0.53867 0.49101
#
# Static dielectric constant tensor:
#      x y z
#    x 1.615980 0.000000 0.000000 
#    y 0.000000 1.612630 0.000000 
#    z 0.000000 0.000000 1.601980 
# 
# From -- ./inp_files/27437.got.cif
#   From: 2010.05.17/outbox.cif.g08.bks.cpg/sg69_14_cif.got.tgz:27437.got - 2010.06.03 19:29:58.
