data_PCOD9511706
_publ_section_title
;
Structure prediction by ZEFSAII (Michael W. Deem and Ramdas Pophale) SiO2 
 PCOD9511706
Probable space group: F M M M
;
_chemical_formula_sum "Si O2"
_cell_formula_units_Z 160
_cell_length_a 10.124818
_cell_length_b 26.097197
_cell_length_c 31.014457
_cell_angle_alpha 90.000000
_cell_angle_beta 90.000000
_cell_angle_gamma 90.000000
_cell_volume 8194.930432
_symmetry_space_group_name_H-M "F M M M"
_symmetry_group_IT_number 69
_symmetry_cell_setting 'orthorhombic'
loop_
_space_group_symop_operation_xyz
x,y,z
-x,-y,z
x,-y,-z
-x,y,-z
-x,-y,-z
x,y,-z
-x,y,z
x,-y,z
x,1/2+y,1/2+z
-x,1/2-y,1/2+z
x,1/2-y,1/2-z
-x,1/2+y,1/2-z
-x,1/2-y,1/2-z
x,1/2+y,1/2-z
-x,1/2+y,1/2+z
x,1/2-y,1/2+z
1/2+x,y,1/2+z
1/2-x,-y,1/2+z
1/2+x,-y,1/2-z
1/2-x,y,1/2-z
1/2-x,-y,1/2-z
1/2+x,y,1/2-z
1/2-x,y,1/2+z
1/2+x,-y,1/2+z
1/2+x,1/2+y,z
1/2-x,1/2-y,z
1/2+x,1/2-y,-z
1/2-x,1/2+y,-z
1/2-x,1/2-y,-z
1/2+x,1/2+y,-z
1/2-x,1/2+y,z
1/2+x,1/2-y,z
loop_
_atom_site_type_symbol
_atom_site_label
_atom_site_fract_x
_atom_site_fract_y
_atom_site_fract_z
Si Si1 0.000000 0.178775 0.951856
Si Si2 0.159241 0.357973 0.290291
Si Si3 0.216604 0.909361 0.952043
Si Si4 0.500000 0.229498 0.115480
Si Si5 0.342169 0.444789 0.141890
Si Si6 0.750000 0.250000 0.173922
Si Si7 0.500000 0.860073 0.047163
O O1 0.873307 0.141731 0.948519
O O2 0.000000 0.220176 0.914574
O O3 0.000000 0.201781 0.000000
O O4 0.250000 0.373736 0.250000
O O5 0.197657 0.395061 0.330426
O O6 0.194572 0.298846 0.300302
O O7 0.000000 0.361953 0.282921
O O8 0.187303 0.940175 0.908863
O O9 0.369079 0.893885 0.950763
O O10 0.187210 0.931490 0.000000
O O11 0.629786 0.230568 0.144576
O O12 0.500000 0.180943 0.084626
O O13 0.500000 0.445651 0.145899
O O14 0.290029 0.500000 0.157877
O O15 0.500000 0.834050 0.000000
#
# Coordination Sequence:
#
# PCOD9511706 Si02
#       7
#    16  32  32  16  32  16  16
#     4  10  19  32  53  81 119 163 212 262 295 346
#     4  11  25  45  67  93 125 159 203 255 308 369
#     4  10  20  36  58  86 123 163 205 251 300 359
#     4  12  21  34  55  84 120 162 208 252 306 362
#     4  10  21  40  67  95 124 160 204 255 309 362
#     4  12  25  38  63  92 122 160 199 252 310 374
#     4  10  21  34  51  79 121 169 210 250 301 358
#
# _framework density 19.524266000000001
#
# number of rings (size 3 to 8) (size 9 to 14) (size 15 to 20)
#    0.000    1.400    2.000    4.200    1.400    1.600 
#    1.800    5.500    0.000    1.800    0.000    0.000 
#    0.000    0.000    0.000    0.000    0.000    0.000 
#
# Total GULP energy -223257.915057 kJ/mol
# GULP energy per Si atom -5581.447876 kJ/mol
# Density = 1.947983 g / cm^3
# Si number density = 19.524266 Si / 1000 Ang^3
#
#
#
# Elastic Constant Matrix: (Units=GPa)
#
#
# Indices 1 2 3 4 5 6 
#
# 1 74.8149 4.2972 16.7070 0.0000 0.0000 0.0000
# 2 4.2972 86.2420 41.4147 0.0000 0.0000 0.0000
# 3 16.7070 41.4147 105.5539 0.0000 0.0000 0.0000
# 4 0.0000 0.0000 0.0000 1.9199 0.0000 0.0000
# 5 0.0000 0.0000 0.0000 0.0000 38.0901 0.0000
# 6 0.0000 0.0000 0.0000 0.0000 0.0000 12.6573
#
#
#
# Elastic Compliance Matrix: (Units=1/GPa)
#
#
# Indices 1 2 3 4 5 6 
#
# 1 0.013870 0.000447 -0.002371 0.000000 0.000000 0.000000
# 2 0.000447 0.014302 -0.005682 0.000000 0.000000 0.000000
# 3 -0.002371 -0.005682 0.012079 0.000000 0.000000 0.000000
# 4 0.000000 0.000000 0.000000 0.520866 0.000000 0.000000
# 5 0.000000 0.000000 0.000000 0.000000 0.026254 0.000000
# 6 0.000000 0.000000 0.000000 0.000000 0.000000 0.079006
#
#
# Mechanical properties :
#
#
# Convention : Reuss Voigt Hill
#
# Bulk Modulus (GPa) = 39.93773 43.49431 41.71602
# Shear Modulus (GPa) = 7.24708 24.14626 15.69667
#
# Velocity S-wave (km/s) = 1.92870 3.52053 2.83849
# Velocity P-wave (km/s) = 5.04576 6.23305 5.67057
#
# Compressibility (1/GPa) = 0.02503898
#
# Stress axis : x y z
#
# Youngs Moduli (GPa) = 72.09773 69.92206 82.79155
#
# Poissons Ratio (x) = -0.03129 0.19629
# Poissons Ratio (y) = -0.03226 0.47043
# Poissons Ratio (z) = 0.17094 0.39731
#
# Static dielectric constant tensor:
#      x y z
#    x 1.651260 0.000000 0.000000 
#    y 0.000000 1.689490 0.000000 
#    z 0.000000 0.000000 1.711800 
# 
# From -- ./inp_files/43523.got.cif
#   From: 2010.05.17/outbox.cif.g08.bks.cpg/sg69_22_cif.got.tgz:43523.got - 2010.06.03 19:29:58.
