data_PCOD9511231
_publ_section_title
;
Structure prediction by ZEFSAII (Michael W. Deem and Ramdas Pophale) SiO2 
 PCOD9511231
Probable space group: F M M M
;
_chemical_formula_sum "Si O2"
_cell_formula_units_Z 112
_cell_length_a 22.143047
_cell_length_b 29.065457
_cell_length_c 8.361704
_cell_angle_alpha 90.000000
_cell_angle_beta 90.000000
_cell_angle_gamma 90.000000
_cell_volume 5381.574135
_symmetry_space_group_name_H-M "F M M M"
_symmetry_group_IT_number 69
_symmetry_cell_setting 'orthorhombic'
loop_
_space_group_symop_operation_xyz
x,y,z
-x,-y,z
x,-y,-z
-x,y,-z
-x,-y,-z
x,y,-z
-x,y,z
x,-y,z
x,1/2+y,1/2+z
-x,1/2-y,1/2+z
x,1/2-y,1/2-z
-x,1/2+y,1/2-z
-x,1/2-y,1/2-z
x,1/2+y,1/2-z
-x,1/2+y,1/2+z
x,1/2-y,1/2+z
1/2+x,y,1/2+z
1/2-x,-y,1/2+z
1/2+x,-y,1/2-z
1/2-x,y,1/2-z
1/2-x,-y,1/2-z
1/2+x,y,1/2-z
1/2-x,y,1/2+z
1/2+x,-y,1/2+z
1/2+x,1/2+y,z
1/2-x,1/2-y,z
1/2+x,1/2-y,-z
1/2-x,1/2+y,-z
1/2-x,1/2-y,-z
1/2+x,1/2+y,-z
1/2-x,1/2+y,z
1/2+x,1/2-y,z
loop_
_atom_site_type_symbol
_atom_site_label
_atom_site_fract_x
_atom_site_fract_y
_atom_site_fract_z
Si Si1 0.185709 0.606839 0.306941
Si Si2 0.629209 0.301991 0.190438
Si Si3 0.566194 0.445700 0.194197
Si Si4 0.500000 0.302967 0.309394
O O1 0.185155 0.605785 0.500000
O O2 0.250000 0.588631 0.250000
O O3 0.176774 0.659934 0.254097
O O4 0.126602 0.579418 0.248738
O O5 0.638265 0.250000 0.250000
O O6 0.563271 0.320744 0.242771
O O7 0.629470 0.299958 0.000000
O O8 0.500000 0.428791 0.251468
O O9 0.569889 0.500000 0.230264
O O10 0.565654 0.441392 0.000000
O O11 0.500000 0.304413 0.500000
O O12 0.500000 0.250000 0.250000
#
# Coordination Sequence:
#
# PCOD9511231 Si02
#       4
#    32  32  32  16
#     4  10  22  36  54  80 111 146 182 225 272 322
#     4  10  20  34  52  75 106 145 185 227 269 318
#     4   8  15  31  57  85 108 135 177 224 269 322
#     4  10  18  30  50  76 103 134 175 225 274 319
#
# _framework density 20.811755000000002
#
# number of rings (size 3 to 8) (size 9 to 14) (size 15 to 20)
#    0.000    2.571    0.000    4.714    2.000    3.429 
#    0.000    2.857    0.000    0.000    0.000    2.000 
#    0.000    0.000    0.000    0.000    0.000    0.000 
#
# Total GULP energy -156184.000582 kJ/mol
# GULP energy per Si atom -5578.000021 kJ/mol
# Density = 2.076439 g / cm^3
# Si number density = 20.811755 Si / 1000 Ang^3
#
#
#
# Elastic Constant Matrix: (Units=GPa)
#
#
# Indices 1 2 3 4 5 6 
#
# 1 187.8222 74.6472 6.7205 0.0001 -0.0002 -0.0001
# 2 74.6472 69.5309 12.0421 0.0000 0.0000 0.0000
# 3 6.7205 12.0421 23.7361 -0.0001 0.0000 -0.0001
# 4 0.0001 0.0000 -0.0001 8.2376 -0.0002 -0.0001
# 5 -0.0002 0.0000 0.0000 -0.0002 27.4237 0.0001
# 6 -0.0001 0.0000 -0.0001 -0.0001 0.0001 26.6023
#
#
#
# Elastic Compliance Matrix: (Units=1/GPa)
#
#
# Indices 1 2 3 4 5 6 
#
# 1 0.009443 -0.010606 0.002707 0.000000 0.000000 0.000000
# 2 -0.010606 0.027681 -0.011041 0.000000 0.000000 0.000000
# 3 0.002707 -0.011041 0.046965 0.000000 0.000000 0.000000
# 4 0.000000 0.000000 0.000000 0.121395 0.000001 0.000001
# 5 0.000000 0.000000 0.000000 0.000001 0.036465 0.000000
# 6 0.000000 0.000000 0.000000 0.000001 0.000000 0.037591
#
#
# Mechanical properties :
#
#
# Convention : Reuss Voigt Hill
#
# Bulk Modulus (GPa) = 21.64060 51.98986 36.81523
# Shear Modulus (GPa) = 15.02309 24.96468 19.99388
#
# Velocity S-wave (km/s) = 2.68965 3.46721 3.10288
# Velocity P-wave (km/s) = 4.47956 6.40811 5.52858
#
# Compressibility (1/GPa) = 0.04620945
#
# Stress axis : x y z
#
# Youngs Moduli (GPa) = 105.90220 36.12576 21.29262
#
# Poissons Ratio (x) = 0.38316 -0.05765
# Poissons Ratio (y) = 1.12324 0.23508
# Poissons Ratio (z) = -0.28673 0.39885
#
# Static dielectric constant tensor:
#      x y z
#    x 1.782410 0.000000 0.000000 
#    y 0.000000 1.753570 0.000000 
#    z 0.000000 0.000000 1.716850 
# 
# From -- ./inp_files/3731.got.cif
#   From: 2010.05.17/outbox.cif.g08.bks.cpg/sg69_2_cif.got.tgz:3731.got - 2010.06.03 19:29:58.
