data_PCOD9511905
_publ_section_title
;
Structure prediction by ZEFSAII (Michael W. Deem and Ramdas Pophale) SiO2 
 PCOD9511905
Probable space group: F M M M
;
_chemical_formula_sum "Si O2"
_cell_formula_units_Z 192
_cell_length_a 32.799827
_cell_length_b 22.956681
_cell_length_c 13.784481
_cell_angle_alpha 90.000000
_cell_angle_beta 90.000000
_cell_angle_gamma 90.000000
_cell_volume 10379.371859
_symmetry_space_group_name_H-M "F M M M"
_symmetry_group_IT_number 69
_symmetry_cell_setting 'orthorhombic'
loop_
_space_group_symop_operation_xyz
x,y,z
-x,-y,z
x,-y,-z
-x,y,-z
-x,-y,-z
x,y,-z
-x,y,z
x,-y,z
x,1/2+y,1/2+z
-x,1/2-y,1/2+z
x,1/2-y,1/2-z
-x,1/2+y,1/2-z
-x,1/2-y,1/2-z
x,1/2+y,1/2-z
-x,1/2+y,1/2+z
x,1/2-y,1/2+z
1/2+x,y,1/2+z
1/2-x,-y,1/2+z
1/2+x,-y,1/2-z
1/2-x,y,1/2-z
1/2-x,-y,1/2-z
1/2+x,y,1/2-z
1/2-x,y,1/2+z
1/2+x,-y,1/2+z
1/2+x,1/2+y,z
1/2-x,1/2-y,z
1/2+x,1/2-y,-z
1/2-x,1/2+y,-z
1/2-x,1/2-y,-z
1/2+x,1/2+y,-z
1/2-x,1/2+y,z
1/2+x,1/2-y,z
loop_
_atom_site_type_symbol
_atom_site_label
_atom_site_fract_x
_atom_site_fract_y
_atom_site_fract_z
Si Si1 0.500000 0.247727 0.890115
Si Si2 0.201831 0.679574 0.250730
Si Si3 0.919161 0.567661 0.268668
Si Si4 0.863389 0.637799 0.614251
Si Si5 0.914296 0.253681 0.387814
Si Si6 0.366247 0.135782 0.111538
Si Si7 0.000000 0.111667 0.116121
O O1 0.456856 0.230535 0.846254
O O2 0.500000 0.318068 0.888181
O O3 0.500000 0.223811 0.000000
O O4 0.195165 0.750000 0.250000
O O5 0.250000 0.669851 0.250000
O O6 0.180686 0.654057 0.346626
O O7 0.176815 0.645092 0.166780
O O8 0.925742 0.500000 0.248152
O O9 0.882776 0.579131 0.345555
O O10 0.899591 0.598978 0.173341
O O11 0.960076 0.591454 0.322856
O O12 0.864269 0.639434 0.500000
O O13 0.893370 0.689254 0.655478
O O14 0.923885 0.270082 0.500000
O O15 0.883173 0.201471 0.390166
O O16 0.362432 0.115492 0.000000
O O17 0.000000 0.092858 0.000000
#
# Coordination Sequence:
#
# PCOD9511905 Si02
#       7
#    16  32  32  32  32  32  16
#     4   9  16  28  50  79 112 146 179 220 276 338
#     4  10  20  33  55  89 123 149 178 224 287 358
#     4  11  24  38  56  84 113 151 204 246 283 334
#     4  10  19  34  56  81 116 149 180 230 289 349
#     4   9  16  30  52  80 110 145 186 223 276 342
#     4  10  22  40  60  80 115 160 196 235 284 343
#     4  11  21  37  58  85 121 154 188 243 303 344
#
# _framework density 18.49823
#
# number of rings (size 3 to 8) (size 9 to 14) (size 15 to 20)
#    0.000    2.000    3.333    0.750    0.000    3.333 
#    0.000    3.750    0.000    9.000    0.000    9.333 
#    0.000    0.000    0.000    0.000    0.000    0.000 
#
# Total GULP energy -267253.866335 kJ/mol
# GULP energy per Si atom -5567.788882 kJ/mol
# Density = 1.845613 g / cm^3
# Si number density = 18.498230 Si / 1000 Ang^3
#
#
#
# Elastic Constant Matrix: (Units=GPa)
#
#
# Indices 1 2 3 4 5 6 
#
# 1 106.1525 13.7816 34.2980 0.0000 0.0000 0.0000
# 2 13.7816 45.3483 6.5789 0.0000 0.0000 0.0000
# 3 34.2980 6.5789 123.8974 0.0000 0.0000 0.0000
# 4 0.0000 0.0000 0.0000 13.1530 0.0000 0.0000
# 5 0.0000 0.0000 0.0000 0.0000 20.0435 0.0000
# 6 0.0000 0.0000 0.0000 0.0000 0.0000 11.7399
#
#
#
# Elastic Compliance Matrix: (Units=1/GPa)
#
#
# Indices 1 2 3 4 5 6 
#
# 1 0.010698 -0.002843 -0.002810 0.000000 0.000000 0.000000
# 2 -0.002843 0.022978 -0.000433 0.000000 0.000000 0.000000
# 3 -0.002810 -0.000433 0.008872 0.000000 0.000000 0.000000
# 4 0.000000 0.000000 0.000000 0.076028 0.000000 0.000000
# 5 0.000000 0.000000 0.000000 0.000000 0.049891 0.000000
# 6 0.000000 0.000000 0.000000 0.000000 0.000000 0.085180
#
#
# Mechanical properties :
#
#
# Convention : Reuss Voigt Hill
#
# Bulk Modulus (GPa) = 32.92211 42.74612 37.83412
# Shear Modulus (GPa) = 18.11946 23.70326 20.91136
#
# Velocity S-wave (km/s) = 3.13313 3.58352 3.36587
# Velocity P-wave (km/s) = 5.56100 6.34670 5.96680
#
# Compressibility (1/GPa) = 0.03037472
#
# Stress axis : x y z
#
# Youngs Moduli (GPa) = 93.47900 43.51900 112.71192
#
# Poissons Ratio (x) = 0.12374 0.31676
# Poissons Ratio (y) = 0.26579 0.04881
# Poissons Ratio (z) = 0.26271 0.01885
#
# Static dielectric constant tensor:
#      x y z
#    x 1.671610 0.000000 0.000000 
#    y 0.000000 1.617480 0.000000 
#    z 0.000000 0.000000 1.701410 
# 
# From -- ./inp_files/19805.got.cif
#   From: 2010.05.17/outbox.cif.g08.bks.cpg/sg69_10_cif.got.tgz:19805.got - 2010.06.03 19:29:58.
