data_PCOD9511031
_publ_section_title
;
Structure prediction by ZEFSAII (Michael W. Deem and Ramdas Pophale) SiO2 
 PCOD9511031
Probable space group: F M M M
;
_chemical_formula_sum "Si O2"
_cell_formula_units_Z 168
_cell_length_a 16.911489
_cell_length_b 15.090651
_cell_length_c 31.530629
_cell_angle_alpha 90.000000
_cell_angle_beta 90.000000
_cell_angle_gamma 90.000000
_cell_volume 8046.786105
_symmetry_space_group_name_H-M "F M M M"
_symmetry_group_IT_number 69
_symmetry_cell_setting 'orthorhombic'
loop_
_space_group_symop_operation_xyz
x,y,z
-x,-y,z
x,-y,-z
-x,y,-z
-x,-y,-z
x,y,-z
-x,y,z
x,-y,z
x,1/2+y,1/2+z
-x,1/2-y,1/2+z
x,1/2-y,1/2-z
-x,1/2+y,1/2-z
-x,1/2-y,1/2-z
x,1/2+y,1/2-z
-x,1/2+y,1/2+z
x,1/2-y,1/2+z
1/2+x,y,1/2+z
1/2-x,-y,1/2+z
1/2+x,-y,1/2-z
1/2-x,y,1/2-z
1/2-x,-y,1/2-z
1/2+x,y,1/2-z
1/2-x,y,1/2+z
1/2+x,-y,1/2+z
1/2+x,1/2+y,z
1/2-x,1/2-y,z
1/2+x,1/2-y,-z
1/2-x,1/2+y,-z
1/2-x,1/2-y,-z
1/2+x,1/2+y,-z
1/2-x,1/2+y,z
1/2+x,1/2-y,z
loop_
_atom_site_type_symbol
_atom_site_label
_atom_site_fract_x
_atom_site_fract_y
_atom_site_fract_z
Si Si1 0.414668 0.234024 0.800051
Si Si2 0.162244 0.644540 0.061084
Si Si3 0.689675 0.399107 0.655598
Si Si4 0.847947 0.146530 0.953011
Si Si5 0.398333 0.500000 0.500000
Si Si6 0.878078 0.099648 0.141368
O O1 0.500000 0.191031 0.810036
O O2 0.412508 0.250000 0.750000
O O3 0.342754 0.170192 0.811165
O O4 0.410648 0.322839 0.828743
O O5 0.153436 0.631097 0.110869
O O6 0.149695 0.746638 0.049330
O O7 0.254323 0.621407 0.049922
O O8 0.107583 0.577554 0.036213
O O9 0.668085 0.500000 0.665549
O O10 0.783645 0.395372 0.649169
O O11 0.888518 0.113642 0.909554
O O12 0.876456 0.118211 0.000000
O O13 0.904550 0.000000 0.152248
#
# Coordination Sequence:
#
# PCOD9511031 Si02
#       6
#    32  32  32  32   8  32
#     4  11  25  44  64  84 112 155 201 246 300 364
#     4  10  17  25  44  79 121 155 185 232 285 336
#     4  10  20  36  60  92 123 149 190 242 304 355
#     4  10  17  28  47  80 123 159 192 229 282 342
#     4  12  16  22  44  84 123 158 191 232 290 336
#     4  10  22  37  61  93 124 154 194 249 300 345
#
# _framework density 20.877898999999999
#
# number of rings (size 3 to 8) (size 9 to 14) (size 15 to 20)
#    0.000    1.714    4.762    1.143    1.333    3.429 
#    0.000    3.810    0.000    0.571    0.000    2.000 
#    0.000    0.000    0.000    0.000    0.000    0.000 
#
# Total GULP energy -233953.638065 kJ/mol
# GULP energy per Si atom -5570.324716 kJ/mol
# Density = 2.083038 g / cm^3
# Si number density = 20.877899 Si / 1000 Ang^3
#
#
#
# Elastic Constant Matrix: (Units=GPa)
#
#
# Indices 1 2 3 4 5 6 
#
# 1 32.7351 24.0615 24.3986 0.0000 0.0000 0.0000
# 2 24.0615 92.4231 34.3261 0.0000 0.0000 0.0000
# 3 24.3986 34.3261 117.7187 0.0000 0.0000 0.0000
# 4 0.0000 0.0000 0.0000 21.7489 0.0000 0.0000
# 5 0.0000 0.0000 0.0000 0.0000 40.8002 0.0000
# 6 0.0000 0.0000 0.0000 0.0000 0.0000 -8.5397
#
#
#
# Elastic Compliance Matrix: (Units=1/GPa)
#
#
# Indices 1 2 3 4 5 6 
#
# 1 0.041334 -0.008500 -0.006088 0.000000 0.000000 0.000000
# 2 -0.008500 0.013882 -0.002286 0.000000 0.000000 0.000000
# 3 -0.006088 -0.002286 0.010423 0.000000 0.000000 0.000000
# 4 0.000000 0.000000 0.000000 0.045979 0.000000 0.000000
# 5 0.000000 0.000000 0.000000 0.000000 0.024510 0.000000
# 6 0.000000 0.000000 0.000000 0.000000 0.000000 -0.117101
#
#
# Mechanical properties :
#
#
# Convention : Reuss Voigt Hill
#
# Bulk Modulus (GPa) = 31.35748 45.38325 38.37037
# Shear Modulus (GPa) = 78.85719 21.47460 50.16589
#
# Velocity S-wave (km/s) = 6.15245 3.21063 4.90718
# Velocity P-wave (km/s) = 8.09458 5.96061 7.10813
#
# Compressibility (1/GPa) = 0.03189031
#
# Stress axis : x y z
#
# Youngs Moduli (GPa) = 24.19329 72.03733 95.93818
#
# Poissons Ratio (x) = 0.61229 0.58412
# Poissons Ratio (y) = 0.20563 0.21933
# Poissons Ratio (z) = 0.14730 0.16469
#
# Static dielectric constant tensor:
#      x y z
#    x 1.768680 0.000000 0.000000 
#    y 0.000000 1.731320 0.000000 
#    z 0.000000 0.000000 1.747890 
# 
# From -- ./inp_files/46762.got.cif
#   From: 2010.05.17/outbox.cif.g08.bks.cpg/sg69_24_cif.got.tgz:46762.got - 2010.06.03 19:29:58.
