data_PCOD9511753
_publ_section_title
;
Structure prediction by ZEFSAII (Michael W. Deem and Ramdas Pophale) SiO2 
 PCOD9511753
Probable space group: F M M M
;
_chemical_formula_sum "Si O2"
_cell_formula_units_Z 128
_cell_length_a 35.271799
_cell_length_b 25.864323
_cell_length_c 8.765115
_cell_angle_alpha 90.000000
_cell_angle_beta 90.000000
_cell_angle_gamma 90.000000
_cell_volume 7996.249649
_symmetry_space_group_name_H-M "F M M M"
_symmetry_group_IT_number 69
_symmetry_cell_setting 'orthorhombic'
loop_
_space_group_symop_operation_xyz
x,y,z
-x,-y,z
x,-y,-z
-x,y,-z
-x,-y,-z
x,y,-z
-x,y,z
x,-y,z
x,1/2+y,1/2+z
-x,1/2-y,1/2+z
x,1/2-y,1/2-z
-x,1/2+y,1/2-z
-x,1/2-y,1/2-z
x,1/2+y,1/2-z
-x,1/2+y,1/2+z
x,1/2-y,1/2+z
1/2+x,y,1/2+z
1/2-x,-y,1/2+z
1/2+x,-y,1/2-z
1/2-x,y,1/2-z
1/2-x,-y,1/2-z
1/2+x,y,1/2-z
1/2-x,y,1/2+z
1/2+x,-y,1/2+z
1/2+x,1/2+y,z
1/2-x,1/2-y,z
1/2+x,1/2-y,-z
1/2-x,1/2+y,-z
1/2-x,1/2-y,-z
1/2+x,1/2+y,-z
1/2-x,1/2+y,z
1/2+x,1/2-y,z
loop_
_atom_site_type_symbol
_atom_site_label
_atom_site_fract_x
_atom_site_fract_y
_atom_site_fract_z
Si Si1 0.707950 0.000000 0.683490
Si Si2 0.708912 0.193240 0.817482
Si Si3 0.000000 0.437771 0.820653
Si Si4 0.160196 0.897979 0.815255
Si Si5 0.420954 0.560313 0.183529
O O1 0.750000 0.000000 0.750000
O O2 0.684715 0.051326 0.727475
O O3 0.710306 0.000000 0.500000
O O4 0.700660 0.250000 0.750000
O O5 0.750000 0.177651 0.750000
O O6 0.678357 0.151734 0.762622
O O7 0.711179 0.195725 0.000000
O O8 0.039378 0.419168 0.748401
O O9 0.000000 0.500000 0.794744
O O10 0.000000 0.428191 0.000000
O O11 0.116630 0.908730 0.771662
O O12 0.161979 0.892785 0.000000
O O13 0.416218 0.500000 0.230876
O O14 0.423054 0.560479 0.000000
#
# Coordination Sequence:
#
# PCOD9511753 Si02
#       5
#    16  32  16  32  32
#     4  10  20  32  46  67  98 133 165 196 239 292
#     4  11  22  37  55  74  96 127 167 212 256 296
#     4   9  17  27  41  65  98 131 164 205 245 284
#     4  10  19  33  51  73 101 131 166 206 246 293
#     4   9  16  29  48  69  96 133 169 200 238 291
#
# _framework density 16.007504999999998
#
# number of rings (size 3 to 8) (size 9 to 14) (size 15 to 20)
#    0.000    2.125    1.250    4.125    0.000    5.500 
#    0.000    0.000    0.000    0.000    0.000    0.875 
#    0.000    0.000    0.000    0.000    0.000    0.000 
#
# Total GULP energy -178534.902007 kJ/mol
# GULP energy per Si atom -5579.215688 kJ/mol
# Density = 1.597107 g / cm^3
# Si number density = 16.007505 Si / 1000 Ang^3
#
#
#
# Elastic Constant Matrix: (Units=GPa)
#
#
# Indices 1 2 3 4 5 6 
#
# 1 182.6690 72.5838 56.7765 -0.0003 0.0000 -0.0001
# 2 72.5838 62.0607 32.1739 -0.0009 0.0000 -0.0001
# 3 56.7765 32.1739 49.0553 -0.0013 -0.0002 -0.0002
# 4 -0.0003 -0.0009 -0.0013 19.6056 -0.0001 -0.0001
# 5 0.0000 0.0000 -0.0002 -0.0001 23.0603 0.0002
# 6 -0.0001 -0.0001 -0.0002 -0.0001 0.0002 17.2253
#
#
#
# Elastic Compliance Matrix: (Units=1/GPa)
#
#
# Indices 1 2 3 4 5 6 
#
# 1 0.011567 -0.009982 -0.006841 -0.000001 0.000000 0.000000
# 2 -0.009982 0.033029 -0.010110 0.000001 0.000000 0.000000
# 3 -0.006841 -0.010110 0.034933 0.000002 0.000000 0.000000
# 4 -0.000001 0.000001 0.000002 0.051006 0.000000 0.000000
# 5 0.000000 0.000000 0.000000 0.000000 0.043365 -0.000001
# 6 0.000000 0.000000 0.000000 0.000000 -0.000001 0.058054
#
#
# Mechanical properties :
#
#
# Convention : Reuss Voigt Hill
#
# Bulk Modulus (GPa) = 38.96439 68.53926 53.75182
# Shear Modulus (GPa) = 16.98529 20.79496 18.89013
#
# Velocity S-wave (km/s) = 3.26096 3.60818 3.43896
# Velocity P-wave (km/s) = 6.21069 7.76328 7.02998
#
# Compressibility (1/GPa) = 0.02566446
#
# Stress axis : x y z
#
# Youngs Moduli (GPa) = 86.45408 30.27678 28.62601
#
# Poissons Ratio (x) = 0.30221 0.19582
# Poissons Ratio (y) = 0.86296 0.28940
# Poissons Ratio (z) = 0.59141 0.30609
#
# Static dielectric constant tensor:
#      x y z
#    x 1.536190 0.000000 0.000000 
#    y 0.000000 1.515060 0.000000 
#    z 0.000000 0.000000 1.534620 
# 
# From -- ./inp_files/4775.got.cif
#   From: 2010.05.17/outbox.cif.g08.bks.cpg/sg69_3_cif.got.tgz:4775.got - 2010.06.03 19:29:58.
