data_PCOD9511450
_publ_section_title
;
Structure prediction by ZEFSAII (Michael W. Deem and Ramdas Pophale) SiO2 
 PCOD9511450
Probable space group: F M M M
;
_chemical_formula_sum "Si O2"
_cell_formula_units_Z 176
_cell_length_a 27.645179
_cell_length_b 18.323260
_cell_length_c 18.075249
_cell_angle_alpha 90.000000
_cell_angle_beta 90.000000
_cell_angle_gamma 90.000000
_cell_volume 9156.013812
_symmetry_space_group_name_H-M "F M M M"
_symmetry_group_IT_number 69
_symmetry_cell_setting 'orthorhombic'
loop_
_space_group_symop_operation_xyz
x,y,z
-x,-y,z
x,-y,-z
-x,y,-z
-x,-y,-z
x,y,-z
-x,y,z
x,-y,z
x,1/2+y,1/2+z
-x,1/2-y,1/2+z
x,1/2-y,1/2-z
-x,1/2+y,1/2-z
-x,1/2-y,1/2-z
x,1/2+y,1/2-z
-x,1/2+y,1/2+z
x,1/2-y,1/2+z
1/2+x,y,1/2+z
1/2-x,-y,1/2+z
1/2+x,-y,1/2-z
1/2-x,y,1/2-z
1/2-x,-y,1/2-z
1/2+x,y,1/2-z
1/2-x,y,1/2+z
1/2+x,-y,1/2+z
1/2+x,1/2+y,z
1/2-x,1/2-y,z
1/2+x,1/2-y,-z
1/2-x,1/2+y,-z
1/2-x,1/2-y,-z
1/2+x,1/2+y,-z
1/2-x,1/2+y,z
1/2+x,1/2-y,z
loop_
_atom_site_type_symbol
_atom_site_label
_atom_site_fract_x
_atom_site_fract_y
_atom_site_fract_z
Si Si1 0.823596 0.684052 0.087318
Si Si2 0.000000 0.919640 0.412685
Si Si3 0.755394 0.084376 0.837447
Si Si4 0.943750 0.163646 0.162428
Si Si5 0.079790 0.835525 0.671109
Si Si6 0.655275 0.356795 0.914599
O O1 0.776046 0.642352 0.115482
O O2 0.865837 0.658302 0.142623
O O3 0.826465 0.772314 0.093371
O O4 0.831899 0.667689 0.000000
O O5 0.953204 0.879047 0.384580
O O6 0.000000 0.922083 0.500000
O O7 0.000000 0.000000 0.380536
O O8 0.750000 0.098950 0.750000
O O9 0.810637 0.095773 0.862300
O O10 0.740614 0.000000 0.851355
O O11 0.930173 0.138800 0.245506
O O12 0.937295 0.251441 0.165474
O O13 0.901135 0.138253 0.107942
O O14 0.000000 0.146497 0.145397
O O15 0.661658 0.377456 0.000000
#
# Coordination Sequence:
#
# PCOD9511450 Si02
#       6
#    32  16  32  32  32  32
#     4  10  21  36  59  89 118 151 190 235 288 349
#     4  11  22  33  48  74 115 160 190 221 275 336
#     4  11  24  41  60  84 114 153 197 238 289 349
#     4  10  18  34  61  86 110 147 194 243 291 332
#     4  10  18  35  55  82 114 148 191 237 279 334
#     4  10  22  38  59  90 121 149 189 242 295 345
#
# _framework density 19.222339000000002
#
# number of rings (size 3 to 8) (size 9 to 14) (size 15 to 20)
#    0.000    1.727    1.818    3.273    0.000    7.636 
#    0.000    0.909    0.000    0.000    0.000    1.273 
#    0.000    0.000    0.000    0.000    0.000    0.000 
#
# Total GULP energy -245508.301443 kJ/mol
# GULP energy per Si atom -5579.734124 kJ/mol
# Density = 1.917859 g / cm^3
# Si number density = 19.222339 Si / 1000 Ang^3
#
#
#
# Elastic Constant Matrix: (Units=GPa)
#
#
# Indices 1 2 3 4 5 6 
#
# 1 125.4102 20.2696 40.7397 0.0000 0.0000 0.0000
# 2 20.2696 16.3023 27.9450 0.0000 0.0000 0.0000
# 3 40.7397 27.9450 97.1904 0.0000 0.0000 0.0000
# 4 0.0000 0.0000 0.0000 24.0092 0.0000 0.0000
# 5 0.0000 0.0000 0.0000 0.0000 46.6833 0.0000
# 6 0.0000 0.0000 0.0000 0.0000 0.0000 -16.3061
#
#
#
# Elastic Compliance Matrix: (Units=1/GPa)
#
#
# Indices 1 2 3 4 5 6 
#
# 1 0.010052 -0.010403 -0.001223 0.000000 0.000000 0.000000
# 2 -0.010403 0.131725 -0.033514 0.000000 0.000000 0.000000
# 3 -0.001223 -0.033514 0.020438 0.000000 0.000000 0.000000
# 4 0.000000 0.000000 0.000000 0.041651 0.000000 0.000000
# 5 0.000000 0.000000 0.000000 0.000000 0.021421 0.000000
# 6 0.000000 0.000000 0.000000 0.000000 0.000000 -0.061327
#
#
# Mechanical properties :
#
#
# Convention : Reuss Voigt Hill
#
# Bulk Modulus (GPa) = 13.90127 46.31237 30.10682
# Shear Modulus (GPa) = 17.97156 20.87386 19.42271
#
# Velocity S-wave (km/s) = 3.06098 3.29890 3.18217
# Velocity P-wave (km/s) = 4.44301 6.21736 5.40352
#
# Compressibility (1/GPa) = 0.07193588
#
# Stress axis : x y z
#
# Youngs Moduli (GPa) = 99.47891 7.59158 48.92914
#
# Poissons Ratio (x) = 0.07898 0.05982
# Poissons Ratio (y) = 1.03489 1.63981
# Poissons Ratio (z) = 0.12161 0.25442
#
# Static dielectric constant tensor:
#      x y z
#    x 1.747990 0.000000 0.000000 
#    y 0.000000 1.661560 0.000000 
#    z 0.000000 0.000000 1.647700 
# 
# From -- ./inp_files/26730.got.cif
#   From: 2010.05.17/outbox.cif.g08.bks.cpg/sg69_14_cif.got.tgz:26730.got - 2010.06.03 19:29:58.
