data_PCOD9511946
_publ_section_title
;
Structure prediction by ZEFSAII (Michael W. Deem and Ramdas Pophale) SiO2 
 PCOD9511946
Probable space group: F M M M
;
_chemical_formula_sum "Si O2"
_cell_formula_units_Z 160
_cell_length_a 15.274727
_cell_length_b 16.531737
_cell_length_c 31.075393
_cell_angle_alpha 90.000000
_cell_angle_beta 90.000000
_cell_angle_gamma 90.000000
_cell_volume 7847.088927
_symmetry_space_group_name_H-M "F M M M"
_symmetry_group_IT_number 69
_symmetry_cell_setting 'orthorhombic'
loop_
_space_group_symop_operation_xyz
x,y,z
-x,-y,z
x,-y,-z
-x,y,-z
-x,-y,-z
x,y,-z
-x,y,z
x,-y,z
x,1/2+y,1/2+z
-x,1/2-y,1/2+z
x,1/2-y,1/2-z
-x,1/2+y,1/2-z
-x,1/2-y,1/2-z
x,1/2+y,1/2-z
-x,1/2+y,1/2+z
x,1/2-y,1/2+z
1/2+x,y,1/2+z
1/2-x,-y,1/2+z
1/2+x,-y,1/2-z
1/2-x,y,1/2-z
1/2-x,-y,1/2-z
1/2+x,y,1/2-z
1/2-x,y,1/2+z
1/2+x,-y,1/2+z
1/2+x,1/2+y,z
1/2-x,1/2-y,z
1/2+x,1/2-y,-z
1/2-x,1/2+y,-z
1/2-x,1/2-y,-z
1/2+x,1/2+y,-z
1/2-x,1/2+y,z
1/2+x,1/2-y,z
loop_
_atom_site_type_symbol
_atom_site_label
_atom_site_fract_x
_atom_site_fract_y
_atom_site_fract_z
Si Si1 0.402251 0.861564 0.580741
Si Si2 0.394642 0.674348 0.279880
Si Si3 0.279483 0.903250 0.953019
Si Si4 0.843081 0.705344 0.877942
Si Si5 0.892163 0.000000 0.755595
Si Si6 0.395519 0.000000 0.352185
O O1 0.500000 0.884554 0.565426
O O2 0.320850 0.871518 0.549032
O O3 0.403789 0.772079 0.599750
O O4 0.375841 0.921331 0.619897
O O5 0.500000 0.674587 0.275538
O O6 0.363043 0.750000 0.250000
O O7 0.372721 0.684507 0.330064
O O8 0.364085 0.585263 0.264973
O O9 0.329649 0.866382 0.912201
O O10 0.277748 0.000000 0.950231
O O11 0.316499 0.879955 0.000000
O O12 0.750000 0.750000 0.874061
O O13 0.858741 0.000000 0.804659
O O14 0.000000 0.000000 0.754678
O O15 0.500000 0.000000 0.346864
#
# Coordination Sequence:
#
# PCOD9511946 Si02
#       6
#    32  32  32  32  16  16
#     4  10  19  34  59  87 112 146 191 245 299 348
#     4  10  20  36  58  85 117 152 196 247 293 342
#     4  10  22  40  60  83 115 155 198 244 298 355
#     4  10  22  36  57  83 118 158 193 232 293 358
#     4   9  18  30  51  81 108 146 188 229 285 347
#     4   9  16  30  52  80 114 142 179 234 295 346
#
# _framework density 20.389727000000001
#
# number of rings (size 3 to 8) (size 9 to 14) (size 15 to 20)
#    0.000    2.200    1.000    1.800    1.400    7.600 
#    0.000    1.000    0.000    5.400    0.000    5.600 
#    0.000    0.000    0.000    0.000    0.000    0.000 
#
# Total GULP energy -223110.240747 kJ/mol
# GULP energy per Si atom -5577.756019 kJ/mol
# Density = 2.034332 g / cm^3
# Si number density = 20.389727 Si / 1000 Ang^3
#
#
#
# Elastic Constant Matrix: (Units=GPa)
#
#
# Indices 1 2 3 4 5 6 
#
# 1 29.5144 26.7228 4.1324 0.0000 0.0000 0.0000
# 2 26.7228 123.6903 80.5944 0.0000 0.0000 0.0000
# 3 4.1324 80.5944 148.0662 0.0000 0.0000 0.0000
# 4 0.0000 0.0000 0.0000 15.6102 0.0000 0.0000
# 5 0.0000 0.0000 0.0000 0.0000 -66.9099 0.0000
# 6 0.0000 0.0000 0.0000 0.0000 0.0000 22.2692
#
#
#
# Elastic Compliance Matrix: (Units=1/GPa)
#
#
# Indices 1 2 3 4 5 6 
#
# 1 0.045672 -0.014003 0.006347 0.000000 0.000000 0.000000
# 2 -0.014003 0.016821 -0.008765 0.000000 0.000000 0.000000
# 3 0.006347 -0.008765 0.011348 0.000000 0.000000 0.000000
# 4 0.000000 0.000000 0.000000 0.064061 0.000000 0.000000
# 5 0.000000 0.000000 0.000000 0.000000 -0.014945 0.000000
# 6 0.000000 0.000000 0.000000 0.000000 0.000000 0.044905
#
#
# Mechanical properties :
#
#
# Convention : Reuss Voigt Hill
#
# Bulk Modulus (GPa) = 24.39100 58.24113 41.31607
# Shear Modulus (GPa) = 23.32428 6.84864 15.08646
#
# Velocity S-wave (km/s) = 3.38586 1.83471 2.72307
# Velocity P-wave (km/s) = 5.22243 5.75449 5.49491
#
# Compressibility (1/GPa) = 0.04099873
#
# Stress axis : x y z
#
# Youngs Moduli (GPa) = 21.89544 59.44846 88.12415
#
# Poissons Ratio (x) = 0.83246 -0.55936
# Poissons Ratio (y) = 0.30660 0.77243
# Poissons Ratio (z) = -0.13898 0.52108
#
# Static dielectric constant tensor:
#      x y z
#    x 1.761950 0.000000 0.000000 
#    y 0.000000 1.765940 0.000000 
#    z 0.000000 0.000000 1.720130 
# 
# From -- ./inp_files/21882.got.cif
#   From: 2010.05.17/outbox.cif.g08.bks.cpg/sg69_11_cif.got.tgz:21882.got - 2010.06.03 19:29:58.
