data_PCOD9511165
_publ_section_title
;
Structure prediction by ZEFSAII (Michael W. Deem and Ramdas Pophale) SiO2 
 PCOD9511165
Probable space group: F M M M
;
_chemical_formula_sum "Si O2"
_cell_formula_units_Z 144
_cell_length_a 37.251737
_cell_length_b 9.100980
_cell_length_c 29.181231
_cell_angle_alpha 90.000000
_cell_angle_beta 90.000000
_cell_angle_gamma 90.000000
_cell_volume 9893.234348
_symmetry_space_group_name_H-M "F M M M"
_symmetry_group_IT_number 69
_symmetry_cell_setting 'orthorhombic'
loop_
_space_group_symop_operation_xyz
x,y,z
-x,-y,z
x,-y,-z
-x,y,-z
-x,-y,-z
x,y,-z
-x,y,z
x,-y,z
x,1/2+y,1/2+z
-x,1/2-y,1/2+z
x,1/2-y,1/2-z
-x,1/2+y,1/2-z
-x,1/2-y,1/2-z
x,1/2+y,1/2-z
-x,1/2+y,1/2+z
x,1/2-y,1/2+z
1/2+x,y,1/2+z
1/2-x,-y,1/2+z
1/2+x,-y,1/2-z
1/2-x,y,1/2-z
1/2-x,-y,1/2-z
1/2+x,y,1/2-z
1/2-x,y,1/2+z
1/2+x,-y,1/2+z
1/2+x,1/2+y,z
1/2-x,1/2-y,z
1/2+x,1/2-y,-z
1/2-x,1/2+y,-z
1/2-x,1/2-y,-z
1/2+x,1/2+y,-z
1/2-x,1/2+y,z
1/2+x,1/2-y,z
loop_
_atom_site_type_symbol
_atom_site_label
_atom_site_fract_x
_atom_site_fract_y
_atom_site_fract_z
Si Si1 0.500000 0.178541 0.552318
Si Si2 0.786133 0.831060 0.555751
Si Si3 0.569586 0.177637 0.388785
Si Si4 0.139933 0.323575 0.553494
Si Si5 0.457386 0.824953 0.798416
O O1 0.500000 0.231350 0.500000
O O2 0.464291 0.221652 0.579594
O O3 0.500000 0.000000 0.550805
O O4 0.785363 0.828565 0.500000
O O5 0.750000 0.750000 0.571498
O O6 0.822963 0.750656 0.568666
O O7 0.786210 0.000000 0.570354
O O8 0.606213 0.216430 0.415012
O O9 0.564458 0.254065 0.340010
O O10 0.568509 0.000000 0.383441
O O11 0.133018 0.284211 0.500000
O O12 0.144085 0.500000 0.554964
O O13 0.500000 0.796798 0.806764
O O14 0.448376 0.750000 0.750000
O O15 0.452281 0.000000 0.796056
#
# Coordination Sequence:
#
# PCOD9511165 Si02
#       5
#    16  32  32  32  32
#     4   9  16  26  42  63  86 117 156 189 214 249
#     4   9  16  26  41  60  83 114 150 187 225 264
#     4  10  18  29  46  66  89 117 151 188 224 263
#     4   9  17  28  42  63  91 122 154 186 219 259
#     4  10  20  33  49  66  85 109 143 187 235 280
#
# _framework density 14.555401
#
# number of rings (size 3 to 8) (size 9 to 14) (size 15 to 20)
#    0.000    2.556    1.111    2.000    0.000    7.111 
#    0.000    0.000    0.000    2.667    0.000    0.000 
#    0.000    0.889    0.000    9.333    0.000    4.444 
#
# Total GULP energy -200663.271922 kJ/mol
# GULP energy per Si atom -5573.979776 kJ/mol
# Density = 1.452227 g / cm^3
# Si number density = 14.555401 Si / 1000 Ang^3
#
#
#
# Elastic Constant Matrix: (Units=GPa)
#
#
# Indices 1 2 3 4 5 6 
#
# 1 145.1721 59.5063 69.1471 0.0000 0.0000 0.0000
# 2 59.5063 47.5476 43.7766 0.0000 0.0000 0.0000
# 3 69.1471 43.7766 98.2293 0.0000 0.0000 0.0000
# 4 0.0000 0.0000 0.0000 20.1047 0.0000 0.0000
# 5 0.0000 0.0000 0.0000 0.0000 5.3768 0.0000
# 6 0.0000 0.0000 0.0000 0.0000 0.0000 23.0884
#
#
#
# Elastic Compliance Matrix: (Units=1/GPa)
#
#
# Indices 1 2 3 4 5 6 
#
# 1 0.014894 -0.015241 -0.003693 0.000000 0.000000 0.000000
# 2 -0.015241 0.051261 -0.012116 0.000000 0.000000 0.000000
# 3 -0.003693 -0.012116 0.018179 0.000000 0.000000 0.000000
# 4 0.000000 0.000000 0.000000 0.049740 0.000000 0.000000
# 5 0.000000 0.000000 0.000000 0.000000 0.185984 0.000000
# 6 0.000000 0.000000 0.000000 0.000000 0.000000 0.043312
#
#
# Mechanical properties :
#
#
# Convention : Reuss Voigt Hill
#
# Bulk Modulus (GPa) = 44.97338 70.64546 57.80942
# Shear Modulus (GPa) = 11.55053 17.61526 14.58289
#
# Velocity S-wave (km/s) = 2.82007 3.48260 3.16870
# Velocity P-wave (km/s) = 6.44739 8.05061 7.29319
#
# Compressibility (1/GPa) = 0.02223537
#
# Stress axis : x y z
#
# Youngs Moduli (GPa) = 67.13933 19.50807 55.00773
#
# Poissons Ratio (x) = 0.29732 0.20312
# Poissons Ratio (y) = 1.02326 0.66649
# Poissons Ratio (z) = 0.24791 0.23636
#
# Static dielectric constant tensor:
#      x y z
#    x 1.468940 0.000000 0.000000 
#    y 0.000000 1.486630 0.000000 
#    z 0.000000 0.000000 1.454510 
# 
# From -- ./inp_files/47376.got.cif
#   From: 2010.05.17/outbox.cif.g08.bks.cpg/sg69_24_cif.got.tgz:47376.got - 2010.06.03 19:29:58.
