data_PCOD9511843
_publ_section_title
;
Structure prediction by ZEFSAII (Michael W. Deem and Ramdas Pophale) SiO2 
 PCOD9511843
Probable space group: F M M M
;
_chemical_formula_sum "Si O2"
_cell_formula_units_Z 132
_cell_length_a 19.155142
_cell_length_b 14.371900
_cell_length_c 24.130640
_cell_angle_alpha 90.000000
_cell_angle_beta 90.000000
_cell_angle_gamma 90.000000
_cell_volume 6643.063489
_symmetry_space_group_name_H-M "F M M M"
_symmetry_group_IT_number 69
_symmetry_cell_setting 'orthorhombic'
loop_
_space_group_symop_operation_xyz
x,y,z
-x,-y,z
x,-y,-z
-x,y,-z
-x,-y,-z
x,y,-z
-x,y,z
x,-y,z
x,1/2+y,1/2+z
-x,1/2-y,1/2+z
x,1/2-y,1/2-z
-x,1/2+y,1/2-z
-x,1/2-y,1/2-z
x,1/2+y,1/2-z
-x,1/2+y,1/2+z
x,1/2-y,1/2+z
1/2+x,y,1/2+z
1/2-x,-y,1/2+z
1/2+x,-y,1/2-z
1/2-x,y,1/2-z
1/2-x,-y,1/2-z
1/2+x,y,1/2-z
1/2-x,y,1/2+z
1/2+x,-y,1/2+z
1/2+x,1/2+y,z
1/2-x,1/2-y,z
1/2+x,1/2-y,-z
1/2-x,1/2+y,-z
1/2-x,1/2-y,-z
1/2+x,1/2+y,-z
1/2-x,1/2+y,z
1/2+x,1/2-y,z
loop_
_atom_site_type_symbol
_atom_site_label
_atom_site_fract_x
_atom_site_fract_y
_atom_site_fract_z
Si Si1 0.084559 0.000000 0.729131
Si Si2 0.365247 0.188132 0.408143
Si Si3 0.082110 0.000000 0.855381
Si Si4 0.500000 0.000000 0.000000
Si Si5 0.582827 0.797845 0.810195
Si Si6 0.897971 0.823742 0.500000
Si Si7 0.237798 0.387410 0.500000
O O1 0.111955 0.000000 0.792487
O O2 0.102519 0.905574 0.697459
O O3 0.000000 0.000000 0.732010
O O4 0.398395 0.091373 0.389151
O O5 0.364104 0.247188 0.351586
O O6 0.409325 0.256359 0.447744
O O7 0.299735 0.156783 0.445803
O O8 0.000000 0.000000 0.848007
O O9 0.441066 0.082769 0.000000
O O10 0.500000 0.790375 0.827761
O O11 0.585507 0.750000 0.750000
O O12 0.817471 0.856200 0.500000
O O13 0.230569 0.500000 0.500000
#
# Coordination Sequence:
#
# PCOD9511843 Si02
#       7
#    16  32  16   4  32  16  16
#     4   9  18  33  52  84 138 190 220 265 343 393
#     4  11  22  39  67  95 132 182 229 266 330 406
#     4  11  20  32  58  99 140 172 222 281 322 398
#     4  12  28  48  72 106 136 160 222 292 344 428
#     4  10  19  33  56  92 140 182 223 279 341 396
#     4  11  28  47  71  95 133 169 213 285 351 406
#     4  11  23  50  69  91 121 181 233 271 334 412
#
# _framework density 19.870349999999998
#
# number of rings (size 3 to 8) (size 9 to 14) (size 15 to 20)
#    0.000    1.455    4.242    2.182    3.394    0.970 
#    2.182    2.424    0.000    2.909    0.000    8.485 
#    0.000    0.000    0.000    0.000    0.000    0.000 
#
# Total GULP energy -183790.120228 kJ/mol
# GULP energy per Si atom -5569.397583 kJ/mol
# Density = 1.982512 g / cm^3
# Si number density = 19.870350 Si / 1000 Ang^3
#
#
#
# Elastic Constant Matrix: (Units=GPa)
#
#
# Indices 1 2 3 4 5 6 
#
# 1 77.1644 49.5511 48.0260 0.0000 0.0000 0.0000
# 2 49.5511 232.1911 69.6695 0.0000 0.0000 0.0000
# 3 48.0260 69.6695 115.6301 0.0000 0.0000 0.0000
# 4 0.0000 0.0000 0.0000 107.1593 0.0000 0.0000
# 5 0.0000 0.0000 0.0000 0.0000 33.2302 0.0000
# 6 0.0000 0.0000 0.0000 0.0000 0.0000 42.1472
#
#
#
# Elastic Compliance Matrix: (Units=1/GPa)
#
#
# Indices 1 2 3 4 5 6 
#
# 1 0.018187 -0.001971 -0.006366 0.000000 0.000000 0.000000
# 2 -0.001971 0.005471 -0.002478 0.000000 0.000000 0.000000
# 3 -0.006366 -0.002478 0.012785 0.000000 0.000000 0.000000
# 4 0.000000 0.000000 0.000000 0.009332 0.000000 0.000000
# 5 0.000000 0.000000 0.000000 0.000000 0.030093 0.000000
# 6 0.000000 0.000000 0.000000 0.000000 0.000000 0.023726
#
#
# Mechanical properties :
#
#
# Convention : Reuss Voigt Hill
#
# Bulk Modulus (GPa) = 67.50635 84.38651 75.94643
# Shear Modulus (GPa) = 39.63128 53.68993 46.66061
#
# Velocity S-wave (km/s) = 4.47082 5.20373 4.85113
# Velocity P-wave (km/s) = 7.79090 8.86937 8.34757
#
# Compressibility (1/GPa) = 0.01481342
#
# Stress axis : x y z
#
# Youngs Moduli (GPa) = 54.98308 182.78680 78.21474
#
# Poissons Ratio (x) = 0.36028 0.49794
# Poissons Ratio (y) = 0.10838 0.19379
# Poissons Ratio (z) = 0.35004 0.45288
#
# Static dielectric constant tensor:
#      x y z
#    x 1.700640 0.000000 0.000000 
#    y 0.000000 1.708810 0.000000 
#    z 0.000000 0.000000 1.785570 
# 
# From -- ./inp_files/31531.got.cif
#   From: 2010.05.17/outbox.cif.g08.bks.cpg/sg69_16_cif.got.tgz:31531.got - 2010.06.03 19:29:58.
