data_PCOD9511600
_publ_section_title
;
Structure prediction by ZEFSAII (Michael W. Deem and Ramdas Pophale) SiO2 
 PCOD9511600
Probable space group: F M M M
;
_chemical_formula_sum "Si O2"
_cell_formula_units_Z 112
_cell_length_a 14.444356
_cell_length_b 29.406693
_cell_length_c 10.554588
_cell_angle_alpha 90.000000
_cell_angle_beta 90.000000
_cell_angle_gamma 90.000000
_cell_volume 4483.174635
_symmetry_space_group_name_H-M "F M M M"
_symmetry_group_IT_number 69
_symmetry_cell_setting 'orthorhombic'
loop_
_space_group_symop_operation_xyz
x,y,z
-x,-y,z
x,-y,-z
-x,y,-z
-x,-y,-z
x,y,-z
-x,y,z
x,-y,z
x,1/2+y,1/2+z
-x,1/2-y,1/2+z
x,1/2-y,1/2-z
-x,1/2+y,1/2-z
-x,1/2-y,1/2-z
x,1/2+y,1/2-z
-x,1/2+y,1/2+z
x,1/2-y,1/2+z
1/2+x,y,1/2+z
1/2-x,-y,1/2+z
1/2+x,-y,1/2-z
1/2-x,y,1/2-z
1/2-x,-y,1/2-z
1/2+x,y,1/2-z
1/2-x,y,1/2+z
1/2+x,-y,1/2+z
1/2+x,1/2+y,z
1/2-x,1/2-y,z
1/2+x,1/2-y,-z
1/2-x,1/2+y,-z
1/2-x,1/2-y,-z
1/2+x,1/2+y,-z
1/2-x,1/2+y,z
1/2+x,1/2-y,z
loop_
_atom_site_type_symbol
_atom_site_label
_atom_site_fract_x
_atom_site_fract_y
_atom_site_fract_z
Si Si1 0.604239 0.054092 0.500000
Si Si2 0.136153 0.707911 0.000000
Si Si3 0.639963 0.313176 0.000000
Si Si4 0.858854 0.350519 0.769654
Si Si5 0.888384 0.550689 0.225279
O O1 0.500000 0.073730 0.500000
O O2 0.652823 0.061072 0.634019
O O3 0.592107 0.000000 0.500000
O O4 0.103915 0.685395 0.130182
O O5 0.247314 0.694990 0.000000
O O6 0.111237 0.760684 0.000000
O O7 0.607894 0.339941 0.873785
O O8 0.750000 0.344740 0.750000
O O9 0.873298 0.400214 0.833975
O O10 0.857887 0.500000 0.180869
O O11 0.000000 0.546886 0.237880
#
# Coordination Sequence:
#
# PCOD9511600 Si02
#       5
#    16  16  16  32  32
#     4   7  11  22  42  66  88 115 158 201 228 262
#     4   9  18  32  50  75 103 128 160 201 245 297
#     4   9  17  32  54  75  97 128 163 201 248 297
#     4  10  19  31  51  77 100 126 163 205 245 285
#     4   9  17  30  48  70  99 135 168 198 239 292
#
# _framework density 24.982296000000002
#
# number of rings (size 3 to 8) (size 9 to 14) (size 15 to 20)
#    0.000    3.000    0.000    3.429    0.000    4.000 
#    0.000    1.429    0.000   12.000    0.000    0.000 
#    0.000    0.000    0.000    0.000    0.000    0.000 
#
# Total GULP energy -155896.067569 kJ/mol
# GULP energy per Si atom -5567.716699 kJ/mol
# Density = 2.492544 g / cm^3
# Si number density = 24.982296 Si / 1000 Ang^3
#
#
#
# Elastic Constant Matrix: (Units=GPa)
#
#
# Indices 1 2 3 4 5 6 
#
# 1 84.0674 6.2065 4.2275 0.0000 0.0000 0.0000
# 2 6.2065 213.0373 64.0900 0.0000 0.0000 0.0000
# 3 4.2275 64.0900 112.1237 0.0000 0.0000 0.0000
# 4 0.0000 0.0000 0.0000 -11.3442 0.0000 0.0000
# 5 0.0000 0.0000 0.0000 0.0000 -29.0538 0.0000
# 6 0.0000 0.0000 0.0000 0.0000 0.0000 199.8835
#
#
#
# Elastic Compliance Matrix: (Units=1/GPa)
#
#
# Indices 1 2 3 4 5 6 
#
# 1 0.011929 -0.000256 -0.000303 0.000000 0.000000 0.000000
# 2 -0.000256 0.005674 -0.003234 0.000000 0.000000 0.000000
# 3 -0.000303 -0.003234 0.010779 0.000000 0.000000 0.000000
# 4 0.000000 0.000000 0.000000 -0.088151 0.000000 0.000000
# 5 0.000000 0.000000 0.000000 0.000000 -0.034419 0.000000
# 6 0.000000 0.000000 0.000000 0.000000 0.000000 0.005003
#
#
# Mechanical properties :
#
#
# Convention : Reuss Voigt Hill
#
# Bulk Modulus (GPa) = 48.08719 62.03073 55.05896
# Shear Modulus (GPa) = -66.96483 54.21073 -6.37705
#
# Velocity S-wave (km/s) = -5.18296 4.66334 -1.59943
# Velocity P-wave (km/s) = 4.06536 7.34026 4.32159
#
# Compressibility (1/GPa) = 0.02079556
#
# Stress axis : x y z
#
# Youngs Moduli (GPa) = 83.82657 176.23219 92.77646
#
# Poissons Ratio (x) = 0.04517 0.02814
# Poissons Ratio (y) = 0.02149 0.30002
# Poissons Ratio (z) = 0.02542 0.56990
#
# Static dielectric constant tensor:
#      x y z
#    x 1.999310 0.000000 0.000000 
#    y 0.000000 1.965700 0.000000 
#    z 0.000000 0.000000 2.324270 
# 
# From -- ./inp_files/9281.got.cif
#   From: 2010.05.17/outbox.cif.g08.bks.cpg/sg69_5_cif.got.tgz:9281.got - 2010.06.03 19:29:58.
