data_PCOD9511176
_publ_section_title
;
Structure prediction by ZEFSAII (Michael W. Deem and Ramdas Pophale) SiO2 
 PCOD9511176
Probable space group: F M M M
;
_chemical_formula_sum "Si O2"
_cell_formula_units_Z 128
_cell_length_a 25.565795
_cell_length_b 14.910143
_cell_length_c 15.371598
_cell_angle_alpha 90.000000
_cell_angle_beta 90.000000
_cell_angle_gamma 90.000000
_cell_volume 5859.494205
_symmetry_space_group_name_H-M "F M M M"
_symmetry_group_IT_number 69
_symmetry_cell_setting 'orthorhombic'
loop_
_space_group_symop_operation_xyz
x,y,z
-x,-y,z
x,-y,-z
-x,y,-z
-x,-y,-z
x,y,-z
-x,y,z
x,-y,z
x,1/2+y,1/2+z
-x,1/2-y,1/2+z
x,1/2-y,1/2-z
-x,1/2+y,1/2-z
-x,1/2-y,1/2-z
x,1/2+y,1/2-z
-x,1/2+y,1/2+z
x,1/2-y,1/2+z
1/2+x,y,1/2+z
1/2-x,-y,1/2+z
1/2+x,-y,1/2-z
1/2-x,y,1/2-z
1/2-x,-y,1/2-z
1/2+x,y,1/2-z
1/2-x,y,1/2+z
1/2+x,-y,1/2+z
1/2+x,1/2+y,z
1/2-x,1/2-y,z
1/2+x,1/2-y,-z
1/2-x,1/2+y,-z
1/2-x,1/2-y,-z
1/2+x,1/2+y,-z
1/2-x,1/2+y,z
1/2+x,1/2-y,z
loop_
_atom_site_type_symbol
_atom_site_label
_atom_site_fract_x
_atom_site_fract_y
_atom_site_fract_z
Si Si1 0.500000 0.163189 0.812714
Si Si2 0.500000 0.599414 0.129314
Si Si3 0.109661 0.391443 0.154448
Si Si4 0.814647 0.390518 0.000000
Si Si5 0.695046 0.109614 0.500000
Si Si6 0.113927 0.890648 0.855526
O O1 0.500000 0.250000 0.750000
O O2 0.500000 0.091127 0.734423
O O3 0.552816 0.149406 0.865258
O O4 0.500000 0.500000 0.091968
O O5 0.556789 0.640727 0.110193
O O6 0.106042 0.500000 0.151072
O O7 0.153283 0.363238 0.085726
O O8 0.120923 0.365327 0.254700
O O9 0.754772 0.359969 0.000000
O O10 0.813663 0.500000 0.000000
O O11 0.661382 0.137599 0.583741
O O12 0.695942 0.000000 0.500000
O O13 0.111683 0.000000 0.857855
#
# Coordination Sequence:
#
# PCOD9511176 Si02
#       6
#    16  16  32  16  16  32
#     4  10  18  29  49  73  94 120 157 201 246 293
#     4   8  14  27  45  69  95 120 150 189 243 305
#     4   9  17  31  49  72 101 133 161 197 247 300
#     4   9  18  29  45  71 102 133 170 202 236 292
#     4   9  16  25  39  69 102 129 166 210 245 284
#     4   8  14  24  41  64  96 128 156 197 249 291
#
# _framework density 21.844888000000001
#
# number of rings (size 3 to 8) (size 9 to 14) (size 15 to 20)
#    0.000    3.250    0.000    2.625    0.000    2.000 
#    0.000    9.375    0.000   12.000    0.000   21.000 
#    0.000    0.000    0.000    0.000    0.000    0.000 
#
# Total GULP energy -178492.783603 kJ/mol
# GULP energy per Si atom -5577.899488 kJ/mol
# Density = 2.179517 g / cm^3
# Si number density = 21.844888 Si / 1000 Ang^3
#
#
#
# Elastic Constant Matrix: (Units=GPa)
#
#
# Indices 1 2 3 4 5 6 
#
# 1 275.1084 13.3122 124.2790 0.0000 0.0000 0.0000
# 2 13.3122 78.1090 11.2425 0.0000 0.0000 0.0000
# 3 124.2790 11.2425 132.4887 0.0000 0.0000 0.0000
# 4 0.0000 0.0000 0.0000 1.0509 0.0000 0.0000
# 5 0.0000 0.0000 0.0000 0.0000 45.6181 0.0000
# 6 0.0000 0.0000 0.0000 0.0000 0.0000 -14.1041
#
#
#
# Elastic Compliance Matrix: (Units=1/GPa)
#
#
# Indices 1 2 3 4 5 6 
#
# 1 0.006312 -0.000226 -0.005902 0.000000 0.000000 0.000000
# 2 -0.000226 0.012969 -0.000888 0.000000 0.000000 0.000000
# 3 -0.005902 -0.000888 0.013159 0.000000 0.000000 0.000000
# 4 0.000000 0.000000 0.000000 0.951572 0.000000 0.000000
# 5 0.000000 0.000000 0.000000 0.000000 0.021921 0.000000
# 6 0.000000 0.000000 0.000000 0.000000 0.000000 -0.070902
#
#
# Mechanical properties :
#
#
# Convention : Reuss Voigt Hill
#
# Bulk Modulus (GPa) = 54.32482 87.04151 70.68317
# Shear Modulus (GPa) = 5.23451 28.97114 17.10282
#
# Velocity S-wave (km/s) = 1.54965 3.64568 2.80111
# Velocity P-wave (km/s) = 5.30324 7.59296 6.54895
#
# Compressibility (1/GPa) = 0.01840779
#
# Stress axis : x y z
#
# Youngs Moduli (GPa) = 158.43112 77.10671 75.99324
#
# Poissons Ratio (x) = 0.01745 0.44848
# Poissons Ratio (y) = 0.03585 0.06750
# Poissons Ratio (z) = 0.93499 0.06849
#
# Static dielectric constant tensor:
#      x y z
#    x 1.796600 0.000000 0.000000 
#    y 0.000000 1.861010 0.000000 
#    z 0.000000 0.000000 1.774120 
# 
# From -- ./inp_files/15395.got.cif
#   From: 2010.05.17/outbox.cif.g08.bks.cpg/sg69_8_cif.got.tgz:15395.got - 2010.06.03 19:29:58.
