data_PCOD9511538
_publ_section_title
;
Structure prediction by ZEFSAII (Michael W. Deem and Ramdas Pophale) SiO2 
 PCOD9511538
Probable space group: F M M M
;
_chemical_formula_sum "Si O2"
_cell_formula_units_Z 160
_cell_length_a 28.275951
_cell_length_b 37.941003
_cell_length_c 10.596907
_cell_angle_alpha 90.000000
_cell_angle_beta 90.000000
_cell_angle_gamma 90.000000
_cell_volume 11368.551956
_symmetry_space_group_name_H-M "F M M M"
_symmetry_group_IT_number 69
_symmetry_cell_setting 'orthorhombic'
loop_
_space_group_symop_operation_xyz
x,y,z
-x,-y,z
x,-y,-z
-x,y,-z
-x,-y,-z
x,y,-z
-x,y,z
x,-y,z
x,1/2+y,1/2+z
-x,1/2-y,1/2+z
x,1/2-y,1/2-z
-x,1/2+y,1/2-z
-x,1/2-y,1/2-z
x,1/2+y,1/2-z
-x,1/2+y,1/2+z
x,1/2-y,1/2+z
1/2+x,y,1/2+z
1/2-x,-y,1/2+z
1/2+x,-y,1/2-z
1/2-x,y,1/2-z
1/2-x,-y,1/2-z
1/2+x,y,1/2-z
1/2-x,y,1/2+z
1/2+x,-y,1/2+z
1/2+x,1/2+y,z
1/2-x,1/2-y,z
1/2+x,1/2-y,-z
1/2-x,1/2+y,-z
1/2-x,1/2-y,-z
1/2+x,1/2+y,-z
1/2-x,1/2+y,z
1/2+x,1/2-y,z
loop_
_atom_site_type_symbol
_atom_site_label
_atom_site_fract_x
_atom_site_fract_y
_atom_site_fract_z
Si Si1 0.442352 0.282834 0.500000
Si Si2 0.557469 0.830888 0.765501
Si Si3 0.138797 0.457481 0.238550
Si Si4 0.703321 0.957274 0.000000
Si Si5 0.555510 0.590393 0.651837
Si Si6 0.188238 0.542837 0.500000
Si Si7 0.057703 0.798800 0.000000
O O1 0.500000 0.282917 0.500000
O O2 0.427151 0.304062 0.624576
O O3 0.427688 0.242140 0.500000
O O4 0.500000 0.829989 0.766114
O O5 0.570237 0.870843 0.799966
O O6 0.573187 0.818126 0.627902
O O7 0.133696 0.500000 0.236043
O O8 0.174469 0.447255 0.125222
O O9 0.089214 0.438746 0.212024
O O10 0.161053 0.446989 0.372676
O O11 0.757402 0.944717 0.000000
O O12 0.705086 0.000000 0.000000
O O13 0.559906 0.589540 0.500000
O O14 0.500000 0.585103 0.682203
O O15 0.189853 0.500000 0.500000
O O16 0.000000 0.799077 0.000000
#
# Coordination Sequence:
#
# PCOD9511538 Si02
#       7
#    16  32  32  16  32  16  16
#     4   9  14  23  38  54  75 102 134 174 213 248
#     4   9  16  26  38  54  77 107 141 174 211 251
#     4  10  19  31  47  68  87 110 148 184 216 258
#     4   9  16  29  49  69  87 108 135 171 218 273
#     4  10  19  31  45  59  82 118 156 189 215 246
#     4   9  18  31  47  67  91 108 127 175 234 275
#     4   9  16  23  36  58  77  96 134 182 215 246
#
# _framework density 14.073912
#
# number of rings (size 3 to 8) (size 9 to 14) (size 15 to 20)
#    0.000    2.600    2.000    1.200    0.000    6.000 
#    0.000    2.500    0.000    1.800    0.000    0.000 
#    0.000    0.000    0.000    0.000    0.000   70.000 
#
# Total GULP energy -222777.504547 kJ/mol
# GULP energy per Si atom -5569.437614 kJ/mol
# Density = 1.404188 g / cm^3
# Si number density = 14.073912 Si / 1000 Ang^3
#
#
#
# Elastic Constant Matrix: (Units=GPa)
#
#
# Indices 1 2 3 4 5 6 
#
# 1 65.1238 39.8889 48.7071 -0.0001 -0.0001 0.0001
# 2 39.8889 54.0566 42.5785 -0.0003 0.0002 0.0000
# 3 48.7071 42.5785 133.9975 -0.0006 0.0004 0.0003
# 4 -0.0001 -0.0003 -0.0006 17.1115 0.0002 0.0001
# 5 -0.0001 0.0002 0.0004 0.0002 12.2006 -0.0002
# 6 0.0001 0.0000 0.0003 0.0001 -0.0002 -0.9244
#
#
#
# Elastic Compliance Matrix: (Units=1/GPa)
#
#
# Indices 1 2 3 4 5 6 
#
# 1 0.030568 -0.018413 -0.005260 0.000000 0.000001 0.000003
# 2 -0.018413 0.035766 -0.004672 0.000000 0.000000 -0.000004
# 3 -0.005260 -0.004672 0.010859 0.000000 0.000000 0.000003
# 4 0.000000 0.000000 0.000000 0.058440 -0.000001 0.000004
# 5 0.000001 0.000000 0.000000 -0.000001 0.081963 -0.000014
# 6 0.000003 -0.000004 0.000003 0.000004 -0.000014 -1.081757
#
#
# Mechanical properties :
#
#
# Convention : Reuss Voigt Hill
#
# Bulk Modulus (GPa) = 48.77337 57.28076 53.02706
# Shear Modulus (GPa) = -6.24504 13.81110 3.78303
#
# Velocity S-wave (km/s) = -2.10878 3.13601 1.64128
# Velocity P-wave (km/s) = 5.36667 7.34173 6.43048
#
# Compressibility (1/GPa) = 0.02050299
#
# Stress axis : x y z
#
# Youngs Moduli (GPa) = 32.71433 27.95952 92.08552
#
# Poissons Ratio (x) = 0.51481 0.48440
# Poissons Ratio (y) = 0.60236 0.43022
# Poissons Ratio (z) = 0.17209 0.13063
#
# Static dielectric constant tensor:
#      x y z
#    x 1.436630 0.000000 0.000000 
#    y 0.000000 1.452260 0.000000 
#    z 0.000000 0.000000 1.474000 
# 
# From -- ./inp_files/10611.got.cif
#   From: 2010.05.17/outbox.cif.g08.bks.cpg/sg69_6_cif.got.tgz:10611.got - 2010.06.03 19:29:58.
