data_PCOD9511509
_publ_section_title
;
Structure prediction by ZEFSAII (Michael W. Deem and Ramdas Pophale) SiO2 
 PCOD9511509
Probable space group: F M M M
;
_chemical_formula_sum "Si O2"
_cell_formula_units_Z 160
_cell_length_a 16.296549
_cell_length_b 34.026702
_cell_length_c 15.316927
_cell_angle_alpha 90.000000
_cell_angle_beta 90.000000
_cell_angle_gamma 90.000000
_cell_volume 8493.508915
_symmetry_space_group_name_H-M "F M M M"
_symmetry_group_IT_number 69
_symmetry_cell_setting 'orthorhombic'
loop_
_space_group_symop_operation_xyz
x,y,z
-x,-y,z
x,-y,-z
-x,y,-z
-x,-y,-z
x,y,-z
-x,y,z
x,-y,z
x,1/2+y,1/2+z
-x,1/2-y,1/2+z
x,1/2-y,1/2-z
-x,1/2+y,1/2-z
-x,1/2-y,1/2-z
x,1/2+y,1/2-z
-x,1/2+y,1/2+z
x,1/2-y,1/2+z
1/2+x,y,1/2+z
1/2-x,-y,1/2+z
1/2+x,-y,1/2-z
1/2-x,y,1/2-z
1/2-x,-y,1/2-z
1/2+x,y,1/2-z
1/2-x,y,1/2+z
1/2+x,-y,1/2+z
1/2+x,1/2+y,z
1/2-x,1/2-y,z
1/2+x,1/2-y,-z
1/2-x,1/2+y,-z
1/2-x,1/2-y,-z
1/2+x,1/2+y,-z
1/2-x,1/2+y,z
1/2+x,1/2-y,z
loop_
_atom_site_type_symbol
_atom_site_label
_atom_site_fract_x
_atom_site_fract_y
_atom_site_fract_z
Si Si1 0.600486 0.250226 0.500000
Si Si2 0.669280 0.895830 0.641684
Si Si3 0.855165 0.627302 0.823052
Si Si4 0.767996 0.953394 0.000000
Si Si5 0.099327 0.715889 0.184345
Si Si6 0.903380 0.661088 0.500000
Si Si7 0.409026 0.910931 0.000000
O O1 0.500000 0.249831 0.500000
O O2 0.626312 0.272367 0.412763
O O3 0.630854 0.205274 0.500000
O O4 0.759729 0.877963 0.655188
O O5 0.629381 0.899512 0.737313
O O6 0.686155 0.934609 0.584191
O O7 0.621858 0.864411 0.583266
O O8 0.872581 0.671944 0.796024
O O9 0.901694 0.614933 0.911405
O O10 0.672753 0.938281 0.000000
O O11 0.770381 0.000000 0.000000
O O12 0.127520 0.750000 0.250000
O O13 0.000000 0.715726 0.187014
O O14 0.000000 0.665489 0.500000
O O15 0.500000 0.929741 0.000000
#
# Coordination Sequence:
#
# PCOD9511509 Si02
#       7
#    16  32  32  16  32  16  16
#     4   9  18  30  43  66  99 136 177 219 265 307
#     4   9  20  36  55  80 103 136 180 214 262 327
#     4  10  19  35  52  74 111 146 181 220 256 309
#     4   9  19  39  64  85 108 134 163 209 262 318
#     4  10  19  30  47  72 103 142 185 225 265 305
#     4  10  19  34  54  74 101 136 182 236 276 311
#     4  10  20  33  55  85 113 145 178 210 255 310
#
# _framework density 18.837914999999999
#
# number of rings (size 3 to 8) (size 9 to 14) (size 15 to 20)
#    0.000    2.400    0.000    3.000    0.000    4.200 
#    0.000   16.000    0.000    4.800    0.000    0.000 
#    0.000    0.000    0.000    0.000    0.000    0.000 
#
# Total GULP energy -223049.792932 kJ/mol
# GULP energy per Si atom -5576.244823 kJ/mol
# Density = 1.879504 g / cm^3
# Si number density = 18.837915 Si / 1000 Ang^3
#
#
#
# Elastic Constant Matrix: (Units=GPa)
#
#
# Indices 1 2 3 4 5 6 
#
# 1 14.3442 15.2303 26.5563 0.0000 0.0000 0.0000
# 2 15.2303 128.4490 50.6559 0.0000 0.0000 0.0000
# 3 26.5563 50.6559 151.4703 0.0000 0.0000 0.0000
# 4 0.0000 0.0000 0.0000 7.3460 0.0000 0.0000
# 5 0.0000 0.0000 0.0000 0.0000 -43.8517 0.0000
# 6 0.0000 0.0000 0.0000 0.0000 0.0000 10.9737
#
#
#
# Elastic Compliance Matrix: (Units=1/GPa)
#
#
# Indices 1 2 3 4 5 6 
#
# 1 0.107218 -0.006105 -0.016756 0.000000 0.000000 0.000000
# 2 -0.006105 0.009316 -0.002045 0.000000 0.000000 0.000000
# 3 -0.016756 -0.002045 0.010224 0.000000 0.000000 0.000000
# 4 0.000000 0.000000 0.000000 0.136128 0.000000 0.000000
# 5 0.000000 0.000000 0.000000 0.000000 -0.022804 0.000000
# 6 0.000000 0.000000 0.000000 0.000000 0.000000 0.091127
#
#
# Mechanical properties :
#
#
# Convention : Reuss Voigt Hill
#
# Bulk Modulus (GPa) = 12.99628 53.23871 33.11749
# Shear Modulus (GPa) = 12.29502 8.34835 10.32168
#
# Velocity S-wave (km/s) = 2.55752 2.10744 2.34331
# Velocity P-wave (km/s) = 3.95414 5.85188 4.99398
#
# Compressibility (1/GPa) = 0.07694512
#
# Stress axis : x y z
#
# Youngs Moduli (GPa) = 9.32678 107.34736 97.81268
#
# Poissons Ratio (x) = 0.65534 1.63897
# Poissons Ratio (y) = 0.05694 0.20003
# Poissons Ratio (z) = 0.15628 0.21953
#
# Static dielectric constant tensor:
#      x y z
#    x 1.658560 0.000000 0.000000 
#    y 0.000000 1.604660 0.000000 
#    z 0.000000 0.000000 1.699530 
# 
# From -- ./inp_files/15740.got.cif
#   From: 2010.05.17/outbox.cif.g08.bks.cpg/sg69_8_cif.got.tgz:15740.got - 2010.06.03 19:29:58.
