data_PCOD9511671
_publ_section_title
;
Structure prediction by ZEFSAII (Michael W. Deem and Ramdas Pophale) SiO2 
 PCOD9511671
Probable space group: F M M M
;
_chemical_formula_sum "Si O2"
_cell_formula_units_Z 112
_cell_length_a 21.497776
_cell_length_b 13.782328
_cell_length_c 20.654155
_cell_angle_alpha 90.000000
_cell_angle_beta 90.000000
_cell_angle_gamma 90.000000
_cell_volume 6119.607195
_symmetry_space_group_name_H-M "F M M M"
_symmetry_group_IT_number 69
_symmetry_cell_setting 'orthorhombic'
loop_
_space_group_symop_operation_xyz
x,y,z
-x,-y,z
x,-y,-z
-x,y,-z
-x,-y,-z
x,y,-z
-x,y,z
x,-y,z
x,1/2+y,1/2+z
-x,1/2-y,1/2+z
x,1/2-y,1/2-z
-x,1/2+y,1/2-z
-x,1/2-y,1/2-z
x,1/2+y,1/2-z
-x,1/2+y,1/2+z
x,1/2-y,1/2+z
1/2+x,y,1/2+z
1/2-x,-y,1/2+z
1/2+x,-y,1/2-z
1/2-x,y,1/2-z
1/2-x,-y,1/2-z
1/2+x,y,1/2-z
1/2-x,y,1/2+z
1/2+x,-y,1/2+z
1/2+x,1/2+y,z
1/2-x,1/2-y,z
1/2+x,1/2-y,-z
1/2-x,1/2+y,-z
1/2-x,1/2-y,-z
1/2+x,1/2+y,-z
1/2-x,1/2+y,z
1/2+x,1/2-y,z
loop_
_atom_site_type_symbol
_atom_site_label
_atom_site_fract_x
_atom_site_fract_y
_atom_site_fract_z
Si Si1 0.792954 0.611760 0.685891
Si Si2 0.697551 0.617573 0.427409
Si Si3 0.068474 0.384663 0.138709
Si Si4 0.609386 0.750000 0.250000
O O1 0.814054 0.500000 0.676513
O O2 0.750000 0.612446 0.750000
O O3 0.750050 0.641466 0.625421
O O4 0.847702 0.685084 0.702669
O O5 0.709677 0.652659 0.500000
O O6 0.697584 0.500000 0.429028
O O7 0.628195 0.644554 0.403874
O O8 0.074957 0.500000 0.152232
O O9 0.072579 0.324000 0.204693
O O10 0.000000 0.369915 0.108693
#
# Coordination Sequence:
#
# PCOD9511671 Si02
#       4
#    32  32  32  16
#     4  10  19  32  52  76 103 134 167 205 253 305
#     4   9  18  33  52  75 102 133 169 207 251 304
#     4  10  21  35  51  73 101 134 173 212 250 296
#     4  12  20  32  52  78 101 137 166 210 250 305
#
# _framework density 18.301828
#
# number of rings (size 3 to 8) (size 9 to 14) (size 15 to 20)
#    0.000    2.000    2.857    1.714    0.000    0.571 
#    0.000    5.714    0.000    0.000    0.000    0.000 
#    0.000    0.000    0.000   25.714    0.000    0.571 
#
# Total GULP energy -156214.622947 kJ/mol
# GULP energy per Si atom -5579.093677 kJ/mol
# Density = 1.826017 g / cm^3
# Si number density = 18.301828 Si / 1000 Ang^3
#
#
#
# Elastic Constant Matrix: (Units=GPa)
#
#
# Indices 1 2 3 4 5 6 
#
# 1 95.2073 33.2964 43.1646 0.0000 0.0000 0.0000
# 2 33.2964 75.6019 21.2101 0.0000 0.0000 0.0000
# 3 43.1646 21.2101 123.2096 0.0000 0.0000 0.0000
# 4 0.0000 0.0000 0.0000 4.5900 0.0000 0.0000
# 5 0.0000 0.0000 0.0000 0.0000 8.8917 0.0000
# 6 0.0000 0.0000 0.0000 0.0000 0.0000 -3.2728
#
#
#
# Elastic Compliance Matrix: (Units=1/GPa)
#
#
# Indices 1 2 3 4 5 6 
#
# 1 0.014127 -0.005079 -0.004075 0.000000 0.000000 0.000000
# 2 -0.005079 0.015724 -0.000928 0.000000 0.000000 0.000000
# 3 -0.004075 -0.000928 0.009704 0.000000 0.000000 0.000000
# 4 0.000000 0.000000 0.000000 0.217865 0.000000 0.000000
# 5 0.000000 0.000000 0.000000 0.000000 0.112465 0.000000
# 6 0.000000 0.000000 0.000000 0.000000 0.000000 -0.305549
#
#
# Mechanical properties :
#
#
# Convention : Reuss Voigt Hill
#
# Bulk Modulus (GPa) = 51.56668 54.37343 52.97006
# Shear Modulus (GPa) = 54.96842 15.13163 35.05002
#
# Velocity S-wave (km/s) = 5.48631 2.87850 4.38095
# Velocity P-wave (km/s) = 8.26859 6.38917 7.38888
#
# Compressibility (1/GPa) = 0.01939237
#
# Stress axis : x y z
#
# Youngs Moduli (GPa) = 70.78671 63.59662 103.05532
#
# Poissons Ratio (x) = 0.32298 0.41994
# Poissons Ratio (y) = 0.35949 0.09560
# Poissons Ratio (z) = 0.28845 0.05900
#
# Static dielectric constant tensor:
#      x y z
#    x 1.628120 0.000000 0.000000 
#    y 0.000000 1.665340 0.000000 
#    z 0.000000 0.000000 1.626060 
# 
# From -- ./inp_files/17377.got.cif
#   From: 2010.05.17/outbox.cif.g08.bks.cpg/sg69_9_cif.got.tgz:17377.got - 2010.06.03 19:29:58.
