data_PCOD9511507
_publ_section_title
;
Structure prediction by ZEFSAII (Michael W. Deem and Ramdas Pophale) SiO2 
 PCOD9511507
Probable space group: F M M M
;
_chemical_formula_sum "Si O2"
_cell_formula_units_Z 160
_cell_length_a 33.302065
_cell_length_b 15.918305
_cell_length_c 16.672258
_cell_angle_alpha 90.000000
_cell_angle_beta 90.000000
_cell_angle_gamma 90.000000
_cell_volume 8838.171165
_symmetry_space_group_name_H-M "F M M M"
_symmetry_group_IT_number 69
_symmetry_cell_setting 'orthorhombic'
loop_
_space_group_symop_operation_xyz
x,y,z
-x,-y,z
x,-y,-z
-x,y,-z
-x,-y,-z
x,y,-z
-x,y,z
x,-y,z
x,1/2+y,1/2+z
-x,1/2-y,1/2+z
x,1/2-y,1/2-z
-x,1/2+y,1/2-z
-x,1/2-y,1/2-z
x,1/2+y,1/2-z
-x,1/2+y,1/2+z
x,1/2-y,1/2+z
1/2+x,y,1/2+z
1/2-x,-y,1/2+z
1/2+x,-y,1/2-z
1/2-x,y,1/2-z
1/2-x,-y,1/2-z
1/2+x,y,1/2-z
1/2-x,y,1/2+z
1/2+x,-y,1/2+z
1/2+x,1/2+y,z
1/2-x,1/2-y,z
1/2+x,1/2-y,-z
1/2-x,1/2+y,-z
1/2-x,1/2-y,-z
1/2+x,1/2+y,-z
1/2-x,1/2+y,z
1/2+x,1/2-y,z
loop_
_atom_site_type_symbol
_atom_site_label
_atom_site_fract_x
_atom_site_fract_y
_atom_site_fract_z
Si Si1 0.335405 0.168162 0.697735
Si Si2 0.263511 0.600443 0.093060
Si Si3 0.173073 0.405685 0.139953
Si Si4 0.389650 0.770614 0.091628
Si Si5 0.953120 0.093909 0.597470
O O1 0.324414 0.250000 0.750000
O O2 0.299618 0.144950 0.638546
O O3 0.339992 0.099189 0.766983
O O4 0.374747 0.194872 0.647673
O O5 0.270424 0.500000 0.096605
O O6 0.220186 0.615276 0.132773
O O7 0.261766 0.625706 0.000000
O O8 0.167481 0.500000 0.108158
O O9 0.147079 0.337334 0.093413
O O10 0.426361 0.827393 0.124037
O O11 0.397253 0.744104 0.000000
O O12 0.950488 0.094081 0.500000
O O13 0.000000 0.102823 0.618409
O O14 0.939491 0.000000 0.623493
#
# Coordination Sequence:
#
# PCOD9511507 Si02
#       5
#    32  32  32  32  32
#     4  10  21  33  45  64  94 127 156 187 231 286
#     4  10  20  34  51  68  87 117 163 212 246 272
#     4  10  20  33  48  65  89 124 163 198 233 276
#     4  10  19  30  47  71  97 120 147 188 234 280
#     4   8  14  26  46  72  99 124 150 184 229 278
#
# _framework density 18.103293000000001
#
# number of rings (size 3 to 8) (size 9 to 14) (size 15 to 20)
#    0.000    2.400    0.000    3.600    0.000    9.200 
#    0.000    5.000    0.000    5.400    0.000    0.000 
#    0.000    2.400    0.000   22.600    0.000    0.000 
#
# Total GULP energy -223032.552722 kJ/mol
# GULP energy per Si atom -5575.813818 kJ/mol
# Density = 1.806209 g / cm^3
# Si number density = 18.103293 Si / 1000 Ang^3
#
#
#
# Elastic Constant Matrix: (Units=GPa)
#
#
# Indices 1 2 3 4 5 6 
#
# 1 69.5361 14.6686 19.1479 0.0000 0.0000 0.0000
# 2 14.6686 25.8766 16.0640 0.0000 0.0000 0.0000
# 3 19.1479 16.0640 76.4547 0.0000 0.0000 0.0000
# 4 0.0000 0.0000 0.0000 21.4746 0.0000 0.0000
# 5 0.0000 0.0000 0.0000 0.0000 6.3175 0.0000
# 6 0.0000 0.0000 0.0000 0.0000 0.0000 203.4574
#
#
#
# Elastic Compliance Matrix: (Units=1/GPa)
#
#
# Indices 1 2 3 4 5 6 
#
# 1 0.016749 -0.007924 -0.002530 0.000000 0.000000 0.000000
# 2 -0.007924 0.048191 -0.008141 0.000000 0.000000 0.000000
# 3 -0.002530 -0.008141 0.015424 0.000000 0.000000 0.000000
# 4 0.000000 0.000000 0.000000 0.046567 0.000000 0.000000
# 5 0.000000 0.000000 0.000000 0.000000 0.158291 0.000000
# 6 0.000000 0.000000 0.000000 0.000000 0.000000 0.004915
#
#
# Mechanical properties :
#
#
# Convention : Reuss Voigt Hill
#
# Bulk Modulus (GPa) = 23.16203 30.18092 26.67148
# Shear Modulus (GPa) = 14.63196 54.38234 34.50715
#
# Velocity S-wave (km/s) = 2.84606 5.48682 4.37066
# Velocity P-wave (km/s) = 4.86027 7.53976 6.34311
#
# Compressibility (1/GPa) = 0.04317410
#
# Stress axis : x y z
#
# Youngs Moduli (GPa) = 59.70423 20.75090 64.83516
#
# Poissons Ratio (x) = 0.16443 0.16403
# Poissons Ratio (y) = 0.47310 0.52781
# Poissons Ratio (z) = 0.15104 0.16893
#
# Static dielectric constant tensor:
#      x y z
#    x 1.616920 0.000000 0.000000 
#    y 0.000000 1.657260 0.000000 
#    z 0.000000 0.000000 1.659500 
# 
# From -- ./inp_files/23404.got.cif
#   From: 2010.05.17/outbox.cif.g08.bks.cpg/sg69_12_cif.got.tgz:23404.got - 2010.06.03 19:29:58.
