data_PCOD9511788
_publ_section_title
;
Structure prediction by ZEFSAII (Michael W. Deem and Ramdas Pophale) SiO2 
 PCOD9511788
Probable space group: F M M M
;
_chemical_formula_sum "Si O2"
_cell_formula_units_Z 176
_cell_length_a 20.088566
_cell_length_b 17.342214
_cell_length_c 25.810029
_cell_angle_alpha 90.000000
_cell_angle_beta 90.000000
_cell_angle_gamma 90.000000
_cell_volume 8991.703337
_symmetry_space_group_name_H-M "F M M M"
_symmetry_group_IT_number 69
_symmetry_cell_setting 'orthorhombic'
loop_
_space_group_symop_operation_xyz
x,y,z
-x,-y,z
x,-y,-z
-x,y,-z
-x,-y,-z
x,y,-z
-x,y,z
x,-y,z
x,1/2+y,1/2+z
-x,1/2-y,1/2+z
x,1/2-y,1/2-z
-x,1/2+y,1/2-z
-x,1/2-y,1/2-z
x,1/2+y,1/2-z
-x,1/2+y,1/2+z
x,1/2-y,1/2+z
1/2+x,y,1/2+z
1/2-x,-y,1/2+z
1/2+x,-y,1/2-z
1/2-x,y,1/2-z
1/2-x,-y,1/2-z
1/2+x,y,1/2-z
1/2-x,y,1/2+z
1/2+x,-y,1/2+z
1/2+x,1/2+y,z
1/2-x,1/2-y,z
1/2+x,1/2-y,-z
1/2-x,1/2+y,-z
1/2-x,1/2-y,-z
1/2+x,1/2+y,-z
1/2-x,1/2+y,z
1/2+x,1/2-y,z
loop_
_atom_site_type_symbol
_atom_site_label
_atom_site_fract_x
_atom_site_fract_y
_atom_site_fract_z
Si Si1 0.174934 0.856205 0.060972
Si Si2 0.370557 0.176758 0.211585
Si Si3 0.100962 0.087420 0.805485
Si Si4 0.248085 0.589892 0.155890
Si Si5 0.575824 0.500000 0.061449
Si Si6 0.572305 0.728192 0.879020
O O1 0.236006 0.873308 0.099507
O O2 0.122770 0.926583 0.071326
O O3 0.132789 0.783107 0.081034
O O4 0.190537 0.853453 0.000000
O O5 0.357479 0.250000 0.250000
O O6 0.408839 0.115111 0.246948
O O7 0.303973 0.139169 0.188560
O O8 0.412049 0.206009 0.162522
O O9 0.180687 0.090985 0.815172
O O10 0.071381 0.151270 0.843293
O O11 0.079834 0.000000 0.815210
O O12 0.227946 0.500000 0.151091
O O13 0.500000 0.500000 0.082401
O O14 0.567435 0.500000 0.000000
O O15 0.500000 0.736688 0.904112
#
# Coordination Sequence:
#
# PCOD9511788 Si02
#       6
#    32  32  32  32  16  32
#     4  10  20  34  53  77 105 136 168 210 262 312
#     4  10  21  35  53  74 105 146 179 211 262 311
#     4   9  19  33  52  78 103 132 174 220 260 309
#     4  10  19  33  54  78 105 133 173 220 259 311
#     4   9  16  28  48  72  97 130 165 195 240 301
#     4  10  22  36  51  74 107 141 177 217 259 311
#
# _framework density 19.573599999999999
#
# number of rings (size 3 to 8) (size 9 to 14) (size 15 to 20)
#    0.000    2.273    0.909    1.636    1.273   16.364 
#    0.000    1.818    0.000    1.636    0.000    0.000 
#    0.000    0.000    0.000    8.182    0.000    0.000 
#
# Total GULP energy -245548.095652 kJ/mol
# GULP energy per Si atom -5580.638538 kJ/mol
# Density = 1.952905 g / cm^3
# Si number density = 19.573600 Si / 1000 Ang^3
#
#
#
# Elastic Constant Matrix: (Units=GPa)
#
#
# Indices 1 2 3 4 5 6 
#
# 1 47.5009 7.4674 -0.1742 0.0000 0.0000 0.0000
# 2 7.4674 34.3592 9.0420 0.0000 0.0000 0.0000
# 3 -0.1742 9.0420 89.3121 0.0000 0.0000 0.0000
# 4 0.0000 0.0000 0.0000 24.9601 0.0000 0.0000
# 5 0.0000 0.0000 0.0000 0.0000 14.1128 0.0000
# 6 0.0000 0.0000 0.0000 0.0000 0.0000 -21.1876
#
#
#
# Elastic Compliance Matrix: (Units=1/GPa)
#
#
# Indices 1 2 3 4 5 6 
#
# 1 0.021822 -0.004884 0.000537 0.000000 0.000000 0.000000
# 2 -0.004884 0.030994 -0.003147 0.000000 0.000000 0.000000
# 3 0.000537 -0.003147 0.011516 0.000000 0.000000 0.000000
# 4 0.000000 0.000000 0.000000 0.040064 0.000000 0.000000
# 5 0.000000 0.000000 0.000000 0.000000 0.070858 0.000000
# 6 0.000000 0.000000 0.000000 0.000000 0.000000 -0.047197
#
#
# Mechanical properties :
#
#
# Convention : Reuss Voigt Hill
#
# Bulk Modulus (GPa) = 20.26599 22.64918 21.45759
# Shear Modulus (GPa) = 31.34932 13.89953 22.62442
#
# Velocity S-wave (km/s) = 4.00636 2.66769 3.40349
# Velocity P-wave (km/s) = 5.63715 4.59186 5.14114
#
# Compressibility (1/GPa) = 0.04934374
#
# Stress axis : x y z
#
# Youngs Moduli (GPa) = 45.82537 32.26427 86.83287
#
# Poissons Ratio (x) = 0.15758 -0.04663
# Poissons Ratio (y) = 0.22381 0.27330
# Poissons Ratio (z) = -0.02461 0.10155
#
# Static dielectric constant tensor:
#      x y z
#    x 1.712830 0.000000 0.000000 
#    y 0.000000 1.729000 0.000000 
#    z 0.000000 0.000000 1.706490 
# 
# From -- ./inp_files/41856.got.cif
#   From: 2010.05.17/outbox.cif.g08.bks.cpg/sg69_21_cif.got.tgz:41856.got - 2010.06.03 19:29:58.
