data_PCOD9511550
_publ_section_title
;
Structure prediction by ZEFSAII (Michael W. Deem and Ramdas Pophale) SiO2 
 PCOD9511550
Probable space group: F M M M
;
_chemical_formula_sum "Si O2"
_cell_formula_units_Z 160
_cell_length_a 19.795615
_cell_length_b 26.301430
_cell_length_c 18.813983
_cell_angle_alpha 90.000000
_cell_angle_beta 90.000000
_cell_angle_gamma 90.000000
_cell_volume 9795.556357
_symmetry_space_group_name_H-M "F M M M"
_symmetry_group_IT_number 69
_symmetry_cell_setting 'orthorhombic'
loop_
_space_group_symop_operation_xyz
x,y,z
-x,-y,z
x,-y,-z
-x,y,-z
-x,-y,-z
x,y,-z
-x,y,z
x,-y,z
x,1/2+y,1/2+z
-x,1/2-y,1/2+z
x,1/2-y,1/2-z
-x,1/2+y,1/2-z
-x,1/2-y,1/2-z
x,1/2+y,1/2-z
-x,1/2+y,1/2+z
x,1/2-y,1/2+z
1/2+x,y,1/2+z
1/2-x,-y,1/2+z
1/2+x,-y,1/2-z
1/2-x,y,1/2-z
1/2-x,-y,1/2-z
1/2+x,y,1/2-z
1/2-x,y,1/2+z
1/2+x,-y,1/2+z
1/2+x,1/2+y,z
1/2-x,1/2-y,z
1/2+x,1/2-y,-z
1/2-x,1/2+y,-z
1/2-x,1/2-y,-z
1/2+x,1/2+y,-z
1/2-x,1/2+y,z
1/2+x,1/2-y,z
loop_
_atom_site_type_symbol
_atom_site_label
_atom_site_fract_x
_atom_site_fract_y
_atom_site_fract_z
Si Si1 0.744781 0.694117 0.631727
Si Si2 0.776987 0.000000 0.668431
Si Si3 0.636784 0.305838 0.748694
Si Si4 0.294670 0.410978 0.918600
Si Si5 0.423860 0.500000 0.280523
Si Si6 0.575969 0.402003 0.179094
O O1 0.750000 0.750000 0.597001
O O2 0.674089 0.686814 0.673289
O O3 0.802471 0.696043 0.693241
O O4 0.761145 0.644830 0.586037
O O5 0.750000 0.000000 0.750000
O O6 0.747810 0.950605 0.628665
O O7 0.858321 0.000000 0.669624
O O8 0.603933 0.250000 0.750000
O O9 0.591152 0.352291 0.773346
O O10 0.367959 0.406429 0.881868
O O11 0.298909 0.427785 0.000000
O O12 0.500000 0.500000 0.312149
O O13 0.418149 0.549232 0.230089
O O14 0.500000 0.399878 0.150500
#
# Coordination Sequence:
#
# PCOD9511550 Si02
#       6
#    32  16  32  32  16  32
#     4   8  15  28  48  71  99 129 164 214 263 298
#     4  12  21  36  59  76  99 133 166 213 255 292
#     4   8  14  26  46  72  97 126 167 216 257 293
#     4  11  22  33  50  76 104 135 173 208 249 307
#     4  10  20  34  54  80  99 123 162 206 255 301
#     4  10  19  31  47  70 103 137 169 204 251 302
#
# _framework density 16.333936999999999
#
# number of rings (size 3 to 8) (size 9 to 14) (size 15 to 20)
#    0.000    2.400    2.000    2.700    2.800    1.200 
#    0.000    0.000    0.000    4.200    0.000    0.000 
#    0.000    0.000    0.000    0.000    0.000    0.000 
#
# Total GULP energy -222865.161249 kJ/mol
# GULP energy per Si atom -5571.629031 kJ/mol
# Density = 1.629676 g / cm^3
# Si number density = 16.333937 Si / 1000 Ang^3
#
#
#
# Elastic Constant Matrix: (Units=GPa)
#
#
# Indices 1 2 3 4 5 6 
#
# 1 110.4118 46.2668 43.5360 0.0000 0.0000 0.0000
# 2 46.2668 130.2587 40.8708 0.0000 0.0000 0.0000
# 3 43.5360 40.8708 75.5769 0.0000 0.0000 0.0000
# 4 0.0000 0.0000 0.0000 6.7674 0.0000 0.0000
# 5 0.0000 0.0000 0.0000 0.0000 10.1029 0.0000
# 6 0.0000 0.0000 0.0000 0.0000 0.0000 -594.7812
#
#
#
# Elastic Compliance Matrix: (Units=1/GPa)
#
#
# Indices 1 2 3 4 5 6 
#
# 1 0.012413 -0.002608 -0.005740 0.000000 0.000000 0.000000
# 2 -0.002608 0.009794 -0.003794 0.000000 0.000000 0.000000
# 3 -0.005740 -0.003794 0.018590 0.000000 0.000000 0.000000
# 4 0.000000 0.000000 0.000000 0.147767 0.000000 0.000000
# 5 0.000000 0.000000 0.000000 0.000000 0.098982 0.000000
# 6 0.000000 0.000000 0.000000 0.000000 0.000000 -0.001681
#
#
# Mechanical properties :
#
#
# Convention : Reuss Voigt Hill
#
# Bulk Modulus (GPa) = 60.56024 64.17718 62.36871
# Shear Modulus (GPa) = 15.84019 -103.21060 -43.68521
#
# Velocity S-wave (km/s) = 3.11749 -7.95770 -5.17717
# Velocity P-wave (km/s) = 7.07921 6.71248 1.59026
#
# Compressibility (1/GPa) = 0.01651249
#
# Stress axis : x y z
#
# Youngs Moduli (GPa) = 80.55891 102.10547 53.79243
#
# Poissons Ratio (x) = 0.26629 0.30878
# Poissons Ratio (y) = 0.21010 0.20409
# Poissons Ratio (z) = 0.46243 0.38739
#
# Static dielectric constant tensor:
#      x y z
#    x 1.546480 0.000000 0.000000 
#    y 0.000000 1.578840 0.000000 
#    z 0.000000 0.000000 1.514900 
# 
# From -- ./inp_files/23196.got.cif
#   From: 2010.05.17/outbox.cif.g08.bks.cpg/sg69_12_cif.got.tgz:23196.got - 2010.06.03 19:29:58.
