data_PCOD9511281
_publ_section_title
;
Structure prediction by ZEFSAII (Michael W. Deem and Ramdas Pophale) SiO2 
 PCOD9511281
Probable space group: F M M M
;
_chemical_formula_sum "Si O2"
_cell_formula_units_Z 160
_cell_length_a 16.135030
_cell_length_b 15.298347
_cell_length_c 29.189575
_cell_angle_alpha 90.000000
_cell_angle_beta 90.000000
_cell_angle_gamma 90.000000
_cell_volume 7205.133904
_symmetry_space_group_name_H-M "F M M M"
_symmetry_group_IT_number 69
_symmetry_cell_setting 'orthorhombic'
loop_
_space_group_symop_operation_xyz
x,y,z
-x,-y,z
x,-y,-z
-x,y,-z
-x,-y,-z
x,y,-z
-x,y,z
x,-y,z
x,1/2+y,1/2+z
-x,1/2-y,1/2+z
x,1/2-y,1/2-z
-x,1/2+y,1/2-z
-x,1/2-y,1/2-z
x,1/2+y,1/2-z
-x,1/2+y,1/2+z
x,1/2-y,1/2+z
1/2+x,y,1/2+z
1/2-x,-y,1/2+z
1/2+x,-y,1/2-z
1/2-x,y,1/2-z
1/2-x,-y,1/2-z
1/2+x,y,1/2-z
1/2-x,y,1/2+z
1/2+x,-y,1/2+z
1/2+x,1/2+y,z
1/2-x,1/2-y,z
1/2+x,1/2-y,-z
1/2-x,1/2+y,-z
1/2-x,1/2-y,-z
1/2+x,1/2+y,-z
1/2-x,1/2+y,z
1/2+x,1/2-y,z
loop_
_atom_site_type_symbol
_atom_site_label
_atom_site_fract_x
_atom_site_fract_y
_atom_site_fract_z
Si Si1 0.648163 0.251271 0.947245
Si Si2 0.407127 0.817704 0.709994
Si Si3 0.828845 0.598176 0.220479
Si Si4 0.655266 0.400579 0.881504
Si Si5 0.852913 0.599279 0.880032
O O1 0.750000 0.250000 0.945974
O O2 0.621983 0.341640 0.922992
O O3 0.616838 0.169693 0.916822
O O4 0.623217 0.245303 0.000000
O O5 0.500000 0.793514 0.697383
O O6 0.377937 0.750000 0.750000
O O7 0.401525 0.902282 0.742667
O O8 0.358938 0.844253 0.664578
O O9 0.803104 0.500000 0.206741
O O10 0.750000 0.631587 0.250000
O O11 0.858708 0.636484 0.172016
O O12 0.622516 0.500000 0.877966
O O13 0.754044 0.407244 0.887649
O O14 0.887536 0.500000 0.883345
#
# Coordination Sequence:
#
# PCOD9511281 Si02
#       5
#    32  32  32  32  32
#     4   9  18  31  48  74 104 133 171 223 280 330
#     4  11  23  35  49  74 108 145 184 226 274 325
#     4  10  18  31  51  75 103 137 178 220 263 323
#     4  10  19  33  52  73 101 140 182 224 272 327
#     4   9  17  30  50  77 107 139 179 219 265 331
#
# _framework density 22.206389000000001
#
# number of rings (size 3 to 8) (size 9 to 14) (size 15 to 20)
#    0.000    2.200    2.000    1.800    0.000    2.800 
#    0.000    4.000    0.000    0.600    0.000    1.400 
#    0.000    0.000    0.000   17.200    0.000    3.400 
#
# Total GULP energy -222757.293167 kJ/mol
# GULP energy per Si atom -5568.932329 kJ/mol
# Density = 2.215585 g / cm^3
# Si number density = 22.206389 Si / 1000 Ang^3
#
#
#
# Elastic Constant Matrix: (Units=GPa)
#
#
# Indices 1 2 3 4 5 6 
#
# 1 27.5010 9.4639 -6.8647 0.0000 0.0000 0.0000
# 2 9.4639 123.0241 61.9594 0.0000 0.0000 0.0000
# 3 -6.8647 61.9594 180.6623 0.0000 0.0000 0.0000
# 4 0.0000 0.0000 0.0000 17.9653 0.0000 0.0000
# 5 0.0000 0.0000 0.0000 0.0000 1.1482 0.0000
# 6 0.0000 0.0000 0.0000 0.0000 0.0000 2.4043
#
#
#
# Elastic Compliance Matrix: (Units=1/GPa)
#
#
# Indices 1 2 3 4 5 6 
#
# 1 0.038658 -0.004489 0.003008 0.000000 0.000000 0.000000
# 2 -0.004489 0.010347 -0.003719 0.000000 0.000000 0.000000
# 3 0.003008 -0.003719 0.006925 0.000000 0.000000 0.000000
# 4 0.000000 0.000000 0.000000 0.055663 0.000000 0.000000
# 5 0.000000 0.000000 0.000000 0.000000 0.870966 0.000000
# 6 0.000000 0.000000 0.000000 0.000000 0.000000 0.415927
#
#
# Mechanical properties :
#
#
# Convention : Reuss Voigt Hill
#
# Bulk Modulus (GPa) = 21.96328 51.14496 36.55412
# Shear Modulus (GPa) = 3.51108 22.07881 12.79494
#
# Velocity S-wave (km/s) = 1.25879 3.15660 2.40299
# Velocity P-wave (km/s) = 3.46767 6.03052 4.91894
#
# Compressibility (1/GPa) = 0.04553055
#
# Stress axis : x y z
#
# Youngs Moduli (GPa) = 25.86784 96.64731 144.40440
#
# Poissons Ratio (x) = 0.43385 -0.43443
# Poissons Ratio (y) = 0.11612 0.53706
# Poissons Ratio (z) = -0.07782 0.35944
#
# Static dielectric constant tensor:
#      x y z
#    x 1.879330 0.000000 0.000000 
#    y 0.000000 2.258070 0.000000 
#    z 0.000000 0.000000 1.785720 
# 
# From -- ./inp_files/18885.got.cif
#   From: 2010.05.17/outbox.cif.g08.bks.cpg/sg69_10_cif.got.tgz:18885.got - 2010.06.03 19:29:58.
