data_PCOD9511605
_publ_section_title
;
Structure prediction by ZEFSAII (Michael W. Deem and Ramdas Pophale) SiO2 
 PCOD9511605
Probable space group: F M M M
;
_chemical_formula_sum "Si O2"
_cell_formula_units_Z 128
_cell_length_a 14.738838
_cell_length_b 20.416929
_cell_length_c 20.131392
_cell_angle_alpha 90.000000
_cell_angle_beta 90.000000
_cell_angle_gamma 90.000000
_cell_volume 6057.974898
_symmetry_space_group_name_H-M "F M M M"
_symmetry_group_IT_number 69
_symmetry_cell_setting 'orthorhombic'
loop_
_space_group_symop_operation_xyz
x,y,z
-x,-y,z
x,-y,-z
-x,y,-z
-x,-y,-z
x,y,-z
-x,y,z
x,-y,z
x,1/2+y,1/2+z
-x,1/2-y,1/2+z
x,1/2-y,1/2-z
-x,1/2+y,1/2-z
-x,1/2-y,1/2-z
x,1/2+y,1/2-z
-x,1/2+y,1/2+z
x,1/2-y,1/2+z
1/2+x,y,1/2+z
1/2-x,-y,1/2+z
1/2+x,-y,1/2-z
1/2-x,y,1/2-z
1/2-x,-y,1/2-z
1/2+x,y,1/2-z
1/2-x,y,1/2+z
1/2+x,-y,1/2+z
1/2+x,1/2+y,z
1/2-x,1/2-y,z
1/2+x,1/2-y,-z
1/2-x,1/2+y,-z
1/2-x,1/2-y,-z
1/2+x,1/2+y,-z
1/2-x,1/2+y,z
1/2+x,1/2-y,z
loop_
_atom_site_type_symbol
_atom_site_label
_atom_site_fract_x
_atom_site_fract_y
_atom_site_fract_z
Si Si1 0.715926 0.500000 0.078829
Si Si2 0.895206 0.646942 0.929583
Si Si3 0.901048 0.500000 0.882606
Si Si4 0.110636 0.248363 0.325424
Si Si5 0.391866 0.865115 0.423966
O O1 0.794501 0.500000 0.135328
O O2 0.658632 0.433799 0.085797
O O3 0.747204 0.500000 0.000000
O O4 0.900999 0.569031 0.921050
O O5 0.857816 0.684194 0.865932
O O6 0.000000 0.669532 0.933759
O O7 0.849789 0.662287 0.000000
O O8 0.000000 0.500000 0.845573
O O9 0.143305 0.250000 0.250000
O O10 0.134975 0.310674 0.370446
O O11 0.000000 0.247295 0.321719
O O12 0.375895 0.842404 0.500000
O O13 0.500000 0.875865 0.417636
#
# Coordination Sequence:
#
# PCOD9511605 Si02
#       5
#    16  32  16  32  32
#     4  10  19  31  51  79 106 135 175 218 263 318
#     4   9  16  28  49  75 101 131 167 209 261 316
#     4  10  20  34  54  80 107 133 169 223 276 316
#     4   9  17  30  50  76 104 136 175 216 260 312
#     4   9  17  31  52  78 108 140 174 215 262 313
#
# _framework density 21.129173999999999
#
# number of rings (size 3 to 8) (size 9 to 14) (size 15 to 20)
#    0.000    2.750    0.000    2.250    0.000    7.250 
#    0.000    2.500    0.000   15.000    0.000    0.000 
#    0.000    0.000    0.000    0.000    0.000    0.000 
#
# Total GULP energy -178153.600334 kJ/mol
# GULP energy per Si atom -5567.300010 kJ/mol
# Density = 2.108108 g / cm^3
# Si number density = 21.129174 Si / 1000 Ang^3
#
#
#
# Elastic Constant Matrix: (Units=GPa)
#
#
# Indices 1 2 3 4 5 6 
#
# 1 89.4344 22.6851 21.0327 0.0000 0.0000 0.0000
# 2 22.6851 139.3371 98.4997 0.0000 0.0000 0.0000
# 3 21.0327 98.4997 157.0545 0.0000 0.0000 0.0000
# 4 0.0000 0.0000 0.0000 -7.9299 0.0000 0.0000
# 5 0.0000 0.0000 0.0000 0.0000 -3.2483 0.0000
# 6 0.0000 0.0000 0.0000 0.0000 0.0000 -42.5091
#
#
#
# Elastic Compliance Matrix: (Units=1/GPa)
#
#
# Indices 1 2 3 4 5 6 
#
# 1 0.011702 -0.001432 -0.000669 0.000000 0.000000 0.000000
# 2 -0.001432 0.013068 -0.008004 0.000000 0.000000 0.000000
# 3 -0.000669 -0.008004 0.011477 0.000000 0.000000 0.000000
# 4 0.000000 0.000000 0.000000 -0.126105 0.000000 0.000000
# 5 0.000000 0.000000 0.000000 0.000000 -0.307855 0.000000
# 6 0.000000 0.000000 0.000000 0.000000 0.000000 -0.023524
#
#
# Mechanical properties :
#
#
# Convention : Reuss Voigt Hill
#
# Bulk Modulus (GPa) = 62.35850 74.47346 68.41598
# Shear Modulus (GPa) = -12.63645 5.50310 -3.56667
#
# Velocity S-wave (km/s) = -2.44817 1.61560 -1.30065
# Velocity P-wave (km/s) = 4.64604 6.22924 5.49496
#
# Compressibility (1/GPa) = 0.01603631
#
# Stress axis : x y z
#
# Youngs Moduli (GPa) = 85.45558 76.52046 87.13222
#
# Poissons Ratio (x) = 0.10961 0.05827
# Poissons Ratio (y) = 0.12241 0.69743
# Poissons Ratio (z) = 0.05715 0.61249
#
# Static dielectric constant tensor:
#      x y z
#    x 1.856130 0.000000 0.000000 
#    y 0.000000 1.725290 0.000000 
#    z 0.000000 0.000000 1.792140 
# 
# From -- ./inp_files/29629.got.cif
#   From: 2010.05.17/outbox.cif.g08.bks.cpg/sg69_15_cif.got.tgz:29629.got - 2010.06.03 19:29:58.
