data_PCOD9511757
_publ_section_title
;
Structure prediction by ZEFSAII (Michael W. Deem and Ramdas Pophale) SiO2 
 PCOD9511757
Probable space group: F M M M
;
_chemical_formula_sum "Si O2"
_cell_formula_units_Z 192
_cell_length_a 28.859695
_cell_length_b 15.620912
_cell_length_c 23.676485
_cell_angle_alpha 90.000000
_cell_angle_beta 90.000000
_cell_angle_gamma 90.000000
_cell_volume 10673.708807
_symmetry_space_group_name_H-M "F M M M"
_symmetry_group_IT_number 69
_symmetry_cell_setting 'orthorhombic'
loop_
_space_group_symop_operation_xyz
x,y,z
-x,-y,z
x,-y,-z
-x,y,-z
-x,-y,-z
x,y,-z
-x,y,z
x,-y,z
x,1/2+y,1/2+z
-x,1/2-y,1/2+z
x,1/2-y,1/2-z
-x,1/2+y,1/2-z
-x,1/2-y,1/2-z
x,1/2+y,1/2-z
-x,1/2+y,1/2+z
x,1/2-y,1/2+z
1/2+x,y,1/2+z
1/2-x,-y,1/2+z
1/2+x,-y,1/2-z
1/2-x,y,1/2-z
1/2-x,-y,1/2-z
1/2+x,y,1/2-z
1/2-x,y,1/2+z
1/2+x,-y,1/2+z
1/2+x,1/2+y,z
1/2-x,1/2-y,z
1/2+x,1/2-y,-z
1/2-x,1/2+y,-z
1/2-x,1/2-y,-z
1/2+x,1/2+y,-z
1/2-x,1/2+y,z
1/2+x,1/2-y,z
loop_
_atom_site_type_symbol
_atom_site_label
_atom_site_fract_x
_atom_site_fract_y
_atom_site_fract_z
Si Si1 0.000000 0.271356 0.564404
Si Si2 0.897034 0.596325 0.144136
Si Si3 0.101930 0.738686 0.431911
Si Si4 0.680697 0.599715 0.065791
Si Si5 0.173764 0.154692 0.733730
Si Si6 0.759801 0.900974 0.169591
Si Si7 0.500000 0.905737 0.117007
O O1 0.949229 0.293588 0.587893
O O2 0.000000 0.168100 0.570380
O O3 0.000000 0.300980 0.500000
O O4 0.887357 0.500000 0.122197
O O5 0.886043 0.673587 0.100790
O O6 0.867668 0.609383 0.200855
O O7 0.952638 0.602276 0.152093
O O8 0.099451 0.753680 0.500000
O O9 0.139587 0.665547 0.421434
O O10 0.667169 0.500000 0.075450
O O11 0.723360 0.617752 0.106962
O O12 0.692761 0.608546 0.000000
O O13 0.159604 0.250000 0.750000
O O14 0.196253 0.110565 0.788711
O O15 0.217697 0.156487 0.691069
O O16 0.744271 0.000000 0.173814
O O17 0.500000 0.000000 0.090748
#
# Coordination Sequence:
#
# PCOD9511757 Si02
#       7
#    16  32  32  32  32  32  16
#     4   8  14  25  43  67  96 130 169 213 253 293
#     4  10  19  33  52  75 103 134 169 208 254 303
#     4   9  17  30  48  72 102 135 172 212 254 301
#     4   9  18  33  53  76 103 135 169 207 255 308
#     4  11  21  33  51  74  99 128 165 208 249 294
#     4  10  19  33  52  73  97 128 168 208 248 292
#     4   8  16  29  47  70  97 131 167 205 250 301
#
# _framework density 17.988123999999999
#
# number of rings (size 3 to 8) (size 9 to 14) (size 15 to 20)
#    0.000    2.500    0.000    4.000    0.000    0.500 
#    0.000    5.000    0.000    9.500    0.000    1.167 
#    0.000    0.000    0.000    0.000    0.000    0.000 
#
# Total GULP energy -267311.813446 kJ/mol
# GULP energy per Si atom -5568.996113 kJ/mol
# Density = 1.794718 g / cm^3
# Si number density = 17.988124 Si / 1000 Ang^3
#
#
#
# Elastic Constant Matrix: (Units=GPa)
#
#
# Indices 1 2 3 4 5 6 
#
# 1 37.1124 21.9399 33.0182 0.0000 0.0000 0.0000
# 2 21.9399 63.0902 30.6674 0.0000 0.0000 0.0000
# 3 33.0182 30.6674 46.4442 0.0000 0.0000 0.0000
# 4 0.0000 0.0000 0.0000 27.3428 0.0000 0.0000
# 5 0.0000 0.0000 0.0000 0.0000 24.0304 0.0000
# 6 0.0000 0.0000 0.0000 0.0000 0.0000 21.5705
#
#
#
# Elastic Compliance Matrix: (Units=1/GPa)
#
#
# Indices 1 2 3 4 5 6 
#
# 1 0.073321 -0.000236 -0.051970 0.000000 0.000000 0.000000
# 2 -0.000236 0.023343 -0.015246 0.000000 0.000000 0.000000
# 3 -0.051970 -0.015246 0.068545 0.000000 0.000000 0.000000
# 4 0.000000 0.000000 0.000000 0.036573 0.000000 0.000000
# 5 0.000000 0.000000 0.000000 0.000000 0.041614 0.000000
# 6 0.000000 0.000000 0.000000 0.000000 0.000000 0.046360
#
#
# Mechanical properties :
#
#
# Convention : Reuss Voigt Hill
#
# Bulk Modulus (GPa) = 32.99707 35.32196 34.15951
# Shear Modulus (GPa) = 11.50059 18.65682 15.07870
#
# Velocity S-wave (km/s) = 2.53127 3.22401 2.89841
# Velocity P-wave (km/s) = 5.18910 5.79119 5.49839
#
# Compressibility (1/GPa) = 0.03030572
#
# Stress axis : x y z
#
# Youngs Moduli (GPa) = 13.63863 42.83891 14.58905
#
# Poissons Ratio (x) = 0.01011 0.75819
# Poissons Ratio (y) = 0.00322 0.22242
# Poissons Ratio (z) = 0.70880 0.65312
#
# Static dielectric constant tensor:
#      x y z
#    x 1.632650 0.000000 0.000000 
#    y 0.000000 1.621070 0.000000 
#    z 0.000000 0.000000 1.610140 
# 
# From -- ./inp_files/38989.got.cif
#   From: 2010.05.17/outbox.cif.g08.bks.cpg/sg69_20_cif.got.tgz:38989.got - 2010.06.03 19:29:58.
