data_PCOD9511880
_publ_section_title
;
Structure prediction by ZEFSAII (Michael W. Deem and Ramdas Pophale) SiO2 
 PCOD9511880
Probable space group: F M M M
;
_chemical_formula_sum "Si O2"
_cell_formula_units_Z 96
_cell_length_a 14.310180
_cell_length_b 24.420507
_cell_length_c 12.968949
_cell_angle_alpha 90.000000
_cell_angle_beta 90.000000
_cell_angle_gamma 90.000000
_cell_volume 4532.152921
_symmetry_space_group_name_H-M "F M M M"
_symmetry_group_IT_number 69
_symmetry_cell_setting 'orthorhombic'
loop_
_space_group_symop_operation_xyz
x,y,z
-x,-y,z
x,-y,-z
-x,y,-z
-x,-y,-z
x,y,-z
-x,y,z
x,-y,z
x,1/2+y,1/2+z
-x,1/2-y,1/2+z
x,1/2-y,1/2-z
-x,1/2+y,1/2-z
-x,1/2-y,1/2-z
x,1/2+y,1/2-z
-x,1/2+y,1/2+z
x,1/2-y,1/2+z
1/2+x,y,1/2+z
1/2-x,-y,1/2+z
1/2+x,-y,1/2-z
1/2-x,y,1/2-z
1/2-x,-y,1/2-z
1/2+x,y,1/2-z
1/2-x,y,1/2+z
1/2+x,-y,1/2+z
1/2+x,1/2+y,z
1/2-x,1/2-y,z
1/2+x,1/2-y,-z
1/2-x,1/2+y,-z
1/2-x,1/2-y,-z
1/2+x,1/2+y,-z
1/2-x,1/2+y,z
1/2+x,1/2-y,z
loop_
_atom_site_type_symbol
_atom_site_label
_atom_site_fract_x
_atom_site_fract_y
_atom_site_fract_z
Si Si1 0.354942 0.229235 0.112496
Si Si2 0.385570 0.000000 0.874173
Si Si3 0.901048 0.341158 0.310572
Si Si4 0.750000 0.582298 0.250000
O O1 0.250000 0.250000 0.132733
O O2 0.404098 0.287937 0.118114
O O3 0.388727 0.187468 0.198463
O O4 0.362808 0.204408 0.000000
O O5 0.327121 0.049423 0.818114
O O6 0.500000 0.000000 0.855268
O O7 0.374193 0.000000 0.000000
O O8 0.812544 0.379738 0.324664
O O9 0.000000 0.371016 0.316566
#
# Coordination Sequence:
#
# PCOD9511880 Si02
#       4
#    32  16  32  16
#     4  10  19  34  54  80 123 168 201 238 281 330
#     4  10  24  46  70  92 114 148 196 250 314 382
#     4  11  21  35  57  85 119 161 200 236 287 346
#     4  11  22  41  64  90 122 149 192 255 312 354
#
# _framework density 21.181985999999998
#
# number of rings (size 3 to 8) (size 9 to 14) (size 15 to 20)
#    0.000    1.500    3.333    4.000    0.000    5.333 
#    0.000    0.000    0.000   17.000    0.000    0.000 
#    0.000    0.000    0.000    0.000    0.000    0.000 
#
# Total GULP energy -133687.820309 kJ/mol
# GULP energy per Si atom -5570.325846 kJ/mol
# Density = 2.113377 g / cm^3
# Si number density = 21.181986 Si / 1000 Ang^3
#
#
#
# Elastic Constant Matrix: (Units=GPa)
#
#
# Indices 1 2 3 4 5 6 
#
# 1 202.7440 41.7672 6.2756 0.0000 0.0000 0.0000
# 2 41.7672 65.8589 -4.3249 0.0000 0.0000 0.0000
# 3 6.2756 -4.3249 101.4523 0.0000 0.0000 0.0000
# 4 0.0000 0.0000 0.0000 -8.5804 0.0000 0.0000
# 5 0.0000 0.0000 0.0000 0.0000 18.2869 0.0000
# 6 0.0000 0.0000 0.0000 0.0000 0.0000 28.4648
#
#
#
# Elastic Compliance Matrix: (Units=1/GPa)
#
#
# Indices 1 2 3 4 5 6 
#
# 1 0.005700 -0.003648 -0.000508 0.000000 0.000000 0.000000
# 2 -0.003648 0.017561 0.000974 0.000000 0.000000 0.000000
# 3 -0.000508 0.000974 0.009930 0.000000 0.000000 0.000000
# 4 0.000000 0.000000 0.000000 -0.116545 0.000000 0.000000
# 5 0.000000 0.000000 0.000000 0.000000 0.054684 0.000000
# 6 0.000000 0.000000 0.000000 0.000000 0.000000 0.035131
#
#
# Mechanical properties :
#
#
# Convention : Reuss Voigt Hill
#
# Bulk Modulus (GPa) = 37.27541 50.83234 44.05387
# Shear Modulus (GPa) = 229.70161 29.39008 129.54585
#
# Velocity S-wave (km/s) = 10.42484 3.72896 7.82887
# Velocity P-wave (km/s) = 12.74908 6.52612 10.12742
#
# Compressibility (1/GPa) = 0.02682734
#
# Stress axis : x y z
#
# Youngs Moduli (GPa) = 175.45166 56.94283 100.70683
#
# Poissons Ratio (x) = 0.20773 0.05117
# Poissons Ratio (y) = 0.64005 -0.09812
# Poissons Ratio (z) = 0.08914 -0.05548
#
# Static dielectric constant tensor:
#      x y z
#    x 1.930750 0.000000 0.000000 
#    y 0.000000 1.805340 0.000000 
#    z 0.000000 0.000000 1.753340 
# 
# From -- ./inp_files/13980.got.cif
#   From: 2010.05.17/outbox.cif.g08.bks.cpg/sg69_7_cif.got.tgz:13980.got - 2010.06.03 19:29:58.
