data_PCOD9511160
_publ_section_title
;
Structure prediction by ZEFSAII (Michael W. Deem and Ramdas Pophale) SiO2 
 PCOD9511160
Probable space group: F M M M
;
_chemical_formula_sum "Si O2"
_cell_formula_units_Z 160
_cell_length_a 21.125142
_cell_length_b 18.245895
_cell_length_c 19.388783
_cell_angle_alpha 90.000000
_cell_angle_beta 90.000000
_cell_angle_gamma 90.000000
_cell_volume 7473.350622
_symmetry_space_group_name_H-M "F M M M"
_symmetry_group_IT_number 69
_symmetry_cell_setting 'orthorhombic'
loop_
_space_group_symop_operation_xyz
x,y,z
-x,-y,z
x,-y,-z
-x,y,-z
-x,-y,-z
x,y,-z
-x,y,z
x,-y,z
x,1/2+y,1/2+z
-x,1/2-y,1/2+z
x,1/2-y,1/2-z
-x,1/2+y,1/2-z
-x,1/2-y,1/2-z
x,1/2+y,1/2-z
-x,1/2+y,1/2+z
x,1/2-y,1/2+z
1/2+x,y,1/2+z
1/2-x,-y,1/2+z
1/2+x,-y,1/2-z
1/2-x,y,1/2-z
1/2-x,-y,1/2-z
1/2+x,y,1/2-z
1/2-x,y,1/2+z
1/2+x,-y,1/2+z
1/2+x,1/2+y,z
1/2-x,1/2-y,z
1/2+x,1/2-y,-z
1/2-x,1/2+y,-z
1/2-x,1/2-y,-z
1/2+x,1/2+y,-z
1/2-x,1/2+y,z
1/2+x,1/2-y,z
loop_
_atom_site_type_symbol
_atom_site_label
_atom_site_fract_x
_atom_site_fract_y
_atom_site_fract_z
Si Si1 0.379230 0.301813 0.693117
Si Si2 0.250000 0.124490 0.750000
Si Si3 0.156629 0.695609 0.572041
Si Si4 0.745771 0.078192 0.900909
Si Si5 0.425298 0.914134 0.500000
Si Si6 0.904559 0.415432 0.920242
O O1 0.413163 0.250000 0.750000
O O2 0.316170 0.333802 0.731648
O O3 0.353267 0.247033 0.635217
O O4 0.417130 0.361938 0.646036
O O5 0.240834 0.079846 0.819522
O O6 0.151132 0.738183 0.500000
O O7 0.221568 0.651671 0.573884
O O8 0.105370 0.629982 0.564105
O O9 0.671970 0.081907 0.917603
O O10 0.770122 0.000000 0.927182
O O11 0.500000 0.905088 0.500000
O O12 0.410960 0.000000 0.500000
O O13 0.925752 0.500000 0.909012
O O14 0.923218 0.395068 0.000000
#
# Coordination Sequence:
#
# PCOD9511160 Si02
#       6
#    32  16  32  32  16  32
#     4  11  20  33  45  69 107 140 181 206 245 293
#     4  10  20  30  42  64 105 155 176 200 238 278
#     4  10  21  31  51  77  94 125 164 212 257 300
#     4  10  18  29  44  68 100 135 181 215 242 282
#     4   9  20  40  60  79 101 121 153 204 270 329
#     4   9  19  32  47  65  97 144 187 221 248 279
#
# _framework density 21.409407000000002
#
# number of rings (size 3 to 8) (size 9 to 14) (size 15 to 20)
#    0.600    1.500    2.000    2.400    2.800    1.600 
#    0.000    3.000    0.000    0.600    0.000    0.000 
#    0.000    1.600    0.000    0.000    0.000    0.000 
#
# Total GULP energy -222685.392324 kJ/mol
# GULP energy per Si atom -5567.134808 kJ/mol
# Density = 2.136068 g / cm^3
# Si number density = 21.409407 Si / 1000 Ang^3
#
#
#
# Elastic Constant Matrix: (Units=GPa)
#
#
# Indices 1 2 3 4 5 6 
#
# 1 64.2694 10.3688 3.5385 0.0000 0.0000 0.0000
# 2 10.3688 109.9470 50.9394 0.0000 0.0000 0.0000
# 3 3.5385 50.9394 180.6136 0.0000 0.0000 0.0000
# 4 0.0000 0.0000 0.0000 -18.7022 0.0000 0.0000
# 5 0.0000 0.0000 0.0000 0.0000 -25.8375 0.0000
# 6 0.0000 0.0000 0.0000 0.0000 0.0000 -10.3899
#
#
#
# Elastic Compliance Matrix: (Units=1/GPa)
#
#
# Indices 1 2 3 4 5 6 
#
# 1 0.015802 -0.001549 0.000127 0.000000 0.000000 0.000000
# 2 -0.001549 0.010614 -0.002963 0.000000 0.000000 0.000000
# 3 0.000127 -0.002963 0.006370 0.000000 0.000000 0.000000
# 4 0.000000 0.000000 0.000000 -0.053470 0.000000 0.000000
# 5 0.000000 0.000000 0.000000 0.000000 -0.038703 0.000000
# 6 0.000000 0.000000 0.000000 0.000000 0.000000 -0.096247
#
#
# Mechanical properties :
#
#
# Convention : Reuss Voigt Hill
#
# Bulk Modulus (GPa) = 41.63837 53.83592 47.73715
# Shear Modulus (GPa) = -36.00801 8.34631 -13.83085
#
# Velocity S-wave (km/s) = -4.10552 1.97659 -2.54444
# Velocity P-wave (km/s) = 1.72710 5.51450 3.70316
#
# Compressibility (1/GPa) = 0.02401631
#
# Stress axis : x y z
#
# Youngs Moduli (GPa) = 63.28132 94.21255 156.98770
#
# Poissons Ratio (x) = 0.14596 -0.01999
# Poissons Ratio (y) = 0.09804 0.46519
# Poissons Ratio (z) = -0.00806 0.27918
#
# Static dielectric constant tensor:
#      x y z
#    x 1.750350 0.000000 0.000000 
#    y 0.000000 1.824390 0.000000 
#    z 0.000000 0.000000 1.874740 
# 
# From -- ./inp_files/33950.got.cif
#   From: 2010.05.17/outbox.cif.g08.bks.cpg/sg69_17_cif.got.tgz:33950.got - 2010.06.03 19:29:58.
