data_PCOD9511452
_publ_section_title
;
Structure prediction by ZEFSAII (Michael W. Deem and Ramdas Pophale) SiO2 
 PCOD9511452
Probable space group: F M M M
;
_chemical_formula_sum "Si O2"
_cell_formula_units_Z 116
_cell_length_a 32.756085
_cell_length_b 11.240140
_cell_length_c 14.664912
_cell_angle_alpha 90.000000
_cell_angle_beta 90.000000
_cell_angle_gamma 90.000000
_cell_volume 5399.371020
_symmetry_space_group_name_H-M "F M M M"
_symmetry_group_IT_number 69
_symmetry_cell_setting 'orthorhombic'
loop_
_space_group_symop_operation_xyz
x,y,z
-x,-y,z
x,-y,-z
-x,y,-z
-x,-y,-z
x,y,-z
-x,y,z
x,-y,z
x,1/2+y,1/2+z
-x,1/2-y,1/2+z
x,1/2-y,1/2-z
-x,1/2+y,1/2-z
-x,1/2-y,1/2-z
x,1/2+y,1/2-z
-x,1/2+y,1/2+z
x,1/2-y,1/2+z
1/2+x,y,1/2+z
1/2-x,-y,1/2+z
1/2+x,-y,1/2-z
1/2-x,y,1/2-z
1/2-x,-y,1/2-z
1/2+x,y,1/2-z
1/2-x,y,1/2+z
1/2+x,-y,1/2+z
1/2+x,1/2+y,z
1/2-x,1/2-y,z
1/2+x,1/2-y,-z
1/2-x,1/2+y,-z
1/2-x,1/2-y,-z
1/2+x,1/2+y,-z
1/2-x,1/2+y,z
1/2+x,1/2-y,z
loop_
_atom_site_type_symbol
_atom_site_label
_atom_site_fract_x
_atom_site_fract_y
_atom_site_fract_z
Si Si1 0.500000 0.500000 0.000000
Si Si2 0.430969 0.250000 0.250000
Si Si3 0.873348 0.136111 0.607820
Si Si4 0.058690 0.500000 0.675379
Si Si5 0.847616 0.000000 0.889007
Si Si6 0.704188 0.767219 0.610332
O O1 0.535325 0.500000 0.919826
O O2 0.402613 0.221285 0.163455
O O3 0.451955 0.376167 0.227163
O O4 0.877316 0.159461 0.500000
O O5 0.826469 0.160457 0.633622
O O6 0.884329 0.000000 0.625279
O O7 0.107930 0.500000 0.657433
O O8 0.820455 0.114456 0.863247
O O9 0.852970 0.000000 0.000000
O O10 0.706999 0.772095 0.500000
O O11 0.750000 0.750000 0.644673
#
# Coordination Sequence:
#
# PCOD9511452 Si02
#       6
#     4  16  32  16  16  32
#     4  12  32  52  88 114 138 176 240 294 364 428
#     4  12  24  43  75 106 144 184 236 286 353 431
#     4  10  21  37  60  96 136 187 240 286 344 411
#     4  12  26  48  76 109 142 184 233 294 355 438
#     4  10  18  34  63  92 126 183 243 287 343 405
#     4   9  18  30  52  89 133 182 240 298 342 394
#
# _framework density 21.483984
#
# number of rings (size 3 to 8) (size 9 to 14) (size 15 to 20)
#    0.000    1.655    4.828    0.000    3.862    0.552 
#    0.000    0.690    0.000    4.138    0.000    0.000 
#    0.000    0.000    0.000    0.000    0.000    0.000 
#
# Total GULP energy -161719.801880 kJ/mol
# GULP energy per Si atom -5576.544892 kJ/mol
# Density = 2.143509 g / cm^3
# Si number density = 21.483984 Si / 1000 Ang^3
#
#
#
# Elastic Constant Matrix: (Units=GPa)
#
#
# Indices 1 2 3 4 5 6 
#
# 1 118.8316 36.7071 27.7791 0.0000 0.0000 0.0000
# 2 36.7071 142.5446 40.7176 0.0000 0.0000 0.0000
# 3 27.7791 40.7176 88.4216 0.0000 0.0000 0.0000
# 4 0.0000 0.0000 0.0000 18.1464 0.0000 0.0000
# 5 0.0000 0.0000 0.0000 0.0000 41.2028 0.0000
# 6 0.0000 0.0000 0.0000 0.0000 0.0000 -79.8281
#
#
#
# Elastic Compliance Matrix: (Units=1/GPa)
#
#
# Indices 1 2 3 4 5 6 
#
# 1 0.009480 -0.001831 -0.002135 0.000000 0.000000 0.000000
# 2 -0.001831 0.008432 -0.003307 0.000000 0.000000 0.000000
# 3 -0.002135 -0.003307 0.013503 0.000000 0.000000 0.000000
# 4 0.000000 0.000000 0.000000 0.055107 0.000000 0.000000
# 5 0.000000 0.000000 0.000000 0.000000 0.024270 0.000000
# 6 0.000000 0.000000 0.000000 0.000000 0.000000 -0.012527
#
#
# Mechanical properties :
#
#
# Convention : Reuss Voigt Hill
#
# Bulk Modulus (GPa) = 59.28564 62.24505 60.76534
# Shear Modulus (GPa) = 42.21701 12.21050 27.21375
#
# Velocity S-wave (km/s) = 4.43769 2.38660 3.56293
# Velocity P-wave (km/s) = 7.34252 6.05229 6.72840
#
# Compressibility (1/GPa) = 0.01686749
#
# Stress axis : x y z
#
# Youngs Moduli (GPa) = 105.48433 118.60007 74.05643
#
# Poissons Ratio (x) = 0.21720 0.15811
# Poissons Ratio (y) = 0.19318 0.24493
# Poissons Ratio (z) = 0.22521 0.39226
#
# Static dielectric constant tensor:
#      x y z
#    x 1.751840 0.000000 0.000000 
#    y 0.000000 1.812460 0.000000 
#    z 0.000000 0.000000 1.787150 
# 
# From -- ./inp_files/27280.got.cif
#   From: 2010.05.17/outbox.cif.g08.bks.cpg/sg69_14_cif.got.tgz:27280.got - 2010.06.03 19:29:58.
