data_PCOD9511060
_publ_section_title
;
Structure prediction by ZEFSAII (Michael W. Deem and Ramdas Pophale) SiO2 
 PCOD9511060
Probable space group: F M M M
;
_chemical_formula_sum "Si O2"
_cell_formula_units_Z 136
_cell_length_a 22.343799
_cell_length_b 13.591772
_cell_length_c 27.925541
_cell_angle_alpha 90.000000
_cell_angle_beta 90.000000
_cell_angle_gamma 90.000000
_cell_volume 8480.758416
_symmetry_space_group_name_H-M "F M M M"
_symmetry_group_IT_number 69
_symmetry_cell_setting 'orthorhombic'
loop_
_space_group_symop_operation_xyz
x,y,z
-x,-y,z
x,-y,-z
-x,y,-z
-x,-y,-z
x,y,-z
-x,y,z
x,-y,z
x,1/2+y,1/2+z
-x,1/2-y,1/2+z
x,1/2-y,1/2-z
-x,1/2+y,1/2-z
-x,1/2-y,1/2-z
x,1/2+y,1/2-z
-x,1/2+y,1/2+z
x,1/2-y,1/2+z
1/2+x,y,1/2+z
1/2-x,-y,1/2+z
1/2+x,-y,1/2-z
1/2-x,y,1/2-z
1/2-x,-y,1/2-z
1/2+x,y,1/2-z
1/2-x,y,1/2+z
1/2+x,-y,1/2+z
1/2+x,1/2+y,z
1/2-x,1/2-y,z
1/2+x,1/2-y,-z
1/2-x,1/2+y,-z
1/2-x,1/2-y,-z
1/2+x,1/2+y,-z
1/2-x,1/2+y,z
1/2+x,1/2-y,z
loop_
_atom_site_type_symbol
_atom_site_label
_atom_site_fract_x
_atom_site_fract_y
_atom_site_fract_z
Si Si1 0.070542 0.233049 0.864869
Si Si2 0.566127 0.891456 0.780896
Si Si3 0.572551 0.889547 0.944542
Si Si4 0.250000 0.750000 0.750000
Si Si5 0.841202 0.387729 0.305815
O O1 0.072782 0.308490 0.820193
O O2 0.089279 0.299497 0.910289
O O3 0.119221 0.151322 0.850431
O O4 0.000000 0.201738 0.869917
O O5 0.500000 0.881755 0.759086
O O6 0.613150 0.886753 0.738936
O O7 0.569668 0.000000 0.803873
O O8 0.500000 0.891985 0.942692
O O9 0.592882 0.000000 0.929908
O O10 0.589701 0.874589 0.000000
O O11 0.210939 0.682365 0.714058
O O12 0.820821 0.500000 0.313639
#
# Coordination Sequence:
#
# PCOD9511060 Si02
#       5
#    32  32  32   8  32
#     4  10  17  28  47  71  99 130 160 193 237 281
#     4   9  16  27  45  69  95 123 156 193 232 277
#     4   8  14  25  43  71 105 134 159 190 230 279
#     4  12  22  40  50  62  90 132 162 202 244 286
#     4  11  22  34  48  67  93 125 162 199 236 283
#
# _framework density 16.036301999999999
#
# number of rings (size 3 to 8) (size 9 to 14) (size 15 to 20)
#    0.000    2.353    2.353    2.471    0.000    6.118 
#    0.000    0.000    0.000    0.706    0.000    4.118 
#    0.000    0.000    0.000    0.000    0.000    0.000 
#
# Total GULP energy -189316.641595 kJ/mol
# GULP energy per Si atom -5568.136518 kJ/mol
# Density = 1.599980 g / cm^3
# Si number density = 16.036302 Si / 1000 Ang^3
#
#
#
# Elastic Constant Matrix: (Units=GPa)
#
#
# Indices 1 2 3 4 5 6 
#
# 1 54.4143 47.4469 19.2317 0.0000 0.0000 0.0000
# 2 47.4469 109.4315 34.6013 0.0000 0.0000 0.0000
# 3 19.2317 34.6013 56.5260 0.0000 0.0000 0.0000
# 4 0.0000 0.0000 0.0000 27.4879 0.0000 0.0000
# 5 0.0000 0.0000 0.0000 0.0000 -1.7462 0.0000
# 6 0.0000 0.0000 0.0000 0.0000 0.0000 14.8277
#
#
#
# Elastic Compliance Matrix: (Units=1/GPa)
#
#
# Indices 1 2 3 4 5 6 
#
# 1 0.029895 -0.012085 -0.002774 0.000000 0.000000 0.000000
# 2 -0.012085 0.016216 -0.005815 0.000000 0.000000 0.000000
# 3 -0.002774 -0.005815 0.022194 0.000000 0.000000 0.000000
# 4 0.000000 0.000000 0.000000 0.036380 0.000000 0.000000
# 5 0.000000 0.000000 0.000000 0.000000 -0.572661 0.000000
# 6 0.000000 0.000000 0.000000 0.000000 0.000000 0.067441
#
#
# Mechanical properties :
#
#
# Convention : Reuss Voigt Hill
#
# Bulk Modulus (GPa) = 37.09357 46.99242 42.04299
# Shear Modulus (GPa) = -14.27752 16.05334 0.88791
#
# Velocity S-wave (km/s) = -2.98707 3.16739 0.74491
# Velocity P-wave (km/s) = 3.35923 6.53788 5.19751
#
# Compressibility (1/GPa) = 0.02695885
#
# Stress axis : x y z
#
# Youngs Moduli (GPa) = 33.45009 61.66561 45.05676
#
# Poissons Ratio (x) = 0.74522 0.12497
# Poissons Ratio (y) = 0.40424 0.26201
# Poissons Ratio (z) = 0.09278 0.35859
#
# Static dielectric constant tensor:
#      x y z
#    x 1.542210 0.000000 0.000000 
#    y 0.000000 1.603690 0.000000 
#    z 0.000000 0.000000 1.529160 
# 
# From -- ./inp_files/42530.got.cif
#   From: 2010.05.17/outbox.cif.g08.bks.cpg/sg69_22_cif.got.tgz:42530.got - 2010.06.03 19:29:58.
