data_PCOD9511824
_publ_section_title
;
Structure prediction by ZEFSAII (Michael W. Deem and Ramdas Pophale) SiO2 
 PCOD9511824
Probable space group: F M M M
;
_chemical_formula_sum "Si O2"
_cell_formula_units_Z 168
_cell_length_a 14.308254
_cell_length_b 28.617467
_cell_length_c 20.747535
_cell_angle_alpha 90.000000
_cell_angle_beta 90.000000
_cell_angle_gamma 90.000000
_cell_volume 8495.409890
_symmetry_space_group_name_H-M "F M M M"
_symmetry_group_IT_number 69
_symmetry_cell_setting 'orthorhombic'
loop_
_space_group_symop_operation_xyz
x,y,z
-x,-y,z
x,-y,-z
-x,y,-z
-x,-y,-z
x,y,-z
-x,y,z
x,-y,z
x,1/2+y,1/2+z
-x,1/2-y,1/2+z
x,1/2-y,1/2-z
-x,1/2+y,1/2-z
-x,1/2-y,1/2-z
x,1/2+y,1/2-z
-x,1/2+y,1/2+z
x,1/2-y,1/2+z
1/2+x,y,1/2+z
1/2-x,-y,1/2+z
1/2+x,-y,1/2-z
1/2-x,y,1/2-z
1/2-x,-y,1/2-z
1/2+x,y,1/2-z
1/2-x,y,1/2+z
1/2+x,-y,1/2+z
1/2+x,1/2+y,z
1/2-x,1/2-y,z
1/2+x,1/2-y,-z
1/2-x,1/2+y,-z
1/2-x,1/2-y,-z
1/2+x,1/2+y,-z
1/2-x,1/2+y,z
1/2+x,1/2-y,z
loop_
_atom_site_type_symbol
_atom_site_label
_atom_site_fract_x
_atom_site_fract_y
_atom_site_fract_z
Si Si1 0.388599 0.176433 0.754019
Si Si2 0.268811 0.120614 0.929543
Si Si3 0.112130 0.813106 0.107175
Si Si4 0.887627 0.709979 0.891065
Si Si5 0.000000 0.500000 0.194749
Si Si6 0.671570 0.426231 0.699965
O O1 0.500000 0.180168 0.750321
O O2 0.355793 0.186177 0.682040
O O3 0.362208 0.208284 0.814777
O O4 0.360009 0.124140 0.772498
O O5 0.167265 0.144663 0.924750
O O6 0.337761 0.165365 0.921555
O O7 0.286917 0.085416 0.870769
O O8 0.283017 0.099337 0.000000
O O9 0.135775 0.761183 0.082148
O O10 0.000000 0.818562 0.103270
O O11 0.000000 0.704515 0.896017
O O12 0.082783 0.459512 0.195323
O O13 0.750000 0.443827 0.750000
#
# Coordination Sequence:
#
# PCOD9511824 Si02
#       6
#    32  32  32  32   8  32
#     4   9  16  32  56  85 123 156 198 250 309 362
#     4  11  24  39  57  85 126 171 211 255 303 358
#     4  10  19  33  55  84 121 170 218 260 298 349
#     4   9  19  32  52  84 122 166 218 262 301 346
#     4  12  26  44  77 106 123 134 198 258 308 386
#     4  11  22  43  67  98 123 155 190 247 317 375
#
# _framework density 19.775383999999999
#
# number of rings (size 3 to 8) (size 9 to 14) (size 15 to 20)
#    0.000    1.905    2.857    1.429    1.333    4.571 
#    0.000    4.762    0.000    0.000    0.000    0.667 
#    0.000    0.000    0.000    0.000    0.000    0.000 
#
# Total GULP energy -233973.587031 kJ/mol
# GULP energy per Si atom -5570.799691 kJ/mol
# Density = 1.973037 g / cm^3
# Si number density = 19.775384 Si / 1000 Ang^3
#
#
#
# Elastic Constant Matrix: (Units=GPa)
#
#
# Indices 1 2 3 4 5 6 
#
# 1 119.3042 39.2944 41.6165 0.0000 0.0000 0.0000
# 2 39.2944 91.4046 27.9074 0.0000 0.0000 0.0000
# 3 41.6165 27.9074 121.8155 0.0000 0.0000 0.0000
# 4 0.0000 0.0000 0.0000 -20.4243 0.0000 0.0000
# 5 0.0000 0.0000 0.0000 0.0000 8.3174 0.0000
# 6 0.0000 0.0000 0.0000 0.0000 0.0000 16.1622
#
#
#
# Elastic Compliance Matrix: (Units=1/GPa)
#
#
# Indices 1 2 3 4 5 6 
#
# 1 0.010563 -0.003698 -0.002762 0.000000 0.000000 0.000000
# 2 -0.003698 0.013058 -0.001728 0.000000 0.000000 0.000000
# 3 -0.002762 -0.001728 0.009548 0.000000 0.000000 0.000000
# 4 0.000000 0.000000 0.000000 -0.048961 0.000000 0.000000
# 5 0.000000 0.000000 0.000000 0.000000 0.120229 0.000000
# 6 0.000000 0.000000 0.000000 0.000000 0.000000 0.061873
#
#
# Mechanical properties :
#
#
# Convention : Reuss Voigt Hill
#
# Bulk Modulus (GPa) = 59.54449 61.12897 60.33673
# Shear Modulus (GPa) = 26.55565 15.72480 21.14022
#
# Velocity S-wave (km/s) = 3.66849 2.82294 3.27313
# Velocity P-wave (km/s) = 6.93682 6.45012 6.69789
#
# Compressibility (1/GPa) = 0.01679417
#
# Stress axis : x y z
#
# Youngs Moduli (GPa) = 94.66829 76.58309 104.72851
#
# Poissons Ratio (x) = 0.28320 0.28922
# Poissons Ratio (y) = 0.35007 0.18098
# Poissons Ratio (z) = 0.26143 0.13235
#
# Static dielectric constant tensor:
#      x y z
#    x 1.720050 0.000000 0.000000 
#    y 0.000000 1.641320 0.000000 
#    z 0.000000 0.000000 1.745490 
# 
# From -- ./inp_files/18814.got.cif
#   From: 2010.05.17/outbox.cif.g08.bks.cpg/sg69_10_cif.got.tgz:18814.got - 2010.06.03 19:29:58.
