data_PCOD9511582
_publ_section_title
;
Structure prediction by ZEFSAII (Michael W. Deem and Ramdas Pophale) SiO2 
 PCOD9511582
Probable space group: F M M M
;
_chemical_formula_sum "Si O2"
_cell_formula_units_Z 224
_cell_length_a 15.382513
_cell_length_b 29.401565
_cell_length_c 22.902734
_cell_angle_alpha 90.000000
_cell_angle_beta 90.000000
_cell_angle_gamma 90.000000
_cell_volume 10358.218495
_symmetry_space_group_name_H-M "F M M M"
_symmetry_group_IT_number 69
_symmetry_cell_setting 'orthorhombic'
loop_
_space_group_symop_operation_xyz
x,y,z
-x,-y,z
x,-y,-z
-x,y,-z
-x,-y,-z
x,y,-z
-x,y,z
x,-y,z
x,1/2+y,1/2+z
-x,1/2-y,1/2+z
x,1/2-y,1/2-z
-x,1/2+y,1/2-z
-x,1/2-y,1/2-z
x,1/2+y,1/2-z
-x,1/2+y,1/2+z
x,1/2-y,1/2+z
1/2+x,y,1/2+z
1/2-x,-y,1/2+z
1/2+x,-y,1/2-z
1/2-x,y,1/2-z
1/2-x,-y,1/2-z
1/2+x,y,1/2-z
1/2-x,y,1/2+z
1/2+x,-y,1/2+z
1/2+x,1/2+y,z
1/2-x,1/2-y,z
1/2+x,1/2-y,-z
1/2-x,1/2+y,-z
1/2-x,1/2-y,-z
1/2+x,1/2+y,-z
1/2-x,1/2+y,z
1/2+x,1/2-y,z
loop_
_atom_site_type_symbol
_atom_site_label
_atom_site_fract_x
_atom_site_fract_y
_atom_site_fract_z
Si Si1 0.898273 0.586799 0.191297
Si Si2 0.159263 0.192469 0.871590
Si Si3 0.395394 0.000000 0.392319
Si Si4 0.867962 0.115583 0.435236
Si Si5 0.898176 0.820123 0.256731
Si Si6 0.106577 0.000000 0.756128
Si Si7 0.159575 0.100898 0.934376
Si Si8 0.364056 0.711070 0.383604
O O1 0.894656 0.587163 0.121548
O O2 0.860363 0.632149 0.219615
O O3 0.859354 0.543486 0.222056
O O4 0.000000 0.588659 0.206387
O O5 0.149751 0.194300 0.801650
O O6 0.128451 0.142801 0.893450
O O7 0.260846 0.200962 0.884651
O O8 0.115892 0.237087 0.901092
O O9 0.373322 0.000000 0.323874
O O10 0.361109 0.951313 0.416638
O O11 0.500000 0.000000 0.399972
O O12 0.898809 0.103112 0.500000
O O13 0.763618 0.108811 0.435851
O O14 0.896854 0.167508 0.419909
O O15 0.893237 0.791413 0.316052
O O16 0.000000 0.823256 0.240671
O O17 0.000000 0.000000 0.752125
O O18 0.125690 0.107731 0.000000
#
# Coordination Sequence:
#
# PCOD9511582 Si02
#       8
#    32  32  16  32  32  16  32  32
#     4   9  18  33  53  78 107 138 175 218 262 314
#     4  10  19  33  53  76 104 139 178 220 267 317
#     4  11  23  41  63  82 106 143 179 216 274 336
#     4   9  19  36  55  76 106 142 177 215 262 314
#     4  10  19  31  49  75 107 140 174 217 271 326
#     4   9  18  34  55  78 102 129 166 211 256 305
#     4  10  22  38  55  78 106 137 178 224 265 312
#     4   9  19  33  51  76 105 139 178 219 263 316
#
# _framework density 21.625339
#
# number of rings (size 3 to 8) (size 9 to 14) (size 15 to 20)
#    0.000    2.429    0.000    1.929    0.000    6.000 
#    0.000    6.786    0.000    1.286    0.000    4.000 
#    0.000    0.000    0.000    0.000    0.000    0.000 
#
# Total GULP energy -312077.016625 kJ/mol
# GULP energy per Si atom -5572.803868 kJ/mol
# Density = 2.157612 g / cm^3
# Si number density = 21.625339 Si / 1000 Ang^3
#
#
#
# Elastic Constant Matrix: (Units=GPa)
#
#
# Indices 1 2 3 4 5 6 
#
# 1 39.5027 20.5559 5.3152 0.0000 0.0000 0.0000
# 2 20.5559 146.1871 55.6755 0.0000 0.0000 0.0000
# 3 5.3152 55.6755 80.0149 0.0000 0.0000 0.0000
# 4 0.0000 0.0000 0.0000 -5.5876 0.0000 0.0000
# 5 0.0000 0.0000 0.0000 0.0000 25.4180 0.0000
# 6 0.0000 0.0000 0.0000 0.0000 0.0000 2.3935
#
#
#
# Elastic Compliance Matrix: (Units=1/GPa)
#
#
# Indices 1 2 3 4 5 6 
#
# 1 0.027394 -0.004298 0.001171 0.000000 0.000000 0.000000
# 2 -0.004298 0.009981 -0.006660 0.000000 0.000000 0.000000
# 3 0.001171 -0.006660 0.017054 0.000000 0.000000 0.000000
# 4 0.000000 0.000000 0.000000 -0.178967 0.000000 0.000000
# 5 0.000000 0.000000 0.000000 0.000000 0.039342 0.000000
# 6 0.000000 0.000000 0.000000 0.000000 0.000000 0.417797
#
#
# Mechanical properties :
#
#
# Convention : Reuss Voigt Hill
#
# Bulk Modulus (GPa) = 28.69000 47.64421 38.16711
# Shear Modulus (GPa) = 13.74411 16.72198 15.23305
#
# Velocity S-wave (km/s) = 2.52376 2.78377 2.65695
# Velocity P-wave (km/s) = 4.66777 5.69315 5.20577
#
# Compressibility (1/GPa) = 0.03485535
#
# Stress axis : x y z
#
# Youngs Moduli (GPa) = 36.50487 100.18851 58.63824
#
# Poissons Ratio (x) = 0.43059 -0.06865
# Poissons Ratio (y) = 0.15689 0.39050
# Poissons Ratio (z) = -0.04274 0.66721
#
# Static dielectric constant tensor:
#      x y z
#    x 1.836950 0.000000 0.000000 
#    y 0.000000 1.862590 0.000000 
#    z 0.000000 0.000000 1.750240 
# 
# From -- ./inp_files/31234.got.cif
#   From: 2010.05.17/outbox.cif.g08.bks.cpg/sg69_16_cif.got.tgz:31234.got - 2010.06.03 19:29:58.
