data_PCOD9511531
_publ_section_title
;
Structure prediction by ZEFSAII (Michael W. Deem and Ramdas Pophale) SiO2 
 PCOD9511531
Probable space group: F M M M
;
_chemical_formula_sum "Si O2"
_cell_formula_units_Z 240
_cell_length_a 27.798122
_cell_length_b 29.254072
_cell_length_c 13.859045
_cell_angle_alpha 90.000000
_cell_angle_beta 90.000000
_cell_angle_gamma 90.000000
_cell_volume 11270.289904
_symmetry_space_group_name_H-M "F M M M"
_symmetry_group_IT_number 69
_symmetry_cell_setting 'orthorhombic'
loop_
_space_group_symop_operation_xyz
x,y,z
-x,-y,z
x,-y,-z
-x,y,-z
-x,-y,-z
x,y,-z
-x,y,z
x,-y,z
x,1/2+y,1/2+z
-x,1/2-y,1/2+z
x,1/2-y,1/2-z
-x,1/2+y,1/2-z
-x,1/2-y,1/2-z
x,1/2+y,1/2-z
-x,1/2+y,1/2+z
x,1/2-y,1/2+z
1/2+x,y,1/2+z
1/2-x,-y,1/2+z
1/2+x,-y,1/2-z
1/2-x,y,1/2-z
1/2-x,-y,1/2-z
1/2+x,y,1/2-z
1/2-x,y,1/2+z
1/2+x,-y,1/2+z
1/2+x,1/2+y,z
1/2-x,1/2-y,z
1/2+x,1/2-y,-z
1/2-x,1/2+y,-z
1/2-x,1/2-y,-z
1/2+x,1/2+y,-z
1/2-x,1/2+y,z
1/2+x,1/2-y,z
loop_
_atom_site_type_symbol
_atom_site_label
_atom_site_fract_x
_atom_site_fract_y
_atom_site_fract_z
Si Si1 0.615690 0.358444 0.887814
Si Si2 0.057695 0.548772 0.889487
Si Si3 0.082762 0.354595 0.187247
Si Si4 0.338065 0.730080 0.892816
Si Si5 0.177259 0.946327 0.112153
Si Si6 0.250000 0.893700 0.750000
Si Si7 0.811305 0.327931 0.117221
Si Si8 0.947840 0.260840 0.137023
O O1 0.578286 0.348389 0.802857
O O2 0.658889 0.322570 0.860637
O O3 0.633073 0.410569 0.880743
O O4 0.602519 0.349953 0.000000
O O5 0.075214 0.500000 0.849796
O O6 0.070905 0.593701 0.833930
O O7 0.000000 0.547123 0.892563
O O8 0.074909 0.552708 0.000000
O O9 0.136731 0.346231 0.150271
O O10 0.053470 0.315905 0.130945
O O11 0.312131 0.774390 0.849201
O O12 0.395458 0.743454 0.897373
O O13 0.317670 0.727223 0.000000
O O14 0.214141 0.926616 0.190584
O O15 0.166401 0.000000 0.127748
O O16 0.194715 0.942025 0.000000
O O17 0.225971 0.860314 0.670867
O O18 0.807307 0.329175 0.000000
O O19 0.946432 0.250000 0.250000
O O20 0.000000 0.244139 0.101201
#
# Coordination Sequence:
#
# PCOD9511531 Si02
#       8
#    32  32  32  32  32  16  32  32
#     4  10  20  37  59  82 110 150 196 236 280 333
#     4   9  19  36  58  86 119 152 189 238 295 353
#     4  11  19  35  58  84 113 152 195 235 289 333
#     4   9  19  37  57  80 116 152 190 239 283 335
#     4  10  22  40  60  82 110 145 191 241 287 343
#     4  12  21  40  61  88 116 154 182 236 296 354
#     4  10  22  37  58  88 119 151 189 235 288 348
#     4  10  19  30  50  80 115 152 192 230 274 337
#
# _framework density 21.294927000000001
#
# number of rings (size 3 to 8) (size 9 to 14) (size 15 to 20)
#    0.000    2.000    2.667    1.800    0.000    1.333 
#    0.000    1.333    0.000    7.200    0.000    0.933 
#    0.000    0.000    0.000    0.000    0.000    0.000 
#
# Total GULP energy -334333.749131 kJ/mol
# GULP energy per Si atom -5572.229152 kJ/mol
# Density = 2.124646 g / cm^3
# Si number density = 21.294927 Si / 1000 Ang^3
#
#
#
# Elastic Constant Matrix: (Units=GPa)
#
#
# Indices 1 2 3 4 5 6 
#
# 1 31.4773 6.0394 5.9508 0.0000 0.0000 0.0000
# 2 6.0394 170.5845 28.4049 0.0000 0.0000 0.0000
# 3 5.9508 28.4049 98.8885 0.0000 0.0000 0.0000
# 4 0.0000 0.0000 0.0000 33.2183 0.0000 0.0000
# 5 0.0000 0.0000 0.0000 0.0000 9.0521 0.0000
# 6 0.0000 0.0000 0.0000 0.0000 0.0000 17.2040
#
#
#
# Elastic Compliance Matrix: (Units=1/GPa)
#
#
# Indices 1 2 3 4 5 6 
#
# 1 0.032254 -0.000860 -0.001694 0.000000 0.000000 0.000000
# 2 -0.000860 0.006180 -0.001723 0.000000 0.000000 0.000000
# 3 -0.001694 -0.001723 0.010709 0.000000 0.000000 0.000000
# 4 0.000000 0.000000 0.000000 0.030104 0.000000 0.000000
# 5 0.000000 0.000000 0.000000 0.000000 0.110471 0.000000
# 6 0.000000 0.000000 0.000000 0.000000 0.000000 0.058126
#
#
# Mechanical properties :
#
#
# Convention : Reuss Voigt Hill
#
# Bulk Modulus (GPa) = 24.63730 42.41558 33.52644
# Shear Modulus (GPa) = 18.52347 29.26524 23.89435
#
# Velocity S-wave (km/s) = 2.95253 3.71115 3.35336
# Velocity P-wave (km/s) = 4.81850 6.19071 5.54720
#
# Compressibility (1/GPa) = 0.04058887
#
# Stress axis : x y z
#
# Youngs Moduli (GPa) = 31.00374 161.82290 93.37642
#
# Poissons Ratio (x) = 0.13914 0.15818
# Poissons Ratio (y) = 0.02666 0.16091
# Poissons Ratio (z) = 0.05252 0.27887
#
# Static dielectric constant tensor:
#      x y z
#    x 1.778560 0.000000 0.000000 
#    y 0.000000 1.803820 0.000000 
#    z 0.000000 0.000000 1.803210 
# 
# From -- ./inp_files/19981.got.cif
#   From: 2010.05.17/outbox.cif.g08.bks.cpg/sg69_10_cif.got.tgz:19981.got - 2010.06.03 19:29:58.
