data_PCOD9511040
_publ_section_title
;
Structure prediction by ZEFSAII (Michael W. Deem and Ramdas Pophale) SiO2 
 PCOD9511040
Probable space group: F M M M
;
_chemical_formula_sum "Si O2"
_cell_formula_units_Z 192
_cell_length_a 12.821823
_cell_length_b 27.820425
_cell_length_c 30.128374
_cell_angle_alpha 90.000000
_cell_angle_beta 90.000000
_cell_angle_gamma 90.000000
_cell_volume 10747.049059
_symmetry_space_group_name_H-M "F M M M"
_symmetry_group_IT_number 69
_symmetry_cell_setting 'orthorhombic'
loop_
_space_group_symop_operation_xyz
x,y,z
-x,-y,z
x,-y,-z
-x,y,-z
-x,-y,-z
x,y,-z
-x,y,z
x,-y,z
x,1/2+y,1/2+z
-x,1/2-y,1/2+z
x,1/2-y,1/2-z
-x,1/2+y,1/2-z
-x,1/2-y,1/2-z
x,1/2+y,1/2-z
-x,1/2+y,1/2+z
x,1/2-y,1/2+z
1/2+x,y,1/2+z
1/2-x,-y,1/2+z
1/2+x,-y,1/2-z
1/2-x,y,1/2-z
1/2-x,-y,1/2-z
1/2+x,y,1/2-z
1/2-x,y,1/2+z
1/2+x,-y,1/2+z
1/2+x,1/2+y,z
1/2-x,1/2-y,z
1/2+x,1/2-y,-z
1/2-x,1/2+y,-z
1/2-x,1/2-y,-z
1/2+x,1/2+y,-z
1/2-x,1/2+y,z
1/2+x,1/2-y,z
loop_
_atom_site_type_symbol
_atom_site_label
_atom_site_fract_x
_atom_site_fract_y
_atom_site_fract_z
Si Si1 0.873384 0.553968 0.552227
Si Si2 0.872772 0.216216 0.820435
Si Si3 0.618350 0.866746 0.381327
Si Si4 0.343269 0.552066 0.812107
Si Si5 0.374984 0.314450 0.278470
Si Si6 0.618792 0.925294 0.208956
O O1 0.851210 0.559575 0.500000
O O2 0.837888 0.500000 0.565852
O O3 0.832483 0.599221 0.580665
O O4 0.000000 0.553813 0.557158
O O5 0.836449 0.182821 0.861322
O O6 0.845582 0.272351 0.812999
O O7 0.840930 0.193344 0.772753
O O8 0.000000 0.213679 0.822860
O O9 0.500000 0.855788 0.396038
O O10 0.615185 0.903499 0.339888
O O11 0.382205 0.500000 0.826966
O O12 0.372741 0.559535 0.760613
O O13 0.217468 0.551888 0.815071
O O14 0.500000 0.309259 0.275019
O O15 0.357609 0.368495 0.293284
O O16 0.500000 0.934945 0.194115
#
# Coordination Sequence:
#
# PCOD9511040 Si02
#       6
#    32  32  32  32  32  32
#     4   8  14  24  38  58  85 117 147 171 204 252
#     4   8  13  22  39  60  78 102 135 171 208 244
#     4  10  17  27  43  62  87 115 141 172 207 246
#     4  11  22  30  40  60  80 105 149 186 203 245
#     4   8  13  24  41  56  74 102 136 172 211 247
#     4  10  19  32  44  54  77 111 140 175 221 253
#
# _framework density 17.865369999999999
#
# number of rings (size 3 to 8) (size 9 to 14) (size 15 to 20)
#    0.000    2.833    1.667    3.500    0.000    3.000 
#    0.000    0.833    0.000    0.000    0.000    0.000 
#    0.000    3.333    0.000    8.333    0.000    1.000 
#
# Total GULP energy -267456.997286 kJ/mol
# GULP energy per Si atom -5572.020777 kJ/mol
# Density = 1.782471 g / cm^3
# Si number density = 17.865370 Si / 1000 Ang^3
#
#
#
# Elastic Constant Matrix: (Units=GPa)
#
#
# Indices 1 2 3 4 5 6 
#
# 1 70.9646 11.1783 1.1096 0.0000 0.0000 0.0000
# 2 11.1783 131.3144 38.8897 0.0000 0.0000 0.0000
# 3 1.1096 38.8897 57.5879 0.0000 0.0000 0.0000
# 4 0.0000 0.0000 0.0000 34.0685 0.0000 0.0000
# 5 0.0000 0.0000 0.0000 0.0000 7.7308 0.0000
# 6 0.0000 0.0000 0.0000 0.0000 0.0000 4.9469
#
#
#
# Elastic Compliance Matrix: (Units=1/GPa)
#
#
# Indices 1 2 3 4 5 6 
#
# 1 0.014305 -0.001420 0.000683 0.000000 0.000000 0.000000
# 2 -0.001420 0.009660 -0.006496 0.000000 0.000000 0.000000
# 3 0.000683 -0.006496 0.021739 0.000000 0.000000 0.000000
# 4 0.000000 0.000000 0.000000 0.029353 0.000000 0.000000
# 5 0.000000 0.000000 0.000000 0.000000 0.129353 0.000000
# 6 0.000000 0.000000 0.000000 0.000000 0.000000 0.202148
#
#
# Mechanical properties :
#
#
# Convention : Reuss Voigt Hill
#
# Bulk Modulus (GPa) = 32.01293 40.24688 36.12990
# Shear Modulus (GPa) = 11.58922 23.26184 17.42553
#
# Velocity S-wave (km/s) = 2.54972 3.61233 3.12650
# Velocity P-wave (km/s) = 5.16004 6.32260 5.77067
#
# Compressibility (1/GPa) = 0.03123738
#
# Stress axis : x y z
#
# Youngs Moduli (GPa) = 69.90785 103.51871 46.00128
#
# Poissons Ratio (x) = 0.14700 -0.03144
# Poissons Ratio (y) = 0.09927 0.29883
# Poissons Ratio (z) = -0.04777 0.67248
#
# Static dielectric constant tensor:
#      x y z
#    x 1.697350 0.000000 0.000000 
#    y 0.000000 1.667620 0.000000 
#    z 0.000000 0.000000 1.590630 
# 
# From -- ./inp_files/45938.got.cif
#   From: 2010.05.17/outbox.cif.g08.bks.cpg/sg69_23_cif.got.tgz:45938.got - 2010.06.03 19:29:58.
