data_PCOD9511829
_publ_section_title
;
Structure prediction by ZEFSAII (Michael W. Deem and Ramdas Pophale) SiO2 
 PCOD9511829
Probable space group: F M M M
;
_chemical_formula_sum "Si O2"
_cell_formula_units_Z 144
_cell_length_a 14.845807
_cell_length_b 21.144524
_cell_length_c 20.644402
_cell_angle_alpha 90.000000
_cell_angle_beta 90.000000
_cell_angle_gamma 90.000000
_cell_volume 6480.433083
_symmetry_space_group_name_H-M "F M M M"
_symmetry_group_IT_number 69
_symmetry_cell_setting 'orthorhombic'
loop_
_space_group_symop_operation_xyz
x,y,z
-x,-y,z
x,-y,-z
-x,y,-z
-x,-y,-z
x,y,-z
-x,y,z
x,-y,z
x,1/2+y,1/2+z
-x,1/2-y,1/2+z
x,1/2-y,1/2-z
-x,1/2+y,1/2-z
-x,1/2-y,1/2-z
x,1/2+y,1/2-z
-x,1/2+y,1/2+z
x,1/2-y,1/2+z
1/2+x,y,1/2+z
1/2-x,-y,1/2+z
1/2+x,-y,1/2-z
1/2-x,y,1/2-z
1/2-x,-y,1/2-z
1/2+x,y,1/2-z
1/2-x,y,1/2+z
1/2+x,-y,1/2+z
1/2+x,1/2+y,z
1/2-x,1/2-y,z
1/2+x,1/2-y,-z
1/2-x,1/2+y,-z
1/2-x,1/2-y,-z
1/2+x,1/2+y,-z
1/2-x,1/2+y,z
1/2+x,1/2-y,z
loop_
_atom_site_type_symbol
_atom_site_label
_atom_site_fract_x
_atom_site_fract_y
_atom_site_fract_z
Si Si1 0.389444 0.862736 0.425339
Si Si2 0.397731 0.500000 0.881363
Si Si3 0.390169 0.746164 0.175244
Si Si4 0.353345 0.000000 0.766604
Si Si5 0.396148 0.925092 0.000000
Si Si6 0.108774 0.114546 0.363279
O O1 0.364378 0.848013 0.500000
O O2 0.500000 0.862743 0.423354
O O3 0.360568 0.811316 0.371229
O O4 0.358129 0.933469 0.405623
O O5 0.500000 0.500000 0.906700
O O6 0.400443 0.500000 0.803258
O O7 0.500000 0.742893 0.175811
O O8 0.361321 0.750000 0.250000
O O9 0.362364 0.814263 0.148873
O O10 0.250000 0.000000 0.750000
O O11 0.371686 0.062457 0.808854
O O12 0.353622 0.904761 0.067050
O O13 0.500000 0.900610 0.000000
O O14 0.401223 0.000000 0.000000
O O15 0.000000 0.114552 0.366435
#
# Coordination Sequence:
#
# PCOD9511829 Si02
#       6
#    32  16  32  16  16  32
#     4   9  17  29  50  82 114 141 177 227 274 319
#     4  10  19  34  57  78 107 146 185 225 274 325
#     4   9  17  28  46  78 115 144 173 217 272 324
#     4  12  24  36  53  78 109 141 184 231 275 325
#     4   9  16  28  50  80 106 132 172 222 268 328
#     4  10  19  33  56  82 111 144 180 221 278 339
#
# _framework density 22.220737
#
# number of rings (size 3 to 8) (size 9 to 14) (size 15 to 20)
#    0.000    2.333    1.111    2.667    1.556    4.889 
#    0.000    0.000    4.889    6.000    0.000    1.556 
#    0.000    0.000    0.000    0.000    0.000    0.000 
#
# Total GULP energy -200989.402117 kJ/mol
# GULP energy per Si atom -5583.038948 kJ/mol
# Density = 2.217016 g / cm^3
# Si number density = 22.220737 Si / 1000 Ang^3
#
#
#
# Elastic Constant Matrix: (Units=GPa)
#
#
# Indices 1 2 3 4 5 6 
#
# 1 55.8553 19.5452 13.9414 0.0000 0.0000 0.0000
# 2 19.5452 193.6455 113.9345 0.0000 0.0000 0.0000
# 3 13.9414 113.9345 202.8044 0.0000 0.0000 0.0000
# 4 0.0000 0.0000 0.0000 70.6203 0.0000 0.0000
# 5 0.0000 0.0000 0.0000 0.0000 -6.3894 0.0000
# 6 0.0000 0.0000 0.0000 0.0000 0.0000 -860.4919
#
#
#
# Elastic Compliance Matrix: (Units=1/GPa)
#
#
# Indices 1 2 3 4 5 6 
#
# 1 0.018574 -0.001678 -0.000334 0.000000 0.000000 0.000000
# 2 -0.001678 0.007865 -0.004303 0.000000 0.000000 0.000000
# 3 -0.000334 -0.004303 0.007371 0.000000 0.000000 0.000000
# 4 0.000000 0.000000 0.000000 0.014160 0.000000 0.000000
# 5 0.000000 0.000000 0.000000 0.000000 -0.156509 0.000000
# 6 0.000000 0.000000 0.000000 0.000000 0.000000 -0.001162
#
#
# Mechanical properties :
#
#
# Convention : Reuss Voigt Hill
#
# Bulk Modulus (GPa) = 47.21512 83.01638 65.11575
# Shear Modulus (GPa) = -55.55025 -138.92659 -97.23842
#
# Velocity S-wave (km/s) = -5.00535 -7.91561 -6.62233
# Velocity P-wave (km/s) = 3.48000 6.78981 5.39499
#
# Compressibility (1/GPa) = 0.02117966
#
# Stress axis : x y z
#
# Youngs Moduli (GPa) = 53.83863 127.13856 135.65850
#
# Poissons Ratio (x) = 0.21336 0.04532
# Poissons Ratio (y) = 0.09035 0.58379
# Poissons Ratio (z) = 0.01798 0.54713
#
# Static dielectric constant tensor:
#      x y z
#    x 1.841160 0.000000 0.000000 
#    y 0.000000 1.788760 0.000000 
#    z 0.000000 0.000000 1.879490 
# 
# From -- ./inp_files/30782.got.cif
#   From: 2010.05.17/outbox.cif.g08.bks.cpg/sg69_16_cif.got.tgz:30782.got - 2010.06.03 19:29:58.
