data_PCOD9511961
_publ_section_title
;
Structure prediction by ZEFSAII (Michael W. Deem and Ramdas Pophale) SiO2 
 PCOD9511961
Probable space group: F M M M
;
_chemical_formula_sum "Si O2"
_cell_formula_units_Z 96
_cell_length_a 11.399489
_cell_length_b 18.650250
_cell_length_c 19.938259
_cell_angle_alpha 90.000000
_cell_angle_beta 90.000000
_cell_angle_gamma 90.000000
_cell_volume 4238.940053
_symmetry_space_group_name_H-M "F M M M"
_symmetry_group_IT_number 69
_symmetry_cell_setting 'orthorhombic'
loop_
_space_group_symop_operation_xyz
x,y,z
-x,-y,z
x,-y,-z
-x,y,-z
-x,-y,-z
x,y,-z
-x,y,z
x,-y,z
x,1/2+y,1/2+z
-x,1/2-y,1/2+z
x,1/2-y,1/2-z
-x,1/2+y,1/2-z
-x,1/2-y,1/2-z
x,1/2+y,1/2-z
-x,1/2+y,1/2+z
x,1/2-y,1/2+z
1/2+x,y,1/2+z
1/2-x,-y,1/2+z
1/2+x,-y,1/2-z
1/2-x,y,1/2-z
1/2-x,-y,1/2-z
1/2+x,y,1/2-z
1/2-x,y,1/2+z
1/2+x,-y,1/2+z
1/2+x,1/2+y,z
1/2-x,1/2-y,z
1/2+x,1/2-y,-z
1/2-x,1/2+y,-z
1/2-x,1/2-y,-z
1/2+x,1/2+y,-z
1/2-x,1/2+y,z
1/2+x,1/2-y,z
loop_
_atom_site_type_symbol
_atom_site_label
_atom_site_fract_x
_atom_site_fract_y
_atom_site_fract_z
Si Si1 0.753808 0.085063 0.138880
Si Si2 0.500000 0.912775 0.420384
Si Si3 0.132086 0.214632 0.322821
Si Si4 0.371634 0.586118 0.500000
O O1 0.672593 0.132201 0.186592
O O2 0.887695 0.106701 0.124605
O O3 0.747881 0.000000 0.152623
O O4 0.696441 0.102378 0.066855
O O5 0.500000 0.888856 0.500000
O O6 0.500000 0.000000 0.425501
O O7 0.124250 0.250000 0.250000
O O8 0.250000 0.250000 0.356124
O O9 0.000000 0.219384 0.353057
O O10 0.381500 0.500000 0.500000
O O11 0.500000 0.618646 0.500000
#
# Coordination Sequence:
#
# PCOD9511961 Si02
#       4
#    32  16  32  16
#     4  10  19  34  61  93 124 161 205 254 310 372
#     4   9  16  30  55  94 136 164 192 246 315 376
#     4  10  23  43  63  85 119 163 210 263 320 372
#     4   9  16  27  50  87 123 151 191 251 311 367
#
# _framework density 22.647169999999999
#
# number of rings (size 3 to 8) (size 9 to 14) (size 15 to 20)
#    0.000    2.333    1.667    1.000    2.333    2.000 
#    0.000    4.167    0.000    2.000    0.000    0.000 
#    0.000    0.000    0.000    0.000    0.000    0.333 
#
# Total GULP energy -133716.715761 kJ/mol
# GULP energy per Si atom -5571.529823 kJ/mol
# Density = 2.259562 g / cm^3
# Si number density = 22.647170 Si / 1000 Ang^3
#
#
#
# Elastic Constant Matrix: (Units=GPa)
#
#
# Indices 1 2 3 4 5 6 
#
# 1 233.2055 59.2014 14.0191 0.0000 0.0000 0.0000
# 2 59.2014 92.2926 23.0838 0.0000 0.0000 0.0000
# 3 14.0191 23.0838 48.5646 0.0000 0.0000 0.0000
# 4 0.0000 0.0000 0.0000 18.9941 0.0000 0.0000
# 5 0.0000 0.0000 0.0000 0.0000 -21.6080 0.0000
# 6 0.0000 0.0000 0.0000 0.0000 0.0000 22.3909
#
#
#
# Elastic Compliance Matrix: (Units=1/GPa)
#
#
# Indices 1 2 3 4 5 6 
#
# 1 0.005123 -0.003309 0.000094 0.000000 0.000000 0.000000
# 2 -0.003309 0.014435 -0.005906 0.000000 0.000000 0.000000
# 3 0.000094 -0.005906 0.023371 0.000000 0.000000 0.000000
# 4 0.000000 0.000000 0.000000 0.052648 0.000000 0.000000
# 5 0.000000 0.000000 0.000000 0.000000 -0.046279 0.000000
# 6 0.000000 0.000000 0.000000 0.000000 0.000000 0.044661
#
#
# Mechanical properties :
#
#
# Convention : Reuss Voigt Hill
#
# Bulk Modulus (GPa) = 40.50781 62.96347 51.73564
# Shear Modulus (GPa) = 41.51796 22.47261 31.99529
#
# Velocity S-wave (km/s) = 4.28629 3.15348 3.76276
# Velocity P-wave (km/s) = 6.51320 6.41261 6.46310
#
# Compressibility (1/GPa) = 0.02468660
#
# Stress axis : x y z
#
# Youngs Moduli (GPa) = 195.21602 69.27533 42.78781
#
# Poissons Ratio (x) = 0.22926 -0.00404
# Poissons Ratio (y) = 0.64606 0.25270
# Poissons Ratio (z) = -0.01842 0.40914
#
# Static dielectric constant tensor:
#      x y z
#    x 1.974890 0.000000 0.000000 
#    y 0.000000 1.919080 0.000000 
#    z 0.000000 0.000000 1.722330 
# 
# From -- ./inp_files/8007.got.cif
#   From: 2010.05.17/outbox.cif.g08.bks.cpg/sg69_5_cif.got.tgz:8007.got - 2010.06.03 19:29:58.
