data_PCOD9511205
_publ_section_title
;
Structure prediction by ZEFSAII (Michael W. Deem and Ramdas Pophale) SiO2 
 PCOD9511205
Probable space group: F M M M
;
_chemical_formula_sum "Si O2"
_cell_formula_units_Z 112
_cell_length_a 24.921525
_cell_length_b 29.504667
_cell_length_c 8.595126
_cell_angle_alpha 90.000000
_cell_angle_beta 90.000000
_cell_angle_gamma 90.000000
_cell_volume 6320.007289
_symmetry_space_group_name_H-M "F M M M"
_symmetry_group_IT_number 69
_symmetry_cell_setting 'orthorhombic'
loop_
_space_group_symop_operation_xyz
x,y,z
-x,-y,z
x,-y,-z
-x,y,-z
-x,-y,-z
x,y,-z
-x,y,z
x,-y,z
x,1/2+y,1/2+z
-x,1/2-y,1/2+z
x,1/2-y,1/2-z
-x,1/2+y,1/2-z
-x,1/2-y,1/2-z
x,1/2+y,1/2-z
-x,1/2+y,1/2+z
x,1/2-y,1/2+z
1/2+x,y,1/2+z
1/2-x,-y,1/2+z
1/2+x,-y,1/2-z
1/2-x,y,1/2-z
1/2-x,-y,1/2-z
1/2+x,y,1/2-z
1/2-x,y,1/2+z
1/2+x,-y,1/2+z
1/2+x,1/2+y,z
1/2-x,1/2-y,z
1/2+x,1/2-y,-z
1/2-x,1/2+y,-z
1/2-x,1/2-y,-z
1/2+x,1/2+y,-z
1/2-x,1/2+y,z
1/2+x,1/2-y,z
loop_
_atom_site_type_symbol
_atom_site_label
_atom_site_fract_x
_atom_site_fract_y
_atom_site_fract_z
Si Si1 0.000000 0.800788 0.313666
Si Si2 0.084890 0.370937 0.687168
Si Si3 0.500000 0.447508 0.188996
Si Si4 0.689479 0.000000 0.685765
Si Si5 0.310236 0.595272 0.315012
O O1 0.000000 0.750000 0.250000
O O2 0.949201 0.828829 0.249441
O O3 0.000000 0.801066 0.500000
O O4 0.086833 0.370322 0.500000
O O5 0.144566 0.370652 0.755853
O O6 0.051264 0.416465 0.733840
O O7 0.500000 0.500000 0.243969
O O8 0.500000 0.449477 0.000000
O O9 0.750000 0.000000 0.750000
O O10 0.668124 0.046974 0.750519
O O11 0.687910 0.000000 0.500000
O O12 0.306921 0.593647 0.500000
O O13 0.250000 0.602709 0.250000
#
# Coordination Sequence:
#
# PCOD9511205 Si02
#       5
#    16  32  16  16  32
#     4  11  22  40  64  88 113 142 181 232 284 337
#     4  10  20  35  56  83 113 146 187 230 280 336
#     4   8  16  30  49  75 106 144 183 222 270 324
#     4  10  18  30  46  67  98 143 192 234 271 316
#     4  11  21  34  51  76 110 149 192 236 279 328
#
# _framework density 17.721498
#
# number of rings (size 3 to 8) (size 9 to 14) (size 15 to 20)
#    0.000    1.857    0.000    8.571    2.000    0.000 
#    0.000    0.000    0.000    3.429    0.000    6.000 
#    0.000    0.000    0.000    0.000    0.000    0.000 
#
# Total GULP energy -156201.262879 kJ/mol
# GULP energy per Si atom -5578.616531 kJ/mol
# Density = 1.768116 g / cm^3
# Si number density = 17.721498 Si / 1000 Ang^3
#
#
#
# Elastic Constant Matrix: (Units=GPa)
#
#
# Indices 1 2 3 4 5 6 
#
# 1 144.0800 63.0316 59.3134 0.0009 -0.0018 -0.0015
# 2 63.0316 119.4226 42.6771 0.0008 -0.0006 -0.0007
# 3 59.3134 42.6771 152.0201 0.0035 -0.0043 -0.0030
# 4 0.0009 0.0008 0.0035 24.5171 -0.0016 -0.0019
# 5 -0.0018 -0.0006 -0.0043 -0.0016 26.4913 0.0020
# 6 -0.0015 -0.0007 -0.0030 -0.0019 0.0020 18.6548
#
#
#
# Elastic Compliance Matrix: (Units=1/GPa)
#
#
# Indices 1 2 3 4 5 6 
#
# 1 0.009909 -0.004278 -0.002665 0.000000 0.000000 0.000000
# 2 -0.004278 0.011154 -0.001462 0.000000 0.000000 0.000000
# 3 -0.002665 -0.001462 0.008029 -0.000001 0.000001 0.000001
# 4 0.000000 0.000000 -0.000001 0.040788 0.000002 0.000004
# 5 0.000000 0.000000 0.000001 0.000002 0.037748 -0.000004
# 6 0.000000 0.000000 0.000001 0.000004 -0.000004 0.053605
#
#
# Mechanical properties :
#
#
# Convention : Reuss Voigt Hill
#
# Bulk Modulus (GPa) = 81.42593 82.84077 82.13335
# Shear Modulus (GPa) = 27.45180 30.63269 29.04225
#
# Velocity S-wave (km/s) = 3.94009 4.16211 4.05262
# Velocity P-wave (km/s) = 8.16985 8.36331 8.26714
#
# Compressibility (1/GPa) = 0.01228110
#
# Stress axis : x y z
#
# Youngs Moduli (GPa) = 100.91636 89.65457 124.55561
#
# Poissons Ratio (x) = 0.38351 0.33199
# Poissons Ratio (y) = 0.43168 0.18214
# Poissons Ratio (z) = 0.26898 0.13110
#
# Static dielectric constant tensor:
#      x y z
#    x 1.620110 -0.000010 0.000000 
#    y -0.000010 1.794290 0.000010 
#    z 0.000000 0.000010 1.589460 
# 
# From -- ./inp_files/3819.got.cif
#   From: 2010.05.17/outbox.cif.g08.bks.cpg/sg69_2_cif.got.tgz:3819.got - 2010.06.03 19:29:58.
