data_PCOD9511313
_publ_section_title
;
Structure prediction by ZEFSAII (Michael W. Deem and Ramdas Pophale) SiO2 
 PCOD9511313
Probable space group: F M M M
;
_chemical_formula_sum "Si O2"
_cell_formula_units_Z 104
_cell_length_a 15.189855
_cell_length_b 14.959878
_cell_length_c 23.060156
_cell_angle_alpha 90.000000
_cell_angle_beta 90.000000
_cell_angle_gamma 90.000000
_cell_volume 5240.152438
_symmetry_space_group_name_H-M "F M M M"
_symmetry_group_IT_number 69
_symmetry_cell_setting 'orthorhombic'
loop_
_space_group_symop_operation_xyz
x,y,z
-x,-y,z
x,-y,-z
-x,y,-z
-x,-y,-z
x,y,-z
-x,y,z
x,-y,z
x,1/2+y,1/2+z
-x,1/2-y,1/2+z
x,1/2-y,1/2-z
-x,1/2+y,1/2-z
-x,1/2-y,1/2-z
x,1/2+y,1/2-z
-x,1/2+y,1/2+z
x,1/2-y,1/2+z
1/2+x,y,1/2+z
1/2-x,-y,1/2+z
1/2+x,-y,1/2-z
1/2-x,y,1/2-z
1/2-x,-y,1/2-z
1/2+x,y,1/2-z
1/2-x,y,1/2+z
1/2+x,-y,1/2+z
1/2+x,1/2+y,z
1/2-x,1/2-y,z
1/2+x,1/2-y,-z
1/2-x,1/2+y,-z
1/2-x,1/2-y,-z
1/2+x,1/2+y,-z
1/2-x,1/2+y,z
1/2+x,1/2-y,z
loop_
_atom_site_type_symbol
_atom_site_label
_atom_site_fract_x
_atom_site_fract_y
_atom_site_fract_z
Si Si1 0.000000 0.203037 0.434646
Si Si2 0.181726 0.097394 0.832137
Si Si3 0.750000 0.750000 0.750000
Si Si4 0.195963 0.156643 0.432636
Si Si5 0.000000 0.598130 0.599536
O O1 0.904784 0.172299 0.411578
O O2 0.000000 0.310765 0.436301
O O3 0.000000 0.168465 0.500000
O O4 0.196232 0.182005 0.790785
O O5 0.251935 0.101220 0.884730
O O6 0.086420 0.102601 0.861188
O O7 0.188440 0.000000 0.803076
O O8 0.196623 0.123787 0.500000
O O9 0.250000 0.250000 0.434087
O O10 0.000000 0.500000 0.570072
#
# Coordination Sequence:
#
# PCOD9511313 Si02
#       5
#    16  32   8  32  16
#     4  10  18  31  54  84 117 158 197 229 281 343
#     4  11  23  39  61  87 115 153 196 239 294 348
#     4  12  22  42  62  82 116 154 190 248 292 346
#     4  10  19  35  58  85 119 156 191 233 285 341
#     4  10  20  34  53  83 116 146 191 246 288 339
#
# _framework density 19.846751000000001
#
# number of rings (size 3 to 8) (size 9 to 14) (size 15 to 20)
#    0.000    1.538    4.615    0.462    0.000    1.538 
#    0.000    5.385    0.000    2.769    0.000    0.000 
#    0.000    0.000    0.000    0.000    0.000    0.000 
#
# Total GULP energy -144869.387971 kJ/mol
# GULP energy per Si atom -5571.899537 kJ/mol
# Density = 1.980158 g / cm^3
# Si number density = 19.846751 Si / 1000 Ang^3
#
#
#
# Elastic Constant Matrix: (Units=GPa)
#
#
# Indices 1 2 3 4 5 6 
#
# 1 191.3397 39.1584 43.1783 0.0000 0.0000 0.0000
# 2 39.1584 102.8906 34.0979 0.0000 0.0000 0.0000
# 3 43.1783 34.0979 66.6641 0.0000 0.0000 0.0000
# 4 0.0000 0.0000 0.0000 -15.7894 0.0000 0.0000
# 5 0.0000 0.0000 0.0000 0.0000 -9.7247 0.0000
# 6 0.0000 0.0000 0.0000 0.0000 0.0000 63.4103
#
#
#
# Elastic Compliance Matrix: (Units=1/GPa)
#
#
# Indices 1 2 3 4 5 6 
#
# 1 0.006251 -0.001249 -0.003410 0.000000 0.000000 0.000000
# 2 -0.001249 0.011952 -0.005304 0.000000 0.000000 0.000000
# 3 -0.003410 -0.005304 0.019923 0.000000 0.000000 0.000000
# 4 0.000000 0.000000 0.000000 -0.063334 0.000000 0.000000
# 5 0.000000 0.000000 0.000000 0.000000 -0.102831 0.000000
# 6 0.000000 0.000000 0.000000 0.000000 0.000000 0.015770
#
#
# Mechanical properties :
#
#
# Convention : Reuss Voigt Hill
#
# Bulk Modulus (GPa) = 54.94838 65.97372 60.46105
# Shear Modulus (GPa) = -57.95469 23.87657 -17.03906
#
# Velocity S-wave (km/s) = -5.40967 3.47226 -2.93325
# Velocity P-wave (km/s) = 3.35751 7.02774 4.36556
#
# Compressibility (1/GPa) = 0.01819890
#
# Stress axis : x y z
#
# Youngs Moduli (GPa) = 159.96182 83.66575 50.19447
#
# Poissons Ratio (x) = 0.10450 0.17117
# Poissons Ratio (y) = 0.19980 0.26625
# Poissons Ratio (z) = 0.54550 0.44380
#
# Static dielectric constant tensor:
#      x y z
#    x 1.696880 0.000000 0.000000 
#    y 0.000000 1.725570 0.000000 
#    z 0.000000 0.000000 1.708580 
# 
# From -- ./inp_files/14140.got.cif
#   From: 2010.05.17/outbox.cif.g08.bks.cpg/sg69_8_cif.got.tgz:14140.got - 2010.06.03 19:29:58.
