data_PCOD9511951
_publ_section_title
;
Structure prediction by ZEFSAII (Michael W. Deem and Ramdas Pophale) SiO2 
 PCOD9511951
Probable space group: F M M M
;
_chemical_formula_sum "Si O2"
_cell_formula_units_Z 168
_cell_length_a 27.581409
_cell_length_b 18.975991
_cell_length_c 13.719074
_cell_angle_alpha 90.000000
_cell_angle_beta 90.000000
_cell_angle_gamma 90.000000
_cell_volume 7180.351632
_symmetry_space_group_name_H-M "F M M M"
_symmetry_group_IT_number 69
_symmetry_cell_setting 'orthorhombic'
loop_
_space_group_symop_operation_xyz
x,y,z
-x,-y,z
x,-y,-z
-x,y,-z
-x,-y,-z
x,y,-z
-x,y,z
x,-y,z
x,1/2+y,1/2+z
-x,1/2-y,1/2+z
x,1/2-y,1/2-z
-x,1/2+y,1/2-z
-x,1/2-y,1/2-z
x,1/2+y,1/2-z
-x,1/2+y,1/2+z
x,1/2-y,1/2+z
1/2+x,y,1/2+z
1/2-x,-y,1/2+z
1/2+x,-y,1/2-z
1/2-x,y,1/2-z
1/2-x,-y,1/2-z
1/2+x,y,1/2-z
1/2-x,y,1/2+z
1/2+x,-y,1/2+z
1/2+x,1/2+y,z
1/2-x,1/2-y,z
1/2+x,1/2-y,-z
1/2-x,1/2+y,-z
1/2-x,1/2-y,-z
1/2+x,1/2+y,-z
1/2-x,1/2+y,z
1/2+x,1/2-y,z
loop_
_atom_site_type_symbol
_atom_site_label
_atom_site_fract_x
_atom_site_fract_y
_atom_site_fract_z
Si Si1 0.840083 0.288534 0.389000
Si Si2 0.500000 0.130030 0.000000
Si Si3 0.070118 0.918081 0.670874
Si Si4 0.052433 0.310472 0.332361
Si Si5 0.824958 0.869912 0.618480
Si Si6 0.781434 0.577727 0.619006
O O1 0.821962 0.284935 0.500000
O O2 0.897933 0.299047 0.389167
O O3 0.827814 0.211708 0.347928
O O4 0.814758 0.357840 0.346485
O O5 0.541998 0.123583 0.914188
O O6 0.056073 0.883623 0.773660
O O7 0.127272 0.908455 0.655814
O O8 0.057019 0.000000 0.662449
O O9 0.053033 0.250000 0.250000
O O10 0.000000 0.305058 0.383413
O O11 0.827769 0.870469 0.500000
O O12 0.774183 0.905584 0.644231
O O13 0.784190 0.576204 0.500000
O O14 0.796155 0.500000 0.653069
#
# Coordination Sequence:
#
# PCOD9511951 Si02
#       6
#    32   8  32  32  32  32
#     4  10  21  39  63  90 121 166 211 254 310 371
#     4  12  25  40  62 100 134 162 203 258 319 382
#     4  12  23  38  62  92 127 163 203 254 318 378
#     4  11  24  42  59  86 125 163 206 256 309 367
#     4  10  19  34  59  93 123 159 203 254 312 376
#     4   9  18  34  59  90 123 159 207 262 308 361
#
# _framework density 23.397182000000001
#
# number of rings (size 3 to 8) (size 9 to 14) (size 15 to 20)
#    0.000    1.524    3.810    2.000    0.000    4.190 
#    0.000    0.952    0.000    2.286    0.000    4.000 
#    0.000    0.000    0.000    0.000    0.000    0.000 
#
# Total GULP energy -234574.560214 kJ/mol
# GULP energy per Si atom -5585.108577 kJ/mol
# Density = 2.334393 g / cm^3
# Si number density = 23.397182 Si / 1000 Ang^3
#
#
#
# Elastic Constant Matrix: (Units=GPa)
#
#
# Indices 1 2 3 4 5 6 
#
# 1 125.5913 48.4778 -2.6045 0.0000 0.0000 0.0000
# 2 48.4778 115.0913 17.9054 0.0000 0.0000 0.0000
# 3 -2.6045 17.9054 63.0253 0.0000 0.0000 0.0000
# 4 0.0000 0.0000 0.0000 17.2602 0.0000 0.0000
# 5 0.0000 0.0000 0.0000 0.0000 37.9821 0.0000
# 6 0.0000 0.0000 0.0000 0.0000 0.0000 -9.2673
#
#
#
# Elastic Compliance Matrix: (Units=1/GPa)
#
#
# Indices 1 2 3 4 5 6 
#
# 1 0.009665 -0.004324 0.001628 0.000000 0.000000 0.000000
# 2 -0.004324 0.011025 -0.003311 0.000000 0.000000 0.000000
# 3 0.001628 -0.003311 0.016875 0.000000 0.000000 0.000000
# 4 0.000000 0.000000 0.000000 0.057937 0.000000 0.000000
# 5 0.000000 0.000000 0.000000 0.000000 0.026328 0.000000
# 6 0.000000 0.000000 0.000000 0.000000 0.000000 -0.107906
#
#
# Mechanical properties :
#
#
# Convention : Reuss Voigt Hill
#
# Bulk Modulus (GPa) = 39.13835 47.91834 43.52835
# Shear Modulus (GPa) = 145.11472 25.19028 85.15250
#
# Velocity S-wave (km/s) = 7.88397 3.28477 6.03932
# Velocity P-wave (km/s) = 9.98199 5.90857 8.20217
#
# Compressibility (1/GPa) = 0.02555039
#
# Stress axis : x y z
#
# Youngs Moduli (GPa) = 103.46289 90.70004 59.26074
#
# Poissons Ratio (x) = 0.39222 -0.09648
# Poissons Ratio (y) = 0.44742 0.19621
# Poissons Ratio (z) = -0.16844 0.30031
#
# Static dielectric constant tensor:
#      x y z
#    x 1.844480 0.000000 0.000000 
#    y 0.000000 1.880850 0.000000 
#    z 0.000000 0.000000 1.927730 
# 
# From -- ./inp_files/18833.got.cif
#   From: 2010.05.17/outbox.cif.g08.bks.cpg/sg69_10_cif.got.tgz:18833.got - 2010.06.03 19:29:58.
