data_PCOD9511051
_publ_section_title
;
Structure prediction by ZEFSAII (Michael W. Deem and Ramdas Pophale) SiO2 
 PCOD9511051
Probable space group: F M M M
;
_chemical_formula_sum "Si O2"
_cell_formula_units_Z 112
_cell_length_a 31.638420
_cell_length_b 8.576081
_cell_length_c 25.975386
_cell_angle_alpha 90.000000
_cell_angle_beta 90.000000
_cell_angle_gamma 90.000000
_cell_volume 7047.996362
_symmetry_space_group_name_H-M "F M M M"
_symmetry_group_IT_number 69
_symmetry_cell_setting 'orthorhombic'
loop_
_space_group_symop_operation_xyz
x,y,z
-x,-y,z
x,-y,-z
-x,y,-z
-x,-y,-z
x,y,-z
-x,y,z
x,-y,z
x,1/2+y,1/2+z
-x,1/2-y,1/2+z
x,1/2-y,1/2-z
-x,1/2+y,1/2-z
-x,1/2-y,1/2-z
x,1/2+y,1/2-z
-x,1/2+y,1/2+z
x,1/2-y,1/2+z
1/2+x,y,1/2+z
1/2-x,-y,1/2+z
1/2+x,-y,1/2-z
1/2-x,y,1/2-z
1/2-x,-y,1/2-z
1/2+x,y,1/2-z
1/2-x,y,1/2+z
1/2+x,-y,1/2+z
1/2+x,1/2+y,z
1/2-x,1/2-y,z
1/2+x,1/2-y,-z
1/2-x,1/2+y,-z
1/2-x,1/2-y,-z
1/2+x,1/2+y,-z
1/2-x,1/2+y,z
1/2+x,1/2-y,z
loop_
_atom_site_type_symbol
_atom_site_label
_atom_site_fract_x
_atom_site_fract_y
_atom_site_fract_z
Si Si1 0.117697 0.185856 0.308118
Si Si2 0.450518 0.310509 0.113059
Si Si3 0.948705 0.180300 0.000000
Si Si4 0.206404 0.313920 0.308694
O O1 0.112381 0.250000 0.250000
O O2 0.079260 0.240903 0.343519
O O3 0.161957 0.253056 0.330207
O O4 0.120370 0.000000 0.305762
O O5 0.500000 0.271061 0.120775
O O6 0.447797 0.500000 0.113584
O O7 0.436938 0.253400 0.055759
O O8 0.000000 0.177750 0.000000
O O9 0.934544 0.000000 0.000000
O O10 0.207171 0.500000 0.307823
O O11 0.206057 0.250000 0.250000
O O12 0.250000 0.250000 0.332530
#
# Coordination Sequence:
#
# PCOD9511051 Si02
#       4
#    32  32  16  32
#     4  11  21  32  45  65  94 126 158 190 227 272
#     4   9  17  31  50  70  92 120 154 191 230 272
#     4   7  12  26  49  71  88 111 148 191 231 271
#     4  10  17  28  45  65  89 117 150 187 227 269
#
# _framework density 15.891041
#
# number of rings (size 3 to 8) (size 9 to 14) (size 15 to 20)
#    0.000    2.429    0.000    9.429    0.000    1.143 
#    0.000    0.714    0.000    2.571    0.000    1.000 
#    0.000    0.000    0.000    0.000    0.000    0.000 
#
# Total GULP energy -155930.857651 kJ/mol
# GULP energy per Si atom -5568.959202 kJ/mol
# Density = 1.585487 g / cm^3
# Si number density = 15.891041 Si / 1000 Ang^3
#
#
#
# Elastic Constant Matrix: (Units=GPa)
#
#
# Indices 1 2 3 4 5 6 
#
# 1 117.9860 55.4164 61.5730 0.0000 0.0000 0.0001
# 2 55.4164 109.5267 33.7793 0.0000 0.0000 0.0000
# 3 61.5730 33.7793 81.6479 0.0000 0.0000 0.0000
# 4 0.0000 0.0000 0.0000 9.7649 0.0000 0.0000
# 5 0.0000 0.0000 0.0000 0.0000 -2.1557 0.0000
# 6 0.0001 0.0000 0.0000 0.0000 0.0000 34.7836
#
#
#
# Elastic Compliance Matrix: (Units=1/GPa)
#
#
# Indices 1 2 3 4 5 6 
#
# 1 0.016085 -0.005041 -0.010045 0.000000 0.000000 0.000000
# 2 -0.005041 0.012045 -0.001182 0.000000 0.000000 0.000000
# 3 -0.010045 -0.001182 0.020312 0.000000 0.000000 0.000000
# 4 0.000000 0.000000 0.000000 0.102408 0.000000 0.000000
# 5 0.000000 0.000000 0.000000 0.000000 -0.463880 0.000000
# 6 0.000000 0.000000 0.000000 0.000000 0.000000 0.028749
#
#
# Mechanical properties :
#
#
# Convention : Reuss Voigt Hill
#
# Bulk Modulus (GPa) = 62.86491 67.85533 65.36012
# Shear Modulus (GPa) = -20.28861 19.03801 -0.62530
#
# Velocity S-wave (km/s) = -3.57702 3.46502 -0.62797
# Velocity P-wave (km/s) = 4.75245 7.66822 6.37916
#
# Compressibility (1/GPa) = 0.01590713
#
# Stress axis : x y z
#
# Youngs Moduli (GPa) = 62.16911 83.02151 49.23212
#
# Poissons Ratio (x) = 0.41847 0.49453
# Poissons Ratio (y) = 0.31336 0.05820
# Poissons Ratio (z) = 0.62448 0.09814
#
# Static dielectric constant tensor:
#      x y z
#    x 1.559730 0.000000 0.000000 
#    y 0.000000 1.534770 0.000000 
#    z 0.000000 0.000000 1.539500 
# 
# From -- ./inp_files/4716.got.cif
#   From: 2010.05.17/outbox.cif.g08.bks.cpg/sg69_3_cif.got.tgz:4716.got - 2010.06.03 19:29:58.
