data_PCOD9511504
_publ_section_title
;
Structure prediction by ZEFSAII (Michael W. Deem and Ramdas Pophale) SiO2 
 PCOD9511504
Probable space group: F M M M
;
_chemical_formula_sum "Si O2"
_cell_formula_units_Z 160
_cell_length_a 14.500852
_cell_length_b 19.341980
_cell_length_c 27.713500
_cell_angle_alpha 90.000000
_cell_angle_beta 90.000000
_cell_angle_gamma 90.000000
_cell_volume 7772.949161
_symmetry_space_group_name_H-M "F M M M"
_symmetry_group_IT_number 69
_symmetry_cell_setting 'orthorhombic'
loop_
_space_group_symop_operation_xyz
x,y,z
-x,-y,z
x,-y,-z
-x,y,-z
-x,-y,-z
x,y,-z
-x,y,z
x,-y,z
x,1/2+y,1/2+z
-x,1/2-y,1/2+z
x,1/2-y,1/2-z
-x,1/2+y,1/2-z
-x,1/2-y,1/2-z
x,1/2+y,1/2-z
-x,1/2+y,1/2+z
x,1/2-y,1/2+z
1/2+x,y,1/2+z
1/2-x,-y,1/2+z
1/2+x,-y,1/2-z
1/2-x,y,1/2-z
1/2-x,-y,1/2-z
1/2+x,y,1/2-z
1/2-x,y,1/2+z
1/2+x,-y,1/2+z
1/2+x,1/2+y,z
1/2-x,1/2-y,z
1/2+x,1/2-y,-z
1/2-x,1/2+y,-z
1/2-x,1/2-y,-z
1/2+x,1/2+y,-z
1/2-x,1/2+y,z
1/2+x,1/2-y,z
loop_
_atom_site_type_symbol
_atom_site_label
_atom_site_fract_x
_atom_site_fract_y
_atom_site_fract_z
Si Si1 0.723654 0.924437 0.000000
Si Si2 0.708670 0.924094 0.605153
Si Si3 0.107358 0.921239 0.334798
Si Si4 0.854576 0.719259 0.798640
Si Si5 0.099771 0.787695 0.500000
Si Si6 0.855129 0.276423 0.398096
O O1 0.784259 0.924611 0.047721
O O2 0.669529 0.852046 0.000000
O O3 0.672288 0.000000 0.000000
O O4 0.814462 0.914354 0.623755
O O5 0.648703 0.857041 0.616352
O O6 0.677744 0.000000 0.622491
O O7 0.137313 0.863272 0.296719
O O8 0.000000 0.911151 0.349682
O O9 0.113998 0.000000 0.316847
O O10 0.895910 0.750000 0.750000
O O11 0.750000 0.750000 0.800436
O O12 0.895299 0.738210 0.851127
O O13 0.107177 0.742455 0.450988
O O14 0.000000 0.821403 0.500000
O O15 0.750000 0.250000 0.402296
#
# Coordination Sequence:
#
# PCOD9511504 Si02
#       6
#    16  32  32  32  16  32
#     4  10  19  30  46  73 110 142 173 214 270 336
#     4  10  19  33  54  80 107 145 186 224 279 340
#     4  10  20  35  55  81 114 147 182 232 294 346
#     4  10  20  36  56  84 115 152 197 237 275 334
#     4  12  24  35  56  85 112 144 188 232 279 332
#     4  11  19  37  58  78 111 151 185 232 274 334
#
# _framework density 20.584206999999999
#
# number of rings (size 3 to 8) (size 9 to 14) (size 15 to 20)
#    0.000    1.600    6.000    0.900    0.000    3.800 
#    0.000    5.000    0.000    1.200    0.000    0.000 
#    0.000    0.000    0.000    0.000    0.000    0.000 
#
# Total GULP energy -222747.128174 kJ/mol
# GULP energy per Si atom -5568.678204 kJ/mol
# Density = 2.053736 g / cm^3
# Si number density = 20.584207 Si / 1000 Ang^3
#
#
#
# Elastic Constant Matrix: (Units=GPa)
#
#
# Indices 1 2 3 4 5 6 
#
# 1 41.7466 15.2585 4.1748 0.0000 0.0000 0.0000
# 2 15.2585 165.2605 29.1500 0.0000 0.0000 0.0000
# 3 4.1748 29.1500 115.7955 0.0000 0.0000 0.0000
# 4 0.0000 0.0000 0.0000 13.0949 0.0000 0.0000
# 5 0.0000 0.0000 0.0000 0.0000 -36.3849 0.0000
# 6 0.0000 0.0000 0.0000 0.0000 0.0000 322.6996
#
#
#
# Elastic Compliance Matrix: (Units=1/GPa)
#
#
# Indices 1 2 3 4 5 6 
#
# 1 0.024803 -0.002231 -0.000332 0.000000 0.000000 0.000000
# 2 -0.002231 0.006533 -0.001564 0.000000 0.000000 0.000000
# 3 -0.000332 -0.001564 0.009042 0.000000 0.000000 0.000000
# 4 0.000000 0.000000 0.000000 0.076366 0.000000 0.000000
# 5 0.000000 0.000000 0.000000 0.000000 -0.027484 0.000000
# 6 0.000000 0.000000 0.000000 0.000000 0.000000 0.003099
#
#
# Mechanical properties :
#
#
# Convention : Reuss Voigt Hill
#
# Bulk Modulus (GPa) = 31.13185 46.66323 38.89754
# Shear Modulus (GPa) = 44.91498 78.16320 61.53909
#
# Velocity S-wave (km/s) = 4.67627 6.16886 5.47368
# Velocity P-wave (km/s) = 6.65685 8.57079 7.67372
#
# Compressibility (1/GPa) = 0.03212144
#
# Stress axis : x y z
#
# Youngs Moduli (GPa) = 40.31791 153.06963 110.59922
#
# Poissons Ratio (x) = 0.34156 0.03677
# Poissons Ratio (y) = 0.08997 0.17299
# Poissons Ratio (z) = 0.01341 0.23942
#
# Static dielectric constant tensor:
#      x y z
#    x 1.746650 0.000000 0.000000 
#    y 0.000000 1.828040 0.000000 
#    z 0.000000 0.000000 1.762410 
# 
# From -- ./inp_files/45683.got.cif
#   From: 2010.05.17/outbox.cif.g08.bks.cpg/sg69_23_cif.got.tgz:45683.got - 2010.06.03 19:29:58.
