data_PCOD9511401
_publ_section_title
;
Structure prediction by ZEFSAII (Michael W. Deem and Ramdas Pophale) SiO2 
 PCOD9511401
Probable space group: F M M M
;
_chemical_formula_sum "Si O2"
_cell_formula_units_Z 192
_cell_length_a 16.793041
_cell_length_b 18.094547
_cell_length_c 30.244872
_cell_angle_alpha 90.000000
_cell_angle_beta 90.000000
_cell_angle_gamma 90.000000
_cell_volume 9190.281500
_symmetry_space_group_name_H-M "F M M M"
_symmetry_group_IT_number 69
_symmetry_cell_setting 'orthorhombic'
loop_
_space_group_symop_operation_xyz
x,y,z
-x,-y,z
x,-y,-z
-x,y,-z
-x,-y,-z
x,y,-z
-x,y,z
x,-y,z
x,1/2+y,1/2+z
-x,1/2-y,1/2+z
x,1/2-y,1/2-z
-x,1/2+y,1/2-z
-x,1/2-y,1/2-z
x,1/2+y,1/2-z
-x,1/2+y,1/2+z
x,1/2-y,1/2+z
1/2+x,y,1/2+z
1/2-x,-y,1/2+z
1/2+x,-y,1/2-z
1/2-x,y,1/2-z
1/2-x,-y,1/2-z
1/2+x,y,1/2-z
1/2-x,y,1/2+z
1/2+x,-y,1/2+z
1/2+x,1/2+y,z
1/2-x,1/2-y,z
1/2+x,1/2-y,-z
1/2-x,1/2+y,-z
1/2-x,1/2-y,-z
1/2+x,1/2+y,-z
1/2-x,1/2+y,z
1/2+x,1/2-y,z
loop_
_atom_site_type_symbol
_atom_site_label
_atom_site_fract_x
_atom_site_fract_y
_atom_site_fract_z
Si Si1 0.657817 0.226986 0.668696
Si Si2 0.908079 0.878814 0.311592
Si Si3 0.810276 0.688236 0.424656
Si Si4 0.096706 0.082046 0.215091
Si Si5 0.167636 0.586614 0.094708
Si Si6 0.356363 0.584006 0.500000
Si Si7 0.161139 0.913616 0.000000
O O1 0.750000 0.250000 0.675457
O O2 0.605516 0.290869 0.690494
O O3 0.643717 0.225798 0.615699
O O4 0.637070 0.147849 0.688396
O O5 0.875487 0.912320 0.266168
O O6 0.873638 0.904248 0.358375
O O7 0.000000 0.898122 0.312377
O O8 0.750000 0.750000 0.445237
O O9 0.749782 0.630400 0.402184
O O10 0.859553 0.638100 0.458281
O O11 0.000000 0.091540 0.214015
O O12 0.114769 0.000000 0.197869
O O13 0.182591 0.500000 0.086885
O O14 0.124124 0.614482 0.049130
O O15 0.386988 0.500000 0.500000
O O16 0.258882 0.584771 0.500000
O O17 0.135685 0.000000 0.000000
#
# Coordination Sequence:
#
# PCOD9511401 Si02
#       7
#    32  32  32  32  32  16  16
#     4  11  22  40  58  88 119 148 188 241 298 348
#     4  11  22  39  59  81 113 153 192 232 285 350
#     4  10  18  33  52  81 116 149 187 230 281 341
#     4  10  23  42  63  85 110 152 204 246 290 349
#     4  10  18  33  54  80 112 147 185 229 278 334
#     4   7  14  27  48  74 104 140 178 218 268 326
#     4   9  17  29  51  81 112 150 189 229 279 334
#
# _framework density 20.891632999999999
#
# number of rings (size 3 to 8) (size 9 to 14) (size 15 to 20)
#    0.000    2.000    3.333    3.250    0.000    5.000 
#    0.000    1.250    0.000    1.500    0.000    1.750 
#    0.000    4.000    0.000    0.000    0.000    0.000 
#
# Total GULP energy -267557.502220 kJ/mol
# GULP energy per Si atom -5574.114630 kJ/mol
# Density = 2.084408 g / cm^3
# Si number density = 20.891633 Si / 1000 Ang^3
#
#
#
# Elastic Constant Matrix: (Units=GPa)
#
#
# Indices 1 2 3 4 5 6 
#
# 1 7.6220 4.4191 8.2835 0.0000 0.0000 0.0000
# 2 4.4191 127.0867 23.8030 0.0000 0.0000 0.0000
# 3 8.2835 23.8030 79.4809 0.0000 0.0000 0.0000
# 4 0.0000 0.0000 0.0000 -14.1208 0.0000 0.0000
# 5 0.0000 0.0000 0.0000 0.0000 37.9272 0.0000
# 6 0.0000 0.0000 0.0000 0.0000 0.0000 17.2409
#
#
#
# Elastic Compliance Matrix: (Units=1/GPa)
#
#
# Indices 1 2 3 4 5 6 
#
# 1 0.148646 -0.002402 -0.014772 0.000000 0.000000 0.000000
# 2 -0.002402 0.008375 -0.002258 0.000000 0.000000 0.000000
# 3 -0.014772 -0.002258 0.014797 0.000000 0.000000 0.000000
# 4 0.000000 0.000000 0.000000 -0.070817 0.000000 0.000000
# 5 0.000000 0.000000 0.000000 0.000000 0.026366 0.000000
# 6 0.000000 0.000000 0.000000 0.000000 0.000000 0.058002
#
#
# Mechanical properties :
#
#
# Convention : Reuss Voigt Hill
#
# Bulk Modulus (GPa) = 7.52140 31.91121 19.71631
# Shear Modulus (GPa) = 18.61841 20.05506 19.33673
#
# Velocity S-wave (km/s) = 2.98852 3.10168 3.04562
# Velocity P-wave (km/s) = 3.93908 5.30424 4.67180
#
# Compressibility (1/GPa) = 0.13295389
#
# Stress axis : x y z
#
# Youngs Moduli (GPa) = 6.72739 119.40217 67.57948
#
# Poissons Ratio (x) = 0.28680 0.99832
# Poissons Ratio (y) = 0.01616 0.15258
# Poissons Ratio (z) = 0.09938 0.26959
#
# Static dielectric constant tensor:
#      x y z
#    x 1.736600 0.000000 0.000000 
#    y 0.000000 1.787260 0.000000 
#    z 0.000000 0.000000 1.837080 
# 
# From -- ./inp_files/46445.got.cif
#   From: 2010.05.17/outbox.cif.g08.bks.cpg/sg69_24_cif.got.tgz:46445.got - 2010.06.03 19:29:58.
