data_PCOD9511187
_publ_section_title
;
Structure prediction by ZEFSAII (Michael W. Deem and Ramdas Pophale) SiO2 
 PCOD9511187
Probable space group: F M M M
;
_chemical_formula_sum "Si O2"
_cell_formula_units_Z 144
_cell_length_a 19.368309
_cell_length_b 28.600163
_cell_length_c 16.890175
_cell_angle_alpha 90.000000
_cell_angle_beta 90.000000
_cell_angle_gamma 90.000000
_cell_volume 9356.089397
_symmetry_space_group_name_H-M "F M M M"
_symmetry_group_IT_number 69
_symmetry_cell_setting 'orthorhombic'
loop_
_space_group_symop_operation_xyz
x,y,z
-x,-y,z
x,-y,-z
-x,y,-z
-x,-y,-z
x,y,-z
-x,y,z
x,-y,z
x,1/2+y,1/2+z
-x,1/2-y,1/2+z
x,1/2-y,1/2-z
-x,1/2+y,1/2-z
-x,1/2-y,1/2-z
x,1/2+y,1/2-z
-x,1/2+y,1/2+z
x,1/2-y,1/2+z
1/2+x,y,1/2+z
1/2-x,-y,1/2+z
1/2+x,-y,1/2-z
1/2-x,y,1/2-z
1/2-x,-y,1/2-z
1/2+x,y,1/2-z
1/2-x,y,1/2+z
1/2+x,-y,1/2+z
1/2+x,1/2+y,z
1/2-x,1/2-y,z
1/2+x,1/2-y,-z
1/2-x,1/2+y,-z
1/2-x,1/2-y,-z
1/2+x,1/2+y,-z
1/2-x,1/2+y,z
1/2+x,1/2-y,z
loop_
_atom_site_type_symbol
_atom_site_label
_atom_site_fract_x
_atom_site_fract_y
_atom_site_fract_z
Si Si1 0.862172 0.100279 0.595996
Si Si2 0.500000 0.153622 0.094462
Si Si3 0.355293 0.233988 0.593255
Si Si4 0.581051 0.500000 0.403903
Si Si5 0.500000 0.258220 0.843151
Si Si6 0.729627 0.820549 0.841888
O O1 0.856018 0.102694 0.500000
O O2 0.799447 0.129038 0.633682
O O3 0.931175 0.127885 0.621687
O O4 0.877486 0.046735 0.618677
O O5 0.500000 0.207228 0.117129
O O6 0.500000 0.149736 0.000000
O O7 0.361371 0.244176 0.500000
O O8 0.428804 0.218869 0.628303
O O9 0.327783 0.280962 0.636953
O O10 0.296507 0.195575 0.608646
O O11 0.500000 0.500000 0.377681
O O12 0.577449 0.500000 0.500000
O O13 0.500000 0.250000 0.750000
O O14 0.750000 0.818061 0.750000
#
# Coordination Sequence:
#
# PCOD9511187 Si02
#       6
#    32  16  32  16  16  32
#     4  10  18  31  51  74 102 129 160 199 251 306
#     4  10  18  29  50  74  99 130 163 196 244 301
#     4  11  21  34  50  68  95 132 174 206 243 290
#     4   9  16  28  49  80 104 121 153 204 249 299
#     4  12  22  32  47  73 102 129 163 207 245 288
#     4  11  21  33  47  69  98 133 167 205 244 291
#
# _framework density 15.391045999999999
#
# number of rings (size 3 to 8) (size 9 to 14) (size 15 to 20)
#    0.000    1.444    3.333    6.333    0.000    0.000 
#    0.000    0.556    0.000    0.000    0.000    0.000 
#    0.000    0.000    0.000    6.333    0.000    0.889 
#
# Total GULP energy -200803.991770 kJ/mol
# GULP energy per Si atom -5577.888660 kJ/mol
# Density = 1.535602 g / cm^3
# Si number density = 15.391046 Si / 1000 Ang^3
#
#
#
# Elastic Constant Matrix: (Units=GPa)
#
#
# Indices 1 2 3 4 5 6 
#
# 1 105.6549 39.3769 28.8324 0.0000 0.0000 0.0000
# 2 39.3769 81.3788 2.3471 0.0000 0.0000 0.0000
# 3 28.8324 2.3471 67.0441 0.0000 0.0000 0.0000
# 4 0.0000 0.0000 0.0000 -1.3134 0.0000 0.0000
# 5 0.0000 0.0000 0.0000 0.0000 21.7730 0.0000
# 6 0.0000 0.0000 0.0000 0.0000 0.0000 24.8387
#
#
#
# Elastic Compliance Matrix: (Units=1/GPa)
#
#
# Indices 1 2 3 4 5 6 
#
# 1 0.013307 -0.006280 -0.005503 0.000000 0.000000 0.000000
# 2 -0.006280 0.015265 0.002166 0.000000 0.000000 0.000000
# 3 -0.005503 0.002166 0.017206 0.000000 0.000000 0.000000
# 4 0.000000 0.000000 0.000000 -0.761354 0.000000 0.000000
# 5 0.000000 0.000000 0.000000 0.000000 0.045929 0.000000
# 6 0.000000 0.000000 0.000000 0.000000 0.000000 0.040260
#
#
# Mechanical properties :
#
#
# Convention : Reuss Voigt Hill
#
# Bulk Modulus (GPa) = 37.67251 43.91007 40.79129
# Shear Modulus (GPa) = -8.31523 21.29439 6.48958
#
# Velocity S-wave (km/s) = -2.32688 3.72365 2.05563
# Velocity P-wave (km/s) = 4.16063 6.86142 5.67406
#
# Compressibility (1/GPa) = 0.02654455
#
# Stress axis : x y z
#
# Youngs Moduli (GPa) = 75.14804 65.51126 58.11850
#
# Poissons Ratio (x) = 0.41142 0.31982
# Poissons Ratio (y) = 0.47195 -0.12591
# Poissons Ratio (z) = 0.41353 -0.14193
#
# Static dielectric constant tensor:
#      x y z
#    x 1.545870 0.000000 0.000000 
#    y 0.000000 1.510390 0.000000 
#    z 0.000000 0.000000 1.510510 
# 
# From -- ./inp_files/15626.got.cif
#   From: 2010.05.17/outbox.cif.g08.bks.cpg/sg69_8_cif.got.tgz:15626.got - 2010.06.03 19:29:58.
