data_PCOD9511736
_publ_section_title
;
Structure prediction by ZEFSAII (Michael W. Deem and Ramdas Pophale) SiO2 
 PCOD9511736
Probable space group: F M M M
;
_chemical_formula_sum "Si O2"
_cell_formula_units_Z 128
_cell_length_a 18.055437
_cell_length_b 21.099261
_cell_length_c 17.825323
_cell_angle_alpha 90.000000
_cell_angle_beta 90.000000
_cell_angle_gamma 90.000000
_cell_volume 6790.670482
_symmetry_space_group_name_H-M "F M M M"
_symmetry_group_IT_number 69
_symmetry_cell_setting 'orthorhombic'
loop_
_space_group_symop_operation_xyz
x,y,z
-x,-y,z
x,-y,-z
-x,y,-z
-x,-y,-z
x,y,-z
-x,y,z
x,-y,z
x,1/2+y,1/2+z
-x,1/2-y,1/2+z
x,1/2-y,1/2-z
-x,1/2+y,1/2-z
-x,1/2-y,1/2-z
x,1/2+y,1/2-z
-x,1/2+y,1/2+z
x,1/2-y,1/2+z
1/2+x,y,1/2+z
1/2-x,-y,1/2+z
1/2+x,-y,1/2-z
1/2-x,y,1/2-z
1/2-x,-y,1/2-z
1/2+x,y,1/2-z
1/2-x,y,1/2+z
1/2+x,-y,1/2+z
1/2+x,1/2+y,z
1/2-x,1/2-y,z
1/2+x,1/2-y,-z
1/2-x,1/2+y,-z
1/2-x,1/2-y,-z
1/2+x,1/2+y,-z
1/2-x,1/2+y,z
1/2+x,1/2-y,z
loop_
_atom_site_type_symbol
_atom_site_label
_atom_site_fract_x
_atom_site_fract_y
_atom_site_fract_z
Si Si1 0.340446 0.000000 0.587546
Si Si2 0.916920 0.872751 0.145042
Si Si3 0.196373 0.500000 0.825253
Si Si4 0.584865 0.618012 0.325013
Si Si5 0.164120 0.253601 0.158354
O O1 0.375254 0.063504 0.622220
O O2 0.354680 0.000000 0.500000
O O3 0.254237 0.000000 0.607311
O O4 0.920815 0.871784 0.235398
O O5 0.876045 0.807820 0.124956
O O6 0.000000 0.874239 0.114593
O O7 0.250000 0.500000 0.750000
O O8 0.142581 0.560403 0.830923
O O9 0.500000 0.606352 0.351574
O O10 0.621355 0.681318 0.359706
O O11 0.162899 0.250000 0.250000
O O12 0.250000 0.250000 0.136238
#
# Coordination Sequence:
#
# PCOD9511736 Si02
#       5
#    16  32  16  32  32
#     4  12  25  38  55  82 117 158 198 237 287 351
#     4  10  19  33  52  80 116 152 189 234 286 346
#     4  12  21  35  59  81 113 150 190 246 290 341
#     4  10  19  32  55  87 115 145 187 240 299 342
#     4   9  17  28  50  80 117 149 184 232 286 342
#
# _framework density 18.84939
#
# number of rings (size 3 to 8) (size 9 to 14) (size 15 to 20)
#    0.000    1.750    2.500    3.000    3.500    6.000 
#    0.000    0.000    0.000    8.250    0.000    0.000 
#    0.000    0.000    0.000    0.000    0.000    0.000 
#
# Total GULP energy -178455.709708 kJ/mol
# GULP energy per Si atom -5576.740928 kJ/mol
# Density = 1.880649 g / cm^3
# Si number density = 18.849390 Si / 1000 Ang^3
#
#
#
# Elastic Constant Matrix: (Units=GPa)
#
#
# Indices 1 2 3 4 5 6 
#
# 1 197.5665 118.3112 4.7012 0.0000 0.0000 0.0000
# 2 118.3112 204.7505 9.7806 0.0000 0.0000 0.0000
# 3 4.7012 9.7806 8.9070 0.0000 0.0000 0.0000
# 4 0.0000 0.0000 0.0000 -2.5047 0.0000 0.0000
# 5 0.0000 0.0000 0.0000 0.0000 1.3608 0.0000
# 6 0.0000 0.0000 0.0000 0.0000 0.0000 74.2942
#
#
#
# Elastic Compliance Matrix: (Units=1/GPa)
#
#
# Indices 1 2 3 4 5 6 
#
# 1 0.007746 -0.004518 0.000872 0.000000 0.000000 0.000000
# 2 -0.004518 0.007789 -0.006169 0.000000 0.000000 0.000000
# 3 0.000872 -0.006169 0.118584 0.000000 0.000000 0.000000
# 4 0.000000 0.000000 0.000000 -0.399244 0.000000 0.000000
# 5 0.000000 0.000000 0.000000 0.000000 0.734843 0.000000
# 6 0.000000 0.000000 0.000000 0.000000 0.000000 0.013460
#
#
# Mechanical properties :
#
#
# Convention : Reuss Voigt Hill
#
# Bulk Modulus (GPa) = 8.73430 75.20112 41.96771
# Shear Modulus (GPa) = 9.24265 33.19213 21.21739
#
# Velocity S-wave (km/s) = 2.21677 4.20088 3.35868
# Velocity P-wave (km/s) = 3.34602 7.96945 6.11180
#
# Compressibility (1/GPa) = 0.11449114
#
# Stress axis : x y z
#
# Youngs Moduli (GPa) = 129.09564 128.38460 8.43285
#
# Poissons Ratio (x) = 0.58000 -0.00736
# Poissons Ratio (y) = 0.58321 0.05202
# Poissons Ratio (z) = -0.11260 0.79195
#
# Static dielectric constant tensor:
#      x y z
#    x 1.668680 0.000000 0.000000 
#    y 0.000000 1.785680 0.000000 
#    z 0.000000 0.000000 1.637760 
# 
# From -- ./inp_files/16364.got.cif
#   From: 2010.05.17/outbox.cif.g08.bks.cpg/sg69_9_cif.got.tgz:16364.got - 2010.06.03 19:29:58.
