data_PCOD9511959
_publ_section_title
;
Structure prediction by ZEFSAII (Michael W. Deem and Ramdas Pophale) SiO2 
 PCOD9511959
Probable space group: F M M M
;
_chemical_formula_sum "Si O2"
_cell_formula_units_Z 176
_cell_length_a 17.132090
_cell_length_b 29.679475
_cell_length_c 18.935100
_cell_angle_alpha 90.000000
_cell_angle_beta 90.000000
_cell_angle_gamma 90.000000
_cell_volume 9627.957504
_symmetry_space_group_name_H-M "F M M M"
_symmetry_group_IT_number 69
_symmetry_cell_setting 'orthorhombic'
loop_
_space_group_symop_operation_xyz
x,y,z
-x,-y,z
x,-y,-z
-x,y,-z
-x,-y,-z
x,y,-z
-x,y,z
x,-y,z
x,1/2+y,1/2+z
-x,1/2-y,1/2+z
x,1/2-y,1/2-z
-x,1/2+y,1/2-z
-x,1/2-y,1/2-z
x,1/2+y,1/2-z
-x,1/2+y,1/2+z
x,1/2-y,1/2+z
1/2+x,y,1/2+z
1/2-x,-y,1/2+z
1/2+x,-y,1/2-z
1/2-x,y,1/2-z
1/2-x,-y,1/2-z
1/2+x,y,1/2-z
1/2-x,y,1/2+z
1/2+x,-y,1/2+z
1/2+x,1/2+y,z
1/2-x,1/2-y,z
1/2+x,1/2-y,-z
1/2-x,1/2+y,-z
1/2-x,1/2-y,-z
1/2+x,1/2+y,-z
1/2-x,1/2+y,z
1/2+x,1/2-y,z
loop_
_atom_site_type_symbol
_atom_site_label
_atom_site_fract_x
_atom_site_fract_y
_atom_site_fract_z
Si Si1 0.088850 0.572315 0.000000
Si Si2 0.841161 0.134186 0.258391
Si Si3 0.091574 0.312693 0.368920
Si Si4 0.405850 0.050322 0.844619
Si Si5 0.587814 0.289067 0.653642
Si Si6 0.122017 0.823988 0.500000
Si Si7 0.792185 0.700296 0.500000
O O1 0.123815 0.557268 0.925243
O O2 0.086555 0.626423 0.000000
O O3 0.000000 0.554762 0.000000
O O4 0.750000 0.126674 0.250000
O O5 0.882613 0.148756 0.185504
O O6 0.877317 0.090516 0.295338
O O7 0.853429 0.177282 0.309222
O O8 0.097924 0.263594 0.331762
O O9 0.152539 0.308689 0.433083
O O10 0.000000 0.317494 0.389836
O O11 0.500000 0.053181 0.847057
O O12 0.384328 0.000000 0.820569
O O13 0.500000 0.302571 0.675096
O O14 0.596457 0.297123 0.569666
O O15 0.215342 0.830425 0.500000
O O16 0.750000 0.750000 0.500000
#
# Coordination Sequence:
#
# PCOD9511959 Si02
#       7
#    16  32  32  32  32  16  16
#     4  10  19  34  61  92 122 151 187 236 297 365
#     4  12  25  37  57  84 120 159 200 248 299 350
#     4  11  24  40  58  82 117 163 207 247 294 355
#     4  10  21  39  63  91 121 154 194 241 300 368
#     4  11  21  36  56  83 117 157 199 242 290 351
#     4  12  20  31  57  88 120 153 192 241 294 350
#     4  12  23  38  58  83 116 151 202 255 302 351
#
# _framework density 18.280097999999999
#
# number of rings (size 3 to 8) (size 9 to 14) (size 15 to 20)
#    0.000    0.909    3.636    4.636    0.000    5.091 
#    0.000    0.000    0.000    0.000    0.000    0.636 
#    0.000    2.909    0.000    0.000    0.000    0.000 
#
# Total GULP energy -245795.914425 kJ/mol
# GULP energy per Si atom -5586.270782 kJ/mol
# Density = 1.823849 g / cm^3
# Si number density = 18.280098 Si / 1000 Ang^3
#
#
#
# Elastic Constant Matrix: (Units=GPa)
#
#
# Indices 1 2 3 4 5 6 
#
# 1 99.9831 39.0237 36.4457 0.0000 0.0000 0.0000
# 2 39.0237 106.0095 45.2476 0.0000 0.0000 0.0000
# 3 36.4457 45.2476 99.9621 0.0000 0.0000 0.0000
# 4 0.0000 0.0000 0.0000 11.2308 0.0000 0.0000
# 5 0.0000 0.0000 0.0000 0.0000 26.1558 0.0000
# 6 0.0000 0.0000 0.0000 0.0000 0.0000 2.5213
#
#
#
# Elastic Compliance Matrix: (Units=1/GPa)
#
#
# Indices 1 2 3 4 5 6 
#
# 1 0.012382 -0.003261 -0.003038 0.000000 0.000000 0.000000
# 2 -0.003261 0.012551 -0.004492 0.000000 0.000000 0.000000
# 3 -0.003038 -0.004492 0.013145 0.000000 0.000000 0.000000
# 4 0.000000 0.000000 0.000000 0.089041 0.000000 0.000000
# 5 0.000000 0.000000 0.000000 0.000000 0.038232 0.000000
# 6 0.000000 0.000000 0.000000 0.000000 0.000000 0.396620
#
#
# Mechanical properties :
#
#
# Convention : Reuss Voigt Hill
#
# Bulk Modulus (GPa) = 60.62558 60.82095 60.72326
# Shear Modulus (GPa) = 8.48820 20.33075 14.40947
#
# Velocity S-wave (km/s) = 2.15720 3.33855 2.81064
# Velocity P-wave (km/s) = 6.28024 6.94299 6.61992
#
# Compressibility (1/GPa) = 0.01649469
#
# Stress axis : x y z
#
# Youngs Moduli (GPa) = 80.76205 79.67501 76.07520
#
# Poissons Ratio (x) = 0.25984 0.23114
# Poissons Ratio (y) = 0.26338 0.34174
# Poissons Ratio (z) = 0.24538 0.35791
#
# Static dielectric constant tensor:
#      x y z
#    x 1.633070 0.000000 0.000000 
#    y 0.000000 1.611660 0.000000 
#    z 0.000000 0.000000 1.675660 
# 
# From -- ./inp_files/23308.got.cif
#   From: 2010.05.17/outbox.cif.g08.bks.cpg/sg69_12_cif.got.tgz:23308.got - 2010.06.03 19:29:58.
