data_PCOD9511502
_publ_section_title
;
Structure prediction by ZEFSAII (Michael W. Deem and Ramdas Pophale) SiO2 
 PCOD9511502
Probable space group: F M M M
;
_chemical_formula_sum "Si O2"
_cell_formula_units_Z 144
_cell_length_a 33.446474
_cell_length_b 28.120186
_cell_length_c 9.826015
_cell_angle_alpha 90.000000
_cell_angle_beta 90.000000
_cell_angle_gamma 90.000000
_cell_volume 9241.574141
_symmetry_space_group_name_H-M "F M M M"
_symmetry_group_IT_number 69
_symmetry_cell_setting 'orthorhombic'
loop_
_space_group_symop_operation_xyz
x,y,z
-x,-y,z
x,-y,-z
-x,y,-z
-x,-y,-z
x,y,-z
-x,y,z
x,-y,z
x,1/2+y,1/2+z
-x,1/2-y,1/2+z
x,1/2-y,1/2-z
-x,1/2+y,1/2-z
-x,1/2-y,1/2-z
x,1/2+y,1/2-z
-x,1/2+y,1/2+z
x,1/2-y,1/2+z
1/2+x,y,1/2+z
1/2-x,-y,1/2+z
1/2+x,-y,1/2-z
1/2-x,y,1/2-z
1/2-x,-y,1/2-z
1/2+x,y,1/2-z
1/2-x,y,1/2+z
1/2+x,-y,1/2+z
1/2+x,1/2+y,z
1/2-x,1/2-y,z
1/2+x,1/2-y,-z
1/2-x,1/2+y,-z
1/2-x,1/2-y,-z
1/2+x,1/2+y,-z
1/2-x,1/2+y,z
1/2+x,1/2-y,z
loop_
_atom_site_type_symbol
_atom_site_label
_atom_site_fract_x
_atom_site_fract_y
_atom_site_fract_z
Si Si1 0.687750 0.057441 0.500000
Si Si2 0.000000 0.946729 0.335658
Si Si3 0.575374 0.117520 0.157903
Si Si4 0.452346 0.202202 0.338358
Si Si5 0.221649 0.442756 0.000000
Si Si6 0.346262 0.557287 0.288500
O O1 0.733313 0.076245 0.500000
O O2 0.663407 0.069597 0.366221
O O3 0.691022 0.000000 0.500000
O O4 0.039612 0.917912 0.300172
O O5 0.000000 0.949913 0.500000
O O6 0.000000 0.000000 0.279688
O O7 0.572525 0.161147 0.262226
O O8 0.616191 0.087615 0.162898
O O9 0.568481 0.132913 0.000000
O O10 0.443222 0.207457 0.500000
O O11 0.500000 0.190665 0.328588
O O12 0.446367 0.250000 0.250000
O O13 0.194007 0.430922 0.128421
O O14 0.225154 0.500000 0.000000
O O15 0.353456 0.500000 0.303865
#
# Coordination Sequence:
#
# PCOD9511502 Si02
#       6
#    16  16  32  32  16  32
#     4   9  18  30  46  67  96 135 174 215 262 303
#     4   9  18  30  46  67  96 139 180 209 232 277
#     4  11  20  32  50  73 102 135 175 210 248 294
#     4  10  21  37  57  77  99 126 164 211 262 308
#     4   9  16  30  48  67  94 133 178 215 254 299
#     4  10  19  30  46  71 103 139 175 215 251 292
#
# _framework density 15.581761
#
# number of rings (size 3 to 8) (size 9 to 14) (size 15 to 20)
#    0.000    2.111    2.222    2.000    1.556    4.444 
#    0.000    0.000    0.000    0.667    0.000    0.000 
#    0.000    5.333    0.000    0.000    0.000    0.000 
#
# Total GULP energy -200573.107334 kJ/mol
# GULP energy per Si atom -5571.475204 kJ/mol
# Density = 1.554630 g / cm^3
# Si number density = 15.581761 Si / 1000 Ang^3
#
#
#
# Elastic Constant Matrix: (Units=GPa)
#
#
# Indices 1 2 3 4 5 6 
#
# 1 63.7865 24.8567 15.9767 0.0004 -0.0004 0.0001
# 2 24.8567 64.7551 33.7123 0.0009 -0.0002 -0.0002
# 3 15.9767 33.7123 109.5572 0.0025 -0.0008 -0.0003
# 4 0.0004 0.0009 0.0025 20.7756 -0.0004 -0.0002
# 5 -0.0004 -0.0002 -0.0008 -0.0004 45.7728 0.0004
# 6 0.0001 -0.0002 -0.0003 -0.0002 0.0004 3.6476
#
#
#
# Elastic Compliance Matrix: (Units=1/GPa)
#
#
# Indices 1 2 3 4 5 6 
#
# 1 0.018469 -0.006772 -0.000609 0.000000 0.000000 -0.000001
# 2 -0.006772 0.020872 -0.005435 0.000000 0.000000 0.000001
# 3 -0.000609 -0.005435 0.010889 -0.000001 0.000000 0.000001
# 4 0.000000 0.000000 -0.000001 0.048133 0.000000 0.000003
# 5 0.000000 0.000000 0.000000 0.000000 0.021847 -0.000002
# 6 -0.000001 0.000001 0.000001 0.000003 -0.000002 0.274149
#
#
# Mechanical properties :
#
#
# Convention : Reuss Voigt Hill
#
# Bulk Modulus (GPa) = 40.65602 43.02114 41.83858
# Shear Modulus (GPa) = 11.67702 24.94274 18.30988
#
# Velocity S-wave (km/s) = 2.74049 4.00530 3.43167
# Velocity P-wave (km/s) = 6.01352 7.00427 6.52772
#
# Compressibility (1/GPa) = 0.02459661
#
# Stress axis : x y z
#
# Youngs Moduli (GPa) = 54.14490 47.91144 91.83628
#
# Poissons Ratio (x) = 0.32446 0.05597
# Poissons Ratio (y) = 0.36668 0.49913
# Poissons Ratio (z) = 0.03300 0.26040
#
# Static dielectric constant tensor:
#      x y z
#    x 1.508760 0.000000 0.000000 
#    y 0.000000 1.503980 0.000000 
#    z 0.000000 0.000000 1.553280 
# 
# From -- ./inp_files/5663.got.cif
#   From: 2010.05.17/outbox.cif.g08.bks.cpg/sg69_3_cif.got.tgz:5663.got - 2010.06.03 19:29:58.
