data_PCOD9511367
_publ_section_title
;
Structure prediction by ZEFSAII (Michael W. Deem and Ramdas Pophale) SiO2 
 PCOD9511367
Probable space group: F M M M
;
_chemical_formula_sum "Si O2"
_cell_formula_units_Z 136
_cell_length_a 14.679677
_cell_length_b 20.655675
_cell_length_c 19.223541
_cell_angle_alpha 90.000000
_cell_angle_beta 90.000000
_cell_angle_gamma 90.000000
_cell_volume 5828.935905
_symmetry_space_group_name_H-M "F M M M"
_symmetry_group_IT_number 69
_symmetry_cell_setting 'orthorhombic'
loop_
_space_group_symop_operation_xyz
x,y,z
-x,-y,z
x,-y,-z
-x,y,-z
-x,-y,-z
x,y,-z
-x,y,z
x,-y,z
x,1/2+y,1/2+z
-x,1/2-y,1/2+z
x,1/2-y,1/2-z
-x,1/2+y,1/2-z
-x,1/2-y,1/2-z
x,1/2+y,1/2-z
-x,1/2+y,1/2+z
x,1/2-y,1/2+z
1/2+x,y,1/2+z
1/2-x,-y,1/2+z
1/2+x,-y,1/2-z
1/2-x,y,1/2-z
1/2-x,-y,1/2-z
1/2+x,y,1/2-z
1/2-x,y,1/2+z
1/2+x,-y,1/2+z
1/2+x,1/2+y,z
1/2-x,1/2-y,z
1/2+x,1/2-y,-z
1/2-x,1/2+y,-z
1/2-x,1/2-y,-z
1/2+x,1/2+y,-z
1/2-x,1/2+y,z
1/2+x,1/2-y,z
loop_
_atom_site_type_symbol
_atom_site_label
_atom_site_fract_x
_atom_site_fract_y
_atom_site_fract_z
Si Si1 0.350738 0.500000 0.077250
Si Si2 0.896592 0.500000 0.147713
Si Si3 0.336585 0.500000 0.500000
Si Si4 0.888126 0.362217 0.800463
Si Si5 0.611351 0.732511 0.423551
Si Si6 0.609185 0.637676 0.856381
O O1 0.372207 0.565411 0.118005
O O2 0.395735 0.500000 0.000000
O O3 0.244569 0.500000 0.059430
O O4 0.856355 0.566707 0.176524
O O5 0.000000 0.500000 0.177462
O O6 0.906275 0.500000 0.064644
O O7 0.858692 0.312100 0.859749
O O8 0.857903 0.348917 0.721916
O O9 0.000000 0.360151 0.800917
O O10 0.641458 0.709860 0.500000
O O11 0.500000 0.730700 0.424287
O O12 0.640894 0.806097 0.408563
O O13 0.500000 0.644030 0.853864
#
# Coordination Sequence:
#
# PCOD9511367 Si02
#       6
#    16  16   8  32  32  32
#     4  10  22  36  53  76 113 145 191 230 268 323
#     4  10  20  37  62  84 104 133 179 231 286 346
#     4  10  25  40  53  80 114 142 178 230 293 330
#     4   9  18  31  53  86 115 140 180 233 282 324
#     4   9  17  28  47  81 120 150 181 226 279 324
#     4  10  18  32  54  82 117 155 188 224 267 320
#
# _framework density 23.331875
#
# number of rings (size 3 to 8) (size 9 to 14) (size 15 to 20)
#    0.353    2.118    0.000    2.647    1.647    6.588 
#    0.000    2.353    0.000    2.824    0.000    3.294 
#    0.000    0.000    0.000    0.000    0.000    0.000 
#
# Total GULP energy -189445.960685 kJ/mol
# GULP energy per Si atom -5571.940020 kJ/mol
# Density = 2.327877 g / cm^3
# Si number density = 23.331875 Si / 1000 Ang^3
#
#
#
# Elastic Constant Matrix: (Units=GPa)
#
#
# Indices 1 2 3 4 5 6 
#
# 1 51.2018 -11.5725 7.1795 0.0000 0.0000 0.0000
# 2 -11.5725 123.2921 59.0414 0.0000 0.0000 0.0000
# 3 7.1795 59.0414 182.7092 0.0000 0.0000 0.0000
# 4 0.0000 0.0000 0.0000 11.8030 0.0000 0.0000
# 5 0.0000 0.0000 0.0000 0.0000 23.3434 0.0000
# 6 0.0000 0.0000 0.0000 0.0000 0.0000 -20.8199
#
#
#
# Elastic Compliance Matrix: (Units=1/GPa)
#
#
# Indices 1 2 3 4 5 6 
#
# 1 0.020380 0.002717 -0.001679 0.000000 0.000000 0.000000
# 2 0.002717 0.009958 -0.003325 0.000000 0.000000 0.000000
# 3 -0.001679 -0.003325 0.006613 0.000000 0.000000 0.000000
# 4 0.000000 0.000000 0.000000 0.084724 0.000000 0.000000
# 5 0.000000 0.000000 0.000000 0.000000 0.042839 0.000000
# 6 0.000000 0.000000 0.000000 0.000000 0.000000 -0.048031
#
#
# Mechanical properties :
#
#
# Convention : Reuss Voigt Hill
#
# Bulk Modulus (GPa) = 30.88487 51.83333 41.35910
# Shear Modulus (GPa) = 37.92224 23.03563 30.47893
#
# Velocity S-wave (km/s) = 4.03592 3.14555 3.61823
# Velocity P-wave (km/s) = 5.91474 5.95454 5.93467
#
# Compressibility (1/GPa) = 0.03237832
#
# Stress axis : x y z
#
# Youngs Moduli (GPa) = 49.06771 100.42296 151.20670
#
# Poissons Ratio (x) = -0.27283 0.25384
# Poissons Ratio (y) = -0.13331 0.50270
# Poissons Ratio (z) = 0.08237 0.33386
#
# Static dielectric constant tensor:
#      x y z
#    x 1.963520 0.000000 0.000000 
#    y 0.000000 1.861540 0.000000 
#    z 0.000000 0.000000 1.864390 
# 
# From -- ./inp_files/22631.got.cif
#   From: 2010.05.17/outbox.cif.g08.bks.cpg/sg69_12_cif.got.tgz:22631.got - 2010.06.03 19:29:58.
