data_PCOD9511484
_publ_section_title
;
Structure prediction by ZEFSAII (Michael W. Deem and Ramdas Pophale) SiO2 
 PCOD9511484
Probable space group: F M M M
;
_chemical_formula_sum "Si O2"
_cell_formula_units_Z 176
_cell_length_a 28.379697
_cell_length_b 17.830959
_cell_length_c 21.721083
_cell_angle_alpha 90.000000
_cell_angle_beta 90.000000
_cell_angle_gamma 90.000000
_cell_volume 10991.676319
_symmetry_space_group_name_H-M "F M M M"
_symmetry_group_IT_number 69
_symmetry_cell_setting 'orthorhombic'
loop_
_space_group_symop_operation_xyz
x,y,z
-x,-y,z
x,-y,-z
-x,y,-z
-x,-y,-z
x,y,-z
-x,y,z
x,-y,z
x,1/2+y,1/2+z
-x,1/2-y,1/2+z
x,1/2-y,1/2-z
-x,1/2+y,1/2-z
-x,1/2-y,1/2-z
x,1/2+y,1/2-z
-x,1/2+y,1/2+z
x,1/2-y,1/2+z
1/2+x,y,1/2+z
1/2-x,-y,1/2+z
1/2+x,-y,1/2-z
1/2-x,y,1/2-z
1/2-x,-y,1/2-z
1/2+x,y,1/2-z
1/2-x,y,1/2+z
1/2+x,-y,1/2+z
1/2+x,1/2+y,z
1/2-x,1/2-y,z
1/2+x,1/2-y,-z
1/2-x,1/2+y,-z
1/2-x,1/2-y,-z
1/2+x,1/2+y,-z
1/2-x,1/2+y,z
1/2+x,1/2-y,z
loop_
_atom_site_type_symbol
_atom_site_label
_atom_site_fract_x
_atom_site_fract_y
_atom_site_fract_z
Si Si1 0.894311 0.148255 0.122700
Si Si2 0.943967 0.409688 0.500000
Si Si3 0.700176 0.412779 0.832617
Si Si4 0.886505 0.203108 0.688243
Si Si5 0.307858 0.412284 0.315916
Si Si6 0.944312 0.084095 0.758523
O O1 0.917808 0.123005 0.059750
O O2 0.838310 0.133734 0.129948
O O3 0.902651 0.234876 0.139904
O O4 0.917921 0.099976 0.177543
O O5 0.939753 0.500000 0.500000
O O6 0.000000 0.391938 0.500000
O O7 0.694147 0.500000 0.849379
O O8 0.691195 0.407395 0.758951
O O9 0.755286 0.393776 0.839202
O O10 0.871294 0.250000 0.750000
O O11 0.845284 0.149456 0.663782
O O12 0.926995 0.147273 0.711647
O O13 0.317618 0.500000 0.331020
O O14 0.000000 0.088683 0.768178
O O15 0.932164 0.000000 0.737254
#
# Coordination Sequence:
#
# PCOD9511484 Si02
#       6
#    32  16  32  32  32  32
#     4  11  21  33  49  74 102 129 168 216 258 298
#     4  11  24  40  58  73  91 135 187 220 251 296
#     4   9  16  27  47  71 101 136 166 203 244 292
#     4  10  19  29  45  73 103 134 158 199 259 307
#     4   9  16  28  46  72 103 135 168 194 238 312
#     4  10  19  31  48  70  99 131 161 200 254 316
#
# _framework density 16.012115999999999
#
# number of rings (size 3 to 8) (size 9 to 14) (size 15 to 20)
#    0.000    2.091    3.636    3.818    0.000    6.182 
#    0.000    0.000    0.000    2.182    0.000    3.818 
#    0.000    4.364    0.000    0.000    0.000    0.000 
#
# Total GULP energy -245256.500090 kJ/mol
# GULP energy per Si atom -5574.011366 kJ/mol
# Density = 1.597567 g / cm^3
# Si number density = 16.012116 Si / 1000 Ang^3
#
#
#
# Elastic Constant Matrix: (Units=GPa)
#
#
# Indices 1 2 3 4 5 6 
#
# 1 91.9842 48.3130 36.3599 0.0000 0.0000 0.0000
# 2 48.3130 98.6494 31.3559 0.0000 0.0000 0.0000
# 3 36.3599 31.3559 56.7019 0.0000 0.0000 0.0000
# 4 0.0000 0.0000 0.0000 15.4513 0.0000 0.0000
# 5 0.0000 0.0000 0.0000 0.0000 17.0835 0.0000
# 6 0.0000 0.0000 0.0000 0.0000 0.0000 -7.3849
#
#
#
# Elastic Compliance Matrix: (Units=1/GPa)
#
#
# Indices 1 2 3 4 5 6 
#
# 1 0.016983 -0.005891 -0.007632 0.000000 0.000000 0.000000
# 2 -0.005891 0.014342 -0.004154 0.000000 0.000000 0.000000
# 3 -0.007632 -0.004154 0.024827 0.000000 0.000000 0.000000
# 4 0.000000 0.000000 0.000000 0.064719 0.000000 0.000000
# 5 0.000000 0.000000 0.000000 0.000000 0.058536 0.000000
# 6 0.000000 0.000000 0.000000 0.000000 0.000000 -0.135411
#
#
# Mechanical properties :
#
#
# Convention : Reuss Voigt Hill
#
# Bulk Modulus (GPa) = 48.08129 53.26591 50.67360
# Shear Modulus (GPa) = 57.94932 13.78377 35.86654
#
# Velocity S-wave (km/s) = 6.02242 2.93718 4.73796
# Velocity P-wave (km/s) = 8.85735 6.69634 7.85154
#
# Compressibility (1/GPa) = 0.02079811
#
# Stress axis : x y z
#
# Youngs Moduli (GPa) = 58.88396 69.72379 40.27861
#
# Poissons Ratio (x) = 0.41076 0.30741
# Poissons Ratio (y) = 0.34690 0.16730
# Poissons Ratio (z) = 0.44941 0.28960
#
# Static dielectric constant tensor:
#      x y z
#    x 1.563560 0.000000 0.000000 
#    y 0.000000 1.552860 0.000000 
#    z 0.000000 0.000000 1.506740 
# 
# From -- ./inp_files/38971.got.cif
#   From: 2010.05.17/outbox.cif.g08.bks.cpg/sg69_20_cif.got.tgz:38971.got - 2010.06.03 19:29:58.
