data_PCOD9511323
_publ_section_title
;
Structure prediction by ZEFSAII (Michael W. Deem and Ramdas Pophale) SiO2 
 PCOD9511323
Probable space group: F M M M
;
_chemical_formula_sum "Si O2"
_cell_formula_units_Z 192
_cell_length_a 18.084281
_cell_length_b 16.553344
_cell_length_c 31.861164
_cell_angle_alpha 90.000000
_cell_angle_beta 90.000000
_cell_angle_gamma 90.000000
_cell_volume 9537.809085
_symmetry_space_group_name_H-M "F M M M"
_symmetry_group_IT_number 69
_symmetry_cell_setting 'orthorhombic'
loop_
_space_group_symop_operation_xyz
x,y,z
-x,-y,z
x,-y,-z
-x,y,-z
-x,-y,-z
x,y,-z
-x,y,z
x,-y,z
x,1/2+y,1/2+z
-x,1/2-y,1/2+z
x,1/2-y,1/2-z
-x,1/2+y,1/2-z
-x,1/2-y,1/2-z
x,1/2+y,1/2-z
-x,1/2+y,1/2+z
x,1/2-y,1/2+z
1/2+x,y,1/2+z
1/2-x,-y,1/2+z
1/2+x,-y,1/2-z
1/2-x,y,1/2-z
1/2-x,-y,1/2-z
1/2+x,y,1/2-z
1/2-x,y,1/2+z
1/2+x,-y,1/2+z
1/2+x,1/2+y,z
1/2-x,1/2-y,z
1/2+x,1/2-y,-z
1/2-x,1/2+y,-z
1/2-x,1/2-y,-z
1/2+x,1/2+y,-z
1/2-x,1/2+y,z
1/2+x,1/2-y,z
loop_
_atom_site_type_symbol
_atom_site_label
_atom_site_fract_x
_atom_site_fract_y
_atom_site_fract_z
Si Si1 0.912245 0.346133 0.409877
Si Si2 0.777070 0.407667 0.633028
Si Si3 0.128004 0.664053 0.889326
Si Si4 0.587512 0.094714 0.798078
Si Si5 0.677544 0.591426 0.222055
Si Si6 0.911437 0.908094 0.000000
Si Si7 0.500000 0.596672 0.450628
O O1 0.857207 0.407758 0.387920
O O2 0.888328 0.258388 0.393969
O O3 0.894654 0.357689 0.458753
O O4 0.000000 0.358588 0.403011
O O5 0.750033 0.500000 0.637964
O O6 0.714348 0.360292 0.607041
O O7 0.794643 0.370208 0.678821
O O8 0.110173 0.635335 0.841801
O O9 0.072067 0.624288 0.923550
O O10 0.500000 0.096716 0.795930
O O11 0.619735 0.129655 0.754505
O O12 0.611266 0.000000 0.799667
O O13 0.650772 0.500000 0.210994
O O14 0.750000 0.584442 0.250000
O O15 0.000000 0.917209 0.000000
O O16 0.880493 0.000000 0.000000
O O17 0.500000 0.500000 0.451673
O O18 0.500000 0.625286 0.500000
#
# Coordination Sequence:
#
# PCOD9511323 Si02
#       7
#    32  32  32  32  32  16  16
#     4  11  24  42  66  93 127 167 209 263 330 393
#     4  11  23  40  65  94 129 167 217 274 323 383
#     4  12  22  39  63  93 131 170 214 259 329 393
#     4  10  18  31  57  89 122 166 220 265 314 386
#     4   9  17  32  56  86 117 157 211 267 311 360
#     4   9  20  42  71  94 118 163 222 266 308 380
#     4  11  24  40  64  96 133 176 220 266 321 387
#
# _framework density 20.130410000000001
#
# number of rings (size 3 to 8) (size 9 to 14) (size 15 to 20)
#    0.000    1.500    3.333    2.500    1.167    1.667 
#    1.500    3.333    0.000    2.000    0.000    0.000 
#    0.000    0.000    0.000    0.000    0.000    0.000 
#
# Total GULP energy -267531.515220 kJ/mol
# GULP energy per Si atom -5573.573234 kJ/mol
# Density = 2.008459 g / cm^3
# Si number density = 20.130410 Si / 1000 Ang^3
#
#
#
# Elastic Constant Matrix: (Units=GPa)
#
#
# Indices 1 2 3 4 5 6 
#
# 1 115.1543 33.0248 50.2524 0.0000 0.0000 0.0000
# 2 33.0248 52.0796 18.4635 0.0000 0.0000 0.0000
# 3 50.2524 18.4635 121.5046 0.0000 0.0000 0.0000
# 4 0.0000 0.0000 0.0000 -1.3761 0.0000 0.0000
# 5 0.0000 0.0000 0.0000 0.0000 31.3435 0.0000
# 6 0.0000 0.0000 0.0000 0.0000 0.0000 23.0934
#
#
#
# Elastic Compliance Matrix: (Units=1/GPa)
#
#
# Indices 1 2 3 4 5 6 
#
# 1 0.012302 -0.006339 -0.004125 0.000000 0.000000 0.000000
# 2 -0.006339 0.023561 -0.000959 0.000000 0.000000 0.000000
# 3 -0.004125 -0.000959 0.010082 0.000000 0.000000 0.000000
# 4 0.000000 0.000000 0.000000 -0.726680 0.000000 0.000000
# 5 0.000000 0.000000 0.000000 0.000000 0.031905 0.000000
# 6 0.000000 0.000000 0.000000 0.000000 0.000000 0.043302
#
#
# Mechanical properties :
#
#
# Convention : Reuss Voigt Hill
#
# Bulk Modulus (GPa) = 43.28928 54.69111 48.99020
# Shear Modulus (GPa) = -8.69587 23.07867 7.19140
#
# Velocity S-wave (km/s) = -2.08066 3.38961 1.89213
# Velocity P-wave (km/s) = 3.97227 6.52278 5.40026
#
# Compressibility (1/GPa) = 0.02310040
#
# Stress axis : x y z
#
# Youngs Moduli (GPa) = 81.28912 42.44365 99.18952
#
# Poissons Ratio (x) = 0.26903 0.40912
# Poissons Ratio (y) = 0.51525 0.09509
# Poissons Ratio (z) = 0.33529 0.04069
#
# Static dielectric constant tensor:
#      x y z
#    x 1.731230 0.000000 0.000000 
#    y 0.000000 1.742920 0.000000 
#    z 0.000000 0.000000 1.839920 
# 
# From -- ./inp_files/46444.got.cif
#   From: 2010.05.17/outbox.cif.g08.bks.cpg/sg69_24_cif.got.tgz:46444.got - 2010.06.03 19:29:58.
