data_PCOD9511224
_publ_section_title
;
Structure prediction by ZEFSAII (Michael W. Deem and Ramdas Pophale) SiO2 
 PCOD9511224
Probable space group: F M M M
;
_chemical_formula_sum "Si O2"
_cell_formula_units_Z 144
_cell_length_a 28.427926
_cell_length_b 32.081263
_cell_length_c 8.898590
_cell_angle_alpha 90.000000
_cell_angle_beta 90.000000
_cell_angle_gamma 90.000000
_cell_volume 8115.547633
_symmetry_space_group_name_H-M "F M M M"
_symmetry_group_IT_number 69
_symmetry_cell_setting 'orthorhombic'
loop_
_space_group_symop_operation_xyz
x,y,z
-x,-y,z
x,-y,-z
-x,y,-z
-x,-y,-z
x,y,-z
-x,y,z
x,-y,z
x,1/2+y,1/2+z
-x,1/2-y,1/2+z
x,1/2-y,1/2-z
-x,1/2+y,1/2-z
-x,1/2-y,1/2-z
x,1/2+y,1/2-z
-x,1/2+y,1/2+z
x,1/2-y,1/2+z
1/2+x,y,1/2+z
1/2-x,-y,1/2+z
1/2+x,-y,1/2-z
1/2-x,y,1/2-z
1/2-x,-y,1/2-z
1/2+x,y,1/2-z
1/2-x,y,1/2+z
1/2+x,-y,1/2+z
1/2+x,1/2+y,z
1/2-x,1/2-y,z
1/2+x,1/2-y,-z
1/2-x,1/2+y,-z
1/2-x,1/2-y,-z
1/2+x,1/2+y,-z
1/2-x,1/2+y,z
1/2+x,1/2-y,z
loop_
_atom_site_type_symbol
_atom_site_label
_atom_site_fract_x
_atom_site_fract_y
_atom_site_fract_z
Si Si1 0.301094 0.415125 0.678576
Si Si2 0.895333 0.372799 0.177400
Si Si3 0.697372 0.500000 0.820094
Si Si4 0.444977 0.705993 0.179288
Si Si5 0.556768 0.547017 0.822710
O O1 0.295667 0.422651 0.500000
O O2 0.250000 0.406734 0.750000
O O3 0.339624 0.379531 0.702239
O O4 0.321993 0.456829 0.756301
O O5 0.915606 0.332880 0.261221
O O6 0.920854 0.414777 0.234246
O O7 0.903430 0.368378 0.000000
O O8 0.750000 0.500000 0.750000
O O9 0.697784 0.500000 0.000000
O O10 0.500000 0.699543 0.220438
O O11 0.429956 0.750000 0.250000
O O12 0.441947 0.708427 0.000000
O O13 0.500000 0.549485 0.811247
O O14 0.570556 0.500000 0.773742
O O15 0.568752 0.550695 0.000000
#
# Coordination Sequence:
#
# PCOD9511224 Si02
#       5
#    32  32  16  32  32
#     4  10  21  36  52  74 106 142 183 230 275 321
#     4  11  23  35  53  81 111 142 180 226 273 325
#     4  10  18  30  50  72  97 134 179 226 274 319
#     4  10  21  38  61  87 114 143 177 219 268 324
#     4   9  19  35  52  73 105 144 185 224 263 317
#
# _framework density 17.74372
#
# number of rings (size 3 to 8) (size 9 to 14) (size 15 to 20)
#    0.000    2.000    0.000    5.667    1.556    8.444 
#    0.000    1.111    0.000    0.667    0.000    4.667 
#    0.000    0.000    0.000    0.000    0.000    0.000 
#
# Total GULP energy -201023.177788 kJ/mol
# GULP energy per Si atom -5583.977161 kJ/mol
# Density = 1.770333 g / cm^3
# Si number density = 17.743720 Si / 1000 Ang^3
#
#
#
# Elastic Constant Matrix: (Units=GPa)
#
#
# Indices 1 2 3 4 5 6 
#
# 1 65.1158 60.1768 46.0510 -0.0003 0.0015 0.0018
# 2 60.1768 135.0586 61.0434 0.0002 -0.0008 0.0009
# 3 46.0510 61.0434 86.7247 0.0031 -0.0021 -0.0043
# 4 -0.0003 0.0002 0.0031 35.6156 0.0004 -0.0008
# 5 0.0015 -0.0008 -0.0021 0.0004 25.0384 0.0002
# 6 0.0018 0.0009 -0.0043 -0.0008 0.0002 23.8243
#
#
#
# Elastic Compliance Matrix: (Units=1/GPa)
#
#
# Indices 1 2 3 4 5 6 
#
# 1 0.030966 -0.009335 -0.009872 0.000001 -0.000003 -0.000004
# 2 -0.009335 0.013673 -0.004667 0.000000 0.000001 -0.000001
# 3 -0.009872 -0.004667 0.020058 -0.000002 0.000002 0.000005
# 4 0.000001 0.000000 -0.000002 0.028078 0.000000 0.000001
# 5 -0.000003 0.000001 0.000002 0.000000 0.039939 0.000000
# 6 -0.000004 -0.000001 0.000005 0.000001 0.000000 0.041974
#
#
# Mechanical properties :
#
#
# Convention : Reuss Voigt Hill
#
# Bulk Modulus (GPa) = 59.00388 69.04905 64.02647
# Shear Modulus (GPa) = 21.92153 24.87086 23.39619
#
# Velocity S-wave (km/s) = 3.51871 3.74795 3.63514
# Velocity P-wave (km/s) = 7.05932 7.59794 7.33358
#
# Compressibility (1/GPa) = 0.01694804
#
# Stress axis : x y z
#
# Youngs Moduli (GPa) = 32.29306 73.13654 49.85550
#
# Poissons Ratio (x) = 0.68276 0.49219
# Poissons Ratio (y) = 0.30147 0.23268
# Poissons Ratio (z) = 0.31881 0.34133
#
# Static dielectric constant tensor:
#      x y z
#    x 1.647420 0.000000 0.000000 
#    y 0.000000 1.591010 0.000000 
#    z 0.000000 0.000000 1.595140 
# 
# From -- ./inp_files/5603.got.cif
#   From: 2010.05.17/outbox.cif.g08.bks.cpg/sg69_3_cif.got.tgz:5603.got - 2010.06.03 19:29:58.
