data_PCOD9511374
_publ_section_title
;
Structure prediction by ZEFSAII (Michael W. Deem and Ramdas Pophale) SiO2 
 PCOD9511374
Probable space group: F M M M
;
_chemical_formula_sum "Si O2"
_cell_formula_units_Z 176
_cell_length_a 16.864192
_cell_length_b 17.562947
_cell_length_c 28.032449
_cell_angle_alpha 90.000000
_cell_angle_beta 90.000000
_cell_angle_gamma 90.000000
_cell_volume 8302.788392
_symmetry_space_group_name_H-M "F M M M"
_symmetry_group_IT_number 69
_symmetry_cell_setting 'orthorhombic'
loop_
_space_group_symop_operation_xyz
x,y,z
-x,-y,z
x,-y,-z
-x,y,-z
-x,-y,-z
x,y,-z
-x,y,z
x,-y,z
x,1/2+y,1/2+z
-x,1/2-y,1/2+z
x,1/2-y,1/2-z
-x,1/2+y,1/2-z
-x,1/2-y,1/2-z
x,1/2+y,1/2-z
-x,1/2+y,1/2+z
x,1/2-y,1/2+z
1/2+x,y,1/2+z
1/2-x,-y,1/2+z
1/2+x,-y,1/2-z
1/2-x,y,1/2-z
1/2-x,-y,1/2-z
1/2+x,y,1/2-z
1/2-x,y,1/2+z
1/2+x,-y,1/2+z
1/2+x,1/2+y,z
1/2-x,1/2-y,z
1/2+x,1/2-y,-z
1/2-x,1/2+y,-z
1/2-x,1/2-y,-z
1/2+x,1/2+y,-z
1/2-x,1/2+y,z
1/2+x,1/2-y,z
loop_
_atom_site_type_symbol
_atom_site_label
_atom_site_fract_x
_atom_site_fract_y
_atom_site_fract_z
Si Si1 0.089351 0.844887 0.911296
Si Si2 0.704532 0.832570 0.861566
Si Si3 0.644527 0.088897 0.320571
Si Si4 0.409533 0.833669 0.772777
Si Si5 0.091074 0.000000 0.056140
Si Si6 0.905044 0.676564 0.056119
O O1 0.091270 0.856017 0.854375
O O2 0.131584 0.921415 0.928906
O O3 0.115663 0.765059 0.931967
O O4 0.000000 0.849453 0.929796
O O5 0.750000 0.750000 0.866237
O O6 0.768485 0.890422 0.839682
O O7 0.636514 0.826240 0.822008
O O8 0.659482 0.861471 0.909096
O O9 0.632641 0.112103 0.265881
O O10 0.624945 0.000000 0.327561
O O11 0.500000 0.858994 0.779725
O O12 0.409501 0.750000 0.750000
O O13 0.000000 0.000000 0.076775
O O14 0.084443 0.000000 0.000000
O O15 0.000000 0.665412 0.067615
O O16 0.895496 0.661235 0.000000
#
# Coordination Sequence:
#
# PCOD9511374 Si02
#       6
#    32  32  32  32  16  32
#     4  10  18  32  54  85 125 163 204 253 307 376
#     4  12  23  40  63  91 127 169 208 262 323 377
#     4  12  25  40  61  93 130 169 209 262 326 387
#     4  11  23  40  65  92 122 166 217 257 303 376
#     4   9  16  26  44  72 113 162 199 237 297 368
#     4  10  21  39  65  95 124 162 218 272 315 370
#
# _framework density 21.197697999999999
#
# number of rings (size 3 to 8) (size 9 to 14) (size 15 to 20)
#    0.000    1.182    4.545    2.182    0.000    8.000 
#    0.000    0.000    0.000    1.636    0.000    1.273 
#    0.000    0.000    0.000    0.000    0.000    0.000 
#
# Total GULP energy -245345.903000 kJ/mol
# GULP energy per Si atom -5576.043250 kJ/mol
# Density = 2.114945 g / cm^3
# Si number density = 21.197698 Si / 1000 Ang^3
#
#
#
# Elastic Constant Matrix: (Units=GPa)
#
#
# Indices 1 2 3 4 5 6 
#
# 1 119.9843 14.0363 65.5305 0.0000 0.0000 0.0000
# 2 14.0363 16.0158 -2.2199 0.0000 0.0000 0.0000
# 3 65.5305 -2.2199 116.0448 0.0000 0.0000 0.0000
# 4 0.0000 0.0000 0.0000 23.1954 0.0000 0.0000
# 5 0.0000 0.0000 0.0000 0.0000 43.8476 0.0000
# 6 0.0000 0.0000 0.0000 0.0000 0.0000 5.2317
#
#
#
# Elastic Compliance Matrix: (Units=1/GPa)
#
#
# Indices 1 2 3 4 5 6 
#
# 1 0.014632 -0.014006 -0.008531 0.000000 0.000000 0.000000
# 2 -0.014006 0.076011 0.009363 0.000000 0.000000 0.000000
# 3 -0.008531 0.009363 0.013614 0.000000 0.000000 0.000000
# 4 0.000000 0.000000 0.000000 0.043112 0.000000 0.000000
# 5 0.000000 0.000000 0.000000 0.000000 0.022806 0.000000
# 6 0.000000 0.000000 0.000000 0.000000 0.000000 0.191142
#
#
# Mechanical properties :
#
#
# Convention : Reuss Voigt Hill
#
# Bulk Modulus (GPa) = 12.83532 45.19316 29.01424
# Shear Modulus (GPa) = 12.08799 26.10148 19.09473
#
# Velocity S-wave (km/s) = 2.39058 3.51285 3.00458
# Velocity P-wave (km/s) = 3.69973 6.14976 5.07482
#
# Compressibility (1/GPa) = 0.07791003
#
# Stress axis : x y z
#
# Youngs Moduli (GPa) = 68.34371 13.15601 73.45547
#
# Poissons Ratio (x) = 0.18426 0.62662
# Poissons Ratio (y) = 0.95721 -0.68777
# Poissons Ratio (z) = 0.58301 -0.12318
#
# Static dielectric constant tensor:
#      x y z
#    x 1.839700 0.000000 0.000000 
#    y 0.000000 1.823750 0.000000 
#    z 0.000000 0.000000 1.790360 
# 
# From -- ./inp_files/41850.got.cif
#   From: 2010.05.17/outbox.cif.g08.bks.cpg/sg69_21_cif.got.tgz:41850.got - 2010.06.03 19:29:58.
