data_PCOD9511888
_publ_section_title
;
Structure prediction by ZEFSAII (Michael W. Deem and Ramdas Pophale) SiO2 
 PCOD9511888
Probable space group: F M M M
;
_chemical_formula_sum "Si O2"
_cell_formula_units_Z 160
_cell_length_a 25.751182
_cell_length_b 13.586053
_cell_length_c 22.793330
_cell_angle_alpha 90.000000
_cell_angle_beta 90.000000
_cell_angle_gamma 90.000000
_cell_volume 7974.404309
_symmetry_space_group_name_H-M "F M M M"
_symmetry_group_IT_number 69
_symmetry_cell_setting 'orthorhombic'
loop_
_space_group_symop_operation_xyz
x,y,z
-x,-y,z
x,-y,-z
-x,y,-z
-x,-y,-z
x,y,-z
-x,y,z
x,-y,z
x,1/2+y,1/2+z
-x,1/2-y,1/2+z
x,1/2-y,1/2-z
-x,1/2+y,1/2-z
-x,1/2-y,1/2-z
x,1/2+y,1/2-z
-x,1/2+y,1/2+z
x,1/2-y,1/2+z
1/2+x,y,1/2+z
1/2-x,-y,1/2+z
1/2+x,-y,1/2-z
1/2-x,y,1/2-z
1/2-x,-y,1/2-z
1/2+x,y,1/2-z
1/2-x,y,1/2+z
1/2+x,-y,1/2+z
1/2+x,1/2+y,z
1/2-x,1/2-y,z
1/2+x,1/2-y,-z
1/2-x,1/2+y,-z
1/2-x,1/2-y,-z
1/2+x,1/2+y,-z
1/2-x,1/2+y,z
1/2+x,1/2-y,z
loop_
_atom_site_type_symbol
_atom_site_label
_atom_site_fract_x
_atom_site_fract_y
_atom_site_fract_z
Si Si1 0.814079 0.682786 0.842818
Si Si2 0.665067 0.888802 0.283111
Si Si3 0.728069 0.384152 0.935208
Si Si4 0.119746 0.263293 0.566892
Si Si5 0.557733 0.615739 0.844192
O O1 0.809836 0.793704 0.814878
O O2 0.820621 0.617805 0.784994
O O3 0.768810 0.648741 0.886332
O O4 0.864413 0.681541 0.885280
O O5 0.603867 0.872141 0.296640
O O6 0.678268 0.000000 0.304238
O O7 0.719071 0.500000 0.931104
O O8 0.672422 0.330299 0.933389
O O9 0.751103 0.363446 0.000000
O O10 0.109359 0.233868 0.500000
O O11 0.074877 0.326031 0.597681
O O12 0.500000 0.644416 0.824447
O O13 0.557372 0.500000 0.858085
#
# Coordination Sequence:
#
# PCOD9511888 Si02
#       5
#    32  32  32  32  32
#     4  10  19  34  55  78 104 143 183 217 259 315
#     4   9  19  36  56  80 109 141 179 225 274 318
#     4  10  20  34  55  81 109 144 182 219 261 312
#     4  10  20  34  51  75 109 142 174 216 266 317
#     4   9  18  34  56  79 103 134 174 219 267 321
#
# _framework density 20.064195999999999
#
# number of rings (size 3 to 8) (size 9 to 14) (size 15 to 20)
#    0.000    2.400    0.000    2.400    0.000    4.000 
#    0.000   26.000    0.000   24.600    0.000    0.000 
#    0.000    0.000    0.000   70.800    0.000    5.000 
#
# Total GULP energy -223060.548523 kJ/mol
# GULP energy per Si atom -5576.513713 kJ/mol
# Density = 2.001853 g / cm^3
# Si number density = 20.064196 Si / 1000 Ang^3
#
#
#
# Elastic Constant Matrix: (Units=GPa)
#
#
# Indices 1 2 3 4 5 6 
#
# 1 71.7145 3.6414 30.5780 0.0000 0.0000 0.0000
# 2 3.6414 54.7324 5.6667 0.0000 0.0000 0.0000
# 3 30.5780 5.6667 152.0100 0.0000 0.0000 0.0000
# 4 0.0000 0.0000 0.0000 22.1601 0.0000 0.0000
# 5 0.0000 0.0000 0.0000 0.0000 11.2051 0.0000
# 6 0.0000 0.0000 0.0000 0.0000 0.0000 21.1183
#
#
#
# Elastic Compliance Matrix: (Units=1/GPa)
#
#
# Indices 1 2 3 4 5 6 
#
# 1 0.015279 -0.000701 -0.003047 0.000000 0.000000 0.000000
# 2 -0.000701 0.018374 -0.000544 0.000000 0.000000 0.000000
# 3 -0.003047 -0.000544 0.007212 0.000000 0.000000 0.000000
# 4 0.000000 0.000000 0.000000 0.045126 0.000000 0.000000
# 5 0.000000 0.000000 0.000000 0.000000 0.089245 0.000000
# 6 0.000000 0.000000 0.000000 0.000000 0.000000 0.047352
#
#
# Mechanical properties :
#
#
# Convention : Reuss Voigt Hill
#
# Bulk Modulus (GPa) = 30.97900 39.80323 35.39111
# Shear Modulus (GPa) = 20.66691 26.80143 23.73417
#
# Velocity S-wave (km/s) = 3.21290 3.65880 3.44308
# Velocity P-wave (km/s) = 5.40714 6.14248 5.78650
#
# Compressibility (1/GPa) = 0.03227993
#
# Stress axis : x y z
#
# Youngs Moduli (GPa) = 65.44874 54.42568 138.66170
#
# Poissons Ratio (x) = 0.03815 0.42255
# Poissons Ratio (y) = 0.04588 0.07542
# Poissons Ratio (z) = 0.19945 0.02960
#
# Static dielectric constant tensor:
#      x y z
#    x 1.732400 0.000000 0.000000 
#    y 0.000000 1.743520 0.000000 
#    z 0.000000 0.000000 1.775890 
# 
# From -- ./inp_files/38249.got.cif
#   From: 2010.05.17/outbox.cif.g08.bks.cpg/sg69_20_cif.got.tgz:38249.got - 2010.06.03 19:29:58.
