data_PCOD9511428
_publ_section_title
;
Structure prediction by ZEFSAII (Michael W. Deem and Ramdas Pophale) SiO2 
 PCOD9511428
Probable space group: F M M M
;
_chemical_formula_sum "Si O2"
_cell_formula_units_Z 168
_cell_length_a 23.127661
_cell_length_b 16.595557
_cell_length_c 22.036902
_cell_angle_alpha 90.000000
_cell_angle_beta 90.000000
_cell_angle_gamma 90.000000
_cell_volume 8458.124754
_symmetry_space_group_name_H-M "F M M M"
_symmetry_group_IT_number 69
_symmetry_cell_setting 'orthorhombic'
loop_
_space_group_symop_operation_xyz
x,y,z
-x,-y,z
x,-y,-z
-x,y,-z
-x,-y,-z
x,y,-z
-x,y,z
x,-y,z
x,1/2+y,1/2+z
-x,1/2-y,1/2+z
x,1/2-y,1/2-z
-x,1/2+y,1/2-z
-x,1/2-y,1/2-z
x,1/2+y,1/2-z
-x,1/2+y,1/2+z
x,1/2-y,1/2+z
1/2+x,y,1/2+z
1/2-x,-y,1/2+z
1/2+x,-y,1/2-z
1/2-x,y,1/2-z
1/2-x,-y,1/2-z
1/2+x,y,1/2-z
1/2-x,y,1/2+z
1/2+x,-y,1/2+z
1/2+x,1/2+y,z
1/2-x,1/2-y,z
1/2+x,1/2-y,-z
1/2-x,1/2+y,-z
1/2-x,1/2-y,-z
1/2+x,1/2+y,-z
1/2-x,1/2+y,z
1/2+x,1/2-y,z
loop_
_atom_site_type_symbol
_atom_site_label
_atom_site_fract_x
_atom_site_fract_y
_atom_site_fract_z
Si Si1 0.816471 0.654271 0.765040
Si Si2 0.628645 0.500000 0.500000
Si Si3 0.935893 0.282015 0.569493
Si Si4 0.343757 0.856336 0.906462
Si Si5 0.384124 0.907200 0.345528
Si Si6 0.222614 0.093723 0.066352
O O1 0.817243 0.750000 0.750000
O O2 0.750000 0.626911 0.750000
O O3 0.834222 0.635082 0.834078
O O4 0.864610 0.615263 0.721781
O O5 0.631183 0.570531 0.446372
O O6 0.931311 0.312505 0.500000
O O7 0.884885 0.218886 0.581098
O O8 0.928876 0.350492 0.620113
O O9 0.000000 0.244601 0.575053
O O10 0.277474 0.849208 0.928587
O O11 0.324603 0.894552 0.383086
O O12 0.401060 0.000000 0.349829
O O13 0.243999 0.000000 0.070366
O O14 0.195756 0.102159 0.000000
#
# Coordination Sequence:
#
# PCOD9511428 Si02
#       6
#    32   8  32  32  32  32
#     4  11  23  39  63 101 145 183 219 269 342 428
#     4  12  24  40  71 106 138 182 219 292 358 412
#     4  11  25  46  68  92 127 177 233 289 340 389
#     4  12  21  40  66  99 138 174 222 275 344 414
#     4  11  24  40  62  98 133 178 225 269 334 410
#     4  10  18  33  58  92 135 168 208 269 333 401
#
# _framework density 19.862558
#
# number of rings (size 3 to 8) (size 9 to 14) (size 15 to 20)
#    0.000    0.952    6.667    0.571    1.333    2.667 
#    0.000    5.714    0.000    0.000    0.000    0.000 
#    0.000    0.000    0.000    0.000    0.000    0.000 
#
# Total GULP energy -233896.027430 kJ/mol
# GULP energy per Si atom -5568.953034 kJ/mol
# Density = 1.981735 g / cm^3
# Si number density = 19.862558 Si / 1000 Ang^3
#
#
#
# Elastic Constant Matrix: (Units=GPa)
#
#
# Indices 1 2 3 4 5 6 
#
# 1 56.7152 21.4595 18.4019 0.0000 0.0000 0.0000
# 2 21.4595 86.0730 29.1324 0.0000 0.0000 0.0000
# 3 18.4019 29.1324 176.5727 0.0000 0.0000 0.0000
# 4 0.0000 0.0000 0.0000 28.5995 0.0000 0.0000
# 5 0.0000 0.0000 0.0000 0.0000 21.2435 0.0000
# 6 0.0000 0.0000 0.0000 0.0000 0.0000 9.5264
#
#
#
# Elastic Compliance Matrix: (Units=1/GPa)
#
#
# Indices 1 2 3 4 5 6 
#
# 1 0.019755 -0.004478 -0.001320 0.000000 0.000000 0.000000
# 2 -0.004478 0.013320 -0.001731 0.000000 0.000000 0.000000
# 3 -0.001320 -0.001731 0.006087 0.000000 0.000000 0.000000
# 4 0.000000 0.000000 0.000000 0.034966 0.000000 0.000000
# 5 0.000000 0.000000 0.000000 0.000000 0.047073 0.000000
# 6 0.000000 0.000000 0.000000 0.000000 0.000000 0.104971
#
#
# Mechanical properties :
#
#
# Convention : Reuss Voigt Hill
#
# Bulk Modulus (GPa) = 41.48850 50.81650 46.15250
# Shear Modulus (GPa) = 20.05897 28.56502 24.31200
#
# Velocity S-wave (km/s) = 3.18132 3.79639 3.50238
# Velocity P-wave (km/s) = 5.86750 6.69749 6.29619
#
# Compressibility (1/GPa) = 0.02410307
#
# Stress axis : x y z
#
# Youngs Moduli (GPa) = 50.62080 75.07238 164.29698
#
# Poissons Ratio (x) = 0.33621 0.21685
# Poissons Ratio (y) = 0.22670 0.28440
# Poissons Ratio (z) = 0.06681 0.12995
#
# Static dielectric constant tensor:
#      x y z
#    x 1.699380 0.000000 0.000000 
#    y 0.000000 1.717540 0.000000 
#    z 0.000000 0.000000 1.750250 
# 
# From -- ./inp_files/37852.got.cif
#   From: 2010.05.17/outbox.cif.g08.bks.cpg/sg69_19_cif.got.tgz:37852.got - 2010.06.03 19:29:58.
