data_PCOD9511505
_publ_section_title
;
Structure prediction by ZEFSAII (Michael W. Deem and Ramdas Pophale) SiO2 
 PCOD9511505
Probable space group: F M M M
;
_chemical_formula_sum "Si O2"
_cell_formula_units_Z 160
_cell_length_a 15.724442
_cell_length_b 14.669804
_cell_length_c 32.740644
_cell_angle_alpha 90.000000
_cell_angle_beta 90.000000
_cell_angle_gamma 90.000000
_cell_volume 7552.431100
_symmetry_space_group_name_H-M "F M M M"
_symmetry_group_IT_number 69
_symmetry_cell_setting 'orthorhombic'
loop_
_space_group_symop_operation_xyz
x,y,z
-x,-y,z
x,-y,-z
-x,y,-z
-x,-y,-z
x,y,-z
-x,y,z
x,-y,z
x,1/2+y,1/2+z
-x,1/2-y,1/2+z
x,1/2-y,1/2-z
-x,1/2+y,1/2-z
-x,1/2-y,1/2-z
x,1/2+y,1/2-z
-x,1/2+y,1/2+z
x,1/2-y,1/2+z
1/2+x,y,1/2+z
1/2-x,-y,1/2+z
1/2+x,-y,1/2-z
1/2-x,y,1/2-z
1/2-x,-y,1/2-z
1/2+x,y,1/2-z
1/2-x,y,1/2+z
1/2+x,-y,1/2+z
1/2+x,1/2+y,z
1/2-x,1/2-y,z
1/2+x,1/2-y,-z
1/2-x,1/2+y,-z
1/2-x,1/2-y,-z
1/2+x,1/2+y,-z
1/2-x,1/2+y,z
1/2+x,1/2-y,z
loop_
_atom_site_type_symbol
_atom_site_label
_atom_site_fract_x
_atom_site_fract_y
_atom_site_fract_z
Si Si1 0.845193 0.142777 0.741098
Si Si2 0.404164 0.110828 0.452844
Si Si3 0.730555 0.888413 0.614593
Si Si4 0.095365 0.890613 0.351476
Si Si5 0.089681 0.395620 0.674514
O O1 0.845115 0.250000 0.750000
O O2 0.750000 0.107919 0.750000
O O3 0.877684 0.125544 0.695674
O O4 0.902463 0.103198 0.777000
O O5 0.392544 0.138557 0.500000
O O6 0.500000 0.138773 0.439646
O O7 0.326866 0.139818 0.423851
O O8 0.404302 0.000000 0.452044
O O9 0.827056 0.855678 0.620386
O O10 0.674538 0.857996 0.653874
O O11 0.735635 0.000000 0.614080
O O12 0.000000 0.856085 0.359328
O O13 0.092381 0.000000 0.356574
O O14 0.086213 0.500000 0.659860
O O15 0.000000 0.351121 0.663163
#
# Coordination Sequence:
#
# PCOD9511505 Si02
#       5
#    32  32  32  32  32
#     4  11  22  34  47  64  89 121 156 194 237 283
#     4   8  13  22  39  65  95 123 148 177 223 280
#     4   9  16  27  43  63  90 119 149 188 225 267
#     4  10  20  33  49  66  86 120 163 199 232 271
#     4  10  19  30  47  68  88 116 153 189 229 275
#
# _framework density 21.185231000000002
#
# number of rings (size 3 to 8) (size 9 to 14) (size 15 to 20)
#    0.000    2.400    2.000    2.400    0.000    6.400 
#    0.000    0.000    0.000    0.600    0.000    4.200 
#    0.000    3.200    0.000    4.000    0.000    4.000 
#
# Total GULP energy -223161.707813 kJ/mol
# GULP energy per Si atom -5579.042695 kJ/mol
# Density = 2.113701 g / cm^3
# Si number density = 21.185231 Si / 1000 Ang^3
#
#
#
# Elastic Constant Matrix: (Units=GPa)
#
#
# Indices 1 2 3 4 5 6 
#
# 1 242.9876 8.2526 84.6586 0.0000 0.0000 0.0000
# 2 8.2526 52.1122 -7.2625 0.0000 0.0000 0.0000
# 3 84.6586 -7.2625 110.7981 0.0000 0.0000 0.0000
# 4 0.0000 0.0000 0.0000 -6.7701 0.0000 0.0000
# 5 0.0000 0.0000 0.0000 0.0000 37.4328 0.0000
# 6 0.0000 0.0000 0.0000 0.0000 0.0000 -24.3140
#
#
#
# Elastic Compliance Matrix: (Units=1/GPa)
#
#
# Indices 1 2 3 4 5 6 
#
# 1 0.005727 -0.001531 -0.004476 0.000000 0.000000 0.000000
# 2 -0.001531 0.019775 0.002466 0.000000 0.000000 0.000000
# 3 -0.004476 0.002466 0.012607 0.000000 0.000000 0.000000
# 4 0.000000 0.000000 0.000000 -0.147708 0.000000 0.000000
# 5 0.000000 0.000000 0.000000 0.000000 0.026715 0.000000
# 6 0.000000 0.000000 0.000000 0.000000 0.000000 -0.041129
#
#
# Mechanical properties :
#
#
# Convention : Reuss Voigt Hill
#
# Bulk Modulus (GPa) = 32.22960 64.13282 48.18121
# Shear Modulus (GPa) = -46.90961 22.61968 -12.14497
#
# Velocity S-wave (km/s) = -4.71070 3.27113 -2.39691
# Velocity P-wave (km/s) = 3.78699 6.67871 3.88998
#
# Compressibility (1/GPa) = 0.03102738
#
# Stress axis : x y z
#
# Youngs Moduli (GPa) = 174.61271 50.56783 79.31963
#
# Poissons Ratio (x) = 0.07741 0.35505
# Poissons Ratio (y) = 0.26729 -0.19559
# Poissons Ratio (z) = 0.78160 -0.12469
#
# Static dielectric constant tensor:
#      x y z
#    x 1.825360 0.000000 0.000000 
#    y 0.000000 1.841840 0.000000 
#    z 0.000000 0.000000 1.739520 
# 
# From -- ./inp_files/46314.got.cif
#   From: 2010.05.17/outbox.cif.g08.bks.cpg/sg69_24_cif.got.tgz:46314.got - 2010.06.03 19:29:58.
