data_PCOD9511592
_publ_section_title
;
Structure prediction by ZEFSAII (Michael W. Deem and Ramdas Pophale) SiO2 
 PCOD9511592
Probable space group: F M M M
;
_chemical_formula_sum "Si O2"
_cell_formula_units_Z 144
_cell_length_a 27.275672
_cell_length_b 14.632613
_cell_length_c 15.526895
_cell_angle_alpha 90.000000
_cell_angle_beta 90.000000
_cell_angle_gamma 90.000000
_cell_volume 6197.006647
_symmetry_space_group_name_H-M "F M M M"
_symmetry_group_IT_number 69
_symmetry_cell_setting 'orthorhombic'
loop_
_space_group_symop_operation_xyz
x,y,z
-x,-y,z
x,-y,-z
-x,y,-z
-x,-y,-z
x,y,-z
-x,y,z
x,-y,z
x,1/2+y,1/2+z
-x,1/2-y,1/2+z
x,1/2-y,1/2-z
-x,1/2+y,1/2-z
-x,1/2-y,1/2-z
x,1/2+y,1/2-z
-x,1/2+y,1/2+z
x,1/2-y,1/2+z
1/2+x,y,1/2+z
1/2-x,-y,1/2+z
1/2+x,-y,1/2-z
1/2-x,y,1/2-z
1/2-x,-y,1/2-z
1/2+x,y,1/2-z
1/2-x,y,1/2+z
1/2+x,-y,1/2+z
1/2+x,1/2+y,z
1/2-x,1/2-y,z
1/2+x,1/2-y,-z
1/2-x,1/2+y,-z
1/2-x,1/2-y,-z
1/2+x,1/2+y,-z
1/2-x,1/2+y,z
1/2+x,1/2-y,z
loop_
_atom_site_type_symbol
_atom_site_label
_atom_site_fract_x
_atom_site_fract_y
_atom_site_fract_z
Si Si1 0.737163 0.856720 0.345348
Si Si2 0.089315 0.888497 0.725084
Si Si3 0.000000 0.111232 0.600355
Si Si4 0.162751 0.395538 0.910233
Si Si5 0.125474 0.110000 0.903210
O O1 0.750000 0.892449 0.250000
O O2 0.750000 0.750000 0.345672
O O3 0.779106 0.897568 0.405080
O O4 0.682160 0.872381 0.376566
O O5 0.139020 0.857569 0.676289
O O6 0.091955 0.855501 0.823702
O O7 0.046517 0.862037 0.659149
O O8 0.087530 0.000000 0.731838
O O9 0.000000 0.142441 0.500000
O O10 0.000000 0.000000 0.596123
O O11 0.144918 0.500000 0.913156
O O12 0.147470 0.350327 0.000000
O O13 0.120121 0.000000 0.906042
O O14 0.115391 0.143875 0.000000
#
# Coordination Sequence:
#
# PCOD9511592 Si02
#       5
#    32  32  16  32  32
#     4  11  22  34  49  72 102 137 175 213 259 298
#     4   9  17  30  48  72 103 132 163 208 256 302
#     4   9  16  28  49  77 106 133 162 205 263 311
#     4  10  19  31  50  74  99 132 170 206 251 307
#     4  10  20  34  52  73 100 139 180 212 250 303
#
# _framework density 23.237026
#
# number of rings (size 3 to 8) (size 9 to 14) (size 15 to 20)
#    0.000    2.111    2.222    2.000    0.000    7.111 
#    0.000    0.556    0.000    3.333    0.000    3.111 
#    0.000    3.556    0.000    0.000    0.000    0.000 
#
# Total GULP energy -200872.460187 kJ/mol
# GULP energy per Si atom -5579.790561 kJ/mol
# Density = 2.318414 g / cm^3
# Si number density = 23.237026 Si / 1000 Ang^3
#
#
#
# Elastic Constant Matrix: (Units=GPa)
#
#
# Indices 1 2 3 4 5 6 
#
# 1 92.7234 -9.6331 73.2556 0.0000 0.0000 0.0000
# 2 -9.6331 62.3712 9.2979 0.0000 0.0000 0.0000
# 3 73.2556 9.2979 275.9042 0.0000 0.0000 0.0000
# 4 0.0000 0.0000 0.0000 -89.2501 0.0000 0.0000
# 5 0.0000 0.0000 0.0000 0.0000 55.7623 0.0000
# 6 0.0000 0.0000 0.0000 0.0000 0.0000 -4.4872
#
#
#
# Elastic Compliance Matrix: (Units=1/GPa)
#
#
# Indices 1 2 3 4 5 6 
#
# 1 0.014102 0.002750 -0.003837 0.000000 0.000000 0.000000
# 2 0.002750 0.016650 -0.001291 0.000000 0.000000 0.000000
# 3 -0.003837 -0.001291 0.004687 0.000000 0.000000 0.000000
# 4 0.000000 0.000000 0.000000 -0.011204 0.000000 0.000000
# 5 0.000000 0.000000 0.000000 0.000000 0.017933 0.000000
# 6 0.000000 0.000000 0.000000 0.000000 0.000000 -0.222854
#
#
# Mechanical properties :
#
#
# Convention : Reuss Voigt Hill
#
# Bulk Modulus (GPa) = 32.59198 64.09330 48.34264
# Shear Modulus (GPa) = -30.17448 16.27689 -6.94879
#
# Velocity S-wave (km/s) = -3.60745 2.64951 -1.73115
# Velocity P-wave (km/s) = 1.81529 6.08294 4.10530
#
# Compressibility (1/GPa) = 0.03068239
#
# Stress axis : x y z
#
# Youngs Moduli (GPa) = 70.91327 60.05917 213.37045
#
# Poissons Ratio (x) = -0.16516 0.81867
# Poissons Ratio (y) = -0.19501 0.27552
# Poissons Ratio (z) = 0.27208 0.07755
#
# Static dielectric constant tensor:
#      x y z
#    x 1.866070 0.000000 0.000000 
#    y 0.000000 1.982110 0.000000 
#    z 0.000000 0.000000 1.936760 
# 
# From -- ./inp_files/19428.got.cif
#   From: 2010.05.17/outbox.cif.g08.bks.cpg/sg69_10_cif.got.tgz:19428.got - 2010.06.03 19:29:58.
