data_PCOD9511808
_publ_section_title
;
Structure prediction by ZEFSAII (Michael W. Deem and Ramdas Pophale) SiO2 
 PCOD9511808
Probable space group: F M M M
;
_chemical_formula_sum "Si O2"
_cell_formula_units_Z 160
_cell_length_a 15.955506
_cell_length_b 21.774006
_cell_length_c 22.171207
_cell_angle_alpha 90.000000
_cell_angle_beta 90.000000
_cell_angle_gamma 90.000000
_cell_volume 7702.616163
_symmetry_space_group_name_H-M "F M M M"
_symmetry_group_IT_number 69
_symmetry_cell_setting 'orthorhombic'
loop_
_space_group_symop_operation_xyz
x,y,z
-x,-y,z
x,-y,-z
-x,y,-z
-x,-y,-z
x,y,-z
-x,y,z
x,-y,z
x,1/2+y,1/2+z
-x,1/2-y,1/2+z
x,1/2-y,1/2-z
-x,1/2+y,1/2-z
-x,1/2-y,1/2-z
x,1/2+y,1/2-z
-x,1/2+y,1/2+z
x,1/2-y,1/2+z
1/2+x,y,1/2+z
1/2-x,-y,1/2+z
1/2+x,-y,1/2-z
1/2-x,y,1/2-z
1/2-x,-y,1/2-z
1/2+x,y,1/2-z
1/2-x,y,1/2+z
1/2+x,-y,1/2+z
1/2+x,1/2+y,z
1/2-x,1/2-y,z
1/2+x,1/2-y,-z
1/2-x,1/2+y,-z
1/2-x,1/2-y,-z
1/2+x,1/2+y,-z
1/2-x,1/2+y,z
1/2+x,1/2-y,z
loop_
_atom_site_type_symbol
_atom_site_label
_atom_site_fract_x
_atom_site_fract_y
_atom_site_fract_z
Si Si1 0.904316 0.168351 0.115557
Si Si2 0.244629 0.396450 0.067217
Si Si3 0.185753 0.434203 0.805976
Si Si4 0.406825 0.699812 0.431800
Si Si5 0.901440 0.819626 0.253319
O O1 0.833714 0.136723 0.075978
O O2 0.895512 0.242068 0.110927
O O3 0.892559 0.153079 0.185913
O O4 0.000000 0.153523 0.097887
O O5 0.229557 0.433691 0.128606
O O6 0.169157 0.346996 0.069408
O O7 0.241159 0.424999 0.000000
O O8 0.138266 0.500000 0.801521
O O9 0.250000 0.433727 0.750000
O O10 0.136720 0.369997 0.797947
O O11 0.407854 0.725852 0.500000
O O12 0.500000 0.672375 0.421474
O O13 0.865752 0.750000 0.250000
O O14 0.000000 0.813573 0.266998
#
# Coordination Sequence:
#
# PCOD9511808 Si02
#       5
#    32  32  32  32  32
#     4  10  19  33  54  87 126 164 208 260 320 385
#     4  11  22  37  60  88 119 163 214 262 317 378
#     4  11  24  43  63  87 122 167 214 260 314 376
#     4   9  18  32  52  84 128 168 203 253 317 382
#     4  10  21  38  63  95 128 164 210 265 324 384
#
# _framework density 20.772164
#
# number of rings (size 3 to 8) (size 9 to 14) (size 15 to 20)
#    0.000    1.800    2.000    2.400    0.000    6.400 
#    0.000    0.000    0.000    0.600    0.000    5.600 
#    0.000    0.000    0.000    0.000    0.000    0.000 
#
# Total GULP energy -223044.265607 kJ/mol
# GULP energy per Si atom -5576.106640 kJ/mol
# Density = 2.072489 g / cm^3
# Si number density = 20.772164 Si / 1000 Ang^3
#
#
#
# Elastic Constant Matrix: (Units=GPa)
#
#
# Indices 1 2 3 4 5 6 
#
# 1 87.7138 49.1243 35.3563 0.0000 0.0000 0.0000
# 2 49.1243 110.2911 28.5486 0.0000 0.0000 0.0000
# 3 35.3563 28.5486 148.3940 0.0000 0.0000 0.0000
# 4 0.0000 0.0000 0.0000 -26.1154 0.0000 0.0000
# 5 0.0000 0.0000 0.0000 0.0000 28.9475 0.0000
# 6 0.0000 0.0000 0.0000 0.0000 0.0000 4.8064
#
#
#
# Elastic Compliance Matrix: (Units=1/GPa)
#
#
# Indices 1 2 3 4 5 6 
#
# 1 0.016078 -0.006493 -0.002582 0.000000 0.000000 0.000000
# 2 -0.006493 0.012164 -0.000793 0.000000 0.000000 0.000000
# 3 -0.002582 -0.000793 0.007506 0.000000 0.000000 0.000000
# 4 0.000000 0.000000 0.000000 -0.038292 0.000000 0.000000
# 5 0.000000 0.000000 0.000000 0.000000 0.034545 0.000000
# 6 0.000000 0.000000 0.000000 0.000000 0.000000 0.208054
#
#
# Mechanical properties :
#
#
# Convention : Reuss Voigt Hill
#
# Bulk Modulus (GPa) = 62.44873 63.60636 63.02755
# Shear Modulus (GPa) = 18.85878 17.08572 17.97225
#
# Velocity S-wave (km/s) = 3.01639 2.87109 2.94463
# Velocity P-wave (km/s) = 6.50080 6.45587 6.47837
#
# Compressibility (1/GPa) = 0.01601314
#
# Stress axis : x y z
#
# Youngs Moduli (GPa) = 62.19830 82.20864 133.21807
#
# Poissons Ratio (x) = 0.53377 0.34391
# Poissons Ratio (y) = 0.40384 0.10567
# Poissons Ratio (z) = 0.16057 0.06521
#
# Static dielectric constant tensor:
#      x y z
#    x 1.729250 0.000000 0.000000 
#    y 0.000000 1.753030 0.000000 
#    z 0.000000 0.000000 1.803290 
# 
# From -- ./inp_files/26642.got.cif
#   From: 2010.05.17/outbox.cif.g08.bks.cpg/sg69_14_cif.got.tgz:26642.got - 2010.06.03 19:29:58.
