data_PCOD9511491
_publ_section_title
;
Structure prediction by ZEFSAII (Michael W. Deem and Ramdas Pophale) SiO2 
 PCOD9511491
Probable space group: F M M M
;
_chemical_formula_sum "Si O2"
_cell_formula_units_Z 192
_cell_length_a 31.128378
_cell_length_b 27.274541
_cell_length_c 14.746247
_cell_angle_alpha 90.000000
_cell_angle_beta 90.000000
_cell_angle_gamma 90.000000
_cell_volume 12519.743932
_symmetry_space_group_name_H-M "F M M M"
_symmetry_group_IT_number 69
_symmetry_cell_setting 'orthorhombic'
loop_
_space_group_symop_operation_xyz
x,y,z
-x,-y,z
x,-y,-z
-x,y,-z
-x,-y,-z
x,y,-z
-x,y,z
x,-y,z
x,1/2+y,1/2+z
-x,1/2-y,1/2+z
x,1/2-y,1/2-z
-x,1/2+y,1/2-z
-x,1/2-y,1/2-z
x,1/2+y,1/2-z
-x,1/2+y,1/2+z
x,1/2-y,1/2+z
1/2+x,y,1/2+z
1/2-x,-y,1/2+z
1/2+x,-y,1/2-z
1/2-x,y,1/2-z
1/2-x,-y,1/2-z
1/2+x,y,1/2-z
1/2-x,y,1/2+z
1/2+x,-y,1/2+z
1/2+x,1/2+y,z
1/2-x,1/2-y,z
1/2+x,1/2-y,-z
1/2-x,1/2+y,-z
1/2-x,1/2-y,-z
1/2+x,1/2+y,-z
1/2-x,1/2+y,z
1/2+x,1/2-y,z
loop_
_atom_site_type_symbol
_atom_site_label
_atom_site_fract_x
_atom_site_fract_y
_atom_site_fract_z
Si Si1 0.168791 0.058609 0.000000
Si Si2 0.321449 0.808279 0.743017
Si Si3 0.449856 0.058637 0.606600
Si Si4 0.793266 0.940953 0.302902
Si Si5 0.131770 0.602660 0.685034
Si Si6 0.754458 0.690733 0.103447
Si Si7 0.771618 0.442047 0.000000
O O1 0.151543 0.086151 0.911655
O O2 0.220195 0.060835 0.000000
O O3 0.156968 0.000000 0.000000
O O4 0.329348 0.750000 0.750000
O O5 0.361908 0.841065 0.715216
O O6 0.286830 0.822029 0.664454
O O7 0.296761 0.820382 0.836995
O O8 0.441343 0.070852 0.500000
O O9 0.500000 0.069086 0.623918
O O10 0.417180 0.085707 0.673496
O O11 0.443519 0.000000 0.614967
O O12 0.750000 0.924742 0.250000
O O13 0.837068 0.924892 0.255707
O O14 0.789464 0.922796 0.405660
O O15 0.791919 0.000000 0.301978
O O16 0.750000 0.750000 0.098796
O O17 0.754158 0.672225 0.000000
O O18 0.782014 0.500000 0.000000
#
# Coordination Sequence:
#
# PCOD9511491 Si02
#       7
#    16  32  32  32  32  32  16
#     4  11  20  30  47  75 106 134 172 205 241 313
#     4   9  20  33  43  67  98 127 175 220 248 293
#     4   9  18  33  53  79 109 132 156 202 259 317
#     4  10  19  30  43  64  97 135 170 203 241 296
#     4  12  21  30  50  74  98 138 171 203 255 310
#     4   8  15  30  48  61  89 134 173 218 261 284
#     4   9  18  30  40  60 102 140 163 198 240 290
#
# _framework density 15.335775999999999
#
# number of rings (size 3 to 8) (size 9 to 14) (size 15 to 20)
#    0.000    2.333    2.500    3.000    3.500    0.000 
#    1.500    0.000    0.000    0.500    0.000    0.583 
#    0.000    3.333    0.000    0.000    0.000    0.000 
#
# Total GULP energy -267564.467828 kJ/mol
# GULP energy per Si atom -5574.259746 kJ/mol
# Density = 1.530087 g / cm^3
# Si number density = 15.335776 Si / 1000 Ang^3
#
#
#
# Elastic Constant Matrix: (Units=GPa)
#
#
# Indices 1 2 3 4 5 6 
#
# 1 102.7346 38.0756 47.4209 0.0000 0.0000 0.0000
# 2 38.0756 86.9287 31.9176 0.0000 0.0000 0.0000
# 3 47.4209 31.9176 115.6754 0.0000 0.0000 0.0000
# 4 0.0000 0.0000 0.0000 18.6335 0.0000 0.0000
# 5 0.0000 0.0000 0.0000 0.0000 24.3609 0.0000
# 6 0.0000 0.0000 0.0000 0.0000 0.0000 21.7752
#
#
#
# Elastic Compliance Matrix: (Units=1/GPa)
#
#
# Indices 1 2 3 4 5 6 
#
# 1 0.013280 -0.004248 -0.004272 0.000000 0.000000 0.000000
# 2 -0.004248 0.014160 -0.002165 0.000000 0.000000 0.000000
# 3 -0.004272 -0.002165 0.010994 0.000000 0.000000 0.000000
# 4 0.000000 0.000000 0.000000 0.053667 0.000000 0.000000
# 5 0.000000 0.000000 0.000000 0.000000 0.041049 0.000000
# 6 0.000000 0.000000 0.000000 0.000000 0.000000 0.045924
#
#
# Mechanical properties :
#
#
# Convention : Reuss Voigt Hill
#
# Bulk Modulus (GPa) = 58.60955 60.01856 59.31405
# Shear Modulus (GPa) = 24.25629 25.48222 24.86925
#
# Velocity S-wave (km/s) = 3.98135 4.08072 4.03134
# Velocity P-wave (km/s) = 7.70943 7.83736 7.77366
#
# Compressibility (1/GPa) = 0.01706207
#
# Stress axis : x y z
#
# Youngs Moduli (GPa) = 75.29990 70.62375 90.96166
#
# Poissons Ratio (x) = 0.30003 0.38859
# Poissons Ratio (y) = 0.31990 0.19696
# Poissons Ratio (z) = 0.32168 0.15293
#
# Static dielectric constant tensor:
#      x y z
#    x 1.496600 0.000000 0.000000 
#    y 0.000000 1.589400 0.000000 
#    z 0.000000 0.000000 1.523320 
# 
# From -- ./inp_files/19965.got.cif
#   From: 2010.05.17/outbox.cif.g08.bks.cpg/sg69_10_cif.got.tgz:19965.got - 2010.06.03 19:29:58.
