data_PCOD9511064
_publ_section_title
;
Structure prediction by ZEFSAII (Michael W. Deem and Ramdas Pophale) SiO2 
 PCOD9511064
Probable space group: F M M M
;
_chemical_formula_sum "Si O2"
_cell_formula_units_Z 208
_cell_length_a 15.990055
_cell_length_b 23.534595
_cell_length_c 29.119185
_cell_angle_alpha 90.000000
_cell_angle_beta 90.000000
_cell_angle_gamma 90.000000
_cell_volume 10958.116221
_symmetry_space_group_name_H-M "F M M M"
_symmetry_group_IT_number 69
_symmetry_cell_setting 'orthorhombic'
loop_
_space_group_symop_operation_xyz
x,y,z
-x,-y,z
x,-y,-z
-x,y,-z
-x,-y,-z
x,y,-z
-x,y,z
x,-y,z
x,1/2+y,1/2+z
-x,1/2-y,1/2+z
x,1/2-y,1/2-z
-x,1/2+y,1/2-z
-x,1/2-y,1/2-z
x,1/2+y,1/2-z
-x,1/2+y,1/2+z
x,1/2-y,1/2+z
1/2+x,y,1/2+z
1/2-x,-y,1/2+z
1/2+x,-y,1/2-z
1/2-x,y,1/2-z
1/2-x,-y,1/2-z
1/2+x,y,1/2-z
1/2-x,y,1/2+z
1/2+x,-y,1/2+z
1/2+x,1/2+y,z
1/2-x,1/2-y,z
1/2+x,1/2-y,-z
1/2-x,1/2+y,-z
1/2-x,1/2-y,-z
1/2+x,1/2+y,-z
1/2-x,1/2+y,z
1/2+x,1/2-y,z
loop_
_atom_site_type_symbol
_atom_site_label
_atom_site_fract_x
_atom_site_fract_y
_atom_site_fract_z
Si Si1 0.164820 0.934349 0.896777
Si Si2 0.901436 0.239618 0.301189
Si Si3 0.401420 0.869339 0.683281
Si Si4 0.000000 0.430867 0.448664
Si Si5 0.101305 0.563158 0.226586
Si Si6 0.839562 0.434128 0.054266
Si Si7 0.600409 0.867884 0.859337
O O1 0.164023 0.898096 0.850830
O O2 0.083125 0.913273 0.923193
O O3 0.242395 0.932443 0.931026
O O4 0.152605 0.000000 0.883361
O O5 0.864694 0.250000 0.250000
O O6 0.898445 0.302034 0.322640
O O7 0.868402 0.190985 0.335641
O O8 0.000000 0.224239 0.293343
O O9 0.500000 0.887146 0.675678
O O10 0.379681 0.890477 0.734559
O O11 0.000000 0.500000 0.449782
O O12 0.000000 0.409519 0.500000
O O13 0.131905 0.500000 0.238229
O O14 0.129060 0.583415 0.176459
O O15 0.000000 0.560783 0.225006
O O16 0.868558 0.500000 0.062652
O O17 0.877714 0.388460 0.089521
O O18 0.851107 0.422721 0.000000
O O19 0.500000 0.864974 0.858434
#
# Coordination Sequence:
#
# PCOD9511064 Si02
#       7
#    32  32  32  16  32  32  32
#     4  10  19  32  51  79 111 141 174 217 277 339
#     4   9  16  30  53  81 109 143 186 223 265 321
#     4  10  17  28  50  80 113 142 176 215 264 328
#     4   9  16  28  50  76 101 132 172 212 255 324
#     4   9  16  25  44  76 111 141 171 213 267 326
#     4  10  22  39  57  78 108 145 186 238 293 333
#     4  10  19  34  56  80 107 145 190 233 271 322
#
# _framework density 18.981363999999999
#
# number of rings (size 3 to 8) (size 9 to 14) (size 15 to 20)
#    0.000    2.385    2.308    1.385    0.000    3.692 
#    0.000    2.308    0.000    6.462    0.000    0.000 
#    0.000    0.000    0.000    0.000    0.000    0.000 
#
# Total GULP energy -289640.495039 kJ/mol
# GULP energy per Si atom -5570.009520 kJ/mol
# Density = 1.893816 g / cm^3
# Si number density = 18.981364 Si / 1000 Ang^3
#
#
#
# Elastic Constant Matrix: (Units=GPa)
#
#
# Indices 1 2 3 4 5 6 
#
# 1 19.9026 18.0392 12.8033 0.0000 0.0000 0.0000
# 2 18.0392 97.2162 57.9005 0.0000 0.0000 0.0000
# 3 12.8033 57.9005 134.1676 0.0000 0.0000 0.0000
# 4 0.0000 0.0000 0.0000 24.0549 0.0000 0.0000
# 5 0.0000 0.0000 0.0000 0.0000 20.1700 0.0000
# 6 0.0000 0.0000 0.0000 0.0000 0.0000 11.6682
#
#
#
# Elastic Compliance Matrix: (Units=1/GPa)
#
#
# Indices 1 2 3 4 5 6 
#
# 1 0.060559 -0.010492 -0.001251 0.000000 0.000000 0.000000
# 2 -0.010492 0.015663 -0.005758 0.000000 0.000000 0.000000
# 3 -0.001251 -0.005758 0.010058 0.000000 0.000000 0.000000
# 4 0.000000 0.000000 0.000000 0.041572 0.000000 0.000000
# 5 0.000000 0.000000 0.000000 0.000000 0.049579 0.000000
# 6 0.000000 0.000000 0.000000 0.000000 0.000000 0.085703
#
#
# Mechanical properties :
#
#
# Convention : Reuss Voigt Hill
#
# Bulk Modulus (GPa) = 19.50185 47.64139 33.57162
# Shear Modulus (GPa) = 15.86153 22.01483 18.93818
#
# Velocity S-wave (km/s) = 2.89387 3.40930 3.16210
# Velocity P-wave (km/s) = 4.63277 6.37583 5.57287
#
# Compressibility (1/GPa) = 0.05127718
#
# Stress axis : x y z
#
# Youngs Moduli (GPa) = 16.51270 63.84608 99.42675
#
# Poissons Ratio (x) = 0.66988 0.12439
# Poissons Ratio (y) = 0.17325 0.57250
# Poissons Ratio (z) = 0.02066 0.36763
#
# Static dielectric constant tensor:
#      x y z
#    x 1.749620 0.000000 0.000000 
#    y 0.000000 1.665170 0.000000 
#    z 0.000000 0.000000 1.681720 
# 
# From -- ./inp_files/42104.got.cif
#   From: 2010.05.17/outbox.cif.g08.bks.cpg/sg69_22_cif.got.tgz:42104.got - 2010.06.03 19:29:58.
