data_PCOD9511777
_publ_section_title
;
Structure prediction by ZEFSAII (Michael W. Deem and Ramdas Pophale) SiO2 
 PCOD9511777
Probable space group: F M M M
;
_chemical_formula_sum "Si O2"
_cell_formula_units_Z 144
_cell_length_a 20.267274
_cell_length_b 22.197156
_cell_length_c 15.435961
_cell_angle_alpha 90.000000
_cell_angle_beta 90.000000
_cell_angle_gamma 90.000000
_cell_volume 6944.265962
_symmetry_space_group_name_H-M "F M M M"
_symmetry_group_IT_number 69
_symmetry_cell_setting 'orthorhombic'
loop_
_space_group_symop_operation_xyz
x,y,z
-x,-y,z
x,-y,-z
-x,y,-z
-x,-y,-z
x,y,-z
-x,y,z
x,-y,z
x,1/2+y,1/2+z
-x,1/2-y,1/2+z
x,1/2-y,1/2-z
-x,1/2+y,1/2-z
-x,1/2-y,1/2-z
x,1/2+y,1/2-z
-x,1/2+y,1/2+z
x,1/2-y,1/2+z
1/2+x,y,1/2+z
1/2-x,-y,1/2+z
1/2+x,-y,1/2-z
1/2-x,y,1/2-z
1/2-x,-y,1/2-z
1/2+x,y,1/2-z
1/2-x,y,1/2+z
1/2+x,-y,1/2+z
1/2+x,1/2+y,z
1/2-x,1/2-y,z
1/2+x,1/2-y,-z
1/2-x,1/2+y,-z
1/2-x,1/2-y,-z
1/2+x,1/2+y,-z
1/2-x,1/2+y,z
1/2+x,1/2-y,z
loop_
_atom_site_type_symbol
_atom_site_label
_atom_site_fract_x
_atom_site_fract_y
_atom_site_fract_z
Si Si1 0.316392 0.428929 0.105059
Si Si2 0.925542 0.202112 0.631060
Si Si3 0.074646 0.000000 0.393633
Si Si4 0.573733 0.162433 0.332306
Si Si5 0.828502 0.898444 0.598616
O O1 0.321941 0.500000 0.125762
O O2 0.372162 0.386919 0.146012
O O3 0.244365 0.405123 0.135816
O O4 0.321331 0.423088 0.000000
O O5 0.925008 0.183268 0.732196
O O6 0.916914 0.273486 0.619301
O O7 0.863443 0.165857 0.595402
O O8 0.000000 0.185593 0.599495
O O9 0.116326 0.942683 0.363059
O O10 0.070526 0.000000 0.500000
O O11 0.000000 0.000000 0.361699
O O12 0.500000 0.139959 0.352128
O O13 0.819841 0.920358 0.500000
#
# Coordination Sequence:
#
# PCOD9511777 Si02
#       5
#    32  32  16  32  32
#     4  10  21  38  57  78 111 149 184 229 276 320
#     4   9  19  37  58  80 109 142 178 228 279 325
#     4   9  16  28  48  73 103 139 172 207 257 315
#     4   9  20  39  58  77 106 144 186 229 276 326
#     4  10  19  33  53  80 112 142 175 217 270 330
#
# _framework density 20.736533999999999
#
# number of rings (size 3 to 8) (size 9 to 14) (size 15 to 20)
#    0.000    2.556    1.111    2.000    0.000    4.889 
#    2.000    8.889    0.000    0.000    0.000    0.000 
#    0.000    0.000    0.000    0.000    0.000    0.000 
#
# Total GULP energy -200762.997590 kJ/mol
# GULP energy per Si atom -5576.749933 kJ/mol
# Density = 2.068934 g / cm^3
# Si number density = 20.736534 Si / 1000 Ang^3
#
#
#
# Elastic Constant Matrix: (Units=GPa)
#
#
# Indices 1 2 3 4 5 6 
#
# 1 234.5630 117.2977 27.1986 0.0000 0.0000 0.0000
# 2 117.2977 108.8159 23.9346 0.0000 0.0000 0.0000
# 3 27.1986 23.9346 34.0632 0.0000 0.0000 0.0000
# 4 0.0000 0.0000 0.0000 25.0017 0.0000 0.0000
# 5 0.0000 0.0000 0.0000 0.0000 19.5497 0.0000
# 6 0.0000 0.0000 0.0000 0.0000 0.0000 28.3243
#
#
#
# Elastic Compliance Matrix: (Units=1/GPa)
#
#
# Indices 1 2 3 4 5 6 
#
# 1 0.009255 -0.009877 -0.000449 0.000000 0.000000 0.000000
# 2 -0.009877 0.021411 -0.007158 0.000000 0.000000 0.000000
# 3 -0.000449 -0.007158 0.034746 0.000000 0.000000 0.000000
# 4 0.000000 0.000000 0.000000 0.039997 0.000000 0.000000
# 5 0.000000 0.000000 0.000000 0.000000 0.051152 0.000000
# 6 0.000000 0.000000 0.000000 0.000000 0.000000 0.035305
#
#
# Mechanical properties :
#
#
# Convention : Reuss Voigt Hill
#
# Bulk Modulus (GPa) = 32.84889 79.36710 56.10799
# Shear Modulus (GPa) = 21.09860 28.50922 24.80391
#
# Velocity S-wave (km/s) = 3.19323 3.71189 3.46229
# Velocity P-wave (km/s) = 5.42872 7.53180 6.56502
#
# Compressibility (1/GPa) = 0.03044243
#
# Stress axis : x y z
#
# Youngs Moduli (GPa) = 108.05446 46.70434 28.78055
#
# Poissons Ratio (x) = 0.46130 0.01293
# Poissons Ratio (y) = 1.06727 0.20601
# Poissons Ratio (z) = 0.04856 0.33431
#
# Static dielectric constant tensor:
#      x y z
#    x 1.728790 0.000000 0.000000 
#    y 0.000000 1.745990 0.000000 
#    z 0.000000 0.000000 1.821970 
# 
# From -- ./inp_files/24480.got.cif
#   From: 2010.05.17/outbox.cif.g08.bks.cpg/sg69_13_cif.got.tgz:24480.got - 2010.06.03 19:29:58.
