data_PCOD9511991
_publ_section_title
;
Structure prediction by ZEFSAII (Michael W. Deem and Ramdas Pophale) SiO2 
 PCOD9511991
Probable space group: F M M M
;
_chemical_formula_sum "Si O2"
_cell_formula_units_Z 224
_cell_length_a 18.584172
_cell_length_b 31.125280
_cell_length_c 22.203961
_cell_angle_alpha 90.000000
_cell_angle_beta 90.000000
_cell_angle_gamma 90.000000
_cell_volume 12843.604958
_symmetry_space_group_name_H-M "F M M M"
_symmetry_group_IT_number 69
_symmetry_cell_setting 'orthorhombic'
loop_
_space_group_symop_operation_xyz
x,y,z
-x,-y,z
x,-y,-z
-x,y,-z
-x,-y,-z
x,y,-z
-x,y,z
x,-y,z
x,1/2+y,1/2+z
-x,1/2-y,1/2+z
x,1/2-y,1/2-z
-x,1/2+y,1/2-z
-x,1/2-y,1/2-z
x,1/2+y,1/2-z
-x,1/2+y,1/2+z
x,1/2-y,1/2+z
1/2+x,y,1/2+z
1/2-x,-y,1/2+z
1/2+x,-y,1/2-z
1/2-x,y,1/2-z
1/2-x,-y,1/2-z
1/2+x,y,1/2-z
1/2-x,y,1/2+z
1/2+x,-y,1/2+z
1/2+x,1/2+y,z
1/2-x,1/2-y,z
1/2+x,1/2-y,-z
1/2-x,1/2+y,-z
1/2-x,1/2-y,-z
1/2+x,1/2+y,-z
1/2-x,1/2+y,z
1/2+x,1/2-y,z
loop_
_atom_site_type_symbol
_atom_site_label
_atom_site_fract_x
_atom_site_fract_y
_atom_site_fract_z
Si Si1 0.671851 0.048862 0.719828
Si Si2 0.085380 0.628096 0.239444
Si Si3 0.283204 0.449302 0.500000
Si Si4 0.708583 0.395484 0.896155
Si Si5 0.649235 0.340887 0.614581
Si Si6 0.414944 0.107823 0.000000
Si Si7 0.084160 0.244611 0.428150
Si Si8 0.415830 0.338529 0.873233
O O1 0.750000 0.047210 0.750000
O O2 0.620160 0.080722 0.756468
O O3 0.685430 0.073274 0.657610
O O4 0.644946 0.000000 0.713719
O O5 0.114538 0.650650 0.179643
O O6 0.102129 0.652977 0.302405
O O7 0.000000 0.624834 0.235682
O O8 0.275363 0.500000 0.500000
O O9 0.244310 0.426517 0.444400
O O10 0.366579 0.434977 0.500000
O O11 0.770149 0.360011 0.881956
O O12 0.636999 0.368805 0.911474
O O13 0.608978 0.366087 0.559938
O O14 0.637855 0.291395 0.596875
O O15 0.500000 0.101206 0.000000
O O16 0.094125 0.250055 0.500000
O O17 0.093687 0.289607 0.393977
O O18 0.000000 0.230831 0.419198
O O19 0.500000 0.349597 0.881382
#
# Coordination Sequence:
#
# PCOD9511991 Si02
#       8
#    32  32  16  32  32  16  32  32
#     4  10  19  35  58  79 106 146 185 222 272 330
#     4  10  20  35  56  83 113 145 183 230 279 327
#     4  10  22  37  56  83 109 140 184 226 274 335
#     4  10  21  37  58  81 111 147 180 229 280 332
#     4  11  20  34  56  83 113 149 186 225 273 328
#     4  10  20  35  53  78 112 151 185 220 268 323
#     4  10  20  35  56  81 111 149 190 227 270 332
#     4   9  21  38  56  81 110 144 186 232 283 328
#
# _framework density 17.440586
#
# number of rings (size 3 to 8) (size 9 to 14) (size 15 to 20)
#    0.000    2.000    2.143    1.714    1.000    1.571 
#    0.000    2.857    0.000    5.143    0.000    0.000 
#    0.000    0.000    0.000    0.000    0.000    0.000 
#
# Total GULP energy -312172.231732 kJ/mol
# GULP energy per Si atom -5574.504138 kJ/mol
# Density = 1.740089 g / cm^3
# Si number density = 17.440586 Si / 1000 Ang^3
#
#
#
# Elastic Constant Matrix: (Units=GPa)
#
#
# Indices 1 2 3 4 5 6 
#
# 1 72.5553 50.8662 32.3543 0.0000 0.0000 0.0000
# 2 50.8662 127.4745 36.6193 0.0000 0.0000 0.0000
# 3 32.3543 36.6193 51.8159 0.0000 0.0000 0.0000
# 4 0.0000 0.0000 0.0000 21.8176 0.0000 0.0000
# 5 0.0000 0.0000 0.0000 0.0000 14.1671 0.0000
# 6 0.0000 0.0000 0.0000 0.0000 0.0000 13.8752
#
#
#
# Elastic Compliance Matrix: (Units=1/GPa)
#
#
# Indices 1 2 3 4 5 6 
#
# 1 0.022404 -0.006175 -0.009625 0.000000 0.000000 0.000000
# 2 -0.006175 0.011545 -0.004303 0.000000 0.000000 0.000000
# 3 -0.009625 -0.004303 0.028350 0.000000 0.000000 0.000000
# 4 0.000000 0.000000 0.000000 0.045835 0.000000 0.000000
# 5 0.000000 0.000000 0.000000 0.000000 0.070586 0.000000
# 6 0.000000 0.000000 0.000000 0.000000 0.000000 0.072071
#
#
# Mechanical properties :
#
#
# Convention : Reuss Voigt Hill
#
# Bulk Modulus (GPa) = 45.26479 54.61392 49.93936
# Shear Modulus (GPa) = 16.75820 18.77236 17.76528
#
# Velocity S-wave (km/s) = 3.10316 3.28435 3.19504
# Velocity P-wave (km/s) = 6.23294 6.76497 6.50440
#
# Compressibility (1/GPa) = 0.02209223
#
# Stress axis : x y z
#
# Youngs Moduli (GPa) = 44.63558 86.61873 35.27275
#
# Poissons Ratio (x) = 0.53485 0.33951
# Poissons Ratio (y) = 0.27561 0.15179
# Poissons Ratio (z) = 0.42963 0.37276
#
# Static dielectric constant tensor:
#      x y z
#    x 1.590740 0.000000 0.000000 
#    y 0.000000 1.575960 0.000000 
#    z 0.000000 0.000000 1.565520 
# 
# From -- ./inp_files/31217.got.cif
#   From: 2010.05.17/outbox.cif.g08.bks.cpg/sg69_16_cif.got.tgz:31217.got - 2010.06.03 19:29:58.
