data_PCOD9511208
_publ_section_title
;
Structure prediction by ZEFSAII (Michael W. Deem and Ramdas Pophale) SiO2 
 PCOD9511208
Probable space group: F M M M
;
_chemical_formula_sum "Si O2"
_cell_formula_units_Z 192
_cell_length_a 30.388192
_cell_length_b 28.300690
_cell_length_c 11.569129
_cell_angle_alpha 90.000000
_cell_angle_beta 90.000000
_cell_angle_gamma 90.000000
_cell_volume 9949.529627
_symmetry_space_group_name_H-M "F M M M"
_symmetry_group_IT_number 69
_symmetry_cell_setting 'orthorhombic'
loop_
_space_group_symop_operation_xyz
x,y,z
-x,-y,z
x,-y,-z
-x,y,-z
-x,-y,-z
x,y,-z
-x,y,z
x,-y,z
x,1/2+y,1/2+z
-x,1/2-y,1/2+z
x,1/2-y,1/2-z
-x,1/2+y,1/2-z
-x,1/2-y,1/2-z
x,1/2+y,1/2-z
-x,1/2+y,1/2+z
x,1/2-y,1/2+z
1/2+x,y,1/2+z
1/2-x,-y,1/2+z
1/2+x,-y,1/2-z
1/2-x,y,1/2-z
1/2-x,-y,1/2-z
1/2+x,y,1/2-z
1/2-x,y,1/2+z
1/2+x,-y,1/2+z
1/2+x,1/2+y,z
1/2-x,1/2-y,z
1/2+x,1/2-y,-z
1/2-x,1/2+y,-z
1/2-x,1/2-y,-z
1/2+x,1/2+y,-z
1/2-x,1/2+y,z
1/2+x,1/2-y,z
loop_
_atom_site_type_symbol
_atom_site_label
_atom_site_fract_x
_atom_site_fract_y
_atom_site_fract_z
Si Si1 0.951037 0.658236 0.000000
Si Si2 0.859282 0.053467 0.298335
Si Si3 0.051896 0.306542 0.754808
Si Si4 0.773234 0.821425 0.133315
Si Si5 0.369535 0.857297 0.634511
Si Si6 0.736639 0.071347 0.875291
Si Si7 0.069904 0.448309 0.000000
O O1 0.931171 0.675976 0.880481
O O2 0.954007 0.601758 0.000000
O O3 0.000000 0.679619 0.000000
O O4 0.865965 0.094044 0.204705
O O5 0.815757 0.067016 0.369517
O O6 0.899550 0.053081 0.386954
O O7 0.854200 0.000000 0.251885
O O8 0.053573 0.250000 0.750000
O O9 0.085753 0.329971 0.666243
O O10 0.000000 0.320539 0.739849
O O11 0.750000 0.801338 0.250000
O O12 0.825453 0.826492 0.157797
O O13 0.753765 0.874809 0.126075
O O14 0.767504 0.802326 0.000000
O O15 0.368612 0.868344 0.500000
O O16 0.750000 0.051197 0.750000
O O17 0.751842 0.051918 0.000000
O O18 0.047755 0.500000 0.000000
#
# Coordination Sequence:
#
# PCOD9511208 Si02
#       7
#    16  32  32  32  32  32  16
#     4  10  20  37  64  94 119 145 192 243 299 373
#     4  11  21  34  52  79 115 159 208 250 292 352
#     4  10  23  42  66  95 122 149 188 246 312 371
#     4   9  17  31  51  79 113 154 200 246 290 349
#     4  11  22  38  59  86 120 159 201 244 300 364
#     4  10  18  30  47  72 110 155 203 253 301 349
#     4  10  20  35  56  82 115 155 199 244 291 353
#
# _framework density 19.297394000000001
#
# number of rings (size 3 to 8) (size 9 to 14) (size 15 to 20)
#    0.000    1.833    5.833    0.000    1.167    1.167 
#    1.500    0.000    0.000    1.000    0.000    3.500 
#    0.000    0.000    0.000    0.000    0.000    0.000 
#
# Total GULP energy -267301.736109 kJ/mol
# GULP energy per Si atom -5568.786169 kJ/mol
# Density = 1.925347 g / cm^3
# Si number density = 19.297394 Si / 1000 Ang^3
#
#
#
# Elastic Constant Matrix: (Units=GPa)
#
#
# Indices 1 2 3 4 5 6 
#
# 1 93.9844 31.0139 44.5086 -0.0002 0.0003 0.0002
# 2 31.0139 87.7962 29.3142 -0.0004 0.0007 0.0005
# 3 44.5086 29.3142 165.7341 -0.0004 0.0007 0.0017
# 4 -0.0002 -0.0004 -0.0004 -2.9386 0.0005 0.0009
# 5 0.0003 0.0007 0.0007 0.0005 67.0949 -0.0005
# 6 0.0002 0.0005 0.0017 0.0009 -0.0005 -15.3677
#
#
#
# Elastic Compliance Matrix: (Units=1/GPa)
#
#
# Indices 1 2 3 4 5 6 
#
# 1 0.013236 -0.003708 -0.002899 0.000000 0.000000 0.000000
# 2 -0.003708 0.013144 -0.001329 -0.000001 0.000000 0.000000
# 3 -0.002899 -0.001329 0.007047 -0.000001 0.000000 0.000001
# 4 0.000000 -0.000001 -0.000001 -0.340297 0.000003 -0.000020
# 5 0.000000 0.000000 0.000000 0.000003 0.014904 0.000000
# 6 0.000000 0.000000 0.000001 -0.000020 0.000000 -0.065072
#
#
# Mechanical properties :
#
#
# Convention : Reuss Voigt Hill
#
# Bulk Modulus (GPa) = 56.96103 61.90978 59.43540
# Shear Modulus (GPa) = -14.91140 25.93627 5.51243
#
# Velocity S-wave (km/s) = -2.78279 3.67008 1.69197
# Velocity P-wave (km/s) = 4.38820 7.07890 5.88928
#
# Compressibility (1/GPa) = 0.01755586
#
# Stress axis : x y z
#
# Youngs Moduli (GPa) = 75.54892 76.08299 141.89767
#
# Poissons Ratio (x) = 0.28210 0.41134
# Poissons Ratio (y) = 0.28012 0.18858
# Poissons Ratio (z) = 0.21901 0.10111
#
# Static dielectric constant tensor:
#      x y z
#    x 1.674220 0.000000 0.000000 
#    y 0.000000 1.666310 0.000000 
#    z 0.000000 0.000000 1.729470 
# 
# From -- ./inp_files/12445.got.cif
#   From: 2010.05.17/outbox.cif.g08.bks.cpg/sg69_7_cif.got.tgz:12445.got - 2010.06.03 19:29:58.
