data_PCOD9511659
_publ_section_title
;
Structure prediction by ZEFSAII (Michael W. Deem and Ramdas Pophale) SiO2 
 PCOD9511659
Probable space group: F M M M
;
_chemical_formula_sum "Si O2"
_cell_formula_units_Z 176
_cell_length_a 27.323658
_cell_length_b 16.063797
_cell_length_c 23.917196
_cell_angle_alpha 90.000000
_cell_angle_beta 90.000000
_cell_angle_gamma 90.000000
_cell_volume 10497.776218
_symmetry_space_group_name_H-M "F M M M"
_symmetry_group_IT_number 69
_symmetry_cell_setting 'orthorhombic'
loop_
_space_group_symop_operation_xyz
x,y,z
-x,-y,z
x,-y,-z
-x,y,-z
-x,-y,-z
x,y,-z
-x,y,z
x,-y,z
x,1/2+y,1/2+z
-x,1/2-y,1/2+z
x,1/2-y,1/2-z
-x,1/2+y,1/2-z
-x,1/2-y,1/2-z
x,1/2+y,1/2-z
-x,1/2+y,1/2+z
x,1/2-y,1/2+z
1/2+x,y,1/2+z
1/2-x,-y,1/2+z
1/2+x,-y,1/2-z
1/2-x,y,1/2-z
1/2-x,-y,1/2-z
1/2+x,y,1/2-z
1/2-x,y,1/2+z
1/2+x,-y,1/2+z
1/2+x,1/2+y,z
1/2-x,1/2-y,z
1/2+x,1/2-y,-z
1/2-x,1/2+y,-z
1/2-x,1/2-y,-z
1/2+x,1/2+y,-z
1/2-x,1/2+y,z
1/2+x,1/2-y,z
loop_
_atom_site_type_symbol
_atom_site_label
_atom_site_fract_x
_atom_site_fract_y
_atom_site_fract_z
Si Si1 0.605564 0.343947 0.626234
Si Si2 0.056435 0.000000 0.433300
Si Si3 0.366133 0.409253 0.064041
Si Si4 0.556622 0.400559 0.263863
Si Si5 0.943068 0.666838 0.640706
Si Si6 0.693059 0.740802 0.566192
O O1 0.583127 0.417660 0.589056
O O2 0.595825 0.374412 0.689543
O O3 0.574817 0.258342 0.622780
O O4 0.659746 0.319917 0.604275
O O5 0.056445 0.000000 0.500000
O O6 0.000000 0.000000 0.413058
O O7 0.342948 0.500000 0.071621
O O8 0.410663 0.397198 0.105964
O O9 0.329735 0.332783 0.072416
O O10 0.383839 0.403692 0.000000
O O11 0.500000 0.383278 0.282818
O O12 0.559569 0.500000 0.253896
O O13 0.564332 0.350599 0.206511
O O14 0.000000 0.656740 0.629053
O O15 0.689032 0.717126 0.500000
O O16 0.750000 0.750000 0.580625
#
# Coordination Sequence:
#
# PCOD9511659 Si02
#       6
#    32  16  32  32  32  32
#     4  11  20  34  53  75 106 144 180 223 271 323
#     4  11  22  34  50  78 118 153 179 217 272 341
#     4   9  18  33  52  75 103 132 166 217 280 331
#     4  10  19  32  51  77 111 145 181 224 266 318
#     4  10  20  32  51  77 106 145 187 219 259 321
#     4   9  19  37  57  77 102 132 177 232 278 327
#
# _framework density 16.765456
#
# number of rings (size 3 to 8) (size 9 to 14) (size 15 to 20)
#    0.000    2.091    0.909    3.273    0.000    3.636 
#    1.636    0.909    0.000    8.727    0.000    6.364 
#    0.000    0.000    0.000    0.000    0.000    0.000 
#
# Total GULP energy -245288.555468 kJ/mol
# GULP energy per Si atom -5574.739897 kJ/mol
# Density = 1.672730 g / cm^3
# Si number density = 16.765456 Si / 1000 Ang^3
#
#
#
# Elastic Constant Matrix: (Units=GPa)
#
#
# Indices 1 2 3 4 5 6 
#
# 1 127.3665 40.8799 66.9920 0.0000 0.0000 0.0000
# 2 40.8799 92.8636 37.5676 0.0000 0.0000 0.0000
# 3 66.9920 37.5676 72.8379 0.0000 0.0000 0.0000
# 4 0.0000 0.0000 0.0000 -19.0021 0.0000 0.0000
# 5 0.0000 0.0000 0.0000 0.0000 23.1229 0.0000
# 6 0.0000 0.0000 0.0000 0.0000 0.0000 14.3602
#
#
#
# Elastic Compliance Matrix: (Units=1/GPa)
#
#
# Indices 1 2 3 4 5 6 
#
# 1 0.015336 -0.001320 -0.013424 0.000000 0.000000 0.000000
# 2 -0.001320 0.013721 -0.005863 0.000000 0.000000 0.000000
# 3 -0.013424 -0.005863 0.029100 0.000000 0.000000 0.000000
# 4 0.000000 0.000000 0.000000 -0.052626 0.000000 0.000000
# 5 0.000000 0.000000 0.000000 0.000000 0.043247 0.000000
# 6 0.000000 0.000000 0.000000 0.000000 0.000000 0.069637
#
#
# Mechanical properties :
#
#
# Convention : Reuss Voigt Hill
#
# Bulk Modulus (GPa) = 59.02262 64.88300 61.95281
# Shear Modulus (GPa) = 30.25222 13.53810 21.89516
#
# Velocity S-wave (km/s) = 4.25248 2.84474 3.61774
# Velocity P-wave (km/s) = 7.70667 7.04091 7.38130
#
# Compressibility (1/GPa) = 0.01694266
#
# Stress axis : x y z
#
# Youngs Moduli (GPa) = 65.20639 72.87849 34.36485
#
# Poissons Ratio (x) = 0.09623 0.46131
# Poissons Ratio (y) = 0.08610 0.20147
# Poissons Ratio (z) = 0.87533 0.42726
#
# Static dielectric constant tensor:
#      x y z
#    x 1.537060 0.000000 0.000000 
#    y 0.000000 1.577060 0.000000 
#    z 0.000000 0.000000 1.573610 
# 
# From -- ./inp_files/18082.got.cif
#   From: 2010.05.17/outbox.cif.g08.bks.cpg/sg69_10_cif.got.tgz:18082.got - 2010.06.03 19:29:58.
