data_PCOD9511404
_publ_section_title
;
Structure prediction by ZEFSAII (Michael W. Deem and Ramdas Pophale) SiO2 
 PCOD9511404
Probable space group: F M M M
;
_chemical_formula_sum "Si O2"
_cell_formula_units_Z 192
_cell_length_a 20.873061
_cell_length_b 28.456036
_cell_length_c 19.360541
_cell_angle_alpha 90.000000
_cell_angle_beta 90.000000
_cell_angle_gamma 90.000000
_cell_volume 11499.475512
_symmetry_space_group_name_H-M "F M M M"
_symmetry_group_IT_number 69
_symmetry_cell_setting 'orthorhombic'
loop_
_space_group_symop_operation_xyz
x,y,z
-x,-y,z
x,-y,-z
-x,y,-z
-x,-y,-z
x,y,-z
-x,y,z
x,-y,z
x,1/2+y,1/2+z
-x,1/2-y,1/2+z
x,1/2-y,1/2-z
-x,1/2+y,1/2-z
-x,1/2-y,1/2-z
x,1/2+y,1/2-z
-x,1/2+y,1/2+z
x,1/2-y,1/2+z
1/2+x,y,1/2+z
1/2-x,-y,1/2+z
1/2+x,-y,1/2-z
1/2-x,y,1/2-z
1/2-x,-y,1/2-z
1/2+x,y,1/2-z
1/2-x,y,1/2+z
1/2+x,-y,1/2+z
1/2+x,1/2+y,z
1/2-x,1/2-y,z
1/2+x,1/2-y,-z
1/2-x,1/2+y,-z
1/2-x,1/2-y,-z
1/2+x,1/2+y,-z
1/2-x,1/2+y,z
1/2+x,1/2-y,z
loop_
_atom_site_type_symbol
_atom_site_label
_atom_site_fract_x
_atom_site_fract_y
_atom_site_fract_z
Si Si1 0.384518 0.656498 0.080270
Si Si2 0.815229 0.647835 0.203951
Si Si3 0.222872 0.550374 0.827849
Si Si4 0.851304 0.553150 0.417452
Si Si5 0.760133 0.805640 0.575668
Si Si6 0.926738 0.198211 0.218148
O O1 0.390953 0.600757 0.098632
O O2 0.308683 0.668976 0.083986
O O3 0.418030 0.690297 0.135808
O O4 0.404162 0.663161 0.000000
O O5 0.750000 0.650063 0.250000
O O6 0.821239 0.595640 0.173446
O O7 0.804636 0.681202 0.138891
O O8 0.874780 0.663653 0.248791
O O9 0.192813 0.500000 0.844616
O O10 0.250000 0.547851 0.750000
O O11 0.283868 0.557313 0.877624
O O12 0.840825 0.554802 0.500000
O O13 0.876710 0.500000 0.401401
O O14 0.785639 0.819103 0.500000
O O15 0.750000 0.750000 0.576417
O O16 0.913561 0.250000 0.250000
O O17 0.000000 0.186881 0.236026
#
# Coordination Sequence:
#
# PCOD9511404 Si02
#       6
#    32  32  32  32  32  32
#     4  10  18  33  54  78 107 139 172 212 266 320
#     4  11  19  31  54  76  98 136 171 216 261 308
#     4   9  16  26  42  69 102 132 166 205 251 300
#     4   9  16  27  47  78 114 143 168 207 260 318
#     4  10  19  29  46  76 106 129 165 217 262 302
#     4  11  24  39  53  74 104 139 180 224 266 318
#
# _framework density 16.696414000000001
#
# number of rings (size 3 to 8) (size 9 to 14) (size 15 to 20)
#    0.000    2.000    3.333    2.000    0.000    0.333 
#    0.000    0.000    0.000    3.500    0.000    2.333 
#    0.000    0.000    0.000    5.667    0.000    0.000 
#
# Total GULP energy -267296.792583 kJ/mol
# GULP energy per Si atom -5568.683179 kJ/mol
# Density = 1.665841 g / cm^3
# Si number density = 16.696414 Si / 1000 Ang^3
#
#
#
# Elastic Constant Matrix: (Units=GPa)
#
#
# Indices 1 2 3 4 5 6 
#
# 1 36.3070 17.0724 17.4857 0.0000 0.0000 0.0000
# 2 17.0724 102.7971 36.8706 0.0000 0.0000 0.0000
# 3 17.4857 36.8706 82.0464 0.0000 0.0000 0.0000
# 4 0.0000 0.0000 0.0000 27.8875 0.0000 0.0000
# 5 0.0000 0.0000 0.0000 0.0000 10.5672 0.0000
# 6 0.0000 0.0000 0.0000 0.0000 0.0000 3.2192
#
#
#
# Elastic Compliance Matrix: (Units=1/GPa)
#
#
# Indices 1 2 3 4 5 6 
#
# 1 0.031650 -0.003382 -0.005225 0.000000 0.000000 0.000000
# 2 -0.003382 0.011959 -0.004653 0.000000 0.000000 0.000000
# 3 -0.005225 -0.004653 0.015393 0.000000 0.000000 0.000000
# 4 0.000000 0.000000 0.000000 0.035858 0.000000 0.000000
# 5 0.000000 0.000000 0.000000 0.000000 0.094633 0.000000
# 6 0.000000 0.000000 0.000000 0.000000 0.000000 0.310641
#
#
# Mechanical properties :
#
#
# Convention : Reuss Voigt Hill
#
# Bulk Modulus (GPa) = 30.78823 40.44532 35.61678
# Shear Modulus (GPa) = 9.30265 18.31621 13.80943
#
# Velocity S-wave (km/s) = 2.36299 3.31571 2.87904
# Velocity P-wave (km/s) = 5.09166 6.23980 5.69474
#
# Compressibility (1/GPa) = 0.03247994
#
# Stress axis : x y z
#
# Youngs Moduli (GPa) = 31.59575 83.62190 64.96483
#
# Poissons Ratio (x) = 0.28282 0.33946
# Poissons Ratio (y) = 0.10686 0.30230
# Poissons Ratio (z) = 0.16510 0.38911
#
# Static dielectric constant tensor:
#      x y z
#    x 1.532310 0.000000 0.000000 
#    y 0.000000 1.651020 0.000000 
#    z 0.000000 0.000000 1.799150 
# 
# From -- ./inp_files/32983.got.cif
#   From: 2010.05.17/outbox.cif.g08.bks.cpg/sg69_17_cif.got.tgz:32983.got - 2010.06.03 19:29:58.
