data_PCOD9511325
_publ_section_title
;
Structure prediction by ZEFSAII (Michael W. Deem and Ramdas Pophale) SiO2 
 PCOD9511325
Probable space group: F M M M
;
_chemical_formula_sum "Si O2"
_cell_formula_units_Z 128
_cell_length_a 18.328128
_cell_length_b 14.971261
_cell_length_c 23.615354
_cell_angle_alpha 90.000000
_cell_angle_beta 90.000000
_cell_angle_gamma 90.000000
_cell_volume 6479.939499
_symmetry_space_group_name_H-M "F M M M"
_symmetry_group_IT_number 69
_symmetry_cell_setting 'orthorhombic'
loop_
_space_group_symop_operation_xyz
x,y,z
-x,-y,z
x,-y,-z
-x,y,-z
-x,-y,-z
x,y,-z
-x,y,z
x,-y,z
x,1/2+y,1/2+z
-x,1/2-y,1/2+z
x,1/2-y,1/2-z
-x,1/2+y,1/2-z
-x,1/2-y,1/2-z
x,1/2+y,1/2-z
-x,1/2+y,1/2+z
x,1/2-y,1/2+z
1/2+x,y,1/2+z
1/2-x,-y,1/2+z
1/2+x,-y,1/2-z
1/2-x,y,1/2-z
1/2-x,-y,1/2-z
1/2+x,y,1/2-z
1/2-x,y,1/2+z
1/2+x,-y,1/2+z
1/2+x,1/2+y,z
1/2-x,1/2-y,z
1/2+x,1/2-y,-z
1/2-x,1/2+y,-z
1/2-x,1/2-y,-z
1/2+x,1/2+y,-z
1/2-x,1/2+y,z
1/2+x,1/2-y,z
loop_
_atom_site_type_symbol
_atom_site_label
_atom_site_fract_x
_atom_site_fract_y
_atom_site_fract_z
Si Si1 0.138140 0.096757 0.500000
Si Si2 0.083168 0.256989 0.816404
Si Si3 0.164873 0.213994 0.000000
Si Si4 0.311746 0.598459 0.628039
Si Si5 0.145472 0.104588 0.884943
O O1 0.111178 0.199151 0.500000
O O2 0.181453 0.095751 0.440538
O O3 0.097068 0.000000 0.500000
O O4 0.099682 0.250000 0.750000
O O5 0.138171 0.324579 0.847159
O O6 0.092417 0.160550 0.845181
O O7 0.000000 0.288600 0.823234
O O8 0.250000 0.250000 0.000000
O O9 0.150336 0.154832 0.944974
O O10 0.334704 0.500000 0.648569
O O11 0.226979 0.612073 0.641107
O O12 0.128339 0.000000 0.891231
#
# Coordination Sequence:
#
# PCOD9511325 Si02
#       5
#    16  32  16  32  32
#     4  10  18  31  58  94 125 149 183 235 296 352
#     4  11  25  43  60  80 113 159 205 247 295 351
#     4  12  17  31  60  92 128 158 186 232 290 361
#     4  10  20  37  62  92 119 147 190 243 295 348
#     4  11  22  37  61  93 124 155 194 241 294 353
#
# _framework density 19.753271000000002
#
# number of rings (size 3 to 8) (size 9 to 14) (size 15 to 20)
#    0.000    1.250    5.000    1.125    0.000    4.000 
#    0.000    7.500    0.000    3.750    0.000    0.000 
#    0.000    0.000    0.000    0.000    0.000    0.000 
#
# Total GULP energy -178444.445003 kJ/mol
# GULP energy per Si atom -5576.388906 kJ/mol
# Density = 1.970831 g / cm^3
# Si number density = 19.753271 Si / 1000 Ang^3
#
#
#
# Elastic Constant Matrix: (Units=GPa)
#
#
# Indices 1 2 3 4 5 6 
#
# 1 28.2689 27.2848 26.6496 0.0000 0.0000 0.0000
# 2 27.2848 175.4130 41.8663 0.0000 0.0000 0.0000
# 3 26.6496 41.8663 84.0707 0.0000 0.0000 0.0000
# 4 0.0000 0.0000 0.0000 6.4888 0.0000 0.0000
# 5 0.0000 0.0000 0.0000 0.0000 11.9796 0.0000
# 6 0.0000 0.0000 0.0000 0.0000 0.0000 9.6959
#
#
#
# Elastic Compliance Matrix: (Units=1/GPa)
#
#
# Indices 1 2 3 4 5 6 
#
# 1 0.053906 -0.004887 -0.014654 0.000000 0.000000 0.000000
# 2 -0.004887 0.006913 -0.001893 0.000000 0.000000 0.000000
# 3 -0.014654 -0.001893 0.017483 0.000000 0.000000 0.000000
# 4 0.000000 0.000000 0.000000 0.154112 0.000000 0.000000
# 5 0.000000 0.000000 0.000000 0.000000 0.083476 0.000000
# 6 0.000000 0.000000 0.000000 0.000000 0.000000 0.103136
#
#
# Mechanical properties :
#
#
# Convention : Reuss Voigt Hill
#
# Bulk Modulus (GPa) = 28.22245 53.26156 40.74200
# Shear Modulus (GPa) = 10.55507 18.42964 14.49235
#
# Velocity S-wave (km/s) = 2.31410 3.05781 2.71157
# Velocity P-wave (km/s) = 4.63234 6.28401 5.52030
#
# Compressibility (1/GPa) = 0.03543279
#
# Stress axis : x y z
#
# Youngs Moduli (GPa) = 18.55067 144.65639 57.19926
#
# Poissons Ratio (x) = 0.70700 0.83819
# Poissons Ratio (y) = 0.09067 0.10830
# Poissons Ratio (z) = 0.27184 0.27388
#
# Static dielectric constant tensor:
#      x y z
#    x 1.680680 0.000000 0.000000 
#    y 0.000000 1.747650 0.000000 
#    z 0.000000 0.000000 1.674960 
# 
# From -- ./inp_files/16346.got.cif
#   From: 2010.05.17/outbox.cif.g08.bks.cpg/sg69_9_cif.got.tgz:16346.got - 2010.06.03 19:29:58.
