data_PCOD9511999
_publ_section_title
;
Structure prediction by ZEFSAII (Michael W. Deem and Ramdas Pophale) SiO2 
 PCOD9511999
Probable space group: F M M M
;
_chemical_formula_sum "Si O2"
_cell_formula_units_Z 160
_cell_length_a 20.114447
_cell_length_b 21.744200
_cell_length_c 18.126015
_cell_angle_alpha 90.000000
_cell_angle_beta 90.000000
_cell_angle_gamma 90.000000
_cell_volume 7927.821555
_symmetry_space_group_name_H-M "F M M M"
_symmetry_group_IT_number 69
_symmetry_cell_setting 'orthorhombic'
loop_
_space_group_symop_operation_xyz
x,y,z
-x,-y,z
x,-y,-z
-x,y,-z
-x,-y,-z
x,y,-z
-x,y,z
x,-y,z
x,1/2+y,1/2+z
-x,1/2-y,1/2+z
x,1/2-y,1/2-z
-x,1/2+y,1/2-z
-x,1/2-y,1/2-z
x,1/2+y,1/2-z
-x,1/2+y,1/2+z
x,1/2-y,1/2+z
1/2+x,y,1/2+z
1/2-x,-y,1/2+z
1/2+x,-y,1/2-z
1/2-x,y,1/2-z
1/2-x,-y,1/2-z
1/2+x,y,1/2-z
1/2-x,y,1/2+z
1/2+x,-y,1/2+z
1/2+x,1/2+y,z
1/2-x,1/2-y,z
1/2+x,1/2-y,-z
1/2-x,1/2+y,-z
1/2-x,1/2-y,-z
1/2+x,1/2+y,-z
1/2-x,1/2+y,z
1/2+x,1/2-y,z
loop_
_atom_site_type_symbol
_atom_site_label
_atom_site_fract_x
_atom_site_fract_y
_atom_site_fract_z
Si Si1 0.363798 0.795358 0.815238
Si Si2 0.706785 0.000000 0.083006
Si Si3 0.927458 0.104486 0.784003
Si Si4 0.257706 0.861338 0.916951
Si Si5 0.829809 0.500000 0.759153
Si Si6 0.392444 0.686832 0.084590
O O1 0.338552 0.750000 0.750000
O O2 0.413487 0.841938 0.775218
O O3 0.305639 0.833224 0.855363
O O4 0.398798 0.752421 0.875773
O O5 0.746439 0.064416 0.089786
O O6 0.657767 0.000000 0.152513
O O7 0.677731 0.000000 0.000000
O O8 0.866237 0.058270 0.775570
O O9 0.925784 0.136117 0.863870
O O10 0.000000 0.076318 0.771395
O O11 0.186106 0.829991 0.912510
O O12 0.284294 0.848597 0.000000
O O13 0.750000 0.500000 0.750000
O O14 0.413763 0.686641 0.000000
#
# Coordination Sequence:
#
# PCOD9511999 Si02
#       6
#    32  16  32  32  16  32
#     4  10  21  35  59  87 125 167 213 255 315 373
#     4  10  20  35  62  92 123 158 195 256 327 382
#     4  11  25  42  63  93 130 166 207 260 316 377
#     4  10  19  35  58  92 127 159 204 267 325 369
#     4  12  23  43  72  97 123 164 213 260 320 374
#     4  10  22  38  60  90 127 170 213 260 316 373
#
# _framework density 20.182089999999999
#
# number of rings (size 3 to 8) (size 9 to 14) (size 15 to 20)
#    0.000    1.600    2.000    2.700    0.000   10.400 
#    0.000    0.500    0.000    6.600    0.000    0.000 
#    0.000    0.000    0.000    0.000    0.000    0.000 
#
# Total GULP energy -223400.856934 kJ/mol
# GULP energy per Si atom -5585.021423 kJ/mol
# Density = 2.013615 g / cm^3
# Si number density = 20.182090 Si / 1000 Ang^3
#
#
#
# Elastic Constant Matrix: (Units=GPa)
#
#
# Indices 1 2 3 4 5 6 
#
# 1 98.0037 31.5909 44.3003 0.0000 0.0000 0.0000
# 2 31.5909 110.9158 51.2587 0.0000 0.0000 0.0000
# 3 44.3003 51.2587 152.1059 0.0000 0.0000 0.0000
# 4 0.0000 0.0000 0.0000 30.2802 0.0000 0.0000
# 5 0.0000 0.0000 0.0000 0.0000 -9.6807 0.0000
# 6 0.0000 0.0000 0.0000 0.0000 0.0000 -19.9948
#
#
#
# Elastic Compliance Matrix: (Units=1/GPa)
#
#
# Indices 1 2 3 4 5 6 
#
# 1 0.012175 -0.002166 -0.002816 0.000000 0.000000 0.000000
# 2 -0.002166 0.011064 -0.003098 0.000000 0.000000 0.000000
# 3 -0.002816 -0.003098 0.008438 0.000000 0.000000 0.000000
# 4 0.000000 0.000000 0.000000 0.033025 0.000000 0.000000
# 5 0.000000 0.000000 0.000000 0.000000 -0.103299 0.000000
# 6 0.000000 0.000000 0.000000 0.000000 0.000000 -0.050013
#
#
# Mechanical properties :
#
#
# Convention : Reuss Voigt Hill
#
# Bulk Modulus (GPa) = 64.44164 68.36947 66.40555
# Shear Modulus (GPa) = -74.32004 15.71263 -29.30370
#
# Velocity S-wave (km/s) = -6.07492 2.79327 -3.81460
# Velocity P-wave (km/s) = 4.14811 6.65980 3.68416
#
# Compressibility (1/GPa) = 0.01551792
#
# Stress axis : x y z
#
# Youngs Moduli (GPa) = 82.13666 90.37973 118.50613
#
# Poissons Ratio (x) = 0.19579 0.33370
# Poissons Ratio (y) = 0.17793 0.36710
# Poissons Ratio (z) = 0.23128 0.27997
#
# Static dielectric constant tensor:
#      x y z
#    x 1.677250 0.000000 0.000000 
#    y 0.000000 1.737050 0.000000 
#    z 0.000000 0.000000 1.735700 
# 
# From -- ./inp_files/24610.got.cif
#   From: 2010.05.17/outbox.cif.g08.bks.cpg/sg69_13_cif.got.tgz:24610.got - 2010.06.03 19:29:58.
