data_PCOD9511002
_publ_section_title
;
Structure prediction by ZEFSAII (Michael W. Deem and Ramdas Pophale) SiO2 
 PCOD9511002
Probable space group: F M M M
;
_chemical_formula_sum "Si O2"
_cell_formula_units_Z 192
_cell_length_a 29.444989
_cell_length_b 21.789083
_cell_length_c 18.035919
_cell_angle_alpha 90.000000
_cell_angle_beta 90.000000
_cell_angle_gamma 90.000000
_cell_volume 11571.472454
_symmetry_space_group_name_H-M "F M M M"
_symmetry_group_IT_number 69
_symmetry_cell_setting 'orthorhombic'
loop_
_space_group_symop_operation_xyz
x,y,z
-x,-y,z
x,-y,-z
-x,y,-z
-x,-y,-z
x,y,-z
-x,y,z
x,-y,z
x,1/2+y,1/2+z
-x,1/2-y,1/2+z
x,1/2-y,1/2-z
-x,1/2+y,1/2-z
-x,1/2-y,1/2-z
x,1/2+y,1/2-z
-x,1/2+y,1/2+z
x,1/2-y,1/2+z
1/2+x,y,1/2+z
1/2-x,-y,1/2+z
1/2+x,-y,1/2-z
1/2-x,y,1/2-z
1/2-x,-y,1/2-z
1/2+x,y,1/2-z
1/2-x,y,1/2+z
1/2+x,-y,1/2+z
1/2+x,1/2+y,z
1/2-x,1/2-y,z
1/2+x,1/2-y,-z
1/2-x,1/2+y,-z
1/2-x,1/2-y,-z
1/2+x,1/2+y,-z
1/2-x,1/2+y,z
1/2+x,1/2-y,z
loop_
_atom_site_type_symbol
_atom_site_label
_atom_site_fract_x
_atom_site_fract_y
_atom_site_fract_z
Si Si1 0.448359 0.243048 0.412259
Si Si2 0.769233 0.687614 0.664641
Si Si3 0.875138 0.809094 0.804350
Si Si4 0.622294 0.930716 0.791464
Si Si5 0.227544 0.433479 0.832285
Si Si6 0.446968 0.389881 0.413327
O O1 0.445501 0.231444 0.500000
O O2 0.500000 0.229422 0.387549
O O3 0.411433 0.205057 0.367721
O O4 0.441225 0.316339 0.402198
O O5 0.750000 0.687340 0.750000
O O6 0.750000 0.750000 0.630325
O O7 0.823327 0.687954 0.667516
O O8 0.749780 0.625419 0.629931
O O9 0.877458 0.750000 0.750000
O O10 0.885130 0.873446 0.763458
O O11 0.673878 0.924201 0.821227
O O12 0.586832 0.923698 0.858350
O O13 0.618803 0.000000 0.759543
O O14 0.235462 0.500000 0.867759
O O15 0.250000 0.436595 0.750000
O O16 0.437952 0.403141 0.500000
O O17 0.500000 0.404287 0.398952
#
# Coordination Sequence:
#
# PCOD9511002 Si02
#       6
#    32  32  32  32  32  32
#     4   9  20  37  55  75 101 135 174 214 259 312
#     4  10  16  26  43  73 101 132 162 204 249 300
#     4  12  19  30  55  81 101 133 172 214 260 300
#     4  11  21  31  49  81 109 133 171 213 251 297
#     4   9  16  28  44  66 100 138 165 195 244 304
#     4   9  19  36  54  72 102 142 173 201 250 314
#
# _framework density 16.59253
#
# number of rings (size 3 to 8) (size 9 to 14) (size 15 to 20)
#    0.000    2.000    6.667    1.000    0.000    1.667 
#    0.000    0.833    0.000    2.000    0.000    1.167 
#    0.000    0.000    0.000    0.000    0.000    0.000 
#
# Total GULP energy -267432.803406 kJ/mol
# GULP energy per Si atom -5571.516738 kJ/mol
# Density = 1.655476 g / cm^3
# Si number density = 16.592530 Si / 1000 Ang^3
#
#
#
# Elastic Constant Matrix: (Units=GPa)
#
#
# Indices 1 2 3 4 5 6 
#
# 1 112.8671 45.3602 41.7995 0.0000 0.0000 0.0000
# 2 45.3602 136.6269 30.6706 0.0000 0.0000 0.0000
# 3 41.7995 30.6706 22.6013 0.0000 0.0000 0.0000
# 4 0.0000 0.0000 0.0000 8.9655 0.0000 0.0000
# 5 0.0000 0.0000 0.0000 0.0000 -18.1832 0.0000
# 6 0.0000 0.0000 0.0000 0.0000 0.0000 -15.5108
#
#
#
# Elastic Compliance Matrix: (Units=1/GPa)
#
#
# Indices 1 2 3 4 5 6 
#
# 1 0.029237 0.003497 -0.058818 0.000000 0.000000 0.000000
# 2 0.003497 0.010944 -0.021318 0.000000 0.000000 0.000000
# 3 -0.058818 -0.021318 0.181955 0.000000 0.000000 0.000000
# 4 0.000000 0.000000 0.000000 0.111539 0.000000 0.000000
# 5 0.000000 0.000000 0.000000 0.000000 -0.054996 0.000000
# 6 0.000000 0.000000 0.000000 0.000000 0.000000 -0.064471
#
#
# Mechanical properties :
#
#
# Convention : Reuss Voigt Hill
#
# Bulk Modulus (GPa) = 14.52283 56.41733 35.47008
# Shear Modulus (GPa) = 12.80607 5.33863 9.07235
#
# Velocity S-wave (km/s) = 2.78114 1.79568 2.34085
# Velocity P-wave (km/s) = 4.36859 6.19474 5.36001
#
# Compressibility (1/GPa) = 0.06885712
#
# Stress axis : x y z
#
# Youngs Moduli (GPa) = 34.20267 91.37514 5.49586
#
# Poissons Ratio (x) = -0.31953 0.32326
# Poissons Ratio (y) = -0.11960 0.11716
# Poissons Ratio (z) = 2.01174 1.94798
#
# Static dielectric constant tensor:
#      x y z
#    x 1.546220 0.000000 0.000000 
#    y 0.000000 1.633590 0.000000 
#    z 0.000000 0.000000 1.533720 
# 
# From -- ./inp_files/33616.got.cif
#   From: 2010.05.17/outbox.cif.g08.bks.cpg/sg69_17_cif.got.tgz:33616.got - 2010.06.03 19:29:58.
