data_PCOD9511153
_publ_section_title
;
Structure prediction by ZEFSAII (Michael W. Deem and Ramdas Pophale) SiO2 
 PCOD9511153
Probable space group: F M M M
;
_chemical_formula_sum "Si O2"
_cell_formula_units_Z 128
_cell_length_a 29.469379
_cell_length_b 7.701205
_cell_length_c 30.238840
_cell_angle_alpha 90.000000
_cell_angle_beta 90.000000
_cell_angle_gamma 90.000000
_cell_volume 6862.696540
_symmetry_space_group_name_H-M "F M M M"
_symmetry_group_IT_number 69
_symmetry_cell_setting 'orthorhombic'
loop_
_space_group_symop_operation_xyz
x,y,z
-x,-y,z
x,-y,-z
-x,y,-z
-x,-y,-z
x,y,-z
-x,y,z
x,-y,z
x,1/2+y,1/2+z
-x,1/2-y,1/2+z
x,1/2-y,1/2-z
-x,1/2+y,1/2-z
-x,1/2-y,1/2-z
x,1/2+y,1/2-z
-x,1/2+y,1/2+z
x,1/2-y,1/2+z
1/2+x,y,1/2+z
1/2-x,-y,1/2+z
1/2+x,-y,1/2-z
1/2-x,y,1/2-z
1/2-x,-y,1/2-z
1/2+x,y,1/2-z
1/2-x,y,1/2+z
1/2+x,-y,1/2+z
1/2+x,1/2+y,z
1/2-x,1/2-y,z
1/2+x,1/2-y,-z
1/2-x,1/2+y,-z
1/2-x,1/2-y,-z
1/2+x,1/2+y,-z
1/2-x,1/2+y,z
1/2+x,1/2-y,z
loop_
_atom_site_type_symbol
_atom_site_label
_atom_site_fract_x
_atom_site_fract_y
_atom_site_fract_z
Si Si1 0.052270 0.792796 0.798485
Si Si2 0.101384 0.795472 0.612481
Si Si3 0.303194 0.206945 0.500000
Si Si4 0.197204 0.696386 0.902524
Si Si5 0.445103 0.500000 0.052933
O O1 0.071540 0.750000 0.750000
O O2 0.076882 0.713381 0.840448
O O3 0.000000 0.731805 0.798553
O O4 0.052603 0.000000 0.804113
O O5 0.152974 0.724540 0.620283
O O6 0.076114 0.668747 0.577641
O O7 0.102223 0.000000 0.598311
O O8 0.250000 0.250000 0.500000
O O9 0.318240 0.285721 0.453872
O O10 0.310208 0.000000 0.500000
O O11 0.198445 0.500000 0.887712
O O12 0.250000 0.750000 0.899251
O O13 0.500000 0.500000 0.058129
O O14 0.434815 0.500000 0.000000
#
# Coordination Sequence:
#
# PCOD9511153 Si02
#       5
#    32  32  16  32  16
#     4  10  20  36  61  91 120 151 192 248 310 365
#     4  11  24  39  61  90 122 160 204 252 303 361
#     4  10  18  28  48  72 102 141 186 243 293 339
#     4  10  21  34  52  79 111 150 194 244 297 351
#     4  11  26  44  62  86 122 167 212 252 298 363
#
# _framework density 18.65156
#
# number of rings (size 3 to 8) (size 9 to 14) (size 15 to 20)
#    0.000    1.625    1.250    4.875    5.250    3.500 
#    0.000    1.250    0.000    0.750    0.000    5.250 
#    0.000    0.000    0.000    0.000    0.000    0.000 
#
# Total GULP energy -178208.041150 kJ/mol
# GULP energy per Si atom -5569.001286 kJ/mol
# Density = 1.860911 g / cm^3
# Si number density = 18.651560 Si / 1000 Ang^3
#
#
#
# Elastic Constant Matrix: (Units=GPa)
#
#
# Indices 1 2 3 4 5 6 
#
# 1 126.4171 36.1259 59.6037 0.0001 0.0000 -0.0006
# 2 36.1259 88.5603 25.7880 0.0003 -0.0004 0.0002
# 3 59.6037 25.7880 106.5387 -0.0001 -0.0001 -0.0001
# 4 0.0001 0.0003 -0.0001 22.9527 0.0000 0.0002
# 5 0.0000 -0.0004 -0.0001 0.0000 -59.0829 0.0004
# 6 -0.0006 0.0002 -0.0001 0.0002 0.0004 23.4193
#
#
#
# Elastic Compliance Matrix: (Units=1/GPa)
#
#
# Indices 1 2 3 4 5 6 
#
# 1 0.011448 -0.003018 -0.005674 0.000000 0.000000 0.000000
# 2 -0.003018 0.012943 -0.001445 0.000000 0.000000 0.000000
# 3 -0.005674 -0.001445 0.012910 0.000000 0.000000 0.000000
# 4 0.000000 0.000000 0.000000 0.043568 0.000000 0.000000
# 5 0.000000 0.000000 0.000000 0.000000 -0.016925 0.000000
# 6 0.000000 0.000000 0.000000 0.000000 0.000000 0.042700
#
#
# Mechanical properties :
#
#
# Convention : Reuss Voigt Hill
#
# Bulk Modulus (GPa) = 58.72464 62.72791 60.72628
# Shear Modulus (GPa) = 37.70920 10.79104 24.25012
#
# Velocity S-wave (km/s) = 4.50129 2.40794 3.60969
# Velocity P-wave (km/s) = 7.65303 6.43703 7.07122
#
# Compressibility (1/GPa) = 0.01702863
#
# Stress axis : x y z
#
# Youngs Moduli (GPa) = 87.35181 77.25941 77.45671
#
# Poissons Ratio (x) = 0.23314 0.43951
# Poissons Ratio (y) = 0.26359 0.11191
# Poissons Ratio (z) = 0.49565 0.11162
#
# Static dielectric constant tensor:
#      x y z
#    x 1.715890 0.000000 0.000000 
#    y 0.000000 1.676570 0.000000 
#    z 0.000000 0.000000 1.652330 
# 
# From -- ./inp_files/5366.got.cif
#   From: 2010.05.17/outbox.cif.g08.bks.cpg/sg69_3_cif.got.tgz:5366.got - 2010.06.03 19:29:58.
