data_PCOD9511883
_publ_section_title
;
Structure prediction by ZEFSAII (Michael W. Deem and Ramdas Pophale) SiO2 
 PCOD9511883
Probable space group: F M M M
;
_chemical_formula_sum "Si O2"
_cell_formula_units_Z 192
_cell_length_a 15.007683
_cell_length_b 23.518535
_cell_length_c 28.359265
_cell_angle_alpha 90.000000
_cell_angle_beta 90.000000
_cell_angle_gamma 90.000000
_cell_volume 10009.649815
_symmetry_space_group_name_H-M "F M M M"
_symmetry_group_IT_number 69
_symmetry_cell_setting 'orthorhombic'
loop_
_space_group_symop_operation_xyz
x,y,z
-x,-y,z
x,-y,-z
-x,y,-z
-x,-y,-z
x,y,-z
-x,y,z
x,-y,z
x,1/2+y,1/2+z
-x,1/2-y,1/2+z
x,1/2-y,1/2-z
-x,1/2+y,1/2-z
-x,1/2-y,1/2-z
x,1/2+y,1/2-z
-x,1/2+y,1/2+z
x,1/2-y,1/2+z
1/2+x,y,1/2+z
1/2-x,-y,1/2+z
1/2+x,-y,1/2-z
1/2-x,y,1/2-z
1/2-x,-y,1/2-z
1/2+x,y,1/2-z
1/2-x,y,1/2+z
1/2+x,-y,1/2+z
1/2+x,1/2+y,z
1/2-x,1/2-y,z
1/2+x,1/2-y,-z
1/2-x,1/2+y,-z
1/2-x,1/2-y,-z
1/2+x,1/2+y,-z
1/2-x,1/2+y,z
1/2+x,1/2-y,z
loop_
_atom_site_type_symbol
_atom_site_label
_atom_site_fract_x
_atom_site_fract_y
_atom_site_fract_z
Si Si1 0.606984 0.676588 0.642700
Si Si2 0.394735 0.875083 0.409258
Si Si3 0.646024 0.879961 0.761716
Si Si4 0.603731 0.000000 0.376128
Si Si5 0.772592 0.316648 0.947688
Si Si6 0.895567 0.201739 0.179803
Si Si7 0.151377 0.500000 0.271902
O O1 0.500000 0.678408 0.634288
O O2 0.626555 0.631217 0.683749
O O3 0.661046 0.666723 0.594611
O O4 0.641461 0.736927 0.664936
O O5 0.500000 0.863411 0.419418
O O6 0.382658 0.942421 0.404723
O O7 0.321891 0.848710 0.443457
O O8 0.371342 0.845947 0.358799
O O9 0.750000 0.882653 0.750000
O O10 0.616644 0.825383 0.731047
O O11 0.607599 0.940373 0.744077
O O12 0.658862 0.000000 0.328192
O O13 0.500000 0.000000 0.360564
O O14 0.750000 0.250000 0.942674
O O15 0.810915 0.326009 0.000000
O O16 0.000000 0.210229 0.174855
O O17 0.250000 0.500000 0.250000
#
# Coordination Sequence:
#
# PCOD9511883 Si02
#       7
#    32  32  32  16  32  32  16
#     4  11  24  39  57  87 124 162 205 248 296 356
#     4  10  20  37  63  94 124 155 194 247 308 375
#     4  11  22  34  55  83 121 164 197 242 289 350
#     4  10  20  36  63  89 121 163 197 239 304 374
#     4  11  24  41  64  88 114 154 203 257 316 366
#     4  10  19  34  54  81 119 155 191 234 286 351
#     4  10  22  34  50  84 121 160 198 241 282 344
#
# _framework density 19.18149
#
# number of rings (size 3 to 8) (size 9 to 14) (size 15 to 20)
#    0.000    1.500    3.333    2.000    2.333    3.333 
#    0.000    2.083    0.000    1.500    0.000    0.000 
#    0.000    2.667    0.000    0.000    0.000    0.000 
#
# Total GULP energy -267785.530487 kJ/mol
# GULP energy per Si atom -5578.865218 kJ/mol
# Density = 1.913783 g / cm^3
# Si number density = 19.181490 Si / 1000 Ang^3
#
#
#
# Elastic Constant Matrix: (Units=GPa)
#
#
# Indices 1 2 3 4 5 6 
#
# 1 78.0680 28.0569 37.5403 0.0000 0.0000 0.0000
# 2 28.0569 93.6489 23.4026 0.0000 0.0000 0.0000
# 3 37.5403 23.4026 121.5285 0.0000 0.0000 0.0000
# 4 0.0000 0.0000 0.0000 16.6989 0.0000 0.0000
# 5 0.0000 0.0000 0.0000 0.0000 16.9037 0.0000
# 6 0.0000 0.0000 0.0000 0.0000 0.0000 1.2983
#
#
#
# Elastic Compliance Matrix: (Units=1/GPa)
#
#
# Indices 1 2 3 4 5 6 
#
# 1 0.016232 -0.003793 -0.004284 0.000000 0.000000 0.000000
# 2 -0.003793 0.012104 -0.001159 0.000000 0.000000 0.000000
# 3 -0.004284 -0.001159 0.009775 0.000000 0.000000 0.000000
# 4 0.000000 0.000000 0.000000 0.059884 0.000000 0.000000
# 5 0.000000 0.000000 0.000000 0.000000 0.059159 0.000000
# 6 0.000000 0.000000 0.000000 0.000000 0.000000 0.770226
#
#
# Mechanical properties :
#
#
# Convention : Reuss Voigt Hill
#
# Bulk Modulus (GPa) = 50.91668 52.36055 51.63861
# Shear Modulus (GPa) = 5.24990 20.59656 12.92323
#
# Velocity S-wave (km/s) = 1.65617 3.28040 2.59846
# Velocity P-wave (km/s) = 5.50087 6.45792 5.99851
#
# Compressibility (1/GPa) = 0.01963993
#
# Stress axis : x y z
#
# Youngs Moduli (GPa) = 61.60546 82.61631 102.30115
#
# Poissons Ratio (x) = 0.31333 0.43824
# Poissons Ratio (y) = 0.23365 0.11860
# Poissons Ratio (z) = 0.26391 0.09578
#
# Static dielectric constant tensor:
#      x y z
#    x 1.618290 0.000000 0.000000 
#    y 0.000000 1.724940 0.000000 
#    z 0.000000 0.000000 1.678110 
# 
# From -- ./inp_files/38410.got.cif
#   From: 2010.05.17/outbox.cif.g08.bks.cpg/sg69_20_cif.got.tgz:38410.got - 2010.06.03 19:29:58.
