data_PCOD9511298
_publ_section_title
;
Structure prediction by ZEFSAII (Michael W. Deem and Ramdas Pophale) SiO2 
 PCOD9511298
Probable space group: F M M M
;
_chemical_formula_sum "Si O2"
_cell_formula_units_Z 128
_cell_length_a 29.193319
_cell_length_b 20.736534
_cell_length_c 12.188634
_cell_angle_alpha 90.000000
_cell_angle_beta 90.000000
_cell_angle_gamma 90.000000
_cell_volume 7378.612059
_symmetry_space_group_name_H-M "F M M M"
_symmetry_group_IT_number 69
_symmetry_cell_setting 'orthorhombic'
loop_
_space_group_symop_operation_xyz
x,y,z
-x,-y,z
x,-y,-z
-x,y,-z
-x,-y,-z
x,y,-z
-x,y,z
x,-y,z
x,1/2+y,1/2+z
-x,1/2-y,1/2+z
x,1/2-y,1/2-z
-x,1/2+y,1/2-z
-x,1/2-y,1/2-z
x,1/2+y,1/2-z
-x,1/2+y,1/2+z
x,1/2-y,1/2+z
1/2+x,y,1/2+z
1/2-x,-y,1/2+z
1/2+x,-y,1/2-z
1/2-x,y,1/2-z
1/2-x,-y,1/2-z
1/2+x,y,1/2-z
1/2-x,y,1/2+z
1/2+x,-y,1/2+z
1/2+x,1/2+y,z
1/2-x,1/2-y,z
1/2+x,1/2-y,-z
1/2-x,1/2+y,-z
1/2-x,1/2-y,-z
1/2+x,1/2+y,-z
1/2-x,1/2+y,z
1/2+x,1/2-y,z
loop_
_atom_site_type_symbol
_atom_site_label
_atom_site_fract_x
_atom_site_fract_y
_atom_site_fract_z
Si Si1 0.846037 0.075420 0.500000
Si Si2 0.612952 0.924340 0.630503
Si Si3 0.449183 0.882438 0.000000
Si Si4 0.301004 0.578040 0.274645
Si Si5 0.947200 0.677976 0.761459
O O1 0.901202 0.079612 0.500000
O O2 0.823820 0.102482 0.388125
O O3 0.834675 0.000000 0.500000
O O4 0.610136 0.916656 0.500000
O O5 0.663661 0.909895 0.676201
O O6 0.579411 0.876152 0.693556
O O7 0.602982 0.000000 0.656883
O O8 0.447409 0.841051 0.110870
O O9 0.500000 0.915375 0.000000
O O10 0.297903 0.500000 0.283602
O O11 0.250000 0.602366 0.250000
O O12 0.927776 0.750000 0.750000
O O13 0.000000 0.679454 0.722715
#
# Coordination Sequence:
#
# PCOD9511298 Si02
#       5
#    16  32  16  32  32
#     4  10  18  31  52  79 109 140 177 225 279 331
#     4  10  21  36  55  82 114 145 183 230 279 330
#     4  10  20  35  54  79 106 139 185 231 273 325
#     4   9  18  31  50  77 109 143 180 224 273 326
#     4  10  22  38  57  80 109 146 187 227 272 333
#
# _framework density 17.347435000000001
#
# number of rings (size 3 to 8) (size 9 to 14) (size 15 to 20)
#    0.000    2.250    2.500    0.000    3.500    1.250 
#    0.000    3.750    0.000    0.750    0.000    3.500 
#    0.000    0.000    0.000    0.000    0.000    0.000 
#
# Total GULP energy -178216.920563 kJ/mol
# GULP energy per Si atom -5569.278768 kJ/mol
# Density = 1.730795 g / cm^3
# Si number density = 17.347435 Si / 1000 Ang^3
#
#
#
# Elastic Constant Matrix: (Units=GPa)
#
#
# Indices 1 2 3 4 5 6 
#
# 1 120.2672 43.6740 55.0696 0.0000 0.0000 0.0000
# 2 43.6740 70.4672 50.4393 0.0000 0.0000 0.0000
# 3 55.0696 50.4393 112.8718 0.0000 0.0000 0.0000
# 4 0.0000 0.0000 0.0000 4.7409 0.0000 0.0000
# 5 0.0000 0.0000 0.0000 0.0000 23.8830 0.0000
# 6 0.0000 0.0000 0.0000 0.0000 0.0000 -10.8459
#
#
#
# Elastic Compliance Matrix: (Units=1/GPa)
#
#
# Indices 1 2 3 4 5 6 
#
# 1 0.011653 -0.004635 -0.003614 0.000000 0.000000 0.000000
# 2 -0.004635 0.022709 -0.007886 0.000000 0.000000 0.000000
# 3 -0.003614 -0.007886 0.014147 0.000000 0.000000 0.000000
# 4 0.000000 0.000000 0.000000 0.210930 0.000000 0.000000
# 5 0.000000 0.000000 0.000000 0.000000 0.041871 0.000000
# 6 0.000000 0.000000 0.000000 0.000000 0.000000 -0.092201
#
#
# Mechanical properties :
#
#
# Convention : Reuss Voigt Hill
#
# Bulk Modulus (GPa) = 61.58642 66.88579 64.23610
# Shear Modulus (GPa) = 20.25994 13.85049 17.05521
#
# Velocity S-wave (km/s) = 3.42115 2.82869 3.13893
# Velocity P-wave (km/s) = 7.15434 7.02203 7.08849
#
# Compressibility (1/GPa) = 0.01623735
#
# Stress axis : x y z
#
# Youngs Moduli (GPa) = 85.81519 44.03569 70.68617
#
# Poissons Ratio (x) = 0.20412 0.25546
# Poissons Ratio (y) = 0.39779 0.55746
# Poissons Ratio (z) = 0.31013 0.34728
#
# Static dielectric constant tensor:
#      x y z
#    x 1.605420 0.000000 0.000000 
#    y 0.000000 1.576410 0.000000 
#    z 0.000000 0.000000 1.590920 
# 
# From -- ./inp_files/10121.got.cif
#   From: 2010.05.17/outbox.cif.g08.bks.cpg/sg69_6_cif.got.tgz:10121.got - 2010.06.03 19:29:58.
