data_PCOD9511372
_publ_section_title
;
Structure prediction by ZEFSAII (Michael W. Deem and Ramdas Pophale) SiO2 
 PCOD9511372
Probable space group: F M M M
;
_chemical_formula_sum "Si O2"
_cell_formula_units_Z 112
_cell_length_a 23.915214
_cell_length_b 10.494212
_cell_length_c 22.733054
_cell_angle_alpha 90.000000
_cell_angle_beta 90.000000
_cell_angle_gamma 90.000000
_cell_volume 5705.344701
_symmetry_space_group_name_H-M "F M M M"
_symmetry_group_IT_number 69
_symmetry_cell_setting 'orthorhombic'
loop_
_space_group_symop_operation_xyz
x,y,z
-x,-y,z
x,-y,-z
-x,y,-z
-x,-y,-z
x,y,-z
-x,y,z
x,-y,z
x,1/2+y,1/2+z
-x,1/2-y,1/2+z
x,1/2-y,1/2-z
-x,1/2+y,1/2-z
-x,1/2-y,1/2-z
x,1/2+y,1/2-z
-x,1/2+y,1/2+z
x,1/2-y,1/2+z
1/2+x,y,1/2+z
1/2-x,-y,1/2+z
1/2+x,-y,1/2-z
1/2-x,y,1/2-z
1/2-x,-y,1/2-z
1/2+x,y,1/2-z
1/2-x,y,1/2+z
1/2+x,-y,1/2+z
1/2+x,1/2+y,z
1/2-x,1/2-y,z
1/2+x,1/2-y,-z
1/2-x,1/2+y,-z
1/2-x,1/2-y,-z
1/2+x,1/2+y,-z
1/2-x,1/2+y,z
1/2+x,1/2-y,z
loop_
_atom_site_type_symbol
_atom_site_label
_atom_site_fract_x
_atom_site_fract_y
_atom_site_fract_z
Si Si1 0.500000 0.143181 0.569343
Si Si2 0.376426 0.250000 0.750000
Si Si3 0.616268 0.246389 0.386487
Si Si4 0.313236 0.500000 0.735585
Si Si5 0.818588 0.500000 0.904111
Si Si6 0.814604 0.500000 0.429968
O O1 0.500000 0.129941 0.500000
O O2 0.443355 0.214015 0.586130
O O3 0.500000 0.000000 0.596360
O O4 0.399306 0.269658 0.683287
O O5 0.340944 0.375342 0.760284
O O6 0.646823 0.369697 0.415550
O O7 0.657416 0.125367 0.399722
O O8 0.250000 0.500000 0.750000
O O9 0.316418 0.500000 0.666092
O O10 0.753654 0.500000 0.924999
O O11 0.828618 0.500000 0.500000
#
# Coordination Sequence:
#
# PCOD9511372 Si02
#       6
#    16  16  32  16  16  16
#     4  11  24  44  69  91 121 169 221 270 312 380
#     4  10  21  35  60  90 124 164 207 263 320 372
#     4  11  23  42  65  95 130 169 218 266 321 385
#     4  10  18  32  54  85 124 167 209 246 304 382
#     4  10  24  39  58  95 134 164 202 268 330 376
#     4  12  24  41  66  95 132 176 222 262 310 380
#
# _framework density 19.630716
#
# number of rings (size 3 to 8) (size 9 to 14) (size 15 to 20)
#    0.000    1.286    1.429    4.714    0.000    9.143 
#    0.000    0.714    0.000    0.000    0.000    0.000 
#    0.000    0.000    0.000    0.000    0.000    0.000 
#
# Total GULP energy -155891.564190 kJ/mol
# GULP energy per Si atom -5567.555864 kJ/mol
# Density = 1.958604 g / cm^3
# Si number density = 19.630716 Si / 1000 Ang^3
#
#
#
# Elastic Constant Matrix: (Units=GPa)
#
#
# Indices 1 2 3 4 5 6 
#
# 1 157.1840 77.2002 29.0766 0.0000 0.0000 0.0000
# 2 77.2002 167.6763 14.9274 0.0000 0.0000 0.0000
# 3 29.0766 14.9274 98.2273 0.0000 0.0000 0.0000
# 4 0.0000 0.0000 0.0000 23.5272 0.0000 0.0000
# 5 0.0000 0.0000 0.0000 0.0000 38.5302 0.0000
# 6 0.0000 0.0000 0.0000 0.0000 0.0000 541.2794
#
#
#
# Elastic Compliance Matrix: (Units=1/GPa)
#
#
# Indices 1 2 3 4 5 6 
#
# 1 0.008580 -0.003775 -0.001966 0.000000 0.000000 0.000000
# 2 -0.003775 0.007707 -0.000054 0.000000 0.000000 0.000000
# 3 -0.001966 -0.000054 0.010771 0.000000 0.000000 0.000000
# 4 0.000000 0.000000 0.000000 0.042504 0.000000 0.000000
# 5 0.000000 0.000000 0.000000 0.000000 0.025954 0.000000
# 6 0.000000 0.000000 0.000000 0.000000 0.000000 0.001847
#
#
# Mechanical properties :
#
#
# Convention : Reuss Voigt Hill
#
# Bulk Modulus (GPa) = 64.65217 73.94397 69.29807
# Shear Modulus (GPa) = 43.81807 140.79290 92.30548
#
# Velocity S-wave (km/s) = 4.72965 8.47800 6.86462
# Velocity P-wave (km/s) = 7.92666 11.55788 9.91000
#
# Compressibility (1/GPa) = 0.01546739
#
# Stress axis : x y z
#
# Youngs Moduli (GPa) = 116.55217 129.75530 92.84531
#
# Poissons Ratio (x) = 0.48986 0.18254
# Poissons Ratio (y) = 0.44001 0.00498
# Poissons Ratio (z) = 0.22915 0.00696
#
# Static dielectric constant tensor:
#      x y z
#    x 1.636400 0.000000 0.000000 
#    y 0.000000 1.725450 0.000000 
#    z 0.000000 0.000000 1.746140 
# 
# From -- ./inp_files/42976.got.cif
#   From: 2010.05.17/outbox.cif.g08.bks.cpg/sg69_22_cif.got.tgz:42976.got - 2010.06.03 19:29:58.
