data_PCOD9511745
_publ_section_title
;
Structure prediction by ZEFSAII (Michael W. Deem and Ramdas Pophale) SiO2 
 PCOD9511745
Probable space group: F M M M
;
_chemical_formula_sum "Si O2"
_cell_formula_units_Z 144
_cell_length_a 15.520367
_cell_length_b 16.321086
_cell_length_c 22.792395
_cell_angle_alpha 90.000000
_cell_angle_beta 90.000000
_cell_angle_gamma 90.000000
_cell_volume 5773.524359
_symmetry_space_group_name_H-M "F M M M"
_symmetry_group_IT_number 69
_symmetry_cell_setting 'orthorhombic'
loop_
_space_group_symop_operation_xyz
x,y,z
-x,-y,z
x,-y,-z
-x,y,-z
-x,-y,-z
x,y,-z
-x,y,z
x,-y,z
x,1/2+y,1/2+z
-x,1/2-y,1/2+z
x,1/2-y,1/2-z
-x,1/2+y,1/2-z
-x,1/2-y,1/2-z
x,1/2+y,1/2-z
-x,1/2+y,1/2+z
x,1/2-y,1/2+z
1/2+x,y,1/2+z
1/2-x,-y,1/2+z
1/2+x,-y,1/2-z
1/2-x,y,1/2-z
1/2-x,-y,1/2-z
1/2+x,y,1/2-z
1/2-x,y,1/2+z
1/2+x,-y,1/2+z
1/2+x,1/2+y,z
1/2-x,1/2-y,z
1/2+x,1/2-y,-z
1/2-x,1/2+y,-z
1/2-x,1/2-y,-z
1/2+x,1/2+y,-z
1/2-x,1/2+y,z
1/2+x,1/2-y,z
loop_
_atom_site_type_symbol
_atom_site_label
_atom_site_fract_x
_atom_site_fract_y
_atom_site_fract_z
Si Si1 0.817944 0.500000 0.803411
Si Si2 0.901742 0.596131 0.500000
Si Si3 0.796134 0.500000 0.933487
Si Si4 0.103873 0.331767 0.619360
Si Si5 0.352416 0.157656 0.746891
Si Si6 0.101987 0.830806 0.566054
O O1 0.750000 0.500000 0.750000
O O2 0.767373 0.500000 0.865125
O O3 0.872319 0.584200 0.792490
O O4 0.913644 0.500000 0.500000
O O5 0.860836 0.622808 0.561584
O O6 0.000000 0.631739 0.500000
O O7 0.852620 0.417363 0.933051
O O8 0.755659 0.500000 0.000000
O O9 0.127787 0.369996 0.680825
O O10 0.133557 0.237417 0.611922
O O11 0.000000 0.332415 0.616967
O O12 0.391614 0.250000 0.750000
O O13 0.250000 0.168093 0.750000
O O14 0.114789 0.795457 0.500000
O O15 0.000000 0.842098 0.573994
#
# Coordination Sequence:
#
# PCOD9511745 Si02
#       6
#    16  16  16  32  32  32
#     4  10  22  41  61  78 111 158 195 242 302 343
#     4   9  18  32  54  86 121 149 184 240 299 350
#     4  10  19  32  58  85 107 147 198 242 285 348
#     4  10  19  34  59  89 119 153 193 239 293 355
#     4  10  22  40  61  78 114 162 200 236 295 351
#     4   9  16  29  50  83 123 153 182 233 298 352
#
# _framework density 24.941438000000002
#
# number of rings (size 3 to 8) (size 9 to 14) (size 15 to 20)
#    0.000    2.333    1.111    1.667    1.556    1.778 
#    0.000    2.222    9.778    1.333    0.000    0.000 
#    0.000    0.000    0.000    0.000    0.000    0.000 
#
# Total GULP energy -200986.385957 kJ/mol
# GULP energy per Si atom -5582.955165 kJ/mol
# Density = 2.488467 g / cm^3
# Si number density = 24.941438 Si / 1000 Ang^3
#
#
#
# Elastic Constant Matrix: (Units=GPa)
#
#
# Indices 1 2 3 4 5 6 
#
# 1 40.4409 8.7990 25.8445 0.0000 0.0000 0.0000
# 2 8.7990 146.3656 46.8031 0.0000 0.0000 0.0000
# 3 25.8445 46.8031 184.3022 0.0000 0.0000 0.0000
# 4 0.0000 0.0000 0.0000 44.5206 0.0000 0.0000
# 5 0.0000 0.0000 0.0000 0.0000 24.2138 0.0000
# 6 0.0000 0.0000 0.0000 0.0000 0.0000 -6.0003
#
#
#
# Elastic Compliance Matrix: (Units=1/GPa)
#
#
# Indices 1 2 3 4 5 6 
#
# 1 0.027189 -0.000452 -0.003698 0.000000 0.000000 0.000000
# 2 -0.000452 0.007444 -0.001827 0.000000 0.000000 0.000000
# 3 -0.003698 -0.001827 0.006408 0.000000 0.000000 0.000000
# 4 0.000000 0.000000 0.000000 0.022461 0.000000 0.000000
# 5 0.000000 0.000000 0.000000 0.000000 0.041299 0.000000
# 6 0.000000 0.000000 0.000000 0.000000 0.000000 -0.166659
#
#
# Mechanical properties :
#
#
# Convention : Reuss Voigt Hill
#
# Bulk Modulus (GPa) = 34.37931 59.33354 46.85643
# Shear Modulus (GPa) = -124.35151 31.85765 -46.24693
#
# Velocity S-wave (km/s) = -7.06864 3.57781 -4.31074
# Velocity P-wave (km/s) = 7.26684 6.39597 2.43911
#
# Compressibility (1/GPa) = 0.02908727
#
# Stress axis : x y z
#
# Youngs Moduli (GPa) = 36.77963 134.34427 156.04631
#
# Poissons Ratio (x) = 0.06073 0.57704
# Poissons Ratio (y) = 0.01663 0.28508
# Poissons Ratio (z) = 0.13601 0.24543
#
# Static dielectric constant tensor:
#      x y z
#    x 1.946490 0.000000 0.000000 
#    y 0.000000 2.070100 0.000000 
#    z 0.000000 0.000000 2.033060 
# 
# From -- ./inp_files/22919.got.cif
#   From: 2010.05.17/outbox.cif.g08.bks.cpg/sg69_12_cif.got.tgz:22919.got - 2010.06.03 19:29:58.
