data_PCOD9511696
_publ_section_title
;
Structure prediction by ZEFSAII (Michael W. Deem and Ramdas Pophale) SiO2 
 PCOD9511696
Probable space group: F M M M
;
_chemical_formula_sum "Si O2"
_cell_formula_units_Z 176
_cell_length_a 17.461417
_cell_length_b 14.982263
_cell_length_c 33.007909
_cell_angle_alpha 90.000000
_cell_angle_beta 90.000000
_cell_angle_gamma 90.000000
_cell_volume 8635.249967
_symmetry_space_group_name_H-M "F M M M"
_symmetry_group_IT_number 69
_symmetry_cell_setting 'orthorhombic'
loop_
_space_group_symop_operation_xyz
x,y,z
-x,-y,z
x,-y,-z
-x,y,-z
-x,-y,-z
x,y,-z
-x,y,z
x,-y,z
x,1/2+y,1/2+z
-x,1/2-y,1/2+z
x,1/2-y,1/2-z
-x,1/2+y,1/2-z
-x,1/2-y,1/2-z
x,1/2+y,1/2-z
-x,1/2+y,1/2+z
x,1/2-y,1/2+z
1/2+x,y,1/2+z
1/2-x,-y,1/2+z
1/2+x,-y,1/2-z
1/2-x,y,1/2-z
1/2-x,-y,1/2-z
1/2+x,y,1/2-z
1/2-x,y,1/2+z
1/2+x,-y,1/2+z
1/2+x,1/2+y,z
1/2-x,1/2-y,z
1/2+x,1/2-y,-z
1/2-x,1/2+y,-z
1/2-x,1/2-y,-z
1/2+x,1/2+y,-z
1/2-x,1/2+y,z
1/2+x,1/2-y,z
loop_
_atom_site_type_symbol
_atom_site_label
_atom_site_fract_x
_atom_site_fract_y
_atom_site_fract_z
Si Si1 0.584055 0.608008 0.689622
Si Si2 0.358443 0.399903 0.139409
Si Si3 0.412225 0.768207 0.574373
Si Si4 0.831482 0.108558 0.767898
Si Si5 0.592921 0.103727 0.500000
Si Si6 0.797836 0.838690 0.620760
O O1 0.500000 0.640448 0.677750
O O2 0.583198 0.500000 0.689831
O O3 0.606211 0.636912 0.734909
O O4 0.647744 0.635499 0.657602
O O5 0.391372 0.500000 0.139402
O O6 0.407768 0.329606 0.114466
O O7 0.347238 0.368044 0.185755
O O8 0.274052 0.404605 0.118498
O O9 0.500000 0.739473 0.566964
O O10 0.386456 0.835819 0.538836
O O11 0.352962 0.687560 0.583214
O O12 0.750000 0.138903 0.750000
O O13 0.828959 0.000000 0.768142
O O14 0.500000 0.098335 0.500000
O O15 0.620210 0.000000 0.500000
O O16 0.750000 0.750000 0.630137
#
# Coordination Sequence:
#
# PCOD9511696 Si02
#       6
#    32  32  32  32  16  32
#     4  10  19  32  53  78 102 136 188 240 275 309
#     4  10  19  33  55  78 104 140 184 226 265 315
#     4  10  21  36  55  81 108 135 168 215 275 329
#     4   9  16  29  50  73 100 139 185 228 264 302
#     4   9  18  36  61  84 107 137 175 217 266 327
#     4  10  20  34  50  74 107 143 174 209 263 327
#
# _framework density 20.381575999999999
#
# number of rings (size 3 to 8) (size 9 to 14) (size 15 to 20)
#    0.000    2.273    1.818    1.636    0.000    1.818 
#    0.000   12.273    0.000    5.455    0.000    1.909 
#    0.000   10.182    0.000    0.000    0.000    1.091 
#
# Total GULP energy -245280.793199 kJ/mol
# GULP energy per Si atom -5574.563482 kJ/mol
# Density = 2.033519 g / cm^3
# Si number density = 20.381576 Si / 1000 Ang^3
#
#
#
# Elastic Constant Matrix: (Units=GPa)
#
#
# Indices 1 2 3 4 5 6 
#
# 1 85.1382 -0.7684 8.5689 0.0000 0.0000 0.0000
# 2 -0.7684 39.9225 9.1345 0.0000 0.0000 0.0000
# 3 8.5689 9.1345 87.4325 0.0000 0.0000 0.0000
# 4 0.0000 0.0000 0.0000 22.4450 0.0000 0.0000
# 5 0.0000 0.0000 0.0000 0.0000 19.2133 0.0000
# 6 0.0000 0.0000 0.0000 0.0000 0.0000 17.9808
#
#
#
# Elastic Compliance Matrix: (Units=1/GPa)
#
#
# Indices 1 2 3 4 5 6 
#
# 1 0.011873 0.000507 -0.001217 0.000000 0.000000 0.000000
# 2 0.000507 0.025684 -0.002733 0.000000 0.000000 0.000000
# 3 -0.001217 -0.002733 0.011842 0.000000 0.000000 0.000000
# 4 0.000000 0.000000 0.000000 0.044553 0.000000 0.000000
# 5 0.000000 0.000000 0.000000 0.000000 0.052047 0.000000
# 6 0.000000 0.000000 0.000000 0.000000 0.000000 0.055615
#
#
# Mechanical properties :
#
#
# Convention : Reuss Voigt Hill
#
# Bulk Modulus (GPa) = 23.52217 27.37370 25.44793
# Shear Modulus (GPa) = 22.45474 24.96504 23.70989
#
# Velocity S-wave (km/s) = 3.32281 3.50363 3.41442
# Velocity P-wave (km/s) = 5.12712 5.46141 5.29690
#
# Compressibility (1/GPa) = 0.04251309
#
# Stress axis : x y z
#
# Youngs Moduli (GPa) = 84.22741 38.93534 84.44413
#
# Poissons Ratio (x) = -0.01974 0.10273
# Poissons Ratio (y) = -0.04269 0.23078
# Poissons Ratio (z) = 0.10247 0.10641
#
# Static dielectric constant tensor:
#      x y z
#    x 1.761150 0.000000 0.000000 
#    y 0.000000 1.786320 0.000000 
#    z 0.000000 0.000000 1.724150 
# 
# From -- ./inp_files/46358.got.cif
#   From: 2010.05.17/outbox.cif.g08.bks.cpg/sg69_24_cif.got.tgz:46358.got - 2010.06.03 19:29:58.
