data_PCOD9511241
_publ_section_title
;
Structure prediction by ZEFSAII (Michael W. Deem and Ramdas Pophale) SiO2 
 PCOD9511241
Probable space group: F M M M
;
_chemical_formula_sum "Si O2"
_cell_formula_units_Z 168
_cell_length_a 29.607927
_cell_length_b 21.412895
_cell_length_c 14.820079
_cell_angle_alpha 90.000000
_cell_angle_beta 90.000000
_cell_angle_gamma 90.000000
_cell_volume 9395.803108
_symmetry_space_group_name_H-M "F M M M"
_symmetry_group_IT_number 69
_symmetry_cell_setting 'orthorhombic'
loop_
_space_group_symop_operation_xyz
x,y,z
-x,-y,z
x,-y,-z
-x,y,-z
-x,-y,-z
x,y,-z
-x,y,z
x,-y,z
x,1/2+y,1/2+z
-x,1/2-y,1/2+z
x,1/2-y,1/2-z
-x,1/2+y,1/2-z
-x,1/2-y,1/2-z
x,1/2+y,1/2-z
-x,1/2+y,1/2+z
x,1/2-y,1/2+z
1/2+x,y,1/2+z
1/2-x,-y,1/2+z
1/2+x,-y,1/2-z
1/2-x,y,1/2-z
1/2-x,-y,1/2-z
1/2+x,y,1/2-z
1/2-x,y,1/2+z
1/2+x,-y,1/2+z
1/2+x,1/2+y,z
1/2-x,1/2-y,z
1/2+x,1/2-y,-z
1/2-x,1/2+y,-z
1/2-x,1/2-y,-z
1/2+x,1/2+y,-z
1/2-x,1/2+y,z
1/2+x,1/2-y,z
loop_
_atom_site_type_symbol
_atom_site_label
_atom_site_fract_x
_atom_site_fract_y
_atom_site_fract_z
Si Si1 0.205493 0.166125 0.400294
Si Si2 0.551241 0.424371 0.242437
Si Si3 0.250000 0.250000 0.250000
Si Si4 0.775405 0.929058 0.846064
Si Si5 0.874817 0.924367 0.103384
Si Si6 0.377056 0.928250 0.106097
O O1 0.199536 0.195806 0.500000
O O2 0.217982 0.211107 0.317813
O O3 0.248008 0.119568 0.404400
O O4 0.162763 0.121496 0.381070
O O5 0.500000 0.400735 0.243545
O O6 0.548804 0.500000 0.235479
O O7 0.581914 0.401685 0.159032
O O8 0.580117 0.412224 0.332466
O O9 0.750000 0.928356 0.750000
O O10 0.827995 0.910947 0.844906
O O11 0.772847 0.000000 0.881231
O O12 0.877887 0.000000 0.100743
O O13 0.872745 0.902349 0.000000
O O14 0.362380 0.000000 0.130037
O O15 0.388325 0.928452 0.000000
#
# Coordination Sequence:
#
# PCOD9511241 Si02
#       6
#    32  32   8  32  32  32
#     4  11  22  37  55  74 103 139 175 214 260 312
#     4   9  17  28  44  70 105 140 169 201 251 314
#     4  12  26  40  50  74 102 144 182 222 252 302
#     4  10  18  30  51  78 106 136 170 214 263 311
#     4   9  17  27  40  64  99 136 173 207 243 297
#     4   9  18  33  54  80 107 135 170 212 260 312
#
# _framework density 17.880324000000002
#
# number of rings (size 3 to 8) (size 9 to 14) (size 15 to 20)
#    0.000    2.286    0.952    2.571    0.000    5.714 
#    0.000    3.810    0.000    0.000    0.000    0.667 
#    0.000    0.000    0.000    0.000    0.000    0.000 
#
# Total GULP energy -234110.834189 kJ/mol
# GULP energy per Si atom -5574.067481 kJ/mol
# Density = 1.783963 g / cm^3
# Si number density = 17.880324 Si / 1000 Ang^3
#
#
#
# Elastic Constant Matrix: (Units=GPa)
#
#
# Indices 1 2 3 4 5 6 
#
# 1 160.3977 31.5256 78.7678 0.0000 0.0000 0.0000
# 2 31.5256 33.3618 40.4585 0.0000 0.0000 0.0000
# 3 78.7678 40.4585 142.2379 0.0000 0.0000 0.0000
# 4 0.0000 0.0000 0.0000 -28.9459 0.0000 0.0000
# 5 0.0000 0.0000 0.0000 0.0000 15.2964 0.0000
# 6 0.0000 0.0000 0.0000 0.0000 0.0000 3.1619
#
#
#
# Elastic Compliance Matrix: (Units=1/GPa)
#
#
# Indices 1 2 3 4 5 6 
#
# 1 0.008852 -0.003694 -0.003851 0.000000 0.000000 0.000000
# 2 -0.003694 0.047301 -0.011408 0.000000 0.000000 0.000000
# 3 -0.003851 -0.011408 0.012408 0.000000 0.000000 0.000000
# 4 0.000000 0.000000 0.000000 -0.034547 0.000000 0.000000
# 5 0.000000 0.000000 0.000000 0.000000 0.065375 0.000000
# 6 0.000000 0.000000 0.000000 0.000000 0.000000 0.316266
#
#
# Mechanical properties :
#
#
# Convention : Reuss Voigt Hill
#
# Bulk Modulus (GPa) = 32.62341 70.83345 51.72843
# Shear Modulus (GPa) = 10.78098 10.25219 10.51658
#
# Velocity S-wave (km/s) = 2.45817 2.39713 2.42784
# Velocity P-wave (km/s) = 5.13243 6.88207 6.07062
#
# Compressibility (1/GPa) = 0.03065283
#
# Stress axis : x y z
#
# Youngs Moduli (GPa) = 112.97152 21.14138 80.59213
#
# Poissons Ratio (x) = 0.07810 0.31037
# Poissons Ratio (y) = 0.41735 0.91943
# Poissons Ratio (z) = 0.43506 0.24119
#
# Static dielectric constant tensor:
#      x y z
#    x 1.600010 0.000000 0.000000 
#    y 0.000000 1.616820 0.000000 
#    z 0.000000 0.000000 1.680170 
# 
# From -- ./inp_files/19717.got.cif
#   From: 2010.05.17/outbox.cif.g08.bks.cpg/sg69_10_cif.got.tgz:19717.got - 2010.06.03 19:29:58.
