data_PCOD9511159
_publ_section_title
;
Structure prediction by ZEFSAII (Michael W. Deem and Ramdas Pophale) SiO2 
 PCOD9511159
Probable space group: F M M M
;
_chemical_formula_sum "Si O2"
_cell_formula_units_Z 208
_cell_length_a 14.984262
_cell_length_b 32.829963
_cell_length_c 27.801596
_cell_angle_alpha 90.000000
_cell_angle_beta 90.000000
_cell_angle_gamma 90.000000
_cell_volume 13676.516048
_symmetry_space_group_name_H-M "F M M M"
_symmetry_group_IT_number 69
_symmetry_cell_setting 'orthorhombic'
loop_
_space_group_symop_operation_xyz
x,y,z
-x,-y,z
x,-y,-z
-x,y,-z
-x,-y,-z
x,y,-z
-x,y,z
x,-y,z
x,1/2+y,1/2+z
-x,1/2-y,1/2+z
x,1/2-y,1/2-z
-x,1/2+y,1/2-z
-x,1/2-y,1/2-z
x,1/2+y,1/2-z
-x,1/2+y,1/2+z
x,1/2-y,1/2+z
1/2+x,y,1/2+z
1/2-x,-y,1/2+z
1/2+x,-y,1/2-z
1/2-x,y,1/2-z
1/2-x,-y,1/2-z
1/2+x,y,1/2-z
1/2-x,y,1/2+z
1/2+x,-y,1/2+z
1/2+x,1/2+y,z
1/2-x,1/2-y,z
1/2+x,1/2-y,-z
1/2-x,1/2+y,-z
1/2-x,1/2-y,-z
1/2+x,1/2+y,-z
1/2-x,1/2+y,z
1/2+x,1/2-y,z
loop_
_atom_site_type_symbol
_atom_site_label
_atom_site_fract_x
_atom_site_fract_y
_atom_site_fract_z
Si Si1 0.098935 0.303370 0.274665
Si Si2 0.106703 0.953079 0.443174
Si Si3 0.893926 0.453857 0.771227
Si Si4 0.899793 0.191859 0.658372
Si Si5 0.820163 0.114664 0.207681
Si Si6 0.750000 0.250000 0.172276
Si Si7 0.332598 0.397859 0.640132
O O1 0.103974 0.305788 0.216817
O O2 0.108638 0.349519 0.293033
O O3 0.181150 0.277870 0.296600
O O4 0.000000 0.287086 0.287322
O O5 0.122900 0.947650 0.500000
O O6 0.156036 0.920708 0.409949
O O7 0.000000 0.948716 0.435165
O O8 0.129747 0.000000 0.430540
O O9 0.859599 0.500000 0.773737
O O10 0.856055 0.428268 0.726579
O O11 0.870454 0.428272 0.818848
O O12 0.000000 0.455118 0.767311
O O13 0.817354 0.220558 0.643227
O O14 0.882964 0.145277 0.643041
O O15 0.000000 0.204077 0.643487
O O16 0.750000 0.127628 0.250000
O O17 0.767363 0.110892 0.158251
#
# Coordination Sequence:
#
# PCOD9511159 Si02
#       7
#    32  32  32  32  32  16  32
#     4  11  19  30  44  59  89 128 161 198 234 264
#     4   9  18  32  49  70  95 121 152 191 235 285
#     4  10  19  29  42  61  88 124 161 189 220 269
#     4  11  20  29  44  64  89 124 161 196 232 274
#     4  10  18  29  42  60  90 121 155 194 224 265
#     4  12  21  32  42  62  89 126 171 204 228 272
#     4  11  19  29  46  66  93 121 156 194 229 278
#
# _framework density 15.208551999999999
#
# number of rings (size 3 to 8) (size 9 to 14) (size 15 to 20)
#    0.000    1.538    4.615    4.615    0.000    5.846 
#    0.000    0.000    0.000    0.000    0.000    0.538 
#    0.000    2.462    0.000    8.462    0.000    0.000 
#
# Total GULP energy -289987.189035 kJ/mol
# GULP energy per Si atom -5576.676712 kJ/mol
# Density = 1.517394 g / cm^3
# Si number density = 15.208552 Si / 1000 Ang^3
#
#
#
# Elastic Constant Matrix: (Units=GPa)
#
#
# Indices 1 2 3 4 5 6 
#
# 1 81.9501 39.1047 12.8851 0.0000 0.0000 0.0000
# 2 39.1047 110.7750 23.6586 0.0000 0.0000 0.0000
# 3 12.8851 23.6586 34.0507 0.0000 0.0000 0.0000
# 4 0.0000 0.0000 0.0000 26.6631 0.0000 0.0000
# 5 0.0000 0.0000 0.0000 0.0000 11.8870 0.0000
# 6 0.0000 0.0000 0.0000 0.0000 0.0000 24.2105
#
#
#
# Elastic Compliance Matrix: (Units=1/GPa)
#
#
# Indices 1 2 3 4 5 6 
#
# 1 0.014829 -0.004740 -0.002318 0.000000 0.000000 0.000000
# 2 -0.004740 0.012115 -0.006624 0.000000 0.000000 0.000000
# 3 -0.002318 -0.006624 0.034848 0.000000 0.000000 0.000000
# 4 0.000000 0.000000 0.000000 0.037505 0.000000 0.000000
# 5 0.000000 0.000000 0.000000 0.000000 0.084126 0.000000
# 6 0.000000 0.000000 0.000000 0.000000 0.000000 0.041304
#
#
# Mechanical properties :
#
#
# Convention : Reuss Voigt Hill
#
# Bulk Modulus (GPa) = 29.04650 42.00809 35.52729
# Shear Modulus (GPa) = 18.97055 22.62727 20.79891
#
# Velocity S-wave (km/s) = 3.53563 3.86138 3.70209
# Velocity P-wave (km/s) = 5.98396 6.89650 6.45637
#
# Compressibility (1/GPa) = 0.03442756
#
# Stress axis : x y z
#
# Youngs Moduli (GPa) = 67.43699 82.54112 28.69629
#
# Poissons Ratio (x) = 0.39121 0.06653
# Poissons Ratio (y) = 0.31962 0.19009
# Poissons Ratio (z) = 0.15634 0.54677
#
# Static dielectric constant tensor:
#      x y z
#    x 1.553460 0.000000 0.000000 
#    y 0.000000 1.557010 0.000000 
#    z 0.000000 0.000000 1.465120 
# 
# From -- ./inp_files/36823.got.cif
#   From: 2010.05.17/outbox.cif.g08.bks.cpg/sg69_19_cif.got.tgz:36823.got - 2010.06.03 19:29:58.
