data_PCOD9511781
_publ_section_title
;
Structure prediction by ZEFSAII (Michael W. Deem and Ramdas Pophale) SiO2 
 PCOD9511781
Probable space group: F M M M
;
_chemical_formula_sum "Si O2"
_cell_formula_units_Z 192
_cell_length_a 24.393316
_cell_length_b 19.140458
_cell_length_c 20.343184
_cell_angle_alpha 90.000000
_cell_angle_beta 90.000000
_cell_angle_gamma 90.000000
_cell_volume 9498.217156
_symmetry_space_group_name_H-M "F M M M"
_symmetry_group_IT_number 69
_symmetry_cell_setting 'orthorhombic'
loop_
_space_group_symop_operation_xyz
x,y,z
-x,-y,z
x,-y,-z
-x,y,-z
-x,-y,-z
x,y,-z
-x,y,z
x,-y,z
x,1/2+y,1/2+z
-x,1/2-y,1/2+z
x,1/2-y,1/2-z
-x,1/2+y,1/2-z
-x,1/2-y,1/2-z
x,1/2+y,1/2-z
-x,1/2+y,1/2+z
x,1/2-y,1/2+z
1/2+x,y,1/2+z
1/2-x,-y,1/2+z
1/2+x,-y,1/2-z
1/2-x,y,1/2-z
1/2-x,-y,1/2-z
1/2+x,y,1/2-z
1/2-x,y,1/2+z
1/2+x,-y,1/2+z
1/2+x,1/2+y,z
1/2-x,1/2-y,z
1/2+x,1/2-y,-z
1/2-x,1/2+y,-z
1/2-x,1/2-y,-z
1/2+x,1/2+y,-z
1/2-x,1/2+y,z
1/2+x,1/2-y,z
loop_
_atom_site_type_symbol
_atom_site_label
_atom_site_fract_x
_atom_site_fract_y
_atom_site_fract_z
Si Si1 0.755868 0.077348 0.671700
Si Si2 0.064246 0.583458 0.208768
Si Si3 0.188706 0.778841 0.320973
Si Si4 0.562419 0.352069 0.428646
Si Si5 0.390255 0.208064 0.425210
Si Si6 0.373054 0.917742 0.342738
O O1 0.750000 0.072241 0.750000
O O2 0.799104 0.139589 0.663870
O O3 0.692915 0.092396 0.649902
O O4 0.772323 0.000000 0.646782
O O5 0.065658 0.500000 0.200500
O O6 0.082817 0.618408 0.140625
O O7 0.103731 0.600185 0.270136
O O8 0.000000 0.603140 0.222022
O O9 0.166481 0.750000 0.250000
O O10 0.250000 0.750000 0.321581
O O11 0.154849 0.743720 0.378705
O O12 0.588756 0.370371 0.500000
O O13 0.500000 0.377414 0.431316
O O14 0.563758 0.267975 0.425042
O O15 0.371563 0.198812 0.500000
O O16 0.402732 0.133663 0.393262
O O17 0.383716 0.000000 0.352945
#
# Coordination Sequence:
#
# PCOD9511781 Si02
#       6
#    32  32  32  32  32  32
#     4  10  19  33  53  81 112 146 184 227 283 335
#     4   9  19  35  58  88 116 145 186 234 281 332
#     4  11  20  35  57  84 109 145 188 236 279 335
#     4   9  20  37  55  81 117 152 186 227 281 341
#     4  11  24  38  57  82 112 151 190 234 285 337
#     4  10  21  37  57  82 111 145 187 237 282 331
#
# _framework density 20.214320000000001
#
# number of rings (size 3 to 8) (size 9 to 14) (size 15 to 20)
#    0.000    2.000    3.333    0.000    4.667    1.667 
#    0.000    3.333    0.000    1.500    0.000    4.667 
#    0.000    0.000    0.000    0.000    0.000    0.000 
#
# Total GULP energy -267354.625311 kJ/mol
# GULP energy per Si atom -5569.888027 kJ/mol
# Density = 2.016831 g / cm^3
# Si number density = 20.214320 Si / 1000 Ang^3
#
#
#
# Elastic Constant Matrix: (Units=GPa)
#
#
# Indices 1 2 3 4 5 6 
#
# 1 56.6352 28.1057 32.4541 0.0000 0.0000 0.0000
# 2 28.1057 115.3503 59.7062 0.0000 0.0000 0.0000
# 3 32.4541 59.7062 153.4388 0.0000 0.0000 0.0000
# 4 0.0000 0.0000 0.0000 33.0896 0.0000 0.0000
# 5 0.0000 0.0000 0.0000 0.0000 7.2913 0.0000
# 6 0.0000 0.0000 0.0000 0.0000 0.0000 6.4532
#
#
#
# Elastic Compliance Matrix: (Units=1/GPa)
#
#
# Indices 1 2 3 4 5 6 
#
# 1 0.021200 -0.003562 -0.003098 0.000000 0.000000 0.000000
# 2 -0.003562 0.011454 -0.003704 0.000000 0.000000 0.000000
# 3 -0.003098 -0.003704 0.008614 0.000000 0.000000 0.000000
# 4 0.000000 0.000000 0.000000 0.030221 0.000000 0.000000
# 5 0.000000 0.000000 0.000000 0.000000 0.137149 0.000000
# 6 0.000000 0.000000 0.000000 0.000000 0.000000 0.154961
#
#
# Mechanical properties :
#
#
# Convention : Reuss Voigt Hill
#
# Bulk Modulus (GPa) = 48.68426 62.88401 55.78414
# Shear Modulus (GPa) = 12.78207 23.04405 17.91306
#
# Velocity S-wave (km/s) = 2.51734 3.38003 2.98007
# Velocity P-wave (km/s) = 5.70839 6.81241 6.28469
#
# Compressibility (1/GPa) = 0.02054052
#
# Stress axis : x y z
#
# Youngs Moduli (GPa) = 47.17034 87.30444 116.09423
#
# Poissons Ratio (x) = 0.31097 0.35966
# Poissons Ratio (y) = 0.16802 0.42997
# Poissons Ratio (z) = 0.14613 0.32335
#
# Static dielectric constant tensor:
#      x y z
#    x 1.776100 0.000000 0.000000 
#    y 0.000000 1.802430 0.000000 
#    z 0.000000 0.000000 1.733910 
# 
# From -- ./inp_files/32808.got.cif
#   From: 2010.05.17/outbox.cif.g08.bks.cpg/sg69_17_cif.got.tgz:32808.got - 2010.06.03 19:29:58.
