data_PCOD9511670
_publ_section_title
;
Structure prediction by ZEFSAII (Michael W. Deem and Ramdas Pophale) SiO2 
 PCOD9511670
Probable space group: F M M M
;
_chemical_formula_sum "Si O2"
_cell_formula_units_Z 176
_cell_length_a 26.525470
_cell_length_b 26.795582
_cell_length_c 14.877459
_cell_angle_alpha 90.000000
_cell_angle_beta 90.000000
_cell_angle_gamma 90.000000
_cell_volume 10574.383193
_symmetry_space_group_name_H-M "F M M M"
_symmetry_group_IT_number 69
_symmetry_cell_setting 'orthorhombic'
loop_
_space_group_symop_operation_xyz
x,y,z
-x,-y,z
x,-y,-z
-x,y,-z
-x,-y,-z
x,y,-z
-x,y,z
x,-y,z
x,1/2+y,1/2+z
-x,1/2-y,1/2+z
x,1/2-y,1/2-z
-x,1/2+y,1/2-z
-x,1/2-y,1/2-z
x,1/2+y,1/2-z
-x,1/2+y,1/2+z
x,1/2-y,1/2+z
1/2+x,y,1/2+z
1/2-x,-y,1/2+z
1/2+x,-y,1/2-z
1/2-x,y,1/2-z
1/2-x,-y,1/2-z
1/2+x,y,1/2-z
1/2-x,y,1/2+z
1/2+x,-y,1/2+z
1/2+x,1/2+y,z
1/2-x,1/2-y,z
1/2+x,1/2-y,-z
1/2-x,1/2+y,-z
1/2-x,1/2-y,-z
1/2+x,1/2+y,-z
1/2-x,1/2+y,z
1/2+x,1/2-y,z
loop_
_atom_site_type_symbol
_atom_site_label
_atom_site_fract_x
_atom_site_fract_y
_atom_site_fract_z
Si Si1 0.354313 0.684829 0.395472
Si Si2 0.559330 0.888929 0.102201
Si Si3 0.699153 0.218090 0.605848
Si Si4 0.903234 0.559170 0.721962
Si Si5 0.500000 0.560700 0.103933
Si Si6 0.694495 0.124166 0.262996
O O1 0.338620 0.679636 0.500000
O O2 0.410315 0.662854 0.386613
O O3 0.345362 0.742575 0.372369
O O4 0.321418 0.650032 0.330900
O O5 0.500000 0.881960 0.112616
O O6 0.578954 0.926710 0.177425
O O7 0.569356 0.906454 0.000000
O O8 0.697428 0.205681 0.500000
O O9 0.750000 0.250000 0.622363
O O10 0.697989 0.169375 0.666139
O O11 0.897180 0.500000 0.712226
O O12 0.850266 0.587226 0.708137
O O13 0.948930 0.576020 0.656191
O O14 0.500000 0.500000 0.105284
O O15 0.500000 0.576776 0.000000
O O16 0.750000 0.101241 0.250000
#
# Coordination Sequence:
#
# PCOD9511670 Si02
#       6
#    32  32  32  32  16  32
#     4   9  18  31  49  76 108 137 166 205 258 311
#     4   9  17  31  54  81 107 135 167 206 258 319
#     4  10  19  32  52  76 101 134 177 218 255 303
#     4  10  21  36  53  76 107 139 178 222 266 314
#     4   9  18  36  59  75  94 133 184 234 271 301
#     4  11  21  32  53  77 106 141 177 219 259 314
#
# _framework density 16.643996000000001
#
# number of rings (size 3 to 8) (size 9 to 14) (size 15 to 20)
#    0.000    2.273    2.727    0.545    0.000    1.455 
#    0.000    0.909    2.000    2.182    0.000    5.091 
#    0.000    0.000    0.000    0.000    0.000    0.000 
#
# Total GULP energy -245195.163020 kJ/mol
# GULP energy per Si atom -5572.617341 kJ/mol
# Density = 1.660611 g / cm^3
# Si number density = 16.643996 Si / 1000 Ang^3
#
#
#
# Elastic Constant Matrix: (Units=GPa)
#
#
# Indices 1 2 3 4 5 6 
#
# 1 124.4997 51.3393 51.3273 0.0000 0.0000 0.0000
# 2 51.3393 65.8330 36.5127 0.0000 0.0000 0.0000
# 3 51.3273 36.5127 79.2342 0.0000 0.0000 0.0000
# 4 0.0000 0.0000 0.0000 18.5773 0.0000 0.0000
# 5 0.0000 0.0000 0.0000 0.0000 20.0103 0.0000
# 6 0.0000 0.0000 0.0000 0.0000 0.0000 23.2314
#
#
#
# Elastic Compliance Matrix: (Units=1/GPa)
#
#
# Indices 1 2 3 4 5 6 
#
# 1 0.013226 -0.007472 -0.005124 0.000000 0.000000 0.000000
# 2 -0.007472 0.024627 -0.006508 0.000000 0.000000 0.000000
# 3 -0.005124 -0.006508 0.018939 0.000000 0.000000 0.000000
# 4 0.000000 0.000000 0.000000 0.053829 0.000000 0.000000
# 5 0.000000 0.000000 0.000000 0.000000 0.049974 0.000000
# 6 0.000000 0.000000 0.000000 0.000000 0.000000 0.043045
#
#
# Mechanical properties :
#
#
# Convention : Reuss Voigt Hill
#
# Bulk Modulus (GPa) = 53.81301 60.88062 57.34681
# Shear Modulus (GPa) = 20.15773 21.05632 20.60702
#
# Velocity S-wave (km/s) = 3.48388 3.56068 3.52249
# Velocity P-wave (km/s) = 6.97031 7.31862 7.14658
#
# Compressibility (1/GPa) = 0.01858287
#
# Stress axis : x y z
#
# Youngs Moduli (GPa) = 75.60868 40.60665 52.79992
#
# Poissons Ratio (x) = 0.30341 0.27057
# Poissons Ratio (y) = 0.56495 0.34362
# Poissons Ratio (z) = 0.38745 0.26427
#
# Static dielectric constant tensor:
#      x y z
#    x 1.583080 0.000000 0.000000 
#    y 0.000000 1.534840 0.000000 
#    z 0.000000 0.000000 1.575760 
# 
# From -- ./inp_files/18070.got.cif
#   From: 2010.05.17/outbox.cif.g08.bks.cpg/sg69_10_cif.got.tgz:18070.got - 2010.06.03 19:29:58.
