data_PCOD9511177
_publ_section_title
;
Structure prediction by ZEFSAII (Michael W. Deem and Ramdas Pophale) SiO2 
 PCOD9511177
Probable space group: F M M M
;
_chemical_formula_sum "Si O2"
_cell_formula_units_Z 160
_cell_length_a 15.713186
_cell_length_b 18.394316
_cell_length_c 31.867881
_cell_angle_alpha 90.000000
_cell_angle_beta 90.000000
_cell_angle_gamma 90.000000
_cell_volume 9210.879085
_symmetry_space_group_name_H-M "F M M M"
_symmetry_group_IT_number 69
_symmetry_cell_setting 'orthorhombic'
loop_
_space_group_symop_operation_xyz
x,y,z
-x,-y,z
x,-y,-z
-x,y,-z
-x,-y,-z
x,y,-z
-x,y,z
x,-y,z
x,1/2+y,1/2+z
-x,1/2-y,1/2+z
x,1/2-y,1/2-z
-x,1/2+y,1/2-z
-x,1/2-y,1/2-z
x,1/2+y,1/2-z
-x,1/2+y,1/2+z
x,1/2-y,1/2+z
1/2+x,y,1/2+z
1/2-x,-y,1/2+z
1/2+x,-y,1/2-z
1/2-x,y,1/2-z
1/2-x,-y,1/2-z
1/2+x,y,1/2-z
1/2-x,y,1/2+z
1/2+x,-y,1/2+z
1/2+x,1/2+y,z
1/2-x,1/2-y,z
1/2+x,1/2-y,-z
1/2-x,1/2+y,-z
1/2-x,1/2-y,-z
1/2+x,1/2+y,-z
1/2-x,1/2+y,z
1/2+x,1/2-y,z
loop_
_atom_site_type_symbol
_atom_site_label
_atom_site_fract_x
_atom_site_fract_y
_atom_site_fract_z
Si Si1 0.361048 0.140359 0.835086
Si Si2 0.000000 0.081432 0.397523
Si Si3 0.353411 0.084114 0.748388
Si Si4 0.845995 0.773088 0.894144
Si Si5 0.000000 0.779023 0.450467
Si Si6 0.668156 0.414279 0.155034
O O1 0.420917 0.097522 0.867007
O O2 0.387170 0.132409 0.786573
O O3 0.359816 0.222208 0.852870
O O4 0.268021 0.104433 0.838774
O O5 0.000000 0.137307 0.435686
O O6 0.000000 0.000000 0.412575
O O7 0.250000 0.088364 0.750000
O O8 0.375842 0.100950 0.700225
O O9 0.376516 0.000000 0.756896
O O10 0.750000 0.750000 0.907744
O O11 0.916031 0.753863 0.928571
O O12 0.857336 0.856370 0.880129
O O13 0.000000 0.769941 0.500000
O O14 0.657506 0.500000 0.145842
#
# Coordination Sequence:
#
# PCOD9511177 Si02
#       6
#    32  16  32  32  16  32
#     4   9  16  27  44  70 102 132 164 197 233 283
#     4  10  18  29  49  74 100 127 151 188 246 301
#     4   8  13  22  39  64  95 131 167 201 234 267
#     4   9  19  34  53  75  97 128 164 197 244 296
#     4  10  22  39  56  75  99 122 152 200 250 303
#     4   9  16  28  47  69  96 132 172 207 233 267
#
# _framework density 17.370763
#
# number of rings (size 3 to 8) (size 9 to 14) (size 15 to 20)
#    0.000    3.000    0.000    3.000    0.000    1.400 
#    0.000    5.500    0.000    7.200    0.000    0.000 
#    0.000    0.000    0.000    0.000    0.000    0.000 
#
# Total GULP energy -222748.832994 kJ/mol
# GULP energy per Si atom -5568.720825 kJ/mol
# Density = 1.733123 g / cm^3
# Si number density = 17.370763 Si / 1000 Ang^3
#
#
#
# Elastic Constant Matrix: (Units=GPa)
#
#
# Indices 1 2 3 4 5 6 
#
# 1 49.5608 30.2735 51.6196 0.0000 0.0000 0.0000
# 2 30.2735 118.7058 64.8692 0.0000 0.0000 0.0000
# 3 51.6196 64.8692 117.4928 0.0000 0.0000 0.0000
# 4 0.0000 0.0000 0.0000 6.0886 0.0000 0.0000
# 5 0.0000 0.0000 0.0000 0.0000 10.1745 0.0000
# 6 0.0000 0.0000 0.0000 0.0000 0.0000 6.9663
#
#
#
# Elastic Compliance Matrix: (Units=1/GPa)
#
#
# Indices 1 2 3 4 5 6 
#
# 1 0.037252 -0.000797 -0.015926 0.000000 0.000000 0.000000
# 2 -0.000797 0.012081 -0.006320 0.000000 0.000000 0.000000
# 3 -0.015926 -0.006320 0.018998 0.000000 0.000000 0.000000
# 4 0.000000 0.000000 0.000000 0.164241 0.000000 0.000000
# 5 0.000000 0.000000 0.000000 0.000000 0.098285 0.000000
# 6 0.000000 0.000000 0.000000 0.000000 0.000000 0.143549
#
#
# Mechanical properties :
#
#
# Convention : Reuss Voigt Hill
#
# Bulk Modulus (GPa) = 44.95586 64.36488 54.66037
# Shear Modulus (GPa) = 9.47135 13.91235 11.69185
#
# Velocity S-wave (km/s) = 2.33759 2.83310 2.59719
# Velocity P-wave (km/s) = 5.76386 6.91635 6.36624
#
# Compressibility (1/GPa) = 0.02224404
#
# Stress axis : x y z
#
# Youngs Moduli (GPa) = 26.84415 82.77368 52.63821
#
# Poissons Ratio (x) = 0.06598 0.83833
# Poissons Ratio (y) = 0.02140 0.33267
# Poissons Ratio (z) = 0.42753 0.52313
#
# Static dielectric constant tensor:
#      x y z
#    x 1.631330 0.000000 0.000000 
#    y 0.000000 1.598050 0.000000 
#    z 0.000000 0.000000 1.565330 
# 
# From -- ./inp_files/41794.got.cif
#   From: 2010.05.17/outbox.cif.g08.bks.cpg/sg69_21_cif.got.tgz:41794.got - 2010.06.03 19:29:58.
