data_PCOD9511830
_publ_section_title
;
Structure prediction by ZEFSAII (Michael W. Deem and Ramdas Pophale) SiO2 
 PCOD9511830
Probable space group: F M M M
;
_chemical_formula_sum "Si O2"
_cell_formula_units_Z 144
_cell_length_a 15.640338
_cell_length_b 27.729756
_cell_length_c 15.100860
_cell_angle_alpha 90.000000
_cell_angle_beta 90.000000
_cell_angle_gamma 90.000000
_cell_volume 6549.284607
_symmetry_space_group_name_H-M "F M M M"
_symmetry_group_IT_number 69
_symmetry_cell_setting 'orthorhombic'
loop_
_space_group_symop_operation_xyz
x,y,z
-x,-y,z
x,-y,-z
-x,y,-z
-x,-y,-z
x,y,-z
-x,y,z
x,-y,z
x,1/2+y,1/2+z
-x,1/2-y,1/2+z
x,1/2-y,1/2-z
-x,1/2+y,1/2-z
-x,1/2-y,1/2-z
x,1/2+y,1/2-z
-x,1/2+y,1/2+z
x,1/2-y,1/2+z
1/2+x,y,1/2+z
1/2-x,-y,1/2+z
1/2+x,-y,1/2-z
1/2-x,y,1/2-z
1/2-x,-y,1/2-z
1/2+x,y,1/2-z
1/2-x,y,1/2+z
1/2+x,-y,1/2+z
1/2+x,1/2+y,z
1/2-x,1/2-y,z
1/2+x,1/2-y,-z
1/2-x,1/2+y,-z
1/2-x,1/2-y,-z
1/2+x,1/2+y,-z
1/2-x,1/2+y,z
1/2+x,1/2-y,z
loop_
_atom_site_type_symbol
_atom_site_label
_atom_site_fract_x
_atom_site_fract_y
_atom_site_fract_z
Si Si1 0.647174 0.741358 0.148152
Si Si2 0.095581 0.583286 0.762601
Si Si3 0.104256 0.000000 0.603144
Si Si4 0.828267 0.365370 0.599183
Si Si5 0.874488 0.656749 0.094247
O O1 0.624390 0.750000 0.250000
O O2 0.750000 0.750000 0.140860
O O3 0.628898 0.686986 0.118433
O O4 0.609076 0.786345 0.096029
O O5 0.130093 0.545458 0.835636
O O6 0.148672 0.596722 0.675590
O O7 0.089350 0.631940 0.819611
O O8 0.000000 0.567402 0.736369
O O9 0.134132 0.000000 0.500000
O O10 0.000000 0.000000 0.598603
O O11 0.850988 0.381448 0.500000
O O12 0.727210 0.353704 0.600703
O O13 0.903658 0.635944 0.000000
#
# Coordination Sequence:
#
# PCOD9511830 Si02
#       5
#    32  32  16  32  32
#     4   9  15  28  52  78 109 148 190 221 254 305
#     4  11  22  37  58  81 107 138 179 229 280 331
#     4   9  20  40  62  81 103 137 181 228 280 336
#     4  10  20  35  55  81 115 151 184 219 263 320
#     4  10  19  33  56  83 110 144 187 228 266 312
#
# _framework density 21.987134999999999
#
# number of rings (size 3 to 8) (size 9 to 14) (size 15 to 20)
#    0.000    2.111    2.222    2.000    0.000    4.444 
#    0.000    5.000    0.000    7.333    0.000    0.000 
#    0.000    0.000    0.000    0.000    0.000    0.000 
#
# Total GULP energy -200859.240852 kJ/mol
# GULP energy per Si atom -5579.423357 kJ/mol
# Density = 2.193709 g / cm^3
# Si number density = 21.987135 Si / 1000 Ang^3
#
#
#
# Elastic Constant Matrix: (Units=GPa)
#
#
# Indices 1 2 3 4 5 6 
#
# 1 42.0637 14.1596 39.3469 0.0000 0.0000 0.0000
# 2 14.1596 93.0203 62.0538 0.0000 0.0000 0.0000
# 3 39.3469 62.0538 187.3545 0.0000 0.0000 0.0000
# 4 0.0000 0.0000 0.0000 31.2171 0.0000 0.0000
# 5 0.0000 0.0000 0.0000 0.0000 -14.9265 0.0000
# 6 0.0000 0.0000 0.0000 0.0000 0.0000 23.6546
#
#
#
# Elastic Compliance Matrix: (Units=1/GPa)
#
#
# Indices 1 2 3 4 5 6 
#
# 1 0.029601 -0.000461 -0.006064 0.000000 0.000000 0.000000
# 2 -0.000461 0.013806 -0.004476 0.000000 0.000000 0.000000
# 3 -0.006064 -0.004476 0.008094 0.000000 0.000000 0.000000
# 4 0.000000 0.000000 0.000000 0.032034 0.000000 0.000000
# 5 0.000000 0.000000 0.000000 0.000000 -0.066995 0.000000
# 6 0.000000 0.000000 0.000000 0.000000 0.000000 0.042275
#
#
# Mechanical properties :
#
#
# Convention : Reuss Voigt Hill
#
# Bulk Modulus (GPa) = 33.89889 61.50655 47.70272
# Shear Modulus (GPa) = 55.15750 21.78091 38.46920
#
# Velocity S-wave (km/s) = 5.01405 3.15083 4.18739
# Velocity P-wave (km/s) = 6.99800 6.42429 6.71728
#
# Compressibility (1/GPa) = 0.02949949
#
# Stress axis : x y z
#
# Youngs Moduli (GPa) = 33.78279 72.42979 123.55520
#
# Poissons Ratio (x) = 0.03336 0.74924
# Poissons Ratio (y) = 0.01556 0.55305
# Poissons Ratio (z) = 0.20486 0.32421
#
# Static dielectric constant tensor:
#      x y z
#    x 1.885850 0.000000 0.000000 
#    y 0.000000 1.845960 0.000000 
#    z 0.000000 0.000000 1.789130 
# 
# From -- ./inp_files/15570.got.cif
#   From: 2010.05.17/outbox.cif.g08.bks.cpg/sg69_8_cif.got.tgz:15570.got - 2010.06.03 19:29:58.
