data_PCOD9511839
_publ_section_title
;
Structure prediction by ZEFSAII (Michael W. Deem and Ramdas Pophale) SiO2 
 PCOD9511839
Probable space group: F M M M
;
_chemical_formula_sum "Si O2"
_cell_formula_units_Z 144
_cell_length_a 27.542939
_cell_length_b 13.760927
_cell_length_c 20.240968
_cell_angle_alpha 90.000000
_cell_angle_beta 90.000000
_cell_angle_gamma 90.000000
_cell_volume 7671.658276
_symmetry_space_group_name_H-M "F M M M"
_symmetry_group_IT_number 69
_symmetry_cell_setting 'orthorhombic'
loop_
_space_group_symop_operation_xyz
x,y,z
-x,-y,z
x,-y,-z
-x,y,-z
-x,-y,-z
x,y,-z
-x,y,z
x,-y,z
x,1/2+y,1/2+z
-x,1/2-y,1/2+z
x,1/2-y,1/2-z
-x,1/2+y,1/2-z
-x,1/2-y,1/2-z
x,1/2+y,1/2-z
-x,1/2+y,1/2+z
x,1/2-y,1/2+z
1/2+x,y,1/2+z
1/2-x,-y,1/2+z
1/2+x,-y,1/2-z
1/2-x,y,1/2-z
1/2-x,-y,1/2-z
1/2+x,y,1/2-z
1/2-x,y,1/2+z
1/2+x,-y,1/2+z
1/2+x,1/2+y,z
1/2-x,1/2-y,z
1/2+x,1/2-y,-z
1/2-x,1/2+y,-z
1/2-x,1/2-y,-z
1/2+x,1/2+y,-z
1/2-x,1/2+y,z
1/2+x,1/2-y,z
loop_
_atom_site_type_symbol
_atom_site_label
_atom_site_fract_x
_atom_site_fract_y
_atom_site_fract_z
Si Si1 0.000000 0.615983 0.424527
Si Si2 0.727354 0.383124 0.319434
Si Si3 0.690707 0.882754 0.577033
Si Si4 0.595358 0.809582 0.351627
Si Si5 0.384513 0.114855 0.203897
O O1 0.951927 0.648199 0.386237
O O2 0.000000 0.500000 0.427127
O O3 0.000000 0.653215 0.500000
O O4 0.727970 0.500000 0.320794
O O5 0.750000 0.352890 0.250000
O O6 0.762970 0.353977 0.378549
O O7 0.670821 0.358491 0.316580
O O8 0.698843 0.862454 0.500000
O O9 0.642390 0.830894 0.603457
O O10 0.683733 0.000000 0.584440
O O11 0.606856 0.861452 0.281192
O O12 0.586145 0.695611 0.336649
O O13 0.392867 0.000000 0.192113
#
# Coordination Sequence:
#
# PCOD9511839 Si02
#       5
#    16  32  32  32  32
#     4  11  24  43  67  91 117 145 183 250 320 367
#     4   9  16  31  55  82 119 161 198 238 289 346
#     4  10  19  33  56  86 120 156 197 247 301 356
#     4  11  22  37  60  89 115 152 197 247 302 359
#     4  10  21  37  58  87 121 158 197 242 291 350
#
# _framework density 18.770388000000001
#
# number of rings (size 3 to 8) (size 9 to 14) (size 15 to 20)
#    0.000    1.889    2.222    2.667    0.000    4.444 
#    0.000    5.000    0.000    6.000    0.000    0.000 
#    0.000    0.000    0.000    0.000    0.000    0.000 
#
# Total GULP energy -200952.657043 kJ/mol
# GULP energy per Si atom -5582.018251 kJ/mol
# Density = 1.872767 g / cm^3
# Si number density = 18.770388 Si / 1000 Ang^3
#
#
#
# Elastic Constant Matrix: (Units=GPa)
#
#
# Indices 1 2 3 4 5 6 
#
# 1 110.3504 38.8825 73.9856 0.0000 0.0000 0.0000
# 2 38.8825 111.0060 41.8690 0.0000 0.0000 0.0000
# 3 73.9856 41.8690 145.8866 0.0000 0.0000 0.0000
# 4 0.0000 0.0000 0.0000 15.9970 0.0000 0.0000
# 5 0.0000 0.0000 0.0000 0.0000 0.8733 0.0000
# 6 0.0000 0.0000 0.0000 0.0000 0.0000 -86.3566
#
#
#
# Elastic Compliance Matrix: (Units=1/GPa)
#
#
# Indices 1 2 3 4 5 6 
#
# 1 0.014351 -0.002559 -0.006544 0.000000 0.000000 0.000000
# 2 -0.002559 0.010558 -0.001733 0.000000 0.000000 0.000000
# 3 -0.006544 -0.001733 0.010670 0.000000 0.000000 0.000000
# 4 0.000000 0.000000 0.000000 0.062512 0.000000 0.000000
# 5 0.000000 0.000000 0.000000 0.000000 1.145086 0.000000
# 6 0.000000 0.000000 0.000000 0.000000 0.000000 -0.011580
#
#
# Mechanical properties :
#
#
# Convention : Reuss Voigt Hill
#
# Bulk Modulus (GPa) = 71.89151 75.19080 73.54115
# Shear Modulus (GPa) = 3.97487 0.26981 2.12234
#
# Velocity S-wave (km/s) = 1.45679 0.37955 1.06449
# Velocity P-wave (km/s) = 6.41976 6.35116 6.38555
#
# Compressibility (1/GPa) = 0.01390985
#
# Stress axis : x y z
#
# Youngs Moduli (GPa) = 69.68239 94.71283 93.71671
#
# Poissons Ratio (x) = 0.24233 0.61325
# Poissons Ratio (y) = 0.17829 0.16237
# Poissons Ratio (z) = 0.45598 0.16410
#
# Static dielectric constant tensor:
#      x y z
#    x 1.632080 0.000000 0.000000 
#    y 0.000000 1.682750 0.000000 
#    z 0.000000 0.000000 1.623950 
# 
# From -- ./inp_files/27408.got.cif
#   From: 2010.05.17/outbox.cif.g08.bks.cpg/sg69_14_cif.got.tgz:27408.got - 2010.06.03 19:29:58.
