data_PCOD9511970
_publ_section_title
;
Structure prediction by ZEFSAII (Michael W. Deem and Ramdas Pophale) SiO2 
 PCOD9511970
Probable space group: F M M M
;
_chemical_formula_sum "Si O2"
_cell_formula_units_Z 104
_cell_length_a 19.461868
_cell_length_b 17.108444
_cell_length_c 16.524645
_cell_angle_alpha 90.000000
_cell_angle_beta 90.000000
_cell_angle_gamma 90.000000
_cell_volume 5502.083456
_symmetry_space_group_name_H-M "F M M M"
_symmetry_group_IT_number 69
_symmetry_cell_setting 'orthorhombic'
loop_
_space_group_symop_operation_xyz
x,y,z
-x,-y,z
x,-y,-z
-x,y,-z
-x,-y,-z
x,y,-z
-x,y,z
x,-y,z
x,1/2+y,1/2+z
-x,1/2-y,1/2+z
x,1/2-y,1/2-z
-x,1/2+y,1/2-z
-x,1/2-y,1/2-z
x,1/2+y,1/2-z
-x,1/2+y,1/2+z
x,1/2-y,1/2+z
1/2+x,y,1/2+z
1/2-x,-y,1/2+z
1/2+x,-y,1/2-z
1/2-x,y,1/2-z
1/2-x,-y,1/2-z
1/2+x,y,1/2-z
1/2-x,y,1/2+z
1/2+x,-y,1/2+z
1/2+x,1/2+y,z
1/2-x,1/2-y,z
1/2+x,1/2-y,-z
1/2-x,1/2+y,-z
1/2-x,1/2-y,-z
1/2+x,1/2+y,-z
1/2-x,1/2+y,z
1/2+x,1/2-y,z
loop_
_atom_site_type_symbol
_atom_site_label
_atom_site_fract_x
_atom_site_fract_y
_atom_site_fract_z
Si Si1 0.149829 0.789389 0.838591
Si Si2 0.775702 0.644261 0.092234
Si Si3 0.625272 0.000000 0.905203
Si Si4 0.000000 0.829087 0.807367
Si Si5 0.000000 0.000000 0.718365
O O1 0.152264 0.750000 0.750000
O O2 0.177673 0.721588 0.897315
O O3 0.209986 0.852760 0.849170
O O4 0.072952 0.819798 0.853044
O O5 0.826815 0.574206 0.108392
O O6 0.750832 0.638144 0.000000
O O7 0.564906 0.000000 0.841124
O O8 0.602268 0.000000 0.000000
O O9 0.000000 0.750000 0.750000
O O10 0.000000 0.915824 0.765919
#
# Coordination Sequence:
#
# PCOD9511970 Si02
#       5
#    32  32  16  16   8
#     4  10  19  35  55  78 109 142 180 226 270 320
#     4  10  20  35  55  81 108 141 183 225 269 327
#     4  10  21  35  54  78 109 142 177 225 277 325
#     4  10  22  37  54  79 111 144 179 225 272 323
#     4  12  23  38  56  82 113 144 182 226 276 330
#
# _framework density 18.901931000000001
#
# number of rings (size 3 to 8) (size 9 to 14) (size 15 to 20)
#    0.000    1.846    0.000    7.615    0.000    1.231 
#    0.000    9.231    0.000    0.000    0.000    7.538 
#    0.000    0.000    0.000    0.000    0.000    0.000 
#
# Total GULP energy -144854.646053 kJ/mol
# GULP energy per Si atom -5571.332541 kJ/mol
# Density = 1.885891 g / cm^3
# Si number density = 18.901931 Si / 1000 Ang^3
#
#
#
# Elastic Constant Matrix: (Units=GPa)
#
#
# Indices 1 2 3 4 5 6 
#
# 1 187.8568 47.9646 56.7967 0.0000 0.0000 0.0000
# 2 47.9646 87.2240 6.6240 0.0000 0.0000 0.0000
# 3 56.7967 6.6240 37.6340 0.0000 0.0000 0.0000
# 4 0.0000 0.0000 0.0000 28.0208 0.0000 0.0000
# 5 0.0000 0.0000 0.0000 0.0000 12.0106 0.0000
# 6 0.0000 0.0000 0.0000 0.0000 0.0000 -0.0503
#
#
#
# Elastic Compliance Matrix: (Units=1/GPa)
#
#
# Indices 1 2 3 4 5 6 
#
# 1 0.011711 -0.005167 -0.016765 0.000000 0.000000 0.000000
# 2 -0.005167 0.013900 0.005351 0.000000 0.000000 0.000000
# 3 -0.016765 0.005351 0.050931 0.000000 0.000000 0.000000
# 4 0.000000 0.000000 0.000000 0.035688 0.000000 0.000000
# 5 0.000000 0.000000 0.000000 0.000000 0.083260 0.000000
# 6 0.000000 0.000000 0.000000 0.000000 0.000000-19.866282
#
#
# Mechanical properties :
#
#
# Convention : Reuss Voigt Hill
#
# Bulk Modulus (GPa) = 23.05163 59.49836 41.27500
# Shear Modulus (GPa) = -0.25480 21.41818 10.58169
#
# Velocity S-wave (km/s) = -0.36755 3.36984 2.36862
# Velocity P-wave (km/s) = 3.47012 6.83277 5.41888
#
# Compressibility (1/GPa) = 0.04338088
#
# Stress axis : x y z
#
# Youngs Moduli (GPa) = 85.38922 71.94470 19.63439
#
# Poissons Ratio (x) = 0.37172 0.32917
# Poissons Ratio (y) = 0.44119 -0.10507
# Poissons Ratio (z) = 1.43153 -0.38499
#
# Static dielectric constant tensor:
#      x y z
#    x 1.656350 0.000000 0.000000 
#    y 0.000000 1.777970 0.000000 
#    z 0.000000 0.000000 1.680080 
# 
# From -- ./inp_files/21378.got.cif
#   From: 2010.05.17/outbox.cif.g08.bks.cpg/sg69_11_cif.got.tgz:21378.got - 2010.06.03 19:29:58.
