data_PCOD9511214
_publ_section_title
;
Structure prediction by ZEFSAII (Michael W. Deem and Ramdas Pophale) SiO2 
 PCOD9511214
Probable space group: F M M M
;
_chemical_formula_sum "Si O2"
_cell_formula_units_Z 160
_cell_length_a 22.587696
_cell_length_b 20.680357
_cell_length_c 19.479461
_cell_angle_alpha 90.000000
_cell_angle_beta 90.000000
_cell_angle_gamma 90.000000
_cell_volume 9099.277322
_symmetry_space_group_name_H-M "F M M M"
_symmetry_group_IT_number 69
_symmetry_cell_setting 'orthorhombic'
loop_
_space_group_symop_operation_xyz
x,y,z
-x,-y,z
x,-y,-z
-x,y,-z
-x,-y,-z
x,y,-z
-x,y,z
x,-y,z
x,1/2+y,1/2+z
-x,1/2-y,1/2+z
x,1/2-y,1/2-z
-x,1/2+y,1/2-z
-x,1/2-y,1/2-z
x,1/2+y,1/2-z
-x,1/2+y,1/2+z
x,1/2-y,1/2+z
1/2+x,y,1/2+z
1/2-x,-y,1/2+z
1/2+x,-y,1/2-z
1/2-x,y,1/2-z
1/2-x,-y,1/2-z
1/2+x,y,1/2-z
1/2-x,y,1/2+z
1/2+x,-y,1/2+z
1/2+x,1/2+y,z
1/2-x,1/2-y,z
1/2+x,1/2-y,-z
1/2-x,1/2+y,-z
1/2-x,1/2-y,-z
1/2+x,1/2+y,-z
1/2-x,1/2+y,z
1/2+x,1/2-y,z
loop_
_atom_site_type_symbol
_atom_site_label
_atom_site_fract_x
_atom_site_fract_y
_atom_site_fract_z
Si Si1 0.319114 0.734565 0.925297
Si Si2 0.500000 0.647524 0.581860
Si Si3 0.814311 0.075039 0.716086
Si Si4 0.375278 0.315004 0.203175
Si Si5 0.500000 0.723491 0.827538
Si Si6 0.367383 0.620744 0.579776
O O1 0.250000 0.750000 0.926760
O O2 0.330976 0.690690 0.860219
O O3 0.354167 0.802183 0.916194
O O4 0.335991 0.707312 0.000000
O O5 0.500000 0.659667 0.500000
O O6 0.500000 0.715297 0.622198
O O7 0.437395 0.612216 0.597067
O O8 0.750000 0.089764 0.750000
O O9 0.860336 0.123905 0.750980
O O10 0.824090 0.087538 0.634733
O O11 0.826335 0.000000 0.730144
O O12 0.369941 0.250000 0.250000
O O13 0.439758 0.315959 0.168819
O O14 0.500000 0.750000 0.750000
O O15 0.357794 0.601579 0.500000
#
# Coordination Sequence:
#
# PCOD9511214 Si02
#       6
#    32  16  32  32  16  32
#     4  10  19  30  50  82 112 138 178 229 278 328
#     4  10  18  32  56  88 124 152 178 229 291 348
#     4  11  24  40  56  79 112 153 196 238 287 342
#     4  11  20  33  56  79 109 144 187 229 279 331
#     4  10  18  30  48  79 112 144 178 224 272 324
#     4  10  19  35  57  85 117 148 184 230 288 350
#
# _framework density 17.583814
#
# number of rings (size 3 to 8) (size 9 to 14) (size 15 to 20)
#    0.000    1.600    4.000    2.400    0.000    0.400 
#    0.000    2.000    0.000    3.600    0.000    0.000 
#    0.000    2.400    0.000    0.000    0.000    0.200 
#
# Total GULP energy -222973.705690 kJ/mol
# GULP energy per Si atom -5574.342642 kJ/mol
# Density = 1.754379 g / cm^3
# Si number density = 17.583814 Si / 1000 Ang^3
#
#
#
# Elastic Constant Matrix: (Units=GPa)
#
#
# Indices 1 2 3 4 5 6 
#
# 1 79.9494 12.5387 38.9478 0.0000 0.0000 0.0000
# 2 12.5387 48.6102 25.8227 0.0000 0.0000 0.0000
# 3 38.9478 25.8227 107.9904 0.0000 0.0000 0.0000
# 4 0.0000 0.0000 0.0000 13.5244 0.0000 0.0000
# 5 0.0000 0.0000 0.0000 0.0000 34.2477 0.0000
# 6 0.0000 0.0000 0.0000 0.0000 0.0000 6.6471
#
#
#
# Elastic Compliance Matrix: (Units=1/GPa)
#
#
# Indices 1 2 3 4 5 6 
#
# 1 0.015231 -0.001158 -0.005216 0.000000 0.000000 0.000000
# 2 -0.001158 0.023653 -0.005238 0.000000 0.000000 0.000000
# 3 -0.005216 -0.005238 0.012394 0.000000 0.000000 0.000000
# 4 0.000000 0.000000 0.000000 0.073941 0.000000 0.000000
# 5 0.000000 0.000000 0.000000 0.000000 0.029199 0.000000
# 6 0.000000 0.000000 0.000000 0.000000 0.000000 0.150442
#
#
# Mechanical properties :
#
#
# Convention : Reuss Voigt Hill
#
# Bulk Modulus (GPa) = 35.64670 43.46315 39.55492
# Shear Modulus (GPa) = 14.81768 21.49988 18.15878
#
# Velocity S-wave (km/s) = 2.90606 3.50052 3.21705
# Velocity P-wave (km/s) = 5.61932 6.41167 6.02853
#
# Compressibility (1/GPa) = 0.02805309
#
# Stress axis : x y z
#
# Youngs Moduli (GPa) = 65.65731 42.27763 80.68427
#
# Poissons Ratio (x) = 0.04894 0.42087
# Poissons Ratio (y) = 0.07601 0.42266
# Poissons Ratio (z) = 0.34248 0.22147
#
# Static dielectric constant tensor:
#      x y z
#    x 1.578370 0.000000 0.000000 
#    y 0.000000 1.576310 0.000000 
#    z 0.000000 0.000000 1.586890 
# 
# From -- ./inp_files/24933.got.cif
#   From: 2010.05.17/outbox.cif.g08.bks.cpg/sg69_13_cif.got.tgz:24933.got - 2010.06.03 19:29:58.
