data_PCOD9511282
_publ_section_title
;
Structure prediction by ZEFSAII (Michael W. Deem and Ramdas Pophale) SiO2 
 PCOD9511282
Probable space group: F M M M
;
_chemical_formula_sum "Si O2"
_cell_formula_units_Z 160
_cell_length_a 26.033468
_cell_length_b 13.974180
_cell_length_c 24.417992
_cell_angle_alpha 90.000000
_cell_angle_beta 90.000000
_cell_angle_gamma 90.000000
_cell_volume 8883.176800
_symmetry_space_group_name_H-M "F M M M"
_symmetry_group_IT_number 69
_symmetry_cell_setting 'orthorhombic'
loop_
_space_group_symop_operation_xyz
x,y,z
-x,-y,z
x,-y,-z
-x,y,-z
-x,-y,-z
x,y,-z
-x,y,z
x,-y,z
x,1/2+y,1/2+z
-x,1/2-y,1/2+z
x,1/2-y,1/2-z
-x,1/2+y,1/2-z
-x,1/2-y,1/2-z
x,1/2+y,1/2-z
-x,1/2+y,1/2+z
x,1/2-y,1/2+z
1/2+x,y,1/2+z
1/2-x,-y,1/2+z
1/2+x,-y,1/2-z
1/2-x,y,1/2-z
1/2-x,-y,1/2-z
1/2+x,y,1/2-z
1/2-x,y,1/2+z
1/2+x,-y,1/2+z
1/2+x,1/2+y,z
1/2-x,1/2-y,z
1/2+x,1/2-y,-z
1/2-x,1/2+y,-z
1/2-x,1/2-y,-z
1/2+x,1/2+y,-z
1/2-x,1/2+y,z
1/2+x,1/2-y,z
loop_
_atom_site_type_symbol
_atom_site_label
_atom_site_fract_x
_atom_site_fract_y
_atom_site_fract_z
Si Si1 0.645048 0.813508 0.175942
Si Si2 0.941815 0.885696 0.605318
Si Si3 0.742206 0.112525 0.119641
Si Si4 0.877544 0.116866 0.500000
Si Si5 0.742133 0.615029 0.500000
Si Si6 0.834484 0.389406 0.704765
O O1 0.592877 0.863186 0.157628
O O2 0.690625 0.830340 0.132752
O O3 0.633603 0.700897 0.182415
O O4 0.667755 0.862094 0.231138
O O5 0.909192 0.850735 0.553109
O O6 0.000000 0.848359 0.607107
O O7 0.944989 0.000000 0.599803
O O8 0.781811 0.120022 0.169993
O O9 0.727596 0.000000 0.116171
O O10 0.764024 0.141746 0.059839
O O11 0.817888 0.144946 0.500000
O O12 0.876854 0.000000 0.500000
O O13 0.744565 0.500000 0.500000
O O14 0.851366 0.500000 0.698702
#
# Coordination Sequence:
#
# PCOD9511282 Si02
#       6
#    32  32  32  16  16  32
#     4  11  20  34  54  75 102 135 175 214 259 307
#     4  10  19  31  52  82 111 137 167 209 262 316
#     4  10  18  31  51  76 106 138 173 210 256 308
#     4   9  15  28  48  76 113 143 165 199 260 319
#     4   9  16  27  48  76 108 141 170 208 256 306
#     4  10  22  36  51  72 100 137 179 217 254 303
#
# _framework density 18.011575000000001
#
# number of rings (size 3 to 8) (size 9 to 14) (size 15 to 20)
#    0.000    2.000    2.000    3.300    0.000    4.400 
#    0.000    5.000    0.000    1.800    0.000    0.000 
#    0.000    1.600    0.000    0.000    0.000    0.200 
#
# Total GULP energy -222764.506605 kJ/mol
# GULP energy per Si atom -5569.112665 kJ/mol
# Density = 1.797058 g / cm^3
# Si number density = 18.011575 Si / 1000 Ang^3
#
#
#
# Elastic Constant Matrix: (Units=GPa)
#
#
# Indices 1 2 3 4 5 6 
#
# 1 46.4648 0.9102 42.9663 0.0000 0.0000 0.0000
# 2 0.9102 77.3616 9.2485 0.0000 0.0000 0.0000
# 3 42.9663 9.2485 112.4234 0.0000 0.0000 0.0000
# 4 0.0000 0.0000 0.0000 6.6073 0.0000 0.0000
# 5 0.0000 0.0000 0.0000 0.0000 -24.2960 0.0000
# 6 0.0000 0.0000 0.0000 0.0000 0.0000 12.2449
#
#
#
# Elastic Compliance Matrix: (Units=1/GPa)
#
#
# Indices 1 2 3 4 5 6 
#
# 1 0.033385 0.001144 -0.012853 0.000000 0.000000 0.000000
# 2 0.001144 0.013094 -0.001514 0.000000 0.000000 0.000000
# 3 -0.012853 -0.001514 0.013932 0.000000 0.000000 0.000000
# 4 0.000000 0.000000 0.000000 0.151347 0.000000 0.000000
# 5 0.000000 0.000000 0.000000 0.000000 -0.041159 0.000000
# 6 0.000000 0.000000 0.000000 0.000000 0.000000 0.081666
#
#
# Mechanical properties :
#
#
# Convention : Reuss Voigt Hill
#
# Bulk Modulus (GPa) = 29.44379 38.05551 33.74965
# Shear Modulus (GPa) = 17.23942 11.11957 14.17950
#
# Velocity S-wave (km/s) = 3.09711 2.48736 2.80883
# Velocity P-wave (km/s) = 5.40112 5.42435 5.41274
#
# Compressibility (1/GPa) = 0.03396302
#
# Stress axis : x y z
#
# Youngs Moduli (GPa) = 29.95392 76.37148 71.77843
#
# Poissons Ratio (x) = -0.08735 0.92258
# Poissons Ratio (y) = -0.03426 0.10869
# Poissons Ratio (z) = 0.38500 0.11565
#
# Static dielectric constant tensor:
#      x y z
#    x 1.586400 0.000000 0.000000 
#    y 0.000000 1.664360 0.000000 
#    z 0.000000 0.000000 1.687770 
# 
# From -- ./inp_files/43112.got.cif
#   From: 2010.05.17/outbox.cif.g08.bks.cpg/sg69_22_cif.got.tgz:43112.got - 2010.06.03 19:29:58.
