data_PCOD9511986
_publ_section_title
;
Structure prediction by ZEFSAII (Michael W. Deem and Ramdas Pophale) SiO2 
 PCOD9511986
Probable space group: F M M M
;
_chemical_formula_sum "Si O2"
_cell_formula_units_Z 208
_cell_length_a 27.142376
_cell_length_b 22.257851
_cell_length_c 18.128317
_cell_angle_alpha 90.000000
_cell_angle_beta 90.000000
_cell_angle_gamma 90.000000
_cell_volume 10951.877567
_symmetry_space_group_name_H-M "F M M M"
_symmetry_group_IT_number 69
_symmetry_cell_setting 'orthorhombic'
loop_
_space_group_symop_operation_xyz
x,y,z
-x,-y,z
x,-y,-z
-x,y,-z
-x,-y,-z
x,y,-z
-x,y,z
x,-y,z
x,1/2+y,1/2+z
-x,1/2-y,1/2+z
x,1/2-y,1/2-z
-x,1/2+y,1/2-z
-x,1/2-y,1/2-z
x,1/2+y,1/2-z
-x,1/2+y,1/2+z
x,1/2-y,1/2+z
1/2+x,y,1/2+z
1/2-x,-y,1/2+z
1/2+x,-y,1/2-z
1/2-x,y,1/2-z
1/2-x,-y,1/2-z
1/2+x,y,1/2-z
1/2-x,y,1/2+z
1/2+x,-y,1/2+z
1/2+x,1/2+y,z
1/2-x,1/2-y,z
1/2+x,1/2-y,-z
1/2-x,1/2+y,-z
1/2-x,1/2-y,-z
1/2+x,1/2+y,-z
1/2-x,1/2+y,z
1/2+x,1/2-y,z
loop_
_atom_site_type_symbol
_atom_site_label
_atom_site_fract_x
_atom_site_fract_y
_atom_site_fract_z
Si Si1 0.442514 0.565266 0.500000
Si Si2 0.401010 0.123904 0.858203
Si Si3 0.753396 0.609448 0.582221
Si Si4 0.337897 0.157884 0.659733
Si Si5 0.812879 0.066267 0.712267
Si Si6 0.321176 0.719161 0.586365
Si Si7 0.056080 0.682174 0.719218
O O1 0.417522 0.500000 0.500000
O O2 0.500000 0.557741 0.500000
O O3 0.428734 0.601583 0.428540
O O4 0.364058 0.072432 0.830921
O O5 0.366609 0.179099 0.884538
O O6 0.436310 0.141894 0.791735
O O7 0.743450 0.585344 0.500000
O O8 0.811384 0.619203 0.595886
O O9 0.729215 0.574123 0.650452
O O10 0.725444 0.674236 0.586294
O O11 0.316970 0.123592 0.732480
O O12 0.319082 0.224949 0.641993
O O13 0.397105 0.164131 0.667966
O O14 0.809214 0.000000 0.746992
O O15 0.328165 0.737857 0.500000
O O16 0.062577 0.750000 0.750000
O O17 0.000000 0.676684 0.689751
#
# Coordination Sequence:
#
# PCOD9511986 Si02
#       7
#    16  32  32  32  32  32  32
#     4  11  22  34  52  82 119 160 201 237 281 346
#     4  10  19  35  57  82 113 156 194 238 289 346
#     4  10  22  37  57  85 117 153 190 236 289 354
#     4  11  21  36  58  82 114 152 194 244 297 344
#     4  10  23  39  57  84 118 155 196 236 286 356
#     4  10  19  35  57  86 118 149 191 240 292 356
#     4  10  20  35  55  81 114 151 194 244 296 349
#
# _framework density 18.992177000000002
#
# number of rings (size 3 to 8) (size 9 to 14) (size 15 to 20)
#    0.000    1.769    2.308    2.308    1.077    2.769 
#    2.769    0.000    0.000    6.923    0.000    0.000 
#    0.000    0.000    0.000   23.538    0.000    0.000 
#
# Total GULP energy -289704.289154 kJ/mol
# GULP energy per Si atom -5571.236330 kJ/mol
# Density = 1.894895 g / cm^3
# Si number density = 18.992177 Si / 1000 Ang^3
#
#
#
# Elastic Constant Matrix: (Units=GPa)
#
#
# Indices 1 2 3 4 5 6 
#
# 1 96.0885 18.4855 21.8912 0.0000 0.0000 0.0000
# 2 18.4855 92.2837 32.6302 0.0000 0.0000 0.0000
# 3 21.8912 32.6302 62.1126 0.0000 0.0000 0.0000
# 4 0.0000 0.0000 0.0000 14.2379 0.0000 0.0000
# 5 0.0000 0.0000 0.0000 0.0000 12.0561 0.0000
# 6 0.0000 0.0000 0.0000 0.0000 0.0000 8.3888
#
#
#
# Elastic Compliance Matrix: (Units=1/GPa)
#
#
# Indices 1 2 3 4 5 6 
#
# 1 0.011399 -0.001060 -0.003461 0.000000 0.000000 0.000000
# 2 -0.001060 0.013407 -0.006670 0.000000 0.000000 0.000000
# 3 -0.003461 -0.006670 0.020823 0.000000 0.000000 0.000000
# 4 0.000000 0.000000 0.000000 0.070235 0.000000 0.000000
# 5 0.000000 0.000000 0.000000 0.000000 0.082945 0.000000
# 6 0.000000 0.000000 0.000000 0.000000 0.000000 0.119207
#
#
# Mechanical properties :
#
#
# Convention : Reuss Voigt Hill
#
# Bulk Modulus (GPa) = 43.01255 44.05540 43.53397
# Shear Modulus (GPa) = 14.36177 18.76843 16.56510
#
# Velocity S-wave (km/s) = 2.75288 3.14701 2.95652
# Velocity P-wave (km/s) = 5.72723 6.03753 5.88443
#
# Compressibility (1/GPa) = 0.02324903
#
# Stress axis : x y z
#
# Youngs Moduli (GPa) = 87.72374 74.58961 48.02291
#
# Poissons Ratio (x) = 0.07904 0.16621
# Poissons Ratio (y) = 0.09296 0.32029
# Poissons Ratio (z) = 0.30361 0.49748
#
# Static dielectric constant tensor:
#      x y z
#    x 1.684050 0.000000 0.000000 
#    y 0.000000 1.683280 0.000000 
#    z 0.000000 0.000000 1.670010 
# 
# From -- ./inp_files/27018.got.cif
#   From: 2010.05.17/outbox.cif.g08.bks.cpg/sg69_14_cif.got.tgz:27018.got - 2010.06.03 19:29:58.
