data_PCOD9511922
_publ_section_title
;
Structure prediction by ZEFSAII (Michael W. Deem and Ramdas Pophale) SiO2 
 PCOD9511922
Probable space group: F M M M
;
_chemical_formula_sum "Si O2"
_cell_formula_units_Z 192
_cell_length_a 20.045032
_cell_length_b 26.384614
_cell_length_c 19.498541
_cell_angle_alpha 90.000000
_cell_angle_beta 90.000000
_cell_angle_gamma 90.000000
_cell_volume 10312.396786
_symmetry_space_group_name_H-M "F M M M"
_symmetry_group_IT_number 69
_symmetry_cell_setting 'orthorhombic'
loop_
_space_group_symop_operation_xyz
x,y,z
-x,-y,z
x,-y,-z
-x,y,-z
-x,-y,-z
x,y,-z
-x,y,z
x,-y,z
x,1/2+y,1/2+z
-x,1/2-y,1/2+z
x,1/2-y,1/2-z
-x,1/2+y,1/2-z
-x,1/2-y,1/2-z
x,1/2+y,1/2-z
-x,1/2+y,1/2+z
x,1/2-y,1/2+z
1/2+x,y,1/2+z
1/2-x,-y,1/2+z
1/2+x,-y,1/2-z
1/2-x,y,1/2-z
1/2-x,-y,1/2-z
1/2+x,y,1/2-z
1/2-x,y,1/2+z
1/2+x,-y,1/2+z
1/2+x,1/2+y,z
1/2-x,1/2-y,z
1/2+x,1/2-y,-z
1/2-x,1/2+y,-z
1/2-x,1/2-y,-z
1/2+x,1/2+y,-z
1/2-x,1/2+y,z
1/2+x,1/2-y,z
loop_
_atom_site_type_symbol
_atom_site_label
_atom_site_fract_x
_atom_site_fract_y
_atom_site_fract_z
Si Si1 0.806090 0.943531 0.574516
Si Si2 0.423900 0.939299 0.267994
Si Si3 0.700607 0.797574 0.580368
Si Si4 0.575465 0.619921 0.623519
Si Si5 0.923468 0.770527 0.419824
Si Si6 0.711637 0.893839 0.321890
O O1 0.772990 0.938761 0.500000
O O2 0.866515 0.904583 0.579460
O O3 0.754651 0.933826 0.634903
O O4 0.834295 0.000000 0.580519
O O5 0.500000 0.932781 0.295437
O O6 0.422238 0.909687 0.195463
O O7 0.362938 0.914905 0.310060
O O8 0.413329 0.000000 0.259044
O O9 0.707018 0.812987 0.500000
O O10 0.750000 0.750000 0.590711
O O11 0.627343 0.774579 0.592583
O O12 0.713159 0.843221 0.632093
O O13 0.500000 0.614688 0.595626
O O14 0.588872 0.680044 0.626547
O O15 0.914480 0.786286 0.500000
O O16 0.000000 0.754852 0.410986
O O17 0.750000 0.885768 0.250000
#
# Coordination Sequence:
#
# PCOD9511922 Si02
#       6
#    32  32  32  32  32  32
#     4  11  23  37  57  87 120 155 198 246 295 352
#     4  10  22  40  61  86 119 159 199 241 294 351
#     4  10  22  40  61  84 116 155 196 243 297 354
#     4  10  19  34  57  87 120 157 195 236 290 356
#     4   9  18  34  57  83 112 148 189 237 293 349
#     4  12  24  39  61  88 118 157 198 247 298 352
#
# _framework density 18.618368
#
# number of rings (size 3 to 8) (size 9 to 14) (size 15 to 20)
#    0.000    1.667    1.667    3.000    0.000    5.000 
#    0.000    0.833    0.000    4.500    0.000    5.833 
#    0.000    0.000    0.000    0.000    0.000    0.000 
#
# Total GULP energy -267848.964788 kJ/mol
# GULP energy per Si atom -5580.186766 kJ/mol
# Density = 1.857599 g / cm^3
# Si number density = 18.618368 Si / 1000 Ang^3
#
#
#
# Elastic Constant Matrix: (Units=GPa)
#
#
# Indices 1 2 3 4 5 6 
#
# 1 78.9070 17.7773 30.1542 0.0000 0.0000 0.0000
# 2 17.7773 48.5740 22.6104 0.0000 0.0000 0.0000
# 3 30.1542 22.6104 77.0320 0.0000 0.0000 0.0000
# 4 0.0000 0.0000 0.0000 27.0331 0.0000 0.0000
# 5 0.0000 0.0000 0.0000 0.0000 10.7316 0.0000
# 6 0.0000 0.0000 0.0000 0.0000 0.0000 30.8194
#
#
#
# Elastic Compliance Matrix: (Units=1/GPa)
#
#
# Indices 1 2 3 4 5 6 
#
# 1 0.015337 -0.003264 -0.005045 0.000000 0.000000 0.000000
# 2 -0.003264 0.024540 -0.005925 0.000000 0.000000 0.000000
# 3 -0.005045 -0.005925 0.016696 0.000000 0.000000 0.000000
# 4 0.000000 0.000000 0.000000 0.036992 0.000000 0.000000
# 5 0.000000 0.000000 0.000000 0.000000 0.093183 0.000000
# 6 0.000000 0.000000 0.000000 0.000000 0.000000 0.032447
#
#
# Mechanical properties :
#
#
# Convention : Reuss Voigt Hill
#
# Bulk Modulus (GPa) = 35.58397 38.39966 36.99181
# Shear Modulus (GPa) = 19.45288 22.64821 21.05054
#
# Velocity S-wave (km/s) = 3.23588 3.49154 3.36614
# Velocity P-wave (km/s) = 5.75456 6.07650 5.91772
#
# Compressibility (1/GPa) = 0.02810254
#
# Stress axis : x y z
#
# Youngs Moduli (GPa) = 65.20305 40.74998 59.89537
#
# Poissons Ratio (x) = 0.13303 0.30220
# Poissons Ratio (y) = 0.21285 0.35489
# Poissons Ratio (z) = 0.32897 0.24145
#
# Static dielectric constant tensor:
#      x y z
#    x 1.659820 0.000000 0.000000 
#    y 0.000000 1.621340 0.000000 
#    z 0.000000 0.000000 1.643600 
# 
# From -- ./inp_files/32010.got.cif
#   From: 2010.05.17/outbox.cif.g08.bks.cpg/sg69_17_cif.got.tgz:32010.got - 2010.06.03 19:29:58.
