data_PCOD9511336
_publ_section_title
;
Structure prediction by ZEFSAII (Michael W. Deem and Ramdas Pophale) SiO2 
 PCOD9511336
Probable space group: F M M M
;
_chemical_formula_sum "Si O2"
_cell_formula_units_Z 164
_cell_length_a 23.686154
_cell_length_b 14.937179
_cell_length_c 21.537396
_cell_angle_alpha 90.000000
_cell_angle_beta 90.000000
_cell_angle_gamma 90.000000
_cell_volume 7620.023792
_symmetry_space_group_name_H-M "F M M M"
_symmetry_group_IT_number 69
_symmetry_cell_setting 'orthorhombic'
loop_
_space_group_symop_operation_xyz
x,y,z
-x,-y,z
x,-y,-z
-x,y,-z
-x,-y,-z
x,y,-z
-x,y,z
x,-y,z
x,1/2+y,1/2+z
-x,1/2-y,1/2+z
x,1/2-y,1/2-z
-x,1/2+y,1/2-z
-x,1/2-y,1/2-z
x,1/2+y,1/2-z
-x,1/2+y,1/2+z
x,1/2-y,1/2+z
1/2+x,y,1/2+z
1/2-x,-y,1/2+z
1/2+x,-y,1/2-z
1/2-x,y,1/2-z
1/2-x,-y,1/2-z
1/2+x,y,1/2-z
1/2-x,y,1/2+z
1/2+x,-y,1/2+z
1/2+x,1/2+y,z
1/2-x,1/2-y,z
1/2+x,1/2-y,-z
1/2-x,1/2+y,-z
1/2-x,1/2-y,-z
1/2+x,1/2+y,-z
1/2-x,1/2+y,z
1/2+x,1/2-y,z
loop_
_atom_site_type_symbol
_atom_site_label
_atom_site_fract_x
_atom_site_fract_y
_atom_site_fract_z
Si Si1 0.684378 0.140317 0.746719
Si Si2 0.500000 0.604669 0.196017
Si Si3 0.385559 0.353051 0.132209
Si Si4 0.105739 0.633062 0.000000
Si Si5 0.500000 0.500000 0.500000
Si Si6 0.069031 0.344463 0.500000
Si Si7 0.126053 0.650560 0.128948
Si Si8 0.500000 0.603442 0.344670
O O1 0.679222 0.250000 0.750000
O O2 0.750000 0.118145 0.750000
O O3 0.655897 0.104312 0.683559
O O4 0.651869 0.109692 0.808873
O O5 0.500000 0.500000 0.176977
O O6 0.555316 0.650797 0.169203
O O7 0.500000 0.606805 0.270206
O O8 0.359262 0.254835 0.124598
O O9 0.403528 0.384483 0.063297
O O10 0.140123 0.611257 0.937747
O O11 0.049224 0.576742 0.000000
O O12 0.086343 0.738450 0.000000
O O13 0.000000 0.352913 0.500000
O O14 0.058077 0.645468 0.133385
O O15 0.500000 0.500000 0.367322
#
# Coordination Sequence:
#
# PCOD9511336 Si02
#       8
#    32  16  32  16   4  16  32  16
#     4   9  18  34  56  78  98 129 181 229 256 293
#     4  11  21  32  48  78 111 131 169 216 261 317
#     4  10  19  34  53  76 104 141 168 209 265 308
#     4  10  22  30  43  78 108 145 165 198 253 306
#     4  12  20  32  48  72 112 152 162 198 240 314
#     4  10  18  32  51  75 113 134 172 205 251 328
#     4  10  20  33  52  74 106 140 173 204 255 313
#     4  11  22  30  46  77 112 135 166 212 255 309
#
# _framework density 21.522241999999999
#
# number of rings (size 3 to 8) (size 9 to 14) (size 15 to 20)
#    0.000    1.951    3.415    1.171    5.463    0.780 
#    0.000    1.951    0.000    8.195    0.000    0.000 
#    0.000    0.000    0.000    0.000    0.000    0.000 
#
# Total GULP energy -228476.966875 kJ/mol
# GULP energy per Si atom -5572.608948 kJ/mol
# Density = 2.147326 g / cm^3
# Si number density = 21.522242 Si / 1000 Ang^3
#
#
#
# Elastic Constant Matrix: (Units=GPa)
#
#
# Indices 1 2 3 4 5 6 
#
# 1 95.8559 -10.9309 74.2358 0.0000 0.0000 0.0000
# 2 -10.9309 62.2396 14.1282 0.0000 0.0000 0.0000
# 3 74.2358 14.1282 209.9116 0.0000 0.0000 0.0000
# 4 0.0000 0.0000 0.0000 0.6775 0.0000 0.0000
# 5 0.0000 0.0000 0.0000 0.0000 3.4119 0.0000
# 6 0.0000 0.0000 0.0000 0.0000 0.0000 6.9988
#
#
#
# Elastic Compliance Matrix: (Units=1/GPa)
#
#
# Indices 1 2 3 4 5 6 
#
# 1 0.015276 0.003970 -0.005670 0.000000 0.000000 0.000000
# 2 0.003970 0.017348 -0.002572 0.000000 0.000000 0.000000
# 3 -0.005670 -0.002572 0.006942 0.000000 0.000000 0.000000
# 4 0.000000 0.000000 0.000000 1.476109 0.000000 0.000000
# 5 0.000000 0.000000 0.000000 0.000000 0.293090 0.000000
# 6 0.000000 0.000000 0.000000 0.000000 0.000000 0.142881
#
#
# Mechanical properties :
#
#
# Convention : Reuss Voigt Hill
#
# Bulk Modulus (GPa) = 32.23397 58.09702 45.16549
# Shear Modulus (GPa) = 2.53739 21.58925 12.06332
#
# Velocity S-wave (km/s) = 1.08698 3.17063 2.37007
# Velocity P-wave (km/s) = 4.07246 6.36054 5.34048
#
# Compressibility (1/GPa) = 0.03102317
#
# Stress axis : x y z
#
# Youngs Moduli (GPa) = 65.46311 57.64398 144.05027
#
# Poissons Ratio (x) = -0.22883 0.81669
# Poissons Ratio (y) = -0.25987 0.37043
# Poissons Ratio (z) = 0.37114 0.14823
#
# Static dielectric constant tensor:
#      x y z
#    x 1.705590 0.000000 0.000000 
#    y 0.000000 1.808460 0.000000 
#    z 0.000000 0.000000 1.914580 
# 
# From -- ./inp_files/33495.got.cif
#   From: 2010.05.17/outbox.cif.g08.bks.cpg/sg69_17_cif.got.tgz:33495.got - 2010.06.03 19:29:58.
