data_PCOD9511693
_publ_section_title
;
Structure prediction by ZEFSAII (Michael W. Deem and Ramdas Pophale) SiO2 
 PCOD9511693
Probable space group: F M M M
;
_chemical_formula_sum "Si O2"
_cell_formula_units_Z 144
_cell_length_a 13.868733
_cell_length_b 15.472896
_cell_length_c 29.651610
_cell_angle_alpha 90.000000
_cell_angle_beta 90.000000
_cell_angle_gamma 90.000000
_cell_volume 6362.923078
_symmetry_space_group_name_H-M "F M M M"
_symmetry_group_IT_number 69
_symmetry_cell_setting 'orthorhombic'
loop_
_space_group_symop_operation_xyz
x,y,z
-x,-y,z
x,-y,-z
-x,y,-z
-x,-y,-z
x,y,-z
-x,y,z
x,-y,z
x,1/2+y,1/2+z
-x,1/2-y,1/2+z
x,1/2-y,1/2-z
-x,1/2+y,1/2-z
-x,1/2-y,1/2-z
x,1/2+y,1/2-z
-x,1/2+y,1/2+z
x,1/2-y,1/2+z
1/2+x,y,1/2+z
1/2-x,-y,1/2+z
1/2+x,-y,1/2-z
1/2-x,y,1/2-z
1/2-x,-y,1/2-z
1/2+x,y,1/2-z
1/2-x,y,1/2+z
1/2+x,-y,1/2+z
1/2+x,1/2+y,z
1/2-x,1/2-y,z
1/2+x,1/2-y,-z
1/2-x,1/2+y,-z
1/2-x,1/2-y,-z
1/2+x,1/2+y,-z
1/2-x,1/2+y,z
1/2+x,1/2-y,z
loop_
_atom_site_type_symbol
_atom_site_label
_atom_site_fract_x
_atom_site_fract_y
_atom_site_fract_z
Si Si1 0.888091 0.000000 0.946287
Si Si2 0.230055 0.647594 0.948219
Si Si3 0.184763 0.603600 0.855334
Si Si4 0.897735 0.099273 0.835223
Si Si5 0.863740 0.846489 0.259911
O O1 0.822956 0.085805 0.937195
O O2 0.000000 0.000000 0.931416
O O3 0.895066 0.000000 0.000000
O O4 0.250000 0.750000 0.947577
O O5 0.158771 0.628559 0.906357
O O6 0.200367 0.625847 0.000000
O O7 0.189099 0.500000 0.852255
O O8 0.294466 0.640527 0.847305
O O9 0.122606 0.632199 0.812257
O O10 0.901984 0.096733 0.780911
O O11 0.000000 0.138530 0.850950
O O12 0.893600 0.000000 0.851361
O O13 0.896025 0.750000 0.250000
O O14 0.750000 0.850923 0.250000
#
# Coordination Sequence:
#
# PCOD9511693 Si02
#       5
#    16  32  32  32  32
#     4   9  18  36  60  88 122 155 191 249 319 364
#     4  10  21  35  55  84 117 154 197 245 300 364
#     4  10  19  32  53  76 103 144 187 229 285 355
#     4   9  18  31  46  68  99 132 168 217 270 330
#     4   9  18  30  48  70  95 134 172 221 273 335
#
# _framework density 22.631108000000001
#
# number of rings (size 3 to 8) (size 9 to 14) (size 15 to 20)
#    0.000    2.556    1.111    0.667    6.222    4.000 
#    0.000    0.000    0.000    0.000    0.000    0.778 
#    0.000    6.222    0.000    0.444    0.000    0.000 
#
# Total GULP energy -200476.567436 kJ/mol
# GULP energy per Si atom -5568.793540 kJ/mol
# Density = 2.257960 g / cm^3
# Si number density = 22.631108 Si / 1000 Ang^3
#
#
#
# Elastic Constant Matrix: (Units=GPa)
#
#
# Indices 1 2 3 4 5 6 
#
# 1 55.9784 11.2161 2.1457 0.0000 0.0000 0.0000
# 2 11.2161 95.1228 27.3521 0.0000 0.0000 0.0000
# 3 2.1457 27.3521 202.1544 0.0000 0.0000 0.0000
# 4 0.0000 0.0000 0.0000 39.4992 0.0000 0.0000
# 5 0.0000 0.0000 0.0000 0.0000 -0.3539 0.0000
# 6 0.0000 0.0000 0.0000 0.0000 0.0000 -7.2061
#
#
#
# Elastic Compliance Matrix: (Units=1/GPa)
#
#
# Indices 1 2 3 4 5 6 
#
# 1 0.018298 -0.002187 0.000102 0.000000 0.000000 0.000000
# 2 -0.002187 0.011200 -0.001492 0.000000 0.000000 0.000000
# 3 0.000102 -0.001492 0.005148 0.000000 0.000000 0.000000
# 4 0.000000 0.000000 0.000000 0.025317 0.000000 0.000000
# 5 0.000000 0.000000 0.000000 0.000000 -2.825259 0.000000
# 6 0.000000 0.000000 0.000000 0.000000 0.000000 -0.138771
#
#
# Mechanical properties :
#
#
# Convention : Reuss Voigt Hill
#
# Bulk Modulus (GPa) = 36.37571 48.29815 42.33693
# Shear Modulus (GPa) = -1.73145 27.22396 12.74625
#
# Velocity S-wave (km/s) = -0.87564 3.47211 2.37580
# Velocity P-wave (km/s) = 3.88406 6.12061 5.12581
#
# Compressibility (1/GPa) = 0.02749088
#
# Stress axis : x y z
#
# Youngs Moduli (GPa) = 54.64991 89.28867 194.26816
#
# Poissons Ratio (x) = 0.19526 -0.01975
# Poissons Ratio (y) = 0.11951 0.28987
# Poissons Ratio (z) = -0.00556 0.13323
#
# Static dielectric constant tensor:
#      x y z
#    x 1.893220 0.000000 0.000000 
#    y 0.000000 1.839510 0.000000 
#    z 0.000000 0.000000 1.921140 
# 
# From -- ./inp_files/46180.got.cif
#   From: 2010.05.17/outbox.cif.g08.bks.cpg/sg69_24_cif.got.tgz:46180.got - 2010.06.03 19:29:58.
