data_PCOD9511694
_publ_section_title
;
Structure prediction by ZEFSAII (Michael W. Deem and Ramdas Pophale) SiO2 
 PCOD9511694
Probable space group: F M M M
;
_chemical_formula_sum "Si O2"
_cell_formula_units_Z 224
_cell_length_a 31.615723
_cell_length_b 23.786688
_cell_length_c 17.083789
_cell_angle_alpha 90.000000
_cell_angle_beta 90.000000
_cell_angle_gamma 90.000000
_cell_volume 12847.578883
_symmetry_space_group_name_H-M "F M M M"
_symmetry_group_IT_number 69
_symmetry_cell_setting 'orthorhombic'
loop_
_space_group_symop_operation_xyz
x,y,z
-x,-y,z
x,-y,-z
-x,y,-z
-x,-y,-z
x,y,-z
-x,y,z
x,-y,z
x,1/2+y,1/2+z
-x,1/2-y,1/2+z
x,1/2-y,1/2-z
-x,1/2+y,1/2-z
-x,1/2-y,1/2-z
x,1/2+y,1/2-z
-x,1/2+y,1/2+z
x,1/2-y,1/2+z
1/2+x,y,1/2+z
1/2-x,-y,1/2+z
1/2+x,-y,1/2-z
1/2-x,y,1/2-z
1/2-x,-y,1/2-z
1/2+x,y,1/2-z
1/2-x,y,1/2+z
1/2+x,-y,1/2+z
1/2+x,1/2+y,z
1/2-x,1/2-y,z
1/2+x,1/2-y,-z
1/2-x,1/2+y,-z
1/2-x,1/2-y,-z
1/2+x,1/2+y,-z
1/2-x,1/2+y,z
1/2+x,1/2-y,z
loop_
_atom_site_type_symbol
_atom_site_label
_atom_site_fract_x
_atom_site_fract_y
_atom_site_fract_z
Si Si1 0.162868 0.434623 0.126828
Si Si2 0.757177 0.067956 0.087303
Si Si3 0.918691 0.863797 0.373836
Si Si4 0.918781 0.636407 0.684133
Si Si5 0.950151 0.758701 0.909852
Si Si6 0.000000 0.935982 0.624268
Si Si7 0.837462 0.934739 0.815531
Si Si8 0.500000 0.436099 0.814780
O O1 0.156431 0.500000 0.101681
O O2 0.208960 0.413766 0.100447
O O3 0.124584 0.394487 0.101947
O O4 0.163748 0.435141 0.221426
O O5 0.792587 0.084649 0.149646
O O6 0.754907 0.000000 0.092206
O O7 0.771075 0.083514 0.000000
O O8 0.918704 0.859994 0.278753
O O9 0.927621 0.801537 0.403995
O O10 0.958036 0.902679 0.398730
O O11 0.927479 0.696474 0.645782
O O12 0.875521 0.605809 0.659797
O O13 0.958233 0.597083 0.660993
O O14 0.000000 0.752632 0.887566
O O15 0.948767 0.778010 0.000000
O O16 0.000000 0.937373 0.719608
O O17 0.000000 0.000000 0.596850
O O18 0.844942 0.000000 0.840061
O O19 0.500000 0.500000 0.842524
#
# Coordination Sequence:
#
# PCOD9511694 Si02
#       8
#    32  32  32  32  32  16  32  16
#     4   9  17  30  50  78 107 132 162 205 255 301
#     4   9  17  29  47  72 103 140 173 199 237 297
#     4  10  19  32  53  76  99 130 169 210 250 295
#     4  10  19  32  53  76  99 130 169 210 250 295
#     4  11  23  37  51  68  97 136 177 215 250 290
#     4   9  16  27  47  76 104 127 156 199 248 297
#     4   9  17  30  50  78 107 132 162 205 255 301
#     4   9  16  27  47  76 104 127 156 199 248 297
#
# _framework density 17.435192000000001
#
# number of rings (size 3 to 8) (size 9 to 14) (size 15 to 20)
#    0.000    2.429    1.429    1.714    0.000    6.857 
#    0.000    0.000    0.000    4.286    0.000    6.000 
#    0.000    0.000    0.000    0.000    0.000    0.000 
#
# Total GULP energy -312338.225180 kJ/mol
# GULP energy per Si atom -5577.468307 kJ/mol
# Density = 1.739551 g / cm^3
# Si number density = 17.435192 Si / 1000 Ang^3
#
#
#
# Elastic Constant Matrix: (Units=GPa)
#
#
# Indices 1 2 3 4 5 6 
#
# 1 117.7998 35.9640 28.6963 0.0000 0.0000 0.0000
# 2 35.9640 83.3908 20.2037 0.0000 0.0000 0.0000
# 3 28.6963 20.2037 33.5955 0.0000 0.0000 0.0000
# 4 0.0000 0.0000 0.0000 4.6507 0.0000 0.0000
# 5 0.0000 0.0000 0.0000 0.0000 -1.3584 0.0000
# 6 0.0000 0.0000 0.0000 0.0000 0.0000 4.7546
#
#
#
# Elastic Compliance Matrix: (Units=1/GPa)
#
#
# Indices 1 2 3 4 5 6 
#
# 1 0.011315 -0.002971 -0.007878 0.000000 0.000000 0.000000
# 2 -0.002971 0.014817 -0.006373 0.000000 0.000000 0.000000
# 3 -0.007878 -0.006373 0.040328 0.000000 0.000000 0.000000
# 4 0.000000 0.000000 0.000000 0.215023 0.000000 0.000000
# 5 0.000000 0.000000 0.000000 0.000000 -0.736177 0.000000
# 6 0.000000 0.000000 0.000000 0.000000 0.000000 0.210323
#
#
# Mechanical properties :
#
#
# Convention : Reuss Voigt Hill
#
# Bulk Modulus (GPa) = 31.23485 44.94598 38.09042
# Shear Modulus (GPa) = -25.09356 11.60419 -6.74468
#
# Velocity S-wave (km/s) = -3.79786 2.58265 -1.96897
# Velocity P-wave (km/s) = 1.13044 5.89307 4.08964
#
# Compressibility (1/GPa) = 0.03201552
#
# Stress axis : x y z
#
# Youngs Moduli (GPa) = 88.37630 67.48960 24.79675
#
# Poissons Ratio (x) = 0.20052 0.19536
# Poissons Ratio (y) = 0.26258 0.15803
# Poissons Ratio (z) = 0.69626 0.43010
#
# Static dielectric constant tensor:
#      x y z
#    x 1.585090 0.000000 0.000000 
#    y 0.000000 1.567540 0.000000 
#    z 0.000000 0.000000 1.605160 
# 
# From -- ./inp_files/28003.got.cif
#   From: 2010.05.17/outbox.cif.g08.bks.cpg/sg69_15_cif.got.tgz:28003.got - 2010.06.03 19:29:58.
