data_PCOD9511359
_publ_section_title
;
Structure prediction by ZEFSAII (Michael W. Deem and Ramdas Pophale) SiO2 
 PCOD9511359
Probable space group: F M M M
;
_chemical_formula_sum "Si O2"
_cell_formula_units_Z 116
_cell_length_a 27.204352
_cell_length_b 14.851733
_cell_length_c 14.331952
_cell_angle_alpha 90.000000
_cell_angle_beta 90.000000
_cell_angle_gamma 90.000000
_cell_volume 5790.563968
_symmetry_space_group_name_H-M "F M M M"
_symmetry_group_IT_number 69
_symmetry_cell_setting 'orthorhombic'
loop_
_space_group_symop_operation_xyz
x,y,z
-x,-y,z
x,-y,-z
-x,y,-z
-x,-y,-z
x,y,-z
-x,y,z
x,-y,z
x,1/2+y,1/2+z
-x,1/2-y,1/2+z
x,1/2-y,1/2-z
-x,1/2+y,1/2-z
-x,1/2-y,1/2-z
x,1/2+y,1/2-z
-x,1/2+y,1/2+z
x,1/2-y,1/2+z
1/2+x,y,1/2+z
1/2-x,-y,1/2+z
1/2+x,-y,1/2-z
1/2-x,y,1/2-z
1/2-x,-y,1/2-z
1/2+x,y,1/2-z
1/2-x,y,1/2+z
1/2+x,-y,1/2+z
1/2+x,1/2+y,z
1/2-x,1/2-y,z
1/2+x,1/2-y,-z
1/2-x,1/2+y,-z
1/2-x,1/2-y,-z
1/2+x,1/2+y,-z
1/2-x,1/2+y,z
1/2+x,1/2-y,z
loop_
_atom_site_type_symbol
_atom_site_label
_atom_site_fract_x
_atom_site_fract_y
_atom_site_fract_z
Si Si1 0.894567 0.605447 0.189788
Si Si2 0.500000 0.099433 0.195145
Si Si3 0.799416 0.651114 0.704780
Si Si4 0.654254 0.889714 0.000000
Si Si5 0.769495 0.890722 0.000000
Si Si6 0.500000 0.000000 0.000000
O O1 0.904531 0.500000 0.170070
O O2 0.850911 0.609502 0.264017
O O3 0.872530 0.643139 0.093237
O O4 0.947585 0.643993 0.216778
O O5 0.500000 0.076954 0.083821
O O6 0.500000 0.000000 0.243398
O O7 0.800882 0.750000 0.750000
O O8 0.750000 0.607432 0.750000
O O9 0.792547 0.647461 0.594494
O O10 0.711629 0.867133 0.000000
O O11 0.652403 0.000000 0.000000
O O12 0.773769 0.000000 0.000000
#
# Coordination Sequence:
#
# PCOD9511359 Si02
#       6
#    32  16  32  16  16   4
#     4  10  18  32  53  81 112 152 192 239 289 352
#     4   8  16  26  49  78 114 140 186 240 298 333
#     4  11  24  38  55  82 120 155 196 238 293 351
#     4   9  17  26  51  82 109 141 185 234 283 332
#     4  11  22  39  60  87 116 156 199 244 283 345
#     4   8  12  28  44  84 116 134 164 244 302 334
#
# _framework density 20.032592000000001
#
# number of rings (size 3 to 8) (size 9 to 14) (size 15 to 20)
#    0.414    1.655    2.759    1.655    1.931    4.414 
#    0.000    0.690    0.000    0.828    0.000    3.862 
#    0.000    0.000    0.000    0.000    0.000    0.000 
#
# Total GULP energy -161437.369310 kJ/mol
# GULP energy per Si atom -5566.805838 kJ/mol
# Density = 1.998700 g / cm^3
# Si number density = 20.032592 Si / 1000 Ang^3
#
#
#
# Elastic Constant Matrix: (Units=GPa)
#
#
# Indices 1 2 3 4 5 6 
#
# 1 212.6213 12.1145 78.1837 0.0000 0.0000 0.0000
# 2 12.1145 54.7119 18.2322 0.0000 0.0000 0.0000
# 3 78.1837 18.2322 142.5759 0.0000 0.0000 0.0000
# 4 0.0000 0.0000 0.0000 3.8025 0.0000 0.0000
# 5 0.0000 0.0000 0.0000 0.0000 -15.0018 0.0000
# 6 0.0000 0.0000 0.0000 0.0000 0.0000 44.3894
#
#
#
# Elastic Compliance Matrix: (Units=1/GPa)
#
#
# Indices 1 2 3 4 5 6 
#
# 1 0.005894 -0.000238 -0.003202 0.000000 0.000000 0.000000
# 2 -0.000238 0.019101 -0.002312 0.000000 0.000000 0.000000
# 3 -0.003202 -0.002312 0.009065 0.000000 0.000000 0.000000
# 4 0.000000 0.000000 0.000000 0.262988 0.000000 0.000000
# 5 0.000000 0.000000 0.000000 0.000000 -0.066659 0.000000
# 6 0.000000 0.000000 0.000000 0.000000 0.000000 0.022528
#
#
# Mechanical properties :
#
#
# Convention : Reuss Voigt Hill
#
# Bulk Modulus (GPa) = 44.33332 69.66332 56.99832
# Shear Modulus (GPa) = 18.38645 26.72991 22.55818
#
# Velocity S-wave (km/s) = 3.03285 3.65680 3.35934
# Velocity P-wave (km/s) = 5.86881 7.25810 6.60011
#
# Compressibility (1/GPa) = 0.02255640
#
# Stress axis : x y z
#
# Youngs Moduli (GPa) = 169.66257 52.35400 110.31293
#
# Poissons Ratio (x) = 0.01247 0.35318
# Poissons Ratio (y) = 0.04041 0.25504
# Poissons Ratio (z) = 0.54320 0.12104
#
# Static dielectric constant tensor:
#      x y z
#    x 1.800100 0.000000 0.000000 
#    y 0.000000 1.791570 0.000000 
#    z 0.000000 0.000000 1.683810 
# 
# From -- ./inp_files/11032.got.cif
#   From: 2010.05.17/outbox.cif.g08.bks.cpg/sg69_6_cif.got.tgz:11032.got - 2010.06.03 19:29:58.
