data_PCOD9511729
_publ_section_title
;
Structure prediction by ZEFSAII (Michael W. Deem and Ramdas Pophale) SiO2 
 PCOD9511729
Probable space group: F M M M
;
_chemical_formula_sum "Si O2"
_cell_formula_units_Z 240
_cell_length_a 21.035266
_cell_length_b 22.485295
_cell_length_c 27.669780
_cell_angle_alpha 90.000000
_cell_angle_beta 90.000000
_cell_angle_gamma 90.000000
_cell_volume 13087.367690
_symmetry_space_group_name_H-M "F M M M"
_symmetry_group_IT_number 69
_symmetry_cell_setting 'orthorhombic'
loop_
_space_group_symop_operation_xyz
x,y,z
-x,-y,z
x,-y,-z
-x,y,-z
-x,-y,-z
x,y,-z
-x,y,z
x,-y,z
x,1/2+y,1/2+z
-x,1/2-y,1/2+z
x,1/2-y,1/2-z
-x,1/2+y,1/2-z
-x,1/2-y,1/2-z
x,1/2+y,1/2-z
-x,1/2+y,1/2+z
x,1/2-y,1/2+z
1/2+x,y,1/2+z
1/2-x,-y,1/2+z
1/2+x,-y,1/2-z
1/2-x,y,1/2-z
1/2-x,-y,1/2-z
1/2+x,y,1/2-z
1/2-x,y,1/2+z
1/2+x,-y,1/2+z
1/2+x,1/2+y,z
1/2-x,1/2-y,z
1/2+x,1/2-y,-z
1/2-x,1/2+y,-z
1/2-x,1/2-y,-z
1/2+x,1/2+y,-z
1/2-x,1/2+y,z
1/2+x,1/2-y,z
loop_
_atom_site_type_symbol
_atom_site_label
_atom_site_fract_x
_atom_site_fract_y
_atom_site_fract_z
Si Si1 0.764442 0.430396 0.443027
Si Si2 0.423662 0.860854 0.804049
Si Si3 0.500000 0.070900 0.442153
Si Si4 0.924894 0.177266 0.552263
Si Si5 0.425494 0.066747 0.290247
Si Si6 0.874058 0.930842 0.395357
Si Si7 0.379279 0.617025 0.883913
Si Si8 0.576677 0.255418 0.143358
O O1 0.757422 0.415254 0.500000
O O2 0.784865 0.500000 0.441176
O O3 0.697923 0.426003 0.414724
O O4 0.816564 0.391595 0.415400
O O5 0.500000 0.868310 0.813045
O O6 0.410498 0.885414 0.750910
O O7 0.386917 0.900595 0.843491
O O8 0.409823 0.791313 0.813650
O O9 0.500000 0.077951 0.500000
O O10 0.438363 0.101070 0.418658
O O11 0.500000 0.000000 0.431396
O O12 0.896137 0.190026 0.500000
O O13 0.913708 0.109459 0.567525
O O14 0.902676 0.219358 0.595334
O O15 0.000000 0.187340 0.549860
O O16 0.500000 0.075167 0.304336
O O17 0.383768 0.073475 0.337957
O O18 0.419770 0.000000 0.270042
O O19 0.892000 0.000000 0.394456
O O20 0.389811 0.681573 0.860239
O O21 0.500000 0.265051 0.143027
#
# Coordination Sequence:
#
# PCOD9511729 Si02
#       8
#    32  32  16  32  32  32  32  32
#     4  10  22  38  54  75 108 147 184 226 275 325
#     4   9  19  35  57  82 113 143 174 218 274 333
#     4  11  22  34  52  77 104 136 181 234 280 322
#     4   9  18  31  49  75 107 137 170 223 279 325
#     4  10  19  32  54  85 114 139 173 226 282 324
#     4  10  19  34  55  77 104 140 182 224 270 327
#     4  12  21  35  54  78 108 144 185 227 271 320
#     4   9  18  34  51  77 109 142 181 220 269 322
#
# _framework density 18.338294000000001
#
# number of rings (size 3 to 8) (size 9 to 14) (size 15 to 20)
#    0.000    2.067    1.333    3.600    0.000    5.067 
#    0.000    6.000    0.000    6.400    0.000    3.733 
#    0.000    0.000    0.000    0.000    0.000    0.000 
#
# Total GULP energy -334599.287944 kJ/mol
# GULP energy per Si atom -5576.654799 kJ/mol
# Density = 1.829656 g / cm^3
# Si number density = 18.338294 Si / 1000 Ang^3
#
#
#
# Elastic Constant Matrix: (Units=GPa)
#
#
# Indices 1 2 3 4 5 6 
#
# 1 20.8905 13.1093 22.9443 0.0000 0.0000 0.0000
# 2 13.1093 91.2644 24.4162 0.0000 0.0000 0.0000
# 3 22.9443 24.4162 82.2077 0.0000 0.0000 0.0000
# 4 0.0000 0.0000 0.0000 18.2077 0.0000 0.0000
# 5 0.0000 0.0000 0.0000 0.0000 19.7619 0.0000
# 6 0.0000 0.0000 0.0000 0.0000 0.0000 15.0995
#
#
#
# Elastic Compliance Matrix: (Units=1/GPa)
#
#
# Indices 1 2 3 4 5 6 
#
# 1 0.071352 -0.005346 -0.018327 0.000000 0.000000 0.000000
# 2 -0.005346 0.012304 -0.002162 0.000000 0.000000 0.000000
# 3 -0.018327 -0.002162 0.017921 0.000000 0.000000 0.000000
# 4 0.000000 0.000000 0.000000 0.054922 0.000000 0.000000
# 5 0.000000 0.000000 0.000000 0.000000 0.050603 0.000000
# 6 0.000000 0.000000 0.000000 0.000000 0.000000 0.066227
#
#
# Mechanical properties :
#
#
# Convention : Reuss Voigt Hill
#
# Bulk Modulus (GPa) = 20.03721 35.03357 27.53539
# Shear Modulus (GPa) = 14.63556 19.54000 17.08778
#
# Velocity S-wave (km/s) = 2.82811 3.26779 3.05587
# Velocity P-wave (km/s) = 4.64913 5.77784 5.24394
#
# Compressibility (1/GPa) = 0.04990716
#
# Stress axis : x y z
#
# Youngs Moduli (GPa) = 14.01510 81.27758 55.79908
#
# Poissons Ratio (x) = 0.43451 1.02260
# Poissons Ratio (y) = 0.07493 0.12064
# Poissons Ratio (z) = 0.25685 0.17573
#
# Static dielectric constant tensor:
#      x y z
#    x 1.617620 0.000000 0.000000 
#    y 0.000000 1.649030 0.000000 
#    z 0.000000 0.000000 1.647470 
# 
# From -- ./inp_files/42831.got.cif
#   From: 2010.05.17/outbox.cif.g08.bks.cpg/sg69_22_cif.got.tgz:42831.got - 2010.06.03 19:29:58.
