data_PCOD9511480
_publ_section_title
;
Structure prediction by ZEFSAII (Michael W. Deem and Ramdas Pophale) SiO2 
 PCOD9511480
Probable space group: F M M M
;
_chemical_formula_sum "Si O2"
_cell_formula_units_Z 160
_cell_length_a 27.106275
_cell_length_b 23.297535
_cell_length_c 17.538940
_cell_angle_alpha 90.000000
_cell_angle_beta 90.000000
_cell_angle_gamma 90.000000
_cell_volume 11076.005310
_symmetry_space_group_name_H-M "F M M M"
_symmetry_group_IT_number 69
_symmetry_cell_setting 'orthorhombic'
loop_
_space_group_symop_operation_xyz
x,y,z
-x,-y,z
x,-y,-z
-x,y,-z
-x,-y,-z
x,y,-z
-x,y,z
x,-y,z
x,1/2+y,1/2+z
-x,1/2-y,1/2+z
x,1/2-y,1/2-z
-x,1/2+y,1/2-z
-x,1/2-y,1/2-z
x,1/2+y,1/2-z
-x,1/2+y,1/2+z
x,1/2-y,1/2+z
1/2+x,y,1/2+z
1/2-x,-y,1/2+z
1/2+x,-y,1/2-z
1/2-x,y,1/2-z
1/2-x,-y,1/2-z
1/2+x,y,1/2-z
1/2-x,y,1/2+z
1/2+x,-y,1/2+z
1/2+x,1/2+y,z
1/2-x,1/2-y,z
1/2+x,1/2-y,-z
1/2-x,1/2+y,-z
1/2-x,1/2-y,-z
1/2+x,1/2+y,-z
1/2-x,1/2+y,z
1/2+x,1/2-y,z
loop_
_atom_site_type_symbol
_atom_site_label
_atom_site_fract_x
_atom_site_fract_y
_atom_site_fract_z
Si Si1 0.751122 0.932519 0.412056
Si Si2 0.653150 0.627335 0.358433
Si Si3 0.943722 0.566701 0.091903
Si Si4 0.809903 0.250767 0.585793
Si Si5 0.700753 0.345100 0.203790
O O1 0.740766 0.916651 0.500000
O O2 0.808117 0.917801 0.394414
O O3 0.719819 0.894269 0.353589
O O4 0.742218 0.000000 0.401992
O O5 0.598125 0.607420 0.374858
O O6 0.668204 0.688486 0.395122
O O7 0.664764 0.632066 0.268828
O O8 0.934623 0.500000 0.113081
O O9 0.000000 0.581184 0.114076
O O10 0.941054 0.569744 0.000000
O O11 0.824938 0.267845 0.500000
O O12 0.750000 0.250000 0.586070
O O13 0.822318 0.295187 0.652598
O O14 0.750000 0.324761 0.250000
#
# Coordination Sequence:
#
# PCOD9511480 Si02
#       5
#    32  32  32  32  32
#     4  10  19  29  41  60  90 125 156 184 217 268
#     4  11  20  28  46  69  91 118 152 192 234 276
#     4   9  18  33  51  70  93 120 153 194 237 281
#     4  11  19  29  45  63  88 124 163 191 220 269
#     4  10  20  29  42  61  92 123 152 187 224 265
#
# _framework density 14.445641
#
# number of rings (size 3 to 8) (size 9 to 14) (size 15 to 20)
#    0.000    1.800    4.000    4.200    0.000    6.000 
#    0.000    0.000    0.000    2.400    0.000    0.000 
#    0.000    2.400    0.000   11.000    0.000    0.000 
#
# Total GULP energy -223105.147353 kJ/mol
# GULP energy per Si atom -5577.628684 kJ/mol
# Density = 1.441276 g / cm^3
# Si number density = 14.445641 Si / 1000 Ang^3
#
#
#
# Elastic Constant Matrix: (Units=GPa)
#
#
# Indices 1 2 3 4 5 6 
#
# 1 90.2842 45.6372 31.8167 0.0000 0.0000 0.0000
# 2 45.6372 69.8102 40.6246 0.0000 0.0000 0.0000
# 3 31.8167 40.6246 99.7907 0.0000 0.0000 0.0000
# 4 0.0000 0.0000 0.0000 -351.7956 0.0000 0.0000
# 5 0.0000 0.0000 0.0000 0.0000 17.5522 0.0000
# 6 0.0000 0.0000 0.0000 0.0000 0.0000 22.2875
#
#
#
# Elastic Compliance Matrix: (Units=1/GPa)
#
#
# Indices 1 2 3 4 5 6 
#
# 1 0.016643 -0.010211 -0.001149 0.000000 0.000000 0.000000
# 2 -0.010211 0.025036 -0.006937 0.000000 0.000000 0.000000
# 3 -0.001149 -0.006937 0.013211 0.000000 0.000000 0.000000
# 4 0.000000 0.000000 0.000000 -0.002843 0.000000 0.000000
# 5 0.000000 0.000000 0.000000 0.000000 0.056973 0.000000
# 6 0.000000 0.000000 0.000000 0.000000 0.000000 0.044868
#
#
# Mechanical properties :
#
#
# Convention : Reuss Voigt Hill
#
# Bulk Modulus (GPa) = 54.65564 55.11579 54.88572
# Shear Modulus (GPa) = 25.43467 -52.93742 -13.75138
#
# Velocity S-wave (km/s) = 4.20064 -6.06016 -3.08870
# Velocity P-wave (km/s) = 7.83867 3.27576 5.03558
#
# Compressibility (1/GPa) = 0.01829637
#
# Stress axis : x y z
#
# Youngs Moduli (GPa) = 60.08652 39.94174 75.69258
#
# Poissons Ratio (x) = 0.40784 0.08700
# Poissons Ratio (y) = 0.61354 0.52505
# Poissons Ratio (z) = 0.06906 0.27706
#
# Static dielectric constant tensor:
#      x y z
#    x 1.451720 0.000000 0.000000 
#    y 0.000000 1.491980 0.000000 
#    z 0.000000 0.000000 1.495310 
# 
# From -- ./inp_files/17739.got.cif
#   From: 2010.05.17/outbox.cif.g08.bks.cpg/sg69_9_cif.got.tgz:17739.got - 2010.06.03 19:29:58.
