data_PCOD9511087
_publ_section_title
;
Structure prediction by ZEFSAII (Michael W. Deem and Ramdas Pophale) SiO2 
 PCOD9511087
Probable space group: F M M M
;
_chemical_formula_sum "Si O2"
_cell_formula_units_Z 192
_cell_length_a 23.089469
_cell_length_b 14.306978
_cell_length_c 25.711137
_cell_angle_alpha 90.000000
_cell_angle_beta 90.000000
_cell_angle_gamma 90.000000
_cell_volume 8493.430495
_symmetry_space_group_name_H-M "F M M M"
_symmetry_group_IT_number 69
_symmetry_cell_setting 'orthorhombic'
loop_
_space_group_symop_operation_xyz
x,y,z
-x,-y,z
x,-y,-z
-x,y,-z
-x,-y,-z
x,y,-z
-x,y,z
x,-y,z
x,1/2+y,1/2+z
-x,1/2-y,1/2+z
x,1/2-y,1/2-z
-x,1/2+y,1/2-z
-x,1/2-y,1/2-z
x,1/2+y,1/2-z
-x,1/2+y,1/2+z
x,1/2-y,1/2+z
1/2+x,y,1/2+z
1/2-x,-y,1/2+z
1/2+x,-y,1/2-z
1/2-x,y,1/2-z
1/2-x,-y,1/2-z
1/2+x,y,1/2-z
1/2-x,y,1/2+z
1/2+x,-y,1/2+z
1/2+x,1/2+y,z
1/2-x,1/2-y,z
1/2+x,1/2-y,-z
1/2-x,1/2+y,-z
1/2-x,1/2-y,-z
1/2+x,1/2+y,-z
1/2-x,1/2+y,z
1/2+x,1/2-y,z
loop_
_atom_site_type_symbol
_atom_site_label
_atom_site_fract_x
_atom_site_fract_y
_atom_site_fract_z
Si Si1 0.624976 0.360892 0.746268
Si Si2 0.434664 0.614243 0.060211
Si Si3 0.792065 0.111561 0.649316
Si Si4 0.000000 0.154667 0.283902
Si Si5 0.874790 0.886090 0.442738
Si Si6 0.837136 0.393057 0.637998
Si Si7 0.000000 0.385925 0.901199
O O1 0.621699 0.250000 0.750000
O O2 0.675409 0.378479 0.704398
O O3 0.561320 0.393881 0.728653
O O4 0.638862 0.395775 0.803575
O O5 0.500000 0.644448 0.074450
O O6 0.435452 0.500000 0.062482
O O7 0.385010 0.648785 0.099219
O O8 0.423631 0.639192 0.000000
O O9 0.833956 0.146938 0.603802
O O10 0.726944 0.149642 0.643455
O O11 0.787186 0.000000 0.642811
O O12 0.000000 0.250000 0.250000
O O13 0.000000 0.165369 0.345872
O O14 0.856666 0.854108 0.500000
O O15 0.941532 0.862601 0.431658
O O16 0.872399 0.000000 0.442570
O O17 0.829813 0.500000 0.619480
O O18 0.000000 0.500000 0.892064
#
# Coordination Sequence:
#
# PCOD9511087 Si02
#       7
#    32  32  32  16  32  32  16
#     4  11  23  38  55  76 105 142 182 220 271 321
#     4   8  15  30  52  79 109 137 170 218 271 316
#     4  10  20  35  53  78 113 144 174 219 265 310
#     4  10  22  37  53  78 106 140 181 229 270 314
#     4   9  17  29  49  79 111 142 177 216 261 316
#     4  10  21  34  54  83 109 138 179 221 261 318
#     4  10  17  30  54  81 111 142 179 223 268 315
#
# _framework density 22.605706000000001
#
# number of rings (size 3 to 8) (size 9 to 14) (size 15 to 20)
#    0.000    2.333    1.667    1.750    1.167    5.000 
#    0.000    3.333    0.000    1.000    0.000    2.333 
#    0.000    0.000    0.000    0.000    0.000    0.333 
#
# Total GULP energy -268164.906634 kJ/mol
# GULP energy per Si atom -5586.768888 kJ/mol
# Density = 2.255425 g / cm^3
# Si number density = 22.605706 Si / 1000 Ang^3
#
#
#
# Elastic Constant Matrix: (Units=GPa)
#
#
# Indices 1 2 3 4 5 6 
#
# 1 219.9784 8.4956 106.0091 0.0000 0.0000 0.0000
# 2 8.4956 67.5873 -2.1968 0.0000 0.0000 0.0000
# 3 106.0091 -2.1968 161.3660 0.0000 0.0000 0.0000
# 4 0.0000 0.0000 0.0000 -42.9550 0.0000 0.0000
# 5 0.0000 0.0000 0.0000 0.0000 -1.0479 0.0000
# 6 0.0000 0.0000 0.0000 0.0000 0.0000 15.5456
#
#
#
# Elastic Compliance Matrix: (Units=1/GPa)
#
#
# Indices 1 2 3 4 5 6 
#
# 1 0.006717 -0.000988 -0.004426 0.000000 0.000000 0.000000
# 2 -0.000988 0.014948 0.000853 0.000000 0.000000 0.000000
# 3 -0.004426 0.000853 0.009117 0.000000 0.000000 0.000000
# 4 0.000000 0.000000 0.000000 -0.023280 0.000000 0.000000
# 5 0.000000 0.000000 0.000000 0.000000 -0.954324 0.000000
# 6 0.000000 0.000000 0.000000 0.000000 0.000000 0.064327
#
#
# Mechanical properties :
#
#
# Convention : Reuss Voigt Hill
#
# Bulk Modulus (GPa) = 46.17294 74.83863 60.50578
# Shear Modulus (GPa) = -5.77265 16.75014 5.48874
#
# Velocity S-wave (km/s) = -1.59974 2.72503 1.55991
# Velocity P-wave (km/s) = 4.13007 6.56346 5.48345
#
# Compressibility (1/GPa) = 0.02165771
#
# Stress axis : x y z
#
# Youngs Moduli (GPa) = 148.87381 66.90036 109.69116
#
# Poissons Ratio (x) = 0.06611 0.48552
# Poissons Ratio (y) = 0.14712 -0.09353
# Poissons Ratio (z) = 0.65895 -0.05704
#
# Static dielectric constant tensor:
#      x y z
#    x 1.846970 0.000000 0.000000 
#    y 0.000000 1.904290 0.000000 
#    z 0.000000 0.000000 1.797230 
# 
# From -- ./inp_files/37369.got.cif
#   From: 2010.05.17/outbox.cif.g08.bks.cpg/sg69_19_cif.got.tgz:37369.got - 2010.06.03 19:29:58.
