data_PCOD9511230
_publ_section_title
;
Structure prediction by ZEFSAII (Michael W. Deem and Ramdas Pophale) SiO2 
 PCOD9511230
Probable space group: F M M M
;
_chemical_formula_sum "Si O2"
_cell_formula_units_Z 176
_cell_length_a 14.549022
_cell_length_b 29.228343
_cell_length_c 18.841749
_cell_angle_alpha 90.000000
_cell_angle_beta 90.000000
_cell_angle_gamma 90.000000
_cell_volume 8012.337044
_symmetry_space_group_name_H-M "F M M M"
_symmetry_group_IT_number 69
_symmetry_cell_setting 'orthorhombic'
loop_
_space_group_symop_operation_xyz
x,y,z
-x,-y,z
x,-y,-z
-x,y,-z
-x,-y,-z
x,y,-z
-x,y,z
x,-y,z
x,1/2+y,1/2+z
-x,1/2-y,1/2+z
x,1/2-y,1/2-z
-x,1/2+y,1/2-z
-x,1/2-y,1/2-z
x,1/2+y,1/2-z
-x,1/2+y,1/2+z
x,1/2-y,1/2+z
1/2+x,y,1/2+z
1/2-x,-y,1/2+z
1/2+x,-y,1/2-z
1/2-x,y,1/2-z
1/2-x,-y,1/2-z
1/2+x,y,1/2-z
1/2-x,y,1/2+z
1/2+x,-y,1/2+z
1/2+x,1/2+y,z
1/2-x,1/2-y,z
1/2+x,1/2-y,-z
1/2-x,1/2+y,-z
1/2-x,1/2-y,-z
1/2+x,1/2+y,-z
1/2-x,1/2+y,z
1/2+x,1/2-y,z
loop_
_atom_site_type_symbol
_atom_site_label
_atom_site_fract_x
_atom_site_fract_y
_atom_site_fract_z
Si Si1 0.387489 0.314171 0.917341
Si Si2 0.349381 0.552335 0.287072
Si Si3 0.112245 0.613768 0.082096
Si Si4 0.103548 0.092871 0.852730
Si Si5 0.391902 0.500000 0.916047
Si Si6 0.106808 0.214939 0.413693
O O1 0.500000 0.311695 0.915078
O O2 0.356026 0.358425 0.873944
O O3 0.354136 0.264295 0.891669
O O4 0.361741 0.320280 0.000000
O O5 0.383761 0.500000 0.289335
O O6 0.250000 0.551184 0.250000
O O7 0.353648 0.575991 0.363089
O O8 0.401942 0.584016 0.230682
O O9 0.144332 0.664923 0.104667
O O10 0.000000 0.613699 0.083365
O O11 0.139544 0.605809 0.000000
O O12 0.147802 0.047085 0.885752
O O13 0.000000 0.094194 0.883452
O O14 0.500000 0.500000 0.894149
O O15 0.386526 0.500000 0.000000
O O16 0.107354 0.216259 0.500000
O O17 0.000000 0.214331 0.390880
#
# Coordination Sequence:
#
# PCOD9511230 Si02
#       6
#    32  32  32  32  16  32
#     4   8  13  23  44  76 111 140 168 207 254 308
#     4  11  24  40  54  70 105 144 174 213 278 343
#     4   9  18  35  62  89 107 132 180 236 276 311
#     4  10  18  30  50  75 101 136 178 217 261 311
#     4   9  16  26  43  70 101 129 167 214 246 278
#     4   7  11  23  46  78 110 134 162 211 270 313
#
# _framework density 21.966125999999999
#
# number of rings (size 3 to 8) (size 9 to 14) (size 15 to 20)
#    0.000    3.000    0.909    3.273    0.000    3.636 
#    0.000    3.636    0.000    6.545    0.000    3.818 
#    0.000    0.000    0.000    0.000    0.000    0.000 
#
# Total GULP energy -245322.692739 kJ/mol
# GULP energy per Si atom -5575.515744 kJ/mol
# Density = 2.191613 g / cm^3
# Si number density = 21.966126 Si / 1000 Ang^3
#
#
#
# Elastic Constant Matrix: (Units=GPa)
#
#
# Indices 1 2 3 4 5 6 
#
# 1 55.2898 39.0951 11.8576 0.0000 0.0000 0.0000
# 2 39.0951 173.8528 91.8545 0.0000 0.0000 0.0000
# 3 11.8576 91.8545 88.2024 0.0000 0.0000 0.0000
# 4 0.0000 0.0000 0.0000 -11.9542 0.0000 0.0000
# 5 0.0000 0.0000 0.0000 0.0000 -82.8673 0.0000
# 6 0.0000 0.0000 0.0000 0.0000 0.0000 -27.5391
#
#
#
# Elastic Compliance Matrix: (Units=1/GPa)
#
#
# Indices 1 2 3 4 5 6 
#
# 1 0.022448 -0.007678 0.004978 0.000000 0.000000 0.000000
# 2 -0.007678 0.015415 -0.015021 0.000000 0.000000 0.000000
# 3 0.004978 -0.015021 0.026311 0.000000 0.000000 0.000000
# 4 0.000000 0.000000 0.000000 -0.083653 0.000000 0.000000
# 5 0.000000 0.000000 0.000000 0.000000 -0.012067 0.000000
# 6 0.000000 0.000000 0.000000 0.000000 0.000000 -0.036312
#
#
# Mechanical properties :
#
#
# Convention : Reuss Voigt Hill
#
# Bulk Modulus (GPa) = 34.80377 66.99551 50.89964
# Shear Modulus (GPa) = -218.92742 -12.83628 -115.88185
#
# Velocity S-wave (km/s) = -9.99411 -2.41999 -7.27113
# Velocity P-wave (km/s) = 10.83041 4.77045 6.87534
#
# Compressibility (1/GPa) = 0.02873252
#
# Stress axis : x y z
#
# Youngs Moduli (GPa) = 44.54710 64.87214 38.00664
#
# Poissons Ratio (x) = 0.49811 -0.18921
# Poissons Ratio (y) = 0.34205 0.57090
# Poissons Ratio (z) = -0.22178 0.97444
#
# Static dielectric constant tensor:
#      x y z
#    x 1.909790 0.000000 0.000000 
#    y 0.000000 1.843050 0.000000 
#    z 0.000000 0.000000 1.763590 
# 
# From -- ./inp_files/23573.got.cif
#   From: 2010.05.17/outbox.cif.g08.bks.cpg/sg69_12_cif.got.tgz:23573.got - 2010.06.03 19:29:58.
