data_PCOD9511473
_publ_section_title
;
Structure prediction by ZEFSAII (Michael W. Deem and Ramdas Pophale) SiO2 
 PCOD9511473
Probable space group: F M M M
;
_chemical_formula_sum "Si O2"
_cell_formula_units_Z 240
_cell_length_a 24.066156
_cell_length_b 26.805029
_cell_length_c 23.033759
_cell_angle_alpha 90.000000
_cell_angle_beta 90.000000
_cell_angle_gamma 90.000000
_cell_volume 14858.939947
_symmetry_space_group_name_H-M "F M M M"
_symmetry_group_IT_number 69
_symmetry_cell_setting 'orthorhombic'
loop_
_space_group_symop_operation_xyz
x,y,z
-x,-y,z
x,-y,-z
-x,y,-z
-x,-y,-z
x,y,-z
-x,y,z
x,-y,z
x,1/2+y,1/2+z
-x,1/2-y,1/2+z
x,1/2-y,1/2-z
-x,1/2+y,1/2-z
-x,1/2-y,1/2-z
x,1/2+y,1/2-z
-x,1/2+y,1/2+z
x,1/2-y,1/2+z
1/2+x,y,1/2+z
1/2-x,-y,1/2+z
1/2+x,-y,1/2-z
1/2-x,y,1/2-z
1/2-x,-y,1/2-z
1/2+x,y,1/2-z
1/2-x,y,1/2+z
1/2+x,-y,1/2+z
1/2+x,1/2+y,z
1/2-x,1/2-y,z
1/2+x,1/2-y,-z
1/2-x,1/2+y,-z
1/2-x,1/2-y,-z
1/2+x,1/2+y,-z
1/2-x,1/2+y,z
1/2+x,1/2-y,z
loop_
_atom_site_type_symbol
_atom_site_label
_atom_site_fract_x
_atom_site_fract_y
_atom_site_fract_z
Si Si1 0.316563 0.058229 0.238215
Si Si2 0.435935 0.610685 0.570122
Si Si3 0.331943 0.375866 0.374758
Si Si4 0.433517 0.558424 0.069187
Si Si5 0.157455 0.391269 0.644872
Si Si6 0.259157 0.190917 0.318486
Si Si7 0.749251 0.942668 0.933923
Si Si8 0.932911 0.000000 0.435102
O O1 0.250000 0.062803 0.250000
O O2 0.332724 0.088212 0.181016
O O3 0.347271 0.081857 0.293209
O O4 0.328946 0.000000 0.232044
O O5 0.431147 0.612399 0.500000
O O6 0.500000 0.620990 0.584007
O O7 0.391036 0.643263 0.603315
O O8 0.421197 0.553949 0.590566
O O9 0.289610 0.333260 0.356280
O O10 0.304330 0.408314 0.426008
O O11 0.500000 0.563466 0.078586
O O12 0.418405 0.500000 0.082772
O O13 0.397545 0.597345 0.107071
O O14 0.423340 0.565238 0.000000
O O15 0.184062 0.336395 0.658859
O O16 0.205218 0.420850 0.609418
O O17 0.250000 0.178313 0.250000
O O18 0.250000 0.250000 0.323413
O O19 0.736564 0.000000 0.919072
O O20 0.769473 0.940896 0.000000
O O21 0.908107 0.000000 0.500000
O O22 0.000000 0.000000 0.440916
#
# Coordination Sequence:
#
# PCOD9511473 Si02
#       8
#    32  32  32  32  32  32  32  16
#     4  11  19  29  44  70 105 137 160 193 248 310
#     4   9  18  31  47  67  97 136 170 199 232 276
#     4  11  19  31  48  72  97 129 169 205 248 299
#     4   9  18  32  52  79 110 145 178 204 238 296
#     4  11  18  32  51  73  99 134 169 206 256 303
#     4  10  20  37  56  74  96 124 168 217 266 313
#     4  10  19  27  42  71 101 130 164 203 242 291
#     4   7  12  24  40  60  87 126 170 196 215 250
#
# _framework density 16.151892
#
# number of rings (size 3 to 8) (size 9 to 14) (size 15 to 20)
#    0.000    2.067    4.000    3.600    1.867    1.067 
#    0.000    0.667    0.000   16.000    0.000    3.733 
#    0.000    0.000    0.000    0.000    0.000    0.000 
#
# Total GULP energy -334126.680839 kJ/mol
# GULP energy per Si atom -5568.778014 kJ/mol
# Density = 1.611513 g / cm^3
# Si number density = 16.151892 Si / 1000 Ang^3
#
#
#
# Elastic Constant Matrix: (Units=GPa)
#
#
# Indices 1 2 3 4 5 6 
#
# 1 78.9784 21.5257 23.9690 0.0000 0.0000 0.0000
# 2 21.5257 82.6212 22.8586 0.0000 0.0000 0.0000
# 3 23.9690 22.8586 59.6394 0.0000 0.0000 0.0000
# 4 0.0000 0.0000 0.0000 14.4500 0.0000 0.0000
# 5 0.0000 0.0000 0.0000 0.0000 17.7649 0.0000
# 6 0.0000 0.0000 0.0000 0.0000 0.0000 11.7356
#
#
#
# Elastic Compliance Matrix: (Units=1/GPa)
#
#
# Indices 1 2 3 4 5 6 
#
# 1 0.014862 -0.002483 -0.005022 0.000000 0.000000 0.000000
# 2 -0.002483 0.013954 -0.004350 0.000000 0.000000 0.000000
# 3 -0.005022 -0.004350 0.020453 0.000000 0.000000 0.000000
# 4 0.000000 0.000000 0.000000 0.069204 0.000000 0.000000
# 5 0.000000 0.000000 0.000000 0.000000 0.056291 0.000000
# 6 0.000000 0.000000 0.000000 0.000000 0.000000 0.085210
#
#
# Mechanical properties :
#
#
# Convention : Reuss Voigt Hill
#
# Bulk Modulus (GPa) = 39.12410 39.77175 39.44792
# Shear Modulus (GPa) = 17.11130 18.98247 18.04689
#
# Velocity S-wave (km/s) = 3.25837 3.43191 3.34626
# Velocity P-wave (km/s) = 6.19929 6.35461 6.27743
#
# Compressibility (1/GPa) = 0.02555969
#
# Stress axis : x y z
#
# Youngs Moduli (GPa) = 67.28399 71.66450 48.89254
#
# Poissons Ratio (x) = 0.17793 0.24552
# Poissons Ratio (y) = 0.16706 0.21270
# Poissons Ratio (z) = 0.33787 0.31177
#
# Static dielectric constant tensor:
#      x y z
#    x 1.574180 0.000000 0.000000 
#    y 0.000000 1.549350 0.000000 
#    z 0.000000 0.000000 1.550270 
# 
# From -- ./inp_files/33045.got.cif
#   From: 2010.05.17/outbox.cif.g08.bks.cpg/sg69_17_cif.got.tgz:33045.got - 2010.06.03 19:29:58.
