data_PCOD9511766
_publ_section_title
;
Structure prediction by ZEFSAII (Michael W. Deem and Ramdas Pophale) SiO2 
 PCOD9511766
Probable space group: F M M M
;
_chemical_formula_sum "Si O2"
_cell_formula_units_Z 160
_cell_length_a 16.622878
_cell_length_b 29.010650
_cell_length_c 15.041342
_cell_angle_alpha 90.000000
_cell_angle_beta 90.000000
_cell_angle_gamma 90.000000
_cell_volume 7253.544221
_symmetry_space_group_name_H-M "F M M M"
_symmetry_group_IT_number 69
_symmetry_cell_setting 'orthorhombic'
loop_
_space_group_symop_operation_xyz
x,y,z
-x,-y,z
x,-y,-z
-x,y,-z
-x,-y,-z
x,y,-z
-x,y,z
x,-y,z
x,1/2+y,1/2+z
-x,1/2-y,1/2+z
x,1/2-y,1/2-z
-x,1/2+y,1/2-z
-x,1/2-y,1/2-z
x,1/2+y,1/2-z
-x,1/2+y,1/2+z
x,1/2-y,1/2+z
1/2+x,y,1/2+z
1/2-x,-y,1/2+z
1/2+x,-y,1/2-z
1/2-x,y,1/2-z
1/2-x,-y,1/2-z
1/2+x,y,1/2-z
1/2-x,y,1/2+z
1/2+x,-y,1/2+z
1/2+x,1/2+y,z
1/2-x,1/2-y,z
1/2+x,1/2-y,-z
1/2-x,1/2+y,-z
1/2-x,1/2-y,-z
1/2+x,1/2+y,-z
1/2-x,1/2+y,z
1/2+x,1/2-y,z
loop_
_atom_site_type_symbol
_atom_site_label
_atom_site_fract_x
_atom_site_fract_y
_atom_site_fract_z
Si Si1 0.413713 0.728675 0.604276
Si Si2 0.245602 0.052274 0.141335
Si Si3 0.155281 0.364055 0.155805
Si Si4 0.406914 0.611043 0.851592
Si Si5 0.806103 0.807448 0.101487
O O1 0.414794 0.740139 0.500000
O O2 0.500000 0.741380 0.643901
O O3 0.401338 0.674088 0.612235
O O4 0.340224 0.759622 0.639157
O O5 0.250000 0.052769 0.250000
O O6 0.314146 0.088448 0.111453
O O7 0.157804 0.072641 0.118193
O O8 0.256612 0.000000 0.111681
O O9 0.114280 0.378073 0.248353
O O10 0.238921 0.334910 0.156190
O O11 0.500000 0.598996 0.862844
O O12 0.382529 0.658371 0.899561
O O13 0.774887 0.802366 0.000000
#
# Coordination Sequence:
#
# PCOD9511766 Si02
#       5
#    32  32  32  32  32
#     4  10  20  33  51  76 106 140 178 219 262 311
#     4   8  16  32  52  74 100 131 169 211 256 311
#     4  10  19  33  53  77 104 135 173 217 263 311
#     4  10  20  33  52  80 110 136 167 214 266 310
#     4  10  20  35  54  75 103 143 184 213 247 305
#
# _framework density 22.058181999999999
#
# number of rings (size 3 to 8) (size 9 to 14) (size 15 to 20)
#    0.000    2.400    0.000    4.200    0.000    4.000 
#    0.000    8.000    0.000   16.800    0.000    7.000 
#    0.000    0.000    0.000    1.200    0.000    0.000 
#
# Total GULP energy -223075.702270 kJ/mol
# GULP energy per Si atom -5576.892557 kJ/mol
# Density = 2.200798 g / cm^3
# Si number density = 22.058182 Si / 1000 Ang^3
#
#
#
# Elastic Constant Matrix: (Units=GPa)
#
#
# Indices 1 2 3 4 5 6 
#
# 1 102.3547 21.4758 0.1854 0.0000 0.0000 0.0000
# 2 21.4758 153.1430 1.8469 0.0000 0.0000 0.0000
# 3 0.1854 1.8469 55.2308 0.0000 0.0000 0.0000
# 4 0.0000 0.0000 0.0000 24.3580 0.0000 0.0000
# 5 0.0000 0.0000 0.0000 0.0000 17.2422 0.0000
# 6 0.0000 0.0000 0.0000 0.0000 0.0000 20.9296
#
#
#
# Elastic Compliance Matrix: (Units=1/GPa)
#
#
# Indices 1 2 3 4 5 6 
#
# 1 0.010066 -0.001412 0.000013 0.000000 0.000000 0.000000
# 2 -0.001412 0.006730 -0.000220 0.000000 0.000000 0.000000
# 3 0.000013 -0.000220 0.018113 0.000000 0.000000 0.000000
# 4 0.000000 0.000000 0.000000 0.041054 0.000000 0.000000
# 5 0.000000 0.000000 0.000000 0.000000 0.057997 0.000000
# 6 0.000000 0.000000 0.000000 0.000000 0.000000 0.047779
#
#
# Mechanical properties :
#
#
# Convention : Reuss Voigt Hill
#
# Bulk Modulus (GPa) = 31.57319 39.74940 35.66130
# Shear Modulus (GPa) = 25.57081 31.65397 28.61239
#
# Velocity S-wave (km/s) = 3.40846 3.79228 3.60548
# Velocity P-wave (km/s) = 5.46213 6.10201 5.79091
#
# Compressibility (1/GPa) = 0.03167244
#
# Stress axis : x y z
#
# Youngs Moduli (GPa) = 99.34297 148.57780 55.20844
#
# Poissons Ratio (x) = 0.20976 -0.00074
# Poissons Ratio (y) = 0.14025 0.01216
# Poissons Ratio (z) = -0.00133 0.03274
#
# Static dielectric constant tensor:
#      x y z
#    x 1.867610 0.000000 0.000000 
#    y 0.000000 1.833060 0.000000 
#    z 0.000000 0.000000 1.849300 
# 
# From -- ./inp_files/23172.got.cif
#   From: 2010.05.17/outbox.cif.g08.bks.cpg/sg69_12_cif.got.tgz:23172.got - 2010.06.03 19:29:58.
