data_PCOD9511419
_publ_section_title
;
Structure prediction by ZEFSAII (Michael W. Deem and Ramdas Pophale) SiO2 
 PCOD9511419
Probable space group: F M M M
;
_chemical_formula_sum "Si O2"
_cell_formula_units_Z 200
_cell_length_a 31.784024
_cell_length_b 20.059698
_cell_length_c 18.335299
_cell_angle_alpha 90.000000
_cell_angle_beta 90.000000
_cell_angle_gamma 90.000000
_cell_volume 11690.181848
_symmetry_space_group_name_H-M "F M M M"
_symmetry_group_IT_number 69
_symmetry_cell_setting 'orthorhombic'
loop_
_space_group_symop_operation_xyz
x,y,z
-x,-y,z
x,-y,-z
-x,y,-z
-x,-y,-z
x,y,-z
-x,y,z
x,-y,z
x,1/2+y,1/2+z
-x,1/2-y,1/2+z
x,1/2-y,1/2-z
-x,1/2+y,1/2-z
-x,1/2-y,1/2-z
x,1/2+y,1/2-z
-x,1/2+y,1/2+z
x,1/2-y,1/2+z
1/2+x,y,1/2+z
1/2-x,-y,1/2+z
1/2+x,-y,1/2-z
1/2-x,y,1/2-z
1/2-x,-y,1/2-z
1/2+x,y,1/2-z
1/2-x,y,1/2+z
1/2+x,-y,1/2+z
1/2+x,1/2+y,z
1/2-x,1/2-y,z
1/2+x,1/2-y,-z
1/2-x,1/2+y,-z
1/2-x,1/2-y,-z
1/2+x,1/2+y,-z
1/2-x,1/2+y,z
1/2+x,1/2-y,z
loop_
_atom_site_type_symbol
_atom_site_label
_atom_site_fract_x
_atom_site_fract_y
_atom_site_fract_z
Si Si1 0.648319 0.000000 0.500000
Si Si2 0.114452 0.925660 0.282887
Si Si3 0.240319 0.326019 0.586756
Si Si4 0.833316 0.628038 0.916494
Si Si5 0.548368 0.690344 0.308462
Si Si6 0.110105 0.243200 0.083991
Si Si7 0.154340 0.110703 0.131226
O O1 0.649009 0.058402 0.565104
O O2 0.143192 0.912877 0.354195
O O3 0.077604 0.870783 0.283737
O O4 0.142244 0.918086 0.209950
O O5 0.096757 0.000000 0.285349
O O6 0.229491 0.323385 0.500000
O O7 0.250000 0.250000 0.609917
O O8 0.283374 0.367325 0.594339
O O9 0.201669 0.360337 0.627234
O O10 0.851885 0.703260 0.910796
O O11 0.841704 0.605534 0.000000
O O12 0.500000 0.670749 0.319740
O O13 0.549695 0.750000 0.250000
O O14 0.570383 0.721729 0.379286
O O15 0.124126 0.174587 0.120109
O O16 0.101948 0.229915 0.000000
#
# Coordination Sequence:
#
# PCOD9511419 Si02
#       7
#     8  32  32  32  32  32  32
#     4  12  24  36  54  86 123 168 194 232 289 358
#     4  11  24  40  58  85 120 158 197 237 292 363
#     4  10  18  33  57  82 113 151 202 253 298 335
#     4   9  20  37  57  84 111 153 199 251 297 337
#     4  10  21  38  62  90 113 141 186 240 295 349
#     4  10  18  34  61  85 114 147 190 242 290 339
#     4  12  21  36  56  86 118 158 204 240 287 348
#
# _framework density 17.108374000000001
#
# number of rings (size 3 to 8) (size 9 to 14) (size 15 to 20)
#    0.000    1.600    5.600    0.000    0.000    1.600 
#    1.440    1.600    0.000    0.000    0.000    5.600 
#    0.000    0.000    0.000    0.000    0.000    0.000 
#
# Total GULP energy -278367.110445 kJ/mol
# GULP energy per Si atom -5567.342209 kJ/mol
# Density = 1.706943 g / cm^3
# Si number density = 17.108374 Si / 1000 Ang^3
#
#
#
# Elastic Constant Matrix: (Units=GPa)
#
#
# Indices 1 2 3 4 5 6 
#
# 1 108.6077 42.0096 44.5388 0.0000 0.0000 0.0000
# 2 42.0096 96.1631 40.5681 0.0000 0.0000 0.0000
# 3 44.5388 40.5681 94.9013 0.0000 0.0000 0.0000
# 4 0.0000 0.0000 0.0000 28.3316 0.0000 0.0000
# 5 0.0000 0.0000 0.0000 0.0000 15.7939 0.0000
# 6 0.0000 0.0000 0.0000 0.0000 0.0000 1.3041
#
#
#
# Elastic Compliance Matrix: (Units=1/GPa)
#
#
# Indices 1 2 3 4 5 6 
#
# 1 0.012344 -0.003597 -0.004255 0.000000 0.000000 0.000000
# 2 -0.003597 0.013735 -0.004183 0.000000 0.000000 0.000000
# 3 -0.004255 -0.004183 0.014323 0.000000 0.000000 0.000000
# 4 0.000000 0.000000 0.000000 0.035296 0.000000 0.000000
# 5 0.000000 0.000000 0.000000 0.000000 0.063316 0.000000
# 6 0.000000 0.000000 0.000000 0.000000 0.000000 0.766831
#
#
# Mechanical properties :
#
#
# Convention : Reuss Voigt Hill
#
# Bulk Modulus (GPa) = 61.23739 61.54502 61.39120
# Shear Modulus (GPa) = 5.34553 20.58962 12.96758
#
# Velocity S-wave (km/s) = 1.76955 3.47289 2.75611
# Velocity P-wave (km/s) = 6.32824 7.22032 6.78895
#
# Compressibility (1/GPa) = 0.01632989
#
# Stress axis : x y z
#
# Youngs Moduli (GPa) = 81.01081 72.80517 69.81942
#
# Poissons Ratio (x) = 0.26190 0.29712
# Poissons Ratio (y) = 0.29142 0.29207
# Poissons Ratio (z) = 0.34474 0.30456
#
# Static dielectric constant tensor:
#      x y z
#    x 1.559820 0.000000 0.000000 
#    y 0.000000 1.612900 0.000000 
#    z 0.000000 0.000000 1.577760 
# 
# From -- ./inp_files/27912.got.cif
#   From: 2010.05.17/outbox.cif.g08.bks.cpg/sg69_14_cif.got.tgz:27912.got - 2010.06.03 19:29:58.
