data_PCOD9511207
_publ_section_title
;
Structure prediction by ZEFSAII (Michael W. Deem and Ramdas Pophale) SiO2 
 PCOD9511207
Probable space group: F M M M
;
_chemical_formula_sum "Si O2"
_cell_formula_units_Z 192
_cell_length_a 19.924254
_cell_length_b 28.463601
_cell_length_c 20.428234
_cell_angle_alpha 90.000000
_cell_angle_beta 90.000000
_cell_angle_gamma 90.000000
_cell_volume 11585.178682
_symmetry_space_group_name_H-M "F M M M"
_symmetry_group_IT_number 69
_symmetry_cell_setting 'orthorhombic'
loop_
_space_group_symop_operation_xyz
x,y,z
-x,-y,z
x,-y,-z
-x,y,-z
-x,-y,-z
x,y,-z
-x,y,z
x,-y,z
x,1/2+y,1/2+z
-x,1/2-y,1/2+z
x,1/2-y,1/2-z
-x,1/2+y,1/2-z
-x,1/2-y,1/2-z
x,1/2+y,1/2-z
-x,1/2+y,1/2+z
x,1/2-y,1/2+z
1/2+x,y,1/2+z
1/2-x,-y,1/2+z
1/2+x,-y,1/2-z
1/2-x,y,1/2-z
1/2-x,-y,1/2-z
1/2+x,y,1/2-z
1/2-x,y,1/2+z
1/2+x,-y,1/2+z
1/2+x,1/2+y,z
1/2-x,1/2-y,z
1/2+x,1/2-y,-z
1/2-x,1/2+y,-z
1/2-x,1/2-y,-z
1/2+x,1/2+y,-z
1/2-x,1/2+y,z
1/2+x,1/2-y,z
loop_
_atom_site_type_symbol
_atom_site_label
_atom_site_fract_x
_atom_site_fract_y
_atom_site_fract_z
Si Si1 0.204163 0.053205 0.579298
Si Si2 0.925598 0.888155 0.421582
Si Si3 0.782662 0.301411 0.186963
Si Si4 0.425915 0.790137 0.845806
Si Si5 0.075479 0.191840 0.078345
Si Si6 0.712649 0.359272 0.078229
O O1 0.199978 0.050872 0.500000
O O2 0.136024 0.079596 0.601542
O O3 0.267008 0.087176 0.593662
O O4 0.209423 0.000000 0.603846
O O5 0.920467 0.884526 0.500000
O O6 0.923323 0.835834 0.392384
O O7 0.000000 0.907712 0.405968
O O8 0.750000 0.325624 0.250000
O O9 0.750000 0.250000 0.181084
O O10 0.861481 0.296007 0.199256
O O11 0.763782 0.328020 0.120604
O O12 0.500000 0.789131 0.814848
O O13 0.416709 0.742051 0.886327
O O14 0.137355 0.157612 0.094966
O O15 0.000000 0.174150 0.093815
O O16 0.078315 0.199424 0.000000
O O17 0.722443 0.352177 0.000000
#
# Coordination Sequence:
#
# PCOD9511207 Si02
#       6
#    32  32  32  32  32  32
#     4   9  17  28  44  69  98 126 161 206 249 287
#     4   9  16  25  41  68 101 132 159 192 236 287
#     4  11  22  35  48  72 104 133 162 205 245 282
#     4  10  18  30  47  69  98 131 165 194 234 293
#     4   9  17  28  45  72 101 126 159 205 246 285
#     4  10  19  32  52  72  94 132 171 203 243 294
#
# _framework density 16.572899
#
# number of rings (size 3 to 8) (size 9 to 14) (size 15 to 20)
#    0.000    2.333    3.333    0.500    0.000    3.333 
#    0.000    4.167    0.000    1.000    0.000    3.500 
#    0.000    0.000    0.000    0.000    0.000    0.000 
#
# Total GULP energy -267283.299221 kJ/mol
# GULP energy per Si atom -5568.402067 kJ/mol
# Density = 1.653518 g / cm^3
# Si number density = 16.572899 Si / 1000 Ang^3
#
#
#
# Elastic Constant Matrix: (Units=GPa)
#
#
# Indices 1 2 3 4 5 6 
#
# 1 159.2744 54.8502 25.1062 0.0000 0.0000 0.0000
# 2 54.8502 103.4711 14.4281 0.0000 0.0000 0.0000
# 3 25.1062 14.4281 20.7549 0.0000 0.0000 0.0000
# 4 0.0000 0.0000 0.0000 2.0863 0.0000 0.0000
# 5 0.0000 0.0000 0.0000 0.0000 11.6543 0.0000
# 6 0.0000 0.0000 0.0000 0.0000 0.0000 17.2276
#
#
#
# Elastic Compliance Matrix: (Units=1/GPa)
#
#
# Indices 1 2 3 4 5 6 
#
# 1 0.008777 -0.003513 -0.008175 0.000000 0.000000 0.000000
# 2 -0.003513 0.012108 -0.004168 0.000000 0.000000 0.000000
# 3 -0.008175 -0.004168 0.060968 0.000000 0.000000 0.000000
# 4 0.000000 0.000000 0.000000 0.479329 0.000000 0.000000
# 5 0.000000 0.000000 0.000000 0.000000 0.085805 0.000000
# 6 0.000000 0.000000 0.000000 0.000000 0.000000 0.058046
#
#
# Mechanical properties :
#
#
# Convention : Reuss Voigt Hill
#
# Bulk Modulus (GPa) = 19.94363 52.47436 36.20899
# Shear Modulus (GPa) = 6.63608 18.80135 12.71871
#
# Velocity S-wave (km/s) = 2.00321 3.37183 2.77328
# Velocity P-wave (km/s) = 4.17259 6.84766 5.67014
#
# Compressibility (1/GPa) = 0.05014133
#
# Stress axis : x y z
#
# Youngs Moduli (GPa) = 113.93754 82.59167 16.40214
#
# Poissons Ratio (x) = 0.29012 0.13409
# Poissons Ratio (y) = 0.40022 0.06836
# Poissons Ratio (z) = 0.93143 0.34423
#
# Static dielectric constant tensor:
#      x y z
#    x 1.612950 0.000000 0.000000 
#    y 0.000000 1.542180 0.000000 
#    z 0.000000 0.000000 1.564390 
# 
# From -- ./inp_files/32105.got.cif
#   From: 2010.05.17/outbox.cif.g08.bks.cpg/sg69_17_cif.got.tgz:32105.got - 2010.06.03 19:29:58.
