data_PCOD9511097
_publ_section_title
;
Structure prediction by ZEFSAII (Michael W. Deem and Ramdas Pophale) SiO2 
 PCOD9511097
Probable space group: F M M M
;
_chemical_formula_sum "Si O2"
_cell_formula_units_Z 120
_cell_length_a 18.364832
_cell_length_b 25.331517
_cell_length_c 15.660223
_cell_angle_alpha 90.000000
_cell_angle_beta 90.000000
_cell_angle_gamma 90.000000
_cell_volume 7285.277527
_symmetry_space_group_name_H-M "F M M M"
_symmetry_group_IT_number 69
_symmetry_cell_setting 'orthorhombic'
loop_
_space_group_symop_operation_xyz
x,y,z
-x,-y,z
x,-y,-z
-x,y,-z
-x,-y,-z
x,y,-z
-x,y,z
x,-y,z
x,1/2+y,1/2+z
-x,1/2-y,1/2+z
x,1/2-y,1/2-z
-x,1/2+y,1/2-z
-x,1/2-y,1/2-z
x,1/2+y,1/2-z
-x,1/2+y,1/2+z
x,1/2-y,1/2+z
1/2+x,y,1/2+z
1/2-x,-y,1/2+z
1/2+x,-y,1/2-z
1/2-x,y,1/2-z
1/2-x,-y,1/2-z
1/2+x,y,1/2-z
1/2-x,y,1/2+z
1/2+x,-y,1/2+z
1/2+x,1/2+y,z
1/2-x,1/2-y,z
1/2+x,1/2-y,-z
1/2-x,1/2+y,-z
1/2-x,1/2-y,-z
1/2+x,1/2+y,-z
1/2-x,1/2+y,z
1/2+x,1/2-y,z
loop_
_atom_site_type_symbol
_atom_site_label
_atom_site_fract_x
_atom_site_fract_y
_atom_site_fract_z
Si Si1 0.288620 0.890300 0.658586
Si Si2 0.320563 0.000000 0.403560
Si Si3 0.324842 0.500000 0.500000
Si Si4 0.167322 0.771744 0.842903
Si Si5 0.913653 0.280072 0.000000
Si Si6 0.676206 0.886341 0.000000
O O1 0.250000 0.895065 0.750000
O O2 0.331397 0.835143 0.657960
O O3 0.229292 0.884536 0.582403
O O4 0.333850 0.944062 0.641179
O O5 0.232506 0.000000 0.420714
O O6 0.351628 0.000000 0.500000
O O7 0.362556 0.556313 0.500000
O O8 0.146023 0.750000 0.750000
O O9 0.250000 0.750000 0.858143
O O10 0.116848 0.749766 0.916997
O O11 0.878210 0.338075 0.000000
O O12 0.000000 0.282249 0.000000
#
# Coordination Sequence:
#
# PCOD9511097 Si02
#       6
#    32  16   8  32  16  16
#     4  11  17  29  52  75 103 136 168 212 267 307
#     4   8  17  27  42  78 110 132 155 214 268 309
#     4   6  14  26  45  62  92 134 157 204 254 290
#     4  11  20  35  55  80 102 137 183 218 261 314
#     4  12  24  34  51  76 107 146 176 217 271 312
#     4  10  17  32  46  70 105 129 174 216 252 315
#
# _framework density 16.471575999999999
#
# number of rings (size 3 to 8) (size 9 to 14) (size 15 to 20)
#    0.400    1.333    6.667    1.600    0.000    0.533 
#    0.000    0.333    0.000    0.000    0.000    1.867 
#    0.000    0.000    0.000    0.000    0.000    0.000 
#
# Total GULP energy -167069.409073 kJ/mol
# GULP energy per Si atom -5568.980302 kJ/mol
# Density = 1.643409 g / cm^3
# Si number density = 16.471576 Si / 1000 Ang^3
#
#
#
# Elastic Constant Matrix: (Units=GPa)
#
#
# Indices 1 2 3 4 5 6 
#
# 1 29.2544 21.0811 43.1991 0.0000 0.0000 0.0000
# 2 21.0811 204.1129 55.9338 0.0000 0.0000 0.0000
# 3 43.1991 55.9338 134.6458 0.0000 0.0000 0.0000
# 4 0.0000 0.0000 0.0000 30.3709 0.0000 0.0000
# 5 0.0000 0.0000 0.0000 0.0000 -7.2914 0.0000
# 6 0.0000 0.0000 0.0000 0.0000 0.0000 7.5060
#
#
#
# Elastic Compliance Matrix: (Units=1/GPa)
#
#
# Indices 1 2 3 4 5 6 
#
# 1 0.065188 -0.001130 -0.020445 0.000000 0.000000 0.000000
# 2 -0.001130 0.005548 -0.001942 0.000000 0.000000 0.000000
# 3 -0.020445 -0.001942 0.014793 0.000000 0.000000 0.000000
# 4 0.000000 0.000000 0.000000 0.032926 0.000000 0.000000
# 5 0.000000 0.000000 0.000000 0.000000 -0.137148 0.000000
# 6 0.000000 0.000000 0.000000 0.000000 0.000000 0.133227
#
#
# Mechanical properties :
#
#
# Convention : Reuss Voigt Hill
#
# Bulk Modulus (GPa) = 25.97764 67.60456 46.79110
# Shear Modulus (GPa) = 28.66930 22.63703 25.65316
#
# Velocity S-wave (km/s) = 4.17649 3.71119 3.95070
# Velocity P-wave (km/s) = 6.25003 7.71338 7.01994
#
# Compressibility (1/GPa) = 0.03849464
#
# Stress axis : x y z
#
# Youngs Moduli (GPa) = 15.34019 180.23855 67.59823
#
# Poissons Ratio (x) = 0.20368 1.38206
# Poissons Ratio (y) = 0.01734 0.13129
# Poissons Ratio (z) = 0.31363 0.35007
#
# Static dielectric constant tensor:
#      x y z
#    x 1.504710 0.000000 0.000000 
#    y 0.000000 1.604410 0.000000 
#    z 0.000000 0.000000 1.558930 
# 
# From -- ./inp_files/22810.got.cif
#   From: 2010.05.17/outbox.cif.g08.bks.cpg/sg69_12_cif.got.tgz:22810.got - 2010.06.03 19:29:58.
