data_PCOD9511403
_publ_section_title
;
Structure prediction by ZEFSAII (Michael W. Deem and Ramdas Pophale) SiO2 
 PCOD9511403
Probable space group: F M M M
;
_chemical_formula_sum "Si O2"
_cell_formula_units_Z 152
_cell_length_a 24.947026
_cell_length_b 14.248131
_cell_length_c 24.248278
_cell_angle_alpha 90.000000
_cell_angle_beta 90.000000
_cell_angle_gamma 90.000000
_cell_volume 8619.013910
_symmetry_space_group_name_H-M "F M M M"
_symmetry_group_IT_number 69
_symmetry_cell_setting 'orthorhombic'
loop_
_space_group_symop_operation_xyz
x,y,z
-x,-y,z
x,-y,-z
-x,y,-z
-x,-y,-z
x,y,-z
-x,y,z
x,-y,z
x,1/2+y,1/2+z
-x,1/2-y,1/2+z
x,1/2-y,1/2-z
-x,1/2+y,1/2-z
-x,1/2-y,1/2-z
x,1/2+y,1/2-z
-x,1/2+y,1/2+z
x,1/2-y,1/2+z
1/2+x,y,1/2+z
1/2-x,-y,1/2+z
1/2+x,-y,1/2-z
1/2-x,y,1/2-z
1/2-x,-y,1/2-z
1/2+x,y,1/2-z
1/2-x,y,1/2+z
1/2+x,-y,1/2+z
1/2+x,1/2+y,z
1/2-x,1/2-y,z
1/2+x,1/2-y,-z
1/2-x,1/2+y,-z
1/2-x,1/2-y,-z
1/2+x,1/2+y,-z
1/2-x,1/2+y,z
1/2+x,1/2-y,z
loop_
_atom_site_type_symbol
_atom_site_label
_atom_site_fract_x
_atom_site_fract_y
_atom_site_fract_z
Si Si1 0.750000 0.750000 0.372923
Si Si2 0.558906 0.609463 0.884115
Si Si3 0.583707 0.359450 0.243962
Si Si4 0.200018 0.394396 0.208463
Si Si5 0.000000 0.500000 0.790223
Si Si6 0.329651 0.389817 0.065958
O O1 0.789894 0.812120 0.335216
O O2 0.715532 0.824024 0.407938
O O3 0.500000 0.651419 0.896171
O O4 0.556245 0.500000 0.900407
O O5 0.568658 0.612548 0.818460
O O6 0.611995 0.646283 0.913828
O O7 0.573452 0.250000 0.250000
O O8 0.645575 0.379200 0.257664
O O9 0.546687 0.418938 0.284349
O O10 0.198950 0.500000 0.184093
O O11 0.250000 0.390181 0.250000
O O12 0.323749 0.500000 0.083504
O O13 0.327231 0.387318 0.000000
#
# Coordination Sequence:
#
# PCOD9511403 Si02
#       6
#    16  32  32  32   8  32
#     4  12  22  38  56  80 106 144 186 222 272 326
#     4  10  18  33  53  78 108 136 171 214 264 322
#     4  12  21  35  54  78 112 152 185 217 263 318
#     4  11  22  36  55  82 115 145 181 225 264 321
#     4  12  22  36  46  78 113 152 187 222 256 308
#     4  10  22  38  57  79 104 136 177 231 283 326
#
# _framework density 17.635428000000001
#
# number of rings (size 3 to 8) (size 9 to 14) (size 15 to 20)
#    0.000    1.053    3.158    5.368    0.000    3.789 
#    0.000    2.105    0.000    0.000    0.000    0.000 
#    0.000    0.000    0.000   13.789    0.000    0.842 
#
# Total GULP energy -211614.090014 kJ/mol
# GULP energy per Si atom -5568.791842 kJ/mol
# Density = 1.759529 g / cm^3
# Si number density = 17.635428 Si / 1000 Ang^3
#
#
#
# Elastic Constant Matrix: (Units=GPa)
#
#
# Indices 1 2 3 4 5 6 
#
# 1 159.0783 38.0542 20.3576 0.0000 0.0000 0.0000
# 2 38.0542 101.9281 12.3506 0.0000 0.0000 0.0000
# 3 20.3576 12.3506 30.4194 0.0000 0.0000 0.0000
# 4 0.0000 0.0000 0.0000 33.7616 0.0000 0.0000
# 5 0.0000 0.0000 0.0000 0.0000 -17.8161 0.0000
# 6 0.0000 0.0000 0.0000 0.0000 0.0000 21.2631
#
#
#
# Elastic Compliance Matrix: (Units=1/GPa)
#
#
# Indices 1 2 3 4 5 6 
#
# 1 0.007337 -0.002255 -0.003994 0.000000 0.000000 0.000000
# 2 -0.002255 0.011012 -0.002962 0.000000 0.000000 0.000000
# 3 -0.003994 -0.002962 0.036749 0.000000 0.000000 0.000000
# 4 0.000000 0.000000 0.000000 0.029619 0.000000 0.000000
# 5 0.000000 0.000000 0.000000 0.000000 -0.056129 0.000000
# 6 0.000000 0.000000 0.000000 0.000000 0.000000 0.047030
#
#
# Mechanical properties :
#
#
# Convention : Reuss Voigt Hill
#
# Bulk Modulus (GPa) = 27.26615 48.10562 37.68588
# Shear Modulus (GPa) = 47.05178 22.15260 34.60219
#
# Velocity S-wave (km/s) = 5.17090 3.54805 4.43435
# Velocity P-wave (km/s) = 7.15161 6.64244 6.90172
#
# Compressibility (1/GPa) = 0.03667551
#
# Stress axis : x y z
#
# Youngs Moduli (GPa) = 136.29792 90.81290 27.21130
#
# Poissons Ratio (x) = 0.20480 0.10869
# Poissons Ratio (y) = 0.30738 0.08059
# Poissons Ratio (z) = 0.54444 0.26895
#
# Static dielectric constant tensor:
#      x y z
#    x 1.619010 0.000000 0.000000 
#    y 0.000000 1.622140 0.000000 
#    z 0.000000 0.000000 1.587100 
# 
# From -- ./inp_files/17793.got.cif
#   From: 2010.05.17/outbox.cif.g08.bks.cpg/sg69_9_cif.got.tgz:17793.got - 2010.06.03 19:29:58.
