data_PCOD9511809
_publ_section_title
;
Structure prediction by ZEFSAII (Michael W. Deem and Ramdas Pophale) SiO2 
 PCOD9511809
Probable space group: F M M M
;
_chemical_formula_sum "Si O2"
_cell_formula_units_Z 168
_cell_length_a 14.612649
_cell_length_b 23.836539
_cell_length_c 22.044991
_cell_angle_alpha 90.000000
_cell_angle_beta 90.000000
_cell_angle_gamma 90.000000
_cell_volume 7678.600550
_symmetry_space_group_name_H-M "F M M M"
_symmetry_group_IT_number 69
_symmetry_cell_setting 'orthorhombic'
loop_
_space_group_symop_operation_xyz
x,y,z
-x,-y,z
x,-y,-z
-x,y,-z
-x,-y,-z
x,y,-z
-x,y,z
x,-y,z
x,1/2+y,1/2+z
-x,1/2-y,1/2+z
x,1/2-y,1/2-z
-x,1/2+y,1/2-z
-x,1/2-y,1/2-z
x,1/2+y,1/2-z
-x,1/2+y,1/2+z
x,1/2-y,1/2+z
1/2+x,y,1/2+z
1/2-x,-y,1/2+z
1/2+x,-y,1/2-z
1/2-x,y,1/2-z
1/2-x,-y,1/2-z
1/2+x,y,1/2-z
1/2-x,y,1/2+z
1/2+x,-y,1/2+z
1/2+x,1/2+y,z
1/2-x,1/2-y,z
1/2+x,1/2-y,-z
1/2-x,1/2+y,-z
1/2-x,1/2-y,-z
1/2+x,1/2+y,-z
1/2-x,1/2+y,z
1/2+x,1/2-y,z
loop_
_atom_site_type_symbol
_atom_site_label
_atom_site_fract_x
_atom_site_fract_y
_atom_site_fract_z
Si Si1 0.106517 0.672529 0.115951
Si Si2 0.605351 0.790554 0.430644
Si Si3 0.392548 0.814035 0.254287
Si Si4 0.500000 0.000000 0.291166
Si Si5 0.765168 0.898673 0.067719
Si Si6 0.821368 0.077960 0.196643
O O1 0.136915 0.737216 0.107794
O O2 0.113532 0.659460 0.187162
O O3 0.166900 0.630057 0.077834
O O4 0.000000 0.670838 0.098445
O O5 0.607346 0.769408 0.500000
O O6 0.500000 0.803764 0.414941
O O7 0.664263 0.846456 0.430123
O O8 0.500000 0.811900 0.271399
O O9 0.360890 0.750000 0.250000
O O10 0.337545 0.854865 0.297803
O O11 0.418283 0.951726 0.292563
O O12 0.786864 0.933898 0.128275
O O13 0.772047 0.924178 0.000000
O O14 0.750000 0.063081 0.250000
#
# Coordination Sequence:
#
# PCOD9511809 Si02
#       6
#    32  32  32   8  32  32
#     4  10  19  33  54  88 133 187 229 270 329 405
#     4   9  18  31  50  83 134 190 231 261 317 401
#     4  10  20  36  63 100 144 181 217 274 340 410
#     4  12  30  52  83  98 133 174 230 300 332 398
#     4  11  23  38  61  94 133 175 224 284 337 400
#     4  12  25  48  73 105 133 178 230 279 344 402
#
# _framework density 21.878986000000001
#
# number of rings (size 3 to 8) (size 9 to 14) (size 15 to 20)
#    0.000    1.524    2.857    2.571    1.333    4.571 
#    0.000    0.952    0.000    0.000    0.000    0.667 
#    0.000    0.000    0.000    0.000    0.000    0.000 
#
# Total GULP energy -234235.334950 kJ/mol
# GULP energy per Si atom -5577.031785 kJ/mol
# Density = 2.182919 g / cm^3
# Si number density = 21.878986 Si / 1000 Ang^3
#
#
#
# Elastic Constant Matrix: (Units=GPa)
#
#
# Indices 1 2 3 4 5 6 
#
# 1 133.0009 28.7285 41.6672 0.0000 0.0000 0.0000
# 2 28.7285 85.3444 17.4854 0.0000 0.0000 0.0000
# 3 41.6672 17.4854 174.1008 0.0000 0.0000 0.0000
# 4 0.0000 0.0000 0.0000 -26.0191 0.0000 0.0000
# 5 0.0000 0.0000 0.0000 0.0000 20.2346 0.0000
# 6 0.0000 0.0000 0.0000 0.0000 0.0000 2.4408
#
#
#
# Elastic Compliance Matrix: (Units=1/GPa)
#
#
# Indices 1 2 3 4 5 6 
#
# 1 0.008634 -0.002535 -0.001812 0.000000 0.000000 0.000000
# 2 -0.002535 0.012708 -0.000670 0.000000 0.000000 0.000000
# 3 -0.001812 -0.000670 0.006245 0.000000 0.000000 0.000000
# 4 0.000000 0.000000 0.000000 -0.038433 0.000000 0.000000
# 5 0.000000 0.000000 0.000000 0.000000 0.049420 0.000000
# 6 0.000000 0.000000 0.000000 0.000000 0.000000 0.409705
#
#
# Mechanical properties :
#
#
# Convention : Reuss Voigt Hill
#
# Bulk Modulus (GPa) = 56.96869 63.13426 60.05148
# Shear Modulus (GPa) = 10.77210 19.63558 15.20384
#
# Velocity S-wave (km/s) = 2.22130 2.99902 2.63897
# Velocity P-wave (km/s) = 5.71608 6.39616 6.06566
#
# Compressibility (1/GPa) = 0.01755350
#
# Stress axis : x y z
#
# Youngs Moduli (GPa) = 115.82210 78.69195 160.13732
#
# Poissons Ratio (x) = 0.19950 0.29013
# Poissons Ratio (y) = 0.29363 0.10722
# Poissons Ratio (z) = 0.20984 0.05269
#
# Static dielectric constant tensor:
#      x y z
#    x 1.793620 0.000000 0.000000 
#    y 0.000000 1.780960 0.000000 
#    z 0.000000 0.000000 1.856050 
# 
# From -- ./inp_files/17907.got.cif
#   From: 2010.05.17/outbox.cif.g08.bks.cpg/sg69_9_cif.got.tgz:17907.got - 2010.06.03 19:29:58.
