data_PCOD9511529
_publ_section_title
;
Structure prediction by ZEFSAII (Michael W. Deem and Ramdas Pophale) SiO2 
 PCOD9511529
Probable space group: F M M M
;
_chemical_formula_sum "Si O2"
_cell_formula_units_Z 160
_cell_length_a 16.175980
_cell_length_b 26.552953
_cell_length_c 18.327014
_cell_angle_alpha 90.000000
_cell_angle_beta 90.000000
_cell_angle_gamma 90.000000
_cell_volume 7871.819725
_symmetry_space_group_name_H-M "F M M M"
_symmetry_group_IT_number 69
_symmetry_cell_setting 'orthorhombic'
loop_
_space_group_symop_operation_xyz
x,y,z
-x,-y,z
x,-y,-z
-x,y,-z
-x,-y,-z
x,y,-z
-x,y,z
x,-y,z
x,1/2+y,1/2+z
-x,1/2-y,1/2+z
x,1/2-y,1/2-z
-x,1/2+y,1/2-z
-x,1/2-y,1/2-z
x,1/2+y,1/2-z
-x,1/2+y,1/2+z
x,1/2-y,1/2+z
1/2+x,y,1/2+z
1/2-x,-y,1/2+z
1/2+x,-y,1/2-z
1/2-x,y,1/2-z
1/2-x,-y,1/2-z
1/2+x,y,1/2-z
1/2-x,y,1/2+z
1/2+x,-y,1/2+z
1/2+x,1/2+y,z
1/2-x,1/2-y,z
1/2+x,1/2-y,-z
1/2-x,1/2+y,-z
1/2-x,1/2-y,-z
1/2+x,1/2+y,-z
1/2-x,1/2+y,z
1/2+x,1/2-y,z
loop_
_atom_site_type_symbol
_atom_site_label
_atom_site_fract_x
_atom_site_fract_y
_atom_site_fract_z
Si Si1 0.355468 0.599542 0.580681
Si Si2 0.407963 0.500000 0.659520
Si Si3 0.147707 0.804513 0.333722
Si Si4 0.840554 0.906504 0.917555
Si Si5 0.168186 0.000000 0.805762
Si Si6 0.349660 0.307833 0.835685
O O1 0.390179 0.591795 0.500000
O O2 0.367724 0.550538 0.629420
O O3 0.386730 0.650267 0.618219
O O4 0.256851 0.604752 0.574440
O O5 0.500000 0.500000 0.631329
O O6 0.403376 0.500000 0.746189
O O7 0.248629 0.806806 0.336084
O O8 0.123560 0.748358 0.358533
O O9 0.125408 0.812990 0.249057
O O10 0.877882 0.855254 0.883504
O O11 0.841150 0.951807 0.858752
O O12 0.871375 0.918549 0.000000
O O13 0.250000 0.000000 0.750000
#
# Coordination Sequence:
#
# PCOD9511529 Si02
#       6
#    32  16  32  32  16  32
#     4  10  19  31  48  73 107 143 175 214 266 321
#     4  12  25  38  53  76 103 142 190 227 265 317
#     4   8  14  25  42  68 100 144 177 208 257 316
#     4  10  19  30  50  80 109 135 172 218 273 329
#     4  12  21  35  57  75 101 140 178 224 272 317
#     4   8  14  24  42  68 106 138 172 214 262 309
#
# _framework density 20.325668
#
# number of rings (size 3 to 8) (size 9 to 14) (size 15 to 20)
#    0.000    2.400    2.000    3.000    2.800    3.200 
#    0.000    4.000    0.000    1.200    0.000   11.200 
#    0.000    0.000    0.000    0.000    0.000    0.000 
#
# Total GULP energy -222832.827530 kJ/mol
# GULP energy per Si atom -5570.820688 kJ/mol
# Density = 2.027941 g / cm^3
# Si number density = 20.325668 Si / 1000 Ang^3
#
#
#
# Elastic Constant Matrix: (Units=GPa)
#
#
# Indices 1 2 3 4 5 6 
#
# 1 6.5695 -0.4090 -0.9913 0.0000 0.0000 0.0000
# 2 -0.4090 191.4986 116.4940 0.0000 0.0000 0.0000
# 3 -0.9913 116.4940 152.2181 0.0000 0.0000 0.0000
# 4 0.0000 0.0000 0.0000 -37.9834 0.0000 0.0000
# 5 0.0000 0.0000 0.0000 0.0000 -4.4280 0.0000
# 6 0.0000 0.0000 0.0000 0.0000 0.0000 -14.6466
#
#
#
# Elastic Compliance Matrix: (Units=1/GPa)
#
#
# Indices 1 2 3 4 5 6 
#
# 1 0.152396 -0.000521 0.001391 0.000000 0.000000 0.000000
# 2 -0.000521 0.009773 -0.007483 0.000000 0.000000 0.000000
# 3 0.001391 -0.007483 0.012305 0.000000 0.000000 0.000000
# 4 0.000000 0.000000 0.000000 -0.026327 0.000000 0.000000
# 5 0.000000 0.000000 0.000000 0.000000 -0.225836 0.000000
# 6 0.000000 0.000000 0.000000 0.000000 0.000000 -0.068275
#
#
# Mechanical properties :
#
#
# Convention : Reuss Voigt Hill
#
# Bulk Modulus (GPa) = 6.20157 64.49708 35.34932
# Shear Modulus (GPa) = -63.29930 4.26789 -29.51571
#
# Velocity S-wave (km/s) = -5.58660 1.45062 -3.81483
# Velocity P-wave (km/s) = 6.20933 5.88273 1.40523
#
# Compressibility (1/GPa) = 0.16124945
#
# Stress axis : x y z
#
# Youngs Moduli (GPa) = 6.56184 102.32594 81.26755
#
# Poissons Ratio (x) = 0.05327 -0.11304
# Poissons Ratio (y) = 0.00342 0.60809
# Poissons Ratio (z) = -0.00913 0.76566
#
# Static dielectric constant tensor:
#      x y z
#    x 1.749280 0.000000 0.000000 
#    y 0.000000 1.708140 0.000000 
#    z 0.000000 0.000000 1.727820 
# 
# From -- ./inp_files/23226.got.cif
#   From: 2010.05.17/outbox.cif.g08.bks.cpg/sg69_12_cif.got.tgz:23226.got - 2010.06.03 19:29:58.
