data_PCOD9511128
_publ_section_title
;
Structure prediction by ZEFSAII (Michael W. Deem and Ramdas Pophale) SiO2 
 PCOD9511128
Probable space group: F M M M
;
_chemical_formula_sum "Si O2"
_cell_formula_units_Z 176
_cell_length_a 26.770695
_cell_length_b 27.299020
_cell_length_c 13.998943
_cell_angle_alpha 90.000000
_cell_angle_beta 90.000000
_cell_angle_gamma 90.000000
_cell_volume 10230.619865
_symmetry_space_group_name_H-M "F M M M"
_symmetry_group_IT_number 69
_symmetry_cell_setting 'orthorhombic'
loop_
_space_group_symop_operation_xyz
x,y,z
-x,-y,z
x,-y,-z
-x,y,-z
-x,-y,-z
x,y,-z
-x,y,z
x,-y,z
x,1/2+y,1/2+z
-x,1/2-y,1/2+z
x,1/2-y,1/2-z
-x,1/2+y,1/2-z
-x,1/2-y,1/2-z
x,1/2+y,1/2-z
-x,1/2+y,1/2+z
x,1/2-y,1/2+z
1/2+x,y,1/2+z
1/2-x,-y,1/2+z
1/2+x,-y,1/2-z
1/2-x,y,1/2-z
1/2-x,-y,1/2-z
1/2+x,y,1/2-z
1/2-x,y,1/2+z
1/2+x,-y,1/2+z
1/2+x,1/2+y,z
1/2-x,1/2-y,z
1/2+x,1/2-y,-z
1/2-x,1/2+y,-z
1/2-x,1/2-y,-z
1/2+x,1/2+y,-z
1/2-x,1/2+y,z
1/2+x,1/2-y,z
loop_
_atom_site_type_symbol
_atom_site_label
_atom_site_fract_x
_atom_site_fract_y
_atom_site_fract_z
Si Si1 0.305232 0.874757 0.765451
Si Si2 0.500000 0.055998 0.884207
Si Si3 0.696474 0.723558 0.609551
Si Si4 0.101812 0.886834 0.385779
Si Si5 0.863656 0.321518 0.387501
Si Si6 0.557500 0.691730 0.261123
O O1 0.250000 0.896165 0.750000
O O2 0.300718 0.822833 0.821823
O O3 0.348196 0.901716 0.827670
O O4 0.326933 0.860019 0.662484
O O5 0.447788 0.082333 0.858137
O O6 0.500000 0.000000 0.850889
O O7 0.500000 0.056257 0.000000
O O8 0.687534 0.707352 0.500000
O O9 0.750000 0.750000 0.612722
O O10 0.657357 0.766666 0.633037
O O11 0.108585 0.889024 0.500000
O O12 0.087915 0.831843 0.349258
O O13 0.866116 0.327090 0.500000
O O14 0.915918 0.328037 0.333770
O O15 0.500000 0.677632 0.270591
O O16 0.559370 0.750000 0.250000
#
# Coordination Sequence:
#
# PCOD9511128 Si02
#       6
#    32  16  32  32  32  32
#     4  11  20  29  45  65  98 134 172 213 254 300
#     4   9  18  36  63  88 105 123 158 215 278 338
#     4  10  18  28  42  59  84 129 186 226 255 286
#     4  10  20  35  54  78 107 137 174 216 267 320
#     4  10  20  30  40  57  85 127 177 221 248 280
#     4  10  20  32  46  65  96 136 172 207 247 302
#
# _framework density 17.203258000000002
#
# number of rings (size 3 to 8) (size 9 to 14) (size 15 to 20)
#    0.000    1.909    2.727    3.273    0.000    3.273 
#    0.000    1.818    0.000    0.545    0.000    0.000 
#    0.000   23.273    0.000    0.000    0.000    0.000 
#
# Total GULP energy -245277.071480 kJ/mol
# GULP energy per Si atom -5574.478897 kJ/mol
# Density = 1.716410 g / cm^3
# Si number density = 17.203258 Si / 1000 Ang^3
#
#
#
# Elastic Constant Matrix: (Units=GPa)
#
#
# Indices 1 2 3 4 5 6 
#
# 1 137.5990 15.8904 33.0390 0.0000 0.0000 0.0000
# 2 15.8904 36.9035 5.5598 0.0000 0.0000 0.0000
# 3 33.0390 5.5598 86.0221 0.0000 0.0000 0.0000
# 4 0.0000 0.0000 0.0000 7.5088 0.0000 0.0000
# 5 0.0000 0.0000 0.0000 0.0000 23.4381 0.0000
# 6 0.0000 0.0000 0.0000 0.0000 0.0000 9.2609
#
#
#
# Elastic Compliance Matrix: (Units=1/GPa)
#
#
# Indices 1 2 3 4 5 6 
#
# 1 0.008352 -0.003144 -0.003005 0.000000 0.000000 0.000000
# 2 -0.003144 0.028547 -0.000638 0.000000 0.000000 0.000000
# 3 -0.003005 -0.000638 0.012820 0.000000 0.000000 0.000000
# 4 0.000000 0.000000 0.000000 0.133176 0.000000 0.000000
# 5 0.000000 0.000000 0.000000 0.000000 0.042666 0.000000
# 6 0.000000 0.000000 0.000000 0.000000 0.000000 0.107981
#
#
# Mechanical properties :
#
#
# Convention : Reuss Voigt Hill
#
# Bulk Modulus (GPa) = 27.66433 41.05586 34.36010
# Shear Modulus (GPa) = 13.92124 21.77726 17.84925
#
# Velocity S-wave (km/s) = 2.84777 3.56178 3.22460
# Velocity P-wave (km/s) = 5.18930 6.38999 5.82069
#
# Compressibility (1/GPa) = 0.03614763
#
# Stress axis : x y z
#
# Youngs Moduli (GPa) = 119.73225 35.02951 78.00230
#
# Poissons Ratio (x) = 0.11012 0.23437
# Poissons Ratio (y) = 0.37639 0.04974
# Poissons Ratio (z) = 0.35975 0.02234
#
# Static dielectric constant tensor:
#      x y z
#    x 1.648750 0.000000 0.000000 
#    y 0.000000 1.569200 0.000000 
#    z 0.000000 0.000000 1.582710 
# 
# From -- ./inp_files/18990.got.cif
#   From: 2010.05.17/outbox.cif.g08.bks.cpg/sg69_10_cif.got.tgz:18990.got - 2010.06.03 19:29:58.
