data_PCOD9511619
_publ_section_title
;
Structure prediction by ZEFSAII (Michael W. Deem and Ramdas Pophale) SiO2 
 PCOD9511619
Probable space group: F M M M
;
_chemical_formula_sum "Si O2"
_cell_formula_units_Z 208
_cell_length_a 32.555975
_cell_length_b 18.163832
_cell_length_c 19.737681
_cell_angle_alpha 90.000000
_cell_angle_beta 90.000000
_cell_angle_gamma 90.000000
_cell_volume 11671.705162
_symmetry_space_group_name_H-M "F M M M"
_symmetry_group_IT_number 69
_symmetry_cell_setting 'orthorhombic'
loop_
_space_group_symop_operation_xyz
x,y,z
-x,-y,z
x,-y,-z
-x,y,-z
-x,-y,-z
x,y,-z
-x,y,z
x,-y,z
x,1/2+y,1/2+z
-x,1/2-y,1/2+z
x,1/2-y,1/2-z
-x,1/2+y,1/2-z
-x,1/2-y,1/2-z
x,1/2+y,1/2-z
-x,1/2+y,1/2+z
x,1/2-y,1/2+z
1/2+x,y,1/2+z
1/2-x,-y,1/2+z
1/2+x,-y,1/2-z
1/2-x,y,1/2-z
1/2-x,-y,1/2-z
1/2+x,y,1/2-z
1/2-x,y,1/2+z
1/2+x,-y,1/2+z
1/2+x,1/2+y,z
1/2-x,1/2-y,z
1/2+x,1/2-y,-z
1/2-x,1/2+y,-z
1/2-x,1/2-y,-z
1/2+x,1/2+y,-z
1/2-x,1/2+y,z
1/2+x,1/2-y,z
loop_
_atom_site_type_symbol
_atom_site_label
_atom_site_fract_x
_atom_site_fract_y
_atom_site_fract_z
Si Si1 0.171880 0.587567 0.841762
Si Si2 0.660788 0.088511 0.681453
Si Si3 0.547691 0.678346 0.681885
Si Si4 0.091643 0.588480 0.922830
Si Si5 0.254653 0.165040 0.332036
Si Si6 0.073840 0.157898 0.167513
Si Si7 0.000000 0.088636 0.080831
O O1 0.175322 0.500000 0.847907
O O2 0.161876 0.603059 0.762812
O O3 0.134309 0.612810 0.888089
O O4 0.215427 0.622139 0.860178
O O5 0.701655 0.127537 0.652370
O O6 0.618558 0.123587 0.654860
O O7 0.661997 0.000000 0.671681
O O8 0.500000 0.698591 0.686846
O O9 0.555829 0.621028 0.622793
O O10 0.572184 0.753253 0.664737
O O11 0.561536 0.644444 0.753699
O O12 0.090677 0.500000 0.921145
O O13 0.089072 0.613130 0.000000
O O14 0.250000 0.161275 0.250000
O O15 0.250000 0.250000 0.351642
O O16 0.039816 0.123238 0.117975
O O17 0.000000 0.000000 0.089639
O O18 0.000000 0.104140 0.000000
#
# Coordination Sequence:
#
# PCOD9511619 Si02
#       7
#    32  32  32  32  32  32  16
#     4   9  17  32  52  76 111 149 182 222 273 335
#     4  10  19  31  53  85 112 143 187 237 285 330
#     4  11  22  38  59  85 113 148 189 236 286 345
#     4  10  22  38  57  84 116 152 191 227 277 346
#     4   9  18  28  48  79 115 147 179 226 283 328
#     4  11  21  38  60  83 115 146 187 239 290 333
#     4  11  24  41  60  82 110 149 194 233 280 346
#
# _framework density 17.820875000000001
#
# number of rings (size 3 to 8) (size 9 to 14) (size 15 to 20)
#    0.000    1.923    3.077    1.385    2.154    4.923 
#    0.000    0.769    0.000    1.385    0.000    2.154 
#    0.000    0.000    0.000    0.000    0.000    0.000 
#
# Total GULP energy -290060.151219 kJ/mol
# GULP energy per Si atom -5578.079831 kJ/mol
# Density = 1.778031 g / cm^3
# Si number density = 17.820875 Si / 1000 Ang^3
#
#
#
# Elastic Constant Matrix: (Units=GPa)
#
#
# Indices 1 2 3 4 5 6 
#
# 1 138.6208 51.5162 26.9566 0.0000 0.0000 0.0000
# 2 51.5162 37.9744 33.1849 0.0000 0.0000 0.0000
# 3 26.9566 33.1849 65.2167 0.0000 0.0000 0.0000
# 4 0.0000 0.0000 0.0000 19.0771 0.0000 0.0000
# 5 0.0000 0.0000 0.0000 0.0000 16.6343 0.0000
# 6 0.0000 0.0000 0.0000 0.0000 0.0000 33.2815
#
#
#
# Elastic Compliance Matrix: (Units=1/GPa)
#
#
# Indices 1 2 3 4 5 6 
#
# 1 0.016743 -0.030011 0.008350 0.000000 0.000000 0.000000
# 2 -0.030011 0.101211 -0.039095 0.000000 0.000000 0.000000
# 3 0.008350 -0.039095 0.031775 0.000000 0.000000 0.000000
# 4 0.000000 0.000000 0.000000 0.052419 0.000000 0.000000
# 5 0.000000 0.000000 0.000000 0.000000 0.060117 0.000000
# 6 0.000000 0.000000 0.000000 0.000000 0.000000 0.030047
#
#
# Mechanical properties :
#
#
# Convention : Reuss Voigt Hill
#
# Bulk Modulus (GPa) = 35.43962 51.68083 43.56022
# Shear Modulus (GPa) = 11.81394 22.47554 17.14474
#
# Velocity S-wave (km/s) = 2.57753 3.55518 3.10507
# Velocity P-wave (km/s) = 5.36544 6.77610 6.11161
#
# Compressibility (1/GPa) = 0.02821701
#
# Stress axis : x y z
#
# Youngs Moduli (GPa) = 59.72604 9.88040 31.47086
#
# Poissons Ratio (x) = 0.29652 -0.26278
# Poissons Ratio (y) = 1.79242 1.23037
# Poissons Ratio (z) = -0.49871 0.38628
#
# Static dielectric constant tensor:
#      x y z
#    x 1.610570 0.000000 0.000000 
#    y 0.000000 1.610230 0.000000 
#    z 0.000000 0.000000 1.593710 
# 
# From -- ./inp_files/33986.got.cif
#   From: 2010.05.17/outbox.cif.g08.bks.cpg/sg69_17_cif.got.tgz:33986.got - 2010.06.03 19:29:58.
