data_PCOD9511021
_publ_section_title
;
Structure prediction by ZEFSAII (Michael W. Deem and Ramdas Pophale) SiO2 
 PCOD9511021
Probable space group: F M M M
;
_chemical_formula_sum "Si O2"
_cell_formula_units_Z 84
_cell_length_a 24.057062
_cell_length_b 5.420178
_cell_length_c 30.233443
_cell_angle_alpha 90.000000
_cell_angle_beta 90.000000
_cell_angle_gamma 90.000000
_cell_volume 3942.246209
_symmetry_space_group_name_H-M "F M M M"
_symmetry_group_IT_number 69
_symmetry_cell_setting 'orthorhombic'
loop_
_space_group_symop_operation_xyz
x,y,z
-x,-y,z
x,-y,-z
-x,y,-z
-x,-y,-z
x,y,-z
-x,y,z
x,-y,z
x,1/2+y,1/2+z
-x,1/2-y,1/2+z
x,1/2-y,1/2-z
-x,1/2+y,1/2-z
-x,1/2-y,1/2-z
x,1/2+y,1/2-z
-x,1/2+y,1/2+z
x,1/2-y,1/2+z
1/2+x,y,1/2+z
1/2-x,-y,1/2+z
1/2+x,-y,1/2-z
1/2-x,y,1/2-z
1/2-x,-y,1/2-z
1/2+x,y,1/2-z
1/2-x,y,1/2+z
1/2+x,-y,1/2+z
1/2+x,1/2+y,z
1/2-x,1/2-y,z
1/2+x,1/2-y,-z
1/2-x,1/2+y,-z
1/2-x,1/2-y,-z
1/2+x,1/2+y,-z
1/2-x,1/2+y,z
1/2+x,1/2-y,z
loop_
_atom_site_type_symbol
_atom_site_label
_atom_site_fract_x
_atom_site_fract_y
_atom_site_fract_z
Si Si1 0.905417 0.000000 0.923985
Si Si2 0.500000 0.000000 0.500000
Si Si3 0.065192 0.500000 0.769682
Si Si4 0.233127 0.000000 0.663310
Si Si5 0.720906 0.500000 0.935268
Si Si6 0.104432 0.500000 0.132474
O O1 0.843817 0.000000 0.944696
O O2 0.908383 0.251192 0.894937
O O3 0.951803 0.000000 0.961222
O O4 0.090582 0.750000 0.750000
O O5 0.070653 0.500000 0.822130
O O6 0.000000 0.500000 0.756888
O O7 0.250000 0.750000 0.687364
O O8 0.270743 0.000000 0.618276
O O9 0.169506 0.000000 0.646804
O O10 0.750000 0.250000 0.950702
#
# Coordination Sequence:
#
# PCOD9511021 Si02
#       6
#    16   4  16  16  16  16
#     4  12  25  44  66  95 135 183 220 267 342 397
#     4  12  36  50  60  98 156 166 216 300 328 394
#     4  10  23  42  63  96 135 165 222 286 319 367
#     4  10  16  31  59 101 123 151 219 278 306 380
#     4  10  16  35  64  95 120 158 228 276 314 379
#     4  12  22  39  75  96 123 181 228 258 337 416
#
# _framework density 21.307648
#
# number of rings (size 3 to 8) (size 9 to 14) (size 15 to 20)
#    0.000    1.143    7.619    1.143    2.667    1.524 
#    0.000    0.952    0.000    3.429    0.000    0.000 
#    0.000    0.000    0.000    0.000    0.000    0.000 
#
# Total GULP energy -117053.846140 kJ/mol
# GULP energy per Si atom -5573.992673 kJ/mol
# Density = 2.125915 g / cm^3
# Si number density = 21.307648 Si / 1000 Ang^3
#
#
#
# Elastic Constant Matrix: (Units=GPa)
#
#
# Indices 1 2 3 4 5 6 
#
# 1 78.8047 37.5283 2.4822 0.0068 0.0132 -0.0140
# 2 37.5283 266.5052 70.3268 -0.0004 -0.0103 -0.0528
# 3 2.4822 70.3268 65.1633 0.0013 -0.0021 -0.0081
# 4 0.0068 -0.0004 0.0013 -15.0672 0.0176 -0.0131
# 5 0.0132 -0.0103 -0.0021 0.0176 61.0143 -0.0156
# 6 -0.0140 -0.0528 -0.0081 -0.0131 -0.0156 -14.3333
#
#
#
# Elastic Compliance Matrix: (Units=1/GPa)
#
#
# Indices 1 2 3 4 5 6 
#
# 1 0.013824 -0.002527 0.002201 0.000006 -0.000003 -0.000005
# 2 -0.002527 0.005709 -0.006065 -0.000002 0.000001 -0.000015
# 3 0.002201 -0.006065 0.021807 0.000003 -0.000001 0.000008
# 4 0.000006 -0.000002 0.000003 -0.066369 0.000019 0.000061
# 5 -0.000003 0.000001 -0.000001 0.000019 0.016390 -0.000018
# 6 -0.000005 -0.000015 0.000008 0.000061 -0.000018 -0.069768
#
#
# Mechanical properties :
#
#
# Convention : Reuss Voigt Hill
#
# Bulk Modulus (GPa) = 35.01646 70.12753 52.57199
# Shear Modulus (GPa) = -89.11651 26.33182 -31.39235
#
# Velocity S-wave (km/s) = -6.47414 3.51920 -3.84251
# Velocity P-wave (km/s) = 6.27826 7.03536 2.24497
#
# Compressibility (1/GPa) = 0.02855800
#
# Stress axis : x y z
#
# Youngs Moduli (GPa) = 72.33848 175.17612 45.85603
#
# Poissons Ratio (x) = 0.44276 -0.10094
# Poissons Ratio (y) = 0.18283 0.27810
# Poissons Ratio (z) = -0.15923 1.06237
#
# Static dielectric constant tensor:
#      x y z
#    x 1.750690 0.000000 0.000000 
#    y 0.000000 1.849070 0.000000 
#    z 0.000000 0.000000 1.721430 
# 
# From -- ./inp_files/46843.got.cif
#   From: 2010.05.17/outbox.cif.g08.bks.cpg/sg69_24_cif.got.tgz:46843.got - 2010.06.03 19:29:58.
