data_PCOD9511005
_publ_section_title
;
Structure prediction by ZEFSAII (Michael W. Deem and Ramdas Pophale) SiO2 
 PCOD9511005
Probable space group: F M M M
;
_chemical_formula_sum "Si O2"
_cell_formula_units_Z 100
_cell_length_a 23.368448
_cell_length_b 14.166443
_cell_length_c 15.356830
_cell_angle_alpha 90.000000
_cell_angle_beta 90.000000
_cell_angle_gamma 90.000000
_cell_volume 5083.844581
_symmetry_space_group_name_H-M "F M M M"
_symmetry_group_IT_number 69
_symmetry_cell_setting 'orthorhombic'
loop_
_space_group_symop_operation_xyz
x,y,z
-x,-y,z
x,-y,-z
-x,y,-z
-x,-y,-z
x,y,-z
-x,y,z
x,-y,z
x,1/2+y,1/2+z
-x,1/2-y,1/2+z
x,1/2-y,1/2-z
-x,1/2+y,1/2-z
-x,1/2-y,1/2-z
x,1/2+y,1/2-z
-x,1/2+y,1/2+z
x,1/2-y,1/2+z
1/2+x,y,1/2+z
1/2-x,-y,1/2+z
1/2+x,-y,1/2-z
1/2-x,y,1/2-z
1/2-x,-y,1/2-z
1/2+x,y,1/2-z
1/2-x,y,1/2+z
1/2+x,-y,1/2+z
1/2+x,1/2+y,z
1/2-x,1/2-y,z
1/2+x,1/2-y,-z
1/2-x,1/2+y,-z
1/2-x,1/2-y,-z
1/2+x,1/2+y,-z
1/2-x,1/2+y,z
1/2+x,1/2-y,z
loop_
_atom_site_type_symbol
_atom_site_label
_atom_site_fract_x
_atom_site_fract_y
_atom_site_fract_z
Si Si1 0.710583 0.000000 0.000000
Si Si2 0.126853 0.691914 0.330730
Si Si3 0.822428 0.500000 0.599253
Si Si4 0.375337 0.327004 0.500000
Si Si5 0.000000 0.168092 0.857897
Si Si6 0.000000 0.500000 0.500000
Si Si7 0.500000 0.330760 0.500000
O O1 0.754773 0.000000 0.919064
O O2 0.672804 0.906371 0.000000
O O3 0.151426 0.750000 0.250000
O O4 0.157878 0.594387 0.353268
O O5 0.128706 0.758354 0.416213
O O6 0.060476 0.666608 0.309230
O O7 0.849316 0.500000 0.500000
O O8 0.437791 0.377007 0.500000
O O9 0.000000 0.082017 0.924744
O O10 0.000000 0.262975 0.915668
#
# Coordination Sequence:
#
# PCOD9511005 Si02
#       7
#     8  32  16  16  16   4   8
#     4  10  24  42  68  81 124 167 220 270 322 382
#     4  11  22  38  64  95 133 166 212 269 325 381
#     4  10  23  42  65  91 119 170 223 263 304 382
#     4  10  20  41  61  92 124 173 206 268 332 376
#     4   9  18  30  55  94 130 161 202 260 318 375
#     4  10  16  26  60  90 120 178 216 250 300 388
#     4   7  16  30  58  85 118 156 212 240 312 402
#
# _framework density 19.670152999999999
#
# number of rings (size 3 to 8) (size 9 to 14) (size 15 to 20)
#    0.480    1.600    1.600    2.400    2.240    4.160 
#    0.000    4.800    0.000    5.760    0.000    0.000 
#    0.000    0.000    0.000    0.000    0.000    0.000 
#
# Total GULP energy -139176.805543 kJ/mol
# GULP energy per Si atom -5567.072222 kJ/mol
# Density = 1.962538 g / cm^3
# Si number density = 19.670153 Si / 1000 Ang^3
#
#
#
# Elastic Constant Matrix: (Units=GPa)
#
#
# Indices 1 2 3 4 5 6 
#
# 1 141.6152 82.7081 20.8206 0.0000 0.0000 0.0000
# 2 82.7081 155.3303 61.8414 0.0000 0.0000 0.0000
# 3 20.8206 61.8414 101.1176 0.0000 0.0000 0.0000
# 4 0.0000 0.0000 0.0000 46.9023 0.0000 0.0000
# 5 0.0000 0.0000 0.0000 0.0000 -19.6926 0.0000
# 6 0.0000 0.0000 0.0000 0.0000 0.0000 123.0848
#
#
#
# Elastic Compliance Matrix: (Units=1/GPa)
#
#
# Indices 1 2 3 4 5 6 
#
# 1 0.010454 -0.006225 0.001655 0.000000 0.000000 0.000000
# 2 -0.006225 0.012217 -0.006190 0.000000 0.000000 0.000000
# 3 0.001655 -0.006190 0.013334 0.000000 0.000000 0.000000
# 4 0.000000 0.000000 0.000000 0.021321 0.000000 0.000000
# 5 0.000000 0.000000 0.000000 0.000000 -0.050780 0.000000
# 6 0.000000 0.000000 0.000000 0.000000 0.000000 0.008124
#
#
# Mechanical properties :
#
#
# Convention : Reuss Voigt Hill
#
# Bulk Modulus (GPa) = 69.03931 80.97816 75.00874
# Shear Modulus (GPa) = 121.89668 45.57178 83.73423
#
# Velocity S-wave (km/s) = 7.88067 4.81853 6.53158
# Velocity P-wave (km/s) = 10.86192 8.49795 9.75183
#
# Compressibility (1/GPa) = 0.01448450
#
# Stress axis : x y z
#
# Youngs Moduli (GPa) = 95.65958 81.85437 74.99446
#
# Poissons Ratio (x) = 0.50954 -0.12409
# Poissons Ratio (y) = 0.59548 0.46420
# Poissons Ratio (z) = -0.15828 0.50666
#
# Static dielectric constant tensor:
#      x y z
#    x 1.753420 0.000000 0.000000 
#    y 0.000000 1.633300 0.000000 
#    z 0.000000 0.000000 1.696600 
# 
# From -- ./inp_files/24049.got.cif
#   From: 2010.05.17/outbox.cif.g08.bks.cpg/sg69_13_cif.got.tgz:24049.got - 2010.06.03 19:29:58.
