data_PCOD9511899
_publ_section_title
;
Structure prediction by ZEFSAII (Michael W. Deem and Ramdas Pophale) SiO2 
 PCOD9511899
Probable space group: F M M M
;
_chemical_formula_sum "Si O2"
_cell_formula_units_Z 128
_cell_length_a 14.623209
_cell_length_b 28.689483
_cell_length_c 17.017655
_cell_angle_alpha 90.000000
_cell_angle_beta 90.000000
_cell_angle_gamma 90.000000
_cell_volume 7139.456045
_symmetry_space_group_name_H-M "F M M M"
_symmetry_group_IT_number 69
_symmetry_cell_setting 'orthorhombic'
loop_
_space_group_symop_operation_xyz
x,y,z
-x,-y,z
x,-y,-z
-x,y,-z
-x,-y,-z
x,y,-z
-x,y,z
x,-y,z
x,1/2+y,1/2+z
-x,1/2-y,1/2+z
x,1/2-y,1/2-z
-x,1/2+y,1/2-z
-x,1/2-y,1/2-z
x,1/2+y,1/2-z
-x,1/2+y,1/2+z
x,1/2-y,1/2+z
1/2+x,y,1/2+z
1/2-x,-y,1/2+z
1/2+x,-y,1/2-z
1/2-x,y,1/2-z
1/2-x,-y,1/2-z
1/2+x,y,1/2-z
1/2-x,y,1/2+z
1/2+x,-y,1/2+z
1/2+x,1/2+y,z
1/2-x,1/2-y,z
1/2+x,1/2-y,-z
1/2-x,1/2+y,-z
1/2-x,1/2-y,-z
1/2+x,1/2+y,-z
1/2-x,1/2+y,z
1/2+x,1/2-y,z
loop_
_atom_site_type_symbol
_atom_site_label
_atom_site_fract_x
_atom_site_fract_y
_atom_site_fract_z
Si Si1 0.601718 0.000000 0.631550
Si Si2 0.249690 0.676161 0.656045
Si Si3 0.656857 0.000000 0.199702
Si Si4 0.393101 0.750039 0.405409
Si Si5 0.740630 0.427928 0.591875
O O1 0.591387 0.000000 0.726341
O O2 0.664210 0.955887 0.606542
O O3 0.500000 0.000000 0.597295
O O4 0.250000 0.673660 0.750000
O O5 0.337541 0.705697 0.627322
O O6 0.161383 0.705303 0.627449
O O7 0.250661 0.624866 0.619786
O O8 0.750000 0.000000 0.250000
O O9 0.664699 0.044828 0.143714
O O10 0.386139 0.750091 0.500000
O O11 0.500000 0.749756 0.383769
O O12 0.718912 0.430727 0.500000
#
# Coordination Sequence:
#
# PCOD9511899 Si02
#       5
#    16  32  16  32  32
#     4  10  20  34  54  82 112 136 166 216 272 322
#     4  11  21  35  56  80 109 144 182 223 269 322
#     4   8  16  33  52  74 102 133 169 204 250 308
#     4  10  21  37  56  79 108 141 180 227 274 321
#     4  10  19  34  56  77 103 140 178 215 257 313
#
# _framework density 17.928536999999999
#
# number of rings (size 3 to 8) (size 9 to 14) (size 15 to 20)
#    0.000    2.250    0.000    8.250    0.000    4.000 
#    0.000    3.750    0.000    3.000    0.000    0.000 
#    0.000    0.000    0.000    0.000    0.000    0.000 
#
# Total GULP energy -178417.898071 kJ/mol
# GULP energy per Si atom -5575.559315 kJ/mol
# Density = 1.788773 g / cm^3
# Si number density = 17.928537 Si / 1000 Ang^3
#
#
#
# Elastic Constant Matrix: (Units=GPa)
#
#
# Indices 1 2 3 4 5 6 
#
# 1 85.2110 30.7164 25.9066 0.0000 0.0000 0.0000
# 2 30.7164 161.4705 48.0122 0.0000 0.0000 0.0000
# 3 25.9066 48.0122 145.5340 0.0000 0.0000 0.0000
# 4 0.0000 0.0000 0.0000 35.8634 0.0000 0.0000
# 5 0.0000 0.0000 0.0000 0.0000 18.7980 0.0000
# 6 0.0000 0.0000 0.0000 0.0000 0.0000 -37.5267
#
#
#
# Elastic Compliance Matrix: (Units=1/GPa)
#
#
# Indices 1 2 3 4 5 6 
#
# 1 0.012949 -0.001971 -0.001655 0.000000 0.000000 0.000000
# 2 -0.001971 0.007167 -0.002013 0.000000 0.000000 0.000000
# 3 -0.001655 -0.002013 0.007830 0.000000 0.000000 0.000000
# 4 0.000000 0.000000 0.000000 0.027884 0.000000 0.000000
# 5 0.000000 0.000000 0.000000 0.000000 0.053197 0.000000
# 6 0.000000 0.000000 0.000000 0.000000 0.000000 -0.026648
#
#
# Mechanical properties :
#
#
# Convention : Reuss Voigt Hill
#
# Bulk Modulus (GPa) = 59.99844 66.83175 63.41510
# Shear Modulus (GPa) = 50.39625 22.59897 36.49761
#
# Velocity S-wave (km/s) = 5.30759 3.55421 4.51680
# Velocity P-wave (km/s) = 8.43200 7.36212 7.91516
#
# Compressibility (1/GPa) = 0.01666710
#
# Stress axis : x y z
#
# Youngs Moduli (GPa) = 77.22437 139.53307 127.71308
#
# Poissons Ratio (x) = 0.27506 0.21134
# Poissons Ratio (y) = 0.15223 0.25714
# Poissons Ratio (z) = 0.12779 0.28094
#
# Static dielectric constant tensor:
#      x y z
#    x 1.614820 0.000000 0.000000 
#    y 0.000000 1.592360 0.000000 
#    z 0.000000 0.000000 1.634450 
# 
# From -- ./inp_files/18645.got.cif
#   From: 2010.05.17/outbox.cif.g08.bks.cpg/sg69_10_cif.got.tgz:18645.got - 2010.06.03 19:29:58.
