data_PCOD9511982
_publ_section_title
;
Structure prediction by ZEFSAII (Michael W. Deem and Ramdas Pophale) SiO2 
 PCOD9511982
Probable space group: F M M M
;
_chemical_formula_sum "Si O2"
_cell_formula_units_Z 160
_cell_length_a 8.507191
_cell_length_b 35.112400
_cell_length_c 27.531694
_cell_angle_alpha 90.000000
_cell_angle_beta 90.000000
_cell_angle_gamma 90.000000
_cell_volume 8223.934313
_symmetry_space_group_name_H-M "F M M M"
_symmetry_group_IT_number 69
_symmetry_cell_setting 'orthorhombic'
loop_
_space_group_symop_operation_xyz
x,y,z
-x,-y,z
x,-y,-z
-x,y,-z
-x,-y,-z
x,y,-z
-x,y,z
x,-y,z
x,1/2+y,1/2+z
-x,1/2-y,1/2+z
x,1/2-y,1/2-z
-x,1/2+y,1/2-z
-x,1/2-y,1/2-z
x,1/2+y,1/2-z
-x,1/2+y,1/2+z
x,1/2-y,1/2+z
1/2+x,y,1/2+z
1/2-x,-y,1/2+z
1/2+x,-y,1/2-z
1/2-x,y,1/2-z
1/2-x,-y,1/2-z
1/2+x,y,1/2-z
1/2-x,y,1/2+z
1/2+x,-y,1/2+z
1/2+x,1/2+y,z
1/2-x,1/2-y,z
1/2+x,1/2-y,-z
1/2-x,1/2+y,-z
1/2-x,1/2-y,-z
1/2+x,1/2+y,-z
1/2-x,1/2+y,z
1/2+x,1/2-y,z
loop_
_atom_site_type_symbol
_atom_site_label
_atom_site_fract_x
_atom_site_fract_y
_atom_site_fract_z
Si Si1 0.690289 0.580181 0.349683
Si Si2 0.689763 0.793541 0.000000
Si Si3 0.191486 0.043826 0.554777
Si Si4 0.186073 0.656881 0.303981
Si Si5 0.811302 0.500000 0.803879
Si Si6 0.688892 0.293285 0.393254
O O1 0.500000 0.584221 0.347069
O O2 0.737994 0.575330 0.406009
O O3 0.764674 0.614401 0.320118
O O4 0.738010 0.539356 0.328194
O O5 0.750000 0.750000 0.000000
O O6 0.738423 0.809312 0.946879
O O7 0.500000 0.793589 0.000000
O O8 0.242935 0.051862 0.500000
O O9 0.000000 0.043223 0.555335
O O10 0.238473 0.000000 0.566958
O O11 0.250000 0.665381 0.250000
O O12 0.250511 0.683636 0.346985
O O13 0.000000 0.660172 0.302372
O O14 0.750000 0.500000 0.750000
O O15 0.000000 0.500000 0.805750
O O16 0.500000 0.293357 0.391934
O O17 0.750000 0.250000 0.390454
#
# Coordination Sequence:
#
# PCOD9511982 Si02
#       6
#    32  16  32  32  16  32
#     4  10  19  35  56  81 113 148 190 240 290 345
#     4   8  16  32  60  94 126 155 188 229 278 334
#     4   8  13  25  50  82 112 143 183 232 284 340
#     4  12  26  43  60  83 116 157 199 247 298 347
#     4  10  20  32  51  77 103 139 186 238 290 345
#     4  10  20  39  66  96 125 157 194 235 283 343
#
# _framework density 19.455407999999998
#
# number of rings (size 3 to 8) (size 9 to 14) (size 15 to 20)
#    0.000    2.200    1.000    3.600    0.000    3.600 
#    1.800    2.000    0.000    0.000    0.000    1.400 
#    0.000    0.000    0.000    0.000    0.000    0.000 
#
# Total GULP energy -223036.639282 kJ/mol
# GULP energy per Si atom -5575.915982 kJ/mol
# Density = 1.941113 g / cm^3
# Si number density = 19.455408 Si / 1000 Ang^3
#
#
#
# Elastic Constant Matrix: (Units=GPa)
#
#
# Indices 1 2 3 4 5 6 
#
# 1 55.6620 29.3646 51.9054 0.0000 0.0000 0.0000
# 2 29.3646 74.3755 70.7663 0.0000 0.0000 0.0000
# 3 51.9054 70.7663 204.9127 0.0000 0.0000 0.0000
# 4 0.0000 0.0000 0.0000 33.1085 0.0000 0.0000
# 5 0.0000 0.0000 0.0000 0.0000 20.9712 0.0000
# 6 0.0000 0.0000 0.0000 0.0000 0.0000 27.6440
#
#
#
# Elastic Compliance Matrix: (Units=1/GPa)
#
#
# Indices 1 2 3 4 5 6 
#
# 1 0.025067 -0.005742 -0.004366 0.000000 0.000000 0.000000
# 2 -0.005742 0.021341 -0.005916 0.000000 0.000000 0.000000
# 3 -0.004366 -0.005916 0.008029 0.000000 0.000000 0.000000
# 4 0.000000 0.000000 0.000000 0.030204 0.000000 0.000000
# 5 0.000000 0.000000 0.000000 0.000000 0.047684 0.000000
# 6 0.000000 0.000000 0.000000 0.000000 0.000000 0.036174
#
#
# Mechanical properties :
#
#
# Convention : Reuss Voigt Hill
#
# Bulk Modulus (GPa) = 44.66614 71.00254 57.83434
# Shear Modulus (GPa) = 24.03733 28.53902 26.28817
#
# Velocity S-wave (km/s) = 3.51879 3.83416 3.67986
# Velocity P-wave (km/s) = 6.28628 7.49502 6.91710
#
# Compressibility (1/GPa) = 0.02238832
#
# Stress axis : x y z
#
# Youngs Moduli (GPa) = 39.89367 46.85854 124.54720
#
# Poissons Ratio (x) = 0.26907 0.54383
# Poissons Ratio (y) = 0.22907 0.73676
# Poissons Ratio (z) = 0.17419 0.27719
#
# Static dielectric constant tensor:
#      x y z
#    x 1.670670 0.000000 0.000000 
#    y 0.000000 1.658250 0.000000 
#    z 0.000000 0.000000 1.731290 
# 
# From -- ./inp_files/44609.got.cif
#   From: 2010.05.17/outbox.cif.g08.bks.cpg/sg69_23_cif.got.tgz:44609.got - 2010.06.03 19:29:58.
