data_PCOD9511049
_publ_section_title
;
Structure prediction by ZEFSAII (Michael W. Deem and Ramdas Pophale) SiO2 
 PCOD9511049
Probable space group: F M M M
;
_chemical_formula_sum "Si O2"
_cell_formula_units_Z 176
_cell_length_a 15.024244
_cell_length_b 32.983128
_cell_length_c 15.911532
_cell_angle_alpha 90.000000
_cell_angle_beta 90.000000
_cell_angle_gamma 90.000000
_cell_volume 7884.904994
_symmetry_space_group_name_H-M "F M M M"
_symmetry_group_IT_number 69
_symmetry_cell_setting 'orthorhombic'
loop_
_space_group_symop_operation_xyz
x,y,z
-x,-y,z
x,-y,-z
-x,y,-z
-x,-y,-z
x,y,-z
-x,y,z
x,-y,z
x,1/2+y,1/2+z
-x,1/2-y,1/2+z
x,1/2-y,1/2-z
-x,1/2+y,1/2-z
-x,1/2-y,1/2-z
x,1/2+y,1/2-z
-x,1/2+y,1/2+z
x,1/2-y,1/2+z
1/2+x,y,1/2+z
1/2-x,-y,1/2+z
1/2+x,-y,1/2-z
1/2-x,y,1/2-z
1/2-x,-y,1/2-z
1/2+x,y,1/2-z
1/2-x,y,1/2+z
1/2+x,-y,1/2+z
1/2+x,1/2+y,z
1/2-x,1/2-y,z
1/2+x,1/2-y,-z
1/2-x,1/2+y,-z
1/2-x,1/2-y,-z
1/2+x,1/2+y,-z
1/2-x,1/2+y,z
1/2+x,1/2-y,z
loop_
_atom_site_type_symbol
_atom_site_label
_atom_site_fract_x
_atom_site_fract_y
_atom_site_fract_z
Si Si1 0.141666 0.545323 0.000000
Si Si2 0.394429 0.121416 0.344603
Si Si3 0.606519 0.291272 0.906921
Si Si4 0.862896 0.750000 0.750000
Si Si5 0.779669 0.544853 0.652558
Si Si6 0.102395 0.662820 0.823918
Si Si7 0.601299 0.638421 0.500000
O O1 0.199893 0.546098 0.914576
O O2 0.098400 0.500000 0.000000
O O3 0.096236 0.589557 0.000000
O O4 0.500000 0.113889 0.339353
O O5 0.382983 0.160472 0.403410
O O6 0.344341 0.081329 0.369955
O O7 0.360607 0.136758 0.253081
O O8 0.500000 0.283749 0.885145
O O9 0.668571 0.273076 0.834240
O O10 0.622119 0.275179 0.000000
O O11 0.901053 0.709692 0.796042
O O12 0.821270 0.500000 0.644782
O O13 0.750000 0.548905 0.750000
O O14 0.000000 0.648987 0.831407
O O15 0.145408 0.654293 0.914008
O O16 0.500000 0.655476 0.500000
#
# Coordination Sequence:
#
# PCOD9511049 Si02
#       7
#    16  32  32  16  32  32  16
#     4  10  22  39  57  81 111 140 180 227 269 325
#     4   9  18  33  52  77 111 142 177 222 267 314
#     4   9  17  27  44  71 104 141 176 214 260 310
#     4  10  17  28  44  72 113 144 171 216 271 314
#     4  10  21  37  57  80 107 140 179 222 266 321
#     4   9  17  29  47  76 110 142 177 223 267 314
#     4  10  20  33  54  82 110 141 181 226 275 325
#
# _framework density 22.32113
#
# number of rings (size 3 to 8) (size 9 to 14) (size 15 to 20)
#    0.000    2.545    0.000    3.818    2.545    0.545 
#    0.000    0.000    0.000    8.182    0.000   45.818 
#    0.000    0.000    0.000    0.000    0.000    0.000 
#
# Total GULP energy -245008.795551 kJ/mol
# GULP energy per Si atom -5568.381717 kJ/mol
# Density = 2.227033 g / cm^3
# Si number density = 22.321130 Si / 1000 Ang^3
#
#
#
# Elastic Constant Matrix: (Units=GPa)
#
#
# Indices 1 2 3 4 5 6 
#
# 1 48.4415 30.1806 17.1804 0.0000 0.0000 0.0000
# 2 30.1806 117.6527 25.8940 0.0000 0.0000 0.0000
# 3 17.1804 25.8940 154.7024 0.0000 0.0000 0.0000
# 4 0.0000 0.0000 0.0000 21.6982 0.0000 0.0000
# 5 0.0000 0.0000 0.0000 0.0000 -9.5979 0.0000
# 6 0.0000 0.0000 0.0000 0.0000 0.0000 22.9585
#
#
#
# Elastic Compliance Matrix: (Units=1/GPa)
#
#
# Indices 1 2 3 4 5 6 
#
# 1 0.025029 -0.006031 -0.001770 0.000000 0.000000 0.000000
# 2 -0.006031 0.010278 -0.001051 0.000000 0.000000 0.000000
# 3 -0.001770 -0.001051 0.006836 0.000000 0.000000 0.000000
# 4 0.000000 0.000000 0.000000 0.046087 0.000000 0.000000
# 5 0.000000 0.000000 0.000000 0.000000 -0.104190 0.000000
# 6 0.000000 0.000000 0.000000 0.000000 0.000000 0.043557
#
#
# Mechanical properties :
#
#
# Convention : Reuss Voigt Hill
#
# Bulk Modulus (GPa) = 40.91661 51.92294 46.41978
# Shear Modulus (GPa) = 93.55150 23.51453 58.53302
#
# Velocity S-wave (km/s) = 6.48094 3.24923 5.12641
# Velocity P-wave (km/s) = 8.62405 6.11465 7.47540
#
# Compressibility (1/GPa) = 0.02443995
#
# Stress axis : x y z
#
# Youngs Moduli (GPa) = 39.95423 97.29659 146.27493
#
# Poissons Ratio (x) = 0.58678 0.25892
# Poissons Ratio (y) = 0.24096 0.15367
# Poissons Ratio (z) = 0.07072 0.10221
#
# Static dielectric constant tensor:
#      x y z
#    x 1.930990 0.000000 0.000000 
#    y 0.000000 1.802460 0.000000 
#    z 0.000000 0.000000 1.908580 
# 
# From -- ./inp_files/23655.got.cif
#   From: 2010.05.17/outbox.cif.g08.bks.cpg/sg69_12_cif.got.tgz:23655.got - 2010.06.03 19:29:58.
