data_PCOD9511560
_publ_section_title
;
Structure prediction by ZEFSAII (Michael W. Deem and Ramdas Pophale) SiO2 
 PCOD9511560
Probable space group: F M M M
;
_chemical_formula_sum "Si O2"
_cell_formula_units_Z 208
_cell_length_a 24.379547
_cell_length_b 24.913783
_cell_length_c 19.009683
_cell_angle_alpha 90.000000
_cell_angle_beta 90.000000
_cell_angle_gamma 90.000000
_cell_volume 11546.229454
_symmetry_space_group_name_H-M "F M M M"
_symmetry_group_IT_number 69
_symmetry_cell_setting 'orthorhombic'
loop_
_space_group_symop_operation_xyz
x,y,z
-x,-y,z
x,-y,-z
-x,y,-z
-x,-y,-z
x,y,-z
-x,y,z
x,-y,z
x,1/2+y,1/2+z
-x,1/2-y,1/2+z
x,1/2-y,1/2-z
-x,1/2+y,1/2-z
-x,1/2-y,1/2-z
x,1/2+y,1/2-z
-x,1/2+y,1/2+z
x,1/2-y,1/2+z
1/2+x,y,1/2+z
1/2-x,-y,1/2+z
1/2+x,-y,1/2-z
1/2-x,y,1/2-z
1/2-x,-y,1/2-z
1/2+x,y,1/2-z
1/2-x,y,1/2+z
1/2+x,-y,1/2+z
1/2+x,1/2+y,z
1/2-x,1/2-y,z
1/2+x,1/2-y,-z
1/2-x,1/2+y,-z
1/2-x,1/2-y,-z
1/2+x,1/2+y,-z
1/2-x,1/2+y,z
1/2+x,1/2-y,z
loop_
_atom_site_type_symbol
_atom_site_label
_atom_site_fract_x
_atom_site_fract_y
_atom_site_fract_z
Si Si1 0.065938 0.500000 0.577445
Si Si2 0.437798 0.583151 0.806338
Si Si3 0.937608 0.616585 0.082664
Si Si4 0.406875 0.296375 0.201920
Si Si5 0.354737 0.059940 0.181328
Si Si6 0.302637 0.670580 0.702503
Si Si7 0.363582 0.777550 0.916601
O O1 0.090438 0.500000 0.500000
O O2 0.078754 0.553143 0.622064
O O3 0.000000 0.500000 0.571274
O O4 0.500000 0.566114 0.788399
O O5 0.436972 0.647550 0.809431
O O6 0.393698 0.564782 0.749321
O O7 0.897049 0.574982 0.119335
O O8 0.908496 0.674486 0.091293
O O9 0.000000 0.616460 0.111097
O O10 0.940262 0.605714 0.000000
O O11 0.434673 0.250000 0.250000
O O12 0.354098 0.311695 0.249547
O O13 0.387998 0.272035 0.127389
O O14 0.310152 0.107317 0.186436
O O15 0.332633 0.000000 0.174516
O O16 0.250000 0.681471 0.750000
O O17 0.311069 0.701998 0.628818
O O18 0.354242 0.769043 0.000000
#
# Coordination Sequence:
#
# PCOD9511560 Si02
#       7
#    16  32  32  32  32  32  32
#     4   9  18  32  48  66  90 127 173 213 251 292
#     4  10  19  31  48  71 101 135 170 211 253 295
#     4   9  18  31  47  72 109 145 169 197 244 297
#     4   9  19  32  48  74 103 131 167 207 253 311
#     4  10  19  31  50  74  97 126 172 214 249 299
#     4   9  19  36  53  70  97 130 161 209 267 312
#     4   9  18  33  52  75 102 133 169 205 247 304
#
# _framework density 18.014538999999999
#
# number of rings (size 3 to 8) (size 9 to 14) (size 15 to 20)
#    0.000    2.692    0.769    1.385    0.000    5.846 
#    0.000    2.308    0.000    0.923    0.000    0.000 
#    0.000    0.000    0.000    0.000    0.000    0.000 
#
# Total GULP energy -289686.748486 kJ/mol
# GULP energy per Si atom -5570.899009 kJ/mol
# Density = 1.797354 g / cm^3
# Si number density = 18.014539 Si / 1000 Ang^3
#
#
#
# Elastic Constant Matrix: (Units=GPa)
#
#
# Indices 1 2 3 4 5 6 
#
# 1 42.1397 1.0198 17.6087 0.0000 0.0000 0.0000
# 2 1.0198 109.6028 32.0471 0.0000 0.0000 0.0000
# 3 17.6087 32.0471 112.3312 0.0000 0.0000 0.0000
# 4 0.0000 0.0000 0.0000 15.5652 0.0000 0.0000
# 5 0.0000 0.0000 0.0000 0.0000 20.9144 0.0000
# 6 0.0000 0.0000 0.0000 0.0000 0.0000 8.4579
#
#
#
# Elastic Compliance Matrix: (Units=1/GPa)
#
#
# Indices 1 2 3 4 5 6 
#
# 1 0.025497 0.001016 -0.004287 0.000000 0.000000 0.000000
# 2 0.001016 0.009995 -0.003011 0.000000 0.000000 0.000000
# 3 -0.004287 -0.003011 0.010433 0.000000 0.000000 0.000000
# 4 0.000000 0.000000 0.000000 0.064246 0.000000 0.000000
# 5 0.000000 0.000000 0.000000 0.000000 0.047814 0.000000
# 6 0.000000 0.000000 0.000000 0.000000 0.000000 0.118233
#
#
# Mechanical properties :
#
#
# Convention : Reuss Voigt Hill
#
# Bulk Modulus (GPa) = 29.97374 40.60279 35.28826
# Shear Modulus (GPa) = 16.67213 23.21402 19.94307
#
# Velocity S-wave (km/s) = 3.04547 3.59364 3.33085
# Velocity P-wave (km/s) = 5.38900 6.30926 5.86720
#
# Compressibility (1/GPa) = 0.03336253
#
# Stress axis : x y z
#
# Youngs Moduli (GPa) = 39.21986 100.05298 95.84823
#
# Poissons Ratio (x) = -0.10167 0.41088
# Poissons Ratio (y) = -0.03985 0.28857
# Poissons Ratio (z) = 0.16813 0.30123
#
# Static dielectric constant tensor:
#      x y z
#    x 1.615310 0.000000 0.000000 
#    y 0.000000 1.657190 0.000000 
#    z 0.000000 0.000000 1.629780 
# 
# From -- ./inp_files/26986.got.cif
#   From: 2010.05.17/outbox.cif.g08.bks.cpg/sg69_14_cif.got.tgz:26986.got - 2010.06.03 19:29:58.
