data_PCOD9511074
_publ_section_title
;
Structure prediction by ZEFSAII (Michael W. Deem and Ramdas Pophale) SiO2 
 PCOD9511074
Probable space group: F M M M
;
_chemical_formula_sum "Si O2"
_cell_formula_units_Z 208
_cell_length_a 18.126737
_cell_length_b 30.680607
_cell_length_c 21.366596
_cell_angle_alpha 90.000000
_cell_angle_beta 90.000000
_cell_angle_gamma 90.000000
_cell_volume 11882.803617
_symmetry_space_group_name_H-M "F M M M"
_symmetry_group_IT_number 69
_symmetry_cell_setting 'orthorhombic'
loop_
_space_group_symop_operation_xyz
x,y,z
-x,-y,z
x,-y,-z
-x,y,-z
-x,-y,-z
x,y,-z
-x,y,z
x,-y,z
x,1/2+y,1/2+z
-x,1/2-y,1/2+z
x,1/2-y,1/2-z
-x,1/2+y,1/2-z
-x,1/2-y,1/2-z
x,1/2+y,1/2-z
-x,1/2+y,1/2+z
x,1/2-y,1/2+z
1/2+x,y,1/2+z
1/2-x,-y,1/2+z
1/2+x,-y,1/2-z
1/2-x,y,1/2-z
1/2-x,-y,1/2-z
1/2+x,y,1/2-z
1/2-x,y,1/2+z
1/2+x,-y,1/2+z
1/2+x,1/2+y,z
1/2-x,1/2-y,z
1/2+x,1/2-y,-z
1/2-x,1/2+y,-z
1/2-x,1/2-y,-z
1/2+x,1/2+y,-z
1/2-x,1/2+y,z
1/2+x,1/2-y,z
loop_
_atom_site_type_symbol
_atom_site_label
_atom_site_fract_x
_atom_site_fract_y
_atom_site_fract_z
Si Si1 0.274066 0.114901 0.572998
Si Si2 0.666809 0.051901 0.127792
Si Si3 0.912584 0.382888 0.215306
Si Si4 0.417597 0.947377 0.000000
Si Si5 0.651834 0.773052 0.682667
Si Si6 0.417747 0.358801 0.856153
Si Si7 0.693999 0.185609 0.852934
O O1 0.271527 0.104051 0.500000
O O2 0.244754 0.075571 0.616646
O O3 0.355201 0.128477 0.594963
O O4 0.220349 0.155557 0.589946
O O5 0.621344 0.074157 0.183451
O O6 0.623891 0.063944 0.063552
O O7 0.671906 0.000000 0.133650
O O8 0.905562 0.383299 0.290084
O O9 0.861919 0.343562 0.188149
O O10 0.000000 0.377564 0.200514
O O11 0.500000 0.929368 0.000000
O O12 0.421588 0.000000 0.000000
O O13 0.641264 0.750000 0.750000
O O14 0.591708 0.808092 0.663223
O O15 0.657737 0.732521 0.634902
O O16 0.729140 0.800004 0.680859
O O17 0.500000 0.367389 0.878832
#
# Coordination Sequence:
#
# PCOD9511074 Si02
#       7
#    32  32  32  16  32  32  32
#     4  10  21  37  57  78 107 145 188 236 279 326
#     4  10  20  35  58  84 109 141 181 222 272 336
#     4  10  20  33  50  79 117 147 174 219 278 336
#     4   9  16  28  50  82 113 138 167 205 254 322
#     4  10  17  29  53  80 109 140 182 232 272 323
#     4  10  22  36  53  80 110 145 187 229 278 331
#     4   9  18  29  50  78 107 141 180 225 275 322
#
# _framework density 17.504287000000001
#
# number of rings (size 3 to 8) (size 9 to 14) (size 15 to 20)
#    0.000    2.231    2.308    1.385    2.154    4.000 
#    0.000    7.692    0.000    1.385    0.000    1.077 
#    0.000    0.000    0.000    0.000    0.000    0.000 
#
# Total GULP energy -289705.369424 kJ/mol
# GULP energy per Si atom -5571.257104 kJ/mol
# Density = 1.746445 g / cm^3
# Si number density = 17.504287 Si / 1000 Ang^3
#
#
#
# Elastic Constant Matrix: (Units=GPa)
#
#
# Indices 1 2 3 4 5 6 
#
# 1 81.1348 27.9716 21.3978 0.0000 0.0000 0.0000
# 2 27.9716 97.4957 22.9088 0.0000 0.0000 0.0000
# 3 21.3978 22.9088 35.3853 0.0000 0.0000 0.0000
# 4 0.0000 0.0000 0.0000 21.2096 0.0000 0.0000
# 5 0.0000 0.0000 0.0000 0.0000 18.9437 0.0000
# 6 0.0000 0.0000 0.0000 0.0000 0.0000 15.8693
#
#
#
# Elastic Compliance Matrix: (Units=1/GPa)
#
#
# Indices 1 2 3 4 5 6 
#
# 1 0.015201 -0.002596 -0.007511 0.000000 0.000000 0.000000
# 2 -0.002596 0.012541 -0.006549 0.000000 0.000000 0.000000
# 3 -0.007511 -0.006549 0.037042 0.000000 0.000000 0.000000
# 4 0.000000 0.000000 0.000000 0.047149 0.000000 0.000000
# 5 0.000000 0.000000 0.000000 0.000000 0.052788 0.000000
# 6 0.000000 0.000000 0.000000 0.000000 0.000000 0.063015
#
#
# Mechanical properties :
#
#
# Convention : Reuss Voigt Hill
#
# Bulk Modulus (GPa) = 31.77538 39.84135 35.80837
# Shear Modulus (GPa) = 18.41357 20.65369 19.53363
#
# Velocity S-wave (km/s) = 3.24689 3.43873 3.34418
# Velocity P-wave (km/s) = 5.67880 6.21102 5.95086
#
# Compressibility (1/GPa) = 0.03147090
#
# Stress axis : x y z
#
# Youngs Moduli (GPa) = 65.78406 79.74132 26.99614
#
# Poissons Ratio (x) = 0.20703 0.20278
# Poissons Ratio (y) = 0.17079 0.17680
# Poissons Ratio (z) = 0.49413 0.52222
#
# Static dielectric constant tensor:
#      x y z
#    x 1.626980 0.000000 0.000000 
#    y 0.000000 1.610100 0.000000 
#    z 0.000000 0.000000 1.590740 
# 
# From -- ./inp_files/36834.got.cif
#   From: 2010.05.17/outbox.cif.g08.bks.cpg/sg69_19_cif.got.tgz:36834.got - 2010.06.03 19:29:58.
