data_PCOD9511645
_publ_section_title
;
Structure prediction by ZEFSAII (Michael W. Deem and Ramdas Pophale) SiO2 
 PCOD9511645
Probable space group: F M M M
;
_chemical_formula_sum "Si O2"
_cell_formula_units_Z 192
_cell_length_a 17.224266
_cell_length_b 24.976745
_cell_length_c 27.256246
_cell_angle_alpha 90.000000
_cell_angle_beta 90.000000
_cell_angle_gamma 90.000000
_cell_volume 11725.803284
_symmetry_space_group_name_H-M "F M M M"
_symmetry_group_IT_number 69
_symmetry_cell_setting 'orthorhombic'
loop_
_space_group_symop_operation_xyz
x,y,z
-x,-y,z
x,-y,-z
-x,y,-z
-x,-y,-z
x,y,-z
-x,y,z
x,-y,z
x,1/2+y,1/2+z
-x,1/2-y,1/2+z
x,1/2-y,1/2-z
-x,1/2+y,1/2-z
-x,1/2-y,1/2-z
x,1/2+y,1/2-z
-x,1/2+y,1/2+z
x,1/2-y,1/2+z
1/2+x,y,1/2+z
1/2-x,-y,1/2+z
1/2+x,-y,1/2-z
1/2-x,y,1/2-z
1/2-x,-y,1/2-z
1/2+x,y,1/2-z
1/2-x,y,1/2+z
1/2+x,-y,1/2+z
1/2+x,1/2+y,z
1/2-x,1/2-y,z
1/2+x,1/2-y,-z
1/2-x,1/2+y,-z
1/2-x,1/2-y,-z
1/2+x,1/2+y,-z
1/2-x,1/2+y,z
1/2+x,1/2-y,z
loop_
_atom_site_type_symbol
_atom_site_label
_atom_site_fract_x
_atom_site_fract_y
_atom_site_fract_z
Si Si1 0.500000 0.934701 0.943821
Si Si2 0.673784 0.435426 0.898930
Si Si3 0.407621 0.361541 0.818736
Si Si4 0.907155 0.365929 0.796665
Si Si5 0.351188 0.436096 0.618808
Si Si6 0.160436 0.752270 0.309464
Si Si7 0.089019 0.064913 0.000000
O O1 0.577893 0.917492 0.915650
O O2 0.500000 0.000000 0.943975
O O3 0.500000 0.916931 0.000000
O O4 0.664356 0.500000 0.892108
O O5 0.635932 0.402587 0.854324
O O6 0.765560 0.423483 0.900800
O O7 0.632829 0.419814 0.950042
O O8 0.500000 0.367832 0.824141
O O9 0.387570 0.369913 0.761105
O O10 0.383484 0.300026 0.828950
O O11 0.864749 0.410726 0.828166
O O12 0.880284 0.308905 0.818828
O O13 0.000000 0.370897 0.800872
O O14 0.356634 0.500000 0.622144
O O15 0.159814 0.750000 0.250000
O O16 0.250000 0.750000 0.325515
O O17 0.000000 0.083784 0.000000
O O18 0.087702 0.000000 0.000000
#
# Coordination Sequence:
#
# PCOD9511645 Si02
#       7
#    16  32  32  32  32  32  16
#     4   9  18  32  52  74  99 130 166 209 249 296
#     4  10  21  34  51  76 102 133 172 214 256 300
#     4  10  20  33  50  74 103 136 174 210 250 301
#     4  10  19  32  50  73 104 138 169 205 250 303
#     4  10  20  33  50  76 105 133 168 204 253 307
#     4   9  17  30  49  72  97 128 170 213 249 291
#     4   9  18  34  54  73  98 129 169 216 255 295
#
# _framework density 16.374144999999999
#
# number of rings (size 3 to 8) (size 9 to 14) (size 15 to 20)
#    0.000    2.333    0.833    2.000    1.167    5.667 
#    0.000    3.333    0.000    0.000    2.167    1.750 
#    0.000    0.000    0.000    0.000    0.000    0.000 
#
# Total GULP energy -267546.335888 kJ/mol
# GULP energy per Si atom -5573.881998 kJ/mol
# Density = 1.633688 g / cm^3
# Si number density = 16.374145 Si / 1000 Ang^3
#
#
#
# Elastic Constant Matrix: (Units=GPa)
#
#
# Indices 1 2 3 4 5 6 
#
# 1 130.7165 48.8437 71.6469 0.0000 0.0000 0.0000
# 2 48.8437 36.7629 41.5905 0.0000 0.0000 0.0000
# 3 71.6469 41.5905 98.4759 0.0000 0.0000 0.0000
# 4 0.0000 0.0000 0.0000 1.4113 0.0000 0.0000
# 5 0.0000 0.0000 0.0000 0.0000 16.1543 0.0000
# 6 0.0000 0.0000 0.0000 0.0000 0.0000 28.2140
#
#
#
# Elastic Compliance Matrix: (Units=1/GPa)
#
#
# Indices 1 2 3 4 5 6 
#
# 1 0.016502 -0.015975 -0.005259 0.000000 0.000000 0.000000
# 2 -0.015975 0.067555 -0.016908 0.000000 0.000000 0.000000
# 3 -0.005259 -0.016908 0.021122 0.000000 0.000000 0.000000
# 4 0.000000 0.000000 0.000000 0.708569 0.000000 0.000000
# 5 0.000000 0.000000 0.000000 0.000000 0.061903 0.000000
# 6 0.000000 0.000000 0.000000 0.000000 0.000000 0.035443
#
#
# Mechanical properties :
#
#
# Convention : Reuss Voigt Hill
#
# Bulk Modulus (GPa) = 34.60969 65.56863 50.08916
# Shear Modulus (GPa) = 5.01499 16.08087 10.54793
#
# Velocity S-wave (km/s) = 1.75197 3.13723 2.54083
# Velocity P-wave (km/s) = 5.02745 7.29753 6.26614
#
# Compressibility (1/GPa) = 0.02889364
#
# Stress axis : x y z
#
# Youngs Moduli (GPa) = 60.59867 14.80286 47.34312
#
# Poissons Ratio (x) = 0.23647 0.24899
# Poissons Ratio (y) = 0.96805 0.80050
# Poissons Ratio (z) = 0.31871 0.25029
#
# Static dielectric constant tensor:
#      x y z
#    x 1.560790 0.000000 0.000000 
#    y 0.000000 1.538070 0.000000 
#    z 0.000000 0.000000 1.533280 
# 
# From -- ./inp_files/36116.got.cif
#   From: 2010.05.17/outbox.cif.g08.bks.cpg/sg69_19_cif.got.tgz:36116.got - 2010.06.03 19:29:58.
