data_PCOD9511197
_publ_section_title
;
Structure prediction by ZEFSAII (Michael W. Deem and Ramdas Pophale) SiO2 
 PCOD9511197
Probable space group: F M M M
;
_chemical_formula_sum "Si O2"
_cell_formula_units_Z 152
_cell_length_a 14.263356
_cell_length_b 27.665790
_cell_length_c 27.226065
_cell_angle_alpha 90.000000
_cell_angle_beta 90.000000
_cell_angle_gamma 90.000000
_cell_volume 10743.596152
_symmetry_space_group_name_H-M "F M M M"
_symmetry_group_IT_number 69
_symmetry_cell_setting 'orthorhombic'
loop_
_space_group_symop_operation_xyz
x,y,z
-x,-y,z
x,-y,-z
-x,y,-z
-x,-y,-z
x,y,-z
-x,y,z
x,-y,z
x,1/2+y,1/2+z
-x,1/2-y,1/2+z
x,1/2-y,1/2-z
-x,1/2+y,1/2-z
-x,1/2-y,1/2-z
x,1/2+y,1/2-z
-x,1/2+y,1/2+z
x,1/2-y,1/2+z
1/2+x,y,1/2+z
1/2-x,-y,1/2+z
1/2+x,-y,1/2-z
1/2-x,y,1/2-z
1/2-x,-y,1/2-z
1/2+x,y,1/2-z
1/2-x,y,1/2+z
1/2+x,-y,1/2+z
1/2+x,1/2+y,z
1/2-x,1/2-y,z
1/2+x,1/2-y,-z
1/2-x,1/2+y,-z
1/2-x,1/2-y,-z
1/2+x,1/2+y,-z
1/2-x,1/2+y,z
1/2+x,1/2-y,z
loop_
_atom_site_type_symbol
_atom_site_label
_atom_site_fract_x
_atom_site_fract_y
_atom_site_fract_z
Si Si1 0.500000 0.286747 0.905511
Si Si2 0.712439 0.805786 0.302368
Si Si3 0.808377 0.848459 0.904294
Si Si4 0.211109 0.805354 0.500000
Si Si5 0.888349 0.055865 0.058416
Si Si6 0.500000 0.780810 0.000000
Si Si7 0.000000 0.718711 0.298954
O O1 0.407559 0.319823 0.907080
O O2 0.500000 0.252472 0.951857
O O3 0.500000 0.258031 0.853617
O O4 0.750000 0.823741 0.250000
O O5 0.750000 0.750000 0.307302
O O6 0.737226 0.833930 0.352214
O O7 0.599510 0.807975 0.298252
O O8 0.749633 0.830160 0.950788
O O9 0.831746 0.904735 0.911021
O O10 0.250000 0.750000 0.500000
O O11 0.098835 0.807759 0.500000
O O12 0.000000 0.061786 0.067037
O O13 0.864443 0.000000 0.068635
O O14 0.873514 0.064560 0.000000
O O15 0.000000 0.750000 0.250000
#
# Coordination Sequence:
#
# PCOD9511197 Si02
#       7
#    16  32  32  16  32   8  16
#     4  10  20  28  47  65  96 124 156 188 228 278
#     4  10  20  31  45  65  93 125 166 192 220 269
#     4  11  19  31  48  70  94 127 155 187 240 281
#     4  12  22  30  45  65  97 133 157 185 226 269
#     4   9  17  29  48  74 100 120 145 191 241 290
#     4  12  24  32  36  66 102 130 164 184 214 280
#     4  10  18  30  44  59  84 125 159 200 224 245
#
# _framework density 14.147964
#
# number of rings (size 3 to 8) (size 9 to 14) (size 15 to 20)
#    0.000    1.684    6.316    1.263    2.947    0.000 
#    0.000    0.000    0.000    0.632    0.000    1.474 
#    0.000    0.000    0.000    0.000    0.000    0.000 
#
# Total GULP energy -211593.908093 kJ/mol
# GULP energy per Si atom -5568.260739 kJ/mol
# Density = 1.411576 g / cm^3
# Si number density = 14.147964 Si / 1000 Ang^3
#
#
#
# Elastic Constant Matrix: (Units=GPa)
#
#
# Indices 1 2 3 4 5 6 
#
# 1 77.0318 17.3017 37.7496 0.0000 0.0000 0.0000
# 2 17.3017 73.2657 50.9201 0.0000 0.0000 0.0000
# 3 37.7496 50.9201 150.6802 0.0000 0.0000 0.0000
# 4 0.0000 0.0000 0.0000 15.2469 0.0000 0.0000
# 5 0.0000 0.0000 0.0000 0.0000 22.6839 0.0000
# 6 0.0000 0.0000 0.0000 0.0000 0.0000 4.2836
#
#
#
# Elastic Compliance Matrix: (Units=1/GPa)
#
#
# Indices 1 2 3 4 5 6 
#
# 1 0.014880 -0.001206 -0.003320 0.000000 0.000000 0.000000
# 2 -0.001206 0.017936 -0.005759 0.000000 0.000000 0.000000
# 3 -0.003320 -0.005759 0.009415 0.000000 0.000000 0.000000
# 4 0.000000 0.000000 0.000000 0.065587 0.000000 0.000000
# 5 0.000000 0.000000 0.000000 0.000000 0.044084 0.000000
# 6 0.000000 0.000000 0.000000 0.000000 0.000000 0.233451
#
#
# Mechanical properties :
#
#
# Convention : Reuss Voigt Hill
#
# Bulk Modulus (GPa) = 46.16911 56.99117 51.58014
# Shear Modulus (GPa) = 12.10234 21.44329 16.77281
#
# Velocity S-wave (km/s) = 2.92792 3.89735 3.44689
# Velocity P-wave (km/s) = 6.64335 7.78602 7.23728
#
# Compressibility (1/GPa) = 0.02165950
#
# Stress axis : x y z
#
# Youngs Moduli (GPa) = 67.20595 55.75236 106.21843
#
# Poissons Ratio (x) = 0.06726 0.35266
# Poissons Ratio (y) = 0.08107 0.61173
# Poissons Ratio (z) = 0.22313 0.32109
#
# Static dielectric constant tensor:
#      x y z
#    x 1.498410 0.000000 0.000000 
#    y 0.000000 1.449290 0.000000 
#    z 0.000000 0.000000 1.490380 
# 
# From -- ./inp_files/41206.got.cif
#   From: 2010.05.17/outbox.cif.g08.bks.cpg/sg69_21_cif.got.tgz:41206.got - 2010.06.03 19:29:58.
