data_PCOD9511786
_publ_section_title
;
Structure prediction by ZEFSAII (Michael W. Deem and Ramdas Pophale) SiO2 
 PCOD9511786
Probable space group: F M M M
;
_chemical_formula_sum "Si O2"
_cell_formula_units_Z 208
_cell_length_a 27.684753
_cell_length_b 22.726188
_cell_length_c 15.562306
_cell_angle_alpha 90.000000
_cell_angle_beta 90.000000
_cell_angle_gamma 90.000000
_cell_volume 9791.318969
_symmetry_space_group_name_H-M "F M M M"
_symmetry_group_IT_number 69
_symmetry_cell_setting 'orthorhombic'
loop_
_space_group_symop_operation_xyz
x,y,z
-x,-y,z
x,-y,-z
-x,y,-z
-x,-y,-z
x,y,-z
-x,y,z
x,-y,z
x,1/2+y,1/2+z
-x,1/2-y,1/2+z
x,1/2-y,1/2-z
-x,1/2+y,1/2-z
-x,1/2-y,1/2-z
x,1/2+y,1/2-z
-x,1/2+y,1/2+z
x,1/2-y,1/2+z
1/2+x,y,1/2+z
1/2-x,-y,1/2+z
1/2+x,-y,1/2-z
1/2-x,y,1/2-z
1/2-x,-y,1/2-z
1/2+x,y,1/2-z
1/2-x,y,1/2+z
1/2+x,-y,1/2+z
1/2+x,1/2+y,z
1/2-x,1/2-y,z
1/2+x,1/2-y,-z
1/2-x,1/2+y,-z
1/2-x,1/2-y,-z
1/2+x,1/2+y,-z
1/2-x,1/2+y,z
1/2+x,1/2-y,z
loop_
_atom_site_type_symbol
_atom_site_label
_atom_site_fract_x
_atom_site_fract_y
_atom_site_fract_z
Si Si1 0.199650 0.377912 0.136963
Si Si2 0.445984 0.689492 0.398146
Si Si3 0.806032 0.634558 0.342541
Si Si4 0.600682 0.433003 0.157197
Si Si5 0.897576 0.064952 0.364373
Si Si6 0.151933 0.254089 0.100167
Si Si7 0.000000 0.067965 0.898027
O O1 0.197940 0.378267 0.240905
O O2 0.255770 0.384442 0.114385
O O3 0.157889 0.422635 0.107669
O O4 0.181760 0.314311 0.106475
O O5 0.447954 0.701726 0.500000
O O6 0.500000 0.698139 0.362232
O O7 0.429466 0.621168 0.390130
O O8 0.401567 0.729488 0.364290
O O9 0.852674 0.600328 0.376126
O O10 0.819031 0.702955 0.352754
O O11 0.601233 0.500000 0.124325
O O12 0.602179 0.434898 0.260502
O O13 0.549900 0.404113 0.131991
O O14 0.913619 0.000000 0.392928
O O15 0.147698 0.237281 0.000000
O O16 0.000000 0.000000 0.863529
O O17 0.000000 0.065565 0.000000
#
# Coordination Sequence:
#
# PCOD9511786 Si02
#       7
#    32  32  32  32  32  32  16
#     4   9  19  34  52  74 107 137 165 213 263 304
#     4   9  19  35  52  73 105 139 169 212 263 303
#     4  10  19  33  54  77 100 136 176 209 254 315
#     4   9  19  34  52  76 104 133 170 215 257 302
#     4   9  18  32  53  79 105 136 173 210 252 310
#     4  10  20  34  52  74 101 134 174 217 259 307
#     4   9  18  34  52  68  96 137 171 209 264 307
#
# _framework density 21.243307000000001
#
# number of rings (size 3 to 8) (size 9 to 14) (size 15 to 20)
#    0.000    2.692    0.000    0.923    1.077    4.308 
#    1.385    3.846    0.000    2.769    0.000    4.308 
#    0.000    0.000    0.000    0.000    0.000    0.000 
#
# Total GULP energy -289999.886326 kJ/mol
# GULP energy per Si atom -5576.920891 kJ/mol
# Density = 2.119496 g / cm^3
# Si number density = 21.243307 Si / 1000 Ang^3
#
#
#
# Elastic Constant Matrix: (Units=GPa)
#
#
# Indices 1 2 3 4 5 6 
#
# 1 175.8599 3.4957 15.7646 0.0000 0.0000 0.0000
# 2 3.4957 8.5414 -6.1257 0.0000 0.0000 0.0000
# 3 15.7646 -6.1257 23.9512 0.0000 0.0000 0.0000
# 4 0.0000 0.0000 0.0000 1.8676 0.0000 0.0000
# 5 0.0000 0.0000 0.0000 0.0000 8.6763 0.0000
# 6 0.0000 0.0000 0.0000 0.0000 0.0000 14.5705
#
#
#
# Elastic Compliance Matrix: (Units=1/GPa)
#
#
# Indices 1 2 3 4 5 6 
#
# 1 0.006355 -0.006859 -0.005937 0.000000 0.000000 0.000000
# 2 -0.006859 0.150779 0.043077 0.000000 0.000000 0.000000
# 3 -0.005937 0.043077 0.056676 0.000000 0.000000 0.000000
# 4 0.000000 0.000000 0.000000 0.535452 0.000000 0.000000
# 5 0.000000 0.000000 0.000000 0.000000 0.115257 0.000000
# 6 0.000000 0.000000 0.000000 0.000000 0.000000 0.068632
#
#
# Mechanical properties :
#
#
# Convention : Reuss Voigt Hill
#
# Bulk Modulus (GPa) = 3.64468 26.06907 14.85687
# Shear Modulus (GPa) = 5.18648 18.03739 11.61194
#
# Velocity S-wave (km/s) = 1.56421 2.91707 2.34052
# Velocity P-wave (km/s) = 2.23199 4.86251 3.78324
#
# Compressibility (1/GPa) = 0.27437262
#
# Stress axis : x y z
#
# Youngs Moduli (GPa) = 157.35934 6.63224 17.64404
#
# Poissons Ratio (x) = 0.04549 0.10475
# Poissons Ratio (y) = 1.07927 -0.76005
# Poissons Ratio (z) = 0.93423 -0.28570
#
# Static dielectric constant tensor:
#      x y z
#    x 1.808420 0.000000 0.000000 
#    y 0.000000 1.767160 0.000000 
#    z 0.000000 0.000000 1.791350 
# 
# From -- ./inp_files/26979.got.cif
#   From: 2010.05.17/outbox.cif.g08.bks.cpg/sg69_14_cif.got.tgz:26979.got - 2010.06.03 19:29:58.
