data_PCOD9511882
_publ_section_title
;
Structure prediction by ZEFSAII (Michael W. Deem and Ramdas Pophale) SiO2 
 PCOD9511882
Probable space group: F M M M
;
_chemical_formula_sum "Si O2"
_cell_formula_units_Z 208
_cell_length_a 23.547214
_cell_length_b 27.593539
_cell_length_c 17.258811
_cell_angle_alpha 90.000000
_cell_angle_beta 90.000000
_cell_angle_gamma 90.000000
_cell_volume 11213.929151
_symmetry_space_group_name_H-M "F M M M"
_symmetry_group_IT_number 69
_symmetry_cell_setting 'orthorhombic'
loop_
_space_group_symop_operation_xyz
x,y,z
-x,-y,z
x,-y,-z
-x,y,-z
-x,-y,-z
x,y,-z
-x,y,z
x,-y,z
x,1/2+y,1/2+z
-x,1/2-y,1/2+z
x,1/2-y,1/2-z
-x,1/2+y,1/2-z
-x,1/2-y,1/2-z
x,1/2+y,1/2-z
-x,1/2+y,1/2+z
x,1/2-y,1/2+z
1/2+x,y,1/2+z
1/2-x,-y,1/2+z
1/2+x,-y,1/2-z
1/2-x,y,1/2-z
1/2-x,-y,1/2-z
1/2+x,y,1/2-z
1/2-x,y,1/2+z
1/2+x,-y,1/2+z
1/2+x,1/2+y,z
1/2-x,1/2-y,z
1/2+x,1/2-y,-z
1/2-x,1/2+y,-z
1/2-x,1/2-y,-z
1/2+x,1/2+y,-z
1/2-x,1/2+y,z
1/2+x,1/2-y,z
loop_
_atom_site_type_symbol
_atom_site_label
_atom_site_fract_x
_atom_site_fract_y
_atom_site_fract_z
Si Si1 0.376361 0.349071 0.909905
Si Si2 0.566814 0.907266 0.182631
Si Si3 0.369959 0.673737 0.408902
Si Si4 0.569182 0.000000 0.912081
Si Si5 0.242769 0.695235 0.406763
Si Si6 0.565917 0.238696 0.659454
Si Si7 0.933328 0.557363 0.359453
O O1 0.313267 0.333768 0.881598
O O2 0.419904 0.316811 0.860126
O O3 0.392731 0.405373 0.903696
O O4 0.381825 0.334903 0.000000
O O5 0.500000 0.899436 0.168572
O O6 0.598171 0.860118 0.152138
O O7 0.572360 0.925063 0.270476
O O8 0.587885 0.951834 0.130703
O O9 0.380817 0.662112 0.500000
O O10 0.302982 0.670064 0.393249
O O11 0.392783 0.727841 0.391895
O O12 0.500000 0.000000 0.909191
O O13 0.587492 0.000000 0.000000
O O14 0.237379 0.699483 0.500000
O O15 0.250000 0.750000 0.375296
O O16 0.500000 0.249324 0.641815
O O17 0.575346 0.250000 0.750000
O O18 0.920499 0.500000 0.366484
O O19 0.000000 0.563564 0.381826
#
# Coordination Sequence:
#
# PCOD9511882 Si02
#       7
#    32  32  32  16  32  32  32
#     4  11  22  38  62  85 110 148 195 244 285 335
#     4  10  19  34  54  81 117 152 182 222 284 345
#     4  11  21  34  57  84 112 148 190 236 279 335
#     4   9  16  28  50  78 106 141 187 227 262 323
#     4   9  18  37  59  80 110 149 189 231 283 336
#     4  11  23  37  52  80 121 155 181 221 286 352
#     4  10  21  39  61  84 115 155 192 236 299 352
#
# _framework density 18.548359999999999
#
# number of rings (size 3 to 8) (size 9 to 14) (size 15 to 20)
#    0.000    1.769    2.308    2.769    0.000    6.462 
#    0.000    4.615    1.692    0.923    0.000    0.000 
#    0.000    0.000    0.000    0.000    0.000    0.000 
#
# Total GULP energy -290132.014714 kJ/mol
# GULP energy per Si atom -5579.461821 kJ/mol
# Density = 1.850614 g / cm^3
# Si number density = 18.548360 Si / 1000 Ang^3
#
#
#
# Elastic Constant Matrix: (Units=GPa)
#
#
# Indices 1 2 3 4 5 6 
#
# 1 80.7039 34.8947 29.5867 0.0000 0.0000 0.0000
# 2 34.8947 107.0973 14.1543 0.0000 0.0000 0.0000
# 3 29.5867 14.1543 36.7674 0.0000 0.0000 0.0000
# 4 0.0000 0.0000 0.0000 55.7796 0.0000 0.0000
# 5 0.0000 0.0000 0.0000 0.0000 7.8425 0.0000
# 6 0.0000 0.0000 0.0000 0.0000 0.0000 17.6440
#
#
#
# Elastic Compliance Matrix: (Units=1/GPa)
#
#
# Indices 1 2 3 4 5 6 
#
# 1 0.019432 -0.004493 -0.013907 0.000000 0.000000 0.000000
# 2 -0.004493 0.010877 -0.000571 0.000000 0.000000 0.000000
# 3 -0.013907 -0.000571 0.038609 0.000000 0.000000 0.000000
# 4 0.000000 0.000000 0.000000 0.017928 0.000000 0.000000
# 5 0.000000 0.000000 0.000000 0.000000 0.127511 0.000000
# 6 0.000000 0.000000 0.000000 0.000000 0.000000 0.056676
#
#
# Mechanical properties :
#
#
# Convention : Reuss Voigt Hill
#
# Bulk Modulus (GPa) = 32.28509 42.42668 37.35589
# Shear Modulus (GPa) = 15.65912 25.98208 20.82060
#
# Velocity S-wave (km/s) = 2.90872 3.74675 3.35401
# Velocity P-wave (km/s) = 5.35953 6.45296 5.93150
#
# Compressibility (1/GPa) = 0.03097405
#
# Stress axis : x y z
#
# Youngs Moduli (GPa) = 51.46040 91.93805 25.90053
#
# Poissons Ratio (x) = 0.41312 0.36021
# Poissons Ratio (y) = 0.23124 0.01480
# Poissons Ratio (z) = 0.71568 0.05253
#
# Static dielectric constant tensor:
#      x y z
#    x 1.629450 0.000000 0.000000 
#    y 0.000000 1.710630 0.000000 
#    z 0.000000 0.000000 1.657930 
# 
# From -- ./inp_files/26132.got.cif
#   From: 2010.05.17/outbox.cif.g08.bks.cpg/sg69_14_cif.got.tgz:26132.got - 2010.06.03 19:29:58.
