data_PCOD9511872
_publ_section_title
;
Structure prediction by ZEFSAII (Michael W. Deem and Ramdas Pophale) SiO2 
 PCOD9511872
Probable space group: F M M M
;
_chemical_formula_sum "Si O2"
_cell_formula_units_Z 96
_cell_length_a 18.793232
_cell_length_b 18.375445
_cell_length_c 14.413643
_cell_angle_alpha 90.000000
_cell_angle_beta 90.000000
_cell_angle_gamma 90.000000
_cell_volume 4977.521006
_symmetry_space_group_name_H-M "F M M M"
_symmetry_group_IT_number 69
_symmetry_cell_setting 'orthorhombic'
loop_
_space_group_symop_operation_xyz
x,y,z
-x,-y,z
x,-y,-z
-x,y,-z
-x,-y,-z
x,y,-z
-x,y,z
x,-y,z
x,1/2+y,1/2+z
-x,1/2-y,1/2+z
x,1/2-y,1/2-z
-x,1/2+y,1/2-z
-x,1/2-y,1/2-z
x,1/2+y,1/2-z
-x,1/2+y,1/2+z
x,1/2-y,1/2+z
1/2+x,y,1/2+z
1/2-x,-y,1/2+z
1/2+x,-y,1/2-z
1/2-x,y,1/2-z
1/2-x,-y,1/2-z
1/2+x,y,1/2-z
1/2-x,y,1/2+z
1/2+x,-y,1/2+z
1/2+x,1/2+y,z
1/2-x,1/2-y,z
1/2+x,1/2-y,-z
1/2-x,1/2+y,-z
1/2-x,1/2-y,-z
1/2+x,1/2+y,-z
1/2-x,1/2+y,z
1/2+x,1/2-y,z
loop_
_atom_site_type_symbol
_atom_site_label
_atom_site_fract_x
_atom_site_fract_y
_atom_site_fract_z
Si Si1 0.170978 0.269003 0.140661
Si Si2 0.915285 0.369200 0.601624
Si Si3 0.831908 0.581742 0.783318
O O1 0.172531 0.250000 0.250000
O O2 0.250000 0.250000 0.104843
O O3 0.113263 0.213864 0.101211
O O4 0.154958 0.354691 0.141712
O O5 0.896732 0.401140 0.500000
O O6 0.878585 0.406018 0.690425
O O7 0.000000 0.371345 0.611953
O O8 0.842361 0.500000 0.818162
O O9 0.750000 0.590005 0.750000
#
# Coordination Sequence:
#
# PCOD9511872 Si02
#       3
#    32  32  32
#     4   9  15  32  53  78  99 136 178 215 259 300
#     4  10  21  35  54  81 109 138 174 220 271 317
#     4  10  19  34  54  77 108 141 178 217 258 314
#
# _framework density 19.286708000000001
#
# number of rings (size 3 to 8) (size 9 to 14) (size 15 to 20)
#    0.000    2.333    6.667    0.000    0.000    8.000 
#    0.000    1.667    0.000    1.000    0.000    2.333 
#    0.000    0.000    0.000    0.000    0.000    0.000 
#
# Total GULP energy -133724.618689 kJ/mol
# GULP energy per Si atom -5571.859112 kJ/mol
# Density = 1.924281 g / cm^3
# Si number density = 19.286708 Si / 1000 Ang^3
#
#
#
# Elastic Constant Matrix: (Units=GPa)
#
#
# Indices 1 2 3 4 5 6 
#
# 1 77.6396 0.5839 23.6091 0.0000 0.0000 0.0000
# 2 0.5839 125.9216 -0.5928 0.0000 0.0000 0.0000
# 3 23.6091 -0.5928 56.8926 0.0000 0.0000 0.0000
# 4 0.0000 0.0000 0.0000 13.6040 0.0000 0.0000
# 5 0.0000 0.0000 0.0000 0.0000 -107.6242 0.0000
# 6 0.0000 0.0000 0.0000 0.0000 0.0000 -3.9883
#
#
#
# Elastic Compliance Matrix: (Units=1/GPa)
#
#
# Indices 1 2 3 4 5 6 
#
# 1 0.014741 -0.000097 -0.006118 0.000000 0.000000 0.000000
# 2 -0.000097 0.007942 0.000123 0.000000 0.000000 0.000000
# 3 -0.006118 0.000123 0.020117 0.000000 0.000000 0.000000
# 4 0.000000 0.000000 0.000000 0.073508 0.000000 0.000000
# 5 0.000000 0.000000 0.000000 0.000000 -0.009292 0.000000
# 6 0.000000 0.000000 0.000000 0.000000 0.000000 -0.250736
#
#
# Mechanical properties :
#
#
# Convention : Reuss Voigt Hill
#
# Bulk Modulus (GPa) = 32.66245 34.18379 33.42312
# Shear Modulus (GPa) = -41.21051 -3.81146 -22.51099
#
# Velocity S-wave (km/s) = -4.62749 -1.40730 -3.42010
# Velocity P-wave (km/s) = 3.40288 3.88868 1.33083
#
# Compressibility (1/GPa) = 0.03061620
#
# Stress axis : x y z
#
# Youngs Moduli (GPa) = 67.83690 125.90523 49.70869
#
# Poissons Ratio (x) = 0.01223 0.30413
# Poissons Ratio (y) = 0.00659 -0.00612
# Poissons Ratio (z) = 0.41505 -0.01550
#
# Static dielectric constant tensor:
#      x y z
#    x 1.639800 0.000000 0.000000 
#    y 0.000000 1.746020 0.000000 
#    z 0.000000 0.000000 1.699590 
# 
# From -- ./inp_files/13832.got.cif
#   From: 2010.05.17/outbox.cif.g08.bks.cpg/sg69_7_cif.got.tgz:13832.got - 2010.06.03 19:29:58.
