data_PCOD9511910
_publ_section_title
;
Structure prediction by ZEFSAII (Michael W. Deem and Ramdas Pophale) SiO2 
 PCOD9511910
Probable space group: F M M M
;
_chemical_formula_sum "Si O2"
_cell_formula_units_Z 128
_cell_length_a 22.963757
_cell_length_b 18.857822
_cell_length_c 15.071813
_cell_angle_alpha 90.000000
_cell_angle_beta 90.000000
_cell_angle_gamma 90.000000
_cell_volume 6526.794993
_symmetry_space_group_name_H-M "F M M M"
_symmetry_group_IT_number 69
_symmetry_cell_setting 'orthorhombic'
loop_
_space_group_symop_operation_xyz
x,y,z
-x,-y,z
x,-y,-z
-x,y,-z
-x,-y,-z
x,y,-z
-x,y,z
x,-y,z
x,1/2+y,1/2+z
-x,1/2-y,1/2+z
x,1/2-y,1/2-z
-x,1/2+y,1/2-z
-x,1/2-y,1/2-z
x,1/2+y,1/2-z
-x,1/2+y,1/2+z
x,1/2-y,1/2+z
1/2+x,y,1/2+z
1/2-x,-y,1/2+z
1/2+x,-y,1/2-z
1/2-x,y,1/2-z
1/2-x,-y,1/2-z
1/2+x,y,1/2-z
1/2-x,y,1/2+z
1/2+x,-y,1/2+z
1/2+x,1/2+y,z
1/2-x,1/2-y,z
1/2+x,1/2-y,-z
1/2-x,1/2+y,-z
1/2-x,1/2-y,-z
1/2+x,1/2+y,-z
1/2-x,1/2+y,z
1/2+x,1/2-y,z
loop_
_atom_site_type_symbol
_atom_site_label
_atom_site_fract_x
_atom_site_fract_y
_atom_site_fract_z
Si Si1 0.430057 0.000000 0.235984
Si Si2 0.166942 0.266277 0.101816
Si Si3 0.343310 0.500000 0.902398
Si Si4 0.729106 0.866276 0.654082
Si Si5 0.568907 0.127839 0.897467
O O1 0.416641 0.067693 0.173867
O O2 0.500000 0.000000 0.254346
O O3 0.390699 0.000000 0.323613
O O4 0.215254 0.328536 0.109097
O O5 0.184691 0.200031 0.161888
O O6 0.105650 0.302007 0.121235
O O7 0.167689 0.240135 0.000000
O O8 0.302385 0.430890 0.893140
O O9 0.370867 0.500000 0.000000
O O10 0.750000 0.891110 0.750000
O O11 0.500000 0.140222 0.893442
O O12 0.582517 0.106021 0.000000
#
# Coordination Sequence:
#
# PCOD9511910 Si02
#       5
#    16  32  16  32  32
#     4  10  21  38  58  82 115 153 193 237 288 341
#     4  10  19  34  56  84 117 148 181 223 281 345
#     4  12  25  41  59  81 111 149 198 245 287 339
#     4  11  22  37  57  81 111 147 186 233 287 341
#     4   9  18  34  59  90 121 152 188 233 284 340
#
# _framework density 19.611463000000001
#
# number of rings (size 3 to 8) (size 9 to 14) (size 15 to 20)
#    0.000    1.750    0.000    6.750    0.000    2.750 
#    0.000    2.500    0.000    9.000    0.000    0.000 
#    0.000    0.000    0.000    0.000    0.000    0.000 
#
# Total GULP energy -178714.024687 kJ/mol
# GULP energy per Si atom -5584.813271 kJ/mol
# Density = 1.956683 g / cm^3
# Si number density = 19.611463 Si / 1000 Ang^3
#
#
#
# Elastic Constant Matrix: (Units=GPa)
#
#
# Indices 1 2 3 4 5 6 
#
# 1 45.8863 41.1846 42.5810 0.0000 0.0000 0.0000
# 2 41.1846 85.3338 28.7864 0.0000 0.0000 0.0000
# 3 42.5810 28.7864 101.5265 0.0000 0.0000 0.0000
# 4 0.0000 0.0000 0.0000 19.3681 0.0000 0.0000
# 5 0.0000 0.0000 0.0000 0.0000 36.5126 0.0000
# 6 0.0000 0.0000 0.0000 0.0000 0.0000 24.4098
#
#
#
# Elastic Compliance Matrix: (Units=1/GPa)
#
#
# Indices 1 2 3 4 5 6 
#
# 1 0.058665 -0.022130 -0.018330 0.000000 0.000000 0.000000
# 2 -0.022130 0.021306 0.003240 0.000000 0.000000 0.000000
# 3 -0.018330 0.003240 0.016619 0.000000 0.000000 0.000000
# 4 0.000000 0.000000 0.000000 0.051631 0.000000 0.000000
# 5 0.000000 0.000000 0.000000 0.000000 0.027388 0.000000
# 6 0.000000 0.000000 0.000000 0.000000 0.000000 0.040967
#
#
# Mechanical properties :
#
#
# Convention : Reuss Voigt Hill
#
# Bulk Modulus (GPa) = 45.14517 50.87229 48.00873
# Shear Modulus (GPa) = 16.75607 24.07106 20.41356
#
# Velocity S-wave (km/s) = 2.92619 3.50722 3.22980
# Velocity P-wave (km/s) = 5.87252 6.51131 6.20015
#
# Compressibility (1/GPa) = 0.02215076
#
# Stress axis : x y z
#
# Youngs Moduli (GPa) = 17.04585 46.93468 60.17357
#
# Poissons Ratio (x) = 1.03867 1.10298
# Poissons Ratio (y) = 0.37723 -0.19499
# Poissons Ratio (z) = 0.31245 -0.15209
#
# Static dielectric constant tensor:
#      x y z
#    x 1.679310 0.000000 0.000000 
#    y 0.000000 1.653480 0.000000 
#    z 0.000000 0.000000 1.709230 
# 
# From -- ./inp_files/18626.got.cif
#   From: 2010.05.17/outbox.cif.g08.bks.cpg/sg69_10_cif.got.tgz:18626.got - 2010.06.03 19:29:58.
