data_PCOD9511794
_publ_section_title
;
Structure prediction by ZEFSAII (Michael W. Deem and Ramdas Pophale) SiO2 
 PCOD9511794
Probable space group: F M M M
;
_chemical_formula_sum "Si O2"
_cell_formula_units_Z 208
_cell_length_a 25.462899
_cell_length_b 23.964099
_cell_length_c 15.393781
_cell_angle_alpha 90.000000
_cell_angle_beta 90.000000
_cell_angle_gamma 90.000000
_cell_volume 9393.214855
_symmetry_space_group_name_H-M "F M M M"
_symmetry_group_IT_number 69
_symmetry_cell_setting 'orthorhombic'
loop_
_space_group_symop_operation_xyz
x,y,z
-x,-y,z
x,-y,-z
-x,y,-z
-x,-y,-z
x,y,-z
-x,y,z
x,-y,z
x,1/2+y,1/2+z
-x,1/2-y,1/2+z
x,1/2-y,1/2-z
-x,1/2+y,1/2-z
-x,1/2-y,1/2-z
x,1/2+y,1/2-z
-x,1/2+y,1/2+z
x,1/2-y,1/2+z
1/2+x,y,1/2+z
1/2-x,-y,1/2+z
1/2+x,-y,1/2-z
1/2-x,y,1/2-z
1/2-x,-y,1/2-z
1/2+x,y,1/2-z
1/2-x,y,1/2+z
1/2+x,-y,1/2+z
1/2+x,1/2+y,z
1/2-x,1/2-y,z
1/2+x,1/2-y,-z
1/2-x,1/2+y,-z
1/2-x,1/2-y,-z
1/2+x,1/2+y,-z
1/2-x,1/2+y,z
1/2+x,1/2-y,z
loop_
_atom_site_type_symbol
_atom_site_label
_atom_site_fract_x
_atom_site_fract_y
_atom_site_fract_z
Si Si1 0.621837 0.112104 0.605622
Si Si2 0.331288 0.886085 0.900419
Si Si3 0.556798 0.852241 0.893785
Si Si4 0.230588 0.438284 0.348700
Si Si5 0.413163 0.270238 0.902315
Si Si6 0.304735 0.269939 0.651656
Si Si7 0.560900 0.500000 0.894156
O O1 0.621850 0.115531 0.500000
O O2 0.683066 0.104676 0.632777
O O3 0.591033 0.167806 0.638075
O O4 0.590810 0.056447 0.633019
O O5 0.391970 0.889087 0.870014
O O6 0.286221 0.931932 0.897659
O O7 0.306701 0.836023 0.846305
O O8 0.334643 0.867299 0.000000
O O9 0.500000 0.873618 0.864994
O O10 0.562805 0.787139 0.863809
O O11 0.556125 0.850210 0.000000
O O12 0.208661 0.500000 0.368264
O O13 0.250000 0.435724 0.250000
O O14 0.352211 0.253204 0.903791
O O15 0.434881 0.275959 0.000000
O O16 0.310886 0.250000 0.750000
O O17 0.250000 0.250000 0.615518
O O18 0.500000 0.500000 0.867098
O O19 0.561655 0.500000 0.000000
#
# Coordination Sequence:
#
# PCOD9511794 Si02
#       7
#    32  32  32  32  32  32  16
#     4  10  19  33  54  79 109 143 178 225 277 326
#     4  10  21  35  56  83 110 145 189 232 276 334
#     4   8  15  31  54  81 112 143 179 225 276 325
#     4  11  24  38  56  82 108 147 189 235 291 347
#     4   9  18  30  48  75 104 138 178 219 260 319
#     4  10  20  30  46  74 106 146 173 212 270 325
#     4   9  18  32  51  78 108 138 179 224 268 323
#
# _framework density 22.143643000000001
#
# number of rings (size 3 to 8) (size 9 to 14) (size 15 to 20)
#    0.000    2.385    0.769    2.769    4.308    4.000 
#    0.000    3.077    0.000    8.769    0.000    2.154 
#    0.000    0.000    0.000    0.000    0.000    0.000 
#
# Total GULP energy -289681.268153 kJ/mol
# GULP energy per Si atom -5570.793618 kJ/mol
# Density = 2.209324 g / cm^3
# Si number density = 22.143643 Si / 1000 Ang^3
#
#
#
# Elastic Constant Matrix: (Units=GPa)
#
#
# Indices 1 2 3 4 5 6 
#
# 1 146.9137 2.9636 3.8866 0.0000 0.0000 0.0000
# 2 2.9636 44.6442 3.0778 0.0000 0.0000 0.0000
# 3 3.8866 3.0778 32.1058 0.0000 0.0000 0.0000
# 4 0.0000 0.0000 0.0000 -23.2464 0.0000 0.0000
# 5 0.0000 0.0000 0.0000 0.0000 95.4299 0.0000
# 6 0.0000 0.0000 0.0000 0.0000 0.0000 21.7403
#
#
#
# Elastic Compliance Matrix: (Units=1/GPa)
#
#
# Indices 1 2 3 4 5 6 
#
# 1 0.006836 -0.000399 -0.000789 0.000000 0.000000 0.000000
# 2 -0.000399 0.022572 -0.002115 0.000000 0.000000 0.000000
# 3 -0.000789 -0.002115 0.031445 0.000000 0.000000 0.000000
# 4 0.000000 0.000000 0.000000 -0.043017 0.000000 0.000000
# 5 0.000000 0.000000 0.000000 0.000000 0.010479 0.000000
# 6 0.000000 0.000000 0.000000 0.000000 0.000000 0.045997
#
#
# Mechanical properties :
#
#
# Convention : Reuss Voigt Hill
#
# Bulk Modulus (GPa) = 18.43504 27.05776 22.74640
# Shear Modulus (GPa) = 50.50438 33.03381 41.76910
#
# Velocity S-wave (km/s) = 4.78091 3.86657 4.34784
# Velocity P-wave (km/s) = 6.23053 5.67270 5.95815
#
# Compressibility (1/GPa) = 0.05424454
#
# Stress axis : x y z
#
# Youngs Moduli (GPa) = 146.29183 44.30331 31.80121
#
# Poissons Ratio (x) = 0.01769 0.02510
# Poissons Ratio (y) = 0.05842 0.06728
# Poissons Ratio (z) = 0.11545 0.09372
#
# Static dielectric constant tensor:
#      x y z
#    x 1.815190 0.000000 0.000000 
#    y 0.000000 1.887200 0.000000 
#    z 0.000000 0.000000 1.796220 
# 
# From -- ./inp_files/27008.got.cif
#   From: 2010.05.17/outbox.cif.g08.bks.cpg/sg69_14_cif.got.tgz:27008.got - 2010.06.03 19:29:58.
