data_PCOD9511426
_publ_section_title
;
Structure prediction by ZEFSAII (Michael W. Deem and Ramdas Pophale) SiO2 
 PCOD9511426
Probable space group: F M M M
;
_chemical_formula_sum "Si O2"
_cell_formula_units_Z 192
_cell_length_a 20.798288
_cell_length_b 27.896906
_cell_length_c 17.470917
_cell_angle_alpha 90.000000
_cell_angle_beta 90.000000
_cell_angle_gamma 90.000000
_cell_volume 10136.763807
_symmetry_space_group_name_H-M "F M M M"
_symmetry_group_IT_number 69
_symmetry_cell_setting 'orthorhombic'
loop_
_space_group_symop_operation_xyz
x,y,z
-x,-y,z
x,-y,-z
-x,y,-z
-x,-y,-z
x,y,-z
-x,y,z
x,-y,z
x,1/2+y,1/2+z
-x,1/2-y,1/2+z
x,1/2-y,1/2-z
-x,1/2+y,1/2-z
-x,1/2-y,1/2-z
x,1/2+y,1/2-z
-x,1/2+y,1/2+z
x,1/2-y,1/2+z
1/2+x,y,1/2+z
1/2-x,-y,1/2+z
1/2+x,-y,1/2-z
1/2-x,y,1/2-z
1/2-x,-y,1/2-z
1/2+x,y,1/2-z
1/2-x,y,1/2+z
1/2+x,-y,1/2+z
1/2+x,1/2+y,z
1/2-x,1/2-y,z
1/2+x,1/2-y,-z
1/2-x,1/2+y,-z
1/2-x,1/2-y,-z
1/2+x,1/2+y,-z
1/2-x,1/2+y,z
1/2+x,1/2-y,z
loop_
_atom_site_type_symbol
_atom_site_label
_atom_site_fract_x
_atom_site_fract_y
_atom_site_fract_z
Si Si1 0.324435 0.444952 0.246746
Si Si2 0.241159 0.662272 0.911905
Si Si3 0.371035 0.859698 0.330911
Si Si4 0.182010 0.944671 0.584775
Si Si5 0.628593 0.294589 0.689057
Si Si6 0.500000 0.666063 0.084997
Si Si7 0.000000 0.719311 0.911606
O O1 0.322208 0.500000 0.225841
O O2 0.250000 0.427293 0.250000
O O3 0.358859 0.415364 0.181743
O O4 0.352921 0.441499 0.332928
O O5 0.311079 0.664617 0.873685
O O6 0.222641 0.605070 0.913146
O O7 0.190320 0.694281 0.864219
O O8 0.242247 0.678113 0.000000
O O9 0.374816 0.839363 0.245620
O O10 0.436203 0.849434 0.372961
O O11 0.149923 0.943032 0.500000
O O12 0.210711 0.000000 0.587852
O O13 0.632411 0.250000 0.750000
O O14 0.564726 0.292590 0.636339
O O15 0.500000 0.723392 0.082864
O O16 0.500000 0.646399 0.000000
O O17 0.000000 0.700465 0.000000
#
# Coordination Sequence:
#
# PCOD9511426 Si02
#       7
#    32  32  32  32  32  16  16
#     4  10  18  33  58  90 123 158 202 246 295 359
#     4  11  23  38  59  93 129 161 201 254 311 365
#     4  12  22  40  62  88 123 161 209 254 311 364
#     4   9  17  31  54  87 126 160 193 239 298 362
#     4  12  23  41  63  91 120 156 199 260 305 364
#     4  11  25  45  64  82 113 160 207 259 313 378
#     4  11  24  46  66  86 115 159 210 249 306 379
#
# _framework density 18.940956
#
# number of rings (size 3 to 8) (size 9 to 14) (size 15 to 20)
#    0.000    1.167    5.000    2.250    0.000    1.333 
#    0.000    1.250    0.000    2.000    0.000    0.583 
#    0.000    6.667    0.000    0.000    0.000    0.000 
#
# Total GULP energy -267286.834071 kJ/mol
# GULP energy per Si atom -5568.475710 kJ/mol
# Density = 1.889785 g / cm^3
# Si number density = 18.940956 Si / 1000 Ang^3
#
#
#
# Elastic Constant Matrix: (Units=GPa)
#
#
# Indices 1 2 3 4 5 6 
#
# 1 140.9607 25.1657 80.2002 0.0000 0.0000 0.0000
# 2 25.1657 36.1000 20.8513 0.0000 0.0000 0.0000
# 3 80.2002 20.8513 162.5517 0.0000 0.0000 0.0000
# 4 0.0000 0.0000 0.0000 36.7424 0.0000 0.0000
# 5 0.0000 0.0000 0.0000 0.0000 -9.8915 0.0000
# 6 0.0000 0.0000 0.0000 0.0000 0.0000 1.4928
#
#
#
# Elastic Compliance Matrix: (Units=1/GPa)
#
#
# Indices 1 2 3 4 5 6 
#
# 1 0.010552 -0.004697 -0.004604 0.000000 0.000000 0.000000
# 2 -0.004697 0.032008 -0.001789 0.000000 0.000000 0.000000
# 3 -0.004604 -0.001789 0.008653 0.000000 0.000000 0.000000
# 4 0.000000 0.000000 0.000000 0.027217 0.000000 0.000000
# 5 0.000000 0.000000 0.000000 0.000000 -0.101097 0.000000
# 6 0.000000 0.000000 0.000000 0.000000 0.000000 0.669876
#
#
# Mechanical properties :
#
#
# Convention : Reuss Voigt Hill
#
# Bulk Modulus (GPa) = 34.44153 65.78297 50.11225
# Shear Modulus (GPa) = 7.36306 19.89507 13.62907
#
# Velocity S-wave (km/s) = 1.97378 3.24446 2.68536
# Velocity P-wave (km/s) = 4.83917 6.98866 6.01078
#
# Compressibility (1/GPa) = 0.02903471
#
# Stress axis : x y z
#
# Youngs Moduli (GPa) = 94.76891 31.24215 115.57096
#
# Poissons Ratio (x) = 0.14674 0.53205
# Poissons Ratio (y) = 0.44511 0.20670
# Poissons Ratio (z) = 0.43629 0.05588
#
# Static dielectric constant tensor:
#      x y z
#    x 1.643220 0.000000 0.000000 
#    y 0.000000 1.714910 0.000000 
#    z 0.000000 0.000000 1.705520 
# 
# From -- ./inp_files/23738.got.cif
#   From: 2010.05.17/outbox.cif.g08.bks.cpg/sg69_12_cif.got.tgz:23738.got - 2010.06.03 19:29:58.
