data_PCOD9511015
_publ_section_title
;
Structure prediction by ZEFSAII (Michael W. Deem and Ramdas Pophale) SiO2 
 PCOD9511015
Probable space group: F M M M
;
_chemical_formula_sum "Si O2"
_cell_formula_units_Z 192
_cell_length_a 24.057750
_cell_length_b 19.450875
_cell_length_c 26.432462
_cell_angle_alpha 90.000000
_cell_angle_beta 90.000000
_cell_angle_gamma 90.000000
_cell_volume 12368.919612
_symmetry_space_group_name_H-M "F M M M"
_symmetry_group_IT_number 69
_symmetry_cell_setting 'orthorhombic'
loop_
_space_group_symop_operation_xyz
x,y,z
-x,-y,z
x,-y,-z
-x,y,-z
-x,-y,-z
x,y,-z
-x,y,z
x,-y,z
x,1/2+y,1/2+z
-x,1/2-y,1/2+z
x,1/2-y,1/2-z
-x,1/2+y,1/2-z
-x,1/2-y,1/2-z
x,1/2+y,1/2-z
-x,1/2+y,1/2+z
x,1/2-y,1/2+z
1/2+x,y,1/2+z
1/2-x,-y,1/2+z
1/2+x,-y,1/2-z
1/2-x,y,1/2-z
1/2-x,-y,1/2-z
1/2+x,y,1/2-z
1/2-x,y,1/2+z
1/2+x,-y,1/2+z
1/2+x,1/2+y,z
1/2-x,1/2-y,z
1/2+x,1/2-y,-z
1/2-x,1/2+y,-z
1/2-x,1/2-y,-z
1/2+x,1/2+y,-z
1/2-x,1/2+y,z
1/2+x,1/2-y,z
loop_
_atom_site_type_symbol
_atom_site_label
_atom_site_fract_x
_atom_site_fract_y
_atom_site_fract_z
Si Si1 0.562902 0.825186 0.774786
Si Si2 0.811866 0.782956 0.942851
Si Si3 0.165472 0.578177 0.388670
Si Si4 0.935883 0.081583 0.179299
Si Si5 0.229121 0.647604 0.693422
Si Si6 0.163127 0.279495 0.840826
O O1 0.500000 0.843521 0.792141
O O2 0.559477 0.750000 0.750000
O O3 0.579759 0.877611 0.730166
O O4 0.610072 0.816022 0.816824
O O5 0.750000 0.750000 0.940847
O O6 0.813205 0.863241 0.926687
O O7 0.845212 0.745107 0.898143
O O8 0.832555 0.774796 0.000000
O O9 0.167203 0.500000 0.407435
O O10 0.103751 0.596051 0.368196
O O11 0.201383 0.586082 0.337145
O O12 0.000000 0.099566 0.168514
O O13 0.932120 0.000000 0.188763
O O14 0.250000 0.635308 0.750000
O O15 0.185133 0.711514 0.690000
O O16 0.283447 0.671634 0.662874
#
# Coordination Sequence:
#
# PCOD9511015 Si02
#       6
#    32  32  32  32  32  32
#     4  10  18  27  45  70  94 123 161 195 223 265
#     4  10  19  34  52  67  86 122 163 198 244 293
#     4  10  19  31  47  72  98 122 158 197 232 275
#     4   9  18  32  48  69 102 138 162 183 220 276
#     4  10  17  26  42  66  95 127 148 180 230 286
#     4  10  16  29  45  65  90 120 156 196 229 279
#
# _framework density 15.522778000000001
#
# number of rings (size 3 to 8) (size 9 to 14) (size 15 to 20)
#    0.000    2.167    3.333    5.000    0.000    0.667 
#    0.000    0.833    0.000    2.000    0.000    2.333 
#    0.000    0.000    0.000    4.167    0.000    0.000 
#
# Total GULP energy -267290.616630 kJ/mol
# GULP energy per Si atom -5568.554513 kJ/mol
# Density = 1.548745 g / cm^3
# Si number density = 15.522778 Si / 1000 Ang^3
#
#
#
# Elastic Constant Matrix: (Units=GPa)
#
#
# Indices 1 2 3 4 5 6 
#
# 1 73.1246 26.8578 23.6009 0.0000 0.0000 0.0000
# 2 26.8578 54.9772 21.6943 0.0000 0.0000 0.0000
# 3 23.6009 21.6943 75.2799 0.0000 0.0000 0.0000
# 4 0.0000 0.0000 0.0000 10.5588 0.0000 0.0000
# 5 0.0000 0.0000 0.0000 0.0000 12.6446 0.0000
# 6 0.0000 0.0000 0.0000 0.0000 0.0000 19.0270
#
#
#
# Elastic Compliance Matrix: (Units=1/GPa)
#
#
# Indices 1 2 3 4 5 6 
#
# 1 0.017400 -0.007162 -0.003391 0.000000 0.000000 0.000000
# 2 -0.007162 0.023471 -0.004519 0.000000 0.000000 0.000000
# 3 -0.003391 -0.004519 0.015649 0.000000 0.000000 0.000000
# 4 0.000000 0.000000 0.000000 0.094708 0.000000 0.000000
# 5 0.000000 0.000000 0.000000 0.000000 0.079085 0.000000
# 6 0.000000 0.000000 0.000000 0.000000 0.000000 0.052557
#
#
# Mechanical properties :
#
#
# Convention : Reuss Voigt Hill
#
# Bulk Modulus (GPa) = 37.91216 38.63197 38.27207
# Shear Modulus (GPa) = 15.53724 17.19466 16.36595
#
# Velocity S-wave (km/s) = 3.16718 3.33183 3.25055
# Velocity P-wave (km/s) = 6.15234 6.30419 6.22873
#
# Compressibility (1/GPa) = 0.02637676
#
# Stress axis : x y z
#
# Youngs Moduli (GPa) = 57.46990 42.60507 63.90160
#
# Poissons Ratio (x) = 0.30515 0.21670
# Poissons Ratio (y) = 0.41162 0.28874
# Poissons Ratio (z) = 0.19489 0.19251
#
# Static dielectric constant tensor:
#      x y z
#    x 1.557010 0.000000 0.000000 
#    y 0.000000 1.534940 0.000000 
#    z 0.000000 0.000000 1.520490 
# 
# From -- ./inp_files/33002.got.cif
#   From: 2010.05.17/outbox.cif.g08.bks.cpg/sg69_17_cif.got.tgz:33002.got - 2010.06.03 19:29:58.
