data_PCOD9511337
_publ_section_title
;
Structure prediction by ZEFSAII (Michael W. Deem and Ramdas Pophale) SiO2 
 PCOD9511337
Probable space group: F M M M
;
_chemical_formula_sum "Si O2"
_cell_formula_units_Z 208
_cell_length_a 31.954144
_cell_length_b 20.703412
_cell_length_c 17.469832
_cell_angle_alpha 90.000000
_cell_angle_beta 90.000000
_cell_angle_gamma 90.000000
_cell_volume 11557.338710
_symmetry_space_group_name_H-M "F M M M"
_symmetry_group_IT_number 69
_symmetry_cell_setting 'orthorhombic'
loop_
_space_group_symop_operation_xyz
x,y,z
-x,-y,z
x,-y,-z
-x,y,-z
-x,-y,-z
x,y,-z
-x,y,z
x,-y,z
x,1/2+y,1/2+z
-x,1/2-y,1/2+z
x,1/2-y,1/2-z
-x,1/2+y,1/2-z
-x,1/2-y,1/2-z
x,1/2+y,1/2-z
-x,1/2+y,1/2+z
x,1/2-y,1/2+z
1/2+x,y,1/2+z
1/2-x,-y,1/2+z
1/2+x,-y,1/2-z
1/2-x,y,1/2-z
1/2-x,-y,1/2-z
1/2+x,y,1/2-z
1/2-x,y,1/2+z
1/2+x,-y,1/2+z
1/2+x,1/2+y,z
1/2-x,1/2-y,z
1/2+x,1/2-y,-z
1/2-x,1/2+y,-z
1/2-x,1/2-y,-z
1/2+x,1/2+y,-z
1/2-x,1/2+y,z
1/2+x,1/2-y,z
loop_
_atom_site_type_symbol
_atom_site_label
_atom_site_fract_x
_atom_site_fract_y
_atom_site_fract_z
Si Si1 0.367851 0.186565 0.091670
Si Si2 0.674497 0.181753 0.409313
Si Si3 0.129206 0.574361 0.206576
Si Si4 0.546825 0.744858 0.341732
Si Si5 0.787556 0.426884 0.690187
Si Si6 0.086919 0.373168 0.650130
Si Si7 0.546366 0.000000 0.409832
O O1 0.334302 0.243144 0.114525
O O2 0.360640 0.118726 0.133792
O O3 0.414231 0.208929 0.119103
O O4 0.366922 0.181786 0.000000
O O5 0.682417 0.181115 0.500000
O O6 0.707218 0.134633 0.366168
O O7 0.629585 0.150126 0.389525
O O8 0.116870 0.500000 0.189741
O O9 0.170220 0.571793 0.259714
O O10 0.095956 0.612143 0.260326
O O11 0.500000 0.720308 0.358454
O O12 0.552406 0.750000 0.250000
O O13 0.552465 0.819162 0.365737
O O14 0.783418 0.500000 0.655058
O O15 0.750000 0.418294 0.750000
O O16 0.072075 0.438871 0.615320
O O17 0.500000 0.000000 0.374775
O O18 0.542613 0.000000 0.500000
#
# Coordination Sequence:
#
# PCOD9511337 Si02
#       7
#    32  32  32  32  32  32  16
#     4  10  21  37  55  80 110 138 183 236 274 322
#     4   9  19  33  54  81 110 143 177 221 274 326
#     4  10  19  35  58  78 102 141 186 226 270 327
#     4  10  19  32  54  79 103 137 179 224 276 327
#     4   9  19  35  56  84 113 142 180 223 264 319
#     4  10  18  32  51  76 103 139 182 218 257 325
#     4  11  22  32  44  70 110 143 169 213 269 320
#
# _framework density 17.997223000000002
#
# number of rings (size 3 to 8) (size 9 to 14) (size 15 to 20)
#    0.000    2.231    2.308    0.923    1.077    1.538 
#    0.000    2.308    0.000    4.615    0.000    1.077 
#    0.000    0.000    0.000    0.000    0.000    0.000 
#
# Total GULP energy -289533.860786 kJ/mol
# GULP energy per Si atom -5567.958861 kJ/mol
# Density = 1.795626 g / cm^3
# Si number density = 17.997223 Si / 1000 Ang^3
#
#
#
# Elastic Constant Matrix: (Units=GPa)
#
#
# Indices 1 2 3 4 5 6 
#
# 1 19.8487 8.2039 6.3686 0.0000 0.0000 0.0000
# 2 8.2039 92.5403 25.8916 0.0000 0.0000 0.0000
# 3 6.3686 25.8916 57.2701 0.0000 0.0000 0.0000
# 4 0.0000 0.0000 0.0000 27.5717 0.0000 0.0000
# 5 0.0000 0.0000 0.0000 0.0000 20.8598 0.0000
# 6 0.0000 0.0000 0.0000 0.0000 0.0000 16.5662
#
#
#
# Elastic Compliance Matrix: (Units=1/GPa)
#
#
# Indices 1 2 3 4 5 6 
#
# 1 0.053221 -0.003506 -0.004333 0.000000 0.000000 0.000000
# 2 -0.003506 0.012602 -0.005307 0.000000 0.000000 0.000000
# 3 -0.004333 -0.005307 0.020342 0.000000 0.000000 0.000000
# 4 0.000000 0.000000 0.000000 0.036269 0.000000 0.000000
# 5 0.000000 0.000000 0.000000 0.000000 0.047939 0.000000
# 6 0.000000 0.000000 0.000000 0.000000 0.000000 0.060364
#
#
# Mechanical properties :
#
#
# Convention : Reuss Voigt Hill
#
# Bulk Modulus (GPa) = 16.70234 27.84304 22.27269
# Shear Modulus (GPa) = 18.05137 21.61253 19.83195
#
# Velocity S-wave (km/s) = 3.17047 3.46913 3.32316
# Velocity P-wave (km/s) = 4.76478 5.61701 5.20836
#
# Compressibility (1/GPa) = 0.05987184
#
# Stress axis : x y z
#
# Youngs Moduli (GPa) = 18.78974 79.35361 49.15824
#
# Poissons Ratio (x) = 0.27819 0.21302
# Poissons Ratio (y) = 0.06587 0.26090
# Poissons Ratio (z) = 0.08142 0.42116
#
# Static dielectric constant tensor:
#      x y z
#    x 1.633230 0.000000 0.000000 
#    y 0.000000 1.644910 0.000000 
#    z 0.000000 0.000000 1.621150 
# 
# From -- ./inp_files/27921.got.cif
#   From: 2010.05.17/outbox.cif.g08.bks.cpg/sg69_14_cif.got.tgz:27921.got - 2010.06.03 19:29:58.
