data_PCOD9511965
_publ_section_title
;
Structure prediction by ZEFSAII (Michael W. Deem and Ramdas Pophale) SiO2 
 PCOD9511965
Probable space group: F M M M
;
_chemical_formula_sum "Si O2"
_cell_formula_units_Z 160
_cell_length_a 15.190211
_cell_length_b 28.093711
_cell_length_c 18.157416
_cell_angle_alpha 90.000000
_cell_angle_beta 90.000000
_cell_angle_gamma 90.000000
_cell_volume 7748.666345
_symmetry_space_group_name_H-M "F M M M"
_symmetry_group_IT_number 69
_symmetry_cell_setting 'orthorhombic'
loop_
_space_group_symop_operation_xyz
x,y,z
-x,-y,z
x,-y,-z
-x,y,-z
-x,-y,-z
x,y,-z
-x,y,z
x,-y,z
x,1/2+y,1/2+z
-x,1/2-y,1/2+z
x,1/2-y,1/2-z
-x,1/2+y,1/2-z
-x,1/2-y,1/2-z
x,1/2+y,1/2-z
-x,1/2+y,1/2+z
x,1/2-y,1/2+z
1/2+x,y,1/2+z
1/2-x,-y,1/2+z
1/2+x,-y,1/2-z
1/2-x,y,1/2-z
1/2-x,-y,1/2-z
1/2+x,y,1/2-z
1/2-x,y,1/2+z
1/2+x,-y,1/2+z
1/2+x,1/2+y,z
1/2-x,1/2-y,z
1/2+x,1/2-y,-z
1/2-x,1/2+y,-z
1/2-x,1/2-y,-z
1/2+x,1/2+y,-z
1/2-x,1/2+y,z
1/2+x,1/2-y,z
loop_
_atom_site_type_symbol
_atom_site_label
_atom_site_fract_x
_atom_site_fract_y
_atom_site_fract_z
Si Si1 0.133050 0.206636 0.917647
Si Si2 0.392603 0.051137 0.761858
Si Si3 0.100202 0.844918 0.231178
Si Si4 0.836789 0.189419 0.380789
Si Si5 0.894645 0.916148 0.420780
O O1 0.096355 0.178689 0.848063
O O2 0.114914 0.262684 0.906073
O O3 0.237640 0.197063 0.908539
O O4 0.106248 0.192474 0.000000
O O5 0.500000 0.050323 0.759118
O O6 0.365862 0.100796 0.724587
O O7 0.364632 0.057345 0.847135
O O8 0.361790 0.000000 0.732857
O O9 0.155580 0.816346 0.292200
O O10 0.000000 0.846633 0.261655
O O11 0.873239 0.139747 0.411261
O O12 0.859865 0.932696 0.500000
O O13 0.000000 0.921643 0.421802
#
# Coordination Sequence:
#
# PCOD9511965 Si02
#       5
#    32  32  32  32  32
#     4  11  22  34  51  74 102 137 172 205 241 288
#     4   8  15  29  48  69  94 125 162 204 248 296
#     4  10  21  35  53  77 101 129 167 209 251 293
#     4  10  19  35  52  71  99 135 173 200 237 296
#     4   9  16  26  45  74 103 128 157 201 254 299
#
# _framework density 20.648713999999998
#
# number of rings (size 3 to 8) (size 9 to 14) (size 15 to 20)
#    0.000    2.400    0.000    5.400    0.000    4.800 
#    0.000    2.000    0.000   10.200    0.000    2.800 
#    0.000    0.000    0.000    0.000    0.000    0.000 
#
# Total GULP energy -223121.767302 kJ/mol
# GULP energy per Si atom -5578.044183 kJ/mol
# Density = 2.060172 g / cm^3
# Si number density = 20.648714 Si / 1000 Ang^3
#
#
#
# Elastic Constant Matrix: (Units=GPa)
#
#
# Indices 1 2 3 4 5 6 
#
# 1 31.6391 -3.4867 6.6987 0.0000 0.0000 0.0000
# 2 -3.4867 78.5083 22.9828 0.0000 0.0000 0.0000
# 3 6.6987 22.9828 109.7313 0.0000 0.0000 0.0000
# 4 0.0000 0.0000 0.0000 0.9772 0.0000 0.0000
# 5 0.0000 0.0000 0.0000 0.0000 70.7363 0.0000
# 6 0.0000 0.0000 0.0000 0.0000 0.0000 15.8997
#
#
#
# Elastic Compliance Matrix: (Units=1/GPa)
#
#
# Indices 1 2 3 4 5 6 
#
# 1 0.032356 0.002147 -0.002425 0.000000 0.000000 0.000000
# 2 0.002147 0.013712 -0.003003 0.000000 0.000000 0.000000
# 3 -0.002425 -0.003003 0.009890 0.000000 0.000000 0.000000
# 4 0.000000 0.000000 0.000000 1.023323 0.000000 0.000000
# 5 0.000000 0.000000 0.000000 0.000000 0.014137 0.000000
# 6 0.000000 0.000000 0.000000 0.000000 0.000000 0.062894
#
#
# Mechanical properties :
#
#
# Convention : Reuss Voigt Hill
#
# Bulk Modulus (GPa) = 20.24431 30.25204 25.24818
# Shear Modulus (GPa) = 4.23966 30.43491 17.33728
#
# Velocity S-wave (km/s) = 1.43446 3.84335 2.90078
# Velocity P-wave (km/s) = 3.54528 5.86326 4.84494
#
# Compressibility (1/GPa) = 0.04939659
#
# Stress axis : x y z
#
# Youngs Moduli (GPa) = 30.90572 72.92907 101.11054
#
# Poissons Ratio (x) = -0.15657 0.24518
# Poissons Ratio (y) = -0.06635 0.30363
# Poissons Ratio (z) = 0.07494 0.21900
#
# Static dielectric constant tensor:
#      x y z
#    x 1.799480 0.000000 0.000000 
#    y 0.000000 1.740040 0.000000 
#    z 0.000000 0.000000 1.749400 
# 
# From -- ./inp_files/23165.got.cif
#   From: 2010.05.17/outbox.cif.g08.bks.cpg/sg69_12_cif.got.tgz:23165.got - 2010.06.03 19:29:58.
