data_PCOD9511990
_publ_section_title
;
Structure prediction by ZEFSAII (Michael W. Deem and Ramdas Pophale) SiO2 
 PCOD9511990
Probable space group: F M M M
;
_chemical_formula_sum "Si O2"
_cell_formula_units_Z 176
_cell_length_a 28.030324
_cell_length_b 19.216946
_cell_length_c 15.350989
_cell_angle_alpha 90.000000
_cell_angle_beta 90.000000
_cell_angle_gamma 90.000000
_cell_volume 8268.921100
_symmetry_space_group_name_H-M "F M M M"
_symmetry_group_IT_number 69
_symmetry_cell_setting 'orthorhombic'
loop_
_space_group_symop_operation_xyz
x,y,z
-x,-y,z
x,-y,-z
-x,y,-z
-x,-y,-z
x,y,-z
-x,y,z
x,-y,z
x,1/2+y,1/2+z
-x,1/2-y,1/2+z
x,1/2-y,1/2-z
-x,1/2+y,1/2-z
-x,1/2-y,1/2-z
x,1/2+y,1/2-z
-x,1/2+y,1/2+z
x,1/2-y,1/2+z
1/2+x,y,1/2+z
1/2-x,-y,1/2+z
1/2+x,-y,1/2-z
1/2-x,y,1/2-z
1/2-x,-y,1/2-z
1/2+x,y,1/2-z
1/2-x,y,1/2+z
1/2+x,-y,1/2+z
1/2+x,1/2+y,z
1/2-x,1/2-y,z
1/2+x,1/2-y,-z
1/2-x,1/2+y,-z
1/2-x,1/2-y,-z
1/2+x,1/2+y,-z
1/2-x,1/2+y,z
1/2+x,1/2-y,z
loop_
_atom_site_type_symbol
_atom_site_label
_atom_site_fract_x
_atom_site_fract_y
_atom_site_fract_z
Si Si1 0.220511 0.321561 0.602438
Si Si2 0.500000 0.918559 0.106538
Si Si3 0.902114 0.146865 0.401050
Si Si4 0.115833 0.708395 0.661542
Si Si5 0.056508 0.578069 0.604888
Si Si6 0.304385 0.080839 0.893538
O O1 0.209472 0.334355 0.500000
O O2 0.250000 0.250000 0.607332
O O3 0.170832 0.312302 0.650545
O O4 0.256391 0.380664 0.635785
O O5 0.451582 0.881109 0.138092
O O6 0.500000 0.000000 0.129796
O O7 0.500000 0.913967 0.000000
O O8 0.902038 0.119149 0.500000
O O9 0.898584 0.230035 0.404615
O O10 0.852793 0.118022 0.361200
O O11 0.107777 0.750000 0.750000
O O12 0.084727 0.640048 0.649418
O O13 0.063388 0.583331 0.500000
O O14 0.071739 0.500000 0.631375
O O15 0.000000 0.584139 0.621305
O O16 0.305205 0.000000 0.871410
O O17 0.303618 0.087319 0.000000
#
# Coordination Sequence:
#
# PCOD9511990 Si02
#       6
#    32  16  32  32  32  32
#     4  10  19  36  59  83 112 151 205 257 306 359
#     4   9  18  32  55  86 117 149 189 238 286 346
#     4  10  19  35  57  85 117 154 203 252 301 362
#     4  12  25  38  58  89 128 162 198 248 316 393
#     4   9  20  42  71  97 122 160 215 274 317 354
#     4   9  17  31  56  86 114 147 193 254 312 359
#
# _framework density 21.284517999999998
#
# number of rings (size 3 to 8) (size 9 to 14) (size 15 to 20)
#    0.000    2.091    1.818    2.727    1.273    3.636 
#    0.000    3.636    0.000    1.091    0.000    0.000 
#    0.000    0.000    0.000    0.000    0.000    0.000 
#
# Total GULP energy -245770.190979 kJ/mol
# GULP energy per Si atom -5585.686159 kJ/mol
# Density = 2.123607 g / cm^3
# Si number density = 21.284518 Si / 1000 Ang^3
#
#
#
# Elastic Constant Matrix: (Units=GPa)
#
#
# Indices 1 2 3 4 5 6 
#
# 1 149.1165 110.3910 29.7332 0.0000 0.0000 0.0000
# 2 110.3910 181.8861 29.5667 0.0000 0.0000 0.0000
# 3 29.7332 29.5667 42.7756 0.0000 0.0000 0.0000
# 4 0.0000 0.0000 0.0000 18.0433 0.0000 0.0000
# 5 0.0000 0.0000 0.0000 0.0000 194.4370 0.0000
# 6 0.0000 0.0000 0.0000 0.0000 0.0000 38.8859
#
#
#
# Elastic Compliance Matrix: (Units=1/GPa)
#
#
# Indices 1 2 3 4 5 6 
#
# 1 0.012746 -0.007092 -0.003957 0.000000 0.000000 0.000000
# 2 -0.007092 0.010141 -0.002079 0.000000 0.000000 0.000000
# 3 -0.003957 -0.002079 0.027566 0.000000 0.000000 0.000000
# 4 0.000000 0.000000 0.000000 0.055422 0.000000 0.000000
# 5 0.000000 0.000000 0.000000 0.000000 0.005143 0.000000
# 6 0.000000 0.000000 0.000000 0.000000 0.000000 0.025716
#
#
# Mechanical properties :
#
#
# Convention : Reuss Voigt Hill
#
# Bulk Modulus (GPa) = 41.33234 79.23999 60.28617
# Shear Modulus (GPa) = 29.23021 63.87906 46.55463
#
# Velocity S-wave (km/s) = 3.70984 5.48426 4.68188
# Velocity P-wave (km/s) = 6.14912 8.79844 7.59027
#
# Compressibility (1/GPa) = 0.02419413
#
# Stress axis : x y z
#
# Youngs Moduli (GPa) = 78.45751 98.61441 36.27706
#
# Poissons Ratio (x) = 0.69942 0.14356
# Poissons Ratio (y) = 0.55645 0.07543
# Poissons Ratio (z) = 0.31047 0.20504
#
# Static dielectric constant tensor:
#      x y z
#    x 1.741360 0.000000 0.000000 
#    y 0.000000 1.733430 0.000000 
#    z 0.000000 0.000000 2.007640 
# 
# From -- ./inp_files/26722.got.cif
#   From: 2010.05.17/outbox.cif.g08.bks.cpg/sg69_14_cif.got.tgz:26722.got - 2010.06.03 19:29:58.
