data_PCOD9511302
_publ_section_title
;
Structure prediction by ZEFSAII (Michael W. Deem and Ramdas Pophale) SiO2 
 PCOD9511302
Probable space group: F M M M
;
_chemical_formula_sum "Si O2"
_cell_formula_units_Z 160
_cell_length_a 19.178573
_cell_length_b 25.731103
_cell_length_c 18.736143
_cell_angle_alpha 90.000000
_cell_angle_beta 90.000000
_cell_angle_gamma 90.000000
_cell_volume 9246.021215
_symmetry_space_group_name_H-M "F M M M"
_symmetry_group_IT_number 69
_symmetry_cell_setting 'orthorhombic'
loop_
_space_group_symop_operation_xyz
x,y,z
-x,-y,z
x,-y,-z
-x,y,-z
-x,-y,-z
x,y,-z
-x,y,z
x,-y,z
x,1/2+y,1/2+z
-x,1/2-y,1/2+z
x,1/2-y,1/2-z
-x,1/2+y,1/2-z
-x,1/2-y,1/2-z
x,1/2+y,1/2-z
-x,1/2+y,1/2+z
x,1/2-y,1/2+z
1/2+x,y,1/2+z
1/2-x,-y,1/2+z
1/2+x,-y,1/2-z
1/2-x,y,1/2-z
1/2-x,-y,1/2-z
1/2+x,y,1/2-z
1/2-x,y,1/2+z
1/2+x,-y,1/2+z
1/2+x,1/2+y,z
1/2-x,1/2-y,z
1/2+x,1/2-y,-z
1/2-x,1/2+y,-z
1/2-x,1/2-y,-z
1/2+x,1/2+y,-z
1/2-x,1/2+y,z
1/2+x,1/2-y,z
loop_
_atom_site_type_symbol
_atom_site_label
_atom_site_fract_x
_atom_site_fract_y
_atom_site_fract_z
Si Si1 0.171921 0.306510 0.779273
Si Si2 0.303787 0.859868 0.080025
Si Si3 0.419210 0.095310 0.734031
Si Si4 0.784182 0.941103 0.829551
Si Si5 0.580423 0.442095 0.394344
O O1 0.152269 0.250000 0.750000
O O2 0.250000 0.316890 0.750000
O O3 0.179078 0.313632 0.864637
O O4 0.117351 0.349458 0.751840
O O5 0.248126 0.897766 0.118913
O O6 0.371715 0.896633 0.076980
O O7 0.283793 0.844334 0.000000
O O8 0.500000 0.100007 0.712784
O O9 0.366560 0.067761 0.679856
O O10 0.416706 0.063613 0.808394
O O11 0.750000 0.935688 0.750000
O O12 0.769111 0.000000 0.853357
O O13 0.500000 0.436083 0.415173
O O14 0.603756 0.500000 0.414265
#
# Coordination Sequence:
#
# PCOD9511302 Si02
#       5
#    32  32  32  32  32
#     4  10  19  37  60  78 104 132 174 229 275 323
#     4  11  21  34  52  80 110 142 176 216 271 325
#     4  10  18  31  53  80 106 138 184 229 265 303
#     4  11  19  32  53  78 110 147 184 221 256 304
#     4   9  17  29  47  76 113 147 176 210 259 320
#
# _framework density 17.304741
#
# number of rings (size 3 to 8) (size 9 to 14) (size 15 to 20)
#    0.000    1.800    6.000    1.200    0.000    3.600 
#    0.000    3.000    0.000    0.600    0.000    1.400 
#    0.000    0.000    0.000    0.000    0.000    0.000 
#
# Total GULP energy -223059.975561 kJ/mol
# GULP energy per Si atom -5576.499389 kJ/mol
# Density = 1.726535 g / cm^3
# Si number density = 17.304741 Si / 1000 Ang^3
#
#
#
# Elastic Constant Matrix: (Units=GPa)
#
#
# Indices 1 2 3 4 5 6 
#
# 1 97.4035 10.3761 18.2132 0.0000 0.0000 0.0000
# 2 10.3761 92.8252 38.9183 0.0000 0.0000 0.0000
# 3 18.2132 38.9183 91.9271 0.0000 0.0000 0.0000
# 4 0.0000 0.0000 0.0000 -4.6903 0.0000 0.0000
# 5 0.0000 0.0000 0.0000 0.0000 8.9929 0.0000
# 6 0.0000 0.0000 0.0000 0.0000 0.0000 19.6092
#
#
#
# Elastic Compliance Matrix: (Units=1/GPa)
#
#
# Indices 1 2 3 4 5 6 
#
# 1 0.010672 -0.000373 -0.001957 0.000000 0.000000 0.000000
# 2 -0.000373 0.013111 -0.005477 0.000000 0.000000 0.000000
# 3 -0.001957 -0.005477 0.013585 0.000000 0.000000 0.000000
# 4 0.000000 0.000000 0.000000 -0.213207 0.000000 0.000000
# 5 0.000000 0.000000 0.000000 0.000000 0.111199 0.000000
# 6 0.000000 0.000000 0.000000 0.000000 0.000000 0.050996
#
#
# Mechanical properties :
#
#
# Convention : Reuss Voigt Hill
#
# Bulk Modulus (GPa) = 45.96570 46.35233 46.15902
# Shear Modulus (GPa) = 542.31494 19.09224 280.70359
#
# Velocity S-wave (km/s) = 17.72206 3.32519 12.75006
# Velocity P-wave (km/s) = 21.10407 6.44877 15.60398
#
# Compressibility (1/GPa) = 0.02175535
#
# Stress axis : x y z
#
# Youngs Moduli (GPa) = 93.70197 76.27292 73.61318
#
# Poissons Ratio (x) = 0.02842 0.14404
# Poissons Ratio (y) = 0.03491 0.40316
# Poissons Ratio (z) = 0.18335 0.41773
#
# Static dielectric constant tensor:
#      x y z
#    x 1.602350 0.000000 0.000000 
#    y 0.000000 1.603320 0.000000 
#    z 0.000000 0.000000 1.619050 
# 
# From -- ./inp_files/23139.got.cif
#   From: 2010.05.17/outbox.cif.g08.bks.cpg/sg69_12_cif.got.tgz:23139.got - 2010.06.03 19:29:58.
