data_PCOD9511317
_publ_section_title
;
Structure prediction by ZEFSAII (Michael W. Deem and Ramdas Pophale) SiO2 
 PCOD9511317
Probable space group: F M M M
;
_chemical_formula_sum "Si O2"
_cell_formula_units_Z 208
_cell_length_a 19.783188
_cell_length_b 18.190467
_cell_length_c 26.781667
_cell_angle_alpha 90.000000
_cell_angle_beta 90.000000
_cell_angle_gamma 90.000000
_cell_volume 9637.796070
_symmetry_space_group_name_H-M "F M M M"
_symmetry_group_IT_number 69
_symmetry_cell_setting 'orthorhombic'
loop_
_space_group_symop_operation_xyz
x,y,z
-x,-y,z
x,-y,-z
-x,y,-z
-x,-y,-z
x,y,-z
-x,y,z
x,-y,z
x,1/2+y,1/2+z
-x,1/2-y,1/2+z
x,1/2-y,1/2-z
-x,1/2+y,1/2-z
-x,1/2-y,1/2-z
x,1/2+y,1/2-z
-x,1/2+y,1/2+z
x,1/2-y,1/2+z
1/2+x,y,1/2+z
1/2-x,-y,1/2+z
1/2+x,-y,1/2-z
1/2-x,y,1/2-z
1/2-x,-y,1/2-z
1/2+x,y,1/2-z
1/2-x,y,1/2+z
1/2+x,-y,1/2+z
1/2+x,1/2+y,z
1/2-x,1/2-y,z
1/2+x,1/2-y,-z
1/2-x,1/2+y,-z
1/2-x,1/2-y,-z
1/2+x,1/2+y,-z
1/2-x,1/2+y,z
1/2+x,1/2-y,z
loop_
_atom_site_type_symbol
_atom_site_label
_atom_site_fract_x
_atom_site_fract_y
_atom_site_fract_z
Si Si1 0.273742 0.665199 0.553928
Si Si2 0.925315 0.149171 0.897574
Si Si3 0.397885 0.913769 0.182423
Si Si4 0.256405 0.584673 0.155221
Si Si5 0.604127 0.412358 0.794637
Si Si6 0.077843 0.317303 0.086307
Si Si7 0.420229 0.000000 0.440827
O O1 0.251324 0.633607 0.500000
O O2 0.250000 0.750000 0.553341
O O3 0.244870 0.632479 0.605162
O O4 0.355651 0.654294 0.557320
O O5 0.928927 0.133101 0.838897
O O6 0.902067 0.231748 0.905995
O O7 0.890809 0.076326 0.920010
O O8 0.000000 0.149709 0.920856
O O9 0.316570 0.908380 0.180441
O O10 0.417452 0.893475 0.238770
O O11 0.423506 0.861300 0.138691
O O12 0.415602 0.000000 0.173626
O O13 0.263910 0.500000 0.139999
O O14 0.316377 0.600518 0.193870
O O15 0.591171 0.500000 0.801292
O O16 0.000000 0.321739 0.066139
O O17 0.500000 0.000000 0.424861
O O18 0.417119 0.000000 0.500000
#
# Coordination Sequence:
#
# PCOD9511317 Si02
#       7
#    32  32  32  32  32  32  16
#     4  10  21  38  59  81 110 148 189 239 301 358
#     4  10  20  34  51  76 110 143 179 225 283 344
#     4   9  19  35  55  81 110 150 194 239 287 335
#     4   9  18  34  56  80 108 140 185 237 287 341
#     4  10  18  31  55  81 111 147 188 232 285 347
#     4  10  22  38  57  83 117 154 196 247 295 353
#     4   9  18  34  54  74 101 138 176 218 273 338
#
# _framework density 21.581696999999998
#
# number of rings (size 3 to 8) (size 9 to 14) (size 15 to 20)
#    0.000    2.385    0.769    1.385    0.000    4.615 
#    0.000    5.385    0.000    2.769    0.000    4.308 
#    0.000    0.000    0.000    0.000    0.000    0.000 
#
# Total GULP energy -289916.121856 kJ/mol
# GULP energy per Si atom -5575.310036 kJ/mol
# Density = 2.153258 g / cm^3
# Si number density = 21.581697 Si / 1000 Ang^3
#
#
#
# Elastic Constant Matrix: (Units=GPa)
#
#
# Indices 1 2 3 4 5 6 
#
# 1 102.7943 -1.3146 -9.3703 0.0000 0.0000 0.0000
# 2 -1.3146 63.0773 30.8324 0.0000 0.0000 0.0000
# 3 -9.3703 30.8324 93.8770 0.0000 0.0000 0.0000
# 4 0.0000 0.0000 0.0000 9.7320 0.0000 0.0000
# 5 0.0000 0.0000 0.0000 0.0000 20.2165 0.0000
# 6 0.0000 0.0000 0.0000 0.0000 0.0000 17.7479
#
#
#
# Elastic Compliance Matrix: (Units=1/GPa)
#
#
# Indices 1 2 3 4 5 6 
#
# 1 0.009823 -0.000327 0.001088 0.000000 0.000000 0.000000
# 2 -0.000327 0.018896 -0.006239 0.000000 0.000000 0.000000
# 3 0.001088 -0.006239 0.012810 0.000000 0.000000 0.000000
# 4 0.000000 0.000000 0.000000 0.102754 0.000000 0.000000
# 5 0.000000 0.000000 0.000000 0.000000 0.049464 0.000000
# 6 0.000000 0.000000 0.000000 0.000000 0.000000 0.056345
#
#
# Mechanical properties :
#
#
# Convention : Reuss Voigt Hill
#
# Bulk Modulus (GPa) = 32.70818 33.33817 33.02318
# Shear Modulus (GPa) = 18.43389 25.51269 21.97329
#
# Velocity S-wave (km/s) = 2.92575 3.44196 3.19430
# Velocity P-wave (km/s) = 5.15769 5.59259 5.37954
#
# Compressibility (1/GPa) = 0.03057339
#
# Stress axis : x y z
#
# Youngs Moduli (GPa) = 101.80029 52.92035 78.06477
#
# Poissons Ratio (x) = 0.01731 -0.08493
# Poissons Ratio (y) = 0.03329 0.48703
# Poissons Ratio (z) = -0.11075 0.33016
#
# Static dielectric constant tensor:
#      x y z
#    x 1.948560 0.000000 0.000000 
#    y 0.000000 1.768010 0.000000 
#    z 0.000000 0.000000 1.744950 
# 
# From -- ./inp_files/42711.got.cif
#   From: 2010.05.17/outbox.cif.g08.bks.cpg/sg69_22_cif.got.tgz:42711.got - 2010.06.03 19:29:58.
