data_PCOD9511656
_publ_section_title
;
Structure prediction by ZEFSAII (Michael W. Deem and Ramdas Pophale) SiO2 
 PCOD9511656
Probable space group: F M M M
;
_chemical_formula_sum "Si O2"
_cell_formula_units_Z 160
_cell_length_a 8.737585
_cell_length_b 30.940106
_cell_length_c 30.427321
_cell_angle_alpha 90.000000
_cell_angle_beta 90.000000
_cell_angle_gamma 90.000000
_cell_volume 8225.776913
_symmetry_space_group_name_H-M "F M M M"
_symmetry_group_IT_number 69
_symmetry_cell_setting 'orthorhombic'
loop_
_space_group_symop_operation_xyz
x,y,z
-x,-y,z
x,-y,-z
-x,y,-z
-x,-y,-z
x,y,-z
-x,y,z
x,-y,z
x,1/2+y,1/2+z
-x,1/2-y,1/2+z
x,1/2-y,1/2-z
-x,1/2+y,1/2-z
-x,1/2-y,1/2-z
x,1/2+y,1/2-z
-x,1/2+y,1/2+z
x,1/2-y,1/2+z
1/2+x,y,1/2+z
1/2-x,-y,1/2+z
1/2+x,-y,1/2-z
1/2-x,y,1/2-z
1/2-x,-y,1/2-z
1/2+x,y,1/2-z
1/2-x,y,1/2+z
1/2+x,-y,1/2+z
1/2+x,1/2+y,z
1/2-x,1/2-y,z
1/2+x,1/2-y,-z
1/2-x,1/2+y,-z
1/2-x,1/2-y,-z
1/2+x,1/2+y,-z
1/2-x,1/2+y,z
1/2+x,1/2-y,z
loop_
_atom_site_type_symbol
_atom_site_label
_atom_site_fract_x
_atom_site_fract_y
_atom_site_fract_z
Si Si1 0.179199 0.819354 0.703137
Si Si2 0.817501 0.000000 0.297622
Si Si3 0.180501 0.909441 0.661911
Si Si4 0.179000 0.114723 0.928249
Si Si5 0.816051 0.704460 0.607605
Si Si6 0.682994 0.550763 0.500000
O O1 0.250000 0.806001 0.750000
O O2 0.192926 0.871420 0.697674
O O3 0.255800 0.802533 0.657870
O O4 0.000000 0.807669 0.702272
O O5 0.750000 0.000000 0.250000
O O6 0.773921 0.043946 0.321184
O O7 0.000000 0.000000 0.294966
O O8 0.289205 0.899060 0.621541
O O9 0.000000 0.909751 0.648094
O O10 0.231752 0.164953 0.924742
O O11 0.000000 0.114276 0.939553
O O12 0.261876 0.079891 0.958938
O O13 0.750000 0.750000 0.592315
O O14 0.000000 0.704744 0.609117
O O15 0.736879 0.500000 0.500000
O O16 0.500000 0.549037 0.500000
#
# Coordination Sequence:
#
# PCOD9511656 Si02
#       6
#    32  16  32  32  32  16
#     4  10  19  32  51  76 110 152 197 246 294 341
#     4  10  20  32  48  73 106 145 192 240 281 332
#     4   9  19  34  52  75 109 151 192 235 288 345
#     4  10  22  40  62  89 119 149 187 237 288 342
#     4  10  21  38  60  86 116 152 193 239 291 347
#     4  11  25  43  66  93 122 155 190 231 280 341
#
# _framework density 19.451049000000001
#
# number of rings (size 3 to 8) (size 9 to 14) (size 15 to 20)
#    0.000    2.100    0.000    2.700    1.400    5.200 
#    0.000    2.500    0.000    0.000    0.000    0.000 
#    0.000    0.000    0.000    0.000    0.000    0.000 
#
# Total GULP energy -223045.723366 kJ/mol
# GULP energy per Si atom -5576.143084 kJ/mol
# Density = 1.940678 g / cm^3
# Si number density = 19.451049 Si / 1000 Ang^3
#
#
#
# Elastic Constant Matrix: (Units=GPa)
#
#
# Indices 1 2 3 4 5 6 
#
# 1 48.4365 39.1878 23.8382 0.0000 0.0000 0.0000
# 2 39.1878 167.9175 34.1931 0.0000 0.0000 0.0000
# 3 23.8382 34.1931 55.3893 0.0000 0.0000 0.0000
# 4 0.0000 0.0000 0.0000 8.6014 0.0000 0.0000
# 5 0.0000 0.0000 0.0000 0.0000 23.7913 0.0000
# 6 0.0000 0.0000 0.0000 0.0000 0.0000 26.3431
#
#
#
# Elastic Compliance Matrix: (Units=1/GPa)
#
#
# Indices 1 2 3 4 5 6 
#
# 1 0.029327 -0.004889 -0.009604 0.000000 0.000000 0.000000
# 2 -0.004889 0.007626 -0.002604 0.000000 0.000000 0.000000
# 3 -0.009604 -0.002604 0.023795 0.000000 0.000000 0.000000
# 4 0.000000 0.000000 0.000000 0.116261 0.000000 0.000000
# 5 0.000000 0.000000 0.000000 0.000000 0.042032 0.000000
# 6 0.000000 0.000000 0.000000 0.000000 0.000000 0.037961
#
#
# Mechanical properties :
#
#
# Convention : Reuss Voigt Hill
#
# Bulk Modulus (GPa) = 37.65698 51.79793 44.72745
# Shear Modulus (GPa) = 16.66405 23.38209 20.02307
#
# Velocity S-wave (km/s) = 2.93015 3.47089 3.21192
# Velocity P-wave (km/s) = 5.55424 6.53839 6.06630
#
# Compressibility (1/GPa) = 0.02655550
#
# Stress axis : x y z
#
# Youngs Moduli (GPa) = 34.09781 131.12257 42.02591
#
# Poissons Ratio (x) = 0.64101 0.40361
# Poissons Ratio (y) = 0.16669 0.10944
# Poissons Ratio (z) = 0.32747 0.34145
#
# Static dielectric constant tensor:
#      x y z
#    x 1.660690 0.000000 0.000000 
#    y 0.000000 1.751940 0.000000 
#    z 0.000000 0.000000 1.656340 
# 
# From -- ./inp_files/5721.got.cif
#   From: 2010.05.17/outbox.cif.g08.bks.cpg/sg69_3_cif.got.tgz:5721.got - 2010.06.03 19:29:58.
