data_PCOD9511192
_publ_section_title
;
Structure prediction by ZEFSAII (Michael W. Deem and Ramdas Pophale) SiO2 
 PCOD9511192
Probable space group: F M M M
;
_chemical_formula_sum "Si O2"
_cell_formula_units_Z 160
_cell_length_a 27.988995
_cell_length_b 14.930965
_cell_length_c 17.174243
_cell_angle_alpha 90.000000
_cell_angle_beta 90.000000
_cell_angle_gamma 90.000000
_cell_volume 7177.162601
_symmetry_space_group_name_H-M "F M M M"
_symmetry_group_IT_number 69
_symmetry_cell_setting 'orthorhombic'
loop_
_space_group_symop_operation_xyz
x,y,z
-x,-y,z
x,-y,-z
-x,y,-z
-x,-y,-z
x,y,-z
-x,y,z
x,-y,z
x,1/2+y,1/2+z
-x,1/2-y,1/2+z
x,1/2-y,1/2-z
-x,1/2+y,1/2-z
-x,1/2-y,1/2-z
x,1/2+y,1/2-z
-x,1/2+y,1/2+z
x,1/2-y,1/2+z
1/2+x,y,1/2+z
1/2-x,-y,1/2+z
1/2+x,-y,1/2-z
1/2-x,y,1/2-z
1/2-x,-y,1/2-z
1/2+x,y,1/2-z
1/2-x,y,1/2+z
1/2+x,-y,1/2+z
1/2+x,1/2+y,z
1/2-x,1/2-y,z
1/2+x,1/2-y,-z
1/2-x,1/2+y,-z
1/2-x,1/2-y,-z
1/2+x,1/2+y,-z
1/2-x,1/2+y,z
1/2+x,1/2-y,z
loop_
_atom_site_type_symbol
_atom_site_label
_atom_site_fract_x
_atom_site_fract_y
_atom_site_fract_z
Si Si1 0.799523 0.152717 0.285819
Si Si2 0.942734 0.106627 0.414499
Si Si3 0.903184 0.100968 0.252776
Si Si4 0.127482 0.390669 0.410388
Si Si5 0.262520 0.395372 0.908664
O O1 0.807022 0.250000 0.250000
O O2 0.750000 0.115443 0.250000
O O3 0.846874 0.098020 0.272861
O O4 0.781719 0.158541 0.373803
O O5 0.925814 0.141391 0.500000
O O6 0.924915 0.144075 0.331197
O O7 0.000000 0.113464 0.414440
O O8 0.930415 0.000000 0.413773
O O9 0.904064 0.139346 0.164280
O O10 0.923182 0.000000 0.247178
O O11 0.116332 0.362811 0.500000
O O12 0.125701 0.500000 0.410670
O O13 0.182775 0.367902 0.390755
O O14 0.256905 0.500000 0.887235
O O15 0.259692 0.390123 0.000000
#
# Coordination Sequence:
#
# PCOD9511192 Si02
#       5
#    32  32  32  32  32
#     4  11  22  33  43  66 106 144 173 217 263 308
#     4   8  15  29  50  79 109 127 149 202 275 332
#     4  10  18  29  51  72  92 132 176 213 254 310
#     4   8  14  25  42  66  91 118 161 212 253 289
#     4   9  17  31  51  70  91 127 178 229 266 301
#
# _framework density 22.292932
#
# number of rings (size 3 to 8) (size 9 to 14) (size 15 to 20)
#    0.000    2.800    2.000    2.400    0.000    1.600 
#    0.000    5.000    0.000    1.200    0.000    4.200 
#    0.000    0.000    0.000    0.000    0.000    0.000 
#
# Total GULP energy -222683.927217 kJ/mol
# GULP energy per Si atom -5567.098180 kJ/mol
# Density = 2.224219 g / cm^3
# Si number density = 22.292932 Si / 1000 Ang^3
#
#
#
# Elastic Constant Matrix: (Units=GPa)
#
#
# Indices 1 2 3 4 5 6 
#
# 1 19.5822 4.3251 33.5379 0.0000 0.0000 0.0000
# 2 4.3251 55.0098 38.0897 0.0000 0.0000 0.0000
# 3 33.5379 38.0897 202.1287 0.0000 0.0000 0.0000
# 4 0.0000 0.0000 0.0000 2.1147 0.0000 0.0000
# 5 0.0000 0.0000 0.0000 0.0000 38.2856 0.0000
# 6 0.0000 0.0000 0.0000 0.0000 0.0000 -30.7511
#
#
#
# Elastic Compliance Matrix: (Units=1/GPa)
#
#
# Indices 1 2 3 4 5 6 
#
# 1 0.071765 0.002993 -0.012472 0.000000 0.000000 0.000000
# 2 0.002993 0.021031 -0.004460 0.000000 0.000000 0.000000
# 3 -0.012472 -0.004460 0.007857 0.000000 0.000000 0.000000
# 4 0.000000 0.000000 0.000000 0.472877 0.000000 0.000000
# 5 0.000000 0.000000 0.000000 0.000000 0.026120 0.000000
# 6 0.000000 0.000000 0.000000 0.000000 0.000000 -0.032519
#
#
# Mechanical properties :
#
#
# Convention : Reuss Voigt Hill
#
# Bulk Modulus (GPa) = 13.74062 47.62513 30.68287
# Shear Modulus (GPa) = 8.07406 15.31436 11.69421
#
# Velocity S-wave (km/s) = 1.90517 2.62384 2.29283
# Velocity P-wave (km/s) = 3.31913 5.53074 4.56101
#
# Compressibility (1/GPa) = 0.07277691
#
# Stress axis : x y z
#
# Youngs Moduli (GPa) = 13.93433 47.54813 127.27367
#
# Poissons Ratio (x) = -0.14231 1.58730
# Poissons Ratio (y) = -0.04171 0.56762
# Poissons Ratio (z) = 0.17378 0.21206
#
# Static dielectric constant tensor:
#      x y z
#    x 1.801440 0.000000 0.000000 
#    y 0.000000 1.837270 0.000000 
#    z 0.000000 0.000000 2.092730 
# 
# From -- ./inp_files/23131.got.cif
#   From: 2010.05.17/outbox.cif.g08.bks.cpg/sg69_12_cif.got.tgz:23131.got - 2010.06.03 19:29:58.
