data_PCOD9511929
_publ_section_title
;
Structure prediction by ZEFSAII (Michael W. Deem and Ramdas Pophale) SiO2 
 PCOD9511929
Probable space group: F M M M
;
_chemical_formula_sum "Si O2"
_cell_formula_units_Z 136
_cell_length_a 20.323132
_cell_length_b 14.423358
_cell_length_c 21.785254
_cell_angle_alpha 90.000000
_cell_angle_beta 90.000000
_cell_angle_gamma 90.000000
_cell_volume 6385.863763
_symmetry_space_group_name_H-M "F M M M"
_symmetry_group_IT_number 69
_symmetry_cell_setting 'orthorhombic'
loop_
_space_group_symop_operation_xyz
x,y,z
-x,-y,z
x,-y,-z
-x,y,-z
-x,-y,-z
x,y,-z
-x,y,z
x,-y,z
x,1/2+y,1/2+z
-x,1/2-y,1/2+z
x,1/2-y,1/2-z
-x,1/2+y,1/2-z
-x,1/2-y,1/2-z
x,1/2+y,1/2-z
-x,1/2+y,1/2+z
x,1/2-y,1/2+z
1/2+x,y,1/2+z
1/2-x,-y,1/2+z
1/2+x,-y,1/2-z
1/2-x,y,1/2-z
1/2-x,-y,1/2-z
1/2+x,y,1/2-z
1/2-x,y,1/2+z
1/2+x,-y,1/2+z
1/2+x,1/2+y,z
1/2-x,1/2-y,z
1/2+x,1/2-y,-z
1/2-x,1/2+y,-z
1/2-x,1/2-y,-z
1/2+x,1/2+y,-z
1/2-x,1/2+y,z
1/2+x,1/2-y,z
loop_
_atom_site_type_symbol
_atom_site_label
_atom_site_fract_x
_atom_site_fract_y
_atom_site_fract_z
Si Si1 0.204210 0.894311 0.696286
Si Si2 0.074220 0.641142 0.264650
Si Si3 0.759875 0.889063 0.433501
Si Si4 0.605548 0.107843 0.592846
Si Si5 0.000000 0.679018 0.500000
O O1 0.250000 0.852922 0.750000
O O2 0.130521 0.897757 0.720834
O O3 0.208231 0.850214 0.628852
O O4 0.229935 0.000000 0.688465
O O5 0.073822 0.750000 0.250000
O O6 0.095209 0.623008 0.334773
O O7 0.000000 0.606331 0.255381
O O8 0.780451 0.850779 0.500000
O O9 0.681537 0.879420 0.424829
O O10 0.774048 0.000000 0.435831
O O11 0.557411 0.170850 0.553480
O O12 0.588127 0.000000 0.578594
#
# Coordination Sequence:
#
# PCOD9511929 Si02
#       5
#    32  32  32  32   8
#     4  10  19  34  58  84 106 138 185 230 274 328
#     4  11  24  38  53  75 113 153 190 227 274 329
#     4   9  17  30  51  80 112 138 168 221 284 334
#     4  11  19  31  54  85 114 142 177 224 284 348
#     4  12  21  28  54  92 120 144 175 222 295 364
#
# _framework density 21.297041
#
# number of rings (size 3 to 8) (size 9 to 14) (size 15 to 20)
#    0.000    1.647    4.706    1.765    0.000    1.882 
#    0.000    0.000    2.588    2.118    0.000    3.294 
#    0.000    0.000    0.000    0.000    0.000    0.000 
#
# Total GULP energy -189411.793666 kJ/mol
# GULP energy per Si atom -5570.935108 kJ/mol
# Density = 2.124857 g / cm^3
# Si number density = 21.297041 Si / 1000 Ang^3
#
#
#
# Elastic Constant Matrix: (Units=GPa)
#
#
# Indices 1 2 3 4 5 6 
#
# 1 77.2441 -18.2257 70.8428 0.0000 0.0000 0.0000
# 2 -18.2257 56.8363 -2.8653 0.0000 0.0000 0.0000
# 3 70.8428 -2.8653 223.9081 0.0000 0.0000 0.0000
# 4 0.0000 0.0000 0.0000 -4.2860 0.0000 0.0000
# 5 0.0000 0.0000 0.0000 0.0000 77.0533 0.0000
# 6 0.0000 0.0000 0.0000 0.0000 0.0000 6.4064
#
#
#
# Elastic Compliance Matrix: (Units=1/GPa)
#
#
# Indices 1 2 3 4 5 6 
#
# 1 0.020182 0.006154 -0.006307 0.000000 0.000000 0.000000
# 2 0.006154 0.019482 -0.001698 0.000000 0.000000 0.000000
# 3 -0.006307 -0.001698 0.006440 0.000000 0.000000 0.000000
# 4 0.000000 0.000000 0.000000 -0.233318 0.000000 0.000000
# 5 0.000000 0.000000 0.000000 0.000000 0.012978 0.000000
# 6 0.000000 0.000000 0.000000 0.000000 0.000000 0.156093
#
#
# Mechanical properties :
#
#
# Convention : Reuss Voigt Hill
#
# Bulk Modulus (GPa) = 23.58333 50.83245 37.20789
# Shear Modulus (GPa) = -16258.62461 36.38387 -8111.12037
#
# Velocity S-wave (km/s) = -87.46880 4.13776 -61.78054
# Velocity P-wave (km/s) = 100.94532 6.83727 71.21520
#
# Compressibility (1/GPa) = 0.04240284
#
# Stress axis : x y z
#
# Youngs Moduli (GPa) = 49.54910 51.32897 155.28484
#
# Poissons Ratio (x) = -0.31587 0.97933
# Poissons Ratio (y) = -0.30492 0.26363
# Poissons Ratio (z) = 0.31249 0.08714
#
# Static dielectric constant tensor:
#      x y z
#    x 1.731600 0.000000 0.000000 
#    y 0.000000 2.032090 0.000000 
#    z 0.000000 0.000000 1.810250 
# 
# From -- ./inp_files/16550.got.cif
#   From: 2010.05.17/outbox.cif.g08.bks.cpg/sg69_9_cif.got.tgz:16550.got - 2010.06.03 19:29:58.
