data_PCOD9511572
_publ_section_title
;
Structure prediction by ZEFSAII (Michael W. Deem and Ramdas Pophale) SiO2 
 PCOD9511572
Probable space group: F M M M
;
_chemical_formula_sum "Si O2"
_cell_formula_units_Z 176
_cell_length_a 18.896263
_cell_length_b 18.750349
_cell_length_c 26.293017
_cell_angle_alpha 90.000000
_cell_angle_beta 90.000000
_cell_angle_gamma 90.000000
_cell_volume 9315.918978
_symmetry_space_group_name_H-M "F M M M"
_symmetry_group_IT_number 69
_symmetry_cell_setting 'orthorhombic'
loop_
_space_group_symop_operation_xyz
x,y,z
-x,-y,z
x,-y,-z
-x,y,-z
-x,-y,-z
x,y,-z
-x,y,z
x,-y,z
x,1/2+y,1/2+z
-x,1/2-y,1/2+z
x,1/2-y,1/2-z
-x,1/2+y,1/2-z
-x,1/2-y,1/2-z
x,1/2+y,1/2-z
-x,1/2+y,1/2+z
x,1/2-y,1/2+z
1/2+x,y,1/2+z
1/2-x,-y,1/2+z
1/2+x,-y,1/2-z
1/2-x,y,1/2-z
1/2-x,-y,1/2-z
1/2+x,y,1/2-z
1/2-x,y,1/2+z
1/2+x,-y,1/2+z
1/2+x,1/2+y,z
1/2-x,1/2-y,z
1/2+x,1/2-y,-z
1/2-x,1/2+y,-z
1/2-x,1/2-y,-z
1/2+x,1/2+y,-z
1/2-x,1/2+y,z
1/2+x,1/2-y,z
loop_
_atom_site_type_symbol
_atom_site_label
_atom_site_fract_x
_atom_site_fract_y
_atom_site_fract_z
Si Si1 0.299201 0.308722 0.300094
Si Si2 0.793586 0.419679 0.884359
Si Si3 0.375660 0.918022 0.611573
Si Si4 0.171033 0.715979 0.942610
Si Si5 0.915707 0.081414 0.000000
Si Si6 0.083118 0.274219 0.346799
O O1 0.250000 0.321747 0.250000
O O2 0.250000 0.250000 0.329055
O O3 0.310419 0.380270 0.331333
O O4 0.373667 0.267057 0.302721
O O5 0.820377 0.500000 0.887842
O O6 0.708559 0.420994 0.885148
O O7 0.819449 0.367400 0.928693
O O8 0.392626 0.890196 0.554548
O O9 0.404154 0.859762 0.651242
O O10 0.403034 0.000000 0.616991
O O11 0.250000 0.750000 0.940434
O O12 0.119501 0.746117 0.899043
O O13 0.144441 0.726610 0.000000
O O14 0.000000 0.080658 0.000000
O O15 0.887740 0.000000 0.000000
O O16 0.000000 0.259803 0.345265
#
# Coordination Sequence:
#
# PCOD9511572 Si02
#       6
#    32  32  32  32  16  32
#     4  10  20  40  62  79 111 142 181 241 292 346
#     4  10  19  33  57  85 108 142 191 237 286 335
#     4  10  19  31  48  78 118 154 189 234 284 339
#     4  10  20  35  53  79 119 161 196 233 271 322
#     4   9  18  28  38  61 106 158 188 211 264 329
#     4  11  21  35  57  85 114 153 197 237 290 349
#
# _framework density 18.892392999999998
#
# number of rings (size 3 to 8) (size 9 to 14) (size 15 to 20)
#    0.000    1.909    3.636    1.636    2.545    2.182 
#    0.000    1.818    0.000    9.273    0.000    5.091 
#    0.000    0.000    0.000    0.000    0.000    0.000 
#
# Total GULP energy -245000.702045 kJ/mol
# GULP energy per Si atom -5568.197774 kJ/mol
# Density = 1.884939 g / cm^3
# Si number density = 18.892393 Si / 1000 Ang^3
#
#
#
# Elastic Constant Matrix: (Units=GPa)
#
#
# Indices 1 2 3 4 5 6 
#
# 1 99.3132 23.8845 26.3614 0.0000 0.0000 0.0000
# 2 23.8845 129.7841 32.1550 0.0000 0.0000 0.0000
# 3 26.3614 32.1550 107.9484 0.0000 0.0000 0.0000
# 4 0.0000 0.0000 0.0000 10.4067 0.0000 0.0000
# 5 0.0000 0.0000 0.0000 0.0000 3.9211 0.0000
# 6 0.0000 0.0000 0.0000 0.0000 0.0000-1231.6060
#
#
#
# Elastic Compliance Matrix: (Units=1/GPa)
#
#
# Indices 1 2 3 4 5 6 
#
# 1 0.011021 -0.001470 -0.002253 0.000000 0.000000 0.000000
# 2 -0.001470 0.008515 -0.002177 0.000000 0.000000 0.000000
# 3 -0.002253 -0.002177 0.010463 0.000000 0.000000 0.000000
# 4 0.000000 0.000000 0.000000 0.096092 0.000000 0.000000
# 5 0.000000 0.000000 0.000000 0.000000 0.255029 0.000000
# 6 0.000000 0.000000 0.000000 0.000000 0.000000 -0.000812
#
#
# Mechanical properties :
#
#
# Convention : Reuss Voigt Hill
#
# Bulk Modulus (GPa) = 54.95455 55.76082 55.35769
# Shear Modulus (GPa) = 12.55728 -226.47932 -106.96102
#
# Velocity S-wave (km/s) = 2.58092 -10.96079 -7.53252
# Velocity P-wave (km/s) = 6.16708 11.42830 6.80342
#
# Compressibility (1/GPa) = 0.01819685
#
# Stress axis : x y z
#
# Youngs Moduli (GPa) = 90.73748 117.43848 95.57842
#
# Poissons Ratio (x) = 0.17262 0.21538
# Poissons Ratio (y) = 0.13337 0.20812
# Poissons Ratio (z) = 0.20448 0.25572
#
# Static dielectric constant tensor:
#      x y z
#    x 1.656950 0.000000 0.000000 
#    y 0.000000 1.709930 0.000000 
#    z 0.000000 0.000000 1.588140 
# 
# From -- ./inp_files/41839.got.cif
#   From: 2010.05.17/outbox.cif.g08.bks.cpg/sg69_21_cif.got.tgz:41839.got - 2010.06.03 19:29:58.
