data_PCOD9511146
_publ_section_title
;
Structure prediction by ZEFSAII (Michael W. Deem and Ramdas Pophale) SiO2 
 PCOD9511146
Probable space group: F M M M
;
_chemical_formula_sum "Si O2"
_cell_formula_units_Z 176
_cell_length_a 18.590866
_cell_length_b 29.694343
_cell_length_c 14.668219
_cell_angle_alpha 90.000000
_cell_angle_beta 90.000000
_cell_angle_gamma 90.000000
_cell_volume 8097.495713
_symmetry_space_group_name_H-M "F M M M"
_symmetry_group_IT_number 69
_symmetry_cell_setting 'orthorhombic'
loop_
_space_group_symop_operation_xyz
x,y,z
-x,-y,z
x,-y,-z
-x,y,-z
-x,-y,-z
x,y,-z
-x,y,z
x,-y,z
x,1/2+y,1/2+z
-x,1/2-y,1/2+z
x,1/2-y,1/2-z
-x,1/2+y,1/2-z
-x,1/2-y,1/2-z
x,1/2+y,1/2-z
-x,1/2+y,1/2+z
x,1/2-y,1/2+z
1/2+x,y,1/2+z
1/2-x,-y,1/2+z
1/2+x,-y,1/2-z
1/2-x,y,1/2-z
1/2-x,-y,1/2-z
1/2+x,y,1/2-z
1/2-x,y,1/2+z
1/2+x,-y,1/2+z
1/2+x,1/2+y,z
1/2-x,1/2-y,z
1/2+x,1/2-y,-z
1/2-x,1/2+y,-z
1/2-x,1/2-y,-z
1/2+x,1/2+y,-z
1/2-x,1/2+y,z
1/2+x,1/2-y,z
loop_
_atom_site_type_symbol
_atom_site_label
_atom_site_fract_x
_atom_site_fract_y
_atom_site_fract_z
Si Si1 0.915945 0.699372 0.641633
Si Si2 0.782398 0.448255 0.111890
Si Si3 0.918673 0.103302 0.606444
Si Si4 0.142382 0.602973 0.607422
Si Si5 0.000000 0.447718 0.611886
Si Si6 0.916751 0.702651 0.139182
O O1 0.869667 0.656245 0.616229
O O2 0.916666 0.701469 0.751298
O O3 0.888159 0.748459 0.609983
O O4 0.000000 0.693375 0.612643
O O5 0.770270 0.500000 0.136818
O O6 0.859011 0.429785 0.145778
O O7 0.716609 0.417084 0.143794
O O8 0.784537 0.446364 0.000000
O O9 0.926108 0.091885 0.500000
O O10 0.887766 0.154342 0.609891
O O11 0.000000 0.102573 0.646008
O O12 0.143357 0.592645 0.500000
O O13 0.071325 0.578115 0.644187
O O14 0.000000 0.500000 0.638288
O O15 0.000000 0.446352 0.500000
O O16 0.000000 0.702687 0.108723
#
# Coordination Sequence:
#
# PCOD9511146 Si02
#       6
#    32  32  32  32  16  32
#     4   9  16  29  48  71  98 131 165 191 228 284
#     4   9  18  32  49  70  98 127 155 196 248 292
#     4   9  17  31  52  75  92 115 158 205 247 289
#     4  10  18  28  45  72 100 128 162 196 231 272
#     4   9  16  26  42  65  94 126 161 194 220 262
#     4   8  16  30  49  71  96 127 159 196 242 284
#
# _framework density 21.735116000000001
#
# number of rings (size 3 to 8) (size 9 to 14) (size 15 to 20)
#    0.000    3.000    0.909    1.636    0.000    3.273 
#    0.000    5.455    0.000    8.727    0.000    0.000 
#    0.000    0.000    0.000    0.000    0.000    0.000 
#
# Total GULP energy -245376.768274 kJ/mol
# GULP energy per Si atom -5576.744734 kJ/mol
# Density = 2.168565 g / cm^3
# Si number density = 21.735116 Si / 1000 Ang^3
#
#
#
# Elastic Constant Matrix: (Units=GPa)
#
#
# Indices 1 2 3 4 5 6 
#
# 1 113.7697 70.5791 13.3220 0.0000 0.0000 0.0000
# 2 70.5791 102.1672 -13.5194 0.0000 0.0000 0.0000
# 3 13.3220 -13.5194 53.4705 0.0000 0.0000 0.0000
# 4 0.0000 0.0000 0.0000 28.8700 0.0000 0.0000
# 5 0.0000 0.0000 0.0000 0.0000 11.7668 0.0000
# 6 0.0000 0.0000 0.0000 0.0000 0.0000 27.6821
#
#
#
# Elastic Compliance Matrix: (Units=1/GPa)
#
#
# Indices 1 2 3 4 5 6 
#
# 1 0.018157 -0.013597 -0.007961 0.000000 0.000000 0.000000
# 2 -0.013597 0.020308 0.008522 0.000000 0.000000 0.000000
# 3 -0.007961 0.008522 0.022840 0.000000 0.000000 0.000000
# 4 0.000000 0.000000 0.000000 0.034638 0.000000 0.000000
# 5 0.000000 0.000000 0.000000 0.000000 0.084985 0.000000
# 6 0.000000 0.000000 0.000000 0.000000 0.000000 0.036124
#
#
# Mechanical properties :
#
#
# Convention : Reuss Voigt Hill
#
# Bulk Modulus (GPa) = 28.38174 45.57454 36.97814
# Shear Modulus (GPa) = 19.61793 26.93218 23.27505
#
# Velocity S-wave (km/s) = 3.00757 3.52392 3.27593
# Velocity P-wave (km/s) = 5.01468 6.12952 5.59991
#
# Compressibility (1/GPa) = 0.03523392
#
# Stress axis : x y z
#
# Youngs Moduli (GPa) = 55.07555 49.24066 43.78237
#
# Poissons Ratio (x) = 0.66951 0.34857
# Poissons Ratio (y) = 0.74884 -0.37313
# Poissons Ratio (z) = 0.43848 -0.41964
#
# Static dielectric constant tensor:
#      x y z
#    x 1.779430 0.000000 0.000000 
#    y 0.000000 1.795460 0.000000 
#    z 0.000000 0.000000 1.818840 
# 
# From -- ./inp_files/23572.got.cif
#   From: 2010.05.17/outbox.cif.g08.bks.cpg/sg69_12_cif.got.tgz:23572.got - 2010.06.03 19:29:58.
