data_PCOD9511624
_publ_section_title
;
Structure prediction by ZEFSAII (Michael W. Deem and Ramdas Pophale) SiO2 
 PCOD9511624
Probable space group: F M M M
;
_chemical_formula_sum "Si O2"
_cell_formula_units_Z 208
_cell_length_a 27.997814
_cell_length_b 17.486507
_cell_length_c 24.006394
_cell_angle_alpha 90.000000
_cell_angle_beta 90.000000
_cell_angle_gamma 90.000000
_cell_volume 11753.145692
_symmetry_space_group_name_H-M "F M M M"
_symmetry_group_IT_number 69
_symmetry_cell_setting 'orthorhombic'
loop_
_space_group_symop_operation_xyz
x,y,z
-x,-y,z
x,-y,-z
-x,y,-z
-x,-y,-z
x,y,-z
-x,y,z
x,-y,z
x,1/2+y,1/2+z
-x,1/2-y,1/2+z
x,1/2-y,1/2-z
-x,1/2+y,1/2-z
-x,1/2-y,1/2-z
x,1/2+y,1/2-z
-x,1/2+y,1/2+z
x,1/2-y,1/2+z
1/2+x,y,1/2+z
1/2-x,-y,1/2+z
1/2+x,-y,1/2-z
1/2-x,y,1/2-z
1/2-x,-y,1/2-z
1/2+x,y,1/2-z
1/2-x,y,1/2+z
1/2+x,-y,1/2+z
1/2+x,1/2+y,z
1/2-x,1/2-y,z
1/2+x,1/2-y,-z
1/2-x,1/2+y,-z
1/2-x,1/2-y,-z
1/2+x,1/2+y,-z
1/2-x,1/2+y,z
1/2+x,1/2-y,z
loop_
_atom_site_type_symbol
_atom_site_label
_atom_site_fract_x
_atom_site_fract_y
_atom_site_fract_z
Si Si1 0.500000 0.417027 0.933307
Si Si2 0.864551 0.910081 0.843168
Si Si3 0.306795 0.660772 0.742852
Si Si4 0.052564 0.408180 0.740488
Si Si5 0.943151 0.852992 0.433858
Si Si6 0.878611 0.590266 0.837377
Si Si7 0.094015 0.319882 0.565183
O O1 0.500000 0.500000 0.905451
O O2 0.451797 0.372440 0.922427
O O3 0.500000 0.425448 0.000000
O O4 0.828474 0.888294 0.793794
O O5 0.915197 0.896282 0.812939
O O6 0.864507 0.852303 0.895128
O O7 0.860433 0.000000 0.858379
O O8 0.320062 0.750000 0.750000
O O9 0.250000 0.654636 0.750000
O O10 0.330358 0.631425 0.684699
O O11 0.049138 0.500000 0.747620
O O12 0.081466 0.379597 0.793824
O O13 0.000000 0.375455 0.735760
O O14 0.940284 0.870965 0.500000
O O15 0.904745 0.898627 0.396601
O O16 0.925209 0.765732 0.426185
O O17 0.000000 0.861626 0.418357
O O18 0.870722 0.500000 0.828825
O O19 0.106743 0.327570 0.500000
#
# Coordination Sequence:
#
# PCOD9511624 Si02
#       7
#    16  32  32  32  32  32  32
#     4   9  16  26  42  64  92 135 183 217 247 285
#     4  10  20  31  49  78 106 136 177 220 265 318
#     4  10  21  39  61  82 105 134 170 216 276 342
#     4   8  15  27  42  65  99 133 164 205 254 301
#     4  10  20  34  52  76 111 154 193 225 262 313
#     4  10  20  34  54  80 107 137 177 225 272 318
#     4  10  19  32  47  69 107 148 184 221 257 304
#
# _framework density 17.697389999999999
#
# number of rings (size 3 to 8) (size 9 to 14) (size 15 to 20)
#    0.000    2.385    0.769    3.231    1.077    3.385 
#    0.000    0.769    0.000    6.000    0.000    6.462 
#    0.000    0.000    0.000    0.000    0.000    0.000 
#
# Total GULP energy -289511.624594 kJ/mol
# GULP energy per Si atom -5567.531242 kJ/mol
# Density = 1.765711 g / cm^3
# Si number density = 17.697390 Si / 1000 Ang^3
#
#
#
# Elastic Constant Matrix: (Units=GPa)
#
#
# Indices 1 2 3 4 5 6 
#
# 1 66.8471 26.1699 24.2967 0.0000 0.0000 0.0000
# 2 26.1699 49.3905 16.3054 0.0000 0.0000 0.0000
# 3 24.2967 16.3054 55.4548 0.0000 0.0000 0.0000
# 4 0.0000 0.0000 0.0000 27.6207 0.0000 0.0000
# 5 0.0000 0.0000 0.0000 0.0000 18.6242 0.0000
# 6 0.0000 0.0000 0.0000 0.0000 0.0000 20.9647
#
#
#
# Elastic Compliance Matrix: (Units=1/GPa)
#
#
# Indices 1 2 3 4 5 6 
#
# 1 0.020797 -0.008872 -0.006503 0.000000 0.000000 0.000000
# 2 -0.008872 0.026209 -0.003819 0.000000 0.000000 0.000000
# 3 -0.006503 -0.003819 0.022005 0.000000 0.000000 0.000000
# 4 0.000000 0.000000 0.000000 0.036205 0.000000 0.000000
# 5 0.000000 0.000000 0.000000 0.000000 0.053694 0.000000
# 6 0.000000 0.000000 0.000000 0.000000 0.000000 0.047699
#
#
# Mechanical properties :
#
#
# Convention : Reuss Voigt Hill
#
# Bulk Modulus (GPa) = 32.65671 33.91516 33.28594
# Shear Modulus (GPa) = 19.59223 20.43660 20.01442
#
# Velocity S-wave (km/s) = 3.33087 3.40189 3.36657
# Velocity P-wave (km/s) = 5.76939 5.88524 5.82760
#
# Compressibility (1/GPa) = 0.03062157
#
# Stress axis : x y z
#
# Youngs Moduli (GPa) = 48.08489 38.15536 45.44479
#
# Poissons Ratio (x) = 0.33853 0.29552
# Poissons Ratio (y) = 0.42663 0.17355
# Poissons Ratio (z) = 0.31269 0.14571
#
# Static dielectric constant tensor:
#      x y z
#    x 1.609620 0.000000 0.000000 
#    y 0.000000 1.624870 0.000000 
#    z 0.000000 0.000000 1.639510 
# 
# From -- ./inp_files/38527.got.cif
#   From: 2010.05.17/outbox.cif.g08.bks.cpg/sg69_20_cif.got.tgz:38527.got - 2010.06.03 19:29:58.
