data_PCOD9511073
_publ_section_title
;
Structure prediction by ZEFSAII (Michael W. Deem and Ramdas Pophale) SiO2 
 PCOD9511073
Probable space group: F M M M
;
_chemical_formula_sum "Si O2"
_cell_formula_units_Z 224
_cell_length_a 15.346786
_cell_length_b 33.536275
_cell_length_c 21.972382
_cell_angle_alpha 90.000000
_cell_angle_beta 90.000000
_cell_angle_gamma 90.000000
_cell_volume 11308.614517
_symmetry_space_group_name_H-M "F M M M"
_symmetry_group_IT_number 69
_symmetry_cell_setting 'orthorhombic'
loop_
_space_group_symop_operation_xyz
x,y,z
-x,-y,z
x,-y,-z
-x,y,-z
-x,-y,-z
x,y,-z
-x,y,z
x,-y,z
x,1/2+y,1/2+z
-x,1/2-y,1/2+z
x,1/2-y,1/2-z
-x,1/2+y,1/2-z
-x,1/2-y,1/2-z
x,1/2+y,1/2-z
-x,1/2+y,1/2+z
x,1/2-y,1/2+z
1/2+x,y,1/2+z
1/2-x,-y,1/2+z
1/2+x,-y,1/2-z
1/2-x,y,1/2-z
1/2-x,-y,1/2-z
1/2+x,y,1/2-z
1/2-x,y,1/2+z
1/2+x,-y,1/2+z
1/2+x,1/2+y,z
1/2-x,1/2-y,z
1/2+x,1/2-y,-z
1/2-x,1/2+y,-z
1/2-x,1/2-y,-z
1/2+x,1/2+y,-z
1/2-x,1/2+y,z
1/2+x,1/2-y,z
loop_
_atom_site_type_symbol
_atom_site_label
_atom_site_fract_x
_atom_site_fract_y
_atom_site_fract_z
Si Si1 0.106173 0.149767 0.430658
Si Si2 0.106140 0.760983 0.429174
Si Si3 0.896459 0.868885 0.000000
Si Si4 0.340008 0.884884 0.285563
Si Si5 0.902635 0.082194 0.334865
Si Si6 0.320962 0.955281 0.500000
Si Si7 0.730728 0.955997 0.363591
Si Si8 0.105675 0.821890 0.119175
O O1 0.135045 0.141218 0.500000
O O2 0.135811 0.194370 0.413115
O O3 0.129358 0.116284 0.382189
O O4 0.000000 0.150634 0.431731
O O5 0.129126 0.753605 0.500000
O O6 0.135654 0.723704 0.389138
O O7 0.000000 0.761508 0.427020
O O8 0.880194 0.916016 0.000000
O O9 0.862382 0.847138 0.939470
O O10 0.000000 0.862278 0.000000
O O11 0.250000 0.878680 0.250000
O O12 0.403569 0.898977 0.232179
O O13 0.325696 0.920988 0.333305
O O14 0.366314 0.845511 0.321306
O O15 0.828244 0.049135 0.338179
O O16 0.000000 0.069336 0.352003
O O17 0.268408 0.952797 0.563182
O O18 0.362471 0.000000 0.500000
O O19 0.696577 0.000000 0.348026
O O20 0.000000 0.821676 0.117998
#
# Coordination Sequence:
#
# PCOD9511073 Si02
#       8
#    32  32  16  32  32  16  32  32
#     4   8  15  29  50  76 107 138 171 218 271 316
#     4   8  13  24  46  78 109 136 169 212 263 318
#     4  10  18  29  54  86 110 137 175 222 269 313
#     4  10  21  36  54  74 103 147 184 212 255 319
#     4  10  21  36  56  81 107 136 179 228 268 309
#     4  10  20  37  57  81 111 144 174 213 271 334
#     4  10  22  39  59  80 105 139 178 216 264 327
#     4  10  17  29  52  83 112 135 172 224 267 302
#
# _framework density 19.807908999999999
#
# number of rings (size 3 to 8) (size 9 to 14) (size 15 to 20)
#    0.000    2.571    2.143    1.286    1.000    3.000 
#    0.000    0.714    0.000   12.000    0.000    9.000 
#    0.000    0.000    0.000    0.000    0.000    0.000 
#
# Total GULP energy -312290.578314 kJ/mol
# GULP energy per Si atom -5576.617470 kJ/mol
# Density = 1.976283 g / cm^3
# Si number density = 19.807909 Si / 1000 Ang^3
#
#
#
# Elastic Constant Matrix: (Units=GPa)
#
#
# Indices 1 2 3 4 5 6 
#
# 1 21.4084 2.3888 1.4144 0.0000 0.0000 0.0000
# 2 2.3888 74.2246 22.4737 0.0000 0.0000 0.0000
# 3 1.4144 22.4737 80.7399 0.0000 0.0000 0.0000
# 4 0.0000 0.0000 0.0000 20.9694 0.0000 0.0000
# 5 0.0000 0.0000 0.0000 0.0000 18.4009 0.0000
# 6 0.0000 0.0000 0.0000 0.0000 0.0000 6.5479
#
#
#
# Elastic Compliance Matrix: (Units=1/GPa)
#
#
# Indices 1 2 3 4 5 6 
#
# 1 0.046893 -0.001376 -0.000438 0.000000 0.000000 0.000000
# 2 -0.001376 0.014753 -0.004082 0.000000 0.000000 0.000000
# 3 -0.000438 -0.004082 0.013529 0.000000 0.000000 0.000000
# 4 0.000000 0.000000 0.000000 0.047689 0.000000 0.000000
# 5 0.000000 0.000000 0.000000 0.000000 0.054345 0.000000
# 6 0.000000 0.000000 0.000000 0.000000 0.000000 0.152721
#
#
# Mechanical properties :
#
#
# Convention : Reuss Voigt Hill
#
# Bulk Modulus (GPa) = 15.77751 25.43629 20.60690
# Shear Modulus (GPa) = 13.77972 19.19003 16.48487
#
# Velocity S-wave (km/s) = 2.64041 3.11594 2.88798
# Velocity P-wave (km/s) = 4.15671 5.08083 4.64182
#
# Compressibility (1/GPa) = 0.06338135
#
# Stress axis : x y z
#
# Youngs Moduli (GPa) = 21.32505 67.78295 73.91293
#
# Poissons Ratio (x) = 0.09330 0.03240
# Poissons Ratio (y) = 0.02935 0.30174
# Poissons Ratio (z) = 0.00935 0.27671
#
# Static dielectric constant tensor:
#      x y z
#    x 1.738690 0.000000 0.000000 
#    y 0.000000 1.694130 0.000000 
#    z 0.000000 0.000000 1.688620 
# 
# From -- ./inp_files/31250.got.cif
#   From: 2010.05.17/outbox.cif.g08.bks.cpg/sg69_16_cif.got.tgz:31250.got - 2010.06.03 19:29:58.
