data_PCOD9511828
_publ_section_title
;
Structure prediction by ZEFSAII (Michael W. Deem and Ramdas Pophale) SiO2 
 PCOD9511828
Probable space group: F M M M
;
_chemical_formula_sum "Si O2"
_cell_formula_units_Z 132
_cell_length_a 15.370616
_cell_length_b 24.872641
_cell_length_c 19.487432
_cell_angle_alpha 90.000000
_cell_angle_beta 90.000000
_cell_angle_gamma 90.000000
_cell_volume 7450.197523
_symmetry_space_group_name_H-M "F M M M"
_symmetry_group_IT_number 69
_symmetry_cell_setting 'orthorhombic'
loop_
_space_group_symop_operation_xyz
x,y,z
-x,-y,z
x,-y,-z
-x,y,-z
-x,-y,-z
x,y,-z
-x,y,z
x,-y,z
x,1/2+y,1/2+z
-x,1/2-y,1/2+z
x,1/2-y,1/2-z
-x,1/2+y,1/2-z
-x,1/2-y,1/2-z
x,1/2+y,1/2-z
-x,1/2+y,1/2+z
x,1/2-y,1/2+z
1/2+x,y,1/2+z
1/2-x,-y,1/2+z
1/2+x,-y,1/2-z
1/2-x,y,1/2-z
1/2-x,-y,1/2-z
1/2+x,y,1/2-z
1/2-x,y,1/2+z
1/2+x,-y,1/2+z
1/2+x,1/2+y,z
1/2-x,1/2-y,z
1/2+x,1/2-y,-z
1/2-x,1/2+y,-z
1/2-x,1/2-y,-z
1/2+x,1/2+y,-z
1/2-x,1/2+y,z
1/2+x,1/2-y,z
loop_
_atom_site_type_symbol
_atom_site_label
_atom_site_fract_x
_atom_site_fract_y
_atom_site_fract_z
Si Si1 0.156406 0.000000 0.388249
Si Si2 0.500000 0.000000 0.000000
Si Si3 0.600129 0.392673 0.681951
Si Si4 0.097522 0.111675 0.847358
Si Si5 0.856754 0.000000 0.078767
Si Si6 0.245336 0.688395 0.833590
O O1 0.145802 0.946772 0.342919
O O2 0.251897 0.000000 0.420287
O O3 0.077041 0.000000 0.441098
O O4 0.500000 0.391080 0.659128
O O5 0.600630 0.393438 0.764611
O O6 0.655334 0.342714 0.653204
O O7 0.112885 0.053895 0.882182
O O8 0.174818 0.153433 0.863096
O O9 0.000000 0.130717 0.865578
O O10 0.887280 0.000000 0.000000
O O11 0.250000 0.688799 0.750000
O O12 0.250000 0.750000 0.856652
#
# Coordination Sequence:
#
# PCOD9511828 Si02
#       6
#    16   4  32  32  16  32
#     4  12  21  34  54  81 112 142 175 221 272 329
#     4  12  24  36  52  88 118 136 174 228 272 330
#     4  10  19  33  56  82 110 143 178 222 274 327
#     4  10  21  35  54  81 111 143 181 224 269 320
#     4  12  24  36  54  80 106 145 182 220 276 329
#     4   9  18  32  52  81 113 142 177 223 273 320
#
# _framework density 17.717651
#
# number of rings (size 3 to 8) (size 9 to 14) (size 15 to 20)
#    0.000    1.697    4.242    1.091    0.000    4.848 
#    0.000    4.848    0.000    0.727    0.000    0.000 
#    0.000    0.000    0.000    0.000    0.000    0.000 
#
# Total GULP energy -183781.750576 kJ/mol
# GULP energy per Si atom -5569.143957 kJ/mol
# Density = 1.767733 g / cm^3
# Si number density = 17.717651 Si / 1000 Ang^3
#
#
#
# Elastic Constant Matrix: (Units=GPa)
#
#
# Indices 1 2 3 4 5 6 
#
# 1 111.5222 48.3393 21.4263 0.0000 0.0000 0.0000
# 2 48.3393 147.5691 19.0223 0.0000 0.0000 0.0000
# 3 21.4263 19.0223 17.5774 0.0000 0.0000 0.0000
# 4 0.0000 0.0000 0.0000 5.3766 0.0000 0.0000
# 5 0.0000 0.0000 0.0000 0.0000 13.7300 0.0000
# 6 0.0000 0.0000 0.0000 0.0000 0.0000 10.5292
#
#
#
# Elastic Compliance Matrix: (Units=1/GPa)
#
#
# Indices 1 2 3 4 5 6 
#
# 1 0.012434 -0.002463 -0.012492 0.000000 0.000000 0.000000
# 2 -0.002463 0.008363 -0.006048 0.000000 0.000000 0.000000
# 3 -0.012492 -0.006048 0.078664 0.000000 0.000000 0.000000
# 4 0.000000 0.000000 0.000000 0.185990 0.000000 0.000000
# 5 0.000000 0.000000 0.000000 0.000000 0.072833 0.000000
# 6 0.000000 0.000000 0.000000 0.000000 0.000000 0.094974
#
#
# Mechanical properties :
#
#
# Convention : Reuss Voigt Hill
#
# Bulk Modulus (GPa) = 17.40481 50.47163 33.93822
# Shear Modulus (GPa) = 9.71976 18.45255 14.08615
#
# Velocity S-wave (km/s) = 2.34474 3.23070 2.82270
# Velocity P-wave (km/s) = 4.14430 6.51652 5.46078
#
# Compressibility (1/GPa) = 0.05745538
#
# Stress axis : x y z
#
# Youngs Moduli (GPa) = 80.42239 119.57582 12.71232
#
# Poissons Ratio (x) = 0.29450 0.15880
# Poissons Ratio (y) = 0.19807 0.07689
# Poissons Ratio (z) = 1.00462 0.72322
#
# Static dielectric constant tensor:
#      x y z
#    x 1.621020 0.000000 0.000000 
#    y 0.000000 1.580300 0.000000 
#    z 0.000000 0.000000 1.588930 
# 
# From -- ./inp_files/15403.got.cif
#   From: 2010.05.17/outbox.cif.g08.bks.cpg/sg69_8_cif.got.tgz:15403.got - 2010.06.03 19:29:58.
