data_PCOD9511448
_publ_section_title
;
Structure prediction by ZEFSAII (Michael W. Deem and Ramdas Pophale) SiO2 
 PCOD9511448
Probable space group: F M M M
;
_chemical_formula_sum "Si O2"
_cell_formula_units_Z 160
_cell_length_a 14.401157
_cell_length_b 25.290427
_cell_length_c 21.277911
_cell_angle_alpha 90.000000
_cell_angle_beta 90.000000
_cell_angle_gamma 90.000000
_cell_volume 7749.657963
_symmetry_space_group_name_H-M "F M M M"
_symmetry_group_IT_number 69
_symmetry_cell_setting 'orthorhombic'
loop_
_space_group_symop_operation_xyz
x,y,z
-x,-y,z
x,-y,-z
-x,y,-z
-x,-y,-z
x,y,-z
-x,y,z
x,-y,z
x,1/2+y,1/2+z
-x,1/2-y,1/2+z
x,1/2-y,1/2-z
-x,1/2+y,1/2-z
-x,1/2-y,1/2-z
x,1/2+y,1/2-z
-x,1/2+y,1/2+z
x,1/2-y,1/2+z
1/2+x,y,1/2+z
1/2-x,-y,1/2+z
1/2+x,-y,1/2-z
1/2-x,y,1/2-z
1/2-x,-y,1/2-z
1/2+x,y,1/2-z
1/2-x,y,1/2+z
1/2+x,-y,1/2+z
1/2+x,1/2+y,z
1/2-x,1/2-y,z
1/2+x,1/2-y,-z
1/2-x,1/2+y,-z
1/2-x,1/2-y,-z
1/2+x,1/2+y,-z
1/2-x,1/2+y,z
1/2+x,1/2-y,z
loop_
_atom_site_type_symbol
_atom_site_label
_atom_site_fract_x
_atom_site_fract_y
_atom_site_fract_z
Si Si1 0.600348 0.664956 0.389539
Si Si2 0.684763 0.440370 0.000000
Si Si3 0.888698 0.437295 0.635480
Si Si4 0.389683 0.284882 0.071047
Si Si5 0.899880 0.081656 0.500000
Si Si6 0.717930 0.156603 0.316731
O O1 0.500000 0.669869 0.357342
O O2 0.619283 0.721521 0.421712
O O3 0.596943 0.620177 0.441155
O O4 0.682099 0.647162 0.345890
O O5 0.647492 0.418202 0.933773
O O6 0.646290 0.500000 0.000000
O O7 0.796725 0.442636 0.000000
O O8 0.865441 0.500000 0.642951
O O9 0.839655 0.398289 0.685145
O O10 0.000000 0.432380 0.637635
O O11 0.500000 0.297721 0.074410
O O12 0.337539 0.308349 0.131826
O O13 0.356754 0.299913 0.000000
O O14 0.000000 0.052960 0.500000
O O15 0.750000 0.180340 0.250000
#
# Coordination Sequence:
#
# PCOD9511448 Si02
#       6
#    32  16  32  32  16  32
#     4  10  21  38  60  86 123 166 208 253 302 362
#     4  10  19  35  63  98 129 156 200 269 334 375
#     4  10  22  41  65  92 123 158 202 261 325 382
#     4  10  22  40  65  95 123 160 214 267 312 364
#     4  10  18  34  59  90 125 166 209 252 304 366
#     4  12  26  40  60  91 127 165 206 253 316 384
#
# _framework density 20.646073000000001
#
# number of rings (size 3 to 8) (size 9 to 14) (size 15 to 20)
#    0.000    1.600    3.000    1.500    2.800    5.800 
#    0.000    2.000    0.000    0.600    0.000    0.000 
#    0.000    0.000    0.000    0.000    0.000    0.000 
#
# Total GULP energy -222947.409731 kJ/mol
# GULP energy per Si atom -5573.685243 kJ/mol
# Density = 2.059908 g / cm^3
# Si number density = 20.646073 Si / 1000 Ang^3
#
#
#
# Elastic Constant Matrix: (Units=GPa)
#
#
# Indices 1 2 3 4 5 6 
#
# 1 112.8694 25.4871 43.7620 0.0000 0.0000 0.0000
# 2 25.4871 87.3309 22.5155 0.0000 0.0000 0.0000
# 3 43.7620 22.5155 85.3426 0.0000 0.0000 0.0000
# 4 0.0000 0.0000 0.0000 2.3030 0.0000 0.0000
# 5 0.0000 0.0000 0.0000 0.0000 79.4204 0.0000
# 6 0.0000 0.0000 0.0000 0.0000 0.0000 29.3546
#
#
#
# Elastic Compliance Matrix: (Units=1/GPa)
#
#
# Indices 1 2 3 4 5 6 
#
# 1 0.011358 -0.001946 -0.005311 0.000000 0.000000 0.000000
# 2 -0.001946 0.012620 -0.002332 0.000000 0.000000 0.000000
# 3 -0.005311 -0.002332 0.015056 0.000000 0.000000 0.000000
# 4 0.000000 0.000000 0.000000 0.434216 0.000000 0.000000
# 5 0.000000 0.000000 0.000000 0.000000 0.012591 0.000000
# 6 0.000000 0.000000 0.000000 0.000000 0.000000 0.034066
#
#
# Mechanical properties :
#
#
# Convention : Reuss Voigt Hill
#
# Bulk Modulus (GPa) = 50.35918 52.11911 51.23915
# Shear Modulus (GPa) = 9.16249 35.13416 22.14833
#
# Velocity S-wave (km/s) = 2.10891 4.12969 3.27886
# Velocity P-wave (km/s) = 5.51132 6.93094 6.26149
#
# Compressibility (1/GPa) = 0.01985735
#
# Stress axis : x y z
#
# Youngs Moduli (GPa) = 88.04098 79.24133 66.41853
#
# Poissons Ratio (x) = 0.15417 0.35275
# Poissons Ratio (y) = 0.17129 0.15487
# Poissons Ratio (z) = 0.46759 0.18477
#
# Static dielectric constant tensor:
#      x y z
#    x 1.781580 0.000000 0.000000 
#    y 0.000000 1.759400 0.000000 
#    z 0.000000 0.000000 1.724450 
# 
# From -- ./inp_files/21849.got.cif
#   From: 2010.05.17/outbox.cif.g08.bks.cpg/sg69_11_cif.got.tgz:21849.got - 2010.06.03 19:29:58.
