data_PCOD9511565
_publ_section_title
;
Structure prediction by ZEFSAII (Michael W. Deem and Ramdas Pophale) SiO2 
 PCOD9511565
Probable space group: F M M M
;
_chemical_formula_sum "Si O2"
_cell_formula_units_Z 128
_cell_length_a 8.864688
_cell_length_b 34.709556
_cell_length_c 25.959923
_cell_angle_alpha 90.000000
_cell_angle_beta 90.000000
_cell_angle_gamma 90.000000
_cell_volume 7987.592731
_symmetry_space_group_name_H-M "F M M M"
_symmetry_group_IT_number 69
_symmetry_cell_setting 'orthorhombic'
loop_
_space_group_symop_operation_xyz
x,y,z
-x,-y,z
x,-y,-z
-x,y,-z
-x,-y,-z
x,y,-z
-x,y,z
x,-y,z
x,1/2+y,1/2+z
-x,1/2-y,1/2+z
x,1/2-y,1/2-z
-x,1/2+y,1/2-z
-x,1/2-y,1/2-z
x,1/2+y,1/2-z
-x,1/2+y,1/2+z
x,1/2-y,1/2+z
1/2+x,y,1/2+z
1/2-x,-y,1/2+z
1/2+x,-y,1/2-z
1/2-x,y,1/2-z
1/2-x,-y,1/2-z
1/2+x,y,1/2-z
1/2-x,y,1/2+z
1/2+x,-y,1/2+z
1/2+x,1/2+y,z
1/2-x,1/2-y,z
1/2+x,1/2-y,-z
1/2-x,1/2+y,-z
1/2-x,1/2-y,-z
1/2+x,1/2+y,-z
1/2-x,1/2+y,z
1/2+x,1/2-y,z
loop_
_atom_site_type_symbol
_atom_site_label
_atom_site_fract_x
_atom_site_fract_y
_atom_site_fract_z
Si Si1 0.680104 0.840464 0.405901
Si Si2 0.819739 0.708154 0.304772
Si Si3 0.825871 0.000000 0.062568
Si Si4 0.180648 0.207361 0.500000
Si Si5 0.820793 0.919261 0.438265
O O1 0.500000 0.839221 0.414427
O O2 0.712841 0.821331 0.350736
O O3 0.761262 0.815605 0.450077
O O4 0.738844 0.883928 0.410759
O O5 0.750000 0.696229 0.250000
O O6 0.750000 0.750000 0.317413
O O7 0.000000 0.712072 0.299744
O O8 0.742954 0.039243 0.078304
O O9 0.000000 0.000000 0.078949
O O10 0.823545 0.000000 0.000000
O O11 0.250000 0.250000 0.500000
O O12 0.000000 0.209140 0.500000
O O13 0.793442 0.915206 0.500000
O O14 0.000000 0.917451 0.430320
#
# Coordination Sequence:
#
# PCOD9511565 Si02
#       5
#    32  32  16  16  32
#     4  11  22  35  52  75 103 135 171 210 254 304
#     4  10  21  36  55  76  98 130 170 216 261 302
#     4   9  17  29  47  69  98 137 172 207 250 295
#     4  12  24  36  50  71 100 137 172 206 252 304
#     4  10  19  31  48  73 103 136 172 209 250 299
#
# _framework density 16.024853
#
# number of rings (size 3 to 8) (size 9 to 14) (size 15 to 20)
#    0.000    1.625    1.250    5.250    0.000    8.500 
#    0.000    0.000    0.000    0.000    0.000    0.875 
#    0.000    0.000    0.000    0.000    0.000    0.000 
#
# Total GULP energy -178719.936113 kJ/mol
# GULP energy per Si atom -5584.998004 kJ/mol
# Density = 1.598838 g / cm^3
# Si number density = 16.024853 Si / 1000 Ang^3
#
#
#
# Elastic Constant Matrix: (Units=GPa)
#
#
# Indices 1 2 3 4 5 6 
#
# 1 112.1399 79.1574 67.2624 0.0000 0.0000 0.0000
# 2 79.1574 158.7610 76.8453 0.0000 0.0000 0.0000
# 3 67.2624 76.8453 86.3406 0.0000 0.0000 0.0000
# 4 0.0000 0.0000 0.0000 9.3333 0.0000 0.0000
# 5 0.0000 0.0000 0.0000 0.0000 21.3187 0.0000
# 6 0.0000 0.0000 0.0000 0.0000 0.0000 32.3300
#
#
#
# Elastic Compliance Matrix: (Units=1/GPa)
#
#
# Indices 1 2 3 4 5 6 
#
# 1 0.017979 -0.003838 -0.010590 0.000000 0.000000 0.000000
# 2 -0.003838 0.011885 -0.007588 0.000000 0.000000 0.000000
# 3 -0.010590 -0.007588 0.026586 0.000000 0.000000 0.000000
# 4 0.000000 0.000000 0.000000 0.107144 0.000000 0.000000
# 5 0.000000 0.000000 0.000000 0.000000 0.046907 0.000000
# 6 0.000000 0.000000 0.000000 0.000000 0.000000 0.030931
#
#
# Mechanical properties :
#
#
# Convention : Reuss Voigt Hill
#
# Bulk Modulus (GPa) = 80.53438 89.30797 84.92118
# Shear Modulus (GPa) = 17.26499 21.52815 19.39657
#
# Velocity S-wave (km/s) = 3.28592 3.66925 3.48286
# Velocity P-wave (km/s) = 8.04745 8.59087 8.32360
#
# Compressibility (1/GPa) = 0.01241706
#
# Stress axis : x y z
#
# Youngs Moduli (GPa) = 55.62150 84.13662 37.61428
#
# Poissons Ratio (x) = 0.32294 0.39833
# Poissons Ratio (y) = 0.21349 0.28543
# Poissons Ratio (z) = 0.58903 0.63845
#
# Static dielectric constant tensor:
#      x y z
#    x 1.534870 0.000000 0.000000 
#    y 0.000000 1.523280 0.000000 
#    z 0.000000 0.000000 1.513760 
# 
# From -- ./inp_files/4771.got.cif
#   From: 2010.05.17/outbox.cif.g08.bks.cpg/sg69_3_cif.got.tgz:4771.got - 2010.06.03 19:29:58.
