data_PCOD9511300
_publ_section_title
;
Structure prediction by ZEFSAII (Michael W. Deem and Ramdas Pophale) SiO2 
 PCOD9511300
Probable space group: F M M M
;
_chemical_formula_sum "Si O2"
_cell_formula_units_Z 144
_cell_length_a 19.595019
_cell_length_b 19.493092
_cell_length_c 19.861893
_cell_angle_alpha 90.000000
_cell_angle_beta 90.000000
_cell_angle_gamma 90.000000
_cell_volume 7586.597776
_symmetry_space_group_name_H-M "F M M M"
_symmetry_group_IT_number 69
_symmetry_cell_setting 'orthorhombic'
loop_
_space_group_symop_operation_xyz
x,y,z
-x,-y,z
x,-y,-z
-x,y,-z
-x,-y,-z
x,y,-z
-x,y,z
x,-y,z
x,1/2+y,1/2+z
-x,1/2-y,1/2+z
x,1/2-y,1/2-z
-x,1/2+y,1/2-z
-x,1/2-y,1/2-z
x,1/2+y,1/2-z
-x,1/2+y,1/2+z
x,1/2-y,1/2+z
1/2+x,y,1/2+z
1/2-x,-y,1/2+z
1/2+x,-y,1/2-z
1/2-x,y,1/2-z
1/2-x,-y,1/2-z
1/2+x,y,1/2-z
1/2-x,y,1/2+z
1/2+x,-y,1/2+z
1/2+x,1/2+y,z
1/2-x,1/2-y,z
1/2+x,1/2-y,-z
1/2-x,1/2+y,-z
1/2-x,1/2-y,-z
1/2+x,1/2+y,-z
1/2-x,1/2+y,z
1/2+x,1/2-y,z
loop_
_atom_site_type_symbol
_atom_site_label
_atom_site_fract_x
_atom_site_fract_y
_atom_site_fract_z
Si Si1 0.423153 0.917893 0.500000
Si Si2 0.276862 0.327574 0.579874
Si Si3 0.421776 0.811559 0.297191
Si Si4 0.837362 0.081515 0.136128
Si Si5 0.924852 0.785527 0.577434
O O1 0.500000 0.887907 0.500000
O O2 0.381016 0.904244 0.432230
O O3 0.430802 0.000000 0.500000
O O4 0.265051 0.339428 0.500000
O O5 0.250000 0.250000 0.594216
O O6 0.234510 0.381812 0.622584
O O7 0.357948 0.330028 0.591937
O O8 0.500000 0.827172 0.276693
O O9 0.395584 0.750000 0.250000
O O10 0.376191 0.878692 0.304129
O O11 0.423677 0.776527 0.370579
O O12 0.832749 0.000000 0.145627
O O13 0.917261 0.761738 0.500000
O O14 0.000000 0.818639 0.583645
#
# Coordination Sequence:
#
# PCOD9511300 Si02
#       5
#    16  32  32  32  32
#     4   9  18  30  47  80 125 157 175 208 273 361
#     4  10  18  31  52  83 119 157 196 240 289 346
#     4  10  21  36  55  83 119 159 200 239 286 351
#     4  11  21  34  54  86 121 154 187 232 303 368
#     4   9  18  33  56  82 108 146 202 254 291 336
#
# _framework density 18.980841000000002
#
# number of rings (size 3 to 8) (size 9 to 14) (size 15 to 20)
#    0.000    2.111    3.333    0.667    1.556    1.333 
#    0.000    2.222    0.000    3.333    0.000    6.222 
#    0.000    0.000    0.000    0.000    0.000    0.000 
#
# Total GULP energy -200763.783899 kJ/mol
# GULP energy per Si atom -5576.771775 kJ/mol
# Density = 1.893764 g / cm^3
# Si number density = 18.980841 Si / 1000 Ang^3
#
#
#
# Elastic Constant Matrix: (Units=GPa)
#
#
# Indices 1 2 3 4 5 6 
#
# 1 129.6540 66.0675 19.8837 0.0000 0.0000 0.0000
# 2 66.0675 128.1434 41.0376 0.0000 0.0000 0.0000
# 3 19.8837 41.0376 35.5948 0.0000 0.0000 0.0000
# 4 0.0000 0.0000 0.0000 25.0760 0.0000 0.0000
# 5 0.0000 0.0000 0.0000 0.0000 8.1192 0.0000
# 6 0.0000 0.0000 0.0000 0.0000 0.0000 22.9072
#
#
#
# Elastic Compliance Matrix: (Units=1/GPa)
#
#
# Indices 1 2 3 4 5 6 
#
# 1 0.010469 -0.005588 0.000594 0.000000 0.000000 0.000000
# 2 -0.005588 0.015354 -0.014580 0.000000 0.000000 0.000000
# 3 0.000594 -0.014580 0.044572 0.000000 0.000000 0.000000
# 4 0.000000 0.000000 0.000000 0.039879 0.000000 0.000000
# 5 0.000000 0.000000 0.000000 0.000000 0.123164 0.000000
# 6 0.000000 0.000000 0.000000 0.000000 0.000000 0.043654
#
#
# Mechanical properties :
#
#
# Convention : Reuss Voigt Hill
#
# Bulk Modulus (GPa) = 32.00318 60.81889 46.41103
# Shear Modulus (GPa) = 15.30659 22.31404 18.81031
#
# Velocity S-wave (km/s) = 2.84284 3.43243 3.15146
# Velocity P-wave (km/s) = 5.26052 6.91525 6.14384
#
# Compressibility (1/GPa) = 0.03124690
#
# Stress axis : x y z
#
# Youngs Moduli (GPa) = 95.51889 65.12931 22.43562
#
# Poissons Ratio (x) = 0.36394 -0.01333
# Poissons Ratio (y) = 0.53375 0.32712
# Poissons Ratio (z) = -0.05675 0.94961
#
# Static dielectric constant tensor:
#      x y z
#    x 1.717210 0.000000 0.000000 
#    y 0.000000 1.632930 0.000000 
#    z 0.000000 0.000000 1.709550 
# 
# From -- ./inp_files/30730.got.cif
#   From: 2010.05.17/outbox.cif.g08.bks.cpg/sg69_16_cif.got.tgz:30730.got - 2010.06.03 19:29:58.
