data_PCOD9511622
_publ_section_title
;
Structure prediction by ZEFSAII (Michael W. Deem and Ramdas Pophale) SiO2 
 PCOD9511622
Probable space group: F M M M
;
_chemical_formula_sum "Si O2"
_cell_formula_units_Z 176
_cell_length_a 10.873256
_cell_length_b 33.223470
_cell_length_c 27.381173
_cell_angle_alpha 90.000000
_cell_angle_beta 90.000000
_cell_angle_gamma 90.000000
_cell_volume 9891.374667
_symmetry_space_group_name_H-M "F M M M"
_symmetry_group_IT_number 69
_symmetry_cell_setting 'orthorhombic'
loop_
_space_group_symop_operation_xyz
x,y,z
-x,-y,z
x,-y,-z
-x,y,-z
-x,-y,-z
x,y,-z
-x,y,z
x,-y,z
x,1/2+y,1/2+z
-x,1/2-y,1/2+z
x,1/2-y,1/2-z
-x,1/2+y,1/2-z
-x,1/2-y,1/2-z
x,1/2+y,1/2-z
-x,1/2+y,1/2+z
x,1/2-y,1/2+z
1/2+x,y,1/2+z
1/2-x,-y,1/2+z
1/2+x,-y,1/2-z
1/2-x,y,1/2-z
1/2-x,-y,1/2-z
1/2+x,y,1/2-z
1/2-x,y,1/2+z
1/2+x,-y,1/2+z
1/2+x,1/2+y,z
1/2-x,1/2-y,z
1/2+x,1/2-y,-z
1/2-x,1/2+y,-z
1/2-x,1/2-y,-z
1/2+x,1/2+y,-z
1/2-x,1/2+y,z
1/2+x,1/2-y,z
loop_
_atom_site_type_symbol
_atom_site_label
_atom_site_fract_x
_atom_site_fract_y
_atom_site_fract_z
Si Si1 0.863495 0.413161 0.344914
Si Si2 0.258050 0.332691 0.192881
Si Si3 0.141825 0.500000 0.908597
Si Si4 0.757164 0.915775 0.443927
Si Si5 0.000000 0.139056 0.443121
Si Si6 0.500000 0.696222 0.353487
Si Si7 0.000000 0.776155 0.196633
Si Si8 0.229058 0.500000 0.691087
O O1 0.776895 0.377797 0.326426
O O2 0.847129 0.410542 0.403303
O O3 0.836475 0.457870 0.324002
O O4 0.000000 0.402289 0.329541
O O5 0.250000 0.336476 0.250000
O O6 0.128193 0.317202 0.171935
O O7 0.377192 0.303152 0.188255
O O8 0.199377 0.539050 0.933065
O O9 0.161303 0.500000 0.849536
O O10 0.000000 0.500000 0.919383
O O11 0.719429 0.910377 0.500000
O O12 0.876890 0.887598 0.434706
O O13 0.000000 0.150707 0.500000
O O14 0.000000 0.176501 0.406745
O O15 0.500000 0.743683 0.346462
O O16 0.000000 0.750000 0.250000
O O17 0.250000 0.500000 0.750000
#
# Coordination Sequence:
#
# PCOD9511622 Si02
#       8
#    32  32  16  32  16  16  16  16
#     4  11  23  40  60  85 122 164 208 247 302 363
#     4  12  23  40  62  95 127 161 200 254 310 376
#     4  10  19  31  55  87 114 145 195 257 313 360
#     4  10  20  35  57  85 117 152 198 255 311 359
#     4  10  20  37  60  86 120 161 199 251 310 365
#     4  12  24  38  65  92 128 160 204 252 312 377
#     4  12  24  42  64  92 129 161 199 252 325 375
#     4  10  23  42  56  80 120 169 210 243 286 355
#
# _framework density 17.793278999999998
#
# number of rings (size 3 to 8) (size 9 to 14) (size 15 to 20)
#    0.000    1.091    5.455    1.636    0.000    1.455 
#    0.000    0.000    0.000    6.545    0.000    0.000 
#    0.000    0.000    0.000    0.000    0.000    0.000 
#
# Total GULP energy -244994.369089 kJ/mol
# GULP energy per Si atom -5568.053843 kJ/mol
# Density = 1.775278 g / cm^3
# Si number density = 17.793279 Si / 1000 Ang^3
#
#
#
# Elastic Constant Matrix: (Units=GPa)
#
#
# Indices 1 2 3 4 5 6 
#
# 1 71.8982 20.0565 17.6042 0.0000 0.0000 0.0000
# 2 20.0565 98.7176 47.1802 0.0000 0.0000 0.0000
# 3 17.6042 47.1802 110.6563 0.0000 0.0000 0.0000
# 4 0.0000 0.0000 0.0000 -13.1689 0.0000 0.0000
# 5 0.0000 0.0000 0.0000 0.0000 17.6225 0.0000
# 6 0.0000 0.0000 0.0000 0.0000 0.0000 64.8871
#
#
#
# Elastic Compliance Matrix: (Units=1/GPa)
#
#
# Indices 1 2 3 4 5 6 
#
# 1 0.014905 -0.002380 -0.001356 0.000000 0.000000 0.000000
# 2 -0.002380 0.013102 -0.005208 0.000000 0.000000 0.000000
# 3 -0.001356 -0.005208 0.011473 0.000000 0.000000 0.000000
# 4 0.000000 0.000000 0.000000 -0.075936 0.000000 0.000000
# 5 0.000000 0.000000 0.000000 0.000000 0.056746 0.000000
# 6 0.000000 0.000000 0.000000 0.000000 0.000000 0.015411
#
#
# Mechanical properties :
#
#
# Convention : Reuss Voigt Hill
#
# Bulk Modulus (GPa) = 46.31368 50.10600 48.20984
# Shear Modulus (GPa) = 82.25528 26.96355 54.60941
#
# Velocity S-wave (km/s) = 6.80651 3.89701 5.54596
# Velocity P-wave (km/s) = 9.37319 6.96205 8.25612
#
# Compressibility (1/GPa) = 0.02159189
#
# Stress axis : x y z
#
# Youngs Moduli (GPa) = 67.09359 76.32186 87.15946
#
# Poissons Ratio (x) = 0.18164 0.11823
# Poissons Ratio (y) = 0.15968 0.45391
# Poissons Ratio (z) = 0.09101 0.39747
#
# Static dielectric constant tensor:
#      x y z
#    x 1.943280 0.000000 0.000000 
#    y 0.000000 1.560260 0.000000 
#    z 0.000000 0.000000 1.612190 
# 
# From -- ./inp_files/40528.got.cif
#   From: 2010.05.17/outbox.cif.g08.bks.cpg/sg69_21_cif.got.tgz:40528.got - 2010.06.03 19:29:58.
