data_PCOD9511150
_publ_section_title
;
Structure prediction by ZEFSAII (Michael W. Deem and Ramdas Pophale) SiO2 
 PCOD9511150
Probable space group: F M M M
;
_chemical_formula_sum "Si O2"
_cell_formula_units_Z 240
_cell_length_a 23.035266
_cell_length_b 27.389059
_cell_length_c 20.379881
_cell_angle_alpha 90.000000
_cell_angle_beta 90.000000
_cell_angle_gamma 90.000000
_cell_volume 12857.957531
_symmetry_space_group_name_H-M "F M M M"
_symmetry_group_IT_number 69
_symmetry_cell_setting 'orthorhombic'
loop_
_space_group_symop_operation_xyz
x,y,z
-x,-y,z
x,-y,-z
-x,y,-z
-x,-y,-z
x,y,-z
-x,y,z
x,-y,z
x,1/2+y,1/2+z
-x,1/2-y,1/2+z
x,1/2-y,1/2-z
-x,1/2+y,1/2-z
-x,1/2-y,1/2-z
x,1/2+y,1/2-z
-x,1/2+y,1/2+z
x,1/2-y,1/2+z
1/2+x,y,1/2+z
1/2-x,-y,1/2+z
1/2+x,-y,1/2-z
1/2-x,y,1/2-z
1/2-x,-y,1/2-z
1/2+x,y,1/2-z
1/2-x,y,1/2+z
1/2+x,-y,1/2+z
1/2+x,1/2+y,z
1/2-x,1/2-y,z
1/2+x,1/2-y,-z
1/2-x,1/2+y,-z
1/2-x,1/2-y,-z
1/2+x,1/2+y,-z
1/2-x,1/2+y,z
1/2+x,1/2-y,z
loop_
_atom_site_type_symbol
_atom_site_label
_atom_site_fract_x
_atom_site_fract_y
_atom_site_fract_z
Si Si1 0.366390 0.094637 0.370761
Si Si2 0.566880 0.443323 0.757027
Si Si3 0.380310 0.055277 0.884212
Si Si4 0.751019 0.942470 0.326951
Si Si5 0.070211 0.153980 0.427553
Si Si6 0.933424 0.500000 0.422304
Si Si7 0.934649 0.317347 0.575150
Si Si8 0.567724 0.769639 0.819912
O O1 0.391991 0.092826 0.296788
O O2 0.298048 0.086592 0.365985
O O3 0.398564 0.048195 0.402262
O O4 0.387544 0.142146 0.407968
O O5 0.500000 0.432139 0.770374
O O6 0.579363 0.500000 0.776192
O O7 0.579583 0.441855 0.680428
O O8 0.314493 0.061816 0.858282
O O9 0.401046 0.100706 0.926344
O O10 0.385243 0.000000 0.911603
O O11 0.750000 0.928569 0.250000
O O12 0.734622 0.000000 0.328804
O O13 0.082216 0.176419 0.500000
O O14 0.090841 0.184849 0.363585
O O15 0.000000 0.150182 0.422732
O O16 0.937215 0.500000 0.500000
O O17 0.000000 0.500000 0.397019
O O18 0.928954 0.300380 0.500000
O O19 0.930854 0.274376 0.627819
O O20 0.000000 0.339099 0.581284
O O21 0.500000 0.782014 0.805823
O O22 0.592390 0.750000 0.750000
#
# Coordination Sequence:
#
# PCOD9511150 Si02
#       8
#    32  32  32  32  32  16  32  32
#     4  12  20  32  52  77 107 152 195 232 279 338
#     4  10  18  28  46  77 111 140 177 229 283 331
#     4  10  21  35  55  82 113 151 192 239 290 342
#     4  10  19  35  53  75 109 153 197 244 290 339
#     4  10  21  38  60  85 117 154 187 231 297 358
#     4  11  22  34  47  72 112 150 187 232 286 347
#     4  10  21  36  54  81 119 155 185 227 288 351
#     4   9  19  35  58  88 116 146 187 234 283 344
#
# _framework density 18.665483999999999
#
# number of rings (size 3 to 8) (size 9 to 14) (size 15 to 20)
#    0.000    1.800    2.667    2.400    1.867    3.733 
#    0.000    2.000    0.000    0.800    0.000    3.733 
#    0.000    0.000    0.000    0.000    0.000    0.000 
#
# Total GULP energy -334612.073899 kJ/mol
# GULP energy per Si atom -5576.867898 kJ/mol
# Density = 1.862300 g / cm^3
# Si number density = 18.665484 Si / 1000 Ang^3
#
#
#
# Elastic Constant Matrix: (Units=GPa)
#
#
# Indices 1 2 3 4 5 6 
#
# 1 40.7697 15.8532 15.7088 0.0000 0.0000 0.0000
# 2 15.8532 65.4078 35.7537 0.0000 0.0000 0.0000
# 3 15.7088 35.7537 106.3237 0.0000 0.0000 0.0000
# 4 0.0000 0.0000 0.0000 22.4734 0.0000 0.0000
# 5 0.0000 0.0000 0.0000 0.0000 14.7334 0.0000
# 6 0.0000 0.0000 0.0000 0.0000 0.0000 3.6087
#
#
#
# Elastic Compliance Matrix: (Units=1/GPa)
#
#
# Indices 1 2 3 4 5 6 
#
# 1 0.027506 -0.005446 -0.002232 0.000000 0.000000 0.000000
# 2 -0.005446 0.019810 -0.005857 0.000000 0.000000 0.000000
# 3 -0.002232 -0.005857 0.011705 0.000000 0.000000 0.000000
# 4 0.000000 0.000000 0.000000 0.044497 0.000000 0.000000
# 5 0.000000 0.000000 0.000000 0.000000 0.067873 0.000000
# 6 0.000000 0.000000 0.000000 0.000000 0.000000 0.277107
#
#
# Mechanical properties :
#
#
# Convention : Reuss Voigt Hill
#
# Bulk Modulus (GPa) = 31.29961 38.57029 34.93495
# Shear Modulus (GPa) = 10.28343 17.84215 14.06279
#
# Velocity S-wave (km/s) = 2.34974 3.09510 2.74781
# Velocity P-wave (km/s) = 4.91598 5.78634 5.36882
#
# Compressibility (1/GPa) = 0.03194928
#
# Stress axis : x y z
#
# Youngs Moduli (GPa) = 36.35571 50.47861 85.43642
#
# Poissons Ratio (x) = 0.27493 0.19073
# Poissons Ratio (y) = 0.19801 0.50040
# Poissons Ratio (z) = 0.08116 0.29565
#
# Static dielectric constant tensor:
#      x y z
#    x 1.617180 0.000000 0.000000 
#    y 0.000000 1.661420 0.000000 
#    z 0.000000 0.000000 1.713290 
# 
# From -- ./inp_files/33032.got.cif
#   From: 2010.05.17/outbox.cif.g08.bks.cpg/sg69_17_cif.got.tgz:33032.got - 2010.06.03 19:29:58.
