data_PCOD9511633
_publ_section_title
;
Structure prediction by ZEFSAII (Michael W. Deem and Ramdas Pophale) SiO2 
 PCOD9511633
Probable space group: F M M M
;
_chemical_formula_sum "Si O2"
_cell_formula_units_Z 128
_cell_length_a 20.327525
_cell_length_b 14.615985
_cell_length_c 24.752620
_cell_angle_alpha 90.000000
_cell_angle_beta 90.000000
_cell_angle_gamma 90.000000
_cell_volume 7354.171732
_symmetry_space_group_name_H-M "F M M M"
_symmetry_group_IT_number 69
_symmetry_cell_setting 'orthorhombic'
loop_
_space_group_symop_operation_xyz
x,y,z
-x,-y,z
x,-y,-z
-x,y,-z
-x,-y,-z
x,y,-z
-x,y,z
x,-y,z
x,1/2+y,1/2+z
-x,1/2-y,1/2+z
x,1/2-y,1/2-z
-x,1/2+y,1/2-z
-x,1/2-y,1/2-z
x,1/2+y,1/2-z
-x,1/2+y,1/2+z
x,1/2-y,1/2+z
1/2+x,y,1/2+z
1/2-x,-y,1/2+z
1/2+x,-y,1/2-z
1/2-x,y,1/2-z
1/2-x,-y,1/2-z
1/2+x,y,1/2-z
1/2-x,y,1/2+z
1/2+x,-y,1/2+z
1/2+x,1/2+y,z
1/2-x,1/2-y,z
1/2+x,1/2-y,-z
1/2-x,1/2+y,-z
1/2-x,1/2-y,-z
1/2+x,1/2+y,-z
1/2-x,1/2+y,z
1/2+x,1/2-y,z
loop_
_atom_site_type_symbol
_atom_site_label
_atom_site_fract_x
_atom_site_fract_y
_atom_site_fract_z
Si Si1 0.572750 0.108686 0.342485
Si Si2 0.500000 0.103402 0.065244
Si Si3 0.750000 0.250000 0.895206
Si Si4 0.286851 0.890850 0.304687
Si Si5 0.605506 0.253679 0.062810
O O1 0.500000 0.129911 0.320549
O O2 0.634963 0.129959 0.304381
O O3 0.583425 0.165220 0.397443
O O4 0.575338 0.000000 0.353493
O O5 0.563970 0.163737 0.079371
O O6 0.500000 0.000000 0.086939
O O7 0.500000 0.096934 0.000000
O O8 0.742013 0.336724 0.855522
O O9 0.683354 0.240768 0.929093
O O10 0.250000 0.863805 0.250000
O O11 0.278952 0.000000 0.311417
O O12 0.590945 0.273073 0.000000
#
# Coordination Sequence:
#
# PCOD9511633 Si02
#       5
#    32  16  16  32  32
#     4   9  17  30  51  78 103 128 162 206 254 305
#     4   9  18  32  49  67  94 139 182 210 243 291
#     4  10  20  32  52  74 102 132 174 214 252 298
#     4   9  18  33  53  74  99 132 166 205 258 310
#     4  10  19  32  49  73 104 138 172 208 251 299
#
# _framework density 17.405087000000002
#
# number of rings (size 3 to 8) (size 9 to 14) (size 15 to 20)
#    0.000    2.625    1.250    0.750    0.000    1.500 
#    0.000    1.250    2.750    7.500    0.000    0.000 
#    0.000    0.000    0.000    0.000    0.000    0.000 
#
# Total GULP energy -178266.282141 kJ/mol
# GULP energy per Si atom -5570.821317 kJ/mol
# Density = 1.736547 g / cm^3
# Si number density = 17.405087 Si / 1000 Ang^3
#
#
#
# Elastic Constant Matrix: (Units=GPa)
#
#
# Indices 1 2 3 4 5 6 
#
# 1 140.3562 41.7178 41.3508 0.0000 0.0000 0.0000
# 2 41.7178 51.1125 26.2732 0.0000 0.0000 0.0000
# 3 41.3508 26.2732 59.6760 0.0000 0.0000 0.0000
# 4 0.0000 0.0000 0.0000 17.6874 0.0000 0.0000
# 5 0.0000 0.0000 0.0000 0.0000 21.9374 0.0000
# 6 0.0000 0.0000 0.0000 0.0000 0.0000 20.8959
#
#
#
# Elastic Compliance Matrix: (Units=1/GPa)
#
#
# Indices 1 2 3 4 5 6 
#
# 1 0.010233 -0.006084 -0.004412 0.000000 0.000000 0.000000
# 2 -0.006084 0.028905 -0.008510 0.000000 0.000000 0.000000
# 3 -0.004412 -0.008510 0.023561 0.000000 0.000000 0.000000
# 4 0.000000 0.000000 0.000000 0.056537 0.000000 0.000000
# 5 0.000000 0.000000 0.000000 0.000000 0.045584 0.000000
# 6 0.000000 0.000000 0.000000 0.000000 0.000000 0.047856
#
#
# Mechanical properties :
#
#
# Convention : Reuss Voigt Hill
#
# Bulk Modulus (GPa) = 40.50783 52.20316 46.35550
# Shear Modulus (GPa) = 19.31115 21.55766 20.43440
#
# Velocity S-wave (km/s) = 3.33455 3.52317 3.43016
# Velocity P-wave (km/s) = 6.17654 6.82704 6.50992
#
# Compressibility (1/GPa) = 0.02468658
#
# Stress axis : x y z
#
# Youngs Moduli (GPa) = 97.72339 34.59618 42.44313
#
# Poissons Ratio (x) = 0.21049 0.18726
# Poissons Ratio (y) = 0.59457 0.36119
# Poissons Ratio (z) = 0.43115 0.29441
#
# Static dielectric constant tensor:
#      x y z
#    x 1.623540 0.000000 0.000000 
#    y 0.000000 1.585890 0.000000 
#    z 0.000000 0.000000 1.561240 
# 
# From -- ./inp_files/36445.got.cif
#   From: 2010.05.17/outbox.cif.g08.bks.cpg/sg69_19_cif.got.tgz:36445.got - 2010.06.03 19:29:58.
