data_PCOD9511455
_publ_section_title
;
Structure prediction by ZEFSAII (Michael W. Deem and Ramdas Pophale) SiO2 
 PCOD9511455
Probable space group: F M M M
;
_chemical_formula_sum "Si O2"
_cell_formula_units_Z 192
_cell_length_a 25.254658
_cell_length_b 16.405151
_cell_length_c 23.764980
_cell_angle_alpha 90.000000
_cell_angle_beta 90.000000
_cell_angle_gamma 90.000000
_cell_volume 9845.985162
_symmetry_space_group_name_H-M "F M M M"
_symmetry_group_IT_number 69
_symmetry_cell_setting 'orthorhombic'
loop_
_space_group_symop_operation_xyz
x,y,z
-x,-y,z
x,-y,-z
-x,y,-z
-x,-y,-z
x,y,-z
-x,y,z
x,-y,z
x,1/2+y,1/2+z
-x,1/2-y,1/2+z
x,1/2-y,1/2-z
-x,1/2+y,1/2-z
-x,1/2-y,1/2-z
x,1/2+y,1/2-z
-x,1/2+y,1/2+z
x,1/2-y,1/2+z
1/2+x,y,1/2+z
1/2-x,-y,1/2+z
1/2+x,-y,1/2-z
1/2-x,y,1/2-z
1/2-x,-y,1/2-z
1/2+x,y,1/2-z
1/2-x,y,1/2+z
1/2+x,-y,1/2+z
1/2+x,1/2+y,z
1/2-x,1/2-y,z
1/2+x,1/2-y,-z
1/2-x,1/2+y,-z
1/2-x,1/2-y,-z
1/2+x,1/2+y,-z
1/2-x,1/2+y,z
1/2+x,1/2-y,z
loop_
_atom_site_type_symbol
_atom_site_label
_atom_site_fract_x
_atom_site_fract_y
_atom_site_fract_z
Si Si1 0.055679 0.000000 0.094489
Si Si2 0.438687 0.852300 0.682645
Si Si3 0.284404 0.634271 0.864194
Si Si4 0.838079 0.406820 0.751206
Si Si5 0.822048 0.096506 0.433813
Si Si6 0.143095 0.785704 0.647774
Si Si7 0.166213 0.500000 0.439806
O O1 0.058665 0.080436 0.133482
O O2 0.104443 0.000000 0.054567
O O3 0.000000 0.000000 0.065107
O O4 0.500000 0.838237 0.700960
O O5 0.397314 0.893206 0.726210
O O6 0.407646 0.769760 0.664162
O O7 0.295793 0.608073 0.799401
O O8 0.228689 0.616572 0.894252
O O9 0.309671 0.723334 0.867540
O O10 0.320569 0.577129 0.902518
O O11 0.832015 0.500000 0.771262
O O12 0.836478 0.338933 0.799391
O O13 0.813629 0.115780 0.500000
O O14 0.865956 0.153373 0.404377
O O15 0.832635 0.000000 0.429656
O O16 0.194628 0.500000 0.500000
#
# Coordination Sequence:
#
# PCOD9511455 Si02
#       7
#    16  32  32  32  32  32  16
#     4  10  18  35  60  85 121 162 194 239 300 364
#     4  10  19  37  62  89 122 157 195 245 303 361
#     4  11  20  39  59  88 119 156 203 249 301 353
#     4  11  20  37  60  88 127 163 196 241 302 365
#     4  11  24  43  63  84 115 157 208 259 306 362
#     4  11  24  36  58  91 122 158 199 250 306 364
#     4  12  20  33  60  88 122 161 200 252 308 366
#
# _framework density 19.500333000000001
#
# number of rings (size 3 to 8) (size 9 to 14) (size 15 to 20)
#    0.000    1.167    5.833    3.500    0.000    4.167 
#    0.000    5.000    0.000    2.000    0.000    1.167 
#    0.000    0.000    0.000    0.000    0.000    0.000 
#
# Total GULP energy -267622.643597 kJ/mol
# GULP energy per Si atom -5575.471742 kJ/mol
# Density = 1.945595 g / cm^3
# Si number density = 19.500333 Si / 1000 Ang^3
#
#
#
# Elastic Constant Matrix: (Units=GPa)
#
#
# Indices 1 2 3 4 5 6 
#
# 1 39.3020 12.8720 13.1913 0.0000 0.0000 0.0000
# 2 12.8720 152.7700 60.8700 0.0000 0.0000 0.0000
# 3 13.1913 60.8700 121.9406 0.0000 0.0000 0.0000
# 4 0.0000 0.0000 0.0000 54.9288 0.0000 0.0000
# 5 0.0000 0.0000 0.0000 0.0000 5.9971 0.0000
# 6 0.0000 0.0000 0.0000 0.0000 0.0000 15.8413
#
#
#
# Elastic Compliance Matrix: (Units=1/GPa)
#
#
# Indices 1 2 3 4 5 6 
#
# 1 0.026630 -0.001368 -0.002198 0.000000 0.000000 0.000000
# 2 -0.001368 0.008241 -0.003966 0.000000 0.000000 0.000000
# 3 -0.002198 -0.003966 0.010418 0.000000 0.000000 0.000000
# 4 0.000000 0.000000 0.000000 0.018205 0.000000 0.000000
# 5 0.000000 0.000000 0.000000 0.000000 0.166746 0.000000
# 6 0.000000 0.000000 0.000000 0.000000 0.000000 0.063126
#
#
# Mechanical properties :
#
#
# Convention : Reuss Voigt Hill
#
# Bulk Modulus (GPa) = 33.08454 54.20880 43.64667
# Shear Modulus (GPa) = 15.69833 30.49208 23.09521
#
# Velocity S-wave (km/s) = 2.84038 3.95862 3.44517
# Velocity P-wave (km/s) = 5.26877 6.98237 6.18520
#
# Compressibility (1/GPa) = 0.03022560
#
# Stress axis : x y z
#
# Youngs Moduli (GPa) = 37.55205 121.34144 95.98658
#
# Poissons Ratio (x) = 0.16600 0.21096
# Poissons Ratio (y) = 0.05137 0.38067
# Poissons Ratio (z) = 0.08253 0.48122
#
# Static dielectric constant tensor:
#      x y z
#    x 1.760910 0.000000 0.000000 
#    y 0.000000 1.625210 0.000000 
#    z 0.000000 0.000000 1.691530 
# 
# From -- ./inp_files/38412.got.cif
#   From: 2010.05.17/outbox.cif.g08.bks.cpg/sg69_20_cif.got.tgz:38412.got - 2010.06.03 19:29:58.
