data_PCOD9511397
_publ_section_title
;
Structure prediction by ZEFSAII (Michael W. Deem and Ramdas Pophale) SiO2 
 PCOD9511397
Probable space group: F M M M
;
_chemical_formula_sum "Si O2"
_cell_formula_units_Z 192
_cell_length_a 27.281309
_cell_length_b 15.349907
_cell_length_c 23.259973
_cell_angle_alpha 90.000000
_cell_angle_beta 90.000000
_cell_angle_gamma 90.000000
_cell_volume 9740.475526
_symmetry_space_group_name_H-M "F M M M"
_symmetry_group_IT_number 69
_symmetry_cell_setting 'orthorhombic'
loop_
_space_group_symop_operation_xyz
x,y,z
-x,-y,z
x,-y,-z
-x,y,-z
-x,-y,-z
x,y,-z
-x,y,z
x,-y,z
x,1/2+y,1/2+z
-x,1/2-y,1/2+z
x,1/2-y,1/2-z
-x,1/2+y,1/2-z
-x,1/2-y,1/2-z
x,1/2+y,1/2-z
-x,1/2+y,1/2+z
x,1/2-y,1/2+z
1/2+x,y,1/2+z
1/2-x,-y,1/2+z
1/2+x,-y,1/2-z
1/2-x,y,1/2-z
1/2-x,-y,1/2-z
1/2+x,y,1/2-z
1/2-x,y,1/2+z
1/2+x,-y,1/2+z
1/2+x,1/2+y,z
1/2-x,1/2-y,z
1/2+x,1/2-y,-z
1/2-x,1/2+y,-z
1/2-x,1/2-y,-z
1/2+x,1/2+y,-z
1/2-x,1/2+y,z
1/2+x,1/2-y,z
loop_
_atom_site_type_symbol
_atom_site_label
_atom_site_fract_x
_atom_site_fract_y
_atom_site_fract_z
Si Si1 0.500000 0.704239 0.688017
Si Si2 0.609392 0.242225 0.935337
Si Si3 0.372886 0.901300 0.648840
Si Si4 0.099024 0.350133 0.231871
Si Si5 0.666895 0.595907 0.369146
Si Si6 0.237673 0.353088 0.685163
Si Si7 0.500000 0.750387 0.935924
O O1 0.500000 0.750000 0.750000
O O2 0.449647 0.650292 0.692573
O O3 0.500000 0.770021 0.633665
O O4 0.609610 0.328813 0.896249
O O5 0.645409 0.171735 0.908429
O O6 0.553563 0.206205 0.937564
O O7 0.624226 0.264353 0.000000
O O8 0.405067 0.896826 0.707071
O O9 0.317998 0.874228 0.668797
O O10 0.373109 0.000000 0.626540
O O11 0.110312 0.250000 0.250000
O O12 0.142110 0.388270 0.193234
O O13 0.653850 0.500000 0.390297
O O14 0.724653 0.603911 0.359069
O O15 0.250000 0.382903 0.750000
O O16 0.250000 0.250000 0.683355
O O17 0.500000 0.701475 0.000000
#
# Coordination Sequence:
#
# PCOD9511397 Si02
#       7
#    16  32  32  32  32  32  16
#     4  10  18  32  61  90 124 165 215 262 319 380
#     4  11  24  45  67  89 123 169 217 262 312 370
#     4  12  24  40  63  96 130 165 208 260 318 378
#     4  11  19  36  59  89 128 163 200 253 322 375
#     4  12  23  38  62  94 126 159 205 259 314 373
#     4  11  21  37  63  93 126 165 208 253 310 382
#     4  10  20  40  68  92 120 170 220 263 312 377
#
# _framework density 19.711563000000002
#
# number of rings (size 3 to 8) (size 9 to 14) (size 15 to 20)
#    0.000    0.833    6.667    2.000    0.000    1.333 
#    0.000    5.833    0.000    5.000    0.000    0.000 
#    0.000    0.000    0.000    0.000    0.000    0.000 
#
# Total GULP energy -267503.466822 kJ/mol
# GULP energy per Si atom -5572.988892 kJ/mol
# Density = 1.966670 g / cm^3
# Si number density = 19.711563 Si / 1000 Ang^3
#
#
#
# Elastic Constant Matrix: (Units=GPa)
#
#
# Indices 1 2 3 4 5 6 
#
# 1 86.3408 16.9784 19.1628 0.0000 0.0000 0.0000
# 2 16.9784 101.1606 27.5580 0.0000 0.0000 0.0000
# 3 19.1628 27.5580 135.9063 0.0000 0.0000 0.0000
# 4 0.0000 0.0000 0.0000 -0.7251 0.0000 0.0000
# 5 0.0000 0.0000 0.0000 0.0000 24.0473 0.0000
# 6 0.0000 0.0000 0.0000 0.0000 0.0000 -1.1758
#
#
#
# Elastic Compliance Matrix: (Units=1/GPa)
#
#
# Indices 1 2 3 4 5 6 
#
# 1 0.012218 -0.001674 -0.001383 0.000000 0.000000 0.000000
# 2 -0.001674 0.010693 -0.001932 0.000000 0.000000 0.000000
# 3 -0.001383 -0.001932 0.007945 0.000000 0.000000 0.000000
# 4 0.000000 0.000000 0.000000 -1.379182 0.000000 0.000000
# 5 0.000000 0.000000 0.000000 0.000000 0.041585 0.000000
# 6 0.000000 0.000000 0.000000 0.000000 0.000000 -0.850514
#
#
# Mechanical properties :
#
#
# Convention : Reuss Voigt Hill
#
# Bulk Modulus (GPa) = 47.89968 50.08956 48.99462
# Shear Modulus (GPa) = -2.33610 21.74320 9.70355
#
# Velocity S-wave (km/s) = -1.08982 3.32485 2.22114
# Velocity P-wave (km/s) = 4.77173 6.34081 5.61139
#
# Compressibility (1/GPa) = 0.02087697
#
# Stress axis : x y z
#
# Youngs Moduli (GPa) = 81.84523 93.52310 125.86772
#
# Poissons Ratio (x) = 0.15654 0.17412
# Poissons Ratio (y) = 0.13699 0.24319
# Poissons Ratio (z) = 0.11322 0.18070
#
# Static dielectric constant tensor:
#      x y z
#    x 1.746880 0.000000 0.000000 
#    y 0.000000 1.716970 0.000000 
#    z 0.000000 0.000000 1.727430 
# 
# From -- ./inp_files/38998.got.cif
#   From: 2010.05.17/outbox.cif.g08.bks.cpg/sg69_20_cif.got.tgz:38998.got - 2010.06.03 19:29:58.
