data_PCOD9511443
_publ_section_title
;
Structure prediction by ZEFSAII (Michael W. Deem and Ramdas Pophale) SiO2 
 PCOD9511443
Probable space group: F M M M
;
_chemical_formula_sum "Si O2"
_cell_formula_units_Z 176
_cell_length_a 27.501121
_cell_length_b 25.454227
_cell_length_c 12.064010
_cell_angle_alpha 90.000000
_cell_angle_beta 90.000000
_cell_angle_gamma 90.000000
_cell_volume 8445.045586
_symmetry_space_group_name_H-M "F M M M"
_symmetry_group_IT_number 69
_symmetry_cell_setting 'orthorhombic'
loop_
_space_group_symop_operation_xyz
x,y,z
-x,-y,z
x,-y,-z
-x,y,-z
-x,-y,-z
x,y,-z
-x,y,z
x,-y,z
x,1/2+y,1/2+z
-x,1/2-y,1/2+z
x,1/2-y,1/2-z
-x,1/2+y,1/2-z
-x,1/2-y,1/2-z
x,1/2+y,1/2-z
-x,1/2+y,1/2+z
x,1/2-y,1/2+z
1/2+x,y,1/2+z
1/2-x,-y,1/2+z
1/2+x,-y,1/2-z
1/2-x,y,1/2-z
1/2-x,-y,1/2-z
1/2+x,y,1/2-z
1/2-x,y,1/2+z
1/2+x,-y,1/2+z
1/2+x,1/2+y,z
1/2-x,1/2-y,z
1/2+x,1/2-y,-z
1/2-x,1/2+y,-z
1/2-x,1/2-y,-z
1/2+x,1/2+y,-z
1/2-x,1/2+y,z
1/2+x,1/2-y,z
loop_
_atom_site_type_symbol
_atom_site_label
_atom_site_fract_x
_atom_site_fract_y
_atom_site_fract_z
Si Si1 0.443694 0.500000 0.368231
Si Si2 0.944845 0.580567 0.500000
Si Si3 0.788203 0.557456 0.625092
Si Si4 0.611716 0.917675 0.273077
Si Si5 0.369367 0.800778 0.317723
Si Si6 0.262995 0.328819 0.123664
Si Si7 0.445478 0.207262 0.500000
O O1 0.500000 0.500000 0.330356
O O2 0.443077 0.500000 0.500000
O O3 0.415716 0.449288 0.321298
O O4 0.916257 0.568012 0.387640
O O5 0.947864 0.643974 0.500000
O O6 0.000000 0.560326 0.500000
O O7 0.809276 0.559598 0.500000
O O8 0.765198 0.500000 0.636215
O O9 0.832858 0.564182 0.708714
O O10 0.754210 0.608388 0.629692
O O11 0.612814 0.854396 0.258466
O O12 0.353992 0.750000 0.250000
O O13 0.321033 0.819719 0.381241
O O14 0.413045 0.780197 0.393979
O O15 0.250000 0.309587 0.250000
O O16 0.243403 0.311197 0.000000
O O17 0.500000 0.228574 0.500000
#
# Coordination Sequence:
#
# PCOD9511443 Si02
#       7
#    16  16  32  32  32  32  16
#     4  11  24  39  51  73 120 170 208 253 308 375
#     4   9  16  27  52  87 113 134 182 253 311 356
#     4   9  16  30  56  86 115 150 191 242 308 373
#     4  10  18  34  57  81 112 152 198 251 312 370
#     4  10  21  40  63  92 125 162 208 266 322 382
#     4  10  21  40  63  91 128 167 206 259 320 378
#     4   9  18  36  61  89 124 159 197 259 326 372
#
# _framework density 20.840622
#
# number of rings (size 3 to 8) (size 9 to 14) (size 15 to 20)
#    0.000    2.273    2.727    0.545    0.000    2.182 
#    3.273    4.545    0.000    0.000    0.000    0.000 
#    0.000    0.000    0.000    0.000    0.000    0.000 
#
# Total GULP energy -245062.983204 kJ/mol
# GULP energy per Si atom -5569.613255 kJ/mol
# Density = 2.079319 g / cm^3
# Si number density = 20.840622 Si / 1000 Ang^3
#
#
#
# Elastic Constant Matrix: (Units=GPa)
#
#
# Indices 1 2 3 4 5 6 
#
# 1 55.7546 -0.3852 31.9829 0.0000 0.0000 0.0000
# 2 -0.3852 125.2867 30.9632 0.0000 0.0000 0.0000
# 3 31.9829 30.9632 111.9027 0.0001 0.0000 0.0000
# 4 0.0000 0.0000 0.0001 -8.2432 0.0000 0.0000
# 5 0.0000 0.0000 0.0000 0.0000 29.4481 0.0000
# 6 0.0000 0.0000 0.0000 0.0000 0.0000 13.3150
#
#
#
# Elastic Compliance Matrix: (Units=1/GPa)
#
#
# Indices 1 2 3 4 5 6 
#
# 1 0.021795 0.001724 -0.006706 0.000000 0.000000 0.000000
# 2 0.001724 0.008704 -0.002901 0.000000 0.000000 0.000000
# 3 -0.006706 -0.002901 0.011656 0.000000 0.000000 0.000000
# 4 0.000000 0.000000 0.000000 -0.121312 0.000000 0.000000
# 5 0.000000 0.000000 0.000000 0.000000 0.033958 0.000000
# 6 0.000000 0.000000 0.000000 0.000000 0.000000 0.075103
#
#
# Mechanical properties :
#
#
# Convention : Reuss Voigt Hill
#
# Bulk Modulus (GPa) = 37.89567 46.45176 42.17371
# Shear Modulus (GPa) = 91.79992 22.26283 57.03137
#
# Velocity S-wave (km/s) = 6.64411 3.27194 5.23688
# Velocity P-wave (km/s) = 8.77963 6.05075 7.53968
#
# Compressibility (1/GPa) = 0.02638824
#
# Stress axis : x y z
#
# Youngs Moduli (GPa) = 45.88289 114.88971 85.79412
#
# Poissons Ratio (x) = -0.19811 0.57536
# Poissons Ratio (y) = -0.07912 0.24891
# Poissons Ratio (z) = 0.30770 0.33332
#
# Static dielectric constant tensor:
#      x y z
#    x 1.744020 0.000000 0.000000 
#    y 0.000000 1.767760 0.000000 
#    z 0.000000 0.000000 1.819370 
# 
# From -- ./inp_files/11610.got.cif
#   From: 2010.05.17/outbox.cif.g08.bks.cpg/sg69_6_cif.got.tgz:11610.got - 2010.06.03 19:29:58.
