data_PCOD9511756
_publ_section_title
;
Structure prediction by ZEFSAII (Michael W. Deem and Ramdas Pophale) SiO2 
 PCOD9511756
Probable space group: F M M M
;
_chemical_formula_sum "Si O2"
_cell_formula_units_Z 240
_cell_length_a 14.918524
_cell_length_b 23.234225
_cell_length_c 31.697678
_cell_angle_alpha 90.000000
_cell_angle_beta 90.000000
_cell_angle_gamma 90.000000
_cell_volume 10987.060030
_symmetry_space_group_name_H-M "F M M M"
_symmetry_group_IT_number 69
_symmetry_cell_setting 'orthorhombic'
loop_
_space_group_symop_operation_xyz
x,y,z
-x,-y,z
x,-y,-z
-x,y,-z
-x,-y,-z
x,y,-z
-x,y,z
x,-y,z
x,1/2+y,1/2+z
-x,1/2-y,1/2+z
x,1/2-y,1/2-z
-x,1/2+y,1/2-z
-x,1/2-y,1/2-z
x,1/2+y,1/2-z
-x,1/2+y,1/2+z
x,1/2-y,1/2+z
1/2+x,y,1/2+z
1/2-x,-y,1/2+z
1/2+x,-y,1/2-z
1/2-x,y,1/2-z
1/2-x,-y,1/2-z
1/2+x,y,1/2-z
1/2-x,y,1/2+z
1/2+x,-y,1/2+z
1/2+x,1/2+y,z
1/2-x,1/2-y,z
1/2+x,1/2-y,-z
1/2-x,1/2+y,-z
1/2-x,1/2-y,-z
1/2+x,1/2+y,-z
1/2-x,1/2+y,z
1/2+x,1/2-y,z
loop_
_atom_site_type_symbol
_atom_site_label
_atom_site_fract_x
_atom_site_fract_y
_atom_site_fract_z
Si Si1 0.402271 0.339133 0.317352
Si Si2 0.391903 0.626515 0.451553
Si Si3 0.390113 0.733461 0.391450
Si Si4 0.356559 0.435211 0.750216
Si Si5 0.138093 0.565250 0.652627
Si Si6 0.844335 0.063602 0.374840
Si Si7 0.601167 0.145678 0.577272
Si Si8 0.110243 0.567040 0.500000
O O1 0.500000 0.316956 0.305620
O O2 0.356451 0.288152 0.345084
O O3 0.373414 0.378759 0.278010
O O4 0.404368 0.388313 0.353326
O O5 0.364552 0.628396 0.500000
O O6 0.500000 0.617984 0.450093
O O7 0.371558 0.685552 0.426825
O O8 0.344974 0.577042 0.424228
O O9 0.500000 0.737104 0.387523
O O10 0.354946 0.794196 0.408899
O O11 0.390584 0.500000 0.737148
O O12 0.250000 0.440949 0.750000
O O13 0.384889 0.425125 0.798579
O O14 0.112179 0.500000 0.641757
O O15 0.245698 0.569206 0.645487
O O16 0.097529 0.609143 0.619959
O O17 0.877564 0.000000 0.366497
O O18 0.500000 0.160059 0.562734
O O19 0.639000 0.104144 0.540951
O O20 0.139720 0.500000 0.500000
O O21 0.000000 0.564577 0.500000
#
# Coordination Sequence:
#
# PCOD9511756 Si02
#       8
#    32  32  32  32  32  32  32  16
#     4  10  19  33  55  83 111 141 182 228 266 324
#     4   9  18  32  52  78 108 140 181 231 271 322
#     4   8  17  33  54  80 109 142 180 223 273 324
#     4  10  19  34  56  79 108 146 183 226 280 334
#     4  10  21  36  55  78 109 145 179 227 287 338
#     4  10  19  33  51  74 108 148 180 218 277 335
#     4  10  20  36  58  81 109 146 186 230 279 332
#     4   9  18  32  54  84 111 140 186 242 285 324
#
# _framework density 21.843879000000001
#
# number of rings (size 3 to 8) (size 9 to 14) (size 15 to 20)
#    0.000    2.467    1.333    2.000    0.933    3.467 
#    1.200    5.333    0.000    4.000    0.000    0.000 
#    0.000    0.000    0.000    0.000    0.000    0.000 
#
# Total GULP energy -334315.746911 kJ/mol
# GULP energy per Si atom -5571.929115 kJ/mol
# Density = 2.179416 g / cm^3
# Si number density = 21.843879 Si / 1000 Ang^3
#
#
#
# Elastic Constant Matrix: (Units=GPa)
#
#
# Indices 1 2 3 4 5 6 
#
# 1 37.9379 0.3099 1.3396 0.0000 0.0000 0.0000
# 2 0.3099 118.2205 65.0643 0.0000 0.0000 0.0000
# 3 1.3396 65.0643 147.0814 0.0000 0.0000 0.0000
# 4 0.0000 0.0000 0.0000 34.5206 0.0000 0.0000
# 5 0.0000 0.0000 0.0000 0.0000 23.1509 0.0000
# 6 0.0000 0.0000 0.0000 0.0000 0.0000 12.6083
#
#
#
# Elastic Compliance Matrix: (Units=1/GPa)
#
#
# Indices 1 2 3 4 5 6 
#
# 1 0.026368 0.000083 -0.000277 0.000000 0.000000 0.000000
# 2 0.000083 0.011181 -0.004947 0.000000 0.000000 0.000000
# 3 -0.000277 -0.004947 0.008990 0.000000 0.000000 0.000000
# 4 0.000000 0.000000 0.000000 0.028968 0.000000 0.000000
# 5 0.000000 0.000000 0.000000 0.000000 0.043195 0.000000
# 6 0.000000 0.000000 0.000000 0.000000 0.000000 0.079313
#
#
# Mechanical properties :
#
#
# Convention : Reuss Voigt Hill
#
# Bulk Modulus (GPa) = 27.58036 48.51862 38.04949
# Shear Modulus (GPa) = 22.68785 29.82436 26.25610
#
# Velocity S-wave (km/s) = 3.22628 3.69906 3.47073
# Velocity P-wave (km/s) = 5.15093 6.36426 5.78947
#
# Compressibility (1/GPa) = 0.03625768
#
# Stress axis : x y z
#
# Youngs Moduli (GPa) = 37.92483 89.43600 111.23636
#
# Poissons Ratio (x) = -0.00745 0.03082
# Poissons Ratio (y) = -0.00316 0.55028
# Poissons Ratio (z) = 0.01051 0.44244
#
# Static dielectric constant tensor:
#      x y z
#    x 1.895750 0.000000 0.000000 
#    y 0.000000 1.806690 0.000000 
#    z 0.000000 0.000000 1.819630 
# 
# From -- ./inp_files/42837.got.cif
#   From: 2010.05.17/outbox.cif.g08.bks.cpg/sg69_22_cif.got.tgz:42837.got - 2010.06.03 19:29:58.
