data_PCOD9511222
_publ_section_title
;
Structure prediction by ZEFSAII (Michael W. Deem and Ramdas Pophale) SiO2 
 PCOD9511222
Probable space group: F M M M
;
_chemical_formula_sum "Si O2"
_cell_formula_units_Z 192
_cell_length_a 32.719969
_cell_length_b 14.174434
_cell_length_c 24.048169
_cell_angle_alpha 90.000000
_cell_angle_beta 90.000000
_cell_angle_gamma 90.000000
_cell_volume 11153.229144
_symmetry_space_group_name_H-M "F M M M"
_symmetry_group_IT_number 69
_symmetry_cell_setting 'orthorhombic'
loop_
_space_group_symop_operation_xyz
x,y,z
-x,-y,z
x,-y,-z
-x,y,-z
-x,-y,-z
x,y,-z
-x,y,z
x,-y,z
x,1/2+y,1/2+z
-x,1/2-y,1/2+z
x,1/2-y,1/2-z
-x,1/2+y,1/2-z
-x,1/2-y,1/2-z
x,1/2+y,1/2-z
-x,1/2+y,1/2+z
x,1/2-y,1/2+z
1/2+x,y,1/2+z
1/2-x,-y,1/2+z
1/2+x,-y,1/2-z
1/2-x,y,1/2-z
1/2-x,-y,1/2-z
1/2+x,y,1/2-z
1/2-x,y,1/2+z
1/2+x,-y,1/2+z
1/2+x,1/2+y,z
1/2-x,1/2-y,z
1/2+x,1/2-y,-z
1/2-x,1/2+y,-z
1/2-x,1/2-y,-z
1/2+x,1/2+y,-z
1/2-x,1/2+y,z
1/2+x,1/2-y,z
loop_
_atom_site_type_symbol
_atom_site_label
_atom_site_fract_x
_atom_site_fract_y
_atom_site_fract_z
Si Si1 0.500000 0.113780 0.683207
Si Si2 0.907812 0.763651 0.564649
Si Si3 0.419189 0.109078 0.257644
Si Si4 0.132059 0.887631 0.653654
Si Si5 0.298042 0.249977 0.682918
Si Si6 0.138904 0.108102 0.864332
Si Si7 0.000000 0.794901 0.063883
O O1 0.539833 0.150094 0.715707
O O2 0.500000 0.138412 0.617978
O O3 0.500000 0.000000 0.685430
O O4 0.897378 0.765940 0.500000
O O5 0.888727 0.851081 0.597631
O O6 0.887383 0.671020 0.592842
O O7 0.957109 0.760387 0.569170
O O8 0.397328 0.150660 0.203536
O O9 0.386768 0.107091 0.307269
O O10 0.428870 0.000000 0.242517
O O11 0.176053 0.839484 0.661527
O O12 0.135029 0.000000 0.657122
O O13 0.302941 0.250000 0.750000
O O14 0.250000 0.250000 0.670936
O O15 0.319642 0.161459 0.652730
O O16 0.144414 0.000000 0.882732
O O17 0.000000 0.835287 0.000000
#
# Coordination Sequence:
#
# PCOD9511222 Si02
#       7
#    16  32  32  32  32  32  16
#     4  10  18  30  49  76 111 149 187 226 267 322
#     4  10  22  37  55  80 108 145 193 233 270 317
#     4   9  17  30  49  77 107 140 180 216 262 322
#     4  10  21  38  58  78 109 147 184 227 272 323
#     4  10  20  33  54  85 117 144 172 214 273 339
#     4  10  19  34  55  78 113 147 175 218 272 332
#     4  10  20  34  48  73 113 149 186 231 271 311
#
# _framework density 17.214745000000001
#
# number of rings (size 3 to 8) (size 9 to 14) (size 15 to 20)
#    0.000    2.167    3.333    0.000    0.000    2.167 
#    0.000    5.417    0.000    9.500    0.000    9.333 
#    0.000    0.000    0.000    0.000    0.000    0.000 
#
# Total GULP energy -267512.803844 kJ/mol
# GULP energy per Si atom -5573.183413 kJ/mol
# Density = 1.717556 g / cm^3
# Si number density = 17.214745 Si / 1000 Ang^3
#
#
#
# Elastic Constant Matrix: (Units=GPa)
#
#
# Indices 1 2 3 4 5 6 
#
# 1 145.1918 48.3317 48.5058 0.0000 0.0000 0.0000
# 2 48.3317 84.1751 28.9110 0.0000 0.0000 0.0000
# 3 48.5058 28.9110 92.9103 0.0000 0.0000 0.0000
# 4 0.0000 0.0000 0.0000 16.4711 0.0000 0.0000
# 5 0.0000 0.0000 0.0000 0.0000 15.7255 0.0000
# 6 0.0000 0.0000 0.0000 0.0000 0.0000 13.9528
#
#
#
# Elastic Compliance Matrix: (Units=1/GPa)
#
#
# Indices 1 2 3 4 5 6 
#
# 1 0.009508 -0.004204 -0.003656 0.000000 0.000000 0.000000
# 2 -0.004204 0.015160 -0.002523 0.000000 0.000000 0.000000
# 3 -0.003656 -0.002523 0.013457 0.000000 0.000000 0.000000
# 4 0.000000 0.000000 0.000000 0.060712 0.000000 0.000000
# 5 0.000000 0.000000 0.000000 0.000000 0.063591 0.000000
# 6 0.000000 0.000000 0.000000 0.000000 0.000000 0.071670
#
#
# Mechanical properties :
#
#
# Convention : Reuss Voigt Hill
#
# Bulk Modulus (GPa) = 57.60263 63.75270 60.67766
# Shear Modulus (GPa) = 19.18282 22.33180 20.75731
#
# Velocity S-wave (km/s) = 3.34177 3.60564 3.47621
# Velocity P-wave (km/s) = 6.95872 7.37891 7.17189
#
# Compressibility (1/GPa) = 0.01736032
#
# Stress axis : x y z
#
# Youngs Moduli (GPa) = 105.17303 65.96233 74.31244
#
# Poissons Ratio (x) = 0.27729 0.27168
# Poissons Ratio (y) = 0.44212 0.18747
# Poissons Ratio (z) = 0.38450 0.16641
#
# Static dielectric constant tensor:
#      x y z
#    x 1.588420 0.000000 0.000000 
#    y 0.000000 1.614520 0.000000 
#    z 0.000000 0.000000 1.566280 
# 
# From -- ./inp_files/19807.got.cif
#   From: 2010.05.17/outbox.cif.g08.bks.cpg/sg69_10_cif.got.tgz:19807.got - 2010.06.03 19:29:58.
