data_PCOD9511761
_publ_section_title
;
Structure prediction by ZEFSAII (Michael W. Deem and Ramdas Pophale) SiO2 
 PCOD9511761
Probable space group: F M M M
;
_chemical_formula_sum "Si O2"
_cell_formula_units_Z 208
_cell_length_a 33.438713
_cell_length_b 18.408435
_cell_length_c 20.084955
_cell_angle_alpha 90.000000
_cell_angle_beta 90.000000
_cell_angle_gamma 90.000000
_cell_volume 12363.381917
_symmetry_space_group_name_H-M "F M M M"
_symmetry_group_IT_number 69
_symmetry_cell_setting 'orthorhombic'
loop_
_space_group_symop_operation_xyz
x,y,z
-x,-y,z
x,-y,-z
-x,y,-z
-x,-y,-z
x,y,-z
-x,y,z
x,-y,z
x,1/2+y,1/2+z
-x,1/2-y,1/2+z
x,1/2-y,1/2-z
-x,1/2+y,1/2-z
-x,1/2-y,1/2-z
x,1/2+y,1/2-z
-x,1/2+y,1/2+z
x,1/2-y,1/2+z
1/2+x,y,1/2+z
1/2-x,-y,1/2+z
1/2+x,-y,1/2-z
1/2-x,y,1/2-z
1/2-x,-y,1/2-z
1/2+x,y,1/2-z
1/2-x,y,1/2+z
1/2+x,-y,1/2+z
1/2+x,1/2+y,z
1/2-x,1/2-y,z
1/2+x,1/2-y,-z
1/2-x,1/2+y,-z
1/2-x,1/2-y,-z
1/2+x,1/2+y,-z
1/2-x,1/2+y,z
1/2+x,1/2-y,z
loop_
_atom_site_type_symbol
_atom_site_label
_atom_site_fract_x
_atom_site_fract_y
_atom_site_fract_z
Si Si1 0.544487 0.913647 0.000000
Si Si2 0.829002 0.306382 0.422045
Si Si3 0.760399 0.080604 0.080678
Si Si4 0.399691 0.212665 0.679448
Si Si5 0.952150 0.582640 0.266338
Si Si6 0.412034 0.631607 0.367336
Si Si7 0.825597 0.365860 0.921975
O O1 0.567573 0.890153 0.935089
O O2 0.500000 0.882687 0.000000
O O3 0.542162 0.000000 0.000000
O O4 0.839856 0.322931 0.500000
O O5 0.791967 0.357158 0.401841
O O6 0.864468 0.314687 0.368700
O O7 0.818365 0.220951 0.421016
O O8 0.714998 0.096588 0.101928
O O9 0.772999 0.000000 0.102241
O O10 0.758894 0.081346 0.000000
O O11 0.385874 0.250000 0.750000
O O12 0.430140 0.147140 0.693734
O O13 0.418774 0.282526 0.643806
O O14 0.945659 0.500000 0.291357
O O15 0.932146 0.589545 0.193478
O O16 0.000000 0.594597 0.262620
O O17 0.364571 0.618869 0.377551
O O18 0.833371 0.385922 0.000000
#
# Coordination Sequence:
#
# PCOD9511761 Si02
#       7
#    16  32  32  32  32  32  32
#     4  11  22  32  46  76 114 141 161 199 263 324
#     4   9  17  31  53  75 101 131 170 216 262 304
#     4   9  17  27  43  73 105 134 171 211 252 305
#     4   9  20  35  56  78 102 133 179 219 260 312
#     4  10  21  37  55  74  99 136 179 218 261 317
#     4  10  19  33  52  77 105 137 174 212 258 313
#     4   9  16  29  47  71 103 137 169 206 256 313
#
# _framework density 16.823875999999998
#
# number of rings (size 3 to 8) (size 9 to 14) (size 15 to 20)
#    0.000    2.538    0.769    1.385    1.077    8.308 
#    0.000    0.000    0.000   15.692    0.000   11.846 
#    0.000    0.000    0.000    0.000    0.000    0.000 
#
# Total GULP energy -289633.170323 kJ/mol
# GULP energy per Si atom -5569.868660 kJ/mol
# Density = 1.678558 g / cm^3
# Si number density = 16.823876 Si / 1000 Ang^3
#
#
#
# Elastic Constant Matrix: (Units=GPa)
#
#
# Indices 1 2 3 4 5 6 
#
# 1 96.4853 52.2510 35.7893 0.0000 0.0000 0.0000
# 2 52.2510 57.0436 30.1794 0.0000 0.0000 0.0000
# 3 35.7893 30.1794 48.9349 0.0000 0.0000 0.0000
# 4 0.0000 0.0000 0.0000 15.2576 0.0000 0.0000
# 5 0.0000 0.0000 0.0000 0.0000 3.2929 0.0000
# 6 0.0000 0.0000 0.0000 0.0000 0.0000 66.8796
#
#
#
# Elastic Compliance Matrix: (Units=1/GPa)
#
#
# Indices 1 2 3 4 5 6 
#
# 1 0.021454 -0.016847 -0.005301 0.000000 0.000000 0.000000
# 2 -0.016847 0.039250 -0.011885 0.000000 0.000000 0.000000
# 3 -0.005301 -0.011885 0.031642 0.000000 0.000000 0.000000
# 4 0.000000 0.000000 0.000000 0.065541 0.000000 0.000000
# 5 0.000000 0.000000 0.000000 0.000000 0.303685 0.000000
# 6 0.000000 0.000000 0.000000 0.000000 0.000000 0.014952
#
#
# Mechanical properties :
#
#
# Convention : Reuss Voigt Hill
#
# Bulk Modulus (GPa) = 41.18595 48.76702 44.97649
# Shear Modulus (GPa) = 9.04679 22.70231 15.87455
#
# Velocity S-wave (km/s) = 2.32143 3.67742 3.07510
# Velocity P-wave (km/s) = 5.63198 6.86155 6.27695
#
# Compressibility (1/GPa) = 0.02428012
#
# Stress axis : x y z
#
# Youngs Moduli (GPa) = 46.61182 25.47778 31.60375
#
# Poissons Ratio (x) = 0.42922 0.16752
# Poissons Ratio (y) = 0.78527 0.37561
# Poissons Ratio (z) = 0.24707 0.30281
#
# Static dielectric constant tensor:
#      x y z
#    x 1.561850 0.000000 0.000000 
#    y 0.000000 1.579470 0.000000 
#    z 0.000000 0.000000 1.565330 
# 
# From -- ./inp_files/34017.got.cif
#   From: 2010.05.17/outbox.cif.g08.bks.cpg/sg69_18_cif.got.tgz:34017.got - 2010.06.03 19:29:58.
