data_PCOD9511980
_publ_section_title
;
Structure prediction by ZEFSAII (Michael W. Deem and Ramdas Pophale) SiO2 
 PCOD9511980
Probable space group: F M M M
;
_chemical_formula_sum "Si O2"
_cell_formula_units_Z 168
_cell_length_a 16.063884
_cell_length_b 25.756672
_cell_length_c 23.009392
_cell_angle_alpha 90.000000
_cell_angle_beta 90.000000
_cell_angle_gamma 90.000000
_cell_volume 9520.186359
_symmetry_space_group_name_H-M "F M M M"
_symmetry_group_IT_number 69
_symmetry_cell_setting 'orthorhombic'
loop_
_space_group_symop_operation_xyz
x,y,z
-x,-y,z
x,-y,-z
-x,y,-z
-x,-y,-z
x,y,-z
-x,y,z
x,-y,z
x,1/2+y,1/2+z
-x,1/2-y,1/2+z
x,1/2-y,1/2-z
-x,1/2+y,1/2-z
-x,1/2-y,1/2-z
x,1/2+y,1/2-z
-x,1/2+y,1/2+z
x,1/2-y,1/2+z
1/2+x,y,1/2+z
1/2-x,-y,1/2+z
1/2+x,-y,1/2-z
1/2-x,y,1/2-z
1/2-x,-y,1/2-z
1/2+x,y,1/2-z
1/2-x,y,1/2+z
1/2+x,-y,1/2+z
1/2+x,1/2+y,z
1/2-x,1/2-y,z
1/2+x,1/2-y,-z
1/2-x,1/2+y,-z
1/2-x,1/2-y,-z
1/2+x,1/2+y,-z
1/2-x,1/2+y,z
1/2+x,1/2-y,z
loop_
_atom_site_type_symbol
_atom_site_label
_atom_site_fract_x
_atom_site_fract_y
_atom_site_fract_z
Si Si1 0.750000 0.250000 0.250000
Si Si2 0.154397 0.559904 0.728612
Si Si3 0.824412 0.829675 0.565045
Si Si4 0.000000 0.889072 0.564762
Si Si5 0.406425 0.721020 0.935862
Si Si6 0.000000 0.938730 0.689504
Si Si7 0.683333 0.663400 0.159513
O O1 0.701098 0.291079 0.207611
O O2 0.134482 0.500000 0.709399
O O3 0.250000 0.557919 0.750000
O O4 0.084981 0.575948 0.776567
O O5 0.156900 0.608013 0.684672
O O6 0.790579 0.841407 0.500000
O O7 0.914770 0.856312 0.568178
O O8 0.842907 0.768503 0.568048
O O9 0.764634 0.843352 0.618287
O O10 0.000000 0.914131 0.500000
O O11 0.000000 0.922419 0.622826
O O12 0.500000 0.741868 0.931726
O O13 0.387356 0.683186 0.883851
O O14 0.398229 0.697132 0.000000
O O15 0.000000 0.000000 0.690503
#
# Coordination Sequence:
#
# PCOD9511980 Si02
#       7
#     8  32  32  16  32  16  32
#     4  12  24  32  50  92 116 140 178 236 284 334
#     4  10  22  40  60  81 112 157 196 230 274 340
#     4  10  19  35  56  80 112 151 188 228 285 348
#     4  10  20  33  55  81 109 144 185 237 289 335
#     4  10  20  36  56  80 112 151 192 228 275 345
#     4  10  22  39  59  83 110 149 199 235 281 340
#     4  12  22  36  55  83 118 146 187 236 281 332
#
# _framework density 17.646712999999998
#
# number of rings (size 3 to 8) (size 9 to 14) (size 15 to 20)
#    0.000    1.524    3.810    1.714    1.333    1.714 
#    0.000    0.476    0.000    3.429    0.000    1.333 
#    0.000    0.000    0.000    0.000    0.000    0.000 
#
# Total GULP energy -233879.515306 kJ/mol
# GULP energy per Si atom -5568.559888 kJ/mol
# Density = 1.760655 g / cm^3
# Si number density = 17.646713 Si / 1000 Ang^3
#
#
#
# Elastic Constant Matrix: (Units=GPa)
#
#
# Indices 1 2 3 4 5 6 
#
# 1 96.9519 9.1306 48.8406 0.0000 0.0000 0.0000
# 2 9.1306 65.1294 64.4450 0.0000 0.0000 0.0000
# 3 48.8406 64.4450 141.4063 0.0000 0.0000 0.0000
# 4 0.0000 0.0000 0.0000 22.8663 0.0000 0.0000
# 5 0.0000 0.0000 0.0000 0.0000 28.0309 0.0000
# 6 0.0000 0.0000 0.0000 0.0000 0.0000 19.9444
#
#
#
# Elastic Compliance Matrix: (Units=1/GPa)
#
#
# Indices 1 2 3 4 5 6 
#
# 1 0.013287 0.004878 -0.006812 0.000000 0.000000 0.000000
# 2 0.004878 0.029756 -0.015246 0.000000 0.000000 0.000000
# 3 -0.006812 -0.015246 0.016373 0.000000 0.000000 0.000000
# 4 0.000000 0.000000 0.000000 0.043732 0.000000 0.000000
# 5 0.000000 0.000000 0.000000 0.000000 0.035675 0.000000
# 6 0.000000 0.000000 0.000000 0.000000 0.000000 0.050139
#
#
# Mechanical properties :
#
#
# Convention : Reuss Voigt Hill
#
# Bulk Modulus (GPa) = 39.91175 60.92445 50.41810
# Shear Modulus (GPa) = 21.58203 26.23976 23.91089
#
# Velocity S-wave (km/s) = 3.50094 3.86028 3.68499
# Velocity P-wave (km/s) = 6.24567 7.38028 6.83655
#
# Compressibility (1/GPa) = 0.02505528
#
# Stress axis : x y z
#
# Youngs Moduli (GPa) = 75.26302 33.60681 61.07648
#
# Poissons Ratio (x) = -0.16393 0.41607
# Poissons Ratio (y) = -0.36713 0.93116
# Poissons Ratio (z) = 0.51271 0.51236
#
# Static dielectric constant tensor:
#      x y z
#    x 1.665280 0.000000 0.000000 
#    y 0.000000 1.603290 0.000000 
#    z 0.000000 0.000000 1.623090 
# 
# From -- ./inp_files/30033.got.cif
#   From: 2010.05.17/outbox.cif.g08.bks.cpg/sg69_16_cif.got.tgz:30033.got - 2010.06.03 19:29:58.
