data_PCOD9511791
_publ_section_title
;
Structure prediction by ZEFSAII (Michael W. Deem and Ramdas Pophale) SiO2 
 PCOD9511791
Probable space group: F M M M
;
_chemical_formula_sum "Si O2"
_cell_formula_units_Z 200
_cell_length_a 22.702231
_cell_length_b 28.088940
_cell_length_c 18.583669
_cell_angle_alpha 90.000000
_cell_angle_beta 90.000000
_cell_angle_gamma 90.000000
_cell_volume 11850.463864
_symmetry_space_group_name_H-M "F M M M"
_symmetry_group_IT_number 69
_symmetry_cell_setting 'orthorhombic'
loop_
_space_group_symop_operation_xyz
x,y,z
-x,-y,z
x,-y,-z
-x,y,-z
-x,-y,-z
x,y,-z
-x,y,z
x,-y,z
x,1/2+y,1/2+z
-x,1/2-y,1/2+z
x,1/2-y,1/2-z
-x,1/2+y,1/2-z
-x,1/2-y,1/2-z
x,1/2+y,1/2-z
-x,1/2+y,1/2+z
x,1/2-y,1/2+z
1/2+x,y,1/2+z
1/2-x,-y,1/2+z
1/2+x,-y,1/2-z
1/2-x,y,1/2-z
1/2-x,-y,1/2-z
1/2+x,y,1/2-z
1/2-x,y,1/2+z
1/2+x,-y,1/2+z
1/2+x,1/2+y,z
1/2-x,1/2-y,z
1/2+x,1/2-y,-z
1/2-x,1/2+y,-z
1/2-x,1/2-y,-z
1/2+x,1/2+y,-z
1/2-x,1/2+y,z
1/2+x,1/2-y,z
loop_
_atom_site_type_symbol
_atom_site_label
_atom_site_fract_x
_atom_site_fract_y
_atom_site_fract_z
Si Si1 0.651525 0.301583 0.658462
Si Si2 0.182571 0.052949 0.913883
Si Si3 0.754363 0.642684 0.085006
Si Si4 0.362673 0.797115 0.584455
Si Si5 0.567360 0.446666 0.178681
Si Si6 0.430849 0.341991 0.780801
Si Si7 0.250000 0.250000 0.750000
O O1 0.682541 0.344636 0.617043
O O2 0.633827 0.258495 0.605551
O O3 0.601438 0.316383 0.714538
O O4 0.705971 0.281829 0.704610
O O5 0.224130 0.094824 0.885462
O O6 0.117224 0.056889 0.881917
O O7 0.204970 0.000000 0.896686
O O8 0.178869 0.057595 0.000000
O O9 0.704490 0.683857 0.094148
O O10 0.761850 0.637132 0.000000
O O11 0.377952 0.805080 0.500000
O O12 0.401528 0.825056 0.643714
O O13 0.500000 0.443766 0.150789
O O14 0.573507 0.500000 0.211544
O O15 0.575758 0.399313 0.225985
O O16 0.500000 0.330631 0.781993
#
# Coordination Sequence:
#
# PCOD9511791 Si02
#       7
#    32  32  32  32  32  32   8
#     4  12  21  36  54  77 105 143 184 218 257 310
#     4   9  17  30  49  76 109 140 171 215 269 320
#     4  10  19  33  54  79 105 136 175 220 264 311
#     4  11  21  35  54  79 107 138 177 222 263 311
#     4   9  18  33  51  72 101 139 180 218 257 312
#     4  11  23  38  55  77 107 143 178 219 268 316
#     4  12  20  32  52  76  98 136 174 210 248 300
#
# _framework density 16.876977
#
# number of rings (size 3 to 8) (size 9 to 14) (size 15 to 20)
#    0.000    1.600    4.800    0.480    0.000    3.200 
#    0.000    4.000    0.000    3.360    0.000    0.000 
#    0.000    0.000    0.000   20.000    0.000    0.000 
#
# Total GULP energy -278536.966653 kJ/mol
# GULP energy per Si atom -5570.739333 kJ/mol
# Density = 1.683856 g / cm^3
# Si number density = 16.876977 Si / 1000 Ang^3
#
#
#
# Elastic Constant Matrix: (Units=GPa)
#
#
# Indices 1 2 3 4 5 6 
#
# 1 60.9132 24.2169 35.6438 0.0000 0.0000 0.0000
# 2 24.2169 93.1154 28.8327 0.0000 0.0000 0.0000
# 3 35.6438 28.8327 62.9489 0.0000 0.0000 0.0000
# 4 0.0000 0.0000 0.0000 22.3691 0.0000 0.0000
# 5 0.0000 0.0000 0.0000 0.0000 20.1637 0.0000
# 6 0.0000 0.0000 0.0000 0.0000 0.0000 21.7518
#
#
#
# Elastic Compliance Matrix: (Units=1/GPa)
#
#
# Indices 1 2 3 4 5 6 
#
# 1 0.025030 -0.002472 -0.013041 0.000000 0.000000 0.000000
# 2 -0.002472 0.012758 -0.004444 0.000000 0.000000 0.000000
# 3 -0.013041 -0.004444 0.025306 0.000000 0.000000 0.000000
# 4 0.000000 0.000000 0.000000 0.044704 0.000000 0.000000
# 5 0.000000 0.000000 0.000000 0.000000 0.049594 0.000000
# 6 0.000000 0.000000 0.000000 0.000000 0.000000 0.045973
#
#
# Mechanical properties :
#
#
# Convention : Reuss Voigt Hill
#
# Bulk Modulus (GPa) = 43.13914 43.81825 43.47870
# Shear Modulus (GPa) = 19.91977 21.40920 20.66449
#
# Velocity S-wave (km/s) = 3.43927 3.56553 3.50297
# Velocity P-wave (km/s) = 6.43334 6.55518 6.49454
#
# Compressibility (1/GPa) = 0.02318080
#
# Stress axis : x y z
#
# Youngs Moduli (GPa) = 39.95126 78.38038 39.51683
#
# Poissons Ratio (x) = 0.19374 0.51534
# Poissons Ratio (y) = 0.09875 0.17562
# Poissons Ratio (z) = 0.52100 0.34833
#
# Static dielectric constant tensor:
#      x y z
#    x 1.548080 0.000000 0.000000 
#    y 0.000000 1.658590 0.000000 
#    z 0.000000 0.000000 1.581100 
# 
# From -- ./inp_files/25201.got.cif
#   From: 2010.05.17/outbox.cif.g08.bks.cpg/sg69_13_cif.got.tgz:25201.got - 2010.06.03 19:29:58.
