data_PCOD9511400
_publ_section_title
;
Structure prediction by ZEFSAII (Michael W. Deem and Ramdas Pophale) SiO2 
 PCOD9511400
Probable space group: F M M M
;
_chemical_formula_sum "Si O2"
_cell_formula_units_Z 240
_cell_length_a 22.696893
_cell_length_b 20.222731
_cell_length_c 28.300610
_cell_angle_alpha 90.000000
_cell_angle_beta 90.000000
_cell_angle_gamma 90.000000
_cell_volume 12989.786461
_symmetry_space_group_name_H-M "F M M M"
_symmetry_group_IT_number 69
_symmetry_cell_setting 'orthorhombic'
loop_
_space_group_symop_operation_xyz
x,y,z
-x,-y,z
x,-y,-z
-x,y,-z
-x,-y,-z
x,y,-z
-x,y,z
x,-y,z
x,1/2+y,1/2+z
-x,1/2-y,1/2+z
x,1/2-y,1/2-z
-x,1/2+y,1/2-z
-x,1/2-y,1/2-z
x,1/2+y,1/2-z
-x,1/2+y,1/2+z
x,1/2-y,1/2+z
1/2+x,y,1/2+z
1/2-x,-y,1/2+z
1/2+x,-y,1/2-z
1/2-x,y,1/2-z
1/2-x,-y,1/2-z
1/2+x,y,1/2-z
1/2-x,y,1/2+z
1/2+x,-y,1/2+z
1/2+x,1/2+y,z
1/2-x,1/2-y,z
1/2+x,1/2-y,-z
1/2-x,1/2+y,-z
1/2-x,1/2-y,-z
1/2+x,1/2+y,-z
1/2-x,1/2+y,z
1/2+x,1/2-y,z
loop_
_atom_site_type_symbol
_atom_site_label
_atom_site_fract_x
_atom_site_fract_y
_atom_site_fract_z
Si Si1 0.432417 0.127457 0.828069
Si Si2 0.701281 0.575152 0.821715
Si Si3 0.679080 0.925101 0.123460
Si Si4 0.566781 0.776575 0.361589
Si Si5 0.644980 0.127135 0.583801
Si Si6 0.373130 0.177723 0.266668
Si Si7 0.267829 0.677355 0.445846
Si Si8 0.564990 0.921941 0.500000
O O1 0.500000 0.104056 0.827567
O O2 0.384468 0.081418 0.852804
O O3 0.430696 0.197956 0.855282
O O4 0.409196 0.144188 0.775606
O O5 0.694626 0.500000 0.804398
O O6 0.768708 0.585584 0.838097
O O7 0.662486 0.585355 0.869623
O O8 0.677796 0.629319 0.785210
O O9 0.688624 0.867108 0.085223
O O10 0.687699 0.000000 0.104597
O O11 0.500000 0.795519 0.374639
O O12 0.614875 0.805678 0.397164
O O13 0.583557 0.807199 0.310597
O O14 0.705842 0.139266 0.556868
O O15 0.599888 0.096676 0.547136
O O16 0.350894 0.250000 0.250000
O O17 0.287918 0.684992 0.500000
O O18 0.250000 0.750000 0.426649
O O19 0.500000 0.891094 0.500000
O O20 0.559832 0.000000 0.500000
#
# Coordination Sequence:
#
# PCOD9511400 Si02
#       8
#    32  32  32  32  32  32  32  16
#     4  10  20  35  55  78 105 140 183 232 276 318
#     4   9  19  35  54  76 108 144 180 219 269 327
#     4  10  22  38  55  80 111 145 180 220 273 331
#     4   9  17  31  53  77 107 145 184 222 267 321
#     4  10  18  33  52  78 107 142 177 214 265 317
#     4   9  18  33  54  80 108 141 184 233 276 326
#     4  10  20  36  59  86 109 134 171 227 277 325
#     4  11  22  32  45  72 110 146 179 212 248 301
#
# _framework density 18.476054000000001
#
# number of rings (size 3 to 8) (size 9 to 14) (size 15 to 20)
#    0.000    2.333    0.667    2.000    0.000    4.800 
#    0.000    3.333    0.000    8.000    0.000    0.933 
#    0.000    0.000    0.000    0.000    0.000    0.000 
#
# Total GULP energy -334591.396559 kJ/mol
# GULP energy per Si atom -5576.523276 kJ/mol
# Density = 1.843400 g / cm^3
# Si number density = 18.476054 Si / 1000 Ang^3
#
#
#
# Elastic Constant Matrix: (Units=GPa)
#
#
# Indices 1 2 3 4 5 6 
#
# 1 100.5233 39.4908 38.1955 0.0000 0.0000 0.0000
# 2 39.4908 74.0211 27.6983 0.0000 0.0000 0.0000
# 3 38.1955 27.6983 62.9142 0.0000 0.0000 0.0000
# 4 0.0000 0.0000 0.0000 20.3014 0.0000 0.0000
# 5 0.0000 0.0000 0.0000 0.0000 68.6193 0.0000
# 6 0.0000 0.0000 0.0000 0.0000 0.0000 14.7799
#
#
#
# Elastic Compliance Matrix: (Units=1/GPa)
#
#
# Indices 1 2 3 4 5 6 
#
# 1 0.014489 -0.005314 -0.006457 0.000000 0.000000 0.000000
# 2 -0.005314 0.018123 -0.004753 0.000000 0.000000 0.000000
# 3 -0.006457 -0.004753 0.021907 0.000000 0.000000 0.000000
# 4 0.000000 0.000000 0.000000 0.049258 0.000000 0.000000
# 5 0.000000 0.000000 0.000000 0.000000 0.014573 0.000000
# 6 0.000000 0.000000 0.000000 0.000000 0.000000 0.067659
#
#
# Mechanical properties :
#
#
# Convention : Reuss Voigt Hill
#
# Bulk Modulus (GPa) = 46.57176 49.80309 48.18743
# Shear Modulus (GPa) = 22.10302 29.54505 25.82403
#
# Velocity S-wave (km/s) = 3.46252 4.00321 3.74264
# Velocity P-wave (km/s) = 6.42236 6.95569 6.69434
#
# Compressibility (1/GPa) = 0.02147224
#
# Stress axis : x y z
#
# Youngs Moduli (GPa) = 69.01860 55.17830 45.64740
#
# Poissons Ratio (x) = 0.29321 0.29474
# Poissons Ratio (y) = 0.36675 0.21695
# Poissons Ratio (z) = 0.44564 0.26225
#
# Static dielectric constant tensor:
#      x y z
#    x 1.631530 0.000000 0.000000 
#    y 0.000000 1.643100 0.000000 
#    z 0.000000 0.000000 1.640320 
# 
# From -- ./inp_files/42842.got.cif
#   From: 2010.05.17/outbox.cif.g08.bks.cpg/sg69_22_cif.got.tgz:42842.got - 2010.06.03 19:29:58.
