data_PCOD9511987
_publ_section_title
;
Structure prediction by ZEFSAII (Michael W. Deem and Ramdas Pophale) SiO2 
 PCOD9511987
Probable space group: F M M M
;
_chemical_formula_sum "Si O2"
_cell_formula_units_Z 208
_cell_length_a 21.572700
_cell_length_b 27.089271
_cell_length_c 17.352581
_cell_angle_alpha 90.000000
_cell_angle_beta 90.000000
_cell_angle_gamma 90.000000
_cell_volume 10140.652539
_symmetry_space_group_name_H-M "F M M M"
_symmetry_group_IT_number 69
_symmetry_cell_setting 'orthorhombic'
loop_
_space_group_symop_operation_xyz
x,y,z
-x,-y,z
x,-y,-z
-x,y,-z
-x,-y,-z
x,y,-z
-x,y,z
x,-y,z
x,1/2+y,1/2+z
-x,1/2-y,1/2+z
x,1/2-y,1/2-z
-x,1/2+y,1/2-z
-x,1/2-y,1/2-z
x,1/2+y,1/2-z
-x,1/2+y,1/2+z
x,1/2-y,1/2+z
1/2+x,y,1/2+z
1/2-x,-y,1/2+z
1/2+x,-y,1/2-z
1/2-x,y,1/2-z
1/2-x,-y,1/2-z
1/2+x,y,1/2-z
1/2-x,y,1/2+z
1/2+x,-y,1/2+z
1/2+x,1/2+y,z
1/2-x,1/2-y,z
1/2+x,1/2-y,-z
1/2-x,1/2+y,-z
1/2-x,1/2-y,-z
1/2+x,1/2+y,-z
1/2-x,1/2+y,z
1/2+x,1/2-y,z
loop_
_atom_site_type_symbol
_atom_site_label
_atom_site_fract_x
_atom_site_fract_y
_atom_site_fract_z
Si Si1 0.860961 0.843797 0.125984
Si Si2 0.425013 0.443026 0.155702
Si Si3 0.380374 0.911919 0.821793
Si Si4 0.068292 0.500000 0.090036
Si Si5 0.283512 0.150854 0.090375
Si Si6 0.382959 0.764629 0.083635
Si Si7 0.933283 0.181814 0.275793
O O1 0.897391 0.895366 0.109837
O O2 0.788056 0.849302 0.113364
O O3 0.877436 0.794082 0.080810
O O4 0.880296 0.828167 0.213110
O O5 0.500000 0.436920 0.164578
O O6 0.415119 0.500000 0.128202
O O7 0.389656 0.436702 0.237920
O O8 0.318169 0.884932 0.849483
O O9 0.431066 0.868690 0.824009
O O10 0.395330 0.952674 0.883314
O O11 0.000000 0.500000 0.127885
O O12 0.061930 0.500000 0.000000
O O13 0.318587 0.204324 0.094528
O O14 0.289325 0.135756 0.000000
O O15 0.420661 0.777030 0.160871
O O16 0.408179 0.781560 0.000000
O O17 0.000000 0.187462 0.237756
#
# Coordination Sequence:
#
# PCOD9511987 Si02
#       7
#    32  32  32  16  32  32  32
#     4  11  21  37  63  89 115 161 212 250 300 362
#     4  10  21  39  62  86 117 154 200 263 319 361
#     4  10  19  35  57  83 114 155 194 235 292 356
#     4  11  20  30  52  83 114 154 198 231 272 349
#     4  10  22  40  59  86 127 163 197 247 305 363
#     4  10  22  39  62  89 122 162 202 245 303 378
#     4  10  22  38  58  88 125 156 192 250 309 362
#
# _framework density 20.511500999999999
#
# number of rings (size 3 to 8) (size 9 to 14) (size 15 to 20)
#    0.000    1.769    0.769    4.615    0.000    9.538 
#    1.385    5.385    0.000    6.923    0.000    4.308 
#    0.000    0.000    0.000    0.000    0.000    0.000 
#
# Total GULP energy -289613.799565 kJ/mol
# GULP energy per Si atom -5569.496145 kJ/mol
# Density = 2.046482 g / cm^3
# Si number density = 20.511501 Si / 1000 Ang^3
#
#
#
# Elastic Constant Matrix: (Units=GPa)
#
#
# Indices 1 2 3 4 5 6 
#
# 1 52.9407 16.1001 23.1572 0.0000 0.0000 0.0000
# 2 16.1001 145.1494 14.3339 0.0000 0.0000 0.0000
# 3 23.1572 14.3339 53.8006 0.0000 0.0000 0.0000
# 4 0.0000 0.0000 0.0000 -0.5900 0.0000 0.0000
# 5 0.0000 0.0000 0.0000 0.0000 -30.2923 0.0000
# 6 0.0000 0.0000 0.0000 0.0000 0.0000 19.1752
#
#
#
# Elastic Compliance Matrix: (Units=1/GPa)
#
#
# Indices 1 2 3 4 5 6 
#
# 1 0.023654 -0.001662 -0.009739 0.000000 0.000000 0.000000
# 2 -0.001662 0.007192 -0.001201 0.000000 0.000000 0.000000
# 3 -0.009739 -0.001201 0.023099 0.000000 0.000000 0.000000
# 4 0.000000 0.000000 0.000000 -1.694961 0.000000 0.000000
# 5 0.000000 0.000000 0.000000 0.000000 -0.033012 0.000000
# 6 0.000000 0.000000 0.000000 0.000000 0.000000 0.052151
#
#
# Mechanical properties :
#
#
# Convention : Reuss Voigt Hill
#
# Bulk Modulus (GPa) = 34.79165 39.89701 37.34433
# Shear Modulus (GPa) = -3.15041 10.87857 3.86408
#
# Velocity S-wave (km/s) = -1.24067 2.30546 1.37403
# Velocity P-wave (km/s) = 3.86607 5.15559 4.55668
#
# Compressibility (1/GPa) = 0.02874253
#
# Stress axis : x y z
#
# Youngs Moduli (GPa) = 42.27553 139.03575 43.29219
#
# Poissons Ratio (x) = 0.23108 0.42161
# Poissons Ratio (y) = 0.07026 0.05199
# Poissons Ratio (z) = 0.41171 0.16696
#
# Static dielectric constant tensor:
#      x y z
#    x 1.750650 0.000000 0.000000 
#    y 0.000000 1.777830 0.000000 
#    z 0.000000 0.000000 1.758800 
# 
# From -- ./inp_files/25190.got.cif
#   From: 2010.05.17/outbox.cif.g08.bks.cpg/sg69_13_cif.got.tgz:25190.got - 2010.06.03 19:29:58.
