data_PCOD9511923
_publ_section_title
;
Structure prediction by ZEFSAII (Michael W. Deem and Ramdas Pophale) SiO2 
 PCOD9511923
Probable space group: F M M M
;
_chemical_formula_sum "Si O2"
_cell_formula_units_Z 192
_cell_length_a 17.758909
_cell_length_b 31.647244
_cell_length_c 15.933126
_cell_angle_alpha 90.000000
_cell_angle_beta 90.000000
_cell_angle_gamma 90.000000
_cell_volume 8954.743860
_symmetry_space_group_name_H-M "F M M M"
_symmetry_group_IT_number 69
_symmetry_cell_setting 'orthorhombic'
loop_
_space_group_symop_operation_xyz
x,y,z
-x,-y,z
x,-y,-z
-x,y,-z
-x,-y,-z
x,y,-z
-x,y,z
x,-y,z
x,1/2+y,1/2+z
-x,1/2-y,1/2+z
x,1/2-y,1/2-z
-x,1/2+y,1/2-z
-x,1/2-y,1/2-z
x,1/2+y,1/2-z
-x,1/2+y,1/2+z
x,1/2-y,1/2+z
1/2+x,y,1/2+z
1/2-x,-y,1/2+z
1/2+x,-y,1/2-z
1/2-x,y,1/2-z
1/2-x,-y,1/2-z
1/2+x,y,1/2-z
1/2-x,y,1/2+z
1/2+x,-y,1/2+z
1/2+x,1/2+y,z
1/2-x,1/2-y,z
1/2+x,1/2-y,-z
1/2-x,1/2+y,-z
1/2-x,1/2-y,-z
1/2+x,1/2+y,-z
1/2-x,1/2+y,z
1/2+x,1/2-y,z
loop_
_atom_site_type_symbol
_atom_site_label
_atom_site_fract_x
_atom_site_fract_y
_atom_site_fract_z
Si Si1 0.914591 0.000000 0.602333
Si Si2 0.412583 0.265041 0.596678
Si Si3 0.681274 0.081816 0.102405
Si Si4 0.000000 0.049941 0.901933
Si Si5 0.087157 0.167011 0.127515
Si Si6 0.331375 0.667710 0.296572
Si Si7 0.653213 0.081302 0.594254
O O1 0.872248 0.043087 0.626284
O O2 0.915395 0.000000 0.500000
O O3 0.000000 0.000000 0.632980
O O4 0.408712 0.278809 0.500000
O O5 0.500000 0.271209 0.625610
O O6 0.397965 0.214899 0.600471
O O7 0.352881 0.290852 0.650779
O O8 0.663531 0.126500 0.144855
O O9 0.766387 0.071134 0.131327
O O10 0.681309 0.086031 0.000000
O O11 0.922330 0.065293 0.861921
O O12 0.000000 0.000000 0.904232
O O13 0.000000 0.065719 0.000000
O O14 0.104833 0.164509 0.225617
O O15 0.141612 0.131684 0.089527
O O16 0.000000 0.157301 0.107438
O O17 0.250000 0.669954 0.250000
O O18 0.653862 0.062869 0.500000
#
# Coordination Sequence:
#
# PCOD9511923 Si02
#       7
#    16  32  32  16  32  32  32
#     4   9  20  40  69  99 123 159 213 272 324 369
#     4  10  23  43  67  93 121 165 225 279 322 373
#     4  10  22  41  65  93 125 162 210 263 318 377
#     4   9  18  30  54  90 123 158 207 257 308 374
#     4  11  22  39  62  87 124 166 213 261 318 383
#     4  12  24  41  60  92 132 171 206 258 325 393
#     4  10  19  34  57  87 123 164 206 255 312 374
#
# _framework density 21.44115
#
# number of rings (size 3 to 8) (size 9 to 14) (size 15 to 20)
#    0.000    1.667    2.500    2.000    1.167    4.667 
#    0.000    2.917    1.833    0.000    0.000    0.000 
#    0.000    0.000    0.000    0.000    0.000    0.000 
#
# Total GULP energy -268049.445579 kJ/mol
# GULP energy per Si atom -5584.363450 kJ/mol
# Density = 2.139235 g / cm^3
# Si number density = 21.441150 Si / 1000 Ang^3
#
#
#
# Elastic Constant Matrix: (Units=GPa)
#
#
# Indices 1 2 3 4 5 6 
#
# 1 140.5773 84.0852 27.2013 0.0000 0.0000 0.0000
# 2 84.0852 113.8447 23.4978 0.0000 0.0000 0.0000
# 3 27.2013 23.4978 52.9640 0.0000 0.0000 0.0000
# 4 0.0000 0.0000 0.0000 -106.9397 0.0000 0.0000
# 5 0.0000 0.0000 0.0000 0.0000 16.1491 0.0000
# 6 0.0000 0.0000 0.0000 0.0000 0.0000 35.5813
#
#
#
# Elastic Compliance Matrix: (Units=1/GPa)
#
#
# Indices 1 2 3 4 5 6 
#
# 1 0.013079 -0.009108 -0.002676 0.000000 0.000000 0.000000
# 2 -0.009108 0.016012 -0.002426 0.000000 0.000000 0.000000
# 3 -0.002676 -0.002426 0.021332 0.000000 0.000000 0.000000
# 4 0.000000 0.000000 0.000000 -0.009351 0.000000 0.000000
# 5 0.000000 0.000000 0.000000 0.000000 0.061923 0.000000
# 6 0.000000 0.000000 0.000000 0.000000 0.000000 0.028105
#
#
# Mechanical properties :
#
#
# Convention : Reuss Voigt Hill
#
# Bulk Modulus (GPa) = 45.45084 64.10607 54.77846
# Shear Modulus (GPa) = 29.96638 0.46490 15.21564
#
# Velocity S-wave (km/s) = 3.74252 0.46615 2.66681
# Velocity P-wave (km/s) = 6.31817 5.50030 5.92336
#
# Compressibility (1/GPa) = 0.02200179
#
# Stress axis : x y z
#
# Youngs Moduli (GPa) = 76.45753 62.45473 46.87858
#
# Poissons Ratio (x) = 0.56882 0.12547
# Poissons Ratio (y) = 0.69636 0.11373
# Poissons Ratio (z) = 0.20464 0.15152
#
# Static dielectric constant tensor:
#      x y z
#    x 1.799800 0.000000 0.000000 
#    y 0.000000 1.752580 0.000000 
#    z 0.000000 0.000000 1.806550 
# 
# From -- ./inp_files/23735.got.cif
#   From: 2010.05.17/outbox.cif.g08.bks.cpg/sg69_12_cif.got.tgz:23735.got - 2010.06.03 19:29:58.
