data_PCOD9511365
_publ_section_title
;
Structure prediction by ZEFSAII (Michael W. Deem and Ramdas Pophale) SiO2 
 PCOD9511365
Probable space group: F M M M
;
_chemical_formula_sum "Si O2"
_cell_formula_units_Z 208
_cell_length_a 28.365630
_cell_length_b 17.442628
_cell_length_c 24.426173
_cell_angle_alpha 90.000000
_cell_angle_beta 90.000000
_cell_angle_gamma 90.000000
_cell_volume 12085.365267
_symmetry_space_group_name_H-M "F M M M"
_symmetry_group_IT_number 69
_symmetry_cell_setting 'orthorhombic'
loop_
_space_group_symop_operation_xyz
x,y,z
-x,-y,z
x,-y,-z
-x,y,-z
-x,-y,-z
x,y,-z
-x,y,z
x,-y,z
x,1/2+y,1/2+z
-x,1/2-y,1/2+z
x,1/2-y,1/2-z
-x,1/2+y,1/2-z
-x,1/2-y,1/2-z
x,1/2+y,1/2-z
-x,1/2+y,1/2+z
x,1/2-y,1/2+z
1/2+x,y,1/2+z
1/2-x,-y,1/2+z
1/2+x,-y,1/2-z
1/2-x,y,1/2-z
1/2-x,-y,1/2-z
1/2+x,y,1/2-z
1/2-x,y,1/2+z
1/2+x,-y,1/2+z
1/2+x,1/2+y,z
1/2-x,1/2-y,z
1/2+x,1/2-y,-z
1/2-x,1/2+y,-z
1/2-x,1/2-y,-z
1/2+x,1/2+y,-z
1/2-x,1/2+y,z
1/2+x,1/2-y,z
loop_
_atom_site_type_symbol
_atom_site_label
_atom_site_fract_x
_atom_site_fract_y
_atom_site_fract_z
Si Si1 0.944962 0.324695 0.389428
Si Si2 0.129779 0.810620 0.799536
Si Si3 0.299987 0.208634 0.868404
Si Si4 0.803229 0.414130 0.771515
Si Si5 0.150405 0.915624 0.434785
Si Si6 0.447464 0.847968 0.933925
Si Si7 0.442766 0.910493 0.500000
O O1 0.915291 0.337137 0.334291
O O2 0.942904 0.234832 0.405697
O O3 0.927085 0.370124 0.443475
O O4 0.000000 0.344701 0.381279
O O5 0.119131 0.750000 0.750000
O O6 0.162899 0.769705 0.844839
O O7 0.160541 0.877435 0.771754
O O8 0.250000 0.250000 0.876684
O O9 0.298999 0.144517 0.821225
O O10 0.319191 0.158208 0.918266
O O11 0.818403 0.500000 0.786022
O O12 0.750000 0.417770 0.750000
O O13 0.149627 0.918880 0.500000
O O14 0.096542 0.899563 0.416340
O O15 0.166547 0.000000 0.415189
O O16 0.500000 0.878768 0.922082
O O17 0.444875 0.837133 0.000000
O O18 0.500000 0.903528 0.500000
O O19 0.430414 0.000000 0.500000
#
# Coordination Sequence:
#
# PCOD9511365 Si02
#       7
#    32  32  32  32  32  32  16
#     4  10  18  32  54  81 113 149 188 229 273 328
#     4  10  21  34  54  81 107 141 183 227 278 332
#     4  11  20  35  56  79 103 138 178 227 271 324
#     4  10  20  35  56  80 104 131 172 227 277 318
#     4  10  21  35  53  79 110 144 179 219 275 340
#     4   9  16  29  51  78 106 138 181 226 269 319
#     4   9  18  32  54  82 110 147 193 235 272 316
#
# _framework density 17.210899000000001
#
# number of rings (size 3 to 8) (size 9 to 14) (size 15 to 20)
#    0.000    2.077    3.846    0.462    0.000    1.538 
#    0.000    1.538    0.000    0.000    0.000    0.000 
#    0.000    0.000    0.000    0.000    0.000    0.000 
#
# Total GULP energy -289616.613327 kJ/mol
# GULP energy per Si atom -5569.550256 kJ/mol
# Density = 1.717173 g / cm^3
# Si number density = 17.210899 Si / 1000 Ang^3
#
#
#
# Elastic Constant Matrix: (Units=GPa)
#
#
# Indices 1 2 3 4 5 6 
#
# 1 87.5977 41.9789 45.3663 0.0000 0.0000 0.0000
# 2 41.9789 88.5247 30.1858 0.0000 0.0000 0.0000
# 3 45.3663 30.1858 66.7018 0.0000 0.0000 0.0000
# 4 0.0000 0.0000 0.0000 21.0640 0.0000 0.0000
# 5 0.0000 0.0000 0.0000 0.0000 29.2611 0.0000
# 6 0.0000 0.0000 0.0000 0.0000 0.0000 10.0443
#
#
#
# Elastic Compliance Matrix: (Units=1/GPa)
#
#
# Indices 1 2 3 4 5 6 
#
# 1 0.019764 -0.005662 -0.010880 0.000000 0.000000 0.000000
# 2 -0.005662 0.014980 -0.002928 0.000000 0.000000 0.000000
# 3 -0.010880 -0.002928 0.023717 0.000000 0.000000 0.000000
# 4 0.000000 0.000000 0.000000 0.047474 0.000000 0.000000
# 5 0.000000 0.000000 0.000000 0.000000 0.034175 0.000000
# 6 0.000000 0.000000 0.000000 0.000000 0.000000 0.099559
#
#
# Mechanical properties :
#
#
# Convention : Reuss Voigt Hill
#
# Bulk Modulus (GPa) = 51.22784 53.09845 52.16314
# Shear Modulus (GPa) = 17.53674 20.42677 18.98176
#
# Velocity S-wave (km/s) = 3.19554 3.44881 3.32458
# Velocity P-wave (km/s) = 6.59125 6.83942 6.71648
#
# Compressibility (1/GPa) = 0.01952064
#
# Stress axis : x y z
#
# Youngs Moduli (GPa) = 50.59744 66.75679 42.16423
#
# Poissons Ratio (x) = 0.37800 0.45873
# Poissons Ratio (y) = 0.28650 0.12345
# Poissons Ratio (z) = 0.55048 0.19546
#
# Static dielectric constant tensor:
#      x y z
#    x 1.626430 0.000000 0.000000 
#    y 0.000000 1.586980 0.000000 
#    z 0.000000 0.000000 1.604650 
# 
# From -- ./inp_files/25196.got.cif
#   From: 2010.05.17/outbox.cif.g08.bks.cpg/sg69_13_cif.got.tgz:25196.got - 2010.06.03 19:29:58.
