data_PCOD9511047
_publ_section_title
;
Structure prediction by ZEFSAII (Michael W. Deem and Ramdas Pophale) SiO2 
 PCOD9511047
Probable space group: F M M M
;
_chemical_formula_sum "Si O2"
_cell_formula_units_Z 176
_cell_length_a 32.708188
_cell_length_b 17.349431
_cell_length_c 18.137900
_cell_angle_alpha 90.000000
_cell_angle_beta 90.000000
_cell_angle_gamma 90.000000
_cell_volume 10292.686015
_symmetry_space_group_name_H-M "F M M M"
_symmetry_group_IT_number 69
_symmetry_cell_setting 'orthorhombic'
loop_
_space_group_symop_operation_xyz
x,y,z
-x,-y,z
x,-y,-z
-x,y,-z
-x,-y,-z
x,y,-z
-x,y,z
x,-y,z
x,1/2+y,1/2+z
-x,1/2-y,1/2+z
x,1/2-y,1/2-z
-x,1/2+y,1/2-z
-x,1/2-y,1/2-z
x,1/2+y,1/2-z
-x,1/2+y,1/2+z
x,1/2-y,1/2+z
1/2+x,y,1/2+z
1/2-x,-y,1/2+z
1/2+x,-y,1/2-z
1/2-x,y,1/2-z
1/2-x,-y,1/2-z
1/2+x,y,1/2-z
1/2-x,y,1/2+z
1/2+x,-y,1/2+z
1/2+x,1/2+y,z
1/2-x,1/2-y,z
1/2+x,1/2-y,-z
1/2-x,1/2+y,-z
1/2-x,1/2-y,-z
1/2+x,1/2+y,-z
1/2-x,1/2+y,z
1/2+x,1/2-y,z
loop_
_atom_site_type_symbol
_atom_site_label
_atom_site_fract_x
_atom_site_fract_y
_atom_site_fract_z
Si Si1 0.933567 0.314507 0.690510
Si Si2 0.000000 0.094463 0.090734
Si Si3 0.622964 0.589923 0.300641
Si Si4 0.203555 0.342333 0.733633
Si Si5 0.206681 0.208255 0.918110
Si Si6 0.878990 0.210401 0.416495
O O1 0.950853 0.250000 0.750000
O O2 0.962781 0.363655 0.635714
O O3 0.907465 0.371345 0.741917
O O4 0.902551 0.268318 0.637553
O O5 0.000000 0.000000 0.099719
O O6 0.000000 0.108279 0.000000
O O7 0.617759 0.500000 0.301019
O O8 0.668857 0.613594 0.277260
O O9 0.615254 0.627548 0.380114
O O10 0.199208 0.250000 0.750000
O O11 0.250000 0.364618 0.750000
O O12 0.197784 0.351249 0.646311
O O13 0.250000 0.250000 0.902662
O O14 0.169012 0.267695 0.916613
O O15 0.209008 0.174998 0.000000
O O16 0.893939 0.216162 0.500000
#
# Coordination Sequence:
#
# PCOD9511047 Si02
#       6
#    32  16  32  32  32  32
#     4  10  20  38  60  80 106 142 187 222 259 317
#     4  11  23  38  58  88 119 141 168 218 284 343
#     4  11  21  33  50  76 110 142 174 220 274 326
#     4  11  17  31  50  70  99 136 184 229 261 320
#     4  10  17  27  48  74  97 128 176 229 269 304
#     4  10  19  33  54  77 102 137 181 227 266 310
#
# _framework density 17.099520999999999
#
# number of rings (size 3 to 8) (size 9 to 14) (size 15 to 20)
#    0.000    1.545    5.455    1.909    0.000    0.727 
#    0.000    0.000    0.000    1.636    0.000    0.000 
#    0.000   13.091    0.000    0.000    0.000    0.000 
#
# Total GULP energy -245057.890482 kJ/mol
# GULP energy per Si atom -5569.497511 kJ/mol
# Density = 1.706060 g / cm^3
# Si number density = 17.099521 Si / 1000 Ang^3
#
#
#
# Elastic Constant Matrix: (Units=GPa)
#
#
# Indices 1 2 3 4 5 6 
#
# 1 75.6611 34.8984 15.7765 0.0000 0.0000 0.0000
# 2 34.8984 95.2172 26.8919 0.0000 0.0000 0.0000
# 3 15.7765 26.8919 109.4095 0.0000 0.0000 0.0000
# 4 0.0000 0.0000 0.0000 19.2053 0.0000 0.0000
# 5 0.0000 0.0000 0.0000 0.0000 27.7184 0.0000
# 6 0.0000 0.0000 0.0000 0.0000 0.0000 13.9494
#
#
#
# Elastic Compliance Matrix: (Units=1/GPa)
#
#
# Indices 1 2 3 4 5 6 
#
# 1 0.015993 -0.005599 -0.000930 0.000000 0.000000 0.000000
# 2 -0.005599 0.013246 -0.002448 0.000000 0.000000 0.000000
# 3 -0.000930 -0.002448 0.009876 0.000000 0.000000 0.000000
# 4 0.000000 0.000000 0.000000 0.052069 0.000000 0.000000
# 5 0.000000 0.000000 0.000000 0.000000 0.036077 0.000000
# 6 0.000000 0.000000 0.000000 0.000000 0.000000 0.071688
#
#
# Mechanical properties :
#
#
# Convention : Reuss Voigt Hill
#
# Bulk Modulus (GPa) = 47.25849 48.38014 47.81931
# Shear Modulus (GPa) = 22.32568 25.68934 24.00751
#
# Velocity S-wave (km/s) = 3.61727 3.88021 3.75105
# Velocity P-wave (km/s) = 6.71889 6.95912 6.84006
#
# Compressibility (1/GPa) = 0.02116022
#
# Stress axis : x y z
#
# Youngs Moduli (GPa) = 62.52614 75.49477 101.25696
#
# Poissons Ratio (x) = 0.42270 0.09417
# Poissons Ratio (y) = 0.35009 0.24791
# Poissons Ratio (z) = 0.05815 0.18484
#
# Static dielectric constant tensor:
#      x y z
#    x 1.585340 0.000000 0.000000 
#    y 0.000000 1.552620 0.000000 
#    z 0.000000 0.000000 1.616490 
# 
# From -- ./inp_files/27714.got.cif
#   From: 2010.05.17/outbox.cif.g08.bks.cpg/sg69_14_cif.got.tgz:27714.got - 2010.06.03 19:29:58.
