data_PCOD9511768
_publ_section_title
;
Structure prediction by ZEFSAII (Michael W. Deem and Ramdas Pophale) SiO2 
 PCOD9511768
Probable space group: F M M M
;
_chemical_formula_sum "Si O2"
_cell_formula_units_Z 208
_cell_length_a 24.851985
_cell_length_b 25.208663
_cell_length_c 19.270704
_cell_angle_alpha 90.000000
_cell_angle_beta 90.000000
_cell_angle_gamma 90.000000
_cell_volume 12072.813061
_symmetry_space_group_name_H-M "F M M M"
_symmetry_group_IT_number 69
_symmetry_cell_setting 'orthorhombic'
loop_
_space_group_symop_operation_xyz
x,y,z
-x,-y,z
x,-y,-z
-x,y,-z
-x,-y,-z
x,y,-z
-x,y,z
x,-y,z
x,1/2+y,1/2+z
-x,1/2-y,1/2+z
x,1/2-y,1/2-z
-x,1/2+y,1/2-z
-x,1/2-y,1/2-z
x,1/2+y,1/2-z
-x,1/2+y,1/2+z
x,1/2-y,1/2+z
1/2+x,y,1/2+z
1/2-x,-y,1/2+z
1/2+x,-y,1/2-z
1/2-x,y,1/2-z
1/2-x,-y,1/2-z
1/2+x,y,1/2-z
1/2-x,y,1/2+z
1/2+x,-y,1/2+z
1/2+x,1/2+y,z
1/2-x,1/2-y,z
1/2+x,1/2-y,-z
1/2-x,1/2+y,-z
1/2-x,1/2-y,-z
1/2+x,1/2+y,-z
1/2-x,1/2+y,z
1/2+x,1/2-y,z
loop_
_atom_site_type_symbol
_atom_site_label
_atom_site_fract_x
_atom_site_fract_y
_atom_site_fract_z
Si Si1 0.594117 0.622364 0.169160
Si Si2 0.834553 0.301858 0.580947
Si Si3 0.240905 0.618478 0.918048
Si Si4 0.062062 0.197481 0.289758
Si Si5 0.637910 0.318193 0.418449
Si Si6 0.204828 0.061497 0.802855
Si Si7 0.000000 0.064049 0.083396
O O1 0.617884 0.670806 0.123628
O O2 0.567134 0.648864 0.236173
O O3 0.646937 0.589529 0.193104
O O4 0.552213 0.588828 0.122567
O O5 0.844243 0.313062 0.500000
O O6 0.779532 0.331645 0.600137
O O7 0.832712 0.238885 0.588357
O O8 0.180283 0.635489 0.901639
O O9 0.266118 0.570036 0.876614
O O10 0.244077 0.610058 0.000000
O O11 0.084252 0.250000 0.250000
O O12 0.091985 0.184200 0.361035
O O13 0.000000 0.208671 0.305386
O O14 0.621612 0.322881 0.500000
O O15 0.250000 0.084224 0.750000
O O16 0.196736 0.000000 0.786249
O O17 0.000000 0.000000 0.090309
O O18 0.000000 0.076082 0.000000
#
# Coordination Sequence:
#
# PCOD9511768 Si02
#       7
#    32  32  32  32  32  32  16
#     4  11  20  37  56  78 112 151 183 237 282 328
#     4   9  17  30  50  77 107 142 180 217 270 330
#     4   9  18  32  52  77 106 139 175 221 275 328
#     4  11  22  36  52  76 108 146 188 231 278 335
#     4  10  19  33  53  77 108 144 182 223 270 332
#     4  10  21  36  55  79 107 141 183 230 281 336
#     4  11  24  40  59  86 115 151 200 241 282 342
#
# _framework density 17.228793
#
# number of rings (size 3 to 8) (size 9 to 14) (size 15 to 20)
#    0.000    1.923    2.308    2.308    0.000    3.077 
#    0.000    0.000    0.000    0.000    0.000    0.000 
#    0.000    0.615    0.000    0.000    0.000    0.000 
#
# Total GULP energy -289749.279041 kJ/mol
# GULP energy per Si atom -5572.101520 kJ/mol
# Density = 1.718958 g / cm^3
# Si number density = 17.228793 Si / 1000 Ang^3
#
#
#
# Elastic Constant Matrix: (Units=GPa)
#
#
# Indices 1 2 3 4 5 6 
#
# 1 79.9433 7.7665 43.3483 0.0000 0.0000 0.0000
# 2 7.7665 33.6013 13.0789 0.0000 0.0000 0.0000
# 3 43.3483 13.0789 65.6412 0.0000 0.0000 0.0000
# 4 0.0000 0.0000 0.0000 24.4680 0.0000 0.0000
# 5 0.0000 0.0000 0.0000 0.0000 33.0748 0.0000
# 6 0.0000 0.0000 0.0000 0.0000 0.0000 19.3963
#
#
#
# Elastic Compliance Matrix: (Units=1/GPa)
#
#
# Indices 1 2 3 4 5 6 
#
# 1 0.019496 0.000548 -0.012984 0.000000 0.000000 0.000000
# 2 0.000548 0.032278 -0.006793 0.000000 0.000000 0.000000
# 3 -0.012984 -0.006793 0.025162 0.000000 0.000000 0.000000
# 4 0.000000 0.000000 0.000000 0.040870 0.000000 0.000000
# 5 0.000000 0.000000 0.000000 0.000000 0.030234 0.000000
# 6 0.000000 0.000000 0.000000 0.000000 0.000000 0.051556
#
#
# Mechanical properties :
#
#
# Convention : Reuss Voigt Hill
#
# Bulk Modulus (GPa) = 25.98902 34.17481 30.08191
# Shear Modulus (GPa) = 19.92972 23.05397 21.49185
#
# Velocity S-wave (km/s) = 3.40482 3.66198 3.53574
# Velocity P-wave (km/s) = 5.52942 6.14484 5.84523
#
# Compressibility (1/GPa) = 0.03847779
#
# Stress axis : x y z
#
# Youngs Moduli (GPa) = 51.29247 30.98056 39.74216
#
# Poissons Ratio (x) = -0.01697 0.51601
# Poissons Ratio (y) = -0.02809 0.26997
# Poissons Ratio (z) = 0.66598 0.21045
#
# Static dielectric constant tensor:
#      x y z
#    x 1.585270 0.000000 0.000000 
#    y 0.000000 1.580450 0.000000 
#    z 0.000000 0.000000 1.592340 
# 
# From -- ./inp_files/26088.got.cif
#   From: 2010.05.17/outbox.cif.g08.bks.cpg/sg69_14_cif.got.tgz:26088.got - 2010.06.03 19:29:58.
