data_PCOD9511629
_publ_section_title
;
Structure prediction by ZEFSAII (Michael W. Deem and Ramdas Pophale) SiO2 
 PCOD9511629
Probable space group: F M M M
;
_chemical_formula_sum "Si O2"
_cell_formula_units_Z 144
_cell_length_a 16.572286
_cell_length_b 13.367428
_cell_length_c 37.593528
_cell_angle_alpha 90.000000
_cell_angle_beta 90.000000
_cell_angle_gamma 90.000000
_cell_volume 8328.050646
_symmetry_space_group_name_H-M "F M M M"
_symmetry_group_IT_number 69
_symmetry_cell_setting 'orthorhombic'
loop_
_space_group_symop_operation_xyz
x,y,z
-x,-y,z
x,-y,-z
-x,y,-z
-x,-y,-z
x,y,-z
-x,y,z
x,-y,z
x,1/2+y,1/2+z
-x,1/2-y,1/2+z
x,1/2-y,1/2-z
-x,1/2+y,1/2-z
-x,1/2-y,1/2-z
x,1/2+y,1/2-z
-x,1/2+y,1/2+z
x,1/2-y,1/2+z
1/2+x,y,1/2+z
1/2-x,-y,1/2+z
1/2+x,-y,1/2-z
1/2-x,y,1/2-z
1/2-x,-y,1/2-z
1/2+x,y,1/2-z
1/2-x,y,1/2+z
1/2+x,-y,1/2+z
1/2+x,1/2+y,z
1/2-x,1/2-y,z
1/2+x,1/2-y,-z
1/2-x,1/2+y,-z
1/2-x,1/2-y,-z
1/2+x,1/2+y,-z
1/2-x,1/2+y,z
1/2+x,1/2-y,z
loop_
_atom_site_type_symbol
_atom_site_label
_atom_site_fract_x
_atom_site_fract_y
_atom_site_fract_z
Si Si1 0.750000 0.250000 0.666221
Si Si2 0.500000 0.878361 0.657303
Si Si3 0.170911 0.381705 0.224107
Si Si4 0.342378 0.619768 0.886411
Si Si5 0.500000 0.880234 0.737786
Si Si6 0.594468 0.878319 0.539721
O O1 0.813768 0.196550 0.692454
O O2 0.724613 0.163445 0.639093
O O3 0.422945 0.849623 0.634584
O O4 0.500000 0.839725 0.697520
O O5 0.500000 0.000000 0.658860
O O6 0.169255 0.500000 0.213297
O O7 0.250000 0.372820 0.250000
O O8 0.085090 0.358907 0.242829
O O9 0.337558 0.500000 0.887201
O O10 0.351624 0.655554 0.927084
O O11 0.500000 0.000000 0.734527
O O12 0.618042 0.844962 0.500000
O O13 0.500000 0.851818 0.545571
O O14 0.596414 0.000000 0.539703
#
# Coordination Sequence:
#
# PCOD9511629 Si02
#       6
#    16  16  32  32  16  32
#     4  12  23  32  47  70 100 136 164 198 245 300
#     4   9  16  29  50  71  90 115 151 202 254 290
#     4  10  21  38  54  70  95 129 172 218 256 295
#     4  10  19  32  48  71 100 126 155 196 245 292
#     4   9  18  33  53  70  89 126 170 207 247 293
#     4   8  13  25  48  74  97 122 153 192 241 294
#
# _framework density 17.290960999999999
#
# number of rings (size 3 to 8) (size 9 to 14) (size 15 to 20)
#    0.000    2.444    1.111    3.000    0.000    4.444 
#    0.000    3.889    0.000    0.000    0.000    0.000 
#    0.000    0.000    0.000    5.333    0.000    0.889 
#
# Total GULP energy -200432.333139 kJ/mol
# GULP energy per Si atom -5567.564809 kJ/mol
# Density = 1.725161 g / cm^3
# Si number density = 17.290961 Si / 1000 Ang^3
#
#
#
# Elastic Constant Matrix: (Units=GPa)
#
#
# Indices 1 2 3 4 5 6 
#
# 1 67.7975 2.2057 50.9022 0.0000 0.0000 0.0000
# 2 2.2057 44.4324 28.7877 0.0000 0.0000 0.0000
# 3 50.9022 28.7877 160.6013 0.0000 0.0000 0.0000
# 4 0.0000 0.0000 0.0000 14.5736 0.0000 0.0000
# 5 0.0000 0.0000 0.0000 0.0000 17.3212 0.0000
# 6 0.0000 0.0000 0.0000 0.0000 0.0000 -8.9640
#
#
#
# Elastic Compliance Matrix: (Units=1/GPa)
#
#
# Indices 1 2 3 4 5 6 
#
# 1 0.019823 0.003492 -0.006909 0.000000 0.000000 0.000000
# 2 0.003492 0.026079 -0.005781 0.000000 0.000000 0.000000
# 3 -0.006909 -0.005781 0.009453 0.000000 0.000000 0.000000
# 4 0.000000 0.000000 0.000000 0.068617 0.000000 0.000000
# 5 0.000000 0.000000 0.000000 0.000000 0.057733 0.000000
# 6 0.000000 0.000000 0.000000 0.000000 0.000000 -0.111558
#
#
# Mechanical properties :
#
#
# Convention : Reuss Voigt Hill
#
# Bulk Modulus (GPa) = 27.05744 48.51359 37.78551
# Shear Modulus (GPa) = 49.57241 17.31521 33.44381
#
# Velocity S-wave (km/s) = 5.36020 3.16793 4.40270
# Velocity P-wave (km/s) = 7.34788 6.44198 6.90979
#
# Compressibility (1/GPa) = 0.03695841
#
# Stress axis : x y z
#
# Youngs Moduli (GPa) = 50.44536 38.34568 105.78980
#
# Poissons Ratio (x) = -0.13391 0.73090
# Poissons Ratio (y) = -0.17617 0.61162
# Poissons Ratio (z) = 0.34853 0.22169
#
# Static dielectric constant tensor:
#      x y z
#    x 1.607660 0.000000 0.000000 
#    y 0.000000 1.601370 0.000000 
#    z 0.000000 0.000000 1.599020 
# 
# From -- ./inp_files/46195.got.cif
#   From: 2010.05.17/outbox.cif.g08.bks.cpg/sg69_24_cif.got.tgz:46195.got - 2010.06.03 19:29:58.
