data_PCOD9511641
_publ_section_title
;
Structure prediction by ZEFSAII (Michael W. Deem and Ramdas Pophale) SiO2 
 PCOD9511641
Probable space group: F M M M
;
_chemical_formula_sum "Si O2"
_cell_formula_units_Z 144
_cell_length_a 27.829630
_cell_length_b 32.797470
_cell_length_c 8.765889
_cell_angle_alpha 90.000000
_cell_angle_beta 90.000000
_cell_angle_gamma 90.000000
_cell_volume 8000.990281
_symmetry_space_group_name_H-M "F M M M"
_symmetry_group_IT_number 69
_symmetry_cell_setting 'orthorhombic'
loop_
_space_group_symop_operation_xyz
x,y,z
-x,-y,z
x,-y,-z
-x,y,-z
-x,-y,-z
x,y,-z
-x,y,z
x,-y,z
x,1/2+y,1/2+z
-x,1/2-y,1/2+z
x,1/2-y,1/2-z
-x,1/2+y,1/2-z
-x,1/2-y,1/2-z
x,1/2+y,1/2-z
-x,1/2+y,1/2+z
x,1/2-y,1/2+z
1/2+x,y,1/2+z
1/2-x,-y,1/2+z
1/2+x,-y,1/2-z
1/2-x,y,1/2-z
1/2-x,-y,1/2-z
1/2+x,y,1/2-z
1/2-x,y,1/2+z
1/2+x,-y,1/2+z
1/2+x,1/2+y,z
1/2-x,1/2-y,z
1/2+x,1/2-y,-z
1/2-x,1/2+y,-z
1/2-x,1/2-y,-z
1/2+x,1/2+y,-z
1/2-x,1/2+y,z
1/2+x,1/2-y,z
loop_
_atom_site_type_symbol
_atom_site_label
_atom_site_fract_x
_atom_site_fract_y
_atom_site_fract_z
Si Si1 0.196602 0.000000 0.315173
Si Si2 0.697708 0.331578 0.683031
Si Si3 0.945793 0.877210 0.183751
Si Si4 0.896349 0.292614 0.682576
Si Si5 0.147139 0.916061 0.316638
O O1 0.250000 0.000000 0.250000
O O2 0.169209 0.041069 0.266185
O O3 0.198798 0.000000 0.500000
O O4 0.698345 0.328283 0.500000
O O5 0.750000 0.322905 0.750000
O O6 0.656305 0.302778 0.750584
O O7 0.681233 0.377761 0.725496
O O8 0.929720 0.831117 0.224781
O O9 0.905242 0.906671 0.250281
O O10 0.000000 0.885572 0.235558
O O11 0.944549 0.879806 0.000000
O O12 0.893790 0.290318 0.500000
O O13 0.913735 0.250000 0.750000
O O14 0.143963 0.916338 0.500000
#
# Coordination Sequence:
#
# PCOD9511641 Si02
#       5
#    16  32  32  32  32
#     4  10  20  34  53  80 111 139 170 207 249 296
#     4  10  19  32  50  72  99 133 171 207 249 300
#     4   9  19  36  56  76 100 132 169 209 253 300
#     4  10  20  34  51  73 101 130 164 208 254 300
#     4   9  19  34  52  76 105 135 169 209 250 298
#
# _framework density 17.997772000000001
#
# number of rings (size 3 to 8) (size 9 to 14) (size 15 to 20)
#    0.000    2.444    0.000    2.000    0.000    4.000 
#    0.000    2.778    0.000    3.333    0.000    0.000 
#    0.000    0.000    0.000    0.000    0.000    0.000 
#
# Total GULP energy -200931.903432 kJ/mol
# GULP energy per Si atom -5581.441762 kJ/mol
# Density = 1.795681 g / cm^3
# Si number density = 17.997772 Si / 1000 Ang^3
#
#
#
# Elastic Constant Matrix: (Units=GPa)
#
#
# Indices 1 2 3 4 5 6 
#
# 1 116.6090 34.3849 19.0755 0.0026 0.0007 -0.0093
# 2 34.3849 102.0043 19.2518 0.0044 -0.0078 -0.0138
# 3 19.0755 19.2518 22.9843 -0.0079 0.0148 -0.0125
# 4 0.0026 0.0044 -0.0079 23.0970 -0.0005 -0.0069
# 5 0.0007 -0.0078 0.0148 -0.0005 28.8134 0.0117
# 6 -0.0093 -0.0138 -0.0125 -0.0069 0.0117 8.2459
#
#
#
# Elastic Compliance Matrix: (Units=1/GPa)
#
#
# Indices 1 2 3 4 5 6 
#
# 1 0.010327 -0.002214 -0.006717 -0.000003 0.000003 -0.000002
# 2 -0.002214 0.012119 -0.008314 -0.000005 0.000008 0.000005
# 3 -0.006717 -0.008314 0.056046 0.000021 -0.000031 0.000064
# 4 -0.000003 -0.000005 0.000021 0.043296 0.000001 0.000036
# 5 0.000003 0.000008 -0.000031 0.000001 0.034706 -0.000049
# 6 -0.000002 0.000005 0.000064 0.000036 -0.000049 0.121272
#
#
# Mechanical properties :
#
#
# Convention : Reuss Voigt Hill
#
# Bulk Modulus (GPa) = 22.72518 43.00244 32.86381
# Shear Modulus (GPa) = 15.29415 23.29027 19.29221
#
# Velocity S-wave (km/s) = 2.91826 3.60121 3.27757
# Velocity P-wave (km/s) = 4.89991 6.42158 5.71165
#
# Compressibility (1/GPa) = 0.04400405
#
# Stress axis : x y z
#
# Youngs Moduli (GPa) = 96.83224 82.51668 17.84242
#
# Poissons Ratio (x) = 0.18265 0.11984
# Poissons Ratio (y) = 0.21434 0.14834
# Poissons Ratio (z) = 0.65040 0.68602
#
# Static dielectric constant tensor:
#      x y z
#    x 1.585460 0.000000 0.000000 
#    y 0.000000 1.618840 0.000000 
#    z 0.000000 0.000000 1.603230 
# 
# From -- ./inp_files/5548.got.cif
#   From: 2010.05.17/outbox.cif.g08.bks.cpg/sg69_3_cif.got.tgz:5548.got - 2010.06.03 19:29:58.
