data_PCOD9511637
_publ_section_title
;
Structure prediction by ZEFSAII (Michael W. Deem and Ramdas Pophale) SiO2 
 PCOD9511637
Probable space group: F M M M
;
_chemical_formula_sum "Si O2"
_cell_formula_units_Z 176
_cell_length_a 18.386956
_cell_length_b 19.706227
_cell_length_c 28.773688
_cell_angle_alpha 90.000000
_cell_angle_beta 90.000000
_cell_angle_gamma 90.000000
_cell_volume 10425.787004
_symmetry_space_group_name_H-M "F M M M"
_symmetry_group_IT_number 69
_symmetry_cell_setting 'orthorhombic'
loop_
_space_group_symop_operation_xyz
x,y,z
-x,-y,z
x,-y,-z
-x,y,-z
-x,-y,-z
x,y,-z
-x,y,z
x,-y,z
x,1/2+y,1/2+z
-x,1/2-y,1/2+z
x,1/2-y,1/2-z
-x,1/2+y,1/2-z
-x,1/2-y,1/2-z
x,1/2+y,1/2-z
-x,1/2+y,1/2+z
x,1/2-y,1/2+z
1/2+x,y,1/2+z
1/2-x,-y,1/2+z
1/2+x,-y,1/2-z
1/2-x,y,1/2-z
1/2-x,-y,1/2-z
1/2+x,y,1/2-z
1/2-x,y,1/2+z
1/2+x,-y,1/2+z
1/2+x,1/2+y,z
1/2-x,1/2-y,z
1/2+x,1/2-y,-z
1/2-x,1/2+y,-z
1/2-x,1/2-y,-z
1/2+x,1/2+y,-z
1/2-x,1/2+y,z
1/2+x,1/2-y,z
loop_
_atom_site_type_symbol
_atom_site_label
_atom_site_fract_x
_atom_site_fract_y
_atom_site_fract_z
Si Si1 0.364766 0.831837 0.444885
Si Si2 0.802670 0.078672 0.205497
Si Si3 0.417538 0.283944 0.616618
Si Si4 0.584708 0.696731 0.788464
Si Si5 0.500000 0.923312 0.556568
Si Si6 0.763908 0.670603 0.126262
O O1 0.355489 0.835636 0.500000
O O2 0.400284 0.761102 0.428641
O O3 0.425795 0.886080 0.429154
O O4 0.288141 0.838579 0.418472
O O5 0.750000 0.080529 0.250000
O O6 0.871980 0.126859 0.213557
O O7 0.761763 0.116603 0.163719
O O8 0.820173 0.000000 0.195515
O O9 0.500000 0.310235 0.616276
O O10 0.411251 0.233047 0.661137
O O11 0.350284 0.335198 0.619408
O O12 0.500000 0.684654 0.778232
O O13 0.613375 0.750000 0.750000
O O14 0.500000 0.922241 0.500000
O O15 0.500000 0.000000 0.572952
O O16 0.750000 0.750000 0.140851
#
# Coordination Sequence:
#
# PCOD9511637 Si02
#       6
#    32  32  32  32  16  32
#     4  10  19  32  49  77 113 144 182 228 269 326
#     4  11  23  36  54  82 109 140 181 234 287 332
#     4  10  19  33  53  79 103 137 190 225 274 324
#     4  10  20  35  56  80 106 143 186 225 268 330
#     4   9  18  32  50  74 109 154 185 211 274 345
#     4  10  20  35  54  77 105 147 186 226 273 338
#
# _framework density 16.881219999999999
#
# number of rings (size 3 to 8) (size 9 to 14) (size 15 to 20)
#    0.000    1.909    4.545    1.091    0.000    4.364 
#    0.000    0.000    0.000    1.636    0.000    0.000 
#    0.000    0.000    0.000   12.909    0.000    0.000 
#
# Total GULP energy -245243.566954 kJ/mol
# GULP energy per Si atom -5573.717431 kJ/mol
# Density = 1.684280 g / cm^3
# Si number density = 16.881220 Si / 1000 Ang^3
#
#
#
# Elastic Constant Matrix: (Units=GPa)
#
#
# Indices 1 2 3 4 5 6 
#
# 1 149.0174 62.9582 36.5011 0.0000 0.0000 0.0000
# 2 62.9582 107.4351 41.8525 0.0000 0.0000 0.0000
# 3 36.5011 41.8525 71.0378 0.0000 0.0000 0.0000
# 4 0.0000 0.0000 0.0000 16.8341 0.0000 0.0000
# 5 0.0000 0.0000 0.0000 0.0000 20.5047 0.0000
# 6 0.0000 0.0000 0.0000 0.0000 0.0000 5.8579
#
#
#
# Elastic Compliance Matrix: (Units=1/GPa)
#
#
# Indices 1 2 3 4 5 6 
#
# 1 0.009132 -0.004573 -0.001998 0.000000 0.000000 0.000000
# 2 -0.004573 0.014371 -0.006117 0.000000 0.000000 0.000000
# 3 -0.001998 -0.006117 0.018707 0.000000 0.000000 0.000000
# 4 0.000000 0.000000 0.000000 0.059403 0.000000 0.000000
# 5 0.000000 0.000000 0.000000 0.000000 0.048769 0.000000
# 6 0.000000 0.000000 0.000000 0.000000 0.000000 0.170709
#
#
# Mechanical properties :
#
#
# Convention : Reuss Voigt Hill
#
# Bulk Modulus (GPa) = 59.40259 67.79042 63.59650
# Shear Modulus (GPa) = 14.20136 21.05125 17.62630
#
# Velocity S-wave (km/s) = 2.90358 3.53515 3.23482
# Velocity P-wave (km/s) = 6.81953 7.54371 7.19074
#
# Compressibility (1/GPa) = 0.01683428
#
# Stress axis : x y z
#
# Youngs Moduli (GPa) = 109.50325 69.58577 53.45479
#
# Poissons Ratio (x) = 0.31823 0.10680
# Poissons Ratio (y) = 0.50078 0.32697
# Poissons Ratio (z) = 0.21879 0.42564
#
# Static dielectric constant tensor:
#      x y z
#    x 1.612950 0.000000 0.000000 
#    y 0.000000 1.548610 0.000000 
#    z 0.000000 0.000000 1.589290 
# 
# From -- ./inp_files/46345.got.cif
#   From: 2010.05.17/outbox.cif.g08.bks.cpg/sg69_24_cif.got.tgz:46345.got - 2010.06.03 19:29:58.
