data_PCOD9511858
_publ_section_title
;
Structure prediction by ZEFSAII (Michael W. Deem and Ramdas Pophale) SiO2 
 PCOD9511858
Probable space group: F M M M
;
_chemical_formula_sum "Si O2"
_cell_formula_units_Z 160
_cell_length_a 24.728510
_cell_length_b 11.430987
_cell_length_c 28.742253
_cell_angle_alpha 90.000000
_cell_angle_beta 90.000000
_cell_angle_gamma 90.000000
_cell_volume 8124.609340
_symmetry_space_group_name_H-M "F M M M"
_symmetry_group_IT_number 69
_symmetry_cell_setting 'orthorhombic'
loop_
_space_group_symop_operation_xyz
x,y,z
-x,-y,z
x,-y,-z
-x,y,-z
-x,-y,-z
x,y,-z
-x,y,z
x,-y,z
x,1/2+y,1/2+z
-x,1/2-y,1/2+z
x,1/2-y,1/2-z
-x,1/2+y,1/2-z
-x,1/2-y,1/2-z
x,1/2+y,1/2-z
-x,1/2+y,1/2+z
x,1/2-y,1/2+z
1/2+x,y,1/2+z
1/2-x,-y,1/2+z
1/2+x,-y,1/2-z
1/2-x,y,1/2-z
1/2-x,-y,1/2-z
1/2+x,y,1/2-z
1/2-x,y,1/2+z
1/2+x,-y,1/2+z
1/2+x,1/2+y,z
1/2-x,1/2-y,z
1/2+x,1/2-y,-z
1/2-x,1/2+y,-z
1/2-x,1/2-y,-z
1/2+x,1/2+y,-z
1/2-x,1/2+y,z
1/2+x,1/2-y,z
loop_
_atom_site_type_symbol
_atom_site_label
_atom_site_fract_x
_atom_site_fract_y
_atom_site_fract_z
Si Si1 0.613324 0.301178 0.802147
Si Si2 0.500000 0.142757 0.946377
Si Si3 0.725728 0.368383 0.426189
Si Si4 0.105851 0.637435 0.109903
Si Si5 0.000000 0.125827 0.777181
Si Si6 0.769248 0.375728 0.320329
O O1 0.618542 0.250000 0.750000
O O2 0.611319 0.200515 0.840870
O O3 0.556280 0.367876 0.804549
O O4 0.666677 0.373787 0.813436
O O5 0.446024 0.179823 0.919074
O O6 0.500000 0.000000 0.947031
O O7 0.500000 0.181361 0.000000
O O8 0.733641 0.500000 0.446185
O O9 0.750000 0.250000 0.448068
O O10 0.661680 0.349507 0.418411
O O11 0.752582 0.373912 0.374615
O O12 0.098655 0.500000 0.118535
O O13 0.000000 0.250000 0.750000
O O14 0.000000 0.000000 0.750809
O O15 0.746437 0.500000 0.302129
O O16 0.750000 0.250000 0.301325
#
# Coordination Sequence:
#
# PCOD9511858 Si02
#       6
#    32  16  32  32  16  32
#     4  11  22  35  53  79 111 153 200 239 279 334
#     4   9  19  36  61  89 113 141 186 243 301 362
#     4   9  16  30  51  75 109 151 192 233 279 332
#     4  10  19  34  55  82 116 154 192 240 299 343
#     4  10  23  40  54  71 101 142 194 249 293 336
#     4  10  19  34  51  72 107 152 198 241 276 318
#
# _framework density 19.693255000000001
#
# number of rings (size 3 to 8) (size 9 to 14) (size 15 to 20)
#    0.000    2.100    4.000    1.200    0.000    4.400 
#    0.000    2.000    0.000    0.600    0.000    0.000 
#    0.000   23.200    0.000    0.000    0.000    0.200 
#
# Total GULP energy -222814.660353 kJ/mol
# GULP energy per Si atom -5570.366509 kJ/mol
# Density = 1.964843 g / cm^3
# Si number density = 19.693255 Si / 1000 Ang^3
#
#
#
# Elastic Constant Matrix: (Units=GPa)
#
#
# Indices 1 2 3 4 5 6 
#
# 1 136.6811 46.1102 21.6122 0.0000 0.0000 0.0000
# 2 46.1102 175.3131 32.7667 0.0000 0.0000 0.0000
# 3 21.6122 32.7667 91.1780 0.0000 0.0000 0.0000
# 4 0.0000 0.0000 0.0000 -15.3266 0.0000 0.0000
# 5 0.0000 0.0000 0.0000 0.0000 342.9503 0.0000
# 6 0.0000 0.0000 0.0000 0.0000 0.0000 24.2759
#
#
#
# Elastic Compliance Matrix: (Units=1/GPa)
#
#
# Indices 1 2 3 4 5 6 
#
# 1 0.008159 -0.001913 -0.001246 0.000000 0.000000 0.000000
# 2 -0.001913 0.006563 -0.001905 0.000000 0.000000 0.000000
# 3 -0.001246 -0.001905 0.011948 0.000000 0.000000 0.000000
# 4 0.000000 0.000000 0.000000 -0.065246 0.000000 0.000000
# 5 0.000000 0.000000 0.000000 0.000000 0.002916 0.000000
# 6 0.000000 0.000000 0.000000 0.000000 0.000000 0.041193
#
#
# Mechanical properties :
#
#
# Convention : Reuss Voigt Hill
#
# Bulk Modulus (GPa) = 60.45753 67.12782 63.79268
# Shear Modulus (GPa) = 236.12229 90.55879 163.34054
#
# Velocity S-wave (km/s) = 10.96177 6.78856 9.11715
# Velocity P-wave (km/s) = 13.81955 9.77787 11.97052
#
# Compressibility (1/GPa) = 0.01654054
#
# Stress axis : x y z
#
# Youngs Moduli (GPa) = 122.56822 152.36228 83.69819
#
# Poissons Ratio (x) = 0.29146 0.10432
# Poissons Ratio (y) = 0.23446 0.15947
# Poissons Ratio (z) = 0.15277 0.29029
#
# Static dielectric constant tensor:
#      x y z
#    x 1.707650 0.000000 0.000000 
#    y 0.000000 1.786200 0.000000 
#    z 0.000000 0.000000 1.659780 
# 
# From -- ./inp_files/46966.got.cif
#   From: 2010.05.17/outbox.cif.g08.bks.cpg/sg69_24_cif.got.tgz:46966.got - 2010.06.03 19:29:58.
