data_PCOD9511963
_publ_section_title
;
Structure prediction by ZEFSAII (Michael W. Deem and Ramdas Pophale) SiO2 
 PCOD9511963
Probable space group: F M M M
;
_chemical_formula_sum "Si O2"
_cell_formula_units_Z 192
_cell_length_a 16.656242
_cell_length_b 21.193468
_cell_length_c 28.134530
_cell_angle_alpha 90.000000
_cell_angle_beta 90.000000
_cell_angle_gamma 90.000000
_cell_volume 9931.588456
_symmetry_space_group_name_H-M "F M M M"
_symmetry_group_IT_number 69
_symmetry_cell_setting 'orthorhombic'
loop_
_space_group_symop_operation_xyz
x,y,z
-x,-y,z
x,-y,-z
-x,y,-z
-x,-y,-z
x,y,-z
-x,y,z
x,-y,z
x,1/2+y,1/2+z
-x,1/2-y,1/2+z
x,1/2-y,1/2-z
-x,1/2+y,1/2-z
-x,1/2-y,1/2-z
x,1/2+y,1/2-z
-x,1/2+y,1/2+z
x,1/2-y,1/2+z
1/2+x,y,1/2+z
1/2-x,-y,1/2+z
1/2+x,-y,1/2-z
1/2-x,y,1/2-z
1/2-x,-y,1/2-z
1/2+x,y,1/2-z
1/2-x,y,1/2+z
1/2+x,-y,1/2+z
1/2+x,1/2+y,z
1/2-x,1/2-y,z
1/2+x,1/2-y,-z
1/2-x,1/2+y,-z
1/2-x,1/2-y,-z
1/2+x,1/2+y,-z
1/2-x,1/2+y,z
1/2+x,1/2-y,z
loop_
_atom_site_type_symbol
_atom_site_label
_atom_site_fract_x
_atom_site_fract_y
_atom_site_fract_z
Si Si1 0.597045 0.573026 0.208204
Si Si2 0.852390 0.367457 0.611207
Si Si3 0.903379 0.776434 0.619287
Si Si4 0.590679 0.000000 0.057549
Si Si5 0.902451 0.186049 0.723234
Si Si6 0.315138 0.872992 0.056938
Si Si7 0.000000 0.072917 0.056686
O O1 0.500000 0.579955 0.200307
O O2 0.612076 0.500000 0.220198
O O3 0.640773 0.593301 0.159838
O O4 0.621058 0.623081 0.248734
O O5 0.871742 0.294656 0.622126
O O6 0.768843 0.372945 0.584152
O O7 0.922061 0.393433 0.577216
O O8 0.878445 0.811029 0.668243
O O9 0.866018 0.813440 0.575147
O O10 0.000000 0.775380 0.616377
O O11 0.637007 0.063503 0.070542
O O12 0.500000 0.000000 0.076347
O O13 0.586546 0.000000 0.000000
O O14 0.875176 0.250000 0.750000
O O15 0.000000 0.187785 0.723848
O O16 0.304346 0.871656 0.000000
O O17 0.000000 0.000000 0.072453
O O18 0.000000 0.074860 0.000000
#
# Coordination Sequence:
#
# PCOD9511963 Si02
#       7
#    32  32  32  16  32  32  16
#     4  10  19  34  61  95 129 167 208 254 313 387
#     4  12  22  39  62  94 130 170 214 256 321 391
#     4  11  22  41  66  92 123 167 219 266 322 384
#     4   9  20  44  70  89 114 165 223 262 313 377
#     4   9  17  34  61  90 122 161 210 261 308 379
#     4  11  26  43  63  91 128 166 212 275 326 371
#     4  11  24  38  58  91 132 171 213 258 310 389
#
# _framework density 19.332253999999999
#
# number of rings (size 3 to 8) (size 9 to 14) (size 15 to 20)
#    0.000    1.500    3.333    2.000    2.333    3.000 
#    1.500    0.833    0.000    1.000    0.000    0.000 
#    0.000    0.000    0.000    0.000    0.000    0.000 
#
# Total GULP energy -268250.837781 kJ/mol
# GULP energy per Si atom -5588.559120 kJ/mol
# Density = 1.928825 g / cm^3
# Si number density = 19.332254 Si / 1000 Ang^3
#
#
#
# Elastic Constant Matrix: (Units=GPa)
#
#
# Indices 1 2 3 4 5 6 
#
# 1 98.0316 43.8325 46.3256 0.0000 0.0000 0.0000
# 2 43.8325 146.2030 61.0754 0.0000 0.0000 0.0000
# 3 46.3256 61.0754 100.9852 0.0000 0.0000 0.0000
# 4 0.0000 0.0000 0.0000 36.0956 0.0000 0.0000
# 5 0.0000 0.0000 0.0000 0.0000 23.8831 0.0000
# 6 0.0000 0.0000 0.0000 0.0000 0.0000 6.4423
#
#
#
# Elastic Compliance Matrix: (Units=1/GPa)
#
#
# Indices 1 2 3 4 5 6 
#
# 1 0.013424 -0.001943 -0.004983 0.000000 0.000000 0.000000
# 2 -0.001943 0.009433 -0.004814 0.000000 0.000000 0.000000
# 3 -0.004983 -0.004814 0.015100 0.000000 0.000000 0.000000
# 4 0.000000 0.000000 0.000000 0.027704 0.000000 0.000000
# 5 0.000000 0.000000 0.000000 0.000000 0.041871 0.000000
# 6 0.000000 0.000000 0.000000 0.000000 0.000000 0.155225
#
#
# Mechanical properties :
#
#
# Convention : Reuss Voigt Hill
#
# Bulk Modulus (GPa) = 69.07310 71.96521 70.51915
# Shear Modulus (GPa) = 17.17840 26.21662 21.69751
#
# Velocity S-wave (km/s) = 2.98415 3.68653 3.35378
# Velocity P-wave (km/s) = 6.90511 7.44493 7.18010
#
# Compressibility (1/GPa) = 0.01447742
#
# Stress axis : x y z
#
# Youngs Moduli (GPa) = 74.49132 106.00733 66.22616
#
# Poissons Ratio (x) = 0.20598 0.33001
# Poissons Ratio (y) = 0.14474 0.31880
# Poissons Ratio (z) = 0.37120 0.51031
#
# Static dielectric constant tensor:
#      x y z
#    x 1.654520 0.000000 0.000000 
#    y 0.000000 1.661060 0.000000 
#    z 0.000000 0.000000 1.662560 
# 
# From -- ./inp_files/46406.got.cif
#   From: 2010.05.17/outbox.cif.g08.bks.cpg/sg69_24_cif.got.tgz:46406.got - 2010.06.03 19:29:58.
