data_PCOD9511395
_publ_section_title
;
Structure prediction by ZEFSAII (Michael W. Deem and Ramdas Pophale) SiO2 
 PCOD9511395
Probable space group: F M M M
;
_chemical_formula_sum "Si O2"
_cell_formula_units_Z 192
_cell_length_a 16.368477
_cell_length_b 20.062205
_cell_length_c 29.527417
_cell_angle_alpha 90.000000
_cell_angle_beta 90.000000
_cell_angle_gamma 90.000000
_cell_volume 9696.441769
_symmetry_space_group_name_H-M "F M M M"
_symmetry_group_IT_number 69
_symmetry_cell_setting 'orthorhombic'
loop_
_space_group_symop_operation_xyz
x,y,z
-x,-y,z
x,-y,-z
-x,y,-z
-x,-y,-z
x,y,-z
-x,y,z
x,-y,z
x,1/2+y,1/2+z
-x,1/2-y,1/2+z
x,1/2-y,1/2-z
-x,1/2+y,1/2-z
-x,1/2-y,1/2-z
x,1/2+y,1/2-z
-x,1/2+y,1/2+z
x,1/2-y,1/2+z
1/2+x,y,1/2+z
1/2-x,-y,1/2+z
1/2+x,-y,1/2-z
1/2-x,y,1/2-z
1/2-x,-y,1/2-z
1/2+x,y,1/2-z
1/2-x,y,1/2+z
1/2+x,-y,1/2+z
1/2+x,1/2+y,z
1/2-x,1/2-y,z
1/2+x,1/2-y,-z
1/2-x,1/2+y,-z
1/2-x,1/2-y,-z
1/2+x,1/2+y,-z
1/2-x,1/2+y,z
1/2+x,1/2-y,z
loop_
_atom_site_type_symbol
_atom_site_label
_atom_site_fract_x
_atom_site_fract_y
_atom_site_fract_z
Si Si1 0.128666 0.356074 0.370934
Si Si2 0.904794 0.256885 0.801826
Si Si3 0.845970 0.737001 0.449571
Si Si4 0.319809 0.377505 0.643856
Si Si5 0.595673 0.887712 0.949664
Si Si6 0.765811 0.000000 0.302258
Si Si7 0.587816 0.500000 0.848120
O O1 0.101637 0.314411 0.326859
O O2 0.111566 0.310774 0.414115
O O3 0.226518 0.361405 0.368231
O O4 0.092352 0.429742 0.374112
O O5 0.873121 0.250000 0.750000
O O6 0.860410 0.312056 0.833440
O O7 0.000000 0.276320 0.799115
O O8 0.846762 0.708155 0.500000
O O9 0.750000 0.750000 0.438353
O O10 0.890404 0.807976 0.450063
O O11 0.361042 0.405459 0.597695
O O12 0.314340 0.435604 0.680737
O O13 0.500000 0.903851 0.946961
O O14 0.625379 0.911319 0.000000
O O15 0.750000 0.000000 0.250000
O O16 0.673711 0.000000 0.322055
O O17 0.500000 0.500000 0.823030
#
# Coordination Sequence:
#
# PCOD9511395 Si02
#       7
#    32  32  32  32  32  16  16
#     4  11  21  38  60  88 120 161 209 257 310 372
#     4  11  24  38  58  89 122 157 207 267 324 377
#     4  10  18  32  58  91 123 158 202 252 311 374
#     4  11  22  39  62  88 122 164 207 262 315 380
#     4  10  20  35  58  91 128 162 202 258 325 387
#     4  10  26  46  65  92 123 165 212 251 307 381
#     4  10  24  42  63  84 120 168 209 252 308 370
#
# _framework density 19.801078
#
# number of rings (size 3 to 8) (size 9 to 14) (size 15 to 20)
#    0.000    1.500    3.333    1.500    4.667    1.333 
#    0.000    3.333    0.000    4.500    0.000    0.000 
#    0.000    0.000    0.000    0.000    0.000    0.000 
#
# Total GULP energy -267689.429767 kJ/mol
# GULP energy per Si atom -5576.863120 kJ/mol
# Density = 1.975601 g / cm^3
# Si number density = 19.801078 Si / 1000 Ang^3
#
#
#
# Elastic Constant Matrix: (Units=GPa)
#
#
# Indices 1 2 3 4 5 6 
#
# 1 74.0763 1.8232 15.5223 0.0000 0.0000 0.0000
# 2 1.8232 88.8968 48.1424 0.0000 0.0000 0.0000
# 3 15.5223 48.1424 149.0780 0.0000 0.0000 0.0000
# 4 0.0000 0.0000 0.0000 19.0057 0.0000 0.0000
# 5 0.0000 0.0000 0.0000 0.0000 21.0640 0.0000
# 6 0.0000 0.0000 0.0000 0.0000 0.0000**********
#
#
#
# Elastic Compliance Matrix: (Units=1/GPa)
#
#
# Indices 1 2 3 4 5 6 
#
# 1 0.013827 0.000601 -0.001634 0.000000 0.000000 0.000000
# 2 0.000601 0.013659 -0.004474 0.000000 0.000000 0.000000
# 3 -0.001634 -0.004474 0.008323 0.000000 0.000000 0.000000
# 4 0.000000 0.000000 0.000000 0.052616 0.000000 0.000000
# 5 0.000000 0.000000 0.000000 0.000000 0.047474 0.000000
# 6 0.000000 0.000000 0.000000 0.000000 0.000000 -0.000093
#
#
# Mechanical properties :
#
#
# Convention : Reuss Voigt Hill
#
# Bulk Modulus (GPa) = 40.32802 49.22522 44.77662
# Shear Modulus (GPa) = 32.24035 -2133.90303 -1050.83134
#
# Velocity S-wave (km/s) = 4.03949 -32.86350 -23.06179
# Velocity P-wave (km/s) = 6.49364 37.61780 26.20049
#
# Compressibility (1/GPa) = 0.02479665
#
# Stress axis : x y z
#
# Youngs Moduli (GPa) = 72.32138 73.20961 120.15286
#
# Poissons Ratio (x) = -0.04402 0.19632
# Poissons Ratio (y) = -0.04348 0.53753
# Poissons Ratio (z) = 0.11816 0.32752
#
# Static dielectric constant tensor:
#      x y z
#    x 1.701130 0.000000 0.000000 
#    y 0.000000 1.715930 0.000000 
#    z 0.000000 0.000000 1.724840 
# 
# From -- ./inp_files/46439.got.cif
#   From: 2010.05.17/outbox.cif.g08.bks.cpg/sg69_24_cif.got.tgz:46439.got - 2010.06.03 19:29:58.
