data_PCOD9511246
_publ_section_title
;
Structure prediction by ZEFSAII (Michael W. Deem and Ramdas Pophale) SiO2 
 PCOD9511246
Probable space group: F M M M
;
_chemical_formula_sum "Si O2"
_cell_formula_units_Z 144
_cell_length_a 28.366947
_cell_length_b 19.029769
_cell_length_c 13.828579
_cell_angle_alpha 90.000000
_cell_angle_beta 90.000000
_cell_angle_gamma 90.000000
_cell_volume 7464.894406
_symmetry_space_group_name_H-M "F M M M"
_symmetry_group_IT_number 69
_symmetry_cell_setting 'orthorhombic'
loop_
_space_group_symop_operation_xyz
x,y,z
-x,-y,z
x,-y,-z
-x,y,-z
-x,-y,-z
x,y,-z
-x,y,z
x,-y,z
x,1/2+y,1/2+z
-x,1/2-y,1/2+z
x,1/2-y,1/2-z
-x,1/2+y,1/2-z
-x,1/2-y,1/2-z
x,1/2+y,1/2-z
-x,1/2+y,1/2+z
x,1/2-y,1/2+z
1/2+x,y,1/2+z
1/2-x,-y,1/2+z
1/2+x,-y,1/2-z
1/2-x,y,1/2-z
1/2-x,-y,1/2-z
1/2+x,y,1/2-z
1/2-x,y,1/2+z
1/2+x,-y,1/2+z
1/2+x,1/2+y,z
1/2-x,1/2-y,z
1/2+x,1/2-y,-z
1/2-x,1/2+y,-z
1/2-x,1/2-y,-z
1/2+x,1/2+y,-z
1/2-x,1/2+y,z
1/2+x,1/2-y,z
loop_
_atom_site_type_symbol
_atom_site_label
_atom_site_fract_x
_atom_site_fract_y
_atom_site_fract_z
Si Si1 0.443719 0.000000 0.610773
Si Si2 0.609441 0.708211 0.386665
Si Si3 0.281073 0.184633 0.116008
Si Si4 0.396733 0.138783 0.694889
Si Si5 0.299509 0.083244 0.384398
O O1 0.424585 0.929031 0.658618
O O2 0.500000 0.000000 0.612039
O O3 0.426486 0.000000 0.500000
O O4 0.601789 0.692211 0.500000
O O5 0.664892 0.698710 0.361085
O O6 0.595456 0.788720 0.364314
O O7 0.588473 0.657101 0.304969
O O8 0.250000 0.250000 0.148307
O O9 0.251443 0.115475 0.142053
O O10 0.281006 0.184733 0.000000
O O11 0.341782 0.118863 0.675054
O O12 0.307601 0.097504 0.500000
O O13 0.300472 0.000000 0.370396
#
# Coordination Sequence:
#
# PCOD9511246 Si02
#       5
#    16  32  32  32  32
#     4  11  24  44  71  98 119 137 176 248 317 367
#     4  10  21  37  56  84 124 164 202 242 283 341
#     4   9  16  29  49  75 114 162 205 245 283 322
#     4  11  21  36  62  90 113 153 199 242 302 358
#     4  10  18  30  51  79 114 153 199 254 295 333
#
# _framework density 19.290293999999999
#
# number of rings (size 3 to 8) (size 9 to 14) (size 15 to 20)
#    0.000    1.889    3.333    2.000    0.000    0.889 
#    2.000    3.889    0.000    2.667    0.000    0.000 
#    0.000    0.000    0.000    0.000    0.000    0.000 
#
# Total GULP energy -200814.465411 kJ/mol
# GULP energy per Si atom -5578.179595 kJ/mol
# Density = 1.924639 g / cm^3
# Si number density = 19.290294 Si / 1000 Ang^3
#
#
#
# Elastic Constant Matrix: (Units=GPa)
#
#
# Indices 1 2 3 4 5 6 
#
# 1 28.6875 26.8190 19.2705 0.0000 0.0000 0.0000
# 2 26.8190 137.4762 76.0646 0.0000 0.0000 0.0000
# 3 19.2705 76.0646 152.6264 0.0000 0.0000 0.0000
# 4 0.0000 0.0000 0.0000 16.0879 0.0000 0.0000
# 5 0.0000 0.0000 0.0000 0.0000 633.1084 0.0000
# 6 0.0000 0.0000 0.0000 0.0000 0.0000 6.7323
#
#
#
# Elastic Compliance Matrix: (Units=1/GPa)
#
#
# Indices 1 2 3 4 5 6 
#
# 1 0.042959 -0.007428 -0.001722 0.000000 0.000000 0.000000
# 2 -0.007428 0.011328 -0.004708 0.000000 0.000000 0.000000
# 3 -0.001722 -0.004708 0.009116 0.000000 0.000000 0.000000
# 4 0.000000 0.000000 0.000000 0.062159 0.000000 0.000000
# 5 0.000000 0.000000 0.000000 0.000000 0.001580 0.000000
# 6 0.000000 0.000000 0.000000 0.000000 0.000000 0.148537
#
#
# Mechanical properties :
#
#
# Convention : Reuss Voigt Hill
#
# Bulk Modulus (GPa) = 28.02107 62.56646 45.29377
# Shear Modulus (GPa) = 15.85851 144.29478 80.07664
#
# Velocity S-wave (km/s) = 2.87034 8.65818 6.44992
# Velocity P-wave (km/s) = 5.05397 11.50899 8.88818
#
# Compressibility (1/GPa) = 0.03568743
#
# Stress axis : x y z
#
# Youngs Moduli (GPa) = 23.27793 88.27970 109.70306
#
# Poissons Ratio (x) = 0.65570 0.18894
# Poissons Ratio (y) = 0.17290 0.51643
# Poissons Ratio (z) = 0.04009 0.41558
#
# Static dielectric constant tensor:
#      x y z
#    x 1.690280 0.000000 0.000000 
#    y 0.000000 1.732240 0.000000 
#    z 0.000000 0.000000 1.732810 
# 
# From -- ./inp_files/19473.got.cif
#   From: 2010.05.17/outbox.cif.g08.bks.cpg/sg69_10_cif.got.tgz:19473.got - 2010.06.03 19:29:58.
