data_PCOD9511635
_publ_section_title
;
Structure prediction by ZEFSAII (Michael W. Deem and Ramdas Pophale) SiO2 
 PCOD9511635
Probable space group: F M M M
;
_chemical_formula_sum "Si O2"
_cell_formula_units_Z 144
_cell_length_a 14.123212
_cell_length_b 24.487965
_cell_length_c 20.474475
_cell_angle_alpha 90.000000
_cell_angle_beta 90.000000
_cell_angle_gamma 90.000000
_cell_volume 7081.070995
_symmetry_space_group_name_H-M "F M M M"
_symmetry_group_IT_number 69
_symmetry_cell_setting 'orthorhombic'
loop_
_space_group_symop_operation_xyz
x,y,z
-x,-y,z
x,-y,-z
-x,y,-z
-x,-y,-z
x,y,-z
-x,y,z
x,-y,z
x,1/2+y,1/2+z
-x,1/2-y,1/2+z
x,1/2-y,1/2-z
-x,1/2+y,1/2-z
-x,1/2-y,1/2-z
x,1/2+y,1/2-z
-x,1/2+y,1/2+z
x,1/2-y,1/2+z
1/2+x,y,1/2+z
1/2-x,-y,1/2+z
1/2+x,-y,1/2-z
1/2-x,y,1/2-z
1/2-x,-y,1/2-z
1/2+x,y,1/2-z
1/2-x,y,1/2+z
1/2+x,-y,1/2+z
1/2+x,1/2+y,z
1/2-x,1/2-y,z
1/2+x,1/2-y,-z
1/2-x,1/2+y,-z
1/2-x,1/2-y,-z
1/2+x,1/2+y,-z
1/2-x,1/2+y,z
1/2+x,1/2-y,z
loop_
_atom_site_type_symbol
_atom_site_label
_atom_site_fract_x
_atom_site_fract_y
_atom_site_fract_z
Si Si1 0.000000 0.063669 0.922380
Si Si2 0.107686 0.081587 0.238512
Si Si3 0.174981 0.147296 0.924061
Si Si4 0.610940 0.205481 0.697894
Si Si5 0.721533 0.058501 0.140424
O O1 0.910637 0.103744 0.910123
O O2 0.000000 0.000000 0.898580
O O3 0.000000 0.057175 0.000000
O O4 0.116963 0.146902 0.233431
O O5 0.188979 0.059268 0.190813
O O6 0.132644 0.063763 0.311533
O O7 0.000000 0.067167 0.220342
O O8 0.162628 0.195497 0.871299
O O9 0.265461 0.110369 0.905937
O O10 0.171765 0.163092 0.000000
O O11 0.500000 0.216857 0.683719
O O12 0.644324 0.250000 0.750000
O O13 0.722616 0.000000 0.105795
#
# Coordination Sequence:
#
# PCOD9511635 Si02
#       5
#    16  32  32  32  32
#     4   9  16  26  43  70 106 144 172 199 254 325
#     4   9  18  33  50  71 102 138 183 236 279 323
#     4  10  19  32  49  76 110 140 176 220 269 332
#     4   9  17  31  53  78 103 137 181 224 279 334
#     4  10  20  31  48  77 107 141 182 222 275 332
#
# _framework density 20.335906000000001
#
# number of rings (size 3 to 8) (size 9 to 14) (size 15 to 20)
#    0.000    2.556    1.111    2.000    1.556    3.111 
#    0.000    8.889    0.000    3.333    0.000    4.667 
#    0.000    0.000    0.000    0.000    0.000    0.444 
#
# Total GULP energy -200684.166029 kJ/mol
# GULP energy per Si atom -5574.560167 kJ/mol
# Density = 2.028962 g / cm^3
# Si number density = 20.335906 Si / 1000 Ang^3
#
#
#
# Elastic Constant Matrix: (Units=GPa)
#
#
# Indices 1 2 3 4 5 6 
#
# 1 41.3436 7.9427 12.7899 0.0000 0.0000 0.0000
# 2 7.9427 102.2402 63.1777 0.0000 0.0000 0.0000
# 3 12.7899 63.1777 130.8372 0.0000 0.0000 0.0000
# 4 0.0000 0.0000 0.0000 26.2567 0.0000 0.0000
# 5 0.0000 0.0000 0.0000 0.0000 19.7286 0.0000
# 6 0.0000 0.0000 0.0000 0.0000 0.0000 26.8761
#
#
#
# Elastic Compliance Matrix: (Units=1/GPa)
#
#
# Indices 1 2 3 4 5 6 
#
# 1 0.024969 -0.000615 -0.002144 0.000000 0.000000 0.000000
# 2 -0.000615 0.013956 -0.006679 0.000000 0.000000 0.000000
# 3 -0.002144 -0.006679 0.011078 0.000000 0.000000 0.000000
# 4 0.000000 0.000000 0.000000 0.038085 0.000000 0.000000
# 5 0.000000 0.000000 0.000000 0.000000 0.050688 0.000000
# 6 0.000000 0.000000 0.000000 0.000000 0.000000 0.037208
#
#
# Mechanical properties :
#
#
# Convention : Reuss Voigt Hill
#
# Bulk Modulus (GPa) = 32.12636 49.13796 40.63216
# Shear Modulus (GPa) = 24.36244 27.27300 25.81772
#
# Velocity S-wave (km/s) = 3.46497 3.66611 3.56696
# Velocity P-wave (km/s) = 5.64271 6.49123 6.08179
#
# Compressibility (1/GPa) = 0.03112708
#
# Stress axis : x y z
#
# Youngs Moduli (GPa) = 40.04987 71.65552 90.27219
#
# Poissons Ratio (x) = 0.04407 0.19353
# Poissons Ratio (y) = 0.02463 0.60290
# Poissons Ratio (z) = 0.08586 0.47856
#
# Static dielectric constant tensor:
#      x y z
#    x 1.778040 0.000000 0.000000 
#    y 0.000000 1.762560 0.000000 
#    z 0.000000 0.000000 1.745400 
# 
# From -- ./inp_files/31092.got.cif
#   From: 2010.05.17/outbox.cif.g08.bks.cpg/sg69_16_cif.got.tgz:31092.got - 2010.06.03 19:29:58.
