data_PCOD9511702
_publ_section_title
;
Structure prediction by ZEFSAII (Michael W. Deem and Ramdas Pophale) SiO2 
 PCOD9511702
Probable space group: F M M M
;
_chemical_formula_sum "Si O2"
_cell_formula_units_Z 208
_cell_length_a 18.242049
_cell_length_b 34.416338
_cell_length_c 17.977440
_cell_angle_alpha 90.000000
_cell_angle_beta 90.000000
_cell_angle_gamma 90.000000
_cell_volume 11286.677714
_symmetry_space_group_name_H-M "F M M M"
_symmetry_group_IT_number 69
_symmetry_cell_setting 'orthorhombic'
loop_
_space_group_symop_operation_xyz
x,y,z
-x,-y,z
x,-y,-z
-x,y,-z
-x,-y,-z
x,y,-z
-x,y,z
x,-y,z
x,1/2+y,1/2+z
-x,1/2-y,1/2+z
x,1/2-y,1/2-z
-x,1/2+y,1/2-z
-x,1/2-y,1/2-z
x,1/2+y,1/2-z
-x,1/2+y,1/2+z
x,1/2-y,1/2+z
1/2+x,y,1/2+z
1/2-x,-y,1/2+z
1/2+x,-y,1/2-z
1/2-x,y,1/2-z
1/2-x,-y,1/2-z
1/2+x,y,1/2-z
1/2-x,y,1/2+z
1/2+x,-y,1/2+z
1/2+x,1/2+y,z
1/2-x,1/2-y,z
1/2+x,1/2-y,-z
1/2-x,1/2+y,-z
1/2-x,1/2-y,-z
1/2+x,1/2+y,-z
1/2-x,1/2+y,z
1/2+x,1/2-y,z
loop_
_atom_site_type_symbol
_atom_site_label
_atom_site_fract_x
_atom_site_fract_y
_atom_site_fract_z
Si Si1 0.587577 0.455350 0.500000
Si Si2 0.585343 0.665869 0.912050
Si Si3 0.410667 0.744997 0.835210
Si Si4 0.852233 0.904012 0.364672
Si Si5 0.183583 0.589769 0.588065
Si Si6 0.411513 0.323786 0.585406
Si Si7 0.836640 0.043191 0.229217
O O1 0.615220 0.500000 0.500000
O O2 0.500000 0.456276 0.500000
O O3 0.613732 0.431635 0.571899
O O4 0.500000 0.658414 0.892008
O O5 0.612673 0.703733 0.868355
O O6 0.634067 0.627885 0.900368
O O7 0.586972 0.675106 0.000000
O O8 0.500000 0.744673 0.838072
O O9 0.388473 0.750000 0.750000
O O10 0.386605 0.782561 0.881874
O O11 0.766191 0.901742 0.384797
O O12 0.884468 0.860956 0.369374
O O13 0.866346 0.924560 0.285860
O O14 0.183369 0.580053 0.500000
O O15 0.155999 0.556347 0.643933
O O16 0.387123 0.328401 0.500000
O O17 0.500000 0.323911 0.586081
O O18 0.750000 0.041496 0.250000
O O19 0.867014 0.000000 0.242004
#
# Coordination Sequence:
#
# PCOD9511702 Si02
#       7
#    16  32  32  32  32  32  32
#     4  11  22  36  58  88 120 153 189 227 275 342
#     4   9  18  34  55  77 106 140 182 236 281 322
#     4   9  18  31  50  78 106 141 186 228 275 336
#     4  11  20  36  55  81 117 150 182 228 283 340
#     4  10  20  36  58  84 107 144 193 235 282 341
#     4  10  19  32  53  79 109 145 183 221 271 335
#     4   9  20  36  54  79 110 144 185 231 278 332
#
# _framework density 18.428806999999999
#
# number of rings (size 3 to 8) (size 9 to 14) (size 15 to 20)
#    0.000    2.231    1.538    1.385    2.154    2.769 
#    0.000    1.538    0.000    6.000    0.000    2.154 
#    0.000    0.000    0.000    0.000    0.000    0.000 
#
# Total GULP energy -290065.323746 kJ/mol
# GULP energy per Si atom -5578.179303 kJ/mol
# Density = 1.838686 g / cm^3
# Si number density = 18.428807 Si / 1000 Ang^3
#
#
#
# Elastic Constant Matrix: (Units=GPa)
#
#
# Indices 1 2 3 4 5 6 
#
# 1 30.8839 22.7335 15.3681 0.0000 0.0000 0.0000
# 2 22.7335 106.1245 59.7203 0.0000 0.0000 0.0000
# 3 15.3681 59.7203 96.7365 0.0000 0.0000 0.0000
# 4 0.0000 0.0000 0.0000 31.8186 0.0000 0.0000
# 5 0.0000 0.0000 0.0000 0.0000 13.0974 0.0000
# 6 0.0000 0.0000 0.0000 0.0000 0.0000 -40.7609
#
#
#
# Elastic Compliance Matrix: (Units=1/GPa)
#
#
# Indices 1 2 3 4 5 6 
#
# 1 0.038597 -0.007382 -0.001574 0.000000 0.000000 0.000000
# 2 -0.007382 0.015851 -0.008613 0.000000 0.000000 0.000000
# 3 -0.001574 -0.008613 0.015905 0.000000 0.000000 0.000000
# 4 0.000000 0.000000 0.000000 0.031428 0.000000 0.000000
# 5 0.000000 0.000000 0.000000 0.000000 0.076351 0.000000
# 6 0.000000 0.000000 0.000000 0.000000 0.000000 -0.024533
#
#
# Mechanical properties :
#
#
# Convention : Reuss Voigt Hill
#
# Bulk Modulus (GPa) = 28.39801 47.70986 38.05393
# Shear Modulus (GPa) = 24.94078 9.89254 17.41666
#
# Velocity S-wave (km/s) = 3.68279 2.31940 3.07755
# Velocity P-wave (km/s) = 5.79025 5.75481 5.77255
#
# Compressibility (1/GPa) = 0.03521374
#
# Stress axis : x y z
#
# Youngs Moduli (GPa) = 25.90898 63.08723 62.87464
#
# Poissons Ratio (x) = 0.46571 0.09899
# Poissons Ratio (y) = 0.19126 0.54153
# Poissons Ratio (z) = 0.04079 0.54337
#
# Static dielectric constant tensor:
#      x y z
#    x 1.632400 0.000000 0.000000 
#    y 0.000000 1.616000 0.000000 
#    z 0.000000 0.000000 1.638310 
# 
# From -- ./inp_files/25167.got.cif
#   From: 2010.05.17/outbox.cif.g08.bks.cpg/sg69_13_cif.got.tgz:25167.got - 2010.06.03 19:29:58.
