data_PCOD9511599
_publ_section_title
;
Structure prediction by ZEFSAII (Michael W. Deem and Ramdas Pophale) SiO2 
 PCOD9511599
Probable space group: F M M M
;
_chemical_formula_sum "Si O2"
_cell_formula_units_Z 176
_cell_length_a 21.905990
_cell_length_b 25.756093
_cell_length_c 15.241279
_cell_angle_alpha 90.000000
_cell_angle_beta 90.000000
_cell_angle_gamma 90.000000
_cell_volume 8599.323415
_symmetry_space_group_name_H-M "F M M M"
_symmetry_group_IT_number 69
_symmetry_cell_setting 'orthorhombic'
loop_
_space_group_symop_operation_xyz
x,y,z
-x,-y,z
x,-y,-z
-x,y,-z
-x,-y,-z
x,y,-z
-x,y,z
x,-y,z
x,1/2+y,1/2+z
-x,1/2-y,1/2+z
x,1/2-y,1/2-z
-x,1/2+y,1/2-z
-x,1/2-y,1/2-z
x,1/2+y,1/2-z
-x,1/2+y,1/2+z
x,1/2-y,1/2+z
1/2+x,y,1/2+z
1/2-x,-y,1/2+z
1/2+x,-y,1/2-z
1/2-x,y,1/2-z
1/2-x,-y,1/2-z
1/2+x,y,1/2-z
1/2-x,y,1/2+z
1/2+x,-y,1/2+z
1/2+x,1/2+y,z
1/2-x,1/2-y,z
1/2+x,1/2-y,-z
1/2-x,1/2+y,-z
1/2-x,1/2-y,-z
1/2+x,1/2+y,-z
1/2-x,1/2+y,z
1/2+x,1/2-y,z
loop_
_atom_site_type_symbol
_atom_site_label
_atom_site_fract_x
_atom_site_fract_y
_atom_site_fract_z
Si Si1 0.663711 0.938547 0.500000
Si Si2 0.071257 0.742232 0.595496
Si Si3 0.429754 0.659639 0.316476
Si Si4 0.202616 0.615035 0.000000
Si Si5 0.878823 0.136514 0.141095
Si Si6 0.250875 0.310818 0.855818
Si Si7 0.931875 0.900528 0.500000
O O1 0.734613 0.918669 0.500000
O O2 0.627813 0.914592 0.583597
O O3 0.663121 0.000000 0.500000
O O4 0.099032 0.752418 0.500000
O O5 0.096554 0.782255 0.667411
O O6 0.074068 0.681346 0.613656
O O7 0.000000 0.756651 0.591869
O O8 0.500000 0.662505 0.284104
O O9 0.390937 0.629295 0.244011
O O10 0.432581 0.632961 0.411055
O O11 0.206317 0.653196 0.085532
O O12 0.139811 0.581295 0.000000
O O13 0.816837 0.166992 0.120907
O O14 0.250000 0.316202 0.750000
O O15 0.250000 0.250000 0.877953
O O16 0.000000 0.928187 0.500000
#
# Coordination Sequence:
#
# PCOD9511599 Si02
#       7
#    16  32  32  16  32  32  16
#     4  10  24  46  65  87 112 150 212 263 308 356
#     4  10  19  31  50  82 127 171 207 239 285 355
#     4  10  20  33  54  87 129 173 204 235 288 361
#     4  10  21  38  60  80 114 156 197 244 304 357
#     4  11  21  35  57  82 116 164 207 250 300 347
#     4  10  22  32  47  81 118 160 195 240 289 356
#     4  10  20  34  58  89 121 155 192 239 298 368
#
# _framework density 20.466726999999999
#
# number of rings (size 3 to 8) (size 9 to 14) (size 15 to 20)
#    0.000    1.818    1.818    2.455    7.636    1.455 
#    0.000    0.000    0.000   24.273    0.000    2.545 
#    0.000    0.000    0.000    0.000    0.000    0.000 
#
# Total GULP energy -245174.855672 kJ/mol
# GULP energy per Si atom -5572.155811 kJ/mol
# Density = 2.042014 g / cm^3
# Si number density = 20.466727 Si / 1000 Ang^3
#
#
#
# Elastic Constant Matrix: (Units=GPa)
#
#
# Indices 1 2 3 4 5 6 
#
# 1 79.0100 15.3708 25.2259 0.0000 0.0000 0.0000
# 2 15.3708 105.5580 53.1295 0.0000 0.0000 0.0000
# 3 25.2259 53.1295 134.2997 0.0000 0.0000 0.0000
# 4 0.0000 0.0000 0.0000 13.4333 0.0000 0.0000
# 5 0.0000 0.0000 0.0000 0.0000 30.4069 0.0000
# 6 0.0000 0.0000 0.0000 0.0000 0.0000 14.3686
#
#
#
# Elastic Compliance Matrix: (Units=1/GPa)
#
#
# Indices 1 2 3 4 5 6 
#
# 1 0.013527 -0.000863 -0.002199 0.000000 0.000000 0.000000
# 2 -0.000863 0.011884 -0.004539 0.000000 0.000000 0.000000
# 3 -0.002199 -0.004539 0.009655 0.000000 0.000000 0.000000
# 4 0.000000 0.000000 0.000000 0.074442 0.000000 0.000000
# 5 0.000000 0.000000 0.000000 0.000000 0.032887 0.000000
# 6 0.000000 0.000000 0.000000 0.000000 0.000000 0.069596
#
#
# Mechanical properties :
#
#
# Convention : Reuss Voigt Hill
#
# Bulk Modulus (GPa) = 50.34575 56.25777 53.30176
# Shear Modulus (GPa) = 21.38452 26.65121 24.01786
#
# Velocity S-wave (km/s) = 3.23591 3.61248 3.42937
# Velocity P-wave (km/s) = 6.21399 6.70426 6.46378
#
# Compressibility (1/GPa) = 0.01986265
#
# Stress axis : x y z
#
# Youngs Moduli (GPa) = 73.92789 84.14843 103.57424
#
# Poissons Ratio (x) = 0.07259 0.22781
# Poissons Ratio (y) = 0.06377 0.47015
# Poissons Ratio (z) = 0.16260 0.38197
#
# Static dielectric constant tensor:
#      x y z
#    x 1.846890 0.000000 0.000000 
#    y 0.000000 1.700500 0.000000 
#    z 0.000000 0.000000 1.795150 
# 
# From -- ./inp_files/18151.got.cif
#   From: 2010.05.17/outbox.cif.g08.bks.cpg/sg69_10_cif.got.tgz:18151.got - 2010.06.03 19:29:58.
