data_PCOD9511686
_publ_section_title
;
Structure prediction by ZEFSAII (Michael W. Deem and Ramdas Pophale) SiO2 
 PCOD9511686
Probable space group: F M M M
;
_chemical_formula_sum "Si O2"
_cell_formula_units_Z 112
_cell_length_a 7.719306
_cell_length_b 26.700643
_cell_length_c 28.332229
_cell_angle_alpha 90.000000
_cell_angle_beta 90.000000
_cell_angle_gamma 90.000000
_cell_volume 5839.568007
_symmetry_space_group_name_H-M "F M M M"
_symmetry_group_IT_number 69
_symmetry_cell_setting 'orthorhombic'
loop_
_space_group_symop_operation_xyz
x,y,z
-x,-y,z
x,-y,-z
-x,y,-z
-x,-y,-z
x,y,-z
-x,y,z
x,-y,z
x,1/2+y,1/2+z
-x,1/2-y,1/2+z
x,1/2-y,1/2-z
-x,1/2+y,1/2-z
-x,1/2-y,1/2-z
x,1/2+y,1/2-z
-x,1/2+y,1/2+z
x,1/2-y,1/2+z
1/2+x,y,1/2+z
1/2-x,-y,1/2+z
1/2+x,-y,1/2-z
1/2-x,y,1/2-z
1/2-x,-y,1/2-z
1/2+x,y,1/2-z
1/2-x,y,1/2+z
1/2+x,-y,1/2+z
1/2+x,1/2+y,z
1/2-x,1/2-y,z
1/2+x,1/2-y,-z
1/2-x,1/2+y,-z
1/2-x,1/2-y,-z
1/2+x,1/2+y,-z
1/2-x,1/2+y,z
1/2+x,1/2-y,z
loop_
_atom_site_type_symbol
_atom_site_label
_atom_site_fract_x
_atom_site_fract_y
_atom_site_fract_z
Si Si1 0.500000 0.559857 0.554324
Si Si2 0.207536 0.691573 0.104375
Si Si3 0.293813 0.500000 0.195204
Si Si4 0.202263 0.088333 0.873842
Si Si5 0.707476 0.691667 0.500000
O O1 0.500000 0.500000 0.554033
O O2 0.500000 0.577313 0.500000
O O3 0.669153 0.577387 0.582691
O O4 0.250000 0.750000 0.113745
O O5 0.277828 0.647441 0.137533
O O6 0.274352 0.676505 0.051565
O O7 0.000000 0.688277 0.104057
O O8 0.500000 0.500000 0.192498
O O9 0.250000 0.500000 0.250000
O O10 0.237858 0.550008 0.167139
O O11 0.000000 0.078199 0.884481
O O12 0.500000 0.685691 0.500000
O O13 0.750000 0.750000 0.500000
#
# Coordination Sequence:
#
# PCOD9511686 Si02
#       5
#    16  32  16  32  16
#     4  11  24  40  62  88 126 171 205 246 306 369
#     4  10  19  32  52  80 118 163 202 246 297 350
#     4  10  24  42  68  95 115 148 198 258 321 368
#     4  11  23  40  60  90 125 157 209 255 298 368
#     4   8  16  28  44  69 104 147 202 238 270 327
#
# _framework density 19.179501999999999
#
# number of rings (size 3 to 8) (size 9 to 14) (size 15 to 20)
#    0.000    1.857    2.857    0.857    4.000    1.714 
#    0.000    1.429    0.000    0.857    0.000    6.000 
#    0.000    0.000    0.000    0.000    0.000    0.000 
#
# Total GULP energy -156037.375084 kJ/mol
# GULP energy per Si atom -5572.763396 kJ/mol
# Density = 1.913585 g / cm^3
# Si number density = 19.179502 Si / 1000 Ang^3
#
#
#
# Elastic Constant Matrix: (Units=GPa)
#
#
# Indices 1 2 3 4 5 6 
#
# 1 92.8073 25.9304 32.4419 0.0000 0.0000 0.0000
# 2 25.9304 180.7255 70.9507 0.0000 0.0000 0.0000
# 3 32.4419 70.9507 106.3695 0.0000 0.0000 0.0000
# 4 0.0000 0.0000 0.0000 12.6235 0.0000 0.0000
# 5 0.0000 0.0000 0.0000 0.0000 18.7942 0.0000
# 6 0.0000 0.0000 0.0000 0.0000 0.0000 31.1775
#
#
#
# Elastic Compliance Matrix: (Units=1/GPa)
#
#
# Indices 1 2 3 4 5 6 
#
# 1 0.012081 -0.000389 -0.003425 0.000000 0.000000 0.000000
# 2 -0.000389 0.007509 -0.004890 0.000000 0.000000 0.000000
# 3 -0.003425 -0.004890 0.013708 0.000000 0.000000 0.000000
# 4 0.000000 0.000000 0.000000 0.079217 0.000000 0.000000
# 5 0.000000 0.000000 0.000000 0.000000 0.053208 0.000000
# 6 0.000000 0.000000 0.000000 0.000000 0.000000 0.032074
#
#
# Mechanical properties :
#
#
# Convention : Reuss Voigt Hill
#
# Bulk Modulus (GPa) = 62.93505 70.94983 66.94244
# Shear Modulus (GPa) = 22.67562 29.22435 25.94998
#
# Velocity S-wave (km/s) = 3.44217 3.90773 3.68231
# Velocity P-wave (km/s) = 6.97732 7.57848 7.28410
#
# Compressibility (1/GPa) = 0.01588940
#
# Stress axis : x y z
#
# Youngs Moduli (GPa) = 82.77476 133.17788 72.95210
#
# Poissons Ratio (x) = 0.05175 0.24989
# Poissons Ratio (y) = 0.03217 0.35673
# Poissons Ratio (z) = 0.28354 0.65124
#
# Static dielectric constant tensor:
#      x y z
#    x 1.675060 0.000000 0.000000 
#    y 0.000000 1.742650 0.000000 
#    z 0.000000 0.000000 1.692690 
# 
# From -- ./inp_files/38089.got.cif
#   From: 2010.05.17/outbox.cif.g08.bks.cpg/sg69_20_cif.got.tgz:38089.got - 2010.06.03 19:29:58.
