data_PCOD9511515
_publ_section_title
;
Structure prediction by ZEFSAII (Michael W. Deem and Ramdas Pophale) SiO2 
 PCOD9511515
Probable space group: F M M M
;
_chemical_formula_sum "Si O2"
_cell_formula_units_Z 192
_cell_length_a 21.642376
_cell_length_b 27.629021
_cell_length_c 14.342883
_cell_angle_alpha 90.000000
_cell_angle_beta 90.000000
_cell_angle_gamma 90.000000
_cell_volume 8576.436771
_symmetry_space_group_name_H-M "F M M M"
_symmetry_group_IT_number 69
_symmetry_cell_setting 'orthorhombic'
loop_
_space_group_symop_operation_xyz
x,y,z
-x,-y,z
x,-y,-z
-x,y,-z
-x,-y,-z
x,y,-z
-x,y,z
x,-y,z
x,1/2+y,1/2+z
-x,1/2-y,1/2+z
x,1/2-y,1/2-z
-x,1/2+y,1/2-z
-x,1/2-y,1/2-z
x,1/2+y,1/2-z
-x,1/2+y,1/2+z
x,1/2-y,1/2+z
1/2+x,y,1/2+z
1/2-x,-y,1/2+z
1/2+x,-y,1/2-z
1/2-x,y,1/2-z
1/2-x,-y,1/2-z
1/2+x,y,1/2-z
1/2-x,y,1/2+z
1/2+x,-y,1/2+z
1/2+x,1/2+y,z
1/2-x,1/2-y,z
1/2+x,1/2-y,-z
1/2-x,1/2+y,-z
1/2-x,1/2-y,-z
1/2+x,1/2+y,-z
1/2-x,1/2+y,z
1/2+x,1/2-y,z
loop_
_atom_site_type_symbol
_atom_site_label
_atom_site_fract_x
_atom_site_fract_y
_atom_site_fract_z
Si Si1 0.069252 0.444035 0.113533
Si Si2 0.067621 0.728288 0.646589
Si Si3 0.689858 0.615541 0.386753
Si Si4 0.810957 0.227190 0.646561
Si Si5 0.569963 0.383289 0.887097
Si Si6 0.311329 0.944868 0.386236
O O1 0.077939 0.500000 0.142741
O O2 0.126396 0.410771 0.142153
O O3 0.000000 0.428043 0.141800
O O4 0.069731 0.444268 0.000000
O O5 0.062898 0.750000 0.750000
O O6 0.125067 0.755676 0.601826
O O7 0.080243 0.670974 0.649873
O O8 0.000000 0.734514 0.602944
O O9 0.689727 0.618579 0.500000
O O10 0.693294 0.669790 0.349588
O O11 0.750316 0.584970 0.359653
O O12 0.812765 0.250000 0.750000
O O13 0.750000 0.250000 0.602080
O O14 0.500000 0.398953 0.862187
O O15 0.625156 0.418577 0.858359
O O16 0.571935 0.379875 0.000000
O O17 0.311365 0.946148 0.500000
O O18 0.308648 0.000000 0.352716
#
# Coordination Sequence:
#
# PCOD9511515 Si02
#       6
#    32  32  32  32  32  32
#     4   8  14  26  45  71 104 135 159 190 237 291
#     4   9  18  33  51  70  93 127 169 206 244 289
#     4  10  19  30  48  74 101 129 164 204 240 281
#     4  10  21  35  49  68  95 129 168 206 247 292
#     4   9  17  29  47  73 103 131 161 200 241 282
#     4   9  17  29  46  71 104 135 160 192 238 292
#
# _framework density 22.386918999999999
#
# number of rings (size 3 to 8) (size 9 to 14) (size 15 to 20)
#    0.000    2.833    0.000    2.000    0.000    4.000 
#    0.000    1.667    0.000    0.000    0.000   42.000 
#    0.000    2.667    0.000    0.000    0.000    1.167 
#
# Total GULP energy -268180.366227 kJ/mol
# GULP energy per Si atom -5587.090963 kJ/mol
# Density = 2.233597 g / cm^3
# Si number density = 22.386919 Si / 1000 Ang^3
#
#
#
# Elastic Constant Matrix: (Units=GPa)
#
#
# Indices 1 2 3 4 5 6 
#
# 1 254.7105 161.2953 11.2032 0.0000 0.0000 0.0000
# 2 161.2953 210.0748 29.2523 0.0000 0.0000 0.0000
# 3 11.2032 29.2523 96.5890 0.0000 0.0000 0.0000
# 4 0.0000 0.0000 0.0000 27.3352 0.0000 0.0000
# 5 0.0000 0.0000 0.0000 0.0000 -33.7600 0.0000
# 6 0.0000 0.0000 0.0000 0.0000 0.0000 53.8125
#
#
#
# Elastic Compliance Matrix: (Units=1/GPa)
#
#
# Indices 1 2 3 4 5 6 
#
# 1 0.007722 -0.006060 0.000940 0.000000 0.000000 0.000000
# 2 -0.006060 0.009725 -0.002242 0.000000 0.000000 0.000000
# 3 0.000940 -0.002242 0.010923 0.000000 0.000000 0.000000
# 4 0.000000 0.000000 0.000000 0.036583 0.000000 0.000000
# 5 0.000000 0.000000 0.000000 0.000000 -0.029621 0.000000
# 6 0.000000 0.000000 0.000000 0.000000 0.000000 0.018583
#
#
# Mechanical properties :
#
#
# Convention : Reuss Voigt Hill
#
# Bulk Modulus (GPa) = 73.28604 107.20844 90.24724
# Shear Modulus (GPa) = 68.31576 33.45242 50.88409
#
# Velocity S-wave (km/s) = 5.53012 3.86979 4.77271
# Velocity P-wave (km/s) = 8.57808 8.24378 8.41259
#
# Compressibility (1/GPa) = 0.01364516
#
# Stress axis : x y z
#
# Youngs Moduli (GPa) = 129.49831 102.82536 91.54745
#
# Poissons Ratio (x) = 0.62311 -0.08602
# Poissons Ratio (y) = 0.78474 0.20529
# Poissons Ratio (z) = -0.12167 0.23058
#
# Static dielectric constant tensor:
#      x y z
#    x 1.941200 0.000000 0.000000 
#    y 0.000000 1.744270 0.000000 
#    z 0.000000 0.000000 1.765450 
# 
# From -- ./inp_files/32825.got.cif
#   From: 2010.05.17/outbox.cif.g08.bks.cpg/sg69_17_cif.got.tgz:32825.got - 2010.06.03 19:29:58.
