data_PCOD9511067
_publ_section_title
;
Structure prediction by ZEFSAII (Michael W. Deem and Ramdas Pophale) SiO2 
 PCOD9511067
Probable space group: F M M M
;
_chemical_formula_sum "Si O2"
_cell_formula_units_Z 192
_cell_length_a 24.567865
_cell_length_b 20.820083
_cell_length_c 19.818662
_cell_angle_alpha 90.000000
_cell_angle_beta 90.000000
_cell_angle_gamma 90.000000
_cell_volume 10137.344477
_symmetry_space_group_name_H-M "F M M M"
_symmetry_group_IT_number 69
_symmetry_cell_setting 'orthorhombic'
loop_
_space_group_symop_operation_xyz
x,y,z
-x,-y,z
x,-y,-z
-x,y,-z
-x,-y,-z
x,y,-z
-x,y,z
x,-y,z
x,1/2+y,1/2+z
-x,1/2-y,1/2+z
x,1/2-y,1/2-z
-x,1/2+y,1/2-z
-x,1/2-y,1/2-z
x,1/2+y,1/2-z
-x,1/2+y,1/2+z
x,1/2-y,1/2+z
1/2+x,y,1/2+z
1/2-x,-y,1/2+z
1/2+x,-y,1/2-z
1/2-x,y,1/2-z
1/2-x,-y,1/2-z
1/2+x,y,1/2-z
1/2-x,y,1/2+z
1/2+x,-y,1/2+z
1/2+x,1/2+y,z
1/2-x,1/2-y,z
1/2+x,1/2-y,-z
1/2-x,1/2+y,-z
1/2-x,1/2-y,-z
1/2+x,1/2+y,-z
1/2-x,1/2+y,z
1/2+x,1/2-y,z
loop_
_atom_site_type_symbol
_atom_site_label
_atom_site_fract_x
_atom_site_fract_y
_atom_site_fract_z
Si Si1 0.060787 0.572168 0.704148
Si Si2 0.900969 0.928904 0.579665
Si Si3 0.170871 0.246398 0.672735
Si Si4 0.441356 0.324269 0.675954
Si Si5 0.703914 0.391243 0.339701
Si Si6 0.677199 0.107957 0.678018
O O1 0.062187 0.500000 0.734488
O O2 0.063487 0.628451 0.759701
O O3 0.117823 0.578381 0.664088
O O4 0.000000 0.577852 0.671806
O O5 0.895259 0.919926 0.500000
O O6 0.935496 0.872440 0.613088
O O7 0.842283 0.924230 0.616118
O O8 0.924064 0.000000 0.591894
O O9 0.189742 0.250000 0.750000
O O10 0.107984 0.224849 0.673635
O O11 0.201817 0.185204 0.641902
O O12 0.175066 0.319250 0.649928
O O13 0.500000 0.292179 0.676950
O O14 0.685662 0.394088 0.260381
O O15 0.764672 0.418242 0.347224
#
# Coordination Sequence:
#
# PCOD9511067 Si02
#       6
#    32  32  32  32  32  32
#     4  10  19  29  41  62  95 128 155 186 226 273
#     4  10  20  34  49  66  93 127 166 205 233 266
#     4   9  15  28  44  67  92 117 148 189 236 281
#     4  10  19  30  45  65  92 126 162 201 231 268
#     4   9  18  29  46  71  93 120 153 194 238 282
#     4  10  17  29  48  70  94 123 151 190 238 298
#
# _framework density 18.939872000000001
#
# number of rings (size 3 to 8) (size 9 to 14) (size 15 to 20)
#    0.000    2.333    5.000    1.000    0.000    5.000 
#    0.000    2.500    0.000    8.000    0.000    0.000 
#    0.000    0.667    0.000    3.667    0.000    0.000 
#
# Total GULP energy -267203.194178 kJ/mol
# GULP energy per Si atom -5566.733212 kJ/mol
# Density = 1.889676 g / cm^3
# Si number density = 18.939872 Si / 1000 Ang^3
#
#
#
# Elastic Constant Matrix: (Units=GPa)
#
#
# Indices 1 2 3 4 5 6 
#
# 1 180.2219 10.3268 0.4023 0.0000 0.0000 0.0000
# 2 10.3268 53.6516 2.9192 0.0000 0.0000 0.0000
# 3 0.4023 2.9192 21.0709 0.0000 0.0000 0.0000
# 4 0.0000 0.0000 0.0000 22.4328 0.0000 0.0000
# 5 0.0000 0.0000 0.0000 0.0000 7.9831 0.0000
# 6 0.0000 0.0000 0.0000 0.0000 0.0000 0.2826
#
#
#
# Elastic Compliance Matrix: (Units=1/GPa)
#
#
# Indices 1 2 3 4 5 6 
#
# 1 0.005611 -0.001082 0.000043 0.000000 0.000000 0.000000
# 2 -0.001082 0.018989 -0.002610 0.000000 0.000000 0.000000
# 3 0.000043 -0.002610 0.047820 0.000000 0.000000 0.000000
# 4 0.000000 0.000000 0.000000 0.044577 0.000000 0.000000
# 5 0.000000 0.000000 0.000000 0.000000 0.125265 0.000000
# 6 0.000000 0.000000 0.000000 0.000000 0.000000 3.538495
#
#
# Mechanical properties :
#
#
# Convention : Reuss Voigt Hill
#
# Bulk Modulus (GPa) = 15.35620 31.36012 23.35816
# Shear Modulus (GPa) = 1.31242 22.22611 11.76926
#
# Velocity S-wave (km/s) = 0.83333 3.42937 2.49550
# Velocity P-wave (km/s) = 3.00855 5.68106 4.54565
#
# Compressibility (1/GPa) = 0.06512029
#
# Stress axis : x y z
#
# Youngs Moduli (GPa) = 178.23300 52.66182 20.91189
#
# Poissons Ratio (x) = 0.05699 -0.00090
# Poissons Ratio (y) = 0.19289 0.05458
# Poissons Ratio (z) = -0.00763 0.13745
#
# Static dielectric constant tensor:
#      x y z
#    x 1.727170 0.000000 0.000000 
#    y 0.000000 1.708820 0.000000 
#    z 0.000000 0.000000 1.619730 
# 
# From -- ./inp_files/33529.got.cif
#   From: 2010.05.17/outbox.cif.g08.bks.cpg/sg69_17_cif.got.tgz:33529.got - 2010.06.03 19:29:58.
