data_PCOD9511072
_publ_section_title
;
Structure prediction by ZEFSAII (Michael W. Deem and Ramdas Pophale) SiO2 
 PCOD9511072
Probable space group: F M M M
;
_chemical_formula_sum "Si O2"
_cell_formula_units_Z 128
_cell_length_a 14.183779
_cell_length_b 17.286609
_cell_length_c 25.251225
_cell_angle_alpha 90.000000
_cell_angle_beta 90.000000
_cell_angle_gamma 90.000000
_cell_volume 6191.333760
_symmetry_space_group_name_H-M "F M M M"
_symmetry_group_IT_number 69
_symmetry_cell_setting 'orthorhombic'
loop_
_space_group_symop_operation_xyz
x,y,z
-x,-y,z
x,-y,-z
-x,y,-z
-x,-y,-z
x,y,-z
-x,y,z
x,-y,z
x,1/2+y,1/2+z
-x,1/2-y,1/2+z
x,1/2-y,1/2-z
-x,1/2+y,1/2-z
-x,1/2-y,1/2-z
x,1/2+y,1/2-z
-x,1/2+y,1/2+z
x,1/2-y,1/2+z
1/2+x,y,1/2+z
1/2-x,-y,1/2+z
1/2+x,-y,1/2-z
1/2-x,y,1/2-z
1/2-x,-y,1/2-z
1/2+x,y,1/2-z
1/2-x,y,1/2+z
1/2+x,-y,1/2+z
1/2+x,1/2+y,z
1/2-x,1/2-y,z
1/2+x,1/2-y,-z
1/2-x,1/2+y,-z
1/2-x,1/2-y,-z
1/2+x,1/2+y,-z
1/2-x,1/2+y,z
1/2+x,1/2-y,z
loop_
_atom_site_type_symbol
_atom_site_label
_atom_site_fract_x
_atom_site_fract_y
_atom_site_fract_z
Si Si1 0.834151 0.313264 0.000000
Si Si2 0.396980 0.354861 0.389809
Si Si3 0.187969 0.589549 0.382509
Si Si4 0.608635 0.282891 0.194448
Si Si5 0.832618 0.089483 0.000000
O O1 0.750000 0.250000 0.000000
O O2 0.891030 0.311459 0.946323
O O3 0.779467 0.395359 0.000000
O O4 0.500000 0.393374 0.385490
O O5 0.301868 0.404721 0.386009
O O6 0.389672 0.289131 0.345509
O O7 0.161017 0.500000 0.374657
O O8 0.158181 0.646221 0.335355
O O9 0.143735 0.617157 0.439867
O O10 0.500000 0.306468 0.203577
O O11 0.645682 0.250000 0.250000
O O12 0.857984 0.000000 0.000000
#
# Coordination Sequence:
#
# PCOD9511072 Si02
#       5
#    16  32  32  32  16
#     4  10  17  29  52  80 111 150 200 250 288 337
#     4  10  20  34  54  82 117 155 194 240 297 355
#     4  10  20  36  60  87 117 154 194 240 294 353
#     4  10  22  40  59  79 109 150 194 245 302 357
#     4   8  16  31  51  81 118 149 180 225 284 345
#
# _framework density 20.674059
#
# number of rings (size 3 to 8) (size 9 to 14) (size 15 to 20)
#    0.000    2.250    0.000    4.125    0.000    3.000 
#    0.000    4.375    0.000   14.250    0.000    0.000 
#    0.000    0.000    0.000    0.000    0.000    0.250 
#
# Total GULP energy -178159.051952 kJ/mol
# GULP energy per Si atom -5567.470374 kJ/mol
# Density = 2.062700 g / cm^3
# Si number density = 20.674059 Si / 1000 Ang^3
#
#
#
# Elastic Constant Matrix: (Units=GPa)
#
#
# Indices 1 2 3 4 5 6 
#
# 1 71.9273 16.5762 29.4801 0.0000 0.0000 0.0000
# 2 16.5762 66.4887 49.3276 0.0000 0.0000 0.0000
# 3 29.4801 49.3276 195.0601 0.0000 0.0000 0.0000
# 4 0.0000 0.0000 0.0000 29.1839 0.0000 0.0000
# 5 0.0000 0.0000 0.0000 0.0000 -4.6905 0.0000
# 6 0.0000 0.0000 0.0000 0.0000 0.0000 4.3149
#
#
#
# Elastic Compliance Matrix: (Units=1/GPa)
#
#
# Indices 1 2 3 4 5 6 
#
# 1 0.015167 -0.002561 -0.001645 0.000000 0.000000 0.000000
# 2 -0.002561 0.018946 -0.004404 0.000000 0.000000 0.000000
# 3 -0.001645 -0.004404 0.006489 0.000000 0.000000 0.000000
# 4 0.000000 0.000000 0.000000 0.034265 0.000000 0.000000
# 5 0.000000 0.000000 0.000000 0.000000 -0.213196 0.000000
# 6 0.000000 0.000000 0.000000 0.000000 0.000000 0.231755
#
#
# Mechanical properties :
#
#
# Convention : Reuss Voigt Hill
#
# Bulk Modulus (GPa) = 42.76715 58.24933 50.50824
# Shear Modulus (GPa) = 42.21513 21.63447 31.92480
#
# Velocity S-wave (km/s) = 4.52368 3.23840 3.93389
# Velocity P-wave (km/s) = 6.92937 6.49764 6.71697
#
# Compressibility (1/GPa) = 0.02338243
#
# Stress axis : x y z
#
# Youngs Moduli (GPa) = 65.93166 52.78144 154.10941
#
# Poissons Ratio (x) = 0.13518 0.25345
# Poissons Ratio (y) = 0.16887 0.67871
# Poissons Ratio (z) = 0.10843 0.23245
#
# Static dielectric constant tensor:
#      x y z
#    x 1.790930 0.000000 0.000000 
#    y 0.000000 1.734950 0.000000 
#    z 0.000000 0.000000 1.770800 
# 
# From -- ./inp_files/21598.got.cif
#   From: 2010.05.17/outbox.cif.g08.bks.cpg/sg69_11_cif.got.tgz:21598.got - 2010.06.03 19:29:58.
