data_PCOD9511432
_publ_section_title
;
Structure prediction by ZEFSAII (Michael W. Deem and Ramdas Pophale) SiO2 
 PCOD9511432
Probable space group: F M M M
;
_chemical_formula_sum "Si O2"
_cell_formula_units_Z 132
_cell_length_a 20.288288
_cell_length_b 20.324443
_cell_length_c 15.428721
_cell_angle_alpha 90.000000
_cell_angle_beta 90.000000
_cell_angle_gamma 90.000000
_cell_volume 6362.004608
_symmetry_space_group_name_H-M "F M M M"
_symmetry_group_IT_number 69
_symmetry_cell_setting 'orthorhombic'
loop_
_space_group_symop_operation_xyz
x,y,z
-x,-y,z
x,-y,-z
-x,y,-z
-x,-y,-z
x,y,-z
-x,y,z
x,-y,z
x,1/2+y,1/2+z
-x,1/2-y,1/2+z
x,1/2-y,1/2-z
-x,1/2+y,1/2-z
-x,1/2-y,1/2-z
x,1/2+y,1/2-z
-x,1/2+y,1/2+z
x,1/2-y,1/2+z
1/2+x,y,1/2+z
1/2-x,-y,1/2+z
1/2+x,-y,1/2-z
1/2-x,y,1/2-z
1/2-x,-y,1/2-z
1/2+x,y,1/2-z
1/2-x,y,1/2+z
1/2+x,-y,1/2+z
1/2+x,1/2+y,z
1/2-x,1/2-y,z
1/2+x,1/2-y,-z
1/2-x,1/2+y,-z
1/2-x,1/2-y,-z
1/2+x,1/2+y,-z
1/2-x,1/2+y,z
1/2+x,1/2-y,z
loop_
_atom_site_type_symbol
_atom_site_label
_atom_site_fract_x
_atom_site_fract_y
_atom_site_fract_z
Si Si1 0.820366 0.000000 0.302300
Si Si2 0.000000 0.000000 0.000000
Si Si3 0.679550 0.638303 0.395113
Si Si4 0.323744 0.854466 0.601288
Si Si5 0.125018 0.000000 0.127767
Si Si6 0.924836 0.748144 0.893852
O O1 0.750000 0.000000 0.250000
O O2 0.826404 0.934659 0.358387
O O3 0.877937 0.000000 0.231049
O O4 0.942008 0.000000 0.925188
O O5 0.680724 0.636379 0.500000
O O6 0.751630 0.662465 0.363494
O O7 0.620477 0.686292 0.369198
O O8 0.321032 0.836675 0.500000
O O9 0.385054 0.812942 0.636566
O O10 0.336559 0.932409 0.606319
O O11 0.000000 0.745742 0.863143
O O12 0.927982 0.749348 0.000000
#
# Coordination Sequence:
#
# PCOD9511432 Si02
#       6
#    16   4  32  32  16  32
#     4  12  23  41  64  93 125 163 209 282 325 383
#     4  12  28  44  64 100 138 184 214 266 348 416
#     4  10  20  38  64  93 123 163 217 266 328 394
#     4  10  18  33  61  93 122 162 215 269 318 388
#     4  12  24  39  64  95 129 167 215 263 331 397
#     4   9  19  34  58  89 124 165 214 264 320 392
#
# _framework density 20.748177999999999
#
# number of rings (size 3 to 8) (size 9 to 14) (size 15 to 20)
#    0.000    1.697    3.636    1.091    1.697    4.848 
#    2.182    1.212    0.000    4.364    0.000    0.000 
#    0.000    0.000    0.000    0.000    0.000    0.000 
#
# Total GULP energy -183928.809240 kJ/mol
# GULP energy per Si atom -5573.600280 kJ/mol
# Density = 2.070095 g / cm^3
# Si number density = 20.748178 Si / 1000 Ang^3
#
#
#
# Elastic Constant Matrix: (Units=GPa)
#
#
# Indices 1 2 3 4 5 6 
#
# 1 213.5915 97.6692 36.0703 0.0000 0.0000 0.0000
# 2 97.6692 138.4455 16.7491 0.0000 0.0000 0.0000
# 3 36.0703 16.7491 40.5897 0.0000 0.0000 0.0000
# 4 0.0000 0.0000 0.0000 -90.3927 0.0000 0.0000
# 5 0.0000 0.0000 0.0000 0.0000 0.9576 0.0000
# 6 0.0000 0.0000 0.0000 0.0000 0.0000 -19.2224
#
#
#
# Elastic Compliance Matrix: (Units=1/GPa)
#
#
# Indices 1 2 3 4 5 6 
#
# 1 0.007726 -0.004863 -0.004859 0.000000 0.000000 0.000000
# 2 -0.004863 0.010663 -0.000079 0.000000 0.000000 0.000000
# 3 -0.004859 -0.000079 0.028987 0.000000 0.000000 0.000000
# 4 0.000000 0.000000 0.000000 -0.011063 0.000000 0.000000
# 5 0.000000 0.000000 0.000000 0.000000 1.044233 0.000000
# 6 0.000000 0.000000 0.000000 0.000000 0.000000 -0.052023
#
#
# Mechanical properties :
#
#
# Convention : Reuss Voigt Hill
#
# Bulk Modulus (GPa) = 36.00341 77.06711 56.53526
# Shear Modulus (GPa) = 4.72865 -5.58896 -0.43015
#
# Velocity S-wave (km/s) = 1.51130 -1.64303 -0.45582
# Velocity P-wave (km/s) = 4.52057 5.79873 5.19908
#
# Compressibility (1/GPa) = 0.02777515
#
# Stress axis : x y z
#
# Youngs Moduli (GPa) = 129.43421 93.78234 34.49763
#
# Poissons Ratio (x) = 0.45602 0.16763
# Poissons Ratio (y) = 0.62938 0.00272
# Poissons Ratio (z) = 0.62894 0.00740
#
# Static dielectric constant tensor:
#      x y z
#    x 1.746440 0.000000 0.000000 
#    y 0.000000 1.735210 0.000000 
#    z 0.000000 0.000000 1.761890 
# 
# From -- ./inp_files/16421.got.cif
#   From: 2010.05.17/outbox.cif.g08.bks.cpg/sg69_9_cif.got.tgz:16421.got - 2010.06.03 19:29:58.
