data_PCOD9511500
_publ_section_title
;
Structure prediction by ZEFSAII (Michael W. Deem and Ramdas Pophale) SiO2 
 PCOD9511500
Probable space group: F M M M
;
_chemical_formula_sum "Si O2"
_cell_formula_units_Z 128
_cell_length_a 29.845098
_cell_length_b 24.473206
_cell_length_c 10.510958
_cell_angle_alpha 90.000000
_cell_angle_beta 90.000000
_cell_angle_gamma 90.000000
_cell_volume 7677.258711
_symmetry_space_group_name_H-M "F M M M"
_symmetry_group_IT_number 69
_symmetry_cell_setting 'orthorhombic'
loop_
_space_group_symop_operation_xyz
x,y,z
-x,-y,z
x,-y,-z
-x,y,-z
-x,-y,-z
x,y,-z
-x,y,z
x,-y,z
x,1/2+y,1/2+z
-x,1/2-y,1/2+z
x,1/2-y,1/2-z
-x,1/2+y,1/2-z
-x,1/2-y,1/2-z
x,1/2+y,1/2-z
-x,1/2+y,1/2+z
x,1/2-y,1/2+z
1/2+x,y,1/2+z
1/2-x,-y,1/2+z
1/2+x,-y,1/2-z
1/2-x,y,1/2-z
1/2-x,-y,1/2-z
1/2+x,y,1/2-z
1/2-x,y,1/2+z
1/2+x,-y,1/2+z
1/2+x,1/2+y,z
1/2-x,1/2-y,z
1/2+x,1/2-y,-z
1/2-x,1/2+y,-z
1/2-x,1/2-y,-z
1/2+x,1/2+y,-z
1/2-x,1/2+y,z
1/2+x,1/2-y,z
loop_
_atom_site_type_symbol
_atom_site_label
_atom_site_fract_x
_atom_site_fract_y
_atom_site_fract_z
Si Si1 0.750000 0.347034 0.250000
Si Si2 0.340995 0.204880 0.147862
Si Si3 0.550398 0.000000 0.153240
Si Si4 0.803497 0.059953 0.136789
Si Si5 0.125653 0.084786 0.648223
O O1 0.709443 0.312995 0.310370
O O2 0.770159 0.389378 0.352123
O O3 0.355416 0.250000 0.250000
O O4 0.371553 0.150443 0.157117
O O5 0.340657 0.223036 0.000000
O O6 0.579975 0.053622 0.184150
O O7 0.500000 0.000000 0.205540
O O8 0.546925 0.000000 0.000000
O O9 0.836606 0.064166 0.255330
O O10 0.781603 0.000000 0.139094
O O11 0.827433 0.064117 0.000000
O O12 0.135615 0.071261 0.500000
#
# Coordination Sequence:
#
# PCOD9511500 Si02
#       5
#    16  32  16  32  32
#     4  10  20  32  46  66  94 129 177 218 246 276
#     4  10  21  34  49  68  94 131 172 210 246 282
#     4   9  16  30  57  86 105 122 151 196 245 297
#     4  10  19  30  46  69  99 134 168 203 248 297
#     4   9  18  33  52  75 101 129 161 199 247 298
#
# _framework density 16.672618
#
# number of rings (size 3 to 8) (size 9 to 14) (size 15 to 20)
#    0.000    2.375    1.250    1.500    0.000    7.000 
#    0.000    0.000    0.000    2.250    0.000    0.000 
#    0.000    0.000    0.000    0.000    0.000    0.000 
#
# Total GULP energy -178150.650691 kJ/mol
# GULP energy per Si atom -5567.207834 kJ/mol
# Density = 1.663467 g / cm^3
# Si number density = 16.672618 Si / 1000 Ang^3
#
#
#
# Elastic Constant Matrix: (Units=GPa)
#
#
# Indices 1 2 3 4 5 6 
#
# 1 70.2836 30.6501 25.7674 -0.0001 0.0000 -0.0003
# 2 30.6501 92.3994 53.3208 -0.0001 0.0001 0.0000
# 3 25.7674 53.3208 111.3511 0.0004 0.0002 0.0029
# 4 -0.0001 -0.0001 0.0004 23.7339 0.0001 0.0017
# 5 0.0000 0.0001 0.0002 0.0001 7.7695 -0.0001
# 6 -0.0003 0.0000 0.0029 0.0017 -0.0001 -13.1368
#
#
#
# Elastic Compliance Matrix: (Units=1/GPa)
#
#
# Indices 1 2 3 4 5 6 
#
# 1 0.016862 -0.004618 -0.001691 0.000000 0.000000 -0.000001
# 2 -0.004618 0.016220 -0.006698 0.000000 0.000000 -0.000001
# 3 -0.001691 -0.006698 0.012579 0.000000 0.000000 0.000003
# 4 0.000000 0.000000 0.000000 0.042134 -0.000001 0.000005
# 5 0.000000 0.000000 0.000000 -0.000001 0.128708 -0.000001
# 6 -0.000001 -0.000001 0.000003 0.000005 -0.000001 -0.076122
#
#
# Mechanical properties :
#
#
# Convention : Reuss Voigt Hill
#
# Bulk Modulus (GPa) = 50.89727 54.83452 52.86589
# Shear Modulus (GPa) = 28.91118 14.62636 21.76877
#
# Velocity S-wave (km/s) = 4.16871 2.96509 3.61731
# Velocity P-wave (km/s) = 7.33244 6.68451 7.01596
#
# Compressibility (1/GPa) = 0.01964742
#
# Stress axis : x y z
#
# Youngs Moduli (GPa) = 59.30635 61.65361 79.49528
#
# Poissons Ratio (x) = 0.28469 0.13441
# Poissons Ratio (y) = 0.27385 0.53248
# Poissons Ratio (z) = 0.10027 0.41297
#
# Static dielectric constant tensor:
#      x y z
#    x 1.545960 0.000000 0.000000 
#    y 0.000000 1.606240 0.000000 
#    z 0.000000 0.000000 1.581910 
# 
# From -- ./inp_files/5327.got.cif
#   From: 2010.05.17/outbox.cif.g08.bks.cpg/sg69_3_cif.got.tgz:5327.got - 2010.06.03 19:29:58.
