data_PCOD9511849
_publ_section_title
;
Structure prediction by ZEFSAII (Michael W. Deem and Ramdas Pophale) SiO2 
 PCOD9511849
Probable space group: F M M M
;
_chemical_formula_sum "Si O2"
_cell_formula_units_Z 128
_cell_length_a 24.068295
_cell_length_b 16.261815
_cell_length_c 15.488538
_cell_angle_alpha 90.000000
_cell_angle_beta 90.000000
_cell_angle_gamma 90.000000
_cell_volume 6062.123330
_symmetry_space_group_name_H-M "F M M M"
_symmetry_group_IT_number 69
_symmetry_cell_setting 'orthorhombic'
loop_
_space_group_symop_operation_xyz
x,y,z
-x,-y,z
x,-y,-z
-x,y,-z
-x,-y,-z
x,y,-z
-x,y,z
x,-y,z
x,1/2+y,1/2+z
-x,1/2-y,1/2+z
x,1/2-y,1/2-z
-x,1/2+y,1/2-z
-x,1/2-y,1/2-z
x,1/2+y,1/2-z
-x,1/2+y,1/2+z
x,1/2-y,1/2+z
1/2+x,y,1/2+z
1/2-x,-y,1/2+z
1/2+x,-y,1/2-z
1/2-x,y,1/2-z
1/2-x,-y,1/2-z
1/2+x,y,1/2-z
1/2-x,y,1/2+z
1/2+x,-y,1/2+z
1/2+x,1/2+y,z
1/2-x,1/2-y,z
1/2+x,1/2-y,-z
1/2-x,1/2+y,-z
1/2-x,1/2-y,-z
1/2+x,1/2+y,-z
1/2-x,1/2+y,z
1/2+x,1/2-y,z
loop_
_atom_site_type_symbol
_atom_site_label
_atom_site_fract_x
_atom_site_fract_y
_atom_site_fract_z
Si Si1 0.813288 0.500000 0.393640
Si Si2 0.684882 0.000000 0.894646
Si Si3 0.622819 0.159013 0.399891
Si Si4 0.500000 0.163571 0.195980
Si Si5 0.500000 0.906283 0.627580
Si Si6 0.383078 0.839336 0.104663
O O1 0.816318 0.500000 0.500000
O O2 0.749109 0.500000 0.368659
O O3 0.845214 0.418827 0.361773
O O4 0.653386 0.083030 0.867104
O O5 0.684134 0.000000 0.000000
O O6 0.639524 0.162578 0.500000
O O7 0.556763 0.139836 0.398084
O O8 0.636019 0.248957 0.363649
O O9 0.500000 0.250000 0.250000
O O10 0.500000 0.095099 0.269423
O O11 0.554571 0.154614 0.139199
O O12 0.500000 0.000000 0.595625
O O13 0.383576 0.838479 0.000000
#
# Coordination Sequence:
#
# PCOD9511849 Si02
#       6
#    16  16  32  16  16  32
#     4   9  18  33  55  86 114 141 188 237 276 321
#     4   9  20  37  57  82 110 147 196 237 264 313
#     4  10  19  33  57  86 116 146 180 228 282 337
#     4  12  23  37  56  85 113 147 179 231 273 340
#     4  12  23  34  53  86 116 149 180 224 288 346
#     4  10  21  38  58  82 113 148 184 226 277 329
#
# _framework density 21.114712999999998
#
# number of rings (size 3 to 8) (size 9 to 14) (size 15 to 20)
#    0.000    1.750    3.750    0.750    1.750    3.500 
#    0.000    6.875    0.000    3.000    0.000    0.000 
#    0.000    0.000    0.000    0.000    0.000    0.000 
#
# Total GULP energy -178669.076151 kJ/mol
# GULP energy per Si atom -5583.408630 kJ/mol
# Density = 2.106666 g / cm^3
# Si number density = 21.114713 Si / 1000 Ang^3
#
#
#
# Elastic Constant Matrix: (Units=GPa)
#
#
# Indices 1 2 3 4 5 6 
#
# 1 152.1724 104.4505 3.8644 0.0000 0.0000 0.0000
# 2 104.4505 224.1552 20.2450 0.0000 0.0000 0.0000
# 3 3.8644 20.2450 40.3690 0.0000 0.0000 0.0000
# 4 0.0000 0.0000 0.0000 12.7611 0.0000 0.0000
# 5 0.0000 0.0000 0.0000 0.0000 -50.7113 0.0000
# 6 0.0000 0.0000 0.0000 0.0000 0.0000 8.3162
#
#
#
# Elastic Compliance Matrix: (Units=1/GPa)
#
#
# Indices 1 2 3 4 5 6 
#
# 1 0.009737 -0.004664 0.001407 0.000000 0.000000 0.000000
# 2 -0.004664 0.006907 -0.003017 0.000000 0.000000 0.000000
# 3 0.001407 -0.003017 0.026150 0.000000 0.000000 0.000000
# 4 0.000000 0.000000 0.000000 0.078363 0.000000 0.000000
# 5 0.000000 0.000000 0.000000 0.000000 -0.019719 0.000000
# 6 0.000000 0.000000 0.000000 0.000000 0.000000 0.120248
#
#
# Mechanical properties :
#
#
# Convention : Reuss Voigt Hill
#
# Bulk Modulus (GPa) = 33.06328 74.86849 53.96589
# Shear Modulus (GPa) = 20.46514 13.28230 16.87372
#
# Velocity S-wave (km/s) = 3.11663 2.51082 2.82998
# Velocity P-wave (km/s) = 5.35202 6.62877 6.02431
#
# Compressibility (1/GPa) = 0.03024503
#
# Stress axis : x y z
#
# Youngs Moduli (GPa) = 102.69639 144.77538 38.24089
#
# Poissons Ratio (x) = 0.67530 -0.05381
# Poissons Ratio (y) = 0.47903 0.11539
# Poissons Ratio (z) = -0.14451 0.43686
#
# Static dielectric constant tensor:
#      x y z
#    x 1.706530 0.000000 0.000000 
#    y 0.000000 1.807980 0.000000 
#    z 0.000000 0.000000 1.766740 
# 
# From -- ./inp_files/31658.got.cif
#   From: 2010.05.17/outbox.cif.g08.bks.cpg/sg69_16_cif.got.tgz:31658.got - 2010.06.03 19:29:58.
