data_PCOD9511916
_publ_section_title
;
Structure prediction by ZEFSAII (Michael W. Deem and Ramdas Pophale) SiO2 
 PCOD9511916
Probable space group: F M M M
;
_chemical_formula_sum "Si O2"
_cell_formula_units_Z 192
_cell_length_a 17.918810
_cell_length_b 17.259120
_cell_length_c 34.731865
_cell_angle_alpha 90.000000
_cell_angle_beta 90.000000
_cell_angle_gamma 90.000000
_cell_volume 10741.277016
_symmetry_space_group_name_H-M "F M M M"
_symmetry_group_IT_number 69
_symmetry_cell_setting 'orthorhombic'
loop_
_space_group_symop_operation_xyz
x,y,z
-x,-y,z
x,-y,-z
-x,y,-z
-x,-y,-z
x,y,-z
-x,y,z
x,-y,z
x,1/2+y,1/2+z
-x,1/2-y,1/2+z
x,1/2-y,1/2-z
-x,1/2+y,1/2-z
-x,1/2-y,1/2-z
x,1/2+y,1/2-z
-x,1/2+y,1/2+z
x,1/2-y,1/2+z
1/2+x,y,1/2+z
1/2-x,-y,1/2+z
1/2+x,-y,1/2-z
1/2-x,y,1/2-z
1/2-x,-y,1/2-z
1/2+x,y,1/2-z
1/2-x,y,1/2+z
1/2+x,-y,1/2+z
1/2+x,1/2+y,z
1/2-x,1/2-y,z
1/2+x,1/2-y,-z
1/2-x,1/2+y,-z
1/2-x,1/2-y,-z
1/2+x,1/2+y,-z
1/2-x,1/2+y,z
1/2+x,1/2-y,z
loop_
_atom_site_type_symbol
_atom_site_label
_atom_site_fract_x
_atom_site_fract_y
_atom_site_fract_z
Si Si1 0.184320 0.587753 0.575717
Si Si2 0.351908 0.907287 0.164017
Si Si3 0.086901 0.736774 0.795207
Si Si4 0.586014 0.834005 0.000000
Si Si5 0.799052 0.676250 0.351069
Si Si6 0.322335 0.809011 0.500000
Si Si7 0.136830 0.913497 0.421850
O O1 0.154662 0.500000 0.573322
O O2 0.159808 0.634673 0.613525
O O3 0.175385 0.637278 0.537352
O O4 0.273800 0.581711 0.580333
O O5 0.394200 0.852098 0.193680
O O6 0.264383 0.882091 0.165213
O O7 0.383440 0.885992 0.121106
O O8 0.359050 0.000000 0.168739
O O9 0.099439 0.750000 0.750000
O O10 0.143447 0.789863 0.820037
O O11 0.000000 0.753069 0.803835
O O12 0.618492 0.866827 0.960097
O O13 0.500000 0.852282 0.000000
O O14 0.605410 0.744387 0.000000
O O15 0.750000 0.750000 0.365726
O O16 0.250000 0.750000 0.500000
O O17 0.105830 0.000000 0.426895
#
# Coordination Sequence:
#
# PCOD9511916 Si02
#       7
#    32  32  32  16  32  16  32
#     4  10  19  34  57  81 106 142 188 237 278 319
#     4   9  19  36  61  87 112 144 186 236 285 336
#     4  10  22  39  58  83 117 153 186 225 279 345
#     4  12  25  34  47  78 117 150 182 225 275 327
#     4   9  18  33  58  86 115 141 183 232 280 334
#     4  12  21  33  55  77 107 146 196 236 274 323
#     4   9  18  34  54  81 112 142 175 216 274 336
#
# _framework density 17.874969
#
# number of rings (size 3 to 8) (size 9 to 14) (size 15 to 20)
#    0.000    2.167    1.667    2.500    4.667    6.000 
#    0.000    4.167    0.000    6.000    0.000    0.000 
#    0.000    0.000    0.000    0.000    0.000    0.000 
#
# Total GULP energy -267439.018385 kJ/mol
# GULP energy per Si atom -5571.646216 kJ/mol
# Density = 1.783429 g / cm^3
# Si number density = 17.874969 Si / 1000 Ang^3
#
#
#
# Elastic Constant Matrix: (Units=GPa)
#
#
# Indices 1 2 3 4 5 6 
#
# 1 39.1580 22.7591 36.8349 0.0000 0.0000 0.0000
# 2 22.7591 114.6471 81.6948 0.0000 0.0000 0.0000
# 3 36.8349 81.6948 128.6781 0.0000 0.0000 0.0000
# 4 0.0000 0.0000 0.0000 -15.9120 0.0000 0.0000
# 5 0.0000 0.0000 0.0000 0.0000 -58.8821 0.0000
# 6 0.0000 0.0000 0.0000 0.0000 0.0000 3.7202
#
#
#
# Elastic Compliance Matrix: (Units=1/GPa)
#
#
# Indices 1 2 3 4 5 6 
#
# 1 0.034956 0.000349 -0.010228 0.000000 0.000000 0.000000
# 2 0.000349 0.015932 -0.010215 0.000000 0.000000 0.000000
# 3 -0.010228 -0.010215 0.017184 0.000000 0.000000 0.000000
# 4 0.000000 0.000000 0.000000 -0.062846 0.000000 0.000000
# 5 0.000000 0.000000 0.000000 0.000000 -0.016983 0.000000
# 6 0.000000 0.000000 0.000000 0.000000 0.000000 0.268803
#
#
# Mechanical properties :
#
#
# Convention : Reuss Voigt Hill
#
# Bulk Modulus (GPa) = 35.86197 62.78453 49.32325
# Shear Modulus (GPa) = 16.31169 -4.80183 5.75493
#
# Velocity S-wave (km/s) = 3.02411 -1.64078 1.79626
# Velocity P-wave (km/s) = 5.68330 5.62236 5.65291
#
# Compressibility (1/GPa) = 0.02788469
#
# Stress axis : x y z
#
# Youngs Moduli (GPa) = 28.60751 62.76719 58.19316
#
# Poissons Ratio (x) = -0.02190 0.59519
# Poissons Ratio (y) = -0.00998 0.59442
# Poissons Ratio (z) = 0.29259 0.64115
#
# Static dielectric constant tensor:
#      x y z
#    x 1.615310 0.000000 0.000000 
#    y 0.000000 1.648100 0.000000 
#    z 0.000000 0.000000 1.566780 
# 
# From -- ./inp_files/46420.got.cif
#   From: 2010.05.17/outbox.cif.g08.bks.cpg/sg69_24_cif.got.tgz:46420.got - 2010.06.03 19:29:58.
