data_PCOD9511878
_publ_section_title
;
Structure prediction by ZEFSAII (Michael W. Deem and Ramdas Pophale) SiO2 
 PCOD9511878
Probable space group: F M M M
;
_chemical_formula_sum "Si O2"
_cell_formula_units_Z 176
_cell_length_a 27.935104
_cell_length_b 14.705981
_cell_length_c 18.420536
_cell_angle_alpha 90.000000
_cell_angle_beta 90.000000
_cell_angle_gamma 90.000000
_cell_volume 7567.397657
_symmetry_space_group_name_H-M "F M M M"
_symmetry_group_IT_number 69
_symmetry_cell_setting 'orthorhombic'
loop_
_space_group_symop_operation_xyz
x,y,z
-x,-y,z
x,-y,-z
-x,y,-z
-x,-y,-z
x,y,-z
-x,y,z
x,-y,z
x,1/2+y,1/2+z
-x,1/2-y,1/2+z
x,1/2-y,1/2-z
-x,1/2+y,1/2-z
-x,1/2-y,1/2-z
x,1/2+y,1/2-z
-x,1/2+y,1/2+z
x,1/2-y,1/2+z
1/2+x,y,1/2+z
1/2-x,-y,1/2+z
1/2+x,-y,1/2-z
1/2-x,y,1/2-z
1/2-x,-y,1/2-z
1/2+x,y,1/2-z
1/2-x,y,1/2+z
1/2+x,-y,1/2+z
1/2+x,1/2+y,z
1/2-x,1/2-y,z
1/2+x,1/2-y,-z
1/2-x,1/2+y,-z
1/2-x,1/2-y,-z
1/2+x,1/2+y,-z
1/2-x,1/2+y,z
1/2+x,1/2-y,z
loop_
_atom_site_type_symbol
_atom_site_label
_atom_site_fract_x
_atom_site_fract_y
_atom_site_fract_z
Si Si1 0.240066 0.640229 0.668542
Si Si2 0.000000 0.387968 0.082127
Si Si3 0.330674 0.366878 0.418460
Si Si4 0.917308 0.605537 0.814595
Si Si5 0.151088 0.151972 0.079676
Si Si6 0.555252 0.889619 0.344809
O O1 0.250000 0.607569 0.750000
O O2 0.250000 0.750000 0.670794
O O3 0.277961 0.607594 0.608479
O O4 0.186848 0.616490 0.641790
O O5 0.954130 0.355554 0.126750
O O6 0.000000 0.500000 0.078956
O O7 0.000000 0.355683 0.000000
O O8 0.342186 0.400762 0.500000
O O9 0.366237 0.392098 0.353053
O O10 0.335884 0.258282 0.423122
O O11 0.931006 0.500000 0.806863
O O12 0.925534 0.642933 0.734271
O O13 0.095631 0.141279 0.099184
O O14 0.160905 0.112829 0.000000
O O15 0.500000 0.861311 0.355486
O O16 0.555523 0.000000 0.346816
#
# Coordination Sequence:
#
# PCOD9511878 Si02
#       6
#    32  16  32  32  32  32
#     4   9  17  32  56  81 108 144 183 221 269 330
#     4   9  16  28  48  71  99 137 174 207 251 311
#     4  10  20  34  54  83 116 147 177 219 274 328
#     4  10  19  34  54  79 109 142 181 220 266 326
#     4  10  21  37  56  81 111 144 185 230 274 325
#     4  10  21  39  60  79 105 144 188 236 285 327
#
# _framework density 23.257664999999999
#
# number of rings (size 3 to 8) (size 9 to 14) (size 15 to 20)
#    0.000    2.273    0.909    2.182    0.000    6.182 
#    1.636    2.727    0.000    5.455    0.000    0.000 
#    0.000    0.000    0.000    0.000    0.000    0.000 
#
# Total GULP energy -245724.386889 kJ/mol
# GULP energy per Si atom -5584.645157 kJ/mol
# Density = 2.320473 g / cm^3
# Si number density = 23.257665 Si / 1000 Ang^3
#
#
#
# Elastic Constant Matrix: (Units=GPa)
#
#
# Indices 1 2 3 4 5 6 
#
# 1 137.6730 -0.4923 52.5031 0.0000 0.0000 0.0000
# 2 -0.4923 61.8912 4.1789 0.0000 0.0000 0.0000
# 3 52.5031 4.1789 136.2413 0.0000 0.0000 0.0000
# 4 0.0000 0.0000 0.0000 -1.4936 0.0000 0.0000
# 5 0.0000 0.0000 0.0000 0.0000 44.5742 0.0000
# 6 0.0000 0.0000 0.0000 0.0000 0.0000 20.9195
#
#
#
# Elastic Compliance Matrix: (Units=1/GPa)
#
#
# Indices 1 2 3 4 5 6 
#
# 1 0.008520 0.000290 -0.003292 0.000000 0.000000 0.000000
# 2 0.000290 0.016201 -0.000609 0.000000 0.000000 0.000000
# 3 -0.003292 -0.000609 0.008627 0.000000 0.000000 0.000000
# 4 0.000000 0.000000 0.000000 -0.669526 0.000000 0.000000
# 5 0.000000 0.000000 0.000000 0.000000 0.022435 0.000000
# 6 0.000000 0.000000 0.000000 0.000000 0.000000 0.047802
#
#
# Mechanical properties :
#
#
# Convention : Reuss Voigt Hill
#
# Bulk Modulus (GPa) = 38.27541 49.79832 44.03687
# Shear Modulus (GPa) = -9.09074 31.44106 11.17516
#
# Velocity S-wave (km/s) = -1.97919 3.68075 2.19439
# Velocity P-wave (km/s) = 3.35707 6.28665 5.03944
#
# Compressibility (1/GPa) = 0.02612643
#
# Stress axis : x y z
#
# Youngs Moduli (GPa) = 117.36842 61.72533 115.91059
#
# Poissons Ratio (x) = -0.01790 0.38161
# Poissons Ratio (y) = -0.03404 0.07056
# Poissons Ratio (z) = 0.38641 0.03757
#
# Static dielectric constant tensor:
#      x y z
#    x 1.854790 0.000000 0.000000 
#    y 0.000000 1.931720 0.000000 
#    z 0.000000 0.000000 1.850020 
# 
# From -- ./inp_files/26754.got.cif
#   From: 2010.05.17/outbox.cif.g08.bks.cpg/sg69_14_cif.got.tgz:26754.got - 2010.06.03 19:29:58.
