data_PCOD9511988
_publ_section_title
;
Structure prediction by ZEFSAII (Michael W. Deem and Ramdas Pophale) SiO2 
 PCOD9511988
Probable space group: F M M M
;
_chemical_formula_sum "Si O2"
_cell_formula_units_Z 192
_cell_length_a 28.306738
_cell_length_b 15.274358
_cell_length_c 23.728611
_cell_angle_alpha 90.000000
_cell_angle_beta 90.000000
_cell_angle_gamma 90.000000
_cell_volume 10259.474285
_symmetry_space_group_name_H-M "F M M M"
_symmetry_group_IT_number 69
_symmetry_cell_setting 'orthorhombic'
loop_
_space_group_symop_operation_xyz
x,y,z
-x,-y,z
x,-y,-z
-x,y,-z
-x,-y,-z
x,y,-z
-x,y,z
x,-y,z
x,1/2+y,1/2+z
-x,1/2-y,1/2+z
x,1/2-y,1/2-z
-x,1/2+y,1/2-z
-x,1/2-y,1/2-z
x,1/2+y,1/2-z
-x,1/2+y,1/2+z
x,1/2-y,1/2+z
1/2+x,y,1/2+z
1/2-x,-y,1/2+z
1/2+x,-y,1/2-z
1/2-x,y,1/2-z
1/2-x,-y,1/2-z
1/2+x,y,1/2-z
1/2-x,y,1/2+z
1/2+x,-y,1/2+z
1/2+x,1/2+y,z
1/2-x,1/2-y,z
1/2+x,1/2-y,-z
1/2-x,1/2+y,-z
1/2-x,1/2-y,-z
1/2+x,1/2+y,-z
1/2-x,1/2+y,z
1/2+x,1/2-y,z
loop_
_atom_site_type_symbol
_atom_site_label
_atom_site_fract_x
_atom_site_fract_y
_atom_site_fract_z
Si Si1 0.381760 0.394400 0.500000
Si Si2 0.947692 0.729277 0.683811
Si Si3 0.320748 0.101616 0.198690
Si Si4 0.589662 0.894710 0.123643
Si Si5 0.763821 0.350199 0.377746
Si Si6 0.358385 0.894281 0.680746
Si Si7 0.275420 0.603509 0.500000
O O1 0.377779 0.500000 0.500000
O O2 0.407920 0.373583 0.442323
O O3 0.328467 0.357273 0.500000
O O4 0.944103 0.750000 0.750000
O O5 0.942786 0.823683 0.653721
O O6 0.905670 0.661579 0.669797
O O7 0.000000 0.692745 0.672076
O O8 0.358731 0.124868 0.150643
O O9 0.269248 0.109683 0.171510
O O10 0.335809 0.139415 0.259248
O O11 0.327585 0.000000 0.208836
O O12 0.579806 0.000000 0.131390
O O13 0.750000 0.250000 0.372496
O O14 0.817563 0.373451 0.364260
O O15 0.750057 0.375026 0.441420
O O16 0.367070 0.000000 0.681654
O O17 0.280904 0.500000 0.500000
#
# Coordination Sequence:
#
# PCOD9511988 Si02
#       7
#    16  32  32  32  32  32  16
#     4   9  18  33  62  90 122 165 196 236 300 378
#     4  11  24  41  63  88 116 155 205 263 320 364
#     4  10  19  35  57  83 119 158 194 232 288 361
#     4  10  19  36  62  94 126 158 196 245 311 382
#     4  12  24  35  56  87 124 163 200 246 296 356
#     4  11  24  40  59  87 123 165 209 250 300 362
#     4  11  21  37  55  81 121 162 204 239 286 360
#
# _framework density 18.714409
#
# number of rings (size 3 to 8) (size 9 to 14) (size 15 to 20)
#    0.000    1.333    3.333    3.250    0.000    2.667 
#    0.000    2.083    0.000    1.500    0.000    0.000 
#    0.000    3.333    0.000    0.000    0.000    0.000 
#
# Total GULP energy -267582.815220 kJ/mol
# GULP energy per Si atom -5574.641984 kJ/mol
# Density = 1.867181 g / cm^3
# Si number density = 18.714409 Si / 1000 Ang^3
#
#
#
# Elastic Constant Matrix: (Units=GPa)
#
#
# Indices 1 2 3 4 5 6 
#
# 1 122.8351 38.4558 35.0078 0.0000 0.0000 0.0000
# 2 38.4558 64.7382 33.9885 0.0000 0.0000 0.0000
# 3 35.0078 33.9885 123.6023 0.0000 0.0000 0.0000
# 4 0.0000 0.0000 0.0000 -22.3274 0.0000 0.0000
# 5 0.0000 0.0000 0.0000 0.0000 -3.1923 0.0000
# 6 0.0000 0.0000 0.0000 0.0000 0.0000 25.6531
#
#
#
# Elastic Compliance Matrix: (Units=1/GPa)
#
#
# Indices 1 2 3 4 5 6 
#
# 1 0.010213 -0.005315 -0.001431 0.000000 0.000000 0.000000
# 2 -0.005315 0.020820 -0.004220 0.000000 0.000000 0.000000
# 3 -0.001431 -0.004220 0.009656 0.000000 0.000000 0.000000
# 4 0.000000 0.000000 0.000000 -0.044788 0.000000 0.000000
# 5 0.000000 0.000000 0.000000 0.000000 -0.313256 0.000000
# 6 0.000000 0.000000 0.000000 0.000000 0.000000 0.038982
#
#
# Mechanical properties :
#
#
# Convention : Reuss Voigt Hill
#
# Bulk Modulus (GPa) = 53.31412 58.45331 55.88372
# Shear Modulus (GPa) = -19.98487 13.60824 -3.18832
#
# Velocity S-wave (km/s) = -3.27140 2.69950 -1.30666
# Velocity P-wave (km/s) = 3.77898 6.40458 5.25830
#
# Compressibility (1/GPa) = 0.01875676
#
# Stress axis : x y z
#
# Youngs Moduli (GPa) = 97.91546 48.03164 103.56195
#
# Poissons Ratio (x) = 0.25531 0.14819
# Poissons Ratio (y) = 0.52046 0.43699
# Poissons Ratio (z) = 0.14011 0.20267
#
# Static dielectric constant tensor:
#      x y z
#    x 1.695810 0.000000 0.000000 
#    y 0.000000 1.620470 0.000000 
#    z 0.000000 0.000000 1.677540 
# 
# From -- ./inp_files/38381.got.cif
#   From: 2010.05.17/outbox.cif.g08.bks.cpg/sg69_20_cif.got.tgz:38381.got - 2010.06.03 19:29:58.
