data_PCOD9511510
_publ_section_title
;
Structure prediction by ZEFSAII (Michael W. Deem and Ramdas Pophale) SiO2 
 PCOD9511510
Probable space group: F M M M
;
_chemical_formula_sum "Si O2"
_cell_formula_units_Z 160
_cell_length_a 24.811891
_cell_length_b 24.040421
_cell_length_c 17.331759
_cell_angle_alpha 90.000000
_cell_angle_beta 90.000000
_cell_angle_gamma 90.000000
_cell_volume 10338.191556
_symmetry_space_group_name_H-M "F M M M"
_symmetry_group_IT_number 69
_symmetry_cell_setting 'orthorhombic'
loop_
_space_group_symop_operation_xyz
x,y,z
-x,-y,z
x,-y,-z
-x,y,-z
-x,-y,-z
x,y,-z
-x,y,z
x,-y,z
x,1/2+y,1/2+z
-x,1/2-y,1/2+z
x,1/2-y,1/2-z
-x,1/2+y,1/2-z
-x,1/2-y,1/2-z
x,1/2+y,1/2-z
-x,1/2+y,1/2+z
x,1/2-y,1/2+z
1/2+x,y,1/2+z
1/2-x,-y,1/2+z
1/2+x,-y,1/2-z
1/2-x,y,1/2-z
1/2-x,-y,1/2-z
1/2+x,y,1/2-z
1/2-x,y,1/2+z
1/2+x,-y,1/2+z
1/2+x,1/2+y,z
1/2-x,1/2-y,z
1/2+x,1/2-y,-z
1/2-x,1/2+y,-z
1/2-x,1/2-y,-z
1/2+x,1/2+y,-z
1/2-x,1/2+y,z
1/2+x,1/2-y,z
loop_
_atom_site_type_symbol
_atom_site_label
_atom_site_fract_x
_atom_site_fract_y
_atom_site_fract_z
Si Si1 0.170507 0.232407 0.590750
Si Si2 0.560841 0.256167 0.841665
Si Si3 0.763395 0.334364 0.659740
Si Si4 0.672049 0.063991 0.592786
Si Si5 0.060129 0.120015 0.907866
O O1 0.174497 0.244080 0.500000
O O2 0.108983 0.224725 0.615661
O O3 0.194413 0.285619 0.636732
O O4 0.209219 0.181689 0.613623
O O5 0.500000 0.238142 0.862434
O O6 0.567288 0.250000 0.750000
O O7 0.565535 0.320876 0.865699
O O8 0.750000 0.332363 0.750000
O O9 0.788996 0.392392 0.634176
O O10 0.678164 0.070032 0.500000
O O11 0.610224 0.080795 0.611486
O O12 0.682267 0.000000 0.613119
O O13 0.000000 0.097402 0.891540
O O14 0.062892 0.130813 0.000000
#
# Coordination Sequence:
#
# PCOD9511510 Si02
#       5
#    32  32  32  32  32
#     4  11  20  32  51  73  99 128 164 202 244 296
#     4  10  19  30  47  73 103 131 159 193 240 291
#     4  11  21  33  50  70  97 129 166 204 247 295
#     4  10  20  34  51  71  98 130 166 207 247 292
#     4   9  17  30  49  72 100 132 162 196 239 292
#
# _framework density 15.476595
#
# number of rings (size 3 to 8) (size 9 to 14) (size 15 to 20)
#    0.000    1.800    2.000    5.400    0.000    2.000 
#    0.000    2.000    0.000    0.000    0.000    0.000 
#    0.000    0.800    0.000    4.200    0.000    0.000 
#
# Total GULP energy -223133.793050 kJ/mol
# GULP energy per Si atom -5578.344826 kJ/mol
# Density = 1.544137 g / cm^3
# Si number density = 15.476595 Si / 1000 Ang^3
#
#
#
# Elastic Constant Matrix: (Units=GPa)
#
#
# Indices 1 2 3 4 5 6 
#
# 1 129.7177 58.6830 55.0029 0.0000 0.0000 0.0000
# 2 58.6830 83.4494 38.9721 0.0000 0.0000 0.0000
# 3 55.0029 38.9721 73.5524 0.0000 0.0000 0.0000
# 4 0.0000 0.0000 0.0000 -14.9475 0.0000 0.0000
# 5 0.0000 0.0000 0.0000 0.0000 24.5617 0.0000
# 6 0.0000 0.0000 0.0000 0.0000 0.0000 20.3108
#
#
#
# Elastic Compliance Matrix: (Units=1/GPa)
#
#
# Indices 1 2 3 4 5 6 
#
# 1 0.013388 -0.006298 -0.006675 0.000000 0.000000 0.000000
# 2 -0.006298 0.018886 -0.005297 0.000000 0.000000 0.000000
# 3 -0.006675 -0.005297 0.021394 0.000000 0.000000 0.000000
# 4 0.000000 0.000000 0.000000 -0.066901 0.000000 0.000000
# 5 0.000000 0.000000 0.000000 0.000000 0.040714 0.000000
# 6 0.000000 0.000000 0.000000 0.000000 0.000000 0.049235
#
#
# Mechanical properties :
#
#
# Convention : Reuss Voigt Hill
#
# Bulk Modulus (GPa) = 58.38275 65.78174 62.08224
# Shear Modulus (GPa) = 42.02894 14.92245 28.47570
#
# Velocity S-wave (km/s) = 5.21684 3.10852 4.29408
# Velocity P-wave (km/s) = 8.60769 7.44850 8.04899
#
# Compressibility (1/GPa) = 0.01712835
#
# Stress axis : x y z
#
# Youngs Moduli (GPa) = 74.69165 52.94987 46.74144
#
# Poissons Ratio (x) = 0.33345 0.31201
# Poissons Ratio (y) = 0.47037 0.24761
# Poissons Ratio (z) = 0.49858 0.28050
#
# Static dielectric constant tensor:
#      x y z
#    x 1.552640 0.000000 0.000000 
#    y 0.000000 1.487300 0.000000 
#    z 0.000000 0.000000 1.502440 
# 
# From -- ./inp_files/17710.got.cif
#   From: 2010.05.17/outbox.cif.g08.bks.cpg/sg69_9_cif.got.tgz:17710.got - 2010.06.03 19:29:58.
