data_PCOD9511940
_publ_section_title
;
Structure prediction by ZEFSAII (Michael W. Deem and Ramdas Pophale) SiO2 
 PCOD9511940
Probable space group: F M M M
;
_chemical_formula_sum "Si O2"
_cell_formula_units_Z 192
_cell_length_a 17.777453
_cell_length_b 31.801427
_cell_length_c 16.438710
_cell_angle_alpha 90.000000
_cell_angle_beta 90.000000
_cell_angle_gamma 90.000000
_cell_volume 9293.597966
_symmetry_space_group_name_H-M "F M M M"
_symmetry_group_IT_number 69
_symmetry_cell_setting 'orthorhombic'
loop_
_space_group_symop_operation_xyz
x,y,z
-x,-y,z
x,-y,-z
-x,y,-z
-x,-y,-z
x,y,-z
-x,y,z
x,-y,z
x,1/2+y,1/2+z
-x,1/2-y,1/2+z
x,1/2-y,1/2-z
-x,1/2+y,1/2-z
-x,1/2-y,1/2-z
x,1/2+y,1/2-z
-x,1/2+y,1/2+z
x,1/2-y,1/2+z
1/2+x,y,1/2+z
1/2-x,-y,1/2+z
1/2+x,-y,1/2-z
1/2-x,y,1/2-z
1/2-x,-y,1/2-z
1/2+x,y,1/2-z
1/2-x,y,1/2+z
1/2+x,-y,1/2+z
1/2+x,1/2+y,z
1/2-x,1/2-y,z
1/2+x,1/2-y,-z
1/2-x,1/2+y,-z
1/2-x,1/2-y,-z
1/2+x,1/2+y,-z
1/2-x,1/2+y,z
1/2+x,1/2-y,z
loop_
_atom_site_type_symbol
_atom_site_label
_atom_site_fract_x
_atom_site_fract_y
_atom_site_fract_z
Si Si1 0.914507 0.000000 0.598881
Si Si2 0.339045 0.259031 0.589861
Si Si3 0.680876 0.082172 0.099354
Si Si4 0.000000 0.049746 0.904814
Si Si5 0.087819 0.169341 0.127217
Si Si6 0.333748 0.663793 0.292400
Si Si7 0.651984 0.083209 0.591251
O O1 0.870775 0.042593 0.621131
O O2 0.916437 0.000000 0.500000
O O3 0.000000 0.000000 0.629179
O O4 0.360194 0.274966 0.500000
O O5 0.250000 0.250000 0.589463
O O6 0.382836 0.215652 0.605568
O O7 0.349056 0.293644 0.658495
O O8 0.660436 0.124739 0.146228
O O9 0.767017 0.073324 0.126148
O O10 0.680132 0.087870 0.000000
O O11 0.922756 0.065926 0.866509
O O12 0.000000 0.000000 0.906056
O O13 0.000000 0.065248 0.000000
O O14 0.104886 0.161604 0.221708
O O15 0.138637 0.133204 0.086595
O O16 0.000000 0.164354 0.106673
O O17 0.250000 0.664882 0.250000
O O18 0.653369 0.064839 0.500000
#
# Coordination Sequence:
#
# PCOD9511940 Si02
#       7
#    16  32  32  16  32  32  32
#     4   9  20  40  67  97 127 163 211 273 327 365
#     4  11  23  40  65  92 121 165 217 261 309 374
#     4  10  21  39  67  97 123 161 216 264 315 382
#     4   9  18  30  52  86 127 166 203 253 314 374
#     4  12  25  40  62  91 129 168 210 259 325 385
#     4  12  23  40  63  90 128 168 205 260 318 378
#     4  10  19  34  58  89 126 167 208 255 311 378
#
# _framework density 20.659383999999999
#
# number of rings (size 3 to 8) (size 9 to 14) (size 15 to 20)
#    0.000    1.333    4.167    1.500    1.167    5.667 
#    0.000    0.417    1.833    3.000    0.000    0.000 
#    0.000    0.000    0.000    0.000    0.000    0.000 
#
# Total GULP energy -268007.672395 kJ/mol
# GULP energy per Si atom -5583.493175 kJ/mol
# Density = 2.061236 g / cm^3
# Si number density = 20.659384 Si / 1000 Ang^3
#
#
#
# Elastic Constant Matrix: (Units=GPa)
#
#
# Indices 1 2 3 4 5 6 
#
# 1 130.8145 52.6571 11.8310 0.0000 0.0000 0.0000
# 2 52.6571 104.1782 18.9673 0.0000 0.0000 0.0000
# 3 11.8310 18.9673 63.5468 0.0000 0.0000 0.0000
# 4 0.0000 0.0000 0.0000 -37.3321 0.0000 0.0000
# 5 0.0000 0.0000 0.0000 0.0000 19.6371 0.0000
# 6 0.0000 0.0000 0.0000 0.0000 0.0000 36.5045
#
#
#
# Elastic Compliance Matrix: (Units=1/GPa)
#
#
# Indices 1 2 3 4 5 6 
#
# 1 0.009605 -0.004789 -0.000359 0.000000 0.000000 0.000000
# 2 -0.004789 0.012539 -0.002851 0.000000 0.000000 0.000000
# 3 -0.000359 -0.002851 0.016654 0.000000 0.000000 0.000000
# 4 0.000000 0.000000 0.000000 -0.026787 0.000000 0.000000
# 5 0.000000 0.000000 0.000000 0.000000 0.050924 0.000000
# 6 0.000000 0.000000 0.000000 0.000000 0.000000 0.027394
#
#
# Mechanical properties :
#
#
# Convention : Reuss Voigt Hill
#
# Bulk Modulus (GPa) = 43.86010 51.71670 47.78840
# Shear Modulus (GPa) = 43.88784 18.10085 30.99435
#
# Velocity S-wave (km/s) = 4.61407 2.96321 3.87751
# Velocity P-wave (km/s) = 7.04716 6.06587 6.57485
#
# Compressibility (1/GPa) = 0.02279976
#
# Stress axis : x y z
#
# Youngs Moduli (GPa) = 104.11504 79.75231 60.04520
#
# Poissons Ratio (x) = 0.38197 0.02153
# Poissons Ratio (y) = 0.49865 0.17118
# Poissons Ratio (z) = 0.03734 0.22736
#
# Static dielectric constant tensor:
#      x y z
#    x 1.763320 0.000000 0.000000 
#    y 0.000000 1.719040 0.000000 
#    z 0.000000 0.000000 1.779730 
# 
# From -- ./inp_files/23734.got.cif
#   From: 2010.05.17/outbox.cif.g08.bks.cpg/sg69_12_cif.got.tgz:23734.got - 2010.06.03 19:29:58.
