data_PCOD9511196
_publ_section_title
;
Structure prediction by ZEFSAII (Michael W. Deem and Ramdas Pophale) SiO2 
 PCOD9511196
Probable space group: F M M M
;
_chemical_formula_sum "Si O2"
_cell_formula_units_Z 128
_cell_length_a 15.979649
_cell_length_b 24.279989
_cell_length_c 15.752045
_cell_angle_alpha 90.000000
_cell_angle_beta 90.000000
_cell_angle_gamma 90.000000
_cell_volume 6111.568236
_symmetry_space_group_name_H-M "F M M M"
_symmetry_group_IT_number 69
_symmetry_cell_setting 'orthorhombic'
loop_
_space_group_symop_operation_xyz
x,y,z
-x,-y,z
x,-y,-z
-x,y,-z
-x,-y,-z
x,y,-z
-x,y,z
x,-y,z
x,1/2+y,1/2+z
-x,1/2-y,1/2+z
x,1/2-y,1/2-z
-x,1/2+y,1/2-z
-x,1/2-y,1/2-z
x,1/2+y,1/2-z
-x,1/2+y,1/2+z
x,1/2-y,1/2+z
1/2+x,y,1/2+z
1/2-x,-y,1/2+z
1/2+x,-y,1/2-z
1/2-x,y,1/2-z
1/2-x,-y,1/2-z
1/2+x,y,1/2-z
1/2-x,y,1/2+z
1/2+x,-y,1/2+z
1/2+x,1/2+y,z
1/2-x,1/2-y,z
1/2+x,1/2-y,-z
1/2-x,1/2+y,-z
1/2-x,1/2-y,-z
1/2+x,1/2+y,-z
1/2-x,1/2+y,z
1/2+x,1/2-y,z
loop_
_atom_site_type_symbol
_atom_site_label
_atom_site_fract_x
_atom_site_fract_y
_atom_site_fract_z
Si Si1 0.630077 0.000000 0.905217
Si Si2 0.752899 0.813851 0.145684
Si Si3 0.694642 0.000000 0.662195
Si Si4 0.590018 0.878333 0.148631
Si Si5 0.905448 0.613934 0.348363
O O1 0.730561 0.000000 0.904785
O O2 0.601075 0.056221 0.862209
O O3 0.597635 0.000000 0.000000
O O4 0.750000 0.816969 0.250000
O O5 0.750000 0.750000 0.122505
O O6 0.671058 0.846826 0.114826
O O7 0.837118 0.843951 0.114814
O O8 0.750000 0.000000 0.750000
O O9 0.637739 0.053868 0.652999
O O10 0.500000 0.861614 0.112054
O O11 0.587325 0.868966 0.249523
O O12 0.000000 0.613372 0.383721
#
# Coordination Sequence:
#
# PCOD9511196 Si02
#       5
#    16  32  16  32  32
#     4  12  23  34  53  79 107 135 168 213 267 315
#     4   9  17  30  48  75 110 140 170 215 258 296
#     4  12  17  33  55  74 104 139 168 210 260 312
#     4  10  19  32  50  76 107 139 170 207 258 311
#     4  10  18  29  52  80 103 134 175 212 253 306
#
# _framework density 20.943888999999999
#
# number of rings (size 3 to 8) (size 9 to 14) (size 15 to 20)
#    0.000    1.750    5.000    1.500    0.000    4.000 
#    0.000    5.000    0.000    2.250    0.000    0.000 
#    0.000    0.000    0.000    0.000    0.000    0.000 
#
# Total GULP energy -178555.437044 kJ/mol
# GULP energy per Si atom -5579.857408 kJ/mol
# Density = 2.089622 g / cm^3
# Si number density = 20.943889 Si / 1000 Ang^3
#
#
#
# Elastic Constant Matrix: (Units=GPa)
#
#
# Indices 1 2 3 4 5 6 
#
# 1 250.3096 110.9408 4.8390 0.0000 0.0000 0.0000
# 2 110.9408 156.9799 -5.9520 0.0000 0.0000 0.0000
# 3 4.8390 -5.9520 27.1896 0.0000 0.0000 0.0000
# 4 0.0000 0.0000 0.0000 -14.0026 0.0000 0.0000
# 5 0.0000 0.0000 0.0000 0.0000 -7.0669 0.0000
# 6 0.0000 0.0000 0.0000 0.0000 0.0000 15.8321
#
#
#
# Elastic Compliance Matrix: (Units=1/GPa)
#
#
# Indices 1 2 3 4 5 6 
#
# 1 0.005922 -0.004260 -0.001986 0.000000 0.000000 0.000000
# 2 -0.004260 0.009489 0.002835 0.000000 0.000000 0.000000
# 3 -0.001986 0.002835 0.037753 0.000000 0.000000 0.000000
# 4 0.000000 0.000000 0.000000 -0.071415 0.000000 0.000000
# 5 0.000000 0.000000 0.000000 0.000000 -0.141505 0.000000
# 6 0.000000 0.000000 0.000000 0.000000 0.000000 0.063163
#
#
# Mechanical properties :
#
#
# Convention : Reuss Voigt Hill
#
# Bulk Modulus (GPa) = 21.57949 72.68164 47.13057
# Shear Modulus (GPa) = -67.27234 20.59593 -23.33820
#
# Velocity S-wave (km/s) = -5.67362 3.13930 -3.34177
# Velocity P-wave (km/s) = 5.70913 6.92233 2.76808
#
# Compressibility (1/GPa) = 0.04634030
#
# Stress axis : x y z
#
# Youngs Moduli (GPa) = 168.87109 105.38990 26.48798
#
# Poissons Ratio (x) = 0.44899 0.05262
# Poissons Ratio (y) = 0.71944 -0.07510
# Poissons Ratio (z) = 0.33546 -0.29881
#
# Static dielectric constant tensor:
#      x y z
#    x 1.793430 0.000000 0.000000 
#    y 0.000000 1.710790 0.000000 
#    z 0.000000 0.000000 1.769940 
# 
# From -- ./inp_files/15369.got.cif
#   From: 2010.05.17/outbox.cif.g08.bks.cpg/sg69_8_cif.got.tgz:15369.got - 2010.06.03 19:29:58.
