data_PCOD9511920
_publ_section_title
;
Structure prediction by ZEFSAII (Michael W. Deem and Ramdas Pophale) SiO2 
 PCOD9511920
Probable space group: F M M M
;
_chemical_formula_sum "Si O2"
_cell_formula_units_Z 224
_cell_length_a 14.963299
_cell_length_b 33.672610
_cell_length_c 22.644208
_cell_angle_alpha 90.000000
_cell_angle_beta 90.000000
_cell_angle_gamma 90.000000
_cell_volume 11409.359641
_symmetry_space_group_name_H-M "F M M M"
_symmetry_group_IT_number 69
_symmetry_cell_setting 'orthorhombic'
loop_
_space_group_symop_operation_xyz
x,y,z
-x,-y,z
x,-y,-z
-x,y,-z
-x,-y,-z
x,y,-z
-x,y,z
x,-y,z
x,1/2+y,1/2+z
-x,1/2-y,1/2+z
x,1/2-y,1/2-z
-x,1/2+y,1/2-z
-x,1/2-y,1/2-z
x,1/2+y,1/2-z
-x,1/2+y,1/2+z
x,1/2-y,1/2+z
1/2+x,y,1/2+z
1/2-x,-y,1/2+z
1/2+x,-y,1/2-z
1/2-x,y,1/2-z
1/2-x,-y,1/2-z
1/2+x,y,1/2-z
1/2-x,y,1/2+z
1/2+x,-y,1/2+z
1/2+x,1/2+y,z
1/2-x,1/2-y,z
1/2+x,1/2-y,-z
1/2-x,1/2+y,-z
1/2-x,1/2-y,-z
1/2+x,1/2+y,-z
1/2-x,1/2+y,z
1/2+x,1/2-y,z
loop_
_atom_site_type_symbol
_atom_site_label
_atom_site_fract_x
_atom_site_fract_y
_atom_site_fract_z
Si Si1 0.101590 0.675672 0.173339
Si Si2 0.733235 0.455540 0.429668
Si Si3 0.391514 0.379876 0.567969
Si Si4 0.892429 0.660180 0.302576
Si Si5 0.606868 0.139676 0.500000
Si Si6 0.350829 0.741488 0.867711
Si Si7 0.107332 0.588585 0.616331
Si Si8 0.392319 0.728530 0.000000
O O1 0.139168 0.652941 0.115963
O O2 0.144215 0.666728 0.236701
O O3 0.098065 0.722772 0.163728
O O4 0.000000 0.660864 0.176839
O O5 0.754690 0.454076 0.500000
O O6 0.699475 0.500000 0.417173
O O7 0.660393 0.420956 0.419216
O O8 0.823349 0.447004 0.392530
O O9 0.370396 0.368118 0.500000
O O10 0.500000 0.384714 0.570359
O O11 0.872046 0.697356 0.345416
O O12 0.868407 0.617688 0.329894
O O13 0.000000 0.660307 0.300019
O O14 0.500000 0.144888 0.500000
O O15 0.626954 0.115300 0.558372
O O16 0.645075 0.183635 0.500000
O O17 0.250000 0.750000 0.851976
O O18 0.364101 0.746537 0.937787
O O19 0.000000 0.579418 0.617335
O O20 0.500000 0.728759 0.000000
#
# Coordination Sequence:
#
# PCOD9511920 Si02
#       8
#    32  32  32  32  16  32  32  16
#     4  10  22  39  59  81 109 150 199 246 287 333
#     4  10  21  36  58  90 121 147 180 228 287 351
#     4   9  20  39  61  85 113 147 189 240 295 345
#     4  10  21  39  59  78 109 157 201 236 280 340
#     4   9  16  29  52  77 104 144 192 231 273 327
#     4  12  25  36  51  83 119 151 194 245 291 335
#     4  10  19  34  57  84 116 154 190 229 278 338
#     4  11  21  37  57  76 108 154 199 238 284 341
#
# _framework density 19.633002999999999
#
# number of rings (size 3 to 8) (size 9 to 14) (size 15 to 20)
#    0.000    1.857    2.143    1.929    3.000    2.857 
#    0.000    2.143    0.000    1.714    0.000    4.000 
#    0.000    0.000    0.000    0.000    0.000    0.000 
#
# Total GULP energy -312334.620409 kJ/mol
# GULP energy per Si atom -5577.403936 kJ/mol
# Density = 1.958832 g / cm^3
# Si number density = 19.633003 Si / 1000 Ang^3
#
#
#
# Elastic Constant Matrix: (Units=GPa)
#
#
# Indices 1 2 3 4 5 6 
#
# 1 48.0308 12.4987 10.0333 0.0000 0.0000 0.0000
# 2 12.4987 55.9140 16.7775 0.0000 0.0000 0.0000
# 3 10.0333 16.7775 91.3869 0.0000 0.0000 0.0000
# 4 0.0000 0.0000 0.0000 15.5260 0.0000 0.0000
# 5 0.0000 0.0000 0.0000 0.0000 3.9174 0.0000
# 6 0.0000 0.0000 0.0000 0.0000 0.0000 28.9389
#
#
#
# Elastic Compliance Matrix: (Units=1/GPa)
#
#
# Indices 1 2 3 4 5 6 
#
# 1 0.022332 -0.004504 -0.001625 0.000000 0.000000 0.000000
# 2 -0.004504 0.019836 -0.003147 0.000000 0.000000 0.000000
# 3 -0.001625 -0.003147 0.011699 0.000000 0.000000 0.000000
# 4 0.000000 0.000000 0.000000 0.064408 0.000000 0.000000
# 5 0.000000 0.000000 0.000000 0.000000 0.255274 0.000000
# 6 0.000000 0.000000 0.000000 0.000000 0.000000 0.034556
#
#
# Mechanical properties :
#
#
# Convention : Reuss Voigt Hill
#
# Bulk Modulus (GPa) = 28.31779 30.43897 29.37838
# Shear Modulus (GPa) = 11.40440 20.07793 15.74117
#
# Velocity S-wave (km/s) = 2.41276 3.20138 2.83463
# Velocity P-wave (km/s) = 4.71346 5.40396 5.07048
#
# Compressibility (1/GPa) = 0.03531349
#
# Stress axis : x y z
#
# Youngs Moduli (GPa) = 44.77973 50.41390 85.48000
#
# Poissons Ratio (x) = 0.22708 0.13889
# Poissons Ratio (y) = 0.20170 0.26901
# Poissons Ratio (z) = 0.07276 0.15866
#
# Static dielectric constant tensor:
#      x y z
#    x 1.793530 0.000000 0.000000 
#    y 0.000000 1.700770 0.000000 
#    z 0.000000 0.000000 1.728820 
# 
# From -- ./inp_files/31235.got.cif
#   From: 2010.05.17/outbox.cif.g08.bks.cpg/sg69_16_cif.got.tgz:31235.got - 2010.06.03 19:29:58.
