data_PCOD9511908
_publ_section_title
;
Structure prediction by ZEFSAII (Michael W. Deem and Ramdas Pophale) SiO2 
 PCOD9511908
Probable space group: F M M M
;
_chemical_formula_sum "Si O2"
_cell_formula_units_Z 176
_cell_length_a 27.071567
_cell_length_b 18.320909
_cell_length_c 18.516642
_cell_angle_alpha 90.000000
_cell_angle_beta 90.000000
_cell_angle_gamma 90.000000
_cell_volume 9183.804765
_symmetry_space_group_name_H-M "F M M M"
_symmetry_group_IT_number 69
_symmetry_cell_setting 'orthorhombic'
loop_
_space_group_symop_operation_xyz
x,y,z
-x,-y,z
x,-y,-z
-x,y,-z
-x,-y,-z
x,y,-z
-x,y,z
x,-y,z
x,1/2+y,1/2+z
-x,1/2-y,1/2+z
x,1/2-y,1/2-z
-x,1/2+y,1/2-z
-x,1/2-y,1/2-z
x,1/2+y,1/2-z
-x,1/2+y,1/2+z
x,1/2-y,1/2+z
1/2+x,y,1/2+z
1/2-x,-y,1/2+z
1/2+x,-y,1/2-z
1/2-x,y,1/2-z
1/2-x,-y,1/2-z
1/2+x,y,1/2-z
1/2-x,y,1/2+z
1/2+x,-y,1/2+z
1/2+x,1/2+y,z
1/2-x,1/2-y,z
1/2+x,1/2-y,-z
1/2-x,1/2+y,-z
1/2-x,1/2-y,-z
1/2+x,1/2+y,-z
1/2-x,1/2+y,z
1/2+x,1/2-y,z
loop_
_atom_site_type_symbol
_atom_site_label
_atom_site_fract_x
_atom_site_fract_y
_atom_site_fract_z
Si Si1 0.220619 0.325692 0.317556
Si Si2 0.943180 0.089093 0.500000
Si Si3 0.278859 0.413029 0.416992
Si Si4 0.395021 0.326294 0.215696
Si Si5 0.059637 0.585101 0.416414
Si Si6 0.383542 0.087714 0.141925
O O1 0.250000 0.361104 0.250000
O O2 0.250000 0.250000 0.329046
O O3 0.230474 0.375706 0.386062
O O4 0.163366 0.316172 0.301118
O O5 0.915713 0.112757 0.573140
O O6 0.000000 0.111940 0.500000
O O7 0.941755 0.000000 0.500000
O O8 0.287424 0.394529 0.500000
O O9 0.275170 0.500000 0.411075
O O10 0.327192 0.388537 0.372896
O O11 0.413695 0.250000 0.250000
O O12 0.419299 0.359644 0.143607
O O13 0.400714 0.382933 0.281505
O O14 0.074039 0.601695 0.500000
O O15 0.074098 0.500000 0.401593
O O16 0.000000 0.587822 0.413401
O O17 0.384495 0.000000 0.141979
#
# Coordination Sequence:
#
# PCOD9511908 Si02
#       6
#    32  16  32  32  32  32
#     4  11  21  39  55  78 117 163 204 237 288 356
#     4   9  18  34  56  82 113 146 187 237 291 368
#     4  10  20  34  54  81 113 152 200 251 300 354
#     4  12  23  38  62  93 125 160 206 259 306 369
#     4   9  21  45  72  94 122 162 207 260 320 375
#     4  10  19  34  56  82 114 158 201 244 305 366
#
# _framework density 19.164169000000001
#
# number of rings (size 3 to 8) (size 9 to 14) (size 15 to 20)
#    0.000    1.727    4.545    1.091    0.000    4.000 
#    1.636    3.636    0.000    0.000    0.000    0.000 
#    0.000    0.000    0.000    0.000    0.000    0.000 
#
# Total GULP energy -245415.658195 kJ/mol
# GULP energy per Si atom -5577.628595 kJ/mol
# Density = 1.912055 g / cm^3
# Si number density = 19.164169 Si / 1000 Ang^3
#
#
#
# Elastic Constant Matrix: (Units=GPa)
#
#
# Indices 1 2 3 4 5 6 
#
# 1 56.8906 28.5748 44.1004 0.0000 0.0000 0.0000
# 2 28.5748 48.3332 61.3056 0.0000 0.0000 0.0000
# 3 44.1004 61.3056 140.9407 0.0000 0.0000 0.0000
# 4 0.0000 0.0000 0.0000 14.8399 0.0000 0.0000
# 5 0.0000 0.0000 0.0000 0.0000 36.7357 0.0000
# 6 0.0000 0.0000 0.0000 0.0000 0.0000 18.7060
#
#
#
# Elastic Compliance Matrix: (Units=1/GPa)
#
#
# Indices 1 2 3 4 5 6 
#
# 1 0.025628 -0.011109 -0.003187 0.000000 0.000000 0.000000
# 2 -0.011109 0.050969 -0.018694 0.000000 0.000000 0.000000
# 3 -0.003187 -0.018694 0.016224 0.000000 0.000000 0.000000
# 4 0.000000 0.000000 0.000000 0.067386 0.000000 0.000000
# 5 0.000000 0.000000 0.000000 0.000000 0.027221 0.000000
# 6 0.000000 0.000000 0.000000 0.000000 0.000000 0.053459
#
#
# Mechanical properties :
#
#
# Convention : Reuss Voigt Hill
#
# Bulk Modulus (GPa) = 37.25724 57.12513 47.19119
# Shear Modulus (GPa) = 15.83211 21.53524 18.68367
#
# Velocity S-wave (km/s) = 2.87737 3.35584 3.12577
# Velocity P-wave (km/s) = 5.52470 6.69989 6.14047
#
# Compressibility (1/GPa) = 0.02684042
#
# Stress axis : x y z
#
# Youngs Moduli (GPa) = 39.02020 19.61970 61.63787
#
# Poissons Ratio (x) = 0.21796 0.19642
# Poissons Ratio (y) = 0.43349 1.15227
# Poissons Ratio (z) = 0.12434 0.36677
#
# Static dielectric constant tensor:
#      x y z
#    x 1.659180 0.000000 0.000000 
#    y 0.000000 1.682010 0.000000 
#    z 0.000000 0.000000 1.680400 
# 
# From -- ./inp_files/26723.got.cif
#   From: 2010.05.17/outbox.cif.g08.bks.cpg/sg69_14_cif.got.tgz:26723.got - 2010.06.03 19:29:58.
