data_PCOD9511823
_publ_section_title
;
Structure prediction by ZEFSAII (Michael W. Deem and Ramdas Pophale) SiO2 
 PCOD9511823
Probable space group: F M M M
;
_chemical_formula_sum "Si O2"
_cell_formula_units_Z 160
_cell_length_a 16.684621
_cell_length_b 18.861143
_cell_length_c 26.333964
_cell_angle_alpha 90.000000
_cell_angle_beta 90.000000
_cell_angle_gamma 90.000000
_cell_volume 8287.062060
_symmetry_space_group_name_H-M "F M M M"
_symmetry_group_IT_number 69
_symmetry_cell_setting 'orthorhombic'
loop_
_space_group_symop_operation_xyz
x,y,z
-x,-y,z
x,-y,-z
-x,y,-z
-x,-y,-z
x,y,-z
-x,y,z
x,-y,z
x,1/2+y,1/2+z
-x,1/2-y,1/2+z
x,1/2-y,1/2-z
-x,1/2+y,1/2-z
-x,1/2-y,1/2-z
x,1/2+y,1/2-z
-x,1/2+y,1/2+z
x,1/2-y,1/2+z
1/2+x,y,1/2+z
1/2-x,-y,1/2+z
1/2+x,-y,1/2-z
1/2-x,y,1/2-z
1/2-x,-y,1/2-z
1/2+x,y,1/2-z
1/2-x,y,1/2+z
1/2+x,-y,1/2+z
1/2+x,1/2+y,z
1/2-x,1/2-y,z
1/2+x,1/2-y,-z
1/2-x,1/2+y,-z
1/2-x,1/2-y,-z
1/2+x,1/2+y,-z
1/2-x,1/2+y,z
1/2+x,1/2-y,z
loop_
_atom_site_type_symbol
_atom_site_label
_atom_site_fract_x
_atom_site_fract_y
_atom_site_fract_z
Si Si1 0.908569 0.579249 0.744771
Si Si2 0.332064 0.846989 0.163221
Si Si3 0.828099 0.415315 0.057010
Si Si4 0.641784 0.688450 0.838187
Si Si5 0.684240 0.685986 0.055568
O O1 0.889937 0.500000 0.726470
O O2 0.852990 0.600064 0.791779
O O3 0.899985 0.635131 0.699562
O O4 0.000000 0.580722 0.763355
O O5 0.359680 0.876816 0.108153
O O6 0.369468 0.770431 0.176060
O O7 0.236613 0.832140 0.163187
O O8 0.831876 0.500000 0.063161
O O9 0.737211 0.385422 0.055314
O O10 0.861467 0.397997 0.000000
O O11 0.623656 0.684182 0.898022
O O12 0.750000 0.750000 0.063359
O O13 0.648947 0.697385 0.000000
#
# Coordination Sequence:
#
# PCOD9511823 Si02
#       5
#    32  32  32  32  32
#     4  11  25  40  52  70 102 144 186 228 271 316
#     4  10  19  34  55  81 108 136 174 219 269 325
#     4   9  16  26  46  78 111 139 168 207 259 317
#     4  10  19  33  55  84 106 135 174 220 267 320
#     4   9  15  28  49  78 112 140 163 204 259 312
#
# _framework density 19.307205
#
# number of rings (size 3 to 8) (size 9 to 14) (size 15 to 20)
#    0.000    2.200    4.000    1.800    0.000    8.000 
#    0.000    0.000    0.000    1.200    0.000    7.000 
#    0.000    0.000    0.000    0.000    0.000    0.000 
#
# Total GULP energy -222784.642488 kJ/mol
# GULP energy per Si atom -5569.616062 kJ/mol
# Density = 1.926326 g / cm^3
# Si number density = 19.307205 Si / 1000 Ang^3
#
#
#
# Elastic Constant Matrix: (Units=GPa)
#
#
# Indices 1 2 3 4 5 6 
#
# 1 8.0102 12.2616 8.3687 0.0000 0.0000 0.0000
# 2 12.2616 114.7365 28.8233 0.0000 0.0000 0.0000
# 3 8.3687 28.8233 75.1448 0.0000 0.0000 0.0000
# 4 0.0000 0.0000 0.0000 35.2860 0.0000 0.0000
# 5 0.0000 0.0000 0.0000 0.0000 -11.5141 0.0000
# 6 0.0000 0.0000 0.0000 0.0000 0.0000 13.6317
#
#
#
# Elastic Compliance Matrix: (Units=1/GPa)
#
#
# Indices 1 2 3 4 5 6 
#
# 1 0.159033 -0.013884 -0.012386 0.000000 0.000000 0.000000
# 2 -0.013884 0.010857 -0.002618 0.000000 0.000000 0.000000
# 3 -0.012386 -0.002618 0.015691 0.000000 0.000000 0.000000
# 4 0.000000 0.000000 0.000000 0.028340 0.000000 0.000000
# 5 0.000000 0.000000 0.000000 0.000000 -0.086850 0.000000
# 6 0.000000 0.000000 0.000000 0.000000 0.000000 0.073358
#
#
# Mechanical properties :
#
#
# Convention : Reuss Voigt Hill
#
# Bulk Modulus (GPa) = 7.82439 32.97764 20.40101
# Shear Modulus (GPa) = 16.62193 17.37659 16.99926
#
# Velocity S-wave (km/s) = 2.93732 3.00326 2.97048
# Velocity P-wave (km/s) = 3.94528 5.39849 4.72805
#
# Compressibility (1/GPa) = 0.12780556
#
# Stress axis : x y z
#
# Youngs Moduli (GPa) = 6.28800 92.10565 63.72963
#
# Poissons Ratio (x) = 1.27879 0.78934
# Poissons Ratio (y) = 0.08730 0.16686
# Poissons Ratio (z) = 0.07788 0.24115
#
# Static dielectric constant tensor:
#      x y z
#    x 1.661700 0.000000 0.000000 
#    y 0.000000 1.700780 0.000000 
#    z 0.000000 0.000000 1.736480 
# 
# From -- ./inp_files/26628.got.cif
#   From: 2010.05.17/outbox.cif.g08.bks.cpg/sg69_14_cif.got.tgz:26628.got - 2010.06.03 19:29:58.
