data_PCOD9511731
_publ_section_title
;
Structure prediction by ZEFSAII (Michael W. Deem and Ramdas Pophale) SiO2 
 PCOD9511731
Probable space group: F M M M
;
_chemical_formula_sum "Si O2"
_cell_formula_units_Z 208
_cell_length_a 17.116757
_cell_length_b 21.531419
_cell_length_c 27.296843
_cell_angle_alpha 90.000000
_cell_angle_beta 90.000000
_cell_angle_gamma 90.000000
_cell_volume 10060.198720
_symmetry_space_group_name_H-M "F M M M"
_symmetry_group_IT_number 69
_symmetry_cell_setting 'orthorhombic'
loop_
_space_group_symop_operation_xyz
x,y,z
-x,-y,z
x,-y,-z
-x,y,-z
-x,-y,-z
x,y,-z
-x,y,z
x,-y,z
x,1/2+y,1/2+z
-x,1/2-y,1/2+z
x,1/2-y,1/2-z
-x,1/2+y,1/2-z
-x,1/2-y,1/2-z
x,1/2+y,1/2-z
-x,1/2+y,1/2+z
x,1/2-y,1/2+z
1/2+x,y,1/2+z
1/2-x,-y,1/2+z
1/2+x,-y,1/2-z
1/2-x,y,1/2-z
1/2-x,-y,1/2-z
1/2+x,y,1/2-z
1/2-x,y,1/2+z
1/2+x,-y,1/2+z
1/2+x,1/2+y,z
1/2-x,1/2-y,z
1/2+x,1/2-y,-z
1/2-x,1/2+y,-z
1/2-x,1/2-y,-z
1/2+x,1/2+y,-z
1/2-x,1/2+y,z
1/2+x,1/2-y,z
loop_
_atom_site_type_symbol
_atom_site_label
_atom_site_fract_x
_atom_site_fract_y
_atom_site_fract_z
Si Si1 0.589844 0.137756 0.869536
Si Si2 0.829258 0.427442 0.218891
Si Si3 0.667882 0.375246 0.095884
Si Si4 0.175400 0.428667 0.057049
Si Si5 0.406430 0.750006 0.443668
Si Si6 0.593047 0.000000 0.555013
Si Si7 0.909813 0.927204 0.817734
O O1 0.500000 0.142141 0.852688
O O2 0.646877 0.117760 0.825275
O O3 0.599722 0.084443 0.910630
O O4 0.609357 0.199203 0.901440
O O5 0.823968 0.500000 0.201725
O O6 0.750000 0.415305 0.250000
O O7 0.896363 0.422475 0.259941
O O8 0.756151 0.387065 0.080017
O O9 0.635787 0.313311 0.071502
O O10 0.621424 0.435628 0.077082
O O11 0.647983 0.381283 0.153379
O O12 0.200090 0.500000 0.061944
O O13 0.163881 0.415328 0.000000
O O14 0.384818 0.732250 0.500000
O O15 0.500000 0.759819 0.443691
O O16 0.500000 0.000000 0.555750
O O17 0.623714 0.000000 0.500000
O O18 0.000000 0.914858 0.830700
O O19 0.892315 0.000000 0.829412
#
# Coordination Sequence:
#
# PCOD9511731 Si02
#       7
#    32  32  32  32  32  16  32
#     4  11  24  43  65  90 125 173 223 266 310 375
#     4  10  21  39  65  94 124 154 200 263 332 389
#     4  12  21  36  59  88 130 170 212 264 331 395
#     4  11  23  38  59  89 124 162 211 275 337 386
#     4  10  22  40  62  90 128 176 226 272 318 377
#     4  11  20  30  52  86 122 163 211 263 323 395
#     4  10  19  32  54  87 121 154 194 247 312 384
#
# _framework density 20.675535
#
# number of rings (size 3 to 8) (size 9 to 14) (size 15 to 20)
#    0.000    1.308    1.538    5.077    0.000    5.846 
#    0.000    3.077    0.000    3.692    0.000    0.000 
#    0.000    0.000    0.000    0.000    0.000    0.000 
#
# Total GULP energy -290345.586038 kJ/mol
# GULP energy per Si atom -5583.568962 kJ/mol
# Density = 2.062848 g / cm^3
# Si number density = 20.675535 Si / 1000 Ang^3
#
#
#
# Elastic Constant Matrix: (Units=GPa)
#
#
# Indices 1 2 3 4 5 6 
#
# 1 56.9346 42.3428 29.0278 0.0000 0.0000 0.0000
# 2 42.3428 104.1302 55.9976 0.0000 0.0000 0.0000
# 3 29.0278 55.9976 124.5450 0.0000 0.0000 0.0000
# 4 0.0000 0.0000 0.0000 26.7009 0.0000 0.0000
# 5 0.0000 0.0000 0.0000 0.0000 31.6355 0.0000
# 6 0.0000 0.0000 0.0000 0.0000 0.0000 28.1911
#
#
#
# Elastic Compliance Matrix: (Units=1/GPa)
#
#
# Indices 1 2 3 4 5 6 
#
# 1 0.025444 -0.009440 -0.001686 0.000000 0.000000 0.000000
# 2 -0.009440 0.016168 -0.005069 0.000000 0.000000 0.000000
# 3 -0.001686 -0.005069 0.010701 0.000000 0.000000 0.000000
# 4 0.000000 0.000000 0.000000 0.037452 0.000000 0.000000
# 5 0.000000 0.000000 0.000000 0.000000 0.031610 0.000000
# 6 0.000000 0.000000 0.000000 0.000000 0.000000 0.035472
#
#
# Mechanical properties :
#
#
# Convention : Reuss Voigt Hill
#
# Bulk Modulus (GPa) = 50.19219 60.03845 55.11532
# Shear Modulus (GPa) = 25.52601 27.85492 26.69047
#
# Velocity S-wave (km/s) = 3.51750 3.67446 3.59684
# Velocity P-wave (km/s) = 6.38951 6.86321 6.63059
#
# Compressibility (1/GPa) = 0.01992342
#
# Stress axis : x y z
#
# Youngs Moduli (GPa) = 39.30200 61.85086 93.44558
#
# Poissons Ratio (x) = 0.58385 0.15755
# Poissons Ratio (y) = 0.37100 0.47370
# Poissons Ratio (z) = 0.06626 0.31354
#
# Static dielectric constant tensor:
#      x y z
#    x 1.772550 0.000000 0.000000 
#    y 0.000000 1.714490 0.000000 
#    z 0.000000 0.000000 1.806150 
# 
# From -- ./inp_files/41994.got.cif
#   From: 2010.05.17/outbox.cif.g08.bks.cpg/sg69_21_cif.got.tgz:41994.got - 2010.06.03 19:29:58.
