data_PCOD9511459
_publ_section_title
;
Structure prediction by ZEFSAII (Michael W. Deem and Ramdas Pophale) SiO2 
 PCOD9511459
Probable space group: F M M M
;
_chemical_formula_sum "Si O2"
_cell_formula_units_Z 160
_cell_length_a 18.677401
_cell_length_b 29.605214
_cell_length_c 14.253617
_cell_angle_alpha 90.000000
_cell_angle_beta 90.000000
_cell_angle_gamma 90.000000
_cell_volume 7881.515478
_symmetry_space_group_name_H-M "F M M M"
_symmetry_group_IT_number 69
_symmetry_cell_setting 'orthorhombic'
loop_
_space_group_symop_operation_xyz
x,y,z
-x,-y,z
x,-y,-z
-x,y,-z
-x,-y,-z
x,y,-z
-x,y,z
x,-y,z
x,1/2+y,1/2+z
-x,1/2-y,1/2+z
x,1/2-y,1/2-z
-x,1/2+y,1/2-z
-x,1/2-y,1/2-z
x,1/2+y,1/2-z
-x,1/2+y,1/2+z
x,1/2-y,1/2+z
1/2+x,y,1/2+z
1/2-x,-y,1/2+z
1/2+x,-y,1/2-z
1/2-x,y,1/2-z
1/2-x,-y,1/2-z
1/2+x,y,1/2-z
1/2-x,y,1/2+z
1/2+x,-y,1/2+z
1/2+x,1/2+y,z
1/2-x,1/2-y,z
1/2+x,1/2-y,-z
1/2-x,1/2+y,-z
1/2-x,1/2-y,-z
1/2+x,1/2+y,-z
1/2-x,1/2+y,z
1/2+x,1/2-y,z
loop_
_atom_site_type_symbol
_atom_site_label
_atom_site_fract_x
_atom_site_fract_y
_atom_site_fract_z
Si Si1 0.267434 0.906413 0.102466
Si Si2 0.917496 0.838891 0.000000
Si Si3 0.077847 0.553838 0.844416
Si Si4 0.812119 0.686074 0.823600
Si Si5 0.665014 0.755283 0.000000
Si Si6 0.125234 0.612413 0.310863
O O1 0.346648 0.927223 0.115818
O O2 0.276691 0.852262 0.110583
O O3 0.201584 0.912782 0.173097
O O4 0.242663 0.920290 0.000000
O O5 0.871437 0.793283 0.000000
O O6 0.901117 0.868541 0.091361
O O7 0.000000 0.825450 0.000000
O O8 0.082650 0.500000 0.843563
O O9 0.077376 0.576394 0.742113
O O10 0.000000 0.565629 0.888929
O O11 0.750000 0.702134 0.750000
O O12 0.863993 0.655974 0.757592
O O13 0.848256 0.719753 0.898815
O O14 0.750000 0.750000 0.000000
#
# Coordination Sequence:
#
# PCOD9511459 Si02
#       6
#    32  16  32  32  16  32
#     4  10  18  35  62  91 120 160 209 254 303 369
#     4  12  26  42  63  92 122 160 211 266 318 374
#     4  10  22  39  59  88 127 165 202 254 317 378
#     4   9  19  34  59  89 119 160 202 248 303 358
#     4  12  22  36  60  89 126 157 206 256 306 366
#     4  10  21  41  65  86 120 165 213 257 310 372
#
# _framework density 20.300664000000001
#
# number of rings (size 3 to 8) (size 9 to 14) (size 15 to 20)
#    0.000    1.800    2.000    4.800    0.000    5.200 
#    0.000    7.500    0.000    1.800    0.000    0.000 
#    0.000    0.000    0.000    0.000    0.000    0.000 
#
# Total GULP energy -222677.072489 kJ/mol
# GULP energy per Si atom -5566.926812 kJ/mol
# Density = 2.025446 g / cm^3
# Si number density = 20.300664 Si / 1000 Ang^3
#
#
#
# Elastic Constant Matrix: (Units=GPa)
#
#
# Indices 1 2 3 4 5 6 
#
# 1 129.3191 34.2111 28.0231 0.0000 0.0000 0.0000
# 2 34.2111 58.8755 22.1483 0.0000 0.0000 0.0000
# 3 28.0231 22.1483 123.6147 0.0000 0.0000 0.0000
# 4 0.0000 0.0000 0.0000 -21.7019 0.0000 0.0000
# 5 0.0000 0.0000 0.0000 0.0000 -4.5039 0.0000
# 6 0.0000 0.0000 0.0000 0.0000 0.0000 19.4590
#
#
#
# Elastic Compliance Matrix: (Units=1/GPa)
#
#
# Indices 1 2 3 4 5 6 
#
# 1 0.009307 -0.004948 -0.001223 0.000000 0.000000 0.000000
# 2 -0.004948 0.020843 -0.002613 0.000000 0.000000 0.000000
# 3 -0.001223 -0.002613 0.008835 0.000000 0.000000 0.000000
# 4 0.000000 0.000000 0.000000 -0.046079 0.000000 0.000000
# 5 0.000000 0.000000 0.000000 0.000000 -0.222032 0.000000
# 6 0.000000 0.000000 0.000000 0.000000 0.000000 0.051390
#
#
# Mechanical properties :
#
#
# Convention : Reuss Voigt Hill
#
# Bulk Modulus (GPa) = 46.69178 53.39713 50.04446
# Shear Modulus (GPa) = -32.67362 13.81242 -9.43060
#
# Velocity S-wave (km/s) = -4.01619 2.61126 -2.15767
# Velocity P-wave (km/s) = 1.24244 5.95414 4.30090
#
# Compressibility (1/GPa) = 0.02141705
#
# Stress axis : x y z
#
# Youngs Moduli (GPa) = 107.44803 47.97790 113.18457
#
# Poissons Ratio (x) = 0.23738 0.13846
# Poissons Ratio (y) = 0.53163 0.29573
# Poissons Ratio (z) = 0.13144 0.12536
#
# Static dielectric constant tensor:
#      x y z
#    x 1.806160 0.000000 0.000000 
#    y 0.000000 1.710630 0.000000 
#    z 0.000000 0.000000 1.793830 
# 
# From -- ./inp_files/15696.got.cif
#   From: 2010.05.17/outbox.cif.g08.bks.cpg/sg69_8_cif.got.tgz:15696.got - 2010.06.03 19:29:58.
