data_PCOD9511665
_publ_section_title
;
Structure prediction by ZEFSAII (Michael W. Deem and Ramdas Pophale) SiO2 
 PCOD9511665
Probable space group: F M M M
;
_chemical_formula_sum "Si O2"
_cell_formula_units_Z 200
_cell_length_a 20.903314
_cell_length_b 29.349644
_cell_length_c 14.512909
_cell_angle_alpha 90.000000
_cell_angle_beta 90.000000
_cell_angle_gamma 90.000000
_cell_volume 8903.739686
_symmetry_space_group_name_H-M "F M M M"
_symmetry_group_IT_number 69
_symmetry_cell_setting 'orthorhombic'
loop_
_space_group_symop_operation_xyz
x,y,z
-x,-y,z
x,-y,-z
-x,y,-z
-x,-y,-z
x,y,-z
-x,y,z
x,-y,z
x,1/2+y,1/2+z
-x,1/2-y,1/2+z
x,1/2-y,1/2-z
-x,1/2+y,1/2-z
-x,1/2-y,1/2-z
x,1/2+y,1/2-z
-x,1/2+y,1/2+z
x,1/2-y,1/2+z
1/2+x,y,1/2+z
1/2-x,-y,1/2+z
1/2+x,-y,1/2-z
1/2-x,y,1/2-z
1/2-x,-y,1/2-z
1/2+x,y,1/2-z
1/2-x,y,1/2+z
1/2+x,-y,1/2+z
1/2+x,1/2+y,z
1/2-x,1/2-y,z
1/2+x,1/2-y,-z
1/2-x,1/2+y,-z
1/2-x,1/2-y,-z
1/2+x,1/2+y,-z
1/2-x,1/2+y,z
1/2+x,1/2-y,z
loop_
_atom_site_type_symbol
_atom_site_label
_atom_site_fract_x
_atom_site_fract_y
_atom_site_fract_z
Si Si1 0.000000 0.833585 0.000000
Si Si2 0.108993 0.637878 0.643971
Si Si3 0.570692 0.233692 0.142039
Si Si4 0.180044 0.551054 0.364290
Si Si5 0.802908 0.715088 0.396252
Si Si6 0.571414 0.373744 0.646906
Si Si7 0.326698 0.551758 0.359816
O O1 0.943272 0.838942 0.920288
O O2 0.133831 0.590562 0.603092
O O3 0.172193 0.670064 0.655887
O O4 0.078286 0.627459 0.742337
O O5 0.500000 0.246677 0.105878
O O6 0.571500 0.250000 0.250000
O O7 0.632153 0.256172 0.099040
O O8 0.577767 0.179788 0.125281
O O9 0.162429 0.500000 0.392522
O O10 0.253760 0.559435 0.390490
O O11 0.176365 0.552291 0.252260
O O12 0.782282 0.701906 0.500000
O O13 0.750000 0.750000 0.357673
O O14 0.500000 0.388459 0.620412
O O15 0.624903 0.408543 0.611482
O O16 0.345608 0.500000 0.386239
#
# Coordination Sequence:
#
# PCOD9511665 Si02
#       7
#     8  32  32  32  32  32  32
#     4  12  24  36  59  82 104 160 196 214 275 356
#     4  11  21  36  56  75 106 147 188 226 273 330
#     4  10  21  36  56  80 110 143 182 229 278 334
#     4   8  16  32  51  74 103 136 179 225 269 317
#     4  11  25  40  55  79 110 146 189 231 277 331
#     4  10  19  32  51  81 113 138 179 232 276 327
#     4   8  15  29  51  76 103 139 174 215 278 330
#
# _framework density 22.462471000000001
#
# number of rings (size 3 to 8) (size 9 to 14) (size 15 to 20)
#    0.000    2.240    3.200    0.960    3.360    0.960 
#    0.000    1.200    0.000    0.000    0.000    0.000 
#    0.000    0.000    0.000    3.520    0.000    0.000 
#
# Total GULP energy -278682.875630 kJ/mol
# GULP energy per Si atom -5573.657513 kJ/mol
# Density = 2.241135 g / cm^3
# Si number density = 22.462471 Si / 1000 Ang^3
#
#
#
# Elastic Constant Matrix: (Units=GPa)
#
#
# Indices 1 2 3 4 5 6 
#
# 1 114.7671 90.2761 1.4472 0.0000 0.0000 0.0000
# 2 90.2761 148.3757 -17.4974 0.0000 0.0000 0.0000
# 3 1.4472 -17.4974 73.1625 0.0000 0.0000 0.0000
# 4 0.0000 0.0000 0.0000 -46.0724 0.0000 0.0000
# 5 0.0000 0.0000 0.0000 0.0000 100.5785 0.0000
# 6 0.0000 0.0000 0.0000 0.0000 0.0000 45.8949
#
#
#
# Elastic Compliance Matrix: (Units=1/GPa)
#
#
# Indices 1 2 3 4 5 6 
#
# 1 0.017306 -0.010877 -0.002944 0.000000 0.000000 0.000000
# 2 -0.010877 0.013771 0.003509 0.000000 0.000000 0.000000
# 3 -0.002944 0.003509 0.014566 0.000000 0.000000 0.000000
# 4 0.000000 0.000000 0.000000 -0.021705 0.000000 0.000000
# 5 0.000000 0.000000 0.000000 0.000000 0.009942 0.000000
# 6 0.000000 0.000000 0.000000 0.000000 0.000000 0.021789
#
#
# Mechanical properties :
#
#
# Convention : Reuss Voigt Hill
#
# Bulk Modulus (GPa) = 39.96884 53.86189 46.91536
# Shear Modulus (GPa) = 59.07949 37.55217 48.31583
#
# Velocity S-wave (km/s) = 5.13405 4.09317 4.64287
# Velocity P-wave (km/s) = 7.27852 6.80951 7.04792
#
# Compressibility (1/GPa) = 0.02501949
#
# Stress axis : x y z
#
# Youngs Moduli (GPa) = 57.78361 72.61624 68.65524
#
# Poissons Ratio (x) = 0.78982 0.20209
# Poissons Ratio (y) = 0.62849 -0.24088
# Poissons Ratio (z) = 0.17009 -0.25478
#
# Static dielectric constant tensor:
#      x y z
#    x 1.781660 0.000000 0.000000 
#    y 0.000000 1.854120 0.000000 
#    z 0.000000 0.000000 1.985420 
# 
# From -- ./inp_files/25180.got.cif
#   From: 2010.05.17/outbox.cif.g08.bks.cpg/sg69_13_cif.got.tgz:25180.got - 2010.06.03 19:29:58.
