data_PCOD9511257
_publ_section_title
;
Structure prediction by ZEFSAII (Michael W. Deem and Ramdas Pophale) SiO2 
 PCOD9511257
Probable space group: F M M M
;
_chemical_formula_sum "Si O2"
_cell_formula_units_Z 160
_cell_length_a 19.591829
_cell_length_b 25.796245
_cell_length_c 18.573213
_cell_angle_alpha 90.000000
_cell_angle_beta 90.000000
_cell_angle_gamma 90.000000
_cell_volume 9386.820516
_symmetry_space_group_name_H-M "F M M M"
_symmetry_group_IT_number 69
_symmetry_cell_setting 'orthorhombic'
loop_
_space_group_symop_operation_xyz
x,y,z
-x,-y,z
x,-y,-z
-x,y,-z
-x,-y,-z
x,y,-z
-x,y,z
x,-y,z
x,1/2+y,1/2+z
-x,1/2-y,1/2+z
x,1/2-y,1/2-z
-x,1/2+y,1/2-z
-x,1/2-y,1/2-z
x,1/2+y,1/2-z
-x,1/2+y,1/2+z
x,1/2-y,1/2+z
1/2+x,y,1/2+z
1/2-x,-y,1/2+z
1/2+x,-y,1/2-z
1/2-x,y,1/2-z
1/2-x,-y,1/2-z
1/2+x,y,1/2-z
1/2-x,y,1/2+z
1/2+x,-y,1/2+z
1/2+x,1/2+y,z
1/2-x,1/2-y,z
1/2+x,1/2-y,-z
1/2-x,1/2+y,-z
1/2-x,1/2-y,-z
1/2+x,1/2+y,-z
1/2-x,1/2+y,z
1/2+x,1/2-y,z
loop_
_atom_site_type_symbol
_atom_site_label
_atom_site_fract_x
_atom_site_fract_y
_atom_site_fract_z
Si Si1 0.423510 0.691764 0.219259
Si Si2 0.077207 0.000000 0.771552
Si Si3 0.077034 0.400750 0.167242
Si Si4 0.724454 0.191618 0.668144
Si Si5 0.721385 0.500000 0.168184
Si Si6 0.786050 0.096663 0.584765
O O1 0.500000 0.682922 0.188671
O O2 0.421402 0.750000 0.250000
O O3 0.414771 0.650752 0.284162
O O4 0.357644 0.687147 0.168790
O O5 0.084367 0.050540 0.721149
O O6 0.139465 0.000000 0.826720
O O7 0.000000 0.000000 0.801618
O O8 0.134733 0.404271 0.107573
O O9 0.000000 0.401399 0.138200
O O10 0.750000 0.179616 0.750000
O O11 0.750000 0.250000 0.653365
O O12 0.756053 0.150578 0.613969
O O13 0.750000 0.500000 0.250000
O O14 0.748982 0.550500 0.127658
O O15 0.777318 0.090735 0.500000
#
# Coordination Sequence:
#
# PCOD9511257 Si02
#       6
#    32  16  32  32  16  32
#     4  10  18  30  53  83 108 134 178 232 275 310
#     4  10  20  34  58  86 105 131 176 230 275 311
#     4  10  19  33  52  79 111 142 175 215 272 327
#     4  11  19  35  58  81 108 144 186 231 267 312
#     4  12  21  38  63  80 105 143 182 231 267 312
#     4  12  24  36  54  82 115 148 180 219 272 326
#
# _framework density 17.045176000000001
#
# number of rings (size 3 to 8) (size 9 to 14) (size 15 to 20)
#    0.000    1.200    6.000    2.100    0.000    0.800 
#    0.000    0.000    0.000    6.000    0.000    0.000 
#    0.000    0.000    0.000    0.000    0.000    0.000 
#
# Total GULP energy -223295.346874 kJ/mol
# GULP energy per Si atom -5582.383672 kJ/mol
# Density = 1.700638 g / cm^3
# Si number density = 17.045176 Si / 1000 Ang^3
#
#
#
# Elastic Constant Matrix: (Units=GPa)
#
#
# Indices 1 2 3 4 5 6 
#
# 1 166.5316 32.8099 62.9823 0.0000 0.0000 0.0000
# 2 32.8099 101.9585 63.1410 0.0000 0.0000 0.0000
# 3 62.9823 63.1410 97.2303 0.0000 0.0000 0.0000
# 4 0.0000 0.0000 0.0000 -4.4366 0.0000 0.0000
# 5 0.0000 0.0000 0.0000 0.0000 15.2303 0.0000
# 6 0.0000 0.0000 0.0000 0.0000 0.0000 30.6807
#
#
#
# Elastic Compliance Matrix: (Units=1/GPa)
#
#
# Indices 1 2 3 4 5 6 
#
# 1 0.008022 0.001065 -0.005888 0.000000 0.000000 0.000000
# 2 0.001065 0.016547 -0.011435 0.000000 0.000000 0.000000
# 3 -0.005888 -0.011435 0.021525 0.000000 0.000000 0.000000
# 4 0.000000 0.000000 0.000000 -0.225395 0.000000 0.000000
# 5 0.000000 0.000000 0.000000 0.000000 0.065659 0.000000
# 6 0.000000 0.000000 0.000000 0.000000 0.000000 0.032594
#
#
# Mechanical properties :
#
#
# Convention : Reuss Voigt Hill
#
# Bulk Modulus (GPa) = 73.65345 75.95410 74.80378
# Shear Modulus (GPa) = -113.61600 22.08069 -45.76765
#
# Velocity S-wave (km/s) = -8.17316 3.60310 -5.18740
# Velocity P-wave (km/s) = 6.76482 7.87191 2.84642
#
# Compressibility (1/GPa) = 0.01357710
#
# Stress axis : x y z
#
# Youngs Moduli (GPa) = 124.66009 60.43443 46.45842
#
# Poissons Ratio (x) = -0.06435 0.27353
# Poissons Ratio (y) = -0.13273 0.53126
# Poissons Ratio (z) = 0.73396 0.69108
#
# Static dielectric constant tensor:
#      x y z
#    x 1.621570 0.000000 0.000000 
#    y 0.000000 1.576050 0.000000 
#    z 0.000000 0.000000 1.521940 
# 
# From -- ./inp_files/23179.got.cif
#   From: 2010.05.17/outbox.cif.g08.bks.cpg/sg69_12_cif.got.tgz:23179.got - 2010.06.03 19:29:58.
