data_PCOD9511926
_publ_section_title
;
Structure prediction by ZEFSAII (Michael W. Deem and Ramdas Pophale) SiO2 
 PCOD9511926
Probable space group: F M M M
;
_chemical_formula_sum "Si O2"
_cell_formula_units_Z 160
_cell_length_a 24.627311
_cell_length_b 20.673145
_cell_length_c 18.196977
_cell_angle_alpha 90.000000
_cell_angle_beta 90.000000
_cell_angle_gamma 90.000000
_cell_volume 9264.517195
_symmetry_space_group_name_H-M "F M M M"
_symmetry_group_IT_number 69
_symmetry_cell_setting 'orthorhombic'
loop_
_space_group_symop_operation_xyz
x,y,z
-x,-y,z
x,-y,-z
-x,y,-z
-x,-y,-z
x,y,-z
-x,y,z
x,-y,z
x,1/2+y,1/2+z
-x,1/2-y,1/2+z
x,1/2-y,1/2-z
-x,1/2+y,1/2-z
-x,1/2-y,1/2-z
x,1/2+y,1/2-z
-x,1/2+y,1/2+z
x,1/2-y,1/2+z
1/2+x,y,1/2+z
1/2-x,-y,1/2+z
1/2+x,-y,1/2-z
1/2-x,y,1/2-z
1/2-x,-y,1/2-z
1/2+x,y,1/2-z
1/2-x,y,1/2+z
1/2+x,-y,1/2+z
1/2+x,1/2+y,z
1/2-x,1/2-y,z
1/2+x,1/2-y,-z
1/2-x,1/2+y,-z
1/2-x,1/2-y,-z
1/2+x,1/2+y,-z
1/2-x,1/2+y,z
1/2+x,1/2-y,z
loop_
_atom_site_type_symbol
_atom_site_label
_atom_site_fract_x
_atom_site_fract_y
_atom_site_fract_z
Si Si1 0.717948 0.926456 0.326745
Si Si2 0.000000 0.423172 0.242113
Si Si3 0.107645 0.648578 0.707192
Si Si4 0.724957 0.814958 0.084218
Si Si5 0.000000 0.855284 0.584407
Si Si6 0.607762 0.215784 0.133752
O O1 0.750000 0.928235 0.250000
O O2 0.658637 0.895884 0.313435
O O3 0.752632 0.878403 0.377102
O O4 0.714075 0.000000 0.354881
O O5 0.947255 0.392029 0.280858
O O6 0.000000 0.500000 0.248764
O O7 0.000000 0.404142 0.154706
O O8 0.103157 0.707636 0.649417
O O9 0.116030 0.682255 0.786597
O O10 0.750000 0.750000 0.120097
O O11 0.660711 0.804723 0.088934
O O12 0.742944 0.817622 0.000000
O O13 0.053477 0.811877 0.597310
O O14 0.000000 0.880767 0.500000
#
# Coordination Sequence:
#
# PCOD9511926 Si02
#       6
#    32  16  32  32  16  32
#     4  11  22  36  57  84 114 150 192 233 282 340
#     4  10  21  36  55  81 114 148 187 231 279 338
#     4  10  19  34  58  83 107 141 186 240 286 327
#     4  11  22  36  56  83 114 149 191 233 281 339
#     4  10  21  36  53  79 114 148 185 231 280 335
#     4  10  19  34  58  82 108 141 187 238 286 329
#
# _framework density 17.270192999999999
#
# number of rings (size 3 to 8) (size 9 to 14) (size 15 to 20)
#    0.000    1.600    4.000    1.800    0.000    3.400 
#    0.000    0.000    0.000    2.400    0.000    0.000 
#    0.000    5.600    0.000    0.000    0.000    0.000 
#
# Total GULP energy -223099.052950 kJ/mol
# GULP energy per Si atom -5577.476324 kJ/mol
# Density = 1.723089 g / cm^3
# Si number density = 17.270193 Si / 1000 Ang^3
#
#
#
# Elastic Constant Matrix: (Units=GPa)
#
#
# Indices 1 2 3 4 5 6 
#
# 1 128.2282 66.9123 19.6934 0.0000 0.0000 0.0000
# 2 66.9123 165.9105 39.3910 0.0000 0.0000 0.0000
# 3 19.6934 39.3910 52.9201 0.0000 0.0000 0.0000
# 4 0.0000 0.0000 0.0000 9.0203 0.0000 0.0000
# 5 0.0000 0.0000 0.0000 0.0000 6.6844 0.0000
# 6 0.0000 0.0000 0.0000 0.0000 0.0000 18.7444
#
#
#
# Elastic Compliance Matrix: (Units=1/GPa)
#
#
# Indices 1 2 3 4 5 6 
#
# 1 0.009910 -0.003791 -0.000866 0.000000 0.000000 0.000000
# 2 -0.003791 0.008772 -0.005118 0.000000 0.000000 0.000000
# 3 -0.000866 -0.005118 0.023028 0.000000 0.000000 0.000000
# 4 0.000000 0.000000 0.000000 0.110861 0.000000 0.000000
# 5 0.000000 0.000000 0.000000 0.000000 0.149601 0.000000
# 6 0.000000 0.000000 0.000000 0.000000 0.000000 0.053349
#
#
# Mechanical properties :
#
#
# Convention : Reuss Voigt Hill
#
# Bulk Modulus (GPa) = 45.12787 66.56136 55.84461
# Shear Modulus (GPa) = 13.07332 21.62730 17.35031
#
# Velocity S-wave (km/s) = 2.75433 3.54261 3.17304
# Velocity P-wave (km/s) = 6.02514 7.44032 6.76981
#
# Compressibility (1/GPa) = 0.02215926
#
# Stress axis : x y z
#
# Youngs Moduli (GPa) = 100.90963 114.00549 43.42463
#
# Poissons Ratio (x) = 0.43221 0.03760
# Poissons Ratio (y) = 0.38256 0.22226
# Poissons Ratio (z) = 0.08738 0.58351
#
# Static dielectric constant tensor:
#      x y z
#    x 1.575390 0.000000 0.000000 
#    y 0.000000 1.582620 0.000000 
#    z 0.000000 0.000000 1.584940 
# 
# From -- ./inp_files/23206.got.cif
#   From: 2010.05.17/outbox.cif.g08.bks.cpg/sg69_12_cif.got.tgz:23206.got - 2010.06.03 19:29:58.
