data_PCOD9511084
_publ_section_title
;
Structure prediction by ZEFSAII (Michael W. Deem and Ramdas Pophale) SiO2 
 PCOD9511084
Probable space group: F M M M
;
_chemical_formula_sum "Si O2"
_cell_formula_units_Z 136
_cell_length_a 22.848532
_cell_length_b 14.968774
_cell_length_c 21.420887
_cell_angle_alpha 90.000000
_cell_angle_beta 90.000000
_cell_angle_gamma 90.000000
_cell_volume 7326.254208
_symmetry_space_group_name_H-M "F M M M"
_symmetry_group_IT_number 69
_symmetry_cell_setting 'orthorhombic'
loop_
_space_group_symop_operation_xyz
x,y,z
-x,-y,z
x,-y,-z
-x,y,-z
-x,-y,-z
x,y,-z
-x,y,z
x,-y,z
x,1/2+y,1/2+z
-x,1/2-y,1/2+z
x,1/2-y,1/2-z
-x,1/2+y,1/2-z
-x,1/2-y,1/2-z
x,1/2+y,1/2-z
-x,1/2+y,1/2+z
x,1/2-y,1/2+z
1/2+x,y,1/2+z
1/2-x,-y,1/2+z
1/2+x,-y,1/2-z
1/2-x,y,1/2-z
1/2-x,-y,1/2-z
1/2+x,y,1/2-z
1/2-x,y,1/2+z
1/2+x,-y,1/2+z
1/2+x,1/2+y,z
1/2-x,1/2-y,z
1/2+x,1/2-y,-z
1/2-x,1/2+y,-z
1/2-x,1/2-y,-z
1/2+x,1/2+y,-z
1/2-x,1/2+y,z
1/2+x,1/2-y,z
loop_
_atom_site_type_symbol
_atom_site_label
_atom_site_fract_x
_atom_site_fract_y
_atom_site_fract_z
Si Si1 0.796245 0.831453 0.431659
Si Si2 0.000000 0.000000 0.826344
Si Si3 0.901239 0.000000 0.930893
Si Si4 0.276312 0.602133 0.182014
Si Si5 0.000000 0.692059 0.688274
Si Si6 0.377552 0.809450 0.382965
O O1 0.796859 0.876138 0.500000
O O2 0.750000 0.750000 0.435333
O O3 0.772041 0.886756 0.372817
O O4 0.856688 0.779570 0.418022
O O5 0.054381 0.000000 0.873457
O O6 0.000000 0.910197 0.788477
O O7 0.871650 0.098203 0.923530
O O8 0.927945 0.000000 0.000000
O O9 0.298798 0.500000 0.179677
O O10 0.250000 0.617307 0.250000
O O11 0.329071 0.670556 0.169960
O O12 0.000000 0.750000 0.750000
O O13 0.941879 0.701899 0.645850
#
# Coordination Sequence:
#
# PCOD9511084 Si02
#       6
#    32   8  16  32  16  32
#     4   9  19  34  53  79 110 145 184 225 273 333
#     4   8  19  36  48  80 110 140 187 226 266 352
#     4  10  17  30  53  77 109 144 171 224 283 337
#     4  10  21  36  55  81 110 145 187 232 286 339
#     4  10  22  35  57  82 113 154 192 235 292 343
#     4  10  20  35  53  82 111 145 189 230 283 344
#
# _framework density 18.563374
#
# number of rings (size 3 to 8) (size 9 to 14) (size 15 to 20)
#    0.000    2.353    1.176    0.882    3.294    4.706 
#    0.000    1.765    0.000    0.000    0.000    0.000 
#    0.000    1.882    0.000    0.000    0.000    0.000 
#
# Total GULP energy -189278.232541 kJ/mol
# GULP energy per Si atom -5567.006839 kJ/mol
# Density = 1.852112 g / cm^3
# Si number density = 18.563374 Si / 1000 Ang^3
#
#
#
# Elastic Constant Matrix: (Units=GPa)
#
#
# Indices 1 2 3 4 5 6 
#
# 1 89.9016 13.7492 36.3020 0.0000 0.0000 0.0000
# 2 13.7492 38.5074 28.6452 0.0000 0.0000 0.0000
# 3 36.3020 28.6452 126.6338 0.0000 0.0000 0.0000
# 4 0.0000 0.0000 0.0000 7.0803 0.0000 0.0000
# 5 0.0000 0.0000 0.0000 0.0000 22.9817 0.0000
# 6 0.0000 0.0000 0.0000 0.0000 0.0000 25.1019
#
#
#
# Elastic Compliance Matrix: (Units=1/GPa)
#
#
# Indices 1 2 3 4 5 6 
#
# 1 0.012733 -0.002201 -0.003152 0.000000 0.000000 0.000000
# 2 -0.002201 0.031604 -0.006518 0.000000 0.000000 0.000000
# 3 -0.003152 -0.006518 0.010275 0.000000 0.000000 0.000000
# 4 0.000000 0.000000 0.000000 0.141237 0.000000 0.000000
# 5 0.000000 0.000000 0.000000 0.000000 0.043513 0.000000
# 6 0.000000 0.000000 0.000000 0.000000 0.000000 0.039838
#
#
# Mechanical properties :
#
#
# Convention : Reuss Voigt Hill
#
# Bulk Modulus (GPa) = 32.39562 45.82618 39.11090
# Shear Modulus (GPa) = 15.96267 22.78922 19.37595
#
# Velocity S-wave (km/s) = 2.93559 3.50758 3.23425
# Velocity P-wave (km/s) = 5.38326 6.41436 5.92130
#
# Compressibility (1/GPa) = 0.03086837
#
# Stress axis : x y z
#
# Youngs Moduli (GPa) = 78.53755 31.64197 97.32602
#
# Poissons Ratio (x) = 0.06966 0.30678
# Poissons Ratio (y) = 0.17290 0.63435
# Poissons Ratio (z) = 0.24756 0.20624
#
# Static dielectric constant tensor:
#      x y z
#    x 1.679950 0.000000 0.000000 
#    y 0.000000 1.691540 0.000000 
#    z 0.000000 0.000000 1.666580 
# 
# From -- ./inp_files/22643.got.cif
#   From: 2010.05.17/outbox.cif.g08.bks.cpg/sg69_12_cif.got.tgz:22643.got - 2010.06.03 19:29:58.
