data_PCOD9511239
_publ_section_title
;
Structure prediction by ZEFSAII (Michael W. Deem and Ramdas Pophale) SiO2 
 PCOD9511239
Probable space group: F M M M
;
_chemical_formula_sum "Si O2"
_cell_formula_units_Z 160
_cell_length_a 20.778069
_cell_length_b 25.745735
_cell_length_c 16.243412
_cell_angle_alpha 90.000000
_cell_angle_beta 90.000000
_cell_angle_gamma 90.000000
_cell_volume 8689.358969
_symmetry_space_group_name_H-M "F M M M"
_symmetry_group_IT_number 69
_symmetry_cell_setting 'orthorhombic'
loop_
_space_group_symop_operation_xyz
x,y,z
-x,-y,z
x,-y,-z
-x,y,-z
-x,-y,-z
x,y,-z
-x,y,z
x,-y,z
x,1/2+y,1/2+z
-x,1/2-y,1/2+z
x,1/2-y,1/2-z
-x,1/2+y,1/2-z
-x,1/2-y,1/2-z
x,1/2+y,1/2-z
-x,1/2+y,1/2+z
x,1/2-y,1/2+z
1/2+x,y,1/2+z
1/2-x,-y,1/2+z
1/2+x,-y,1/2-z
1/2-x,y,1/2-z
1/2-x,-y,1/2-z
1/2+x,y,1/2-z
1/2-x,y,1/2+z
1/2+x,-y,1/2+z
1/2+x,1/2+y,z
1/2-x,1/2-y,z
1/2+x,1/2-y,-z
1/2-x,1/2+y,-z
1/2-x,1/2-y,-z
1/2+x,1/2+y,-z
1/2-x,1/2+y,z
1/2+x,1/2-y,z
loop_
_atom_site_type_symbol
_atom_site_label
_atom_site_fract_x
_atom_site_fract_y
_atom_site_fract_z
Si Si1 0.735987 0.888653 0.153235
Si Si2 0.886105 0.000000 0.096664
Si Si3 0.616768 0.884235 0.401962
Si Si4 0.073143 0.775483 0.840663
Si Si5 0.761243 0.000000 0.348805
Si Si6 0.808383 0.215803 0.595237
O O1 0.750000 0.889532 0.250000
O O2 0.805527 0.881565 0.109477
O O3 0.708055 0.944943 0.129064
O O4 0.690904 0.840317 0.135776
O O5 0.905927 0.057803 0.126390
O O6 0.809203 0.000000 0.110285
O O7 0.900953 0.000000 0.000000
O O8 0.602621 0.878252 0.500000
O O9 0.587183 0.836965 0.350060
O O10 0.080726 0.750000 0.750000
O O11 0.126425 0.747197 0.895175
O O12 0.000000 0.766093 0.867183
O O13 0.750000 0.000000 0.250000
O O14 0.793134 0.207076 0.500000
O O15 0.750000 0.250000 0.632061
#
# Coordination Sequence:
#
# PCOD9511239 Si02
#       6
#    32  16  32  32  16  32
#     4  10  18  30  51  77 108 140 174 217 263 311
#     4   8  16  28  49  78 106 137 171 209 256 319
#     4  10  18  33  54  78 109 142 175 214 265 322
#     4  11  24  39  55  76 104 142 185 224 267 318
#     4   8  16  28  44  73 106 137 170 210 262 312
#     4  11  22  34  52  80 108 137 178 218 258 314
#
# _framework density 18.413326999999999
#
# number of rings (size 3 to 8) (size 9 to 14) (size 15 to 20)
#    0.000    2.000    2.000    2.400    0.000    2.400 
#    0.000    0.500    0.000    1.800    0.000    2.100 
#    0.000    1.600    0.000    0.000    0.000    0.600 
#
# Total GULP energy -222900.219416 kJ/mol
# GULP energy per Si atom -5572.505485 kJ/mol
# Density = 1.837142 g / cm^3
# Si number density = 18.413327 Si / 1000 Ang^3
#
#
#
# Elastic Constant Matrix: (Units=GPa)
#
#
# Indices 1 2 3 4 5 6 
#
# 1 46.5048 34.1859 2.8866 0.0000 0.0000 0.0000
# 2 34.1859 203.3624 30.1508 0.0000 0.0000 0.0000
# 3 2.8866 30.1508 35.4686 0.0000 0.0000 0.0000
# 4 0.0000 0.0000 0.0000 32.1194 0.0000 0.0000
# 5 0.0000 0.0000 0.0000 0.0000 42.1567 0.0000
# 6 0.0000 0.0000 0.0000 0.0000 0.0000 11.5759
#
#
#
# Elastic Compliance Matrix: (Units=1/GPa)
#
#
# Indices 1 2 3 4 5 6 
#
# 1 0.024628 -0.004397 0.001733 0.000000 0.000000 0.000000
# 2 -0.004397 0.006411 -0.005092 0.000000 0.000000 0.000000
# 3 0.001733 -0.005092 0.032382 0.000000 0.000000 0.000000
# 4 0.000000 0.000000 0.000000 0.031134 0.000000 0.000000
# 5 0.000000 0.000000 0.000000 0.000000 0.023721 0.000000
# 6 0.000000 0.000000 0.000000 0.000000 0.000000 0.086386
#
#
# Mechanical properties :
#
#
# Convention : Reuss Voigt Hill
#
# Bulk Modulus (GPa) = 20.87285 46.64250 33.75768
# Shear Modulus (GPa) = 21.17353 31.71122 26.44238
#
# Velocity S-wave (km/s) = 3.39470 4.15443 3.79363
# Velocity P-wave (km/s) = 5.16969 6.95688 6.12878
#
# Compressibility (1/GPa) = 0.04790913
#
# Stress axis : x y z
#
# Youngs Moduli (GPa) = 40.60450 155.97017 30.88161
#
# Poissons Ratio (x) = 0.68580 -0.05353
# Poissons Ratio (y) = 0.17854 0.15726
# Poissons Ratio (z) = -0.07038 0.79426
#
# Static dielectric constant tensor:
#      x y z
#    x 1.620590 0.000000 0.000000 
#    y 0.000000 1.705510 0.000000 
#    z 0.000000 0.000000 1.644610 
# 
# From -- ./inp_files/24903.got.cif
#   From: 2010.05.17/outbox.cif.g08.bks.cpg/sg69_13_cif.got.tgz:24903.got - 2010.06.03 19:29:58.
