data_PCOD9511798
_publ_section_title
;
Structure prediction by ZEFSAII (Michael W. Deem and Ramdas Pophale) SiO2 
 PCOD9511798
Probable space group: F M M M
;
_chemical_formula_sum "Si O2"
_cell_formula_units_Z 192
_cell_length_a 17.553471
_cell_length_b 13.943001
_cell_length_c 36.376739
_cell_angle_alpha 90.000000
_cell_angle_beta 90.000000
_cell_angle_gamma 90.000000
_cell_volume 8903.136434
_symmetry_space_group_name_H-M "F M M M"
_symmetry_group_IT_number 69
_symmetry_cell_setting 'orthorhombic'
loop_
_space_group_symop_operation_xyz
x,y,z
-x,-y,z
x,-y,-z
-x,y,-z
-x,-y,-z
x,y,-z
-x,y,z
x,-y,z
x,1/2+y,1/2+z
-x,1/2-y,1/2+z
x,1/2-y,1/2-z
-x,1/2+y,1/2-z
-x,1/2-y,1/2-z
x,1/2+y,1/2-z
-x,1/2+y,1/2+z
x,1/2-y,1/2+z
1/2+x,y,1/2+z
1/2-x,-y,1/2+z
1/2+x,-y,1/2-z
1/2-x,y,1/2-z
1/2-x,-y,1/2-z
1/2+x,y,1/2-z
1/2-x,y,1/2+z
1/2+x,-y,1/2+z
1/2+x,1/2+y,z
1/2-x,1/2-y,z
1/2+x,1/2-y,-z
1/2-x,1/2+y,-z
1/2-x,1/2-y,-z
1/2+x,1/2+y,-z
1/2-x,1/2+y,z
1/2+x,1/2-y,z
loop_
_atom_site_type_symbol
_atom_site_label
_atom_site_fract_x
_atom_site_fract_y
_atom_site_fract_z
Si Si1 0.585840 0.382589 0.687841
Si Si2 0.190500 0.615306 0.880311
Si Si3 0.152028 0.117708 0.845892
Si Si4 0.164239 0.115916 0.237999
Si Si5 0.836071 0.798029 0.541007
Si Si6 0.000000 0.389745 0.618351
Si Si7 0.000000 0.316287 0.540014
O O1 0.500000 0.352583 0.680775
O O2 0.588400 0.500000 0.688541
O O3 0.639763 0.352985 0.654392
O O4 0.611777 0.350973 0.728457
O O5 0.189606 0.500000 0.879725
O O6 0.275986 0.646732 0.870175
O O7 0.164104 0.645191 0.920693
O O8 0.152839 0.149316 0.803575
O O9 0.076202 0.152862 0.865326
O O10 0.153926 0.000000 0.845368
O O11 0.250000 0.136999 0.250000
O O12 0.156381 0.000000 0.236582
O O13 0.838351 0.845532 0.500000
O O14 0.750000 0.750000 0.541471
O O15 0.917623 0.739820 0.542072
O O16 0.000000 0.500000 0.630371
O O17 0.000000 0.383942 0.574885
O O18 0.000000 0.363590 0.500000
#
# Coordination Sequence:
#
# PCOD9511798 Si02
#       7
#    32  32  32  32  32  16  16
#     4   9  17  26  41  70 106 141 175 214 259 307
#     4  10  19  33  54  80 111 140 175 224 271 312
#     4   9  17  28  45  76 112 142 173 217 267 312
#     4   9  14  24  40  63 103 145 173 207 261 310
#     4  10  22  40  60  81 107 141 180 219 264 327
#     4  10  20  33  54  84 112 135 171 224 273 313
#     4  10  22  41  61  81 107 140 180 219 261 325
#
# _framework density 21.565434
#
# number of rings (size 3 to 8) (size 9 to 14) (size 15 to 20)
#    0.000    2.500    1.667    1.000    2.333    0.500 
#    0.000    0.000    0.000    7.500    0.000    9.333 
#    0.000    0.000    0.000    0.000    0.000    0.000 
#
# Total GULP energy -267724.429925 kJ/mol
# GULP energy per Si atom -5577.592290 kJ/mol
# Density = 2.151635 g / cm^3
# Si number density = 21.565434 Si / 1000 Ang^3
#
#
#
# Elastic Constant Matrix: (Units=GPa)
#
#
# Indices 1 2 3 4 5 6 
#
# 1 139.6258 2.3917 50.0739 0.0000 0.0000 0.0000
# 2 2.3917 50.6973 10.5252 0.0000 0.0000 0.0000
# 3 50.0739 10.5252 174.1922 0.0000 0.0000 0.0000
# 4 0.0000 0.0000 0.0000 16.7597 0.0000 0.0000
# 5 0.0000 0.0000 0.0000 0.0000 35.5078 0.0000
# 6 0.0000 0.0000 0.0000 0.0000 0.0000 3.5052
#
#
#
# Elastic Compliance Matrix: (Units=1/GPa)
#
#
# Indices 1 2 3 4 5 6 
#
# 1 0.007986 0.000101 -0.002302 0.000000 0.000000 0.000000
# 2 0.000101 0.019977 -0.001236 0.000000 0.000000 0.000000
# 3 -0.002302 -0.001236 0.006477 0.000000 0.000000 0.000000
# 4 0.000000 0.000000 0.000000 0.059667 0.000000 0.000000
# 5 0.000000 0.000000 0.000000 0.000000 0.028163 0.000000
# 6 0.000000 0.000000 0.000000 0.000000 0.000000 0.285291
#
#
# Mechanical properties :
#
#
# Convention : Reuss Voigt Hill
#
# Bulk Modulus (GPa) = 36.27628 54.49964 45.38796
# Shear Modulus (GPa) = 11.80297 31.25619 21.52958
#
# Velocity S-wave (km/s) = 2.34200 3.81118 3.16308
# Velocity P-wave (km/s) = 4.91643 6.68532 5.86791
#
# Compressibility (1/GPa) = 0.02756622
#
# Stress axis : x y z
#
# Youngs Moduli (GPa) = 125.22336 50.05809 154.38926
#
# Poissons Ratio (x) = -0.00506 0.35536
# Poissons Ratio (y) = -0.01266 0.19084
# Poissons Ratio (z) = 0.28823 0.06188
#
# Static dielectric constant tensor:
#      x y z
#    x 1.740290 0.000000 0.000000 
#    y 0.000000 1.857330 0.000000 
#    z 0.000000 0.000000 1.741610 
# 
# From -- ./inp_files/23703.got.cif
#   From: 2010.05.17/outbox.cif.g08.bks.cpg/sg69_12_cif.got.tgz:23703.got - 2010.06.03 19:29:58.
