data_PCOD9511048
_publ_section_title
;
Structure prediction by ZEFSAII (Michael W. Deem and Ramdas Pophale) SiO2 
 PCOD9511048
Probable space group: F M M M
;
_chemical_formula_sum "Si O2"
_cell_formula_units_Z 160
_cell_length_a 18.598199
_cell_length_b 17.685491
_cell_length_c 29.160979
_cell_angle_alpha 90.000000
_cell_angle_beta 90.000000
_cell_angle_gamma 90.000000
_cell_volume 9591.579086
_symmetry_space_group_name_H-M "F M M M"
_symmetry_group_IT_number 69
_symmetry_cell_setting 'orthorhombic'
loop_
_space_group_symop_operation_xyz
x,y,z
-x,-y,z
x,-y,-z
-x,y,-z
-x,-y,-z
x,y,-z
-x,y,z
x,-y,z
x,1/2+y,1/2+z
-x,1/2-y,1/2+z
x,1/2-y,1/2-z
-x,1/2+y,1/2-z
-x,1/2-y,1/2-z
x,1/2+y,1/2-z
-x,1/2+y,1/2+z
x,1/2-y,1/2+z
1/2+x,y,1/2+z
1/2-x,-y,1/2+z
1/2+x,-y,1/2-z
1/2-x,y,1/2-z
1/2-x,-y,1/2-z
1/2+x,y,1/2-z
1/2-x,y,1/2+z
1/2+x,-y,1/2+z
1/2+x,1/2+y,z
1/2-x,1/2-y,z
1/2+x,1/2-y,-z
1/2-x,1/2+y,-z
1/2-x,1/2-y,-z
1/2+x,1/2+y,-z
1/2-x,1/2+y,z
1/2+x,1/2-y,z
loop_
_atom_site_type_symbol
_atom_site_label
_atom_site_fract_x
_atom_site_fract_y
_atom_site_fract_z
Si Si1 0.580451 0.210152 0.700746
Si Si2 0.796557 0.088386 0.609303
Si Si3 0.189362 0.183957 0.947363
Si Si4 0.082926 0.710349 0.104922
Si Si5 0.231724 0.660521 0.302367
O O1 0.500000 0.177457 0.701209
O O2 0.592880 0.250000 0.750000
O O3 0.583292 0.270009 0.659157
O O4 0.646012 0.153890 0.692136
O O5 0.729297 0.115892 0.578391
O O6 0.866804 0.137769 0.596622
O O7 0.774376 0.112024 0.660876
O O8 0.809373 0.000000 0.605012
O O9 0.250000 0.250000 0.946830
O O10 0.121842 0.219547 0.920585
O O11 0.171848 0.166581 0.000000
O O12 0.000000 0.700918 0.090771
O O13 0.250000 0.643010 0.250000
O O14 0.250000 0.750000 0.310464
#
# Coordination Sequence:
#
# PCOD9511048 Si02
#       5
#    32  32  32  32  32
#     4  10  17  27  49  77 101 130 171 222 271 307
#     4  11  21  33  50  77 114 145 173 213 266 333
#     4   9  18  35  57  76  97 131 179 226 260 304
#     4  10  19  33  54  79 105 135 177 226 269 312
#     4  11  17  31  52  73 102 141 187 233 262 304
#
# _framework density 16.681298999999999
#
# number of rings (size 3 to 8) (size 9 to 14) (size 15 to 20)
#    0.000    1.800    6.000    0.600    0.000    1.600 
#    0.000    0.000    0.000    2.400    0.000    7.000 
#    0.000    0.000    0.000    0.000    0.000    0.000 
#
# Total GULP energy -222945.472716 kJ/mol
# GULP energy per Si atom -5573.636818 kJ/mol
# Density = 1.664333 g / cm^3
# Si number density = 16.681299 Si / 1000 Ang^3
#
#
#
# Elastic Constant Matrix: (Units=GPa)
#
#
# Indices 1 2 3 4 5 6 
#
# 1 147.5618 39.9765 26.0260 0.0000 0.0000 0.0000
# 2 39.9765 64.4731 34.5855 0.0000 0.0000 0.0000
# 3 26.0260 34.5855 91.1540 0.0000 0.0000 0.0000
# 4 0.0000 0.0000 0.0000 7.4341 0.0000 0.0000
# 5 0.0000 0.0000 0.0000 0.0000 11.3617 0.0000
# 6 0.0000 0.0000 0.0000 0.0000 0.0000 12.3555
#
#
#
# Elastic Compliance Matrix: (Units=1/GPa)
#
#
# Indices 1 2 3 4 5 6 
#
# 1 0.008164 -0.004786 -0.000515 0.000000 0.000000 0.000000
# 2 -0.004786 0.022279 -0.007087 0.000000 0.000000 0.000000
# 3 -0.000515 -0.007087 0.013806 0.000000 0.000000 0.000000
# 4 0.000000 0.000000 0.000000 0.134516 0.000000 0.000000
# 5 0.000000 0.000000 0.000000 0.000000 0.088015 0.000000
# 6 0.000000 0.000000 0.000000 0.000000 0.000000 0.080936
#
#
# Mechanical properties :
#
#
# Convention : Reuss Voigt Hill
#
# Bulk Modulus (GPa) = 51.34947 56.04053 53.69500
# Shear Modulus (GPa) = 13.19319 19.73698 16.46509
#
# Velocity S-wave (km/s) = 2.81534 3.44347 3.14513
# Velocity P-wave (km/s) = 6.43566 7.03404 6.74149
#
# Compressibility (1/GPa) = 0.01947440
#
# Stress axis : x y z
#
# Youngs Moduli (GPa) = 122.48535 44.88454 72.43028
#
# Poissons Ratio (x) = 0.21481 0.03731
# Poissons Ratio (y) = 0.58620 0.51330
# Poissons Ratio (z) = 0.06310 0.31809
#
# Static dielectric constant tensor:
#      x y z
#    x 1.594120 0.000000 0.000000 
#    y 0.000000 1.531580 0.000000 
#    z 0.000000 0.000000 1.581760 
# 
# From -- ./inp_files/23427.got.cif
#   From: 2010.05.17/outbox.cif.g08.bks.cpg/sg69_12_cif.got.tgz:23427.got - 2010.06.03 19:29:58.
