data_PCOD9511941
_publ_section_title
;
Structure prediction by ZEFSAII (Michael W. Deem and Ramdas Pophale) SiO2 
 PCOD9511941
Probable space group: F M M M
;
_chemical_formula_sum "Si O2"
_cell_formula_units_Z 144
_cell_length_a 26.960864
_cell_length_b 17.945472
_cell_length_c 16.666444
_cell_angle_alpha 90.000000
_cell_angle_beta 90.000000
_cell_angle_gamma 90.000000
_cell_volume 8063.649435
_symmetry_space_group_name_H-M "F M M M"
_symmetry_group_IT_number 69
_symmetry_cell_setting 'orthorhombic'
loop_
_space_group_symop_operation_xyz
x,y,z
-x,-y,z
x,-y,-z
-x,y,-z
-x,-y,-z
x,y,-z
-x,y,z
x,-y,z
x,1/2+y,1/2+z
-x,1/2-y,1/2+z
x,1/2-y,1/2-z
-x,1/2+y,1/2-z
-x,1/2-y,1/2-z
x,1/2+y,1/2-z
-x,1/2+y,1/2+z
x,1/2-y,1/2+z
1/2+x,y,1/2+z
1/2-x,-y,1/2+z
1/2+x,-y,1/2-z
1/2-x,y,1/2-z
1/2-x,-y,1/2-z
1/2+x,y,1/2-z
1/2-x,y,1/2+z
1/2+x,-y,1/2+z
1/2+x,1/2+y,z
1/2-x,1/2-y,z
1/2+x,1/2-y,-z
1/2-x,1/2+y,-z
1/2-x,1/2-y,-z
1/2+x,1/2+y,-z
1/2-x,1/2+y,z
1/2+x,1/2-y,z
loop_
_atom_site_type_symbol
_atom_site_label
_atom_site_fract_x
_atom_site_fract_y
_atom_site_fract_z
Si Si1 0.440692 0.584847 0.000000
Si Si2 0.195217 0.265879 0.154869
Si Si3 0.593465 0.688977 0.857444
Si Si4 0.442316 0.849237 0.180153
Si Si5 0.852748 0.916184 0.404098
O O1 0.423572 0.629994 0.077808
O O2 0.422014 0.500000 0.000000
O O3 0.500000 0.582899 0.000000
O O4 0.196466 0.250000 0.250000
O O5 0.250000 0.250000 0.121890
O O6 0.150190 0.213335 0.126204
O O7 0.179230 0.350337 0.135717
O O8 0.563088 0.766792 0.858814
O O9 0.583247 0.658165 0.767861
O O10 0.500000 0.868781 0.187728
O O11 0.408693 0.903675 0.127583
O O12 0.851295 0.907089 0.500000
O O13 0.836215 0.000000 0.384025
#
# Coordination Sequence:
#
# PCOD9511941 Si02
#       5
#    16  32  32  32  32
#     4  11  24  38  55  84 123 161 192 235 296 348
#     4  10  20  40  66  88 108 146 198 244 291 347
#     4  10  19  38  57  84 116 148 194 245 285 341
#     4  10  19  34  59  85 111 153 199 236 278 338
#     4  10  22  39  56  84 124 154 185 237 291 340
#
# _framework density 17.857918999999999
#
# number of rings (size 3 to 8) (size 9 to 14) (size 15 to 20)
#    0.000    1.889    4.444    2.667    6.222    2.222 
#    0.000    4.444    0.000    0.000    0.000    0.000 
#    0.000    0.000    0.000    0.000    0.000    0.000 
#
# Total GULP energy -200771.397558 kJ/mol
# GULP energy per Si atom -5576.983265 kJ/mol
# Density = 1.781727 g / cm^3
# Si number density = 17.857919 Si / 1000 Ang^3
#
#
#
# Elastic Constant Matrix: (Units=GPa)
#
#
# Indices 1 2 3 4 5 6 
#
# 1 142.2927 52.1987 25.1623 0.0000 0.0000 0.0000
# 2 52.1987 134.3196 77.3728 0.0000 0.0000 0.0000
# 3 25.1623 77.3728 69.0337 0.0000 0.0000 0.0000
# 4 0.0000 0.0000 0.0000 15.2347 0.0000 0.0000
# 5 0.0000 0.0000 0.0000 0.0000 12.3958 0.0000
# 6 0.0000 0.0000 0.0000 0.0000 0.0000 5.9088
#
#
#
# Elastic Compliance Matrix: (Units=1/GPa)
#
#
# Indices 1 2 3 4 5 6 
#
# 1 0.008263 -0.004166 0.001657 0.000000 0.000000 0.000000
# 2 -0.004166 0.023108 -0.024381 0.000000 0.000000 0.000000
# 3 0.001657 -0.024381 0.041208 0.000000 0.000000 0.000000
# 4 0.000000 0.000000 0.000000 0.065640 0.000000 0.000000
# 5 0.000000 0.000000 0.000000 0.000000 0.080673 0.000000
# 6 0.000000 0.000000 0.000000 0.000000 0.000000 0.169239
#
#
# Mechanical properties :
#
#
# Convention : Reuss Voigt Hill
#
# Bulk Modulus (GPa) = 53.19271 72.79039 62.99155
# Shear Modulus (GPa) = 11.15629 19.43533 15.29581
#
# Velocity S-wave (km/s) = 2.50216 3.30257 2.92983
# Velocity P-wave (km/s) = 6.18054 7.44257 6.84072
#
# Compressibility (1/GPa) = 0.01879957
#
# Stress axis : x y z
#
# Youngs Moduli (GPa) = 121.02364 43.27447 24.26690
#
# Poissons Ratio (x) = 0.18026 -0.04021
# Poissons Ratio (y) = 0.50413 0.59166
# Poissons Ratio (z) = -0.20054 1.05509
#
# Static dielectric constant tensor:
#      x y z
#    x 1.627110 0.000000 0.000000 
#    y 0.000000 1.596880 0.000000 
#    z 0.000000 0.000000 1.614510 
# 
# From -- ./inp_files/26598.got.cif
#   From: 2010.05.17/outbox.cif.g08.bks.cpg/sg69_14_cif.got.tgz:26598.got - 2010.06.03 19:29:58.
