data_PCOD9511518
_publ_section_title
;
Structure prediction by ZEFSAII (Michael W. Deem and Ramdas Pophale) SiO2 
 PCOD9511518
Probable space group: F M M M
;
_chemical_formula_sum "Si O2"
_cell_formula_units_Z 168
_cell_length_a 19.181713
_cell_length_b 14.279517
_cell_length_c 28.345611
_cell_angle_alpha 90.000000
_cell_angle_beta 90.000000
_cell_angle_gamma 90.000000
_cell_volume 7764.021500
_symmetry_space_group_name_H-M "F M M M"
_symmetry_group_IT_number 69
_symmetry_cell_setting 'orthorhombic'
loop_
_space_group_symop_operation_xyz
x,y,z
-x,-y,z
x,-y,-z
-x,y,-z
-x,-y,-z
x,y,-z
-x,y,z
x,-y,z
x,1/2+y,1/2+z
-x,1/2-y,1/2+z
x,1/2-y,1/2-z
-x,1/2+y,1/2-z
-x,1/2-y,1/2-z
x,1/2+y,1/2-z
-x,1/2+y,1/2+z
x,1/2-y,1/2+z
1/2+x,y,1/2+z
1/2-x,-y,1/2+z
1/2+x,-y,1/2-z
1/2-x,y,1/2-z
1/2-x,-y,1/2-z
1/2+x,y,1/2-z
1/2-x,y,1/2+z
1/2+x,-y,1/2+z
1/2+x,1/2+y,z
1/2-x,1/2-y,z
1/2+x,1/2-y,-z
1/2-x,1/2+y,-z
1/2-x,1/2-y,-z
1/2+x,1/2+y,-z
1/2-x,1/2+y,z
1/2+x,1/2-y,z
loop_
_atom_site_type_symbol
_atom_site_label
_atom_site_fract_x
_atom_site_fract_y
_atom_site_fract_z
Si Si1 0.699775 0.389320 0.845402
Si Si2 0.238036 0.860229 0.948491
Si Si3 0.920728 0.615000 0.277219
Si Si4 0.356087 0.114338 0.822752
Si Si5 0.000000 0.182282 0.500000
Si Si6 0.896619 0.393241 0.075293
O O1 0.702119 0.500000 0.835006
O O2 0.693695 0.380068 0.901816
O O3 0.634562 0.351375 0.816286
O O4 0.775938 0.353021 0.829225
O O5 0.250000 0.750000 0.949832
O O6 0.315520 0.898578 0.939234
O O7 0.211656 0.890592 0.000000
O O8 0.921789 0.500000 0.278184
O O9 0.891906 0.642479 0.225773
O O10 0.000000 0.646196 0.284698
O O11 0.397240 0.138379 0.870441
O O12 0.354057 0.000000 0.822792
O O13 0.939385 0.172396 0.459002
O O14 0.923607 0.500000 0.070508
#
# Coordination Sequence:
#
# PCOD9511518 Si02
#       6
#    32  32  32  32   8  32
#     4   9  17  30  50  73  96 124 161 204 244 283
#     4  10  20  34  52  70  95 125 165 204 240 291
#     4   9  16  26  44  71 101 128 158 200 244 285
#     4   8  15  26  43  69  99 128 158 193 239 292
#     4  12  21  28  46  76 114 138 155 198 249 306
#     4  10  19  30  48  76 105 133 160 195 247 302
#
# _framework density 21.638271
#
# number of rings (size 3 to 8) (size 9 to 14) (size 15 to 20)
#    0.000    2.667    0.952    3.143    1.333    3.429 
#    0.000    0.000    2.095    9.714    0.000    8.000 
#    0.000    0.000    0.000    0.000    0.000    0.000 
#
# Total GULP energy -234057.703600 kJ/mol
# GULP energy per Si atom -5572.802467 kJ/mol
# Density = 2.158902 g / cm^3
# Si number density = 21.638271 Si / 1000 Ang^3
#
#
#
# Elastic Constant Matrix: (Units=GPa)
#
#
# Indices 1 2 3 4 5 6 
#
# 1 120.1541 8.9077 115.1410 0.0000 0.0000 0.0000
# 2 8.9077 44.7841 -14.9921 0.0000 0.0000 0.0000
# 3 115.1410 -14.9921 195.6137 0.0000 0.0000 0.0000
# 4 0.0000 0.0000 0.0000 25.1752 0.0000 0.0000
# 5 0.0000 0.0000 0.0000 0.0000 57.6983 0.0000
# 6 0.0000 0.0000 0.0000 0.0000 0.0000 -0.2400
#
#
#
# Elastic Compliance Matrix: (Units=1/GPa)
#
#
# Indices 1 2 3 4 5 6 
#
# 1 0.022136 -0.008996 -0.013719 0.000000 0.000000 0.000000
# 2 -0.008996 0.026573 0.007332 0.000000 0.000000 0.000000
# 3 -0.013719 0.007332 0.013749 0.000000 0.000000 0.000000
# 4 0.000000 0.000000 0.000000 0.039722 0.000000 0.000000
# 5 0.000000 0.000000 0.000000 0.000000 0.017332 0.000000
# 6 0.000000 0.000000 0.000000 0.000000 0.000000 -4.165970
#
#
# Mechanical properties :
#
#
# Convention : Reuss Voigt Hill
#
# Bulk Modulus (GPa) = 31.55368 64.29612 47.92490
# Shear Modulus (GPa) = -1.24840 33.29305 16.02233
#
# Velocity S-wave (km/s) = -0.76039 3.92678 2.72410
# Velocity P-wave (km/s) = 3.72063 7.09493 5.66485
#
# Compressibility (1/GPa) = 0.03169202
#
# Stress axis : x y z
#
# Youngs Moduli (GPa) = 45.17459 37.63224 72.73080
#
# Poissons Ratio (x) = 0.33853 0.99781
# Poissons Ratio (y) = 0.40638 -0.53323
# Poissons Ratio (z) = 0.61976 -0.27590
#
# Static dielectric constant tensor:
#      x y z
#    x 1.763430 0.000000 0.000000 
#    y 0.000000 1.847690 0.000000 
#    z 0.000000 0.000000 1.788320 
# 
# From -- ./inp_files/42604.got.cif
#   From: 2010.05.17/outbox.cif.g08.bks.cpg/sg69_22_cif.got.tgz:42604.got - 2010.06.03 19:29:58.
