data_PCOD9511826
_publ_section_title
;
Structure prediction by ZEFSAII (Michael W. Deem and Ramdas Pophale) SiO2 
 PCOD9511826
Probable space group: F M M M
;
_chemical_formula_sum "Si O2"
_cell_formula_units_Z 192
_cell_length_a 21.963988
_cell_length_b 14.926620
_cell_length_c 24.562898
_cell_angle_alpha 90.000000
_cell_angle_beta 90.000000
_cell_angle_gamma 90.000000
_cell_volume 8052.899503
_symmetry_space_group_name_H-M "F M M M"
_symmetry_group_IT_number 69
_symmetry_cell_setting 'orthorhombic'
loop_
_space_group_symop_operation_xyz
x,y,z
-x,-y,z
x,-y,-z
-x,y,-z
-x,-y,-z
x,y,-z
-x,y,z
x,-y,z
x,1/2+y,1/2+z
-x,1/2-y,1/2+z
x,1/2-y,1/2-z
-x,1/2+y,1/2-z
-x,1/2-y,1/2-z
x,1/2+y,1/2-z
-x,1/2+y,1/2+z
x,1/2-y,1/2+z
1/2+x,y,1/2+z
1/2-x,-y,1/2+z
1/2+x,-y,1/2-z
1/2-x,y,1/2-z
1/2-x,-y,1/2-z
1/2+x,y,1/2-z
1/2-x,y,1/2+z
1/2+x,-y,1/2+z
1/2+x,1/2+y,z
1/2-x,1/2-y,z
1/2+x,1/2-y,-z
1/2-x,1/2+y,-z
1/2-x,1/2-y,-z
1/2+x,1/2+y,-z
1/2-x,1/2+y,z
1/2+x,1/2-y,z
loop_
_atom_site_type_symbol
_atom_site_label
_atom_site_fract_x
_atom_site_fract_y
_atom_site_fract_z
Si Si1 0.886622 0.634209 0.203490
Si Si2 0.697439 0.391254 0.558867
Si Si3 0.573039 0.893904 0.559808
Si Si4 0.881433 0.652414 0.319976
Si Si5 0.754033 0.647287 0.827278
Si Si6 0.565101 0.897425 0.912215
O O1 0.911195 0.615381 0.263977
O O2 0.882911 0.740974 0.191513
O O3 0.815557 0.604993 0.196851
O O4 0.925211 0.599180 0.152880
O O5 0.722077 0.368375 0.500000
O O6 0.696173 0.500000 0.564099
O O7 0.735392 0.354379 0.608312
O O8 0.627609 0.358195 0.564792
O O9 0.594872 0.858888 0.500000
O O10 0.500000 0.884509 0.559898
O O11 0.595139 0.859258 0.618655
O O12 0.587495 0.000000 0.560160
O O13 0.813276 0.612227 0.317661
O O14 0.750000 0.750000 0.808726
O O15 0.500000 0.853902 0.925211
O O16 0.562931 0.000000 0.932086
#
# Coordination Sequence:
#
# PCOD9511826 Si02
#       6
#    32  32  32  32  32  32
#     4   9  19  34  51  77 108 133 167 215 259 305
#     4   9  18  32  49  71 100 131 165 210 257 297
#     4   9  20  39  58  77 105 139 177 222 265 307
#     4  10  19  33  56  78 100 137 175 208 258 318
#     4   9  18  33  51  72 101 134 168 206 252 306
#     4   9  18  33  51  70  97 134 171 208 254 309
#
# _framework density 23.842344000000001
#
# number of rings (size 3 to 8) (size 9 to 14) (size 15 to 20)
#    0.000    2.833    0.000    1.000    0.000    6.000 
#    0.000   13.333    0.000    5.000    0.000    0.000 
#    0.000    0.000    0.000    0.000    0.000    0.000 
#
# Total GULP energy -267633.826658 kJ/mol
# GULP energy per Si atom -5575.704722 kJ/mol
# Density = 2.378808 g / cm^3
# Si number density = 23.842344 Si / 1000 Ang^3
#
#
#
# Elastic Constant Matrix: (Units=GPa)
#
#
# Indices 1 2 3 4 5 6 
#
# 1 25.1455 2.8757 19.5171 0.0000 0.0000 0.0000
# 2 2.8757 56.5214 23.4991 0.0000 0.0000 0.0000
# 3 19.5171 23.4991 244.3587 0.0000 0.0000 0.0000
# 4 0.0000 0.0000 0.0000 24.4473 0.0000 0.0000
# 5 0.0000 0.0000 0.0000 0.0000 -19.8808 0.0000
# 6 0.0000 0.0000 0.0000 0.0000 0.0000 11.8747
#
#
#
# Elastic Compliance Matrix: (Units=1/GPa)
#
#
# Indices 1 2 3 4 5 6 
#
# 1 0.042430 -0.000781 -0.003314 0.000000 0.000000 0.000000
# 2 -0.000781 0.018444 -0.001711 0.000000 0.000000 0.000000
# 3 -0.003314 -0.001711 0.004522 0.000000 0.000000 0.000000
# 4 0.000000 0.000000 0.000000 0.040904 0.000000 0.000000
# 5 0.000000 0.000000 0.000000 0.000000 -0.050300 0.000000
# 6 0.000000 0.000000 0.000000 0.000000 0.000000 0.084213
#
#
# Mechanical properties :
#
#
# Convention : Reuss Voigt Hill
#
# Bulk Modulus (GPa) = 18.59323 46.42325 32.50824
# Shear Modulus (GPa) = 29.45466 21.96381 25.70924
#
# Velocity S-wave (km/s) = 3.51863 3.03844 3.28731
# Velocity P-wave (km/s) = 4.93184 5.64116 5.29838
#
# Compressibility (1/GPa) = 0.05378300
#
# Stress axis : x y z
#
# Youngs Moduli (GPa) = 23.56823 54.21929 221.16125
#
# Poissons Ratio (x) = 0.04235 0.73288
# Poissons Ratio (y) = 0.01841 0.37847
# Poissons Ratio (z) = 0.07810 0.09278
#
# Static dielectric constant tensor:
#      x y z
#    x 1.905310 0.000000 0.000000 
#    y 0.000000 1.961570 0.000000 
#    z 0.000000 0.000000 1.924590 
# 
# From -- ./inp_files/32839.got.cif
#   From: 2010.05.17/outbox.cif.g08.bks.cpg/sg69_17_cif.got.tgz:32839.got - 2010.06.03 19:29:58.
