data_PCOD9511667
_publ_section_title
;
Structure prediction by ZEFSAII (Michael W. Deem and Ramdas Pophale) SiO2 
 PCOD9511667
Probable space group: F M M M
;
_chemical_formula_sum "Si O2"
_cell_formula_units_Z 160
_cell_length_a 18.144330
_cell_length_b 33.475962
_cell_length_c 15.962985
_cell_angle_alpha 90.000000
_cell_angle_beta 90.000000
_cell_angle_gamma 90.000000
_cell_volume 9695.899555
_symmetry_space_group_name_H-M "F M M M"
_symmetry_group_IT_number 69
_symmetry_cell_setting 'orthorhombic'
loop_
_space_group_symop_operation_xyz
x,y,z
-x,-y,z
x,-y,-z
-x,y,-z
-x,-y,-z
x,y,-z
-x,y,z
x,-y,z
x,1/2+y,1/2+z
-x,1/2-y,1/2+z
x,1/2-y,1/2-z
-x,1/2+y,1/2-z
-x,1/2-y,1/2-z
x,1/2+y,1/2-z
-x,1/2+y,1/2+z
x,1/2-y,1/2+z
1/2+x,y,1/2+z
1/2-x,-y,1/2+z
1/2+x,-y,1/2-z
1/2-x,y,1/2-z
1/2-x,-y,1/2-z
1/2+x,y,1/2-z
1/2-x,y,1/2+z
1/2+x,-y,1/2+z
1/2+x,1/2+y,z
1/2-x,1/2-y,z
1/2+x,1/2-y,-z
1/2-x,1/2+y,-z
1/2-x,1/2-y,-z
1/2+x,1/2+y,-z
1/2-x,1/2+y,z
1/2+x,1/2-y,z
loop_
_atom_site_type_symbol
_atom_site_label
_atom_site_fract_x
_atom_site_fract_y
_atom_site_fract_z
Si Si1 0.584782 0.797184 0.228454
Si Si2 0.289994 0.500000 0.660066
Si Si3 0.194448 0.148295 0.170851
Si Si4 0.324211 0.439350 0.901263
Si Si5 0.087752 0.500000 0.714053
Si Si6 0.293427 0.788150 0.095334
O O1 0.500000 0.808974 0.218352
O O2 0.586764 0.750000 0.250000
O O3 0.625659 0.825633 0.295461
O O4 0.633790 0.799396 0.145312
O O5 0.250000 0.500000 0.750000
O O6 0.255179 0.461515 0.613581
O O7 0.373821 0.500000 0.693216
O O8 0.250000 0.143032 0.250000
O O9 0.177133 0.105828 0.130803
O O10 0.237598 0.175326 0.104297
O O11 0.381285 0.462986 0.841375
O O12 0.342073 0.442418 0.000000
O O13 0.000000 0.500000 0.719665
O O14 0.250000 0.750000 0.133607
O O15 0.311184 0.778449 0.000000
#
# Coordination Sequence:
#
# PCOD9511667 Si02
#       6
#    32  16  32  32  16  32
#     4  10  20  34  50  70 100 135 168 207 262 320
#     4   8  16  33  54  76 104 137 175 212 246 304
#     4  10  19  32  54  75 101 132 177 219 258 307
#     4  10  19  33  54  80 107 137 174 218 264 311
#     4  10  20  34  54  78 110 146 176 208 258 316
#     4  10  19  32  52  74  96 126 169 219 265 308
#
# _framework density 16.501821
#
# number of rings (size 3 to 8) (size 9 to 14) (size 15 to 20)
#    0.000    2.400    2.000    3.600    0.000    2.000 
#    0.000    0.000    0.000    3.000    0.000    0.000 
#    0.000    0.000    0.000    0.000    0.000    0.000 
#
# Total GULP energy -222696.723383 kJ/mol
# GULP energy per Si atom -5567.418085 kJ/mol
# Density = 1.646426 g / cm^3
# Si number density = 16.501821 Si / 1000 Ang^3
#
#
#
# Elastic Constant Matrix: (Units=GPa)
#
#
# Indices 1 2 3 4 5 6 
#
# 1 144.7351 43.9482 37.3753 0.0000 0.0000 0.0000
# 2 43.9482 116.4152 11.6735 0.0000 0.0000 0.0000
# 3 37.3753 11.6735 54.7529 0.0000 0.0000 0.0000
# 4 0.0000 0.0000 0.0000 16.3433 0.0000 0.0000
# 5 0.0000 0.0000 0.0000 0.0000 13.5613 0.0000
# 6 0.0000 0.0000 0.0000 0.0000 0.0000 10.7840
#
#
#
# Elastic Compliance Matrix: (Units=1/GPa)
#
#
# Indices 1 2 3 4 5 6 
#
# 1 0.009271 -0.002928 -0.005705 0.000000 0.000000 0.000000
# 2 -0.002928 0.009702 -0.000070 0.000000 0.000000 0.000000
# 3 -0.005705 -0.000070 0.022173 0.000000 0.000000 0.000000
# 4 0.000000 0.000000 0.000000 0.061187 0.000000 0.000000
# 5 0.000000 0.000000 0.000000 0.000000 0.073739 0.000000
# 6 0.000000 0.000000 0.000000 0.000000 0.000000 0.092730
#
#
# Mechanical properties :
#
#
# Convention : Reuss Voigt Hill
#
# Bulk Modulus (GPa) = 42.12009 55.76636 48.94322
# Shear Modulus (GPa) = 16.99979 22.99814 19.99896
#
# Velocity S-wave (km/s) = 3.21312 3.73724 3.48505
# Velocity P-wave (km/s) = 6.27259 7.24500 6.77626
#
# Compressibility (1/GPa) = 0.02374164
#
# Stress axis : x y z
#
# Youngs Moduli (GPa) = 107.85912 103.06811 45.10040
#
# Poissons Ratio (x) = 0.30179 0.25728
# Poissons Ratio (y) = 0.31582 0.00315
# Poissons Ratio (z) = 0.61528 0.00720
#
# Static dielectric constant tensor:
#      x y z
#    x 1.564770 0.000000 0.000000 
#    y 0.000000 1.585000 0.000000 
#    z 0.000000 0.000000 1.554420 
# 
# From -- ./inp_files/23498.got.cif
#   From: 2010.05.17/outbox.cif.g08.bks.cpg/sg69_12_cif.got.tgz:23498.got - 2010.06.03 19:29:58.
