data_PCOD9511585
_publ_section_title
;
Structure prediction by ZEFSAII (Michael W. Deem and Ramdas Pophale) SiO2 
 PCOD9511585
Probable space group: F M M M
;
_chemical_formula_sum "Si O2"
_cell_formula_units_Z 144
_cell_length_a 23.023958
_cell_length_b 17.489533
_cell_length_c 21.380290
_cell_angle_alpha 90.000000
_cell_angle_beta 90.000000
_cell_angle_gamma 90.000000
_cell_volume 8609.378258
_symmetry_space_group_name_H-M "F M M M"
_symmetry_group_IT_number 69
_symmetry_cell_setting 'orthorhombic'
loop_
_space_group_symop_operation_xyz
x,y,z
-x,-y,z
x,-y,-z
-x,y,-z
-x,-y,-z
x,y,-z
-x,y,z
x,-y,z
x,1/2+y,1/2+z
-x,1/2-y,1/2+z
x,1/2-y,1/2-z
-x,1/2+y,1/2-z
-x,1/2-y,1/2-z
x,1/2+y,1/2-z
-x,1/2+y,1/2+z
x,1/2-y,1/2+z
1/2+x,y,1/2+z
1/2-x,-y,1/2+z
1/2+x,-y,1/2-z
1/2-x,y,1/2-z
1/2-x,-y,1/2-z
1/2+x,y,1/2-z
1/2-x,y,1/2+z
1/2+x,-y,1/2+z
1/2+x,1/2+y,z
1/2-x,1/2-y,z
1/2+x,1/2-y,-z
1/2-x,1/2+y,-z
1/2-x,1/2-y,-z
1/2+x,1/2+y,-z
1/2-x,1/2+y,z
1/2+x,1/2-y,z
loop_
_atom_site_type_symbol
_atom_site_label
_atom_site_fract_x
_atom_site_fract_y
_atom_site_fract_z
Si Si1 0.567816 0.588156 0.255288
Si Si2 0.750233 0.585069 0.674011
Si Si3 0.067528 0.408156 0.500000
Si Si4 0.876084 0.362173 0.629986
Si Si5 0.342621 0.706061 0.685747
O O1 0.500000 0.597717 0.269407
O O2 0.584635 0.500000 0.267024
O O3 0.579692 0.606752 0.182577
O O4 0.607707 0.646734 0.293251
O O5 0.730151 0.500000 0.655065
O O6 0.750000 0.585838 0.750000
O O7 0.814337 0.599089 0.647197
O O8 0.708740 0.655521 0.657052
O O9 0.068140 0.500000 0.500000
O O10 0.100318 0.380363 0.438020
O O11 0.000000 0.383195 0.500000
O O12 0.866522 0.272114 0.641440
O O13 0.323809 0.750000 0.750000
#
# Coordination Sequence:
#
# PCOD9511585 Si02
#       5
#    32  32  16  32  32
#     4  10  19  31  49  76 108 139 175 220 275 335
#     4  11  19  31  53  79 110 145 179 220 274 333
#     4  11  24  42  59  76 107 151 193 230 266 314
#     4  11  22  34  54  79 106 142 185 227 271 322
#     4  10  20  31  50  77 111 139 172 220 273 330
#
# _framework density 16.725947000000001
#
# number of rings (size 3 to 8) (size 9 to 14) (size 15 to 20)
#    0.000    1.444    4.444    4.000    0.000    6.667 
#    0.000    2.222    0.000    0.000    0.000    2.333 
#    0.000    5.333    0.000    0.000    0.000    0.000 
#
# Total GULP energy -200990.485806 kJ/mol
# GULP energy per Si atom -5583.069050 kJ/mol
# Density = 1.668788 g / cm^3
# Si number density = 16.725947 Si / 1000 Ang^3
#
#
#
# Elastic Constant Matrix: (Units=GPa)
#
#
# Indices 1 2 3 4 5 6 
#
# 1 91.6989 46.9526 42.2633 0.0000 0.0000 0.0000
# 2 46.9526 128.3143 26.8401 0.0000 0.0000 0.0000
# 3 42.2633 26.8401 80.4017 0.0000 0.0000 0.0000
# 4 0.0000 0.0000 0.0000 13.5864 0.0000 0.0000
# 5 0.0000 0.0000 0.0000 0.0000 20.4306 0.0000
# 6 0.0000 0.0000 0.0000 0.0000 0.0000 42.4494
#
#
#
# Elastic Compliance Matrix: (Units=1/GPa)
#
#
# Indices 1 2 3 4 5 6 
#
# 1 0.016544 -0.004553 -0.007177 0.000000 0.000000 0.000000
# 2 -0.004553 0.009631 -0.000822 0.000000 0.000000 0.000000
# 3 -0.007177 -0.000822 0.016484 0.000000 0.000000 0.000000
# 4 0.000000 0.000000 0.000000 0.073603 0.000000 0.000000
# 5 0.000000 0.000000 0.000000 0.000000 0.048946 0.000000
# 6 0.000000 0.000000 0.000000 0.000000 0.000000 0.023557
#
#
# Mechanical properties :
#
#
# Convention : Reuss Voigt Hill
#
# Bulk Modulus (GPa) = 56.95721 59.16964 58.06342
# Shear Modulus (GPa) = 22.75613 27.58387 25.17000
#
# Velocity S-wave (km/s) = 3.69254 4.06540 3.88344
# Velocity P-wave (km/s) = 7.23235 7.58217 7.40933
#
# Compressibility (1/GPa) = 0.01755704
#
# Stress axis : x y z
#
# Youngs Moduli (GPa) = 60.44511 103.82937 60.66360
#
# Poissons Ratio (x) = 0.47269 0.43536
# Poissons Ratio (y) = 0.27518 0.04987
# Poissons Ratio (z) = 0.43379 0.08535
#
# Static dielectric constant tensor:
#      x y z
#    x 1.587610 0.000000 0.000000 
#    y 0.000000 1.589490 0.000000 
#    z 0.000000 0.000000 1.528560 
# 
# From -- ./inp_files/22889.got.cif
#   From: 2010.05.17/outbox.cif.g08.bks.cpg/sg69_12_cif.got.tgz:22889.got - 2010.06.03 19:29:58.
