data_PCOD9511755
_publ_section_title
;
Structure prediction by ZEFSAII (Michael W. Deem and Ramdas Pophale) SiO2 
 PCOD9511755
Probable space group: F M M M
;
_chemical_formula_sum "Si O2"
_cell_formula_units_Z 104
_cell_length_a 5.260070
_cell_length_b 34.726625
_cell_length_c 33.998543
_cell_angle_alpha 90.000000
_cell_angle_beta 90.000000
_cell_angle_gamma 90.000000
_cell_volume 6210.326122
_symmetry_space_group_name_H-M "F M M M"
_symmetry_group_IT_number 69
_symmetry_cell_setting 'orthorhombic'
loop_
_space_group_symop_operation_xyz
x,y,z
-x,-y,z
x,-y,-z
-x,y,-z
-x,-y,-z
x,y,-z
-x,y,z
x,-y,z
x,1/2+y,1/2+z
-x,1/2-y,1/2+z
x,1/2-y,1/2-z
-x,1/2+y,1/2-z
-x,1/2-y,1/2-z
x,1/2+y,1/2-z
-x,1/2+y,1/2+z
x,1/2-y,1/2+z
1/2+x,y,1/2+z
1/2-x,-y,1/2+z
1/2+x,-y,1/2-z
1/2-x,y,1/2-z
1/2-x,-y,1/2-z
1/2+x,y,1/2-z
1/2-x,y,1/2+z
1/2+x,-y,1/2+z
1/2+x,1/2+y,z
1/2-x,1/2-y,z
1/2+x,1/2-y,-z
1/2-x,1/2+y,-z
1/2-x,1/2-y,-z
1/2+x,1/2+y,-z
1/2-x,1/2+y,z
1/2+x,1/2-y,z
loop_
_atom_site_type_symbol
_atom_site_label
_atom_site_fract_x
_atom_site_fract_y
_atom_site_fract_z
Si Si1 0.500000 0.224201 0.453879
Si Si2 0.500000 0.957191 0.090034
Si Si3 0.500000 0.000000 0.776858
Si Si4 0.000000 0.585727 0.777275
Si Si5 0.000000 0.430815 0.546822
Si Si6 0.500000 0.879338 0.860077
Si Si7 0.500000 0.147104 0.403185
O O1 0.500000 0.212337 0.500000
O O2 0.750000 0.250000 0.447312
O O3 0.500000 0.187119 0.426225
O O4 0.250150 0.951530 0.063493
O O5 0.500000 0.922171 0.120794
O O6 0.500000 0.000000 0.107690
O O7 0.500000 0.042255 0.795798
O O8 0.750000 0.000000 0.750000
O O9 0.250000 0.589422 0.750000
O O10 0.000000 0.615188 0.813329
O O11 0.000000 0.429765 0.500000
O O12 0.000000 0.387802 0.565148
O O13 0.249722 0.858538 0.876587
#
# Coordination Sequence:
#
# PCOD9511755 Si02
#       7
#    16  16   8  16  16  16  16
#     4  10  20  34  56  84 111 140 170 206 249 299
#     4  10  21  33  46  67  93 128 173 217 257 291
#     4   8  16  28  44  68  94 124 159 208 265 304
#     4  10  19  33  51  74 100 129 173 217 261 313
#     4  10  20  33  49  67  91 131 172 210 254 290
#     4  10  21  34  52  72 102 140 167 210 259 307
#     4  10  20  36  51  75 107 135 168 201 252 311
#
# _framework density 16.746302
#
# number of rings (size 3 to 8) (size 9 to 14) (size 15 to 20)
#    0.000    2.154    0.000    3.231    1.077    1.846 
#    0.000    4.615    0.000    0.000    0.000    0.000 
#    0.000   43.077    0.000    0.000    0.000    0.000 
#
# Total GULP energy -145057.434925 kJ/mol
# GULP energy per Si atom -5579.132112 kJ/mol
# Density = 1.670819 g / cm^3
# Si number density = 16.746302 Si / 1000 Ang^3
#
#
#
# Elastic Constant Matrix: (Units=GPa)
#
#
# Indices 1 2 3 4 5 6 
#
# 1 173.5303 55.2326 62.8296 0.0000 0.0000 0.0000
# 2 55.2326 111.3202 56.6066 0.0000 0.0000 0.0000
# 3 62.8296 56.6066 104.3785 0.0000 0.0000 0.0000
# 4 0.0000 0.0000 0.0000 27.0085 0.0000 0.0000
# 5 0.0000 0.0000 0.0000 0.0000 -8.0913 0.0000
# 6 0.0000 0.0000 0.0000 0.0000 0.0000 12.6755
#
#
#
# Elastic Compliance Matrix: (Units=1/GPa)
#
#
# Indices 1 2 3 4 5 6 
#
# 1 0.007683 -0.002016 -0.003531 0.000000 0.000000 0.000000
# 2 -0.002016 0.012933 -0.005800 0.000000 0.000000 0.000000
# 3 -0.003531 -0.005800 0.014852 0.000000 0.000000 0.000000
# 4 0.000000 0.000000 0.000000 0.037025 0.000000 0.000000
# 5 0.000000 0.000000 0.000000 0.000000 -0.123590 0.000000
# 6 0.000000 0.000000 0.000000 0.000000 0.000000 0.078892
#
#
# Mechanical properties :
#
#
# Convention : Reuss Voigt Hill
#
# Bulk Modulus (GPa) = 78.29472 82.06295 80.17884
# Shear Modulus (GPa) = 91.32798 20.62256 55.97527
#
# Velocity S-wave (km/s) = 7.39288 3.51304 5.78775
# Velocity P-wave (km/s) = 10.94202 8.09724 9.62530
#
# Compressibility (1/GPa) = 0.01277225
#
# Stress axis : x y z
#
# Youngs Moduli (GPa) = 130.15762 77.32241 67.33307
#
# Poissons Ratio (x) = 0.15591 0.23776
# Poissons Ratio (y) = 0.26245 0.39053
# Poissons Ratio (z) = 0.45961 0.44847
#
# Static dielectric constant tensor:
#      x y z
#    x 1.556220 0.000000 0.000000 
#    y 0.000000 1.551180 0.000000 
#    z 0.000000 0.000000 1.530900 
# 
# From -- ./inp_files/900.got.cif
#   From: 2010.05.17/outbox.cif.g08.bks.cpg/sg69_1_cif.got.tgz:900.got - 2010.06.03 19:29:58.
