data_PCOD9511663
_publ_section_title
;
Structure prediction by ZEFSAII (Michael W. Deem and Ramdas Pophale) SiO2 
 PCOD9511663
Probable space group: F M M M
;
_chemical_formula_sum "Si O2"
_cell_formula_units_Z 176
_cell_length_a 25.666024
_cell_length_b 25.097210
_cell_length_c 14.189511
_cell_angle_alpha 90.000000
_cell_angle_beta 90.000000
_cell_angle_gamma 90.000000
_cell_volume 9140.110994
_symmetry_space_group_name_H-M "F M M M"
_symmetry_group_IT_number 69
_symmetry_cell_setting 'orthorhombic'
loop_
_space_group_symop_operation_xyz
x,y,z
-x,-y,z
x,-y,-z
-x,y,-z
-x,-y,-z
x,y,-z
-x,y,z
x,-y,z
x,1/2+y,1/2+z
-x,1/2-y,1/2+z
x,1/2-y,1/2-z
-x,1/2+y,1/2-z
-x,1/2-y,1/2-z
x,1/2+y,1/2-z
-x,1/2+y,1/2+z
x,1/2-y,1/2+z
1/2+x,y,1/2+z
1/2-x,-y,1/2+z
1/2+x,-y,1/2-z
1/2-x,y,1/2-z
1/2-x,-y,1/2-z
1/2+x,y,1/2-z
1/2-x,y,1/2+z
1/2+x,-y,1/2+z
1/2+x,1/2+y,z
1/2-x,1/2-y,z
1/2+x,1/2-y,-z
1/2-x,1/2+y,-z
1/2-x,1/2-y,-z
1/2+x,1/2+y,-z
1/2-x,1/2+y,z
1/2+x,1/2-y,z
loop_
_atom_site_type_symbol
_atom_site_label
_atom_site_fract_x
_atom_site_fract_y
_atom_site_fract_z
Si Si1 0.249584 0.668835 0.605969
Si Si2 0.000000 0.063904 0.389505
Si Si3 0.208339 0.941232 0.664938
Si Si4 0.399460 0.109837 0.785489
Si Si5 0.131792 0.833518 0.887629
Si Si6 0.855565 0.287399 0.112880
O O1 0.238695 0.687785 0.500000
O O2 0.275191 0.610184 0.605155
O O3 0.192138 0.661491 0.647397
O O4 0.294915 0.706959 0.645020
O O5 0.050395 0.084960 0.334029
O O6 0.000000 0.081049 0.500000
O O7 0.000000 0.000000 0.388884
O O8 0.250000 0.941616 0.750000
O O9 0.150108 0.928902 0.700469
O O10 0.210120 0.000000 0.620265
O O11 0.402085 0.127151 0.676042
O O12 0.386289 0.165282 0.838272
O O13 0.121242 0.770955 0.870500
O O14 0.128421 0.844169 0.000000
O O15 0.854738 0.295816 0.000000
#
# Coordination Sequence:
#
# PCOD9511663 Si02
#       6
#    32  16  32  32  32  32
#     4   9  17  30  48  77 118 161 199 235 280 345
#     4  11  26  48  72  91 109 143 198 260 312 355
#     4  10  19  32  51  79 114 147 188 241 300 355
#     4  11  21  38  61  86 114 152 195 249 301 353
#     4  10  19  33  53  84 124 162 196 230 280 351
#     4   9  18  31  53  85 121 159 198 241 288 344
#
# _framework density 19.255783999999998
#
# number of rings (size 3 to 8) (size 9 to 14) (size 15 to 20)
#    0.000    2.091    1.818    2.182    0.000    3.273 
#    0.000    4.091    0.000    4.909    0.000    0.000 
#    0.000    0.000    0.000    0.000    0.000    0.000 
#
# Total GULP energy -245405.883989 kJ/mol
# GULP energy per Si atom -5577.406454 kJ/mol
# Density = 1.921196 g / cm^3
# Si number density = 19.255784 Si / 1000 Ang^3
#
#
#
# Elastic Constant Matrix: (Units=GPa)
#
#
# Indices 1 2 3 4 5 6 
#
# 1 108.6225 27.9677 46.8617 0.0000 0.0000 0.0000
# 2 27.9677 84.1591 31.8178 0.0000 0.0000 0.0000
# 3 46.8617 31.8178 101.8257 0.0000 0.0000 0.0000
# 4 0.0000 0.0000 0.0000 25.3549 0.0000 0.0000
# 5 0.0000 0.0000 0.0000 0.0000 24.1954 0.0000
# 6 0.0000 0.0000 0.0000 0.0000 0.0000 21.5546
#
#
#
# Elastic Compliance Matrix: (Units=1/GPa)
#
#
# Indices 1 2 3 4 5 6 
#
# 1 0.011811 -0.002121 -0.004773 0.000000 0.000000 0.000000
# 2 -0.002121 0.013855 -0.003353 0.000000 0.000000 0.000000
# 3 -0.004773 -0.003353 0.013065 0.000000 0.000000 0.000000
# 4 0.000000 0.000000 0.000000 0.039440 0.000000 0.000000
# 5 0.000000 0.000000 0.000000 0.000000 0.041330 0.000000
# 6 0.000000 0.000000 0.000000 0.000000 0.000000 0.046394
#
#
# Mechanical properties :
#
#
# Convention : Reuss Voigt Hill
#
# Bulk Modulus (GPa) = 54.83285 56.43353 55.63319
# Shear Modulus (GPa) = 25.97823 26.75163 26.36493
#
# Velocity S-wave (km/s) = 3.67701 3.73135 3.70428
# Velocity P-wave (km/s) = 6.82386 6.92350 6.87386
#
# Compressibility (1/GPa) = 0.01823724
#
# Stress axis : x y z
#
# Youngs Moduli (GPa) = 84.66372 72.17744 76.53912
#
# Poissons Ratio (x) = 0.15306 0.36533
# Poissons Ratio (y) = 0.17954 0.25666
# Poissons Ratio (z) = 0.40411 0.24203
#
# Static dielectric constant tensor:
#      x y z
#    x 1.663860 0.000000 0.000000 
#    y 0.000000 1.682790 0.000000 
#    z 0.000000 0.000000 1.729010 
# 
# From -- ./inp_files/18066.got.cif
#   From: 2010.05.17/outbox.cif.g08.bks.cpg/sg69_10_cif.got.tgz:18066.got - 2010.06.03 19:29:58.
