data_PCOD9511885
_publ_section_title
;
Structure prediction by ZEFSAII (Michael W. Deem and Ramdas Pophale) SiO2 
 PCOD9511885
Probable space group: F M M M
;
_chemical_formula_sum "Si O2"
_cell_formula_units_Z 176
_cell_length_a 26.830187
_cell_length_b 14.501479
_cell_length_c 24.967704
_cell_angle_alpha 90.000000
_cell_angle_beta 90.000000
_cell_angle_gamma 90.000000
_cell_volume 9714.369190
_symmetry_space_group_name_H-M "F M M M"
_symmetry_group_IT_number 69
_symmetry_cell_setting 'orthorhombic'
loop_
_space_group_symop_operation_xyz
x,y,z
-x,-y,z
x,-y,-z
-x,y,-z
-x,-y,-z
x,y,-z
-x,y,z
x,-y,z
x,1/2+y,1/2+z
-x,1/2-y,1/2+z
x,1/2-y,1/2-z
-x,1/2+y,1/2-z
-x,1/2-y,1/2-z
x,1/2+y,1/2-z
-x,1/2+y,1/2+z
x,1/2-y,1/2+z
1/2+x,y,1/2+z
1/2-x,-y,1/2+z
1/2+x,-y,1/2-z
1/2-x,y,1/2-z
1/2-x,-y,1/2-z
1/2+x,y,1/2-z
1/2-x,y,1/2+z
1/2+x,-y,1/2+z
1/2+x,1/2+y,z
1/2-x,1/2-y,z
1/2+x,1/2-y,-z
1/2-x,1/2+y,-z
1/2-x,1/2-y,-z
1/2+x,1/2+y,-z
1/2-x,1/2+y,z
1/2+x,1/2-y,z
loop_
_atom_site_type_symbol
_atom_site_label
_atom_site_fract_x
_atom_site_fract_y
_atom_site_fract_z
Si Si1 0.162552 0.895880 0.239103
Si Si2 0.441840 0.610142 0.500000
Si Si3 0.944456 0.651508 0.779726
Si Si4 0.940122 0.103349 0.063490
Si Si5 0.902732 0.206886 0.605855
Si Si6 0.806256 0.230239 0.335455
O O1 0.103868 0.896964 0.254549
O O2 0.190766 0.848313 0.289424
O O3 0.171740 0.823351 0.191609
O O4 0.179170 0.000000 0.228555
O O5 0.438425 0.500000 0.500000
O O6 0.500000 0.637505 0.500000
O O7 0.417759 0.651770 0.553175
O O8 0.945350 0.750000 0.750000
O O9 0.931924 0.668739 0.842179
O O10 0.000000 0.610803 0.773855
O O11 0.916865 0.186563 0.096168
O O12 0.000000 0.108200 0.068800
O O13 0.924352 0.000000 0.079844
O O14 0.929044 0.114360 0.000000
O O15 0.844346 0.200690 0.618784
O O16 0.750000 0.250000 0.351623
#
# Coordination Sequence:
#
# PCOD9511885 Si02
#       6
#    32  16  32  32  32  32
#     4  10  19  36  59  84 115 153 195 237 282 341
#     4  11  24  40  62  89 113 147 199 244 285 347
#     4  10  19  34  54  83 123 159 185 220 284 354
#     4   9  17  30  52  82 111 140 174 214 265 325
#     4  11  20  37  59  82 111 154 188 242 284 333
#     4  10  22  39  56  83 112 147 197 244 293 344
#
# _framework density 18.117491000000001
#
# number of rings (size 3 to 8) (size 9 to 14) (size 15 to 20)
#    0.000    1.909    4.545    3.273    0.000    5.455 
#    0.000    0.455    0.000    0.000    0.000    0.000 
#    0.000    0.000    0.000    0.000    0.000    0.000 
#
# Total GULP energy -245572.122963 kJ/mol
# GULP energy per Si atom -5581.184613 kJ/mol
# Density = 1.807625 g / cm^3
# Si number density = 18.117491 Si / 1000 Ang^3
#
#
#
# Elastic Constant Matrix: (Units=GPa)
#
#
# Indices 1 2 3 4 5 6 
#
# 1 115.0365 12.4996 40.8514 0.0000 0.0000 0.0000
# 2 12.4996 76.7416 24.1515 0.0000 0.0000 0.0000
# 3 40.8514 24.1515 91.1525 0.0000 0.0000 0.0000
# 4 0.0000 0.0000 0.0000 -4.5647 0.0000 0.0000
# 5 0.0000 0.0000 0.0000 0.0000 19.9490 0.0000
# 6 0.0000 0.0000 0.0000 0.0000 0.0000 6.7278
#
#
#
# Elastic Compliance Matrix: (Units=1/GPa)
#
#
# Indices 1 2 3 4 5 6 
#
# 1 0.010342 -0.000246 -0.004570 0.000000 0.000000 0.000000
# 2 -0.000246 0.014222 -0.003658 0.000000 0.000000 0.000000
# 3 -0.004570 -0.003658 0.013988 0.000000 0.000000 0.000000
# 4 0.000000 0.000000 0.000000 -0.219072 0.000000 0.000000
# 5 0.000000 0.000000 0.000000 0.000000 0.050128 0.000000
# 6 0.000000 0.000000 0.000000 0.000000 0.000000 0.148637
#
#
# Mechanical properties :
#
#
# Convention : Reuss Voigt Hill
#
# Bulk Modulus (GPa) = 46.28717 48.65950 47.47333
# Shear Modulus (GPa) = 117.93821 18.11763 68.02792
#
# Velocity S-wave (km/s) = 8.07698 3.16572 6.13431
# Velocity P-wave (km/s) = 10.61072 6.34653 8.74259
#
# Compressibility (1/GPa) = 0.02160426
#
# Stress axis : x y z
#
# Youngs Moduli (GPa) = 96.68843 70.31351 71.49067
#
# Poissons Ratio (x) = 0.01732 0.32670
# Poissons Ratio (y) = 0.02382 0.26150
# Poissons Ratio (z) = 0.44185 0.25719
#
# Static dielectric constant tensor:
#      x y z
#    x 1.632490 0.000000 0.000000 
#    y 0.000000 1.645050 0.000000 
#    z 0.000000 0.000000 1.605410 
# 
# From -- ./inp_files/38307.got.cif
#   From: 2010.05.17/outbox.cif.g08.bks.cpg/sg69_20_cif.got.tgz:38307.got - 2010.06.03 19:29:58.
