data_PCOD9511436
_publ_section_title
;
Structure prediction by ZEFSAII (Michael W. Deem and Ramdas Pophale) SiO2 
 PCOD9511436
Probable space group: F M M M
;
_chemical_formula_sum "Si O2"
_cell_formula_units_Z 192
_cell_length_a 18.409091
_cell_length_b 27.831130
_cell_length_c 20.016759
_cell_angle_alpha 90.000000
_cell_angle_beta 90.000000
_cell_angle_gamma 90.000000
_cell_volume 10255.502499
_symmetry_space_group_name_H-M "F M M M"
_symmetry_group_IT_number 69
_symmetry_cell_setting 'orthorhombic'
loop_
_space_group_symop_operation_xyz
x,y,z
-x,-y,z
x,-y,-z
-x,y,-z
-x,-y,-z
x,y,-z
-x,y,z
x,-y,z
x,1/2+y,1/2+z
-x,1/2-y,1/2+z
x,1/2-y,1/2-z
-x,1/2+y,1/2-z
-x,1/2-y,1/2-z
x,1/2+y,1/2-z
-x,1/2+y,1/2+z
x,1/2-y,1/2+z
1/2+x,y,1/2+z
1/2-x,-y,1/2+z
1/2+x,-y,1/2-z
1/2-x,y,1/2-z
1/2-x,-y,1/2-z
1/2+x,y,1/2-z
1/2-x,y,1/2+z
1/2+x,-y,1/2+z
1/2+x,1/2+y,z
1/2-x,1/2-y,z
1/2+x,1/2-y,-z
1/2-x,1/2+y,-z
1/2-x,1/2-y,-z
1/2+x,1/2+y,-z
1/2-x,1/2+y,z
1/2+x,1/2-y,z
loop_
_atom_site_type_symbol
_atom_site_label
_atom_site_fract_x
_atom_site_fract_y
_atom_site_fract_z
Si Si1 0.083425 0.777340 0.313244
Si Si2 0.872869 0.878106 0.351345
Si Si3 0.670575 0.225711 0.575614
Si Si4 0.252997 0.444575 0.500000
Si Si5 0.295035 0.120519 0.375885
Si Si6 0.337617 0.945844 0.260787
Si Si7 0.085066 0.408610 0.000000
O O1 0.117393 0.750000 0.250000
O O2 0.090060 0.834528 0.312527
O O3 0.121809 0.758587 0.378718
O O4 0.000000 0.763204 0.316675
O O5 0.786628 0.867063 0.351499
O O6 0.875931 0.926372 0.306573
O O7 0.902696 0.882206 0.427596
O O8 0.644670 0.226116 0.500000
O O9 0.750000 0.250000 0.577260
O O10 0.672490 0.170864 0.600538
O O11 0.231928 0.500000 0.500000
O O12 0.221717 0.416437 0.436129
O O13 0.341711 0.441629 0.500000
O O14 0.342164 0.093095 0.320136
O O15 0.250000 0.948348 0.250000
O O16 0.361608 0.000000 0.277495
O O17 0.000000 0.425471 0.000000
#
# Coordination Sequence:
#
# PCOD9511436 Si02
#       7
#    32  32  32  16  32  32  16
#     4  11  24  39  56  82 115 151 194 239 288 346
#     4  10  20  35  55  78 111 150 193 238 284 333
#     4  11  22  36  59  86 117 152 194 242 286 349
#     4  10  20  33  54  82 118 151 186 241 291 335
#     4  10  18  34  55  84 114 146 190 235 289 345
#     4   9  18  32  53  79 110 146 187 236 287 336
#     4  10  22  35  53  77 108 155 198 229 276 339
#
# _framework density 18.721658000000001
#
# number of rings (size 3 to 8) (size 9 to 14) (size 15 to 20)
#    0.000    1.833    2.500    2.000    1.167    4.833 
#    0.000    0.000    0.000    1.500    0.000    0.000 
#    0.000    2.667    0.000    0.000    0.000    0.000 
#
# Total GULP energy -267472.039960 kJ/mol
# GULP energy per Si atom -5572.334166 kJ/mol
# Density = 1.867905 g / cm^3
# Si number density = 18.721658 Si / 1000 Ang^3
#
#
#
# Elastic Constant Matrix: (Units=GPa)
#
#
# Indices 1 2 3 4 5 6 
#
# 1 28.3291 2.0927 18.0271 0.0000 0.0000 0.0000
# 2 2.0927 99.6817 35.1737 0.0000 0.0000 0.0000
# 3 18.0271 35.1737 100.4911 0.0000 0.0000 0.0000
# 4 0.0000 0.0000 0.0000 26.6874 0.0000 0.0000
# 5 0.0000 0.0000 0.0000 0.0000 16.4232 0.0000
# 6 0.0000 0.0000 0.0000 0.0000 0.0000 11.2486
#
#
#
# Elastic Compliance Matrix: (Units=1/GPa)
#
#
# Indices 1 2 3 4 5 6 
#
# 1 0.040174 0.001939 -0.007886 0.000000 0.000000 0.000000
# 2 0.001939 0.011539 -0.004387 0.000000 0.000000 0.000000
# 3 -0.007886 -0.004387 0.012901 0.000000 0.000000 0.000000
# 4 0.000000 0.000000 0.000000 0.037471 0.000000 0.000000
# 5 0.000000 0.000000 0.000000 0.000000 0.060889 0.000000
# 6 0.000000 0.000000 0.000000 0.000000 0.000000 0.088900
#
#
# Mechanical properties :
#
#
# Convention : Reuss Voigt Hill
#
# Bulk Modulus (GPa) = 22.75418 37.67654 30.21536
# Shear Modulus (GPa) = 17.41007 22.41908 19.91457
#
# Velocity S-wave (km/s) = 3.05280 3.46424 3.26501
# Velocity P-wave (km/s) = 4.96049 6.01411 5.51253
#
# Compressibility (1/GPa) = 0.04394796
#
# Stress axis : x y z
#
# Youngs Moduli (GPa) = 24.89166 86.66159 77.51244
#
# Poissons Ratio (x) = -0.16804 0.61123
# Poissons Ratio (y) = -0.04827 0.34003
# Poissons Ratio (z) = 0.19628 0.38016
#
# Static dielectric constant tensor:
#      x y z
#    x 1.636290 0.000000 0.000000 
#    y 0.000000 0.920580 0.000000 
#    z 0.000000 0.000000 1.691030 
# 
# From -- ./inp_files/23688.got.cif
#   From: 2010.05.17/outbox.cif.g08.bks.cpg/sg69_12_cif.got.tgz:23688.got - 2010.06.03 19:29:58.
