data_PCOD9511525
_publ_section_title
;
Structure prediction by ZEFSAII (Michael W. Deem and Ramdas Pophale) SiO2 
 PCOD9511525
Probable space group: F M M M
;
_chemical_formula_sum "Si O2"
_cell_formula_units_Z 160
_cell_length_a 21.573097
_cell_length_b 14.386823
_cell_length_c 25.750921
_cell_angle_alpha 90.000000
_cell_angle_beta 90.000000
_cell_angle_gamma 90.000000
_cell_volume 7992.270298
_symmetry_space_group_name_H-M "F M M M"
_symmetry_group_IT_number 69
_symmetry_cell_setting 'orthorhombic'
loop_
_space_group_symop_operation_xyz
x,y,z
-x,-y,z
x,-y,-z
-x,y,-z
-x,-y,-z
x,y,-z
-x,y,z
x,-y,z
x,1/2+y,1/2+z
-x,1/2-y,1/2+z
x,1/2-y,1/2-z
-x,1/2+y,1/2-z
-x,1/2-y,1/2-z
x,1/2+y,1/2-z
-x,1/2+y,1/2+z
x,1/2-y,1/2+z
1/2+x,y,1/2+z
1/2-x,-y,1/2+z
1/2+x,-y,1/2-z
1/2-x,y,1/2-z
1/2-x,-y,1/2-z
1/2+x,y,1/2-z
1/2-x,y,1/2+z
1/2+x,-y,1/2+z
1/2+x,1/2+y,z
1/2-x,1/2-y,z
1/2+x,1/2-y,-z
1/2-x,1/2+y,-z
1/2-x,1/2-y,-z
1/2+x,1/2+y,-z
1/2-x,1/2+y,z
1/2+x,1/2-y,z
loop_
_atom_site_type_symbol
_atom_site_label
_atom_site_fract_x
_atom_site_fract_y
_atom_site_fract_z
Si Si1 0.389068 0.725466 0.387688
Si Si2 0.500000 0.391044 0.562120
Si Si3 0.430163 0.610551 0.703904
Si Si4 0.089551 0.604656 0.678785
Si Si5 0.250000 0.750000 0.393353
Si Si6 0.236144 0.103304 0.193563
O O1 0.437865 0.664022 0.419950
O O2 0.384457 0.668879 0.332464
O O3 0.418856 0.822554 0.367595
O O4 0.321694 0.746248 0.414655
O O5 0.500000 0.500000 0.580074
O O6 0.500000 0.392955 0.500000
O O7 0.500000 0.624509 0.683107
O O8 0.416487 0.500000 0.702557
O O9 0.432412 0.637428 0.764476
O O10 0.066908 0.500000 0.668460
O O11 0.162667 0.597632 0.688282
O O12 0.253322 0.661431 0.356120
O O13 0.250000 0.144333 0.250000
O O14 0.263884 0.000000 0.192840
#
# Coordination Sequence:
#
# PCOD9511525 Si02
#       6
#    32  16  32  32  16  32
#     4  11  21  37  60  85 120 160 200 248 300 356
#     4  11  26  48  72  95 115 143 190 250 318 379
#     4  10  19  30  49  82 122 165 210 253 294 340
#     4   9  19  31  46  78 122 163 202 240 282 338
#     4  10  21  32  51  86 114 150 198 244 294 350
#     4   9  16  27  42  66 110 163 205 240 276 325
#
# _framework density 20.019342999999999
#
# number of rings (size 3 to 8) (size 9 to 14) (size 15 to 20)
#    0.000    2.100    1.000    2.700    1.400    7.200 
#    0.000    0.500    0.000    1.200    0.000    0.000 
#    0.000    0.000    0.000    0.000    0.000    0.000 
#
# Total GULP energy -222774.581803 kJ/mol
# GULP energy per Si atom -5569.364545 kJ/mol
# Density = 1.997378 g / cm^3
# Si number density = 20.019343 Si / 1000 Ang^3
#
#
#
# Elastic Constant Matrix: (Units=GPa)
#
#
# Indices 1 2 3 4 5 6 
#
# 1 138.5316 27.7036 19.0007 0.0000 0.0000 0.0000
# 2 27.7036 107.5296 24.6502 0.0000 0.0000 0.0000
# 3 19.0007 24.6502 44.8990 0.0000 0.0000 0.0000
# 4 0.0000 0.0000 0.0000 20.2617 0.0000 0.0000
# 5 0.0000 0.0000 0.0000 0.0000 7.8539 0.0000
# 6 0.0000 0.0000 0.0000 0.0000 0.0000 25.7572
#
#
#
# Elastic Compliance Matrix: (Units=1/GPa)
#
#
# Indices 1 2 3 4 5 6 
#
# 1 0.007854 -0.001443 -0.002532 0.000000 0.000000 0.000000
# 2 -0.001443 0.010904 -0.005376 0.000000 0.000000 0.000000
# 3 -0.002532 -0.005376 0.026295 0.000000 0.000000 0.000000
# 4 0.000000 0.000000 0.000000 0.049354 0.000000 0.000000
# 5 0.000000 0.000000 0.000000 0.000000 0.127325 0.000000
# 6 0.000000 0.000000 0.000000 0.000000 0.000000 0.038824
#
#
# Mechanical properties :
#
#
# Convention : Reuss Voigt Hill
#
# Bulk Modulus (GPa) = 37.94733 48.18549 43.06641
# Shear Modulus (GPa) = 17.35864 25.41495 21.38679
#
# Velocity S-wave (km/s) = 2.94784 3.56690 3.27204
# Velocity P-wave (km/s) = 5.53017 6.40979 5.98616
#
# Compressibility (1/GPa) = 0.02635232
#
# Stress axis : x y z
#
# Youngs Moduli (GPa) = 127.31699 91.71020 38.03029
#
# Poissons Ratio (x) = 0.13236 0.09627
# Poissons Ratio (y) = 0.18375 0.20444
# Poissons Ratio (z) = 0.32231 0.49300
#
# Static dielectric constant tensor:
#      x y z
#    x 1.873450 0.000000 0.000000 
#    y 0.000000 1.782940 0.000000 
#    z 0.000000 0.000000 1.688920 
# 
# From -- ./inp_files/43108.got.cif
#   From: 2010.05.17/outbox.cif.g08.bks.cpg/sg69_22_cif.got.tgz:43108.got - 2010.06.03 19:29:58.
