data_PCOD9511170
_publ_section_title
;
Structure prediction by ZEFSAII (Michael W. Deem and Ramdas Pophale) SiO2 
 PCOD9511170
Probable space group: F M M M
;
_chemical_formula_sum "Si O2"
_cell_formula_units_Z 208
_cell_length_a 30.319986
_cell_length_b 21.184198
_cell_length_c 14.925351
_cell_angle_alpha 90.000000
_cell_angle_beta 90.000000
_cell_angle_gamma 90.000000
_cell_volume 9586.621407
_symmetry_space_group_name_H-M "F M M M"
_symmetry_group_IT_number 69
_symmetry_cell_setting 'orthorhombic'
loop_
_space_group_symop_operation_xyz
x,y,z
-x,-y,z
x,-y,-z
-x,y,-z
-x,-y,-z
x,y,-z
-x,y,z
x,-y,z
x,1/2+y,1/2+z
-x,1/2-y,1/2+z
x,1/2-y,1/2-z
-x,1/2+y,1/2-z
-x,1/2-y,1/2-z
x,1/2+y,1/2-z
-x,1/2+y,1/2+z
x,1/2-y,1/2+z
1/2+x,y,1/2+z
1/2-x,-y,1/2+z
1/2+x,-y,1/2-z
1/2-x,y,1/2-z
1/2-x,-y,1/2-z
1/2+x,y,1/2-z
1/2-x,y,1/2+z
1/2+x,-y,1/2+z
1/2+x,1/2+y,z
1/2-x,1/2-y,z
1/2+x,1/2-y,-z
1/2-x,1/2+y,-z
1/2-x,1/2-y,-z
1/2+x,1/2+y,-z
1/2-x,1/2+y,z
1/2+x,1/2-y,z
loop_
_atom_site_type_symbol
_atom_site_label
_atom_site_fract_x
_atom_site_fract_y
_atom_site_fract_z
Si Si1 0.882553 0.105943 0.401142
Si Si2 0.049108 0.154245 0.830576
Si Si3 0.701430 0.323166 0.891235
Si Si4 0.049249 0.706069 0.127222
Si Si5 0.369544 0.572901 0.108808
Si Si6 0.803054 0.818986 0.609724
Si Si7 0.949057 0.500000 0.890165
O O1 0.871626 0.079480 0.500000
O O2 0.909860 0.169940 0.412205
O O3 0.837322 0.128393 0.356396
O O4 0.918905 0.058884 0.361057
O O5 0.054143 0.219335 0.885861
O O6 0.050717 0.182794 0.730434
O O7 0.086334 0.104350 0.852509
O O8 0.000000 0.128412 0.845641
O O9 0.670202 0.380394 0.864083
O O10 0.752464 0.330861 0.864175
O O11 0.685851 0.253035 0.862545
O O12 0.701536 0.321784 0.000000
O O13 0.000000 0.687434 0.096326
O O14 0.363839 0.500000 0.136485
O O15 0.372122 0.573934 0.000000
O O16 0.805241 0.820717 0.500000
O O17 0.000000 0.500000 0.858581
O O18 0.951879 0.500000 0.000000
#
# Coordination Sequence:
#
# PCOD9511170 Si02
#       7
#    32  32  32  32  32  32  16
#     4  10  18  29  47  73  98 126 162 199 242 294
#     4   9  19  35  51  70  98 129 166 211 251 289
#     4   8  14  27  45  69  99 128 160 205 252 289
#     4   9  18  33  52  72  96 128 166 210 253 291
#     4  10  20  33  50  75 105 136 168 203 250 306
#     4   8  14  25  45  71  98 126 162 206 248 290
#     4   9  18  30  40  58  96 129 149 191 244 285
#
# _framework density 21.696902999999999
#
# number of rings (size 3 to 8) (size 9 to 14) (size 15 to 20)
#    0.000    3.000    0.000    3.231    0.000    3.385 
#    2.769    2.308    0.000    0.923    0.000    5.385 
#    0.000    0.000    0.000    0.000    0.000    0.000 
#
# Total GULP energy -289964.090611 kJ/mol
# GULP energy per Si atom -5576.232512 kJ/mol
# Density = 2.164752 g / cm^3
# Si number density = 21.696903 Si / 1000 Ang^3
#
#
#
# Elastic Constant Matrix: (Units=GPa)
#
#
# Indices 1 2 3 4 5 6 
#
# 1 165.5909 115.5777 9.1960 0.0000 0.0000 0.0000
# 2 115.5777 141.6474 14.4209 0.0000 0.0000 0.0000
# 3 9.1960 14.4209 48.7306 0.0000 0.0000 0.0000
# 4 0.0000 0.0000 0.0000 -19.7380 0.0000 0.0000
# 5 0.0000 0.0000 0.0000 0.0000 -0.2341 0.0000
# 6 0.0000 0.0000 0.0000 0.0000 0.0000 28.9055
#
#
#
# Elastic Compliance Matrix: (Units=1/GPa)
#
#
# Indices 1 2 3 4 5 6 
#
# 1 0.014056 -0.011547 0.000765 0.000000 0.000000 0.000000
# 2 -0.011547 0.016765 -0.002782 0.000000 0.000000 0.000000
# 3 0.000765 -0.002782 0.021200 0.000000 0.000000 0.000000
# 4 0.000000 0.000000 0.000000 -0.050664 0.000000 0.000000
# 5 0.000000 0.000000 0.000000 0.000000 -4.272208 0.000000
# 6 0.000000 0.000000 0.000000 0.000000 0.000000 0.034595
#
#
# Mechanical properties :
#
#
# Convention : Reuss Voigt Hill
#
# Bulk Modulus (GPa) = 40.17396 70.48426 55.32911
# Shear Modulus (GPa) = -1.19024 16.23831 7.52404
#
# Velocity S-wave (km/s) = -0.74146 2.73869 1.86422
# Velocity P-wave (km/s) = 4.22175 6.52357 5.49455
#
# Compressibility (1/GPa) = 0.02489175
#
# Stress axis : x y z
#
# Youngs Moduli (GPa) = 71.14504 59.64946 47.16973
#
# Poissons Ratio (x) = 0.68876 -0.03606
# Poissons Ratio (y) = 0.82149 0.13123
# Poissons Ratio (z) = -0.05439 0.16596
#
# Static dielectric constant tensor:
#      x y z
#    x 1.784180 0.000000 0.000000 
#    y 0.000000 1.803110 0.000000 
#    z 0.000000 0.000000 1.911790 
# 
# From -- ./inp_files/34063.got.cif
#   From: 2010.05.17/outbox.cif.g08.bks.cpg/sg69_18_cif.got.tgz:34063.got - 2010.06.03 19:29:58.
