data_PCOD9511767
_publ_section_title
;
Structure prediction by ZEFSAII (Michael W. Deem and Ramdas Pophale) SiO2 
 PCOD9511767
Probable space group: F M M M
;
_chemical_formula_sum "Si O2"
_cell_formula_units_Z 176
_cell_length_a 20.330473
_cell_length_b 25.448244
_cell_length_c 18.699308
_cell_angle_alpha 90.000000
_cell_angle_beta 90.000000
_cell_angle_gamma 90.000000
_cell_volume 9674.551439
_symmetry_space_group_name_H-M "F M M M"
_symmetry_group_IT_number 69
_symmetry_cell_setting 'orthorhombic'
loop_
_space_group_symop_operation_xyz
x,y,z
-x,-y,z
x,-y,-z
-x,y,-z
-x,-y,-z
x,y,-z
-x,y,z
x,-y,z
x,1/2+y,1/2+z
-x,1/2-y,1/2+z
x,1/2-y,1/2-z
-x,1/2+y,1/2-z
-x,1/2-y,1/2-z
x,1/2+y,1/2-z
-x,1/2+y,1/2+z
x,1/2-y,1/2+z
1/2+x,y,1/2+z
1/2-x,-y,1/2+z
1/2+x,-y,1/2-z
1/2-x,y,1/2-z
1/2-x,-y,1/2-z
1/2+x,y,1/2-z
1/2-x,y,1/2+z
1/2+x,-y,1/2+z
1/2+x,1/2+y,z
1/2-x,1/2-y,z
1/2+x,1/2-y,-z
1/2-x,1/2+y,-z
1/2-x,1/2-y,-z
1/2+x,1/2+y,-z
1/2-x,1/2+y,z
1/2+x,1/2-y,z
loop_
_atom_site_type_symbol
_atom_site_label
_atom_site_fract_x
_atom_site_fract_y
_atom_site_fract_z
Si Si1 0.699517 0.358150 0.583146
Si Si2 0.500000 0.436045 0.581348
Si Si3 0.372551 0.937682 0.170755
Si Si4 0.920775 0.438279 0.669701
Si Si5 0.642629 0.844840 0.581370
Si Si6 0.170162 0.244525 0.333231
O O1 0.678085 0.363698 0.500000
O O2 0.686680 0.407979 0.633396
O O3 0.778024 0.350628 0.581219
O O4 0.662835 0.310051 0.623592
O O5 0.500000 0.500000 0.580023
O O6 0.500000 0.417443 0.500000
O O7 0.435827 0.420388 0.624871
O O8 0.387153 0.927021 0.253546
O O9 0.364916 0.000000 0.163549
O O10 0.907961 0.500000 0.651551
O O11 0.891495 0.395822 0.615403
O O12 0.000000 0.433028 0.676338
O O13 0.620481 0.838279 0.500000
O O14 0.633715 0.791590 0.626078
O O15 0.151312 0.250000 0.250000
O O16 0.250000 0.250000 0.334628
#
# Coordination Sequence:
#
# PCOD9511767 Si02
#       6
#    32  16  32  32  32  32
#     4  10  20  33  53  83 115 143 174 218 273 332
#     4   9  16  28  48  72  98 135 175 205 245 309
#     4  10  19  33  53  77 108 143 177 218 268 323
#     4  10  21  38  58  78 104 143 191 235 273 319
#     4  10  21  36  55  80 110 143 180 226 275 322
#     4   9  17  32  55  80 106 140 179 216 264 327
#
# _framework density 18.192056999999998
#
# number of rings (size 3 to 8) (size 9 to 14) (size 15 to 20)
#    0.000    2.273    0.909    2.182    0.000    6.909 
#    0.000    4.545    2.000    1.636    0.000    0.000 
#    0.000    0.000    0.000    0.000    0.000    0.000 
#
# Total GULP energy -245172.274454 kJ/mol
# GULP energy per Si atom -5572.097147 kJ/mol
# Density = 1.815065 g / cm^3
# Si number density = 18.192057 Si / 1000 Ang^3
#
#
#
# Elastic Constant Matrix: (Units=GPa)
#
#
# Indices 1 2 3 4 5 6 
#
# 1 7.9507 13.3623 17.4383 0.0000 0.0000 0.0000
# 2 13.3623 73.6976 80.7872 0.0000 0.0000 0.0000
# 3 17.4383 80.7872 159.1874 0.0000 0.0000 0.0000
# 4 0.0000 0.0000 0.0000 30.1738 0.0000 0.0000
# 5 0.0000 0.0000 0.0000 0.0000 10.5298 0.0000
# 6 0.0000 0.0000 0.0000 0.0000 0.0000 6.0570
#
#
#
# Elastic Compliance Matrix: (Units=1/GPa)
#
#
# Indices 1 2 3 4 5 6 
#
# 1 0.184582 -0.025473 -0.007293 0.000000 0.000000 0.000000
# 2 -0.025473 0.034098 -0.014514 0.000000 0.000000 0.000000
# 3 -0.007293 -0.014514 0.014447 0.000000 0.000000 0.000000
# 4 0.000000 0.000000 0.000000 0.033141 0.000000 0.000000
# 5 0.000000 0.000000 0.000000 0.000000 0.094968 0.000000
# 6 0.000000 0.000000 0.000000 0.000000 0.000000 0.165099
#
#
# Mechanical properties :
#
#
# Convention : Reuss Voigt Hill
#
# Bulk Modulus (GPa) = 7.21673 51.55681 29.38677
# Shear Modulus (GPa) = 7.49531 17.96864 12.73198
#
# Velocity S-wave (km/s) = 2.03201 3.14621 2.64837
# Velocity P-wave (km/s) = 3.07912 6.44981 5.05376
#
# Compressibility (1/GPa) = 0.13856695
#
# Stress axis : x y z
#
# Youngs Moduli (GPa) = 5.41766 29.32725 69.21977
#
# Poissons Ratio (x) = 0.74704 0.50481
# Poissons Ratio (y) = 0.13800 1.00467
# Poissons Ratio (z) = 0.03951 0.42566
#
# Static dielectric constant tensor:
#      x y z
#    x 1.668740 0.000000 0.000000 
#    y 0.000000 1.633980 0.000000 
#    z 0.000000 0.000000 1.619080 
# 
# From -- ./inp_files/17861.got.cif
#   From: 2010.05.17/outbox.cif.g08.bks.cpg/sg69_9_cif.got.tgz:17861.got - 2010.06.03 19:29:58.
