data_PCOD9511499
_publ_section_title
;
Structure prediction by ZEFSAII (Michael W. Deem and Ramdas Pophale) SiO2 
 PCOD9511499
Probable space group: F M M M
;
_chemical_formula_sum "Si O2"
_cell_formula_units_Z 192
_cell_length_a 29.250200
_cell_length_b 15.819995
_cell_length_c 27.051709
_cell_angle_alpha 90.000000
_cell_angle_beta 90.000000
_cell_angle_gamma 90.000000
_cell_volume 12517.854199
_symmetry_space_group_name_H-M "F M M M"
_symmetry_group_IT_number 69
_symmetry_cell_setting 'orthorhombic'
loop_
_space_group_symop_operation_xyz
x,y,z
-x,-y,z
x,-y,-z
-x,y,-z
-x,-y,-z
x,y,-z
-x,y,z
x,-y,z
x,1/2+y,1/2+z
-x,1/2-y,1/2+z
x,1/2-y,1/2-z
-x,1/2+y,1/2-z
-x,1/2-y,1/2-z
x,1/2+y,1/2-z
-x,1/2+y,1/2+z
x,1/2-y,1/2+z
1/2+x,y,1/2+z
1/2-x,-y,1/2+z
1/2+x,-y,1/2-z
1/2-x,y,1/2-z
1/2-x,-y,1/2-z
1/2+x,y,1/2-z
1/2-x,y,1/2+z
1/2+x,-y,1/2+z
1/2+x,1/2+y,z
1/2-x,1/2-y,z
1/2+x,1/2-y,-z
1/2-x,1/2+y,-z
1/2-x,1/2-y,-z
1/2+x,1/2+y,-z
1/2-x,1/2+y,z
1/2+x,1/2-y,z
loop_
_atom_site_type_symbol
_atom_site_label
_atom_site_fract_x
_atom_site_fract_y
_atom_site_fract_z
Si Si1 0.055316 0.402839 0.500000
Si Si2 0.553786 0.158451 0.608628
Si Si3 0.802344 0.747997 0.810115
Si Si4 0.633422 0.596819 0.179171
Si Si5 0.131994 0.097091 0.702517
Si Si6 0.946958 0.356763 0.868731
Si Si7 0.944590 0.500000 0.944569
O O1 0.070438 0.500000 0.500000
O O2 0.068470 0.361358 0.447790
O O3 0.000000 0.401098 0.500000
O O4 0.500000 0.133175 0.614517
O O5 0.587736 0.114306 0.647508
O O6 0.556572 0.258689 0.617657
O O7 0.801176 0.750000 0.750000
O O8 0.750000 0.750000 0.827345
O O9 0.829924 0.828845 0.830720
O O10 0.830514 0.661984 0.818854
O O11 0.648809 0.500000 0.169773
O O12 0.626153 0.604780 0.238341
O O13 0.084477 0.120999 0.677240
O O14 0.144119 0.000000 0.691818
O O15 0.931920 0.416982 0.913734
O O16 0.000000 0.375759 0.858201
O O17 0.000000 0.500000 0.947486
O O18 0.926475 0.500000 0.000000
#
# Coordination Sequence:
#
# PCOD9511499 Si02
#       7
#    16  32  32  32  32  32  16
#     4   9  18  32  48  65  92 125 161 204 242 274
#     4  10  20  32  48  70  98 131 165 200 237 281
#     4   9  18  33  50  69  96 126 158 201 249 291
#     4  10  20  32  49  72  99 128 164 199 237 288
#     4  10  19  32  49  71  99 131 162 198 238 289
#     4  10  19  30  46  69  99 133 164 195 235 283
#     4   9  18  30  46  68  98 131 164 201 237 274
#
# _framework density 15.338092
#
# number of rings (size 3 to 8) (size 9 to 14) (size 15 to 20)
#    0.000    2.333    2.500    0.500    1.167    2.333 
#    0.000    6.667    0.000    0.000    0.000    0.583 
#    0.000    0.000    0.000    0.000    0.000    0.000 
#
# Total GULP energy -267288.847001 kJ/mol
# GULP energy per Si atom -5568.517646 kJ/mol
# Density = 1.530318 g / cm^3
# Si number density = 15.338092 Si / 1000 Ang^3
#
#
#
# Elastic Constant Matrix: (Units=GPa)
#
#
# Indices 1 2 3 4 5 6 
#
# 1 87.6913 60.0183 39.5522 0.0000 0.0000 0.0000
# 2 60.0183 119.8445 42.0646 0.0000 0.0000 0.0000
# 3 39.5522 42.0646 47.4276 0.0000 0.0000 0.0000
# 4 0.0000 0.0000 0.0000 15.3967 0.0000 0.0000
# 5 0.0000 0.0000 0.0000 0.0000 -3.6133 0.0000
# 6 0.0000 0.0000 0.0000 0.0000 0.0000 12.2765
#
#
#
# Elastic Compliance Matrix: (Units=1/GPa)
#
#
# Indices 1 2 3 4 5 6 
#
# 1 0.021199 -0.006405 -0.011998 0.000000 0.000000 0.000000
# 2 -0.006405 0.014051 -0.007121 0.000000 0.000000 0.000000
# 3 -0.011998 -0.007121 0.037406 0.000000 0.000000 0.000000
# 4 0.000000 0.000000 0.000000 0.064949 0.000000 0.000000
# 5 0.000000 0.000000 0.000000 0.000000 -0.276753 0.000000
# 6 0.000000 0.000000 0.000000 0.000000 0.000000 0.081456
#
#
# Mechanical properties :
#
#
# Convention : Reuss Voigt Hill
#
# Bulk Modulus (GPa) = 46.27826 59.80372 53.04099
# Shear Modulus (GPa) = 8942.01312 12.36720 4477.19016
#
# Velocity S-wave (km/s) = 76.43687 2.84263 54.08639
# Velocity P-wave (km/s) = 88.43282 7.06039 62.73043
#
# Compressibility (1/GPa) = 0.02160842
#
# Stress axis : x y z
#
# Youngs Moduli (GPa) = 47.17153 71.16808 26.73374
#
# Poissons Ratio (x) = 0.45586 0.32075
# Poissons Ratio (y) = 0.30215 0.19036
# Poissons Ratio (z) = 0.56596 0.50676
#
# Static dielectric constant tensor:
#      x y z
#    x 1.496560 0.000000 0.000000 
#    y 0.000000 1.534360 0.000000 
#    z 0.000000 0.000000 1.499600 
# 
# From -- ./inp_files/38986.got.cif
#   From: 2010.05.17/outbox.cif.g08.bks.cpg/sg69_20_cif.got.tgz:38986.got - 2010.06.03 19:29:58.
