data_PCOD9511924
_publ_section_title
;
Structure prediction by ZEFSAII (Michael W. Deem and Ramdas Pophale) SiO2 
 PCOD9511924
Probable space group: F M M M
;
_chemical_formula_sum "Si O2"
_cell_formula_units_Z 176
_cell_length_a 19.491362
_cell_length_b 28.694191
_cell_length_c 16.563614
_cell_angle_alpha 90.000000
_cell_angle_beta 90.000000
_cell_angle_gamma 90.000000
_cell_volume 9263.844859
_symmetry_space_group_name_H-M "F M M M"
_symmetry_group_IT_number 69
_symmetry_cell_setting 'orthorhombic'
loop_
_space_group_symop_operation_xyz
x,y,z
-x,-y,z
x,-y,-z
-x,y,-z
-x,-y,-z
x,y,-z
-x,y,z
x,-y,z
x,1/2+y,1/2+z
-x,1/2-y,1/2+z
x,1/2-y,1/2-z
-x,1/2+y,1/2-z
-x,1/2-y,1/2-z
x,1/2+y,1/2-z
-x,1/2+y,1/2+z
x,1/2-y,1/2+z
1/2+x,y,1/2+z
1/2-x,-y,1/2+z
1/2+x,-y,1/2-z
1/2-x,y,1/2-z
1/2-x,-y,1/2-z
1/2+x,y,1/2-z
1/2-x,y,1/2+z
1/2+x,-y,1/2+z
1/2+x,1/2+y,z
1/2-x,1/2-y,z
1/2+x,1/2-y,-z
1/2-x,1/2+y,-z
1/2-x,1/2-y,-z
1/2+x,1/2+y,-z
1/2-x,1/2+y,z
1/2+x,1/2-y,z
loop_
_atom_site_type_symbol
_atom_site_label
_atom_site_fract_x
_atom_site_fract_y
_atom_site_fract_z
Si Si1 0.346161 0.330783 0.316232
Si Si2 0.500000 0.717814 0.168606
Si Si3 0.795032 0.355012 0.364832
Si Si4 0.356197 0.759855 0.410073
Si Si5 0.000000 0.644246 0.797246
Si Si6 0.500000 0.448002 0.215439
Si Si7 0.624897 0.947252 0.408401
O O1 0.287129 0.359222 0.361747
O O2 0.328384 0.342786 0.223323
O O3 0.332951 0.277407 0.342877
O O4 0.426639 0.340146 0.333533
O O5 0.500000 0.750000 0.250000
O O6 0.433256 0.727074 0.116228
O O7 0.500000 0.666586 0.207022
O O8 0.814555 0.307880 0.411258
O O9 0.825914 0.403196 0.396043
O O10 0.354240 0.738900 0.500000
O O11 0.000000 0.589501 0.785438
O O12 0.500000 0.500000 0.248378
O O13 0.434474 0.442493 0.157599
O O14 0.597277 0.944949 0.500000
O O15 0.654664 0.000000 0.399011
#
# Coordination Sequence:
#
# PCOD9511924 Si02
#       7
#    32  16  32  32  16  16  32
#     4  11  23  38  58  81 112 158 204 240 288 341
#     4  12  19  36  59  82 112 157 192 234 282 348
#     4  11  22  38  57  85 117 159 198 239 289 350
#     4  12  23  36  57  87 120 155 197 241 292 352
#     4  12  20  39  61  78 111 153 197 242 284 336
#     4  10  19  34  57  89 121 151 187 230 283 349
#     4  10  20  36  60  91 125 155 185 232 297 360
#
# _framework density 18.998591000000001
#
# number of rings (size 3 to 8) (size 9 to 14) (size 15 to 20)
#    0.000    0.909    5.455    2.182    0.000    4.727 
#    0.000    5.455    0.000    0.000    0.000    0.000 
#    0.000    2.182    0.000    0.000    0.000    0.000 
#
# Total GULP energy -245416.014278 kJ/mol
# GULP energy per Si atom -5577.636688 kJ/mol
# Density = 1.895535 g / cm^3
# Si number density = 18.998591 Si / 1000 Ang^3
#
#
#
# Elastic Constant Matrix: (Units=GPa)
#
#
# Indices 1 2 3 4 5 6 
#
# 1 117.2630 32.7295 9.0762 0.0000 0.0000 0.0000
# 2 32.7295 124.1235 20.1800 0.0000 0.0000 0.0000
# 3 9.0762 20.1800 51.2210 0.0000 0.0000 0.0000
# 4 0.0000 0.0000 0.0000 18.9913 0.0000 0.0000
# 5 0.0000 0.0000 0.0000 0.0000 -38.3215 0.0000
# 6 0.0000 0.0000 0.0000 0.0000 0.0000 20.7465
#
#
#
# Elastic Compliance Matrix: (Units=1/GPa)
#
#
# Indices 1 2 3 4 5 6 
#
# 1 0.009230 -0.002316 -0.000723 0.000000 0.000000 0.000000
# 2 -0.002316 0.009189 -0.003210 0.000000 0.000000 0.000000
# 3 -0.000723 -0.003210 0.020916 0.000000 0.000000 0.000000
# 4 0.000000 0.000000 0.000000 0.052656 0.000000 0.000000
# 5 0.000000 0.000000 0.000000 0.000000 -0.026095 0.000000
# 6 0.000000 0.000000 0.000000 0.000000 0.000000 0.048201
#
#
# Mechanical properties :
#
#
# Convention : Reuss Voigt Hill
#
# Bulk Modulus (GPa) = 37.26201 46.28656 41.77429
# Shear Modulus (GPa) = 36.88919 15.65804 26.27362
#
# Velocity S-wave (km/s) = 4.41123 2.87395 3.72280
# Velocity P-wave (km/s) = 6.75284 5.95221 6.36513
#
# Compressibility (1/GPa) = 0.02683698
#
# Stress axis : x y z
#
# Youngs Moduli (GPa) = 108.33858 108.82405 47.81038
#
# Poissons Ratio (x) = 0.25208 0.03457
# Poissons Ratio (y) = 0.25095 0.15347
# Poissons Ratio (z) = 0.07833 0.34931
#
# Static dielectric constant tensor:
#      x y z
#    x 1.686660 0.000000 0.000000 
#    y 0.000000 1.685680 0.000000 
#    z 0.000000 0.000000 1.667330 
# 
# From -- ./inp_files/23638.got.cif
#   From: 2010.05.17/outbox.cif.g08.bks.cpg/sg69_12_cif.got.tgz:23638.got - 2010.06.03 19:29:58.
