data_PCOD9511330
_publ_section_title
;
Structure prediction by ZEFSAII (Michael W. Deem and Ramdas Pophale) SiO2 
 PCOD9511330
Probable space group: F M M M
;
_chemical_formula_sum "Si O2"
_cell_formula_units_Z 176
_cell_length_a 13.840577
_cell_length_b 26.975411
_cell_length_c 26.696064
_cell_angle_alpha 90.000000
_cell_angle_beta 90.000000
_cell_angle_gamma 90.000000
_cell_volume 9967.115730
_symmetry_space_group_name_H-M "F M M M"
_symmetry_group_IT_number 69
_symmetry_cell_setting 'orthorhombic'
loop_
_space_group_symop_operation_xyz
x,y,z
-x,-y,z
x,-y,-z
-x,y,-z
-x,-y,-z
x,y,-z
-x,y,z
x,-y,z
x,1/2+y,1/2+z
-x,1/2-y,1/2+z
x,1/2-y,1/2-z
-x,1/2+y,1/2-z
-x,1/2-y,1/2-z
x,1/2+y,1/2-z
-x,1/2+y,1/2+z
x,1/2-y,1/2+z
1/2+x,y,1/2+z
1/2-x,-y,1/2+z
1/2+x,-y,1/2-z
1/2-x,y,1/2-z
1/2-x,-y,1/2-z
1/2+x,y,1/2-z
1/2-x,y,1/2+z
1/2+x,-y,1/2+z
1/2+x,1/2+y,z
1/2-x,1/2-y,z
1/2+x,1/2-y,-z
1/2-x,1/2+y,-z
1/2-x,1/2-y,-z
1/2+x,1/2+y,-z
1/2-x,1/2+y,z
1/2+x,1/2-y,z
loop_
_atom_site_type_symbol
_atom_site_label
_atom_site_fract_x
_atom_site_fract_y
_atom_site_fract_z
Si Si1 0.112547 0.629793 0.558496
Si Si2 0.793366 0.888841 0.697924
Si Si3 0.186044 0.201620 0.143151
Si Si4 0.000000 0.748633 0.690679
Si Si5 0.216517 0.442100 0.908309
Si Si6 0.500000 0.941026 0.091890
Si Si7 0.500000 0.862072 0.818165
O O1 0.114334 0.642631 0.500000
O O2 0.147474 0.674705 0.593434
O O3 0.194101 0.587930 0.568375
O O4 0.000000 0.616292 0.570970
O O5 0.750000 0.907342 0.750000
O O6 0.742682 0.839087 0.676403
O O7 0.789992 0.926051 0.650514
O O8 0.902720 0.874108 0.710542
O O9 0.250000 0.250000 0.132221
O O10 0.094215 0.220314 0.173202
O O11 0.000000 0.750000 0.750000
O O12 0.000000 0.804263 0.668369
O O13 0.235990 0.500000 0.912468
O O14 0.107875 0.433481 0.931309
O O15 0.500000 0.899553 0.135077
O O16 0.500000 0.000000 0.107347
#
# Coordination Sequence:
#
# PCOD9511330 Si02
#       7
#    32  32  32  16  32  16  16
#     4  10  22  41  61  82 112 151 191 235 288 342
#     4  10  20  33  51  78 112 149 186 229 278 336
#     4  11  22  36  56  82 113 147 191 235 278 328
#     4  12  22  32  53  82 117 152 186 230 274 329
#     4   9  19  36  59  84 110 143 187 237 289 344
#     4   8  16  34  59  81 107 139 176 233 295 343
#     4  10  18  32  50  74 104 145 190 222 271 336
#
# _framework density 17.658068
#
# number of rings (size 3 to 8) (size 9 to 14) (size 15 to 20)
#    0.000    2.000    2.727    1.091    0.000    1.455 
#    1.636    1.364    0.000    1.636    0.000    0.000 
#    0.000    0.000    0.000    0.000    0.000    0.000 
#
# Total GULP energy -245051.143560 kJ/mol
# GULP energy per Si atom -5569.344172 kJ/mol
# Density = 1.761788 g / cm^3
# Si number density = 17.658068 Si / 1000 Ang^3
#
#
#
# Elastic Constant Matrix: (Units=GPa)
#
#
# Indices 1 2 3 4 5 6 
#
# 1 167.3433 49.9810 52.4754 0.0000 0.0000 0.0000
# 2 49.9810 80.4052 23.4352 0.0000 0.0000 0.0000
# 3 52.4754 23.4352 79.7130 0.0000 0.0000 0.0000
# 4 0.0000 0.0000 0.0000 21.2326 0.0000 0.0000
# 5 0.0000 0.0000 0.0000 0.0000 15.7341 0.0000
# 6 0.0000 0.0000 0.0000 0.0000 0.0000 25.8509
#
#
#
# Elastic Compliance Matrix: (Units=1/GPa)
#
#
# Indices 1 2 3 4 5 6 
#
# 1 0.008579 -0.004032 -0.004462 0.000000 0.000000 0.000000
# 2 -0.004032 0.015498 -0.001902 0.000000 0.000000 0.000000
# 3 -0.004462 -0.001902 0.016042 0.000000 0.000000 0.000000
# 4 0.000000 0.000000 0.000000 0.047097 0.000000 0.000000
# 5 0.000000 0.000000 0.000000 0.000000 0.063556 0.000000
# 6 0.000000 0.000000 0.000000 0.000000 0.000000 0.038683
#
#
# Mechanical properties :
#
#
# Convention : Reuss Voigt Hill
#
# Bulk Modulus (GPa) = 51.74389 64.36056 58.05222
# Shear Modulus (GPa) = 23.07429 26.00150 24.53790
#
# Velocity S-wave (km/s) = 3.61879 3.84148 3.73180
# Velocity P-wave (km/s) = 6.84308 7.49689 7.17743
#
# Compressibility (1/GPa) = 0.01932595
#
# Stress axis : x y z
#
# Youngs Moduli (GPa) = 116.55774 64.52475 62.33760
#
# Poissons Ratio (x) = 0.26020 0.27817
# Poissons Ratio (y) = 0.47002 0.11855
# Poissons Ratio (z) = 0.52012 0.12271
#
# Static dielectric constant tensor:
#      x y z
#    x 1.643730 0.000000 0.000000 
#    y 0.000000 1.582350 0.000000 
#    z 0.000000 0.000000 1.579980 
# 
# From -- ./inp_files/11578.got.cif
#   From: 2010.05.17/outbox.cif.g08.bks.cpg/sg69_6_cif.got.tgz:11578.got - 2010.06.03 19:29:58.
