data_PCOD9511818
_publ_section_title
;
Structure prediction by ZEFSAII (Michael W. Deem and Ramdas Pophale) SiO2 
 PCOD9511818
Probable space group: F M M M
;
_chemical_formula_sum "Si O2"
_cell_formula_units_Z 120
_cell_length_a 14.804325
_cell_length_b 14.079030
_cell_length_c 27.471869
_cell_angle_alpha 90.000000
_cell_angle_beta 90.000000
_cell_angle_gamma 90.000000
_cell_volume 5725.976375
_symmetry_space_group_name_H-M "F M M M"
_symmetry_group_IT_number 69
_symmetry_cell_setting 'orthorhombic'
loop_
_space_group_symop_operation_xyz
x,y,z
-x,-y,z
x,-y,-z
-x,y,-z
-x,-y,-z
x,y,-z
-x,y,z
x,-y,z
x,1/2+y,1/2+z
-x,1/2-y,1/2+z
x,1/2-y,1/2-z
-x,1/2+y,1/2-z
-x,1/2-y,1/2-z
x,1/2+y,1/2-z
-x,1/2+y,1/2+z
x,1/2-y,1/2+z
1/2+x,y,1/2+z
1/2-x,-y,1/2+z
1/2+x,-y,1/2-z
1/2-x,y,1/2-z
1/2-x,-y,1/2-z
1/2+x,y,1/2-z
1/2-x,y,1/2+z
1/2+x,-y,1/2+z
1/2+x,1/2+y,z
1/2-x,1/2-y,z
1/2+x,1/2-y,-z
1/2-x,1/2+y,-z
1/2-x,1/2-y,-z
1/2+x,1/2+y,-z
1/2-x,1/2+y,z
1/2+x,1/2-y,z
loop_
_atom_site_type_symbol
_atom_site_label
_atom_site_fract_x
_atom_site_fract_y
_atom_site_fract_z
Si Si1 0.803189 0.385260 0.797284
Si Si2 0.000000 0.386153 0.178658
Si Si3 0.000000 0.221220 0.894076
Si Si4 0.299006 0.606668 0.000000
Si Si5 0.500000 0.669304 0.000000
Si Si6 0.188872 0.884352 0.108179
O O1 0.799862 0.500000 0.797049
O O2 0.750000 0.352483 0.750000
O O3 0.757095 0.358255 0.848447
O O4 0.907967 0.359475 0.794355
O O5 0.000000 0.500000 0.169785
O O6 0.000000 0.323162 0.130489
O O7 0.909026 0.162183 0.881926
O O8 0.000000 0.231168 0.951965
O O9 0.408770 0.608242 0.000000
O O10 0.277094 0.645399 0.946039
O O11 0.263068 0.500000 0.000000
O O12 0.179099 0.000000 0.107226
#
# Coordination Sequence:
#
# PCOD9511818 Si02
#       6
#    32  16  16  16   8  32
#     4   9  19  37  59  80 107 144 181 221 269 320
#     4  10  22  40  57  74 103 142 182 222 264 314
#     4  10  19  33  55  83 112 144 178 222 272 320
#     4   8  13  24  47  78 110 140 172 218 272 318
#     4   8  15  28  47  76 112 142 176 216 266 320
#     4   9  17  31  54  84 113 140 175 222 275 324
#
# _framework density 20.957124
#
# number of rings (size 3 to 8) (size 9 to 14) (size 15 to 20)
#    0.000    2.933    0.000    0.600    0.000    5.333 
#    0.000    9.667    0.000    8.000    0.000    0.000 
#    0.000    0.000    0.000    0.000    0.000    0.000 
#
# Total GULP energy -167298.085412 kJ/mol
# GULP energy per Si atom -5576.602847 kJ/mol
# Density = 2.090943 g / cm^3
# Si number density = 20.957124 Si / 1000 Ang^3
#
#
#
# Elastic Constant Matrix: (Units=GPa)
#
#
# Indices 1 2 3 4 5 6 
#
# 1 148.2521 30.7888 100.4225 0.0000 0.0000 0.0000
# 2 30.7888 81.0295 20.7688 0.0000 0.0000 0.0000
# 3 100.4225 20.7688 168.9692 0.0000 0.0000 0.0000
# 4 0.0000 0.0000 0.0000 0.7182 0.0000 0.0000
# 5 0.0000 0.0000 0.0000 0.0000 21.5250 0.0000
# 6 0.0000 0.0000 0.0000 0.0000 0.0000 -7.6725
#
#
#
# Elastic Compliance Matrix: (Units=1/GPa)
#
#
# Indices 1 2 3 4 5 6 
#
# 1 0.011872 -0.002790 -0.006713 0.000000 0.000000 0.000000
# 2 -0.002790 0.013398 0.000012 0.000000 0.000000 0.000000
# 3 -0.006713 0.000012 0.009906 0.000000 0.000000 0.000000
# 4 0.000000 0.000000 0.000000 1.392395 0.000000 0.000000
# 5 0.000000 0.000000 0.000000 0.000000 0.046458 0.000000
# 6 0.000000 0.000000 0.000000 0.000000 0.000000 -0.130336
#
#
# Mechanical properties :
#
#
# Convention : Reuss Voigt Hill
#
# Bulk Modulus (GPa) = 61.75321 78.02344 69.88833
# Shear Modulus (GPa) = 3.65477 19.33219 11.49348
#
# Velocity S-wave (km/s) = 1.32201 3.04050 2.34440
# Velocity P-wave (km/s) = 5.64453 7.04536 6.38349
#
# Compressibility (1/GPa) = 0.01619349
#
# Stress axis : x y z
#
# Youngs Moduli (GPa) = 84.23307 74.63523 100.94520
#
# Poissons Ratio (x) = 0.20826 0.67762
# Poissons Ratio (y) = 0.23504 -0.00116
# Poissons Ratio (z) = 0.56543 -0.00086
#
# Static dielectric constant tensor:
#      x y z
#    x 1.751780 0.000000 0.000000 
#    y 0.000000 1.740620 0.000000 
#    z 0.000000 0.000000 1.755650 
# 
# From -- ./inp_files/45507.got.cif
#   From: 2010.05.17/outbox.cif.g08.bks.cpg/sg69_23_cif.got.tgz:45507.got - 2010.06.03 19:29:58.
