data_PCOD9511889
_publ_section_title
;
Structure prediction by ZEFSAII (Michael W. Deem and Ramdas Pophale) SiO2 
 PCOD9511889
Probable space group: F M M M
;
_chemical_formula_sum "Si O2"
_cell_formula_units_Z 144
_cell_length_a 19.004767
_cell_length_b 14.702137
_cell_length_c 31.261873
_cell_angle_alpha 90.000000
_cell_angle_beta 90.000000
_cell_angle_gamma 90.000000
_cell_volume 8734.901446
_symmetry_space_group_name_H-M "F M M M"
_symmetry_group_IT_number 69
_symmetry_cell_setting 'orthorhombic'
loop_
_space_group_symop_operation_xyz
x,y,z
-x,-y,z
x,-y,-z
-x,y,-z
-x,-y,-z
x,y,-z
-x,y,z
x,-y,z
x,1/2+y,1/2+z
-x,1/2-y,1/2+z
x,1/2-y,1/2-z
-x,1/2+y,1/2-z
-x,1/2-y,1/2-z
x,1/2+y,1/2-z
-x,1/2+y,1/2+z
x,1/2-y,1/2+z
1/2+x,y,1/2+z
1/2-x,-y,1/2+z
1/2+x,-y,1/2-z
1/2-x,y,1/2-z
1/2-x,-y,1/2-z
1/2+x,y,1/2-z
1/2-x,y,1/2+z
1/2+x,-y,1/2+z
1/2+x,1/2+y,z
1/2-x,1/2-y,z
1/2+x,1/2-y,-z
1/2-x,1/2+y,-z
1/2-x,1/2-y,-z
1/2+x,1/2+y,-z
1/2-x,1/2+y,z
1/2+x,1/2-y,z
loop_
_atom_site_type_symbol
_atom_site_label
_atom_site_fract_x
_atom_site_fract_y
_atom_site_fract_z
Si Si1 0.280575 0.500000 0.451204
Si Si2 0.081610 0.671700 0.284801
Si Si3 0.583032 0.809922 0.381721
Si Si4 0.817246 0.500000 0.718478
Si Si5 0.661910 0.500000 0.120072
Si Si6 0.327306 0.295893 0.450974
O O1 0.252404 0.500000 0.500000
O O2 0.219446 0.500000 0.416674
O O3 0.321716 0.404993 0.446257
O O4 0.088327 0.750000 0.250000
O O5 0.095770 0.713358 0.331818
O O6 0.134313 0.589225 0.275228
O O7 0.000000 0.638904 0.285454
O O8 0.500000 0.808332 0.389660
O O9 0.613837 0.911409 0.384808
O O10 0.622883 0.746874 0.415357
O O11 0.750000 0.500000 0.750000
O O12 0.802153 0.500000 0.667195
O O13 0.349863 0.276105 0.500000
O O14 0.250000 0.250000 0.445910
#
# Coordination Sequence:
#
# PCOD9511889 Si02
#       6
#    16  32  32  16  16  32
#     4  10  20  35  54  76 106 144 181 210 259 325
#     4   9  19  37  56  74 104 145 179 215 267 321
#     4  10  20  35  56  81 106 137 180 225 273 321
#     4  10  21  33  50  82 111 135 174 223 269 315
#     4  10  19  34  55  79 109 137 171 228 279 315
#     4  10  20  35  55  78 108 144 177 215 265 321
#
# _framework density 16.485589999999998
#
# number of rings (size 3 to 8) (size 9 to 14) (size 15 to 20)
#    0.000    2.222    2.222    0.667    0.000    5.333 
#    0.000    0.556    0.000    6.667    0.000    0.000 
#    0.000    0.000    0.000    0.000    0.000    0.000 
#
# Total GULP energy -200688.922988 kJ/mol
# GULP energy per Si atom -5574.692305 kJ/mol
# Density = 1.644807 g / cm^3
# Si number density = 16.485590 Si / 1000 Ang^3
#
#
#
# Elastic Constant Matrix: (Units=GPa)
#
#
# Indices 1 2 3 4 5 6 
#
# 1 97.7471 51.6337 99.8089 0.0000 0.0000 0.0000
# 2 51.6337 101.8836 86.4072 0.0000 0.0000 0.0000
# 3 99.8089 86.4072 157.5496 0.0000 0.0000 0.0000
# 4 0.0000 0.0000 0.0000 27.3684 0.0000 0.0000
# 5 0.0000 0.0000 0.0000 0.0000 33.9670 0.0000
# 6 0.0000 0.0000 0.0000 0.0000 0.0000 24.0995
#
#
#
# Elastic Compliance Matrix: (Units=1/GPa)
#
#
# Indices 1 2 3 4 5 6 
#
# 1 0.029120 0.001660 -0.019358 0.000000 0.000000 0.000000
# 2 0.001660 0.018445 -0.011168 0.000000 0.000000 0.000000
# 3 -0.019358 -0.011168 0.024736 0.000000 0.000000 0.000000
# 4 0.000000 0.000000 0.000000 0.036539 0.000000 0.000000
# 5 0.000000 0.000000 0.000000 0.000000 0.029440 0.000000
# 6 0.000000 0.000000 0.000000 0.000000 0.000000 0.041495
#
#
# Mechanical properties :
#
#
# Convention : Reuss Voigt Hill
#
# Bulk Modulus (GPa) = 68.63928 92.54221 80.59074
# Shear Modulus (GPa) = 20.63019 25.04233 22.83626
#
# Velocity S-wave (km/s) = 3.54136 3.90172 3.72590
# Velocity P-wave (km/s) = 7.64513 8.74957 8.21593
#
# Compressibility (1/GPa) = 0.01456892
#
# Stress axis : x y z
#
# Youngs Moduli (GPa) = 34.34029 54.21452 40.42749
#
# Poissons Ratio (x) = -0.08998 0.78260
# Poissons Ratio (y) = -0.05700 0.45148
# Poissons Ratio (z) = 0.66477 0.60545
#
# Static dielectric constant tensor:
#      x y z
#    x 1.532700 0.000000 0.000000 
#    y 0.000000 1.494620 0.000000 
#    z 0.000000 0.000000 1.558480 
# 
# From -- ./inp_files/15598.got.cif
#   From: 2010.05.17/outbox.cif.g08.bks.cpg/sg69_8_cif.got.tgz:15598.got - 2010.06.03 19:29:58.
