data_PCOD9511914
_publ_section_title
;
Structure prediction by ZEFSAII (Michael W. Deem and Ramdas Pophale) SiO2 
 PCOD9511914
Probable space group: F M M M
;
_chemical_formula_sum "Si O2"
_cell_formula_units_Z 144
_cell_length_a 15.117301
_cell_length_b 19.604841
_cell_length_c 24.200935
_cell_angle_alpha 90.000000
_cell_angle_beta 90.000000
_cell_angle_gamma 90.000000
_cell_volume 7172.486343
_symmetry_space_group_name_H-M "F M M M"
_symmetry_group_IT_number 69
_symmetry_cell_setting 'orthorhombic'
loop_
_space_group_symop_operation_xyz
x,y,z
-x,-y,z
x,-y,-z
-x,y,-z
-x,-y,-z
x,y,-z
-x,y,z
x,-y,z
x,1/2+y,1/2+z
-x,1/2-y,1/2+z
x,1/2-y,1/2-z
-x,1/2+y,1/2-z
-x,1/2-y,1/2-z
x,1/2+y,1/2-z
-x,1/2+y,1/2+z
x,1/2-y,1/2+z
1/2+x,y,1/2+z
1/2-x,-y,1/2+z
1/2+x,-y,1/2-z
1/2-x,y,1/2-z
1/2-x,-y,1/2-z
1/2+x,y,1/2-z
1/2-x,y,1/2+z
1/2+x,-y,1/2+z
1/2+x,1/2+y,z
1/2-x,1/2-y,z
1/2+x,1/2-y,-z
1/2-x,1/2+y,-z
1/2-x,1/2-y,-z
1/2+x,1/2+y,-z
1/2-x,1/2+y,z
1/2+x,1/2-y,z
loop_
_atom_site_type_symbol
_atom_site_label
_atom_site_fract_x
_atom_site_fract_y
_atom_site_fract_z
Si Si1 0.318543 0.580121 0.877311
Si Si2 0.187664 0.316606 0.938106
Si Si3 0.500000 0.582786 0.937350
Si Si4 0.147363 0.276677 0.172423
Si Si5 0.099480 0.361348 0.725977
O O1 0.304311 0.500000 0.885973
O O2 0.244377 0.623886 0.908413
O O3 0.411290 0.601882 0.905621
O O4 0.335159 0.595107 0.812546
O O5 0.250000 0.250000 0.943478
O O6 0.120711 0.295287 0.889712
O O7 0.157590 0.334500 0.000000
O O8 0.500000 0.500000 0.939285
O O9 0.500000 0.608713 0.000000
O O10 0.250000 0.250000 0.174153
O O11 0.134289 0.340160 0.213589
O O12 0.096034 0.211935 0.195445
O O13 0.000000 0.390535 0.728467
#
# Coordination Sequence:
#
# PCOD9511914 Si02
#       5
#    32  32  16  32  32
#     4  11  21  33  52  80 111 145 182 222 272 327
#     4  10  20  35  55  76 103 142 186 227 267 317
#     4   9  18  32  48  69 108 154 180 205 262 330
#     4  10  19  34  57  77 105 141 187 225 275 322
#     4  11  20  33  54  80 110 145 183 222 269 325
#
# _framework density 20.076720000000002
#
# number of rings (size 3 to 8) (size 9 to 14) (size 15 to 20)
#    0.000    1.667    5.556    3.333    0.000    1.333 
#    0.000    2.222    0.000    2.000    0.000    0.000 
#    0.000    0.000    0.000   10.000    1.333    0.000 
#
# Total GULP energy -200688.892802 kJ/mol
# GULP energy per Si atom -5574.691467 kJ/mol
# Density = 2.003102 g / cm^3
# Si number density = 20.076720 Si / 1000 Ang^3
#
#
#
# Elastic Constant Matrix: (Units=GPa)
#
#
# Indices 1 2 3 4 5 6 
#
# 1 35.0169 -2.2593 2.2508 0.0000 0.0000 0.0000
# 2 -2.2593 65.5169 17.2722 0.0000 0.0000 0.0000
# 3 2.2508 17.2722 167.3789 0.0000 0.0000 0.0000
# 4 0.0000 0.0000 0.0000 12.7252 0.0000 0.0000
# 5 0.0000 0.0000 0.0000 0.0000 7.6038 0.0000
# 6 0.0000 0.0000 0.0000 0.0000 0.0000 15.6007
#
#
#
# Elastic Compliance Matrix: (Units=1/GPa)
#
#
# Indices 1 2 3 4 5 6 
#
# 1 0.028662 0.001120 -0.000501 0.000000 0.000000 0.000000
# 2 0.001120 0.015734 -0.001639 0.000000 0.000000 0.000000
# 3 -0.000501 -0.001639 0.006150 0.000000 0.000000 0.000000
# 4 0.000000 0.000000 0.000000 0.078584 0.000000 0.000000
# 5 0.000000 0.000000 0.000000 0.000000 0.131513 0.000000
# 6 0.000000 0.000000 0.000000 0.000000 0.000000 0.064100
#
#
# Mechanical properties :
#
#
# Convention : Reuss Voigt Hill
#
# Bulk Modulus (GPa) = 20.61520 33.60444 27.10982
# Shear Modulus (GPa) = 14.57935 23.89588 19.23762
#
# Velocity S-wave (km/s) = 2.69770 3.45371 3.09885
# Velocity P-wave (km/s) = 4.47146 5.71651 5.13188
#
# Compressibility (1/GPa) = 0.04850789
#
# Stress axis : x y z
#
# Youngs Moduli (GPa) = 34.88918 63.55711 162.59351
#
# Poissons Ratio (x) = -0.07122 0.08147
# Poissons Ratio (y) = -0.03909 0.26644
# Poissons Ratio (z) = 0.01748 0.10415
#
# Static dielectric constant tensor:
#      x y z
#    x 1.734940 0.000000 0.000000 
#    y 0.000000 1.705290 0.000000 
#    z 0.000000 0.000000 1.792770 
# 
# From -- ./inp_files/32585.got.cif
#   From: 2010.05.17/outbox.cif.g08.bks.cpg/sg69_17_cif.got.tgz:32585.got - 2010.06.03 19:29:58.
