data_PCOD9511319
_publ_section_title
;
Structure prediction by ZEFSAII (Michael W. Deem and Ramdas Pophale) SiO2 
 PCOD9511319
Probable space group: F M M M
;
_chemical_formula_sum "Si O2"
_cell_formula_units_Z 112
_cell_length_a 25.842579
_cell_length_b 7.515512
_cell_length_c 33.323257
_cell_angle_alpha 90.000000
_cell_angle_beta 90.000000
_cell_angle_gamma 90.000000
_cell_volume 6472.050059
_symmetry_space_group_name_H-M "F M M M"
_symmetry_group_IT_number 69
_symmetry_cell_setting 'orthorhombic'
loop_
_space_group_symop_operation_xyz
x,y,z
-x,-y,z
x,-y,-z
-x,y,-z
-x,-y,-z
x,y,-z
-x,y,z
x,-y,z
x,1/2+y,1/2+z
-x,1/2-y,1/2+z
x,1/2-y,1/2-z
-x,1/2+y,1/2-z
-x,1/2-y,1/2-z
x,1/2+y,1/2-z
-x,1/2+y,1/2+z
x,1/2-y,1/2+z
1/2+x,y,1/2+z
1/2-x,-y,1/2+z
1/2+x,-y,1/2-z
1/2-x,y,1/2-z
1/2-x,-y,1/2-z
1/2+x,y,1/2-z
1/2-x,y,1/2+z
1/2+x,-y,1/2+z
1/2+x,1/2+y,z
1/2-x,1/2-y,z
1/2+x,1/2-y,-z
1/2-x,1/2+y,-z
1/2-x,1/2-y,-z
1/2+x,1/2+y,-z
1/2-x,1/2+y,z
1/2+x,1/2-y,z
loop_
_atom_site_type_symbol
_atom_site_label
_atom_site_fract_x
_atom_site_fract_y
_atom_site_fract_z
Si Si1 0.694003 0.792089 0.110907
Si Si2 0.917367 0.212970 0.639014
Si Si3 0.670338 0.000000 0.454525
Si Si4 0.443535 0.500000 0.072917
Si Si5 0.000000 0.788517 0.296865
O O1 0.750000 0.750000 0.129240
O O2 0.644319 0.753252 0.138821
O O3 0.688136 0.669759 0.071535
O O4 0.691962 0.000000 0.100435
O O5 0.938681 0.328078 0.602001
O O6 0.949296 0.270920 0.678287
O O7 0.924756 0.000000 0.633093
O O8 0.689349 0.000000 0.500000
O O9 0.607717 0.000000 0.453804
O O10 0.500000 0.500000 0.053429
O O11 0.000000 0.750000 0.250000
O O12 0.000000 0.000000 0.299946
#
# Coordination Sequence:
#
# PCOD9511319 Si02
#       5
#    32  32  16  16  16
#     4  10  19  35  54  74  97 133 175 209 251 299
#     4   9  19  33  50  73 103 133 167 206 244 300
#     4  10  22  35  48  76 104 130 169 212 261 304
#     4  10  18  31  56  72  94 137 173 202 249 298
#     4  10  20  32  50  80 108 131 159 203 257 297
#
# _framework density 17.30518
#
# number of rings (size 3 to 8) (size 9 to 14) (size 15 to 20)
#    0.000    2.286    2.857    0.000    2.000    1.429 
#    0.000    0.000    0.000    0.857    0.000   14.000 
#    0.000    0.000    0.000    0.000    0.000    0.000 
#
# Total GULP energy -155962.220753 kJ/mol
# GULP energy per Si atom -5570.079313 kJ/mol
# Density = 1.726579 g / cm^3
# Si number density = 17.305180 Si / 1000 Ang^3
#
#
#
# Elastic Constant Matrix: (Units=GPa)
#
#
# Indices 1 2 3 4 5 6 
#
# 1 151.6385 27.1287 38.3815 -0.0001 -0.0001 0.0005
# 2 27.1287 74.4930 22.6171 -0.0002 0.0001 0.0010
# 3 38.3815 22.6171 86.6258 0.0001 0.0000 -0.0001
# 4 -0.0001 -0.0002 0.0001 12.9330 0.0001 0.0000
# 5 -0.0001 0.0001 0.0000 0.0001 13.0150 0.0001
# 6 0.0005 0.0010 -0.0001 0.0000 0.0001 11.4217
#
#
#
# Elastic Compliance Matrix: (Units=1/GPa)
#
#
# Indices 1 2 3 4 5 6 
#
# 1 0.007671 -0.001913 -0.002899 0.000000 0.000000 0.000000
# 2 -0.001913 0.015057 -0.003084 0.000000 0.000000 -0.000001
# 3 -0.002899 -0.003084 0.013634 0.000000 0.000000 0.000001
# 4 0.000000 0.000000 0.000000 0.077322 -0.000001 0.000000
# 5 0.000000 0.000000 0.000000 -0.000001 0.076835 -0.000001
# 6 0.000000 -0.000001 0.000001 0.000000 -0.000001 0.087552
#
#
# Mechanical properties :
#
#
# Convention : Reuss Voigt Hill
#
# Bulk Modulus (GPa) = 48.61593 54.33466 51.47529
# Shear Modulus (GPa) = 16.62686 22.44928 19.53807
#
# Velocity S-wave (km/s) = 3.10304 3.60565 3.36375
# Velocity P-wave (km/s) = 6.40256 6.98573 6.70049
#
# Compressibility (1/GPa) = 0.02056939
#
# Stress axis : x y z
#
# Youngs Moduli (GPa) = 130.36565 66.41410 73.34870
#
# Poissons Ratio (x) = 0.12707 0.21265
# Poissons Ratio (y) = 0.24943 0.22617
# Poissons Ratio (z) = 0.37795 0.20479
#
# Static dielectric constant tensor:
#      x y z
#    x 1.645840 0.000000 0.000000 
#    y 0.000000 1.618520 0.000000 
#    z 0.000000 0.000000 1.547060 
# 
# From -- ./inp_files/4036.got.cif
#   From: 2010.05.17/outbox.cif.g08.bks.cpg/sg69_3_cif.got.tgz:4036.got - 2010.06.03 19:29:58.
