data_PCOD9511037
_publ_section_title
;
Structure prediction by ZEFSAII (Michael W. Deem and Ramdas Pophale) SiO2 
 PCOD9511037
Probable space group: F M M M
;
_chemical_formula_sum "Si O2"
_cell_formula_units_Z 136
_cell_length_a 21.555640
_cell_length_b 14.103702
_cell_length_c 17.170744
_cell_angle_alpha 90.000000
_cell_angle_beta 90.000000
_cell_angle_gamma 90.000000
_cell_volume 5220.152112
_symmetry_space_group_name_H-M "F M M M"
_symmetry_group_IT_number 69
_symmetry_cell_setting 'orthorhombic'
loop_
_space_group_symop_operation_xyz
x,y,z
-x,-y,z
x,-y,-z
-x,y,-z
-x,-y,-z
x,y,-z
-x,y,z
x,-y,z
x,1/2+y,1/2+z
-x,1/2-y,1/2+z
x,1/2-y,1/2-z
-x,1/2+y,1/2-z
-x,1/2-y,1/2-z
x,1/2+y,1/2-z
-x,1/2+y,1/2+z
x,1/2-y,1/2+z
1/2+x,y,1/2+z
1/2-x,-y,1/2+z
1/2+x,-y,1/2-z
1/2-x,y,1/2-z
1/2-x,-y,1/2-z
1/2+x,y,1/2-z
1/2-x,y,1/2+z
1/2+x,-y,1/2+z
1/2+x,1/2+y,z
1/2-x,1/2-y,z
1/2+x,1/2-y,-z
1/2-x,1/2+y,-z
1/2-x,1/2-y,-z
1/2+x,1/2+y,-z
1/2-x,1/2+y,z
1/2+x,1/2-y,z
loop_
_atom_site_type_symbol
_atom_site_label
_atom_site_fract_x
_atom_site_fract_y
_atom_site_fract_z
Si Si1 0.500000 0.697671 0.668511
Si Si2 0.384282 0.386953 0.744437
Si Si3 0.640388 0.883956 0.587996
Si Si4 0.000000 0.789968 0.500000
Si Si5 0.631605 0.386663 0.500000
Si Si6 0.721394 0.884686 0.139039
O O1 0.500000 0.750000 0.750000
O O2 0.562882 0.636986 0.681752
O O3 0.500000 0.752831 0.586729
O O4 0.382256 0.500000 0.748684
O O5 0.396018 0.353524 0.833445
O O6 0.315623 0.355582 0.716848
O O7 0.623226 0.851254 0.500000
O O8 0.711034 0.855699 0.609287
O O9 0.637419 0.000000 0.584739
O O10 0.062127 0.851598 0.500000
O O11 0.630799 0.500000 0.500000
O O12 0.672081 0.356800 0.573548
O O13 0.725800 0.000000 0.143117
#
# Coordination Sequence:
#
# PCOD9511037 Si02
#       6
#    16  32  32   8  16  32
#     4  12  27  45  60  82 112 150 194 242 291 347
#     4  10  20  35  58  88 118 149 187 240 288 334
#     4   9  16  28  49  82 122 157 188 225 278 338
#     4  12  23  40  62  78 105 160 194 234 292 350
#     4  10  17  26  52  93 124 143 180 233 285 341
#     4   9  15  26  49  85 123 150 177 225 285 340
#
# _framework density 26.052880999999999
#
# number of rings (size 3 to 8) (size 9 to 14) (size 15 to 20)
#    0.000    2.118    3.529    1.235    0.000    3.765 
#    2.118    0.000    0.000    5.647    0.000    3.294 
#    0.000    0.000    0.000    0.000    0.000    0.000 
#
# Total GULP energy -189994.073878 kJ/mol
# GULP energy per Si atom -5588.060996 kJ/mol
# Density = 2.599358 g / cm^3
# Si number density = 26.052881 Si / 1000 Ang^3
#
#
#
# Elastic Constant Matrix: (Units=GPa)
#
#
# Indices 1 2 3 4 5 6 
#
# 1 101.0579 18.7901 33.9967 0.0000 0.0000 0.0000
# 2 18.7901 69.4819 25.4955 0.0000 0.0000 0.0000
# 3 33.9967 25.4955 210.6004 0.0000 0.0000 0.0000
# 4 0.0000 0.0000 0.0000 24.3182 0.0000 0.0000
# 5 0.0000 0.0000 0.0000 0.0000 35.7933 0.0000
# 6 0.0000 0.0000 0.0000 0.0000 0.0000 31.2412
#
#
#
# Elastic Compliance Matrix: (Units=1/GPa)
#
#
# Indices 1 2 3 4 5 6 
#
# 1 0.010831 -0.002394 -0.001459 0.000000 0.000000 0.000000
# 2 -0.002394 0.015590 -0.001501 0.000000 0.000000 0.000000
# 3 -0.001459 -0.001501 0.005165 0.000000 0.000000 0.000000
# 4 0.000000 0.000000 0.000000 0.041121 0.000000 0.000000
# 5 0.000000 0.000000 0.000000 0.000000 0.027938 0.000000
# 6 0.000000 0.000000 0.000000 0.000000 0.000000 0.032009
#
#
# Mechanical properties :
#
#
# Convention : Reuss Voigt Hill
#
# Bulk Modulus (GPa) = 47.89249 59.74498 53.81873
# Shear Modulus (GPa) = 33.26179 38.46106 35.86143
#
# Velocity S-wave (km/s) = 3.57697 3.84639 3.71413
# Velocity P-wave (km/s) = 5.95671 6.53516 6.25263
#
# Compressibility (1/GPa) = 0.02088010
#
# Stress axis : x y z
#
# Youngs Moduli (GPa) = 92.32661 64.14223 193.59213
#
# Poissons Ratio (x) = 0.15355 0.28238
# Poissons Ratio (y) = 0.22102 0.29057
# Poissons Ratio (z) = 0.13467 0.09627
#
# Static dielectric constant tensor:
#      x y z
#    x 2.065740 0.000000 0.000000 
#    y 0.000000 2.063860 0.000000 
#    z 0.000000 0.000000 2.102610 
# 
# From -- ./inp_files/24234.got.cif
#   From: 2010.05.17/outbox.cif.g08.bks.cpg/sg69_13_cif.got.tgz:24234.got - 2010.06.03 19:29:58.
