data_PCOD9511705
_publ_section_title
;
Structure prediction by ZEFSAII (Michael W. Deem and Ramdas Pophale) SiO2 
 PCOD9511705
Probable space group: F M M M
;
_chemical_formula_sum "Si O2"
_cell_formula_units_Z 176
_cell_length_a 13.596967
_cell_length_b 28.912519
_cell_length_c 22.757568
_cell_angle_alpha 90.000000
_cell_angle_beta 90.000000
_cell_angle_gamma 90.000000
_cell_volume 8946.513545
_symmetry_space_group_name_H-M "F M M M"
_symmetry_group_IT_number 69
_symmetry_cell_setting 'orthorhombic'
loop_
_space_group_symop_operation_xyz
x,y,z
-x,-y,z
x,-y,-z
-x,y,-z
-x,-y,-z
x,y,-z
-x,y,z
x,-y,z
x,1/2+y,1/2+z
-x,1/2-y,1/2+z
x,1/2-y,1/2-z
-x,1/2+y,1/2-z
-x,1/2-y,1/2-z
x,1/2+y,1/2-z
-x,1/2+y,1/2+z
x,1/2-y,1/2+z
1/2+x,y,1/2+z
1/2-x,-y,1/2+z
1/2+x,-y,1/2-z
1/2-x,y,1/2-z
1/2-x,-y,1/2-z
1/2+x,y,1/2-z
1/2-x,y,1/2+z
1/2+x,-y,1/2+z
1/2+x,1/2+y,z
1/2-x,1/2-y,z
1/2+x,1/2-y,-z
1/2-x,1/2+y,-z
1/2-x,1/2-y,-z
1/2+x,1/2+y,-z
1/2-x,1/2+y,z
1/2+x,1/2-y,z
loop_
_atom_site_type_symbol
_atom_site_label
_atom_site_fract_x
_atom_site_fract_y
_atom_site_fract_z
Si Si1 0.118240 0.358921 0.847834
Si Si2 0.387021 0.000000 0.570921
Si Si3 0.119120 0.721847 0.936870
Si Si4 0.881792 0.303218 0.735785
Si Si5 0.118053 0.677559 0.600199
Si Si6 0.258613 0.089646 0.568414
O O1 0.142622 0.312878 0.885352
O O2 0.148525 0.342517 0.782595
O O3 0.174080 0.399145 0.883542
O O4 0.000000 0.366589 0.849005
O O5 0.323766 0.954684 0.586065
O O6 0.500000 0.000000 0.593463
O O7 0.394034 0.000000 0.500000
O O8 0.151641 0.774245 0.928169
O O9 0.000000 0.724299 0.936333
O O10 0.149424 0.702928 0.000000
O O11 0.851761 0.250000 0.750000
O O12 0.859111 0.317291 0.669360
O O13 0.000000 0.301937 0.740449
O O14 0.169835 0.633822 0.572259
O O15 0.000000 0.673587 0.593631
O O16 0.224769 0.084223 0.500000
#
# Coordination Sequence:
#
# PCOD9511705 Si02
#       6
#    32  16  32  32  32  32
#     4  10  20  35  54  78 115 158 195 232 269 324
#     4   9  20  42  67  86 109 139 176 234 300 357
#     4   9  16  27  45  71 109 153 184 219 277 327
#     4   9  16  32  55  77 110 159 204 232 266 317
#     4  10  19  32  53  81 112 145 188 240 282 329
#     4  11  23  37  57  85 110 140 185 233 291 354
#
# _framework density 19.672469
#
# number of rings (size 3 to 8) (size 9 to 14) (size 15 to 20)
#    0.000    2.273    1.818    1.636    0.000    4.364 
#    0.000    3.182    0.000    3.818    0.000    3.818 
#    0.000    0.000    0.000    0.000    0.000    0.000 
#
# Total GULP energy -245690.960512 kJ/mol
# GULP energy per Si atom -5583.885466 kJ/mol
# Density = 1.962769 g / cm^3
# Si number density = 19.672469 Si / 1000 Ang^3
#
#
#
# Elastic Constant Matrix: (Units=GPa)
#
#
# Indices 1 2 3 4 5 6 
#
# 1 111.1466 34.5200 21.0980 0.0000 0.0000 0.0000
# 2 34.5200 98.6439 14.5358 0.0000 0.0000 0.0000
# 3 21.0980 14.5358 92.0992 0.0000 0.0000 0.0000
# 4 0.0000 0.0000 0.0000 3.0689 0.0000 0.0000
# 5 0.0000 0.0000 0.0000 0.0000 26.7990 0.0000
# 6 0.0000 0.0000 0.0000 0.0000 0.0000 26.7829
#
#
#
# Elastic Compliance Matrix: (Units=1/GPa)
#
#
# Indices 1 2 3 4 5 6 
#
# 1 0.010393 -0.003364 -0.001850 0.000000 0.000000 0.000000
# 2 -0.003364 0.011468 -0.001039 0.000000 0.000000 0.000000
# 3 -0.001850 -0.001039 0.011446 0.000000 0.000000 0.000000
# 4 0.000000 0.000000 0.000000 0.325851 0.000000 0.000000
# 5 0.000000 0.000000 0.000000 0.000000 0.037315 0.000000
# 6 0.000000 0.000000 0.000000 0.000000 0.000000 0.037337
#
#
# Mechanical properties :
#
#
# Convention : Reuss Voigt Hill
#
# Bulk Modulus (GPa) = 48.07759 49.13303 48.60531
# Shear Modulus (GPa) = 11.03143 26.77922 18.90532
#
# Velocity S-wave (km/s) = 2.37059 3.69352 3.10337
# Velocity P-wave (km/s) = 5.65553 6.57413 6.13206
#
# Compressibility (1/GPa) = 0.02079971
#
# Stress axis : x y z
#
# Youngs Moduli (GPa) = 96.21672 87.19925 87.36954
#
# Poissons Ratio (x) = 0.29338 0.16162
# Poissons Ratio (y) = 0.32372 0.09080
# Poissons Ratio (z) = 0.17799 0.09062
#
# Static dielectric constant tensor:
#      x y z
#    x 1.794480 0.000000 0.000000 
#    y 0.000000 1.646120 0.000000 
#    z 0.000000 0.000000 1.704050 
# 
# From -- ./inp_files/36067.got.cif
#   From: 2010.05.17/outbox.cif.g08.bks.cpg/sg69_19_cif.got.tgz:36067.got - 2010.06.03 19:29:58.
