data_PCOD9511784
_publ_section_title
;
Structure prediction by ZEFSAII (Michael W. Deem and Ramdas Pophale) SiO2 
 PCOD9511784
Probable space group: F M M M
;
_chemical_formula_sum "Si O2"
_cell_formula_units_Z 208
_cell_length_a 23.237724
_cell_length_b 16.429480
_cell_length_c 28.555985
_cell_angle_alpha 90.000000
_cell_angle_beta 90.000000
_cell_angle_gamma 90.000000
_cell_volume 10902.210230
_symmetry_space_group_name_H-M "F M M M"
_symmetry_group_IT_number 69
_symmetry_cell_setting 'orthorhombic'
loop_
_space_group_symop_operation_xyz
x,y,z
-x,-y,z
x,-y,-z
-x,y,-z
-x,-y,-z
x,y,-z
-x,y,z
x,-y,z
x,1/2+y,1/2+z
-x,1/2-y,1/2+z
x,1/2-y,1/2-z
-x,1/2+y,1/2-z
-x,1/2-y,1/2-z
x,1/2+y,1/2-z
-x,1/2+y,1/2+z
x,1/2-y,1/2+z
1/2+x,y,1/2+z
1/2-x,-y,1/2+z
1/2+x,-y,1/2-z
1/2-x,y,1/2-z
1/2-x,-y,1/2-z
1/2+x,y,1/2-z
1/2-x,y,1/2+z
1/2+x,-y,1/2+z
1/2+x,1/2+y,z
1/2-x,1/2-y,z
1/2+x,1/2-y,-z
1/2-x,1/2+y,-z
1/2-x,1/2-y,-z
1/2+x,1/2+y,-z
1/2-x,1/2+y,z
1/2+x,1/2-y,z
loop_
_atom_site_type_symbol
_atom_site_label
_atom_site_fract_x
_atom_site_fract_y
_atom_site_fract_z
Si Si1 0.632332 0.406235 0.318894
Si Si2 0.877961 0.596876 0.352759
Si Si3 0.431401 0.838720 0.554765
Si Si4 0.930012 0.500000 0.052787
Si Si5 0.567998 0.166434 0.898546
Si Si6 0.761890 0.096850 0.198008
Si Si7 0.435366 0.344196 0.764175
O O1 0.616624 0.500000 0.330622
O O2 0.599693 0.338804 0.349206
O O3 0.700022 0.395644 0.326205
O O4 0.612370 0.392612 0.265479
O O5 0.882187 0.500000 0.345802
O O6 0.893570 0.614886 0.406565
O O7 0.815460 0.625948 0.333236
O O8 0.923587 0.640693 0.318714
O O9 0.417619 0.852830 0.500000
O O10 0.500000 0.856829 0.560838
O O11 0.422756 0.744133 0.568927
O O12 0.912267 0.583705 0.076471
O O13 0.000000 0.500000 0.053002
O O14 0.909759 0.500000 0.000000
O O15 0.500000 0.161668 0.889553
O O16 0.750000 0.132637 0.250000
O O17 0.772378 0.000000 0.204673
O O18 0.500000 0.372335 0.751951
O O19 0.431008 0.250000 0.750000
#
# Coordination Sequence:
#
# PCOD9511784 Si02
#       7
#    32  32  32  16  32  32  32
#     4  11  20  33  56  83 114 149 191 236 286 344
#     4  11  22  39  62  85 111 151 200 247 289 344
#     4  10  22  40  61  85 117 155 194 247 308 351
#     4   9  16  28  50  78 107 142 186 226 263 330
#     4  10  19  33  53  83 118 151 187 229 288 352
#     4   9  18  36  58  81 111 149 194 237 283 340
#     4  11  23  36  51  79 121 158 185 227 291 354
#
# _framework density 19.078700999999999
#
# number of rings (size 3 to 8) (size 9 to 14) (size 15 to 20)
#    0.000    1.769    2.308    2.769    0.000    7.385 
#    0.000    4.615    0.000    2.769    0.000    0.000 
#    0.000    0.000    0.000    0.000    0.000    0.000 
#
# Total GULP energy -290043.552384 kJ/mol
# GULP energy per Si atom -5577.760623 kJ/mol
# Density = 1.903528 g / cm^3
# Si number density = 19.078701 Si / 1000 Ang^3
#
#
#
# Elastic Constant Matrix: (Units=GPa)
#
#
# Indices 1 2 3 4 5 6 
#
# 1 73.8175 30.1094 38.4128 0.0000 0.0000 0.0000
# 2 30.1094 47.7472 20.9865 0.0000 0.0000 0.0000
# 3 38.4128 20.9865 124.7801 0.0000 0.0000 0.0000
# 4 0.0000 0.0000 0.0000 26.8104 0.0000 0.0000
# 5 0.0000 0.0000 0.0000 0.0000 19.0113 0.0000
# 6 0.0000 0.0000 0.0000 0.0000 0.0000 4.4231
#
#
#
# Elastic Compliance Matrix: (Units=1/GPa)
#
#
# Indices 1 2 3 4 5 6 
#
# 1 0.020266 -0.010839 -0.004416 0.000000 0.000000 0.000000
# 2 -0.010839 0.028412 -0.001442 0.000000 0.000000 0.000000
# 3 -0.004416 -0.001442 0.009616 0.000000 0.000000 0.000000
# 4 0.000000 0.000000 0.000000 0.037299 0.000000 0.000000
# 5 0.000000 0.000000 0.000000 0.000000 0.052600 0.000000
# 6 0.000000 0.000000 0.000000 0.000000 0.000000 0.226085
#
#
# Mechanical properties :
#
#
# Convention : Reuss Voigt Hill
#
# Bulk Modulus (GPa) = 40.15873 47.26245 43.71059
# Shear Modulus (GPa) = 12.02004 20.50471 16.26238
#
# Velocity S-wave (km/s) = 2.51275 3.28188 2.92273
# Velocity P-wave (km/s) = 5.43261 6.25997 5.86090
#
# Compressibility (1/GPa) = 0.02490119
#
# Stress axis : x y z
#
# Youngs Moduli (GPa) = 49.34429 35.19598 103.99355
#
# Poissons Ratio (x) = 0.38148 0.45921
# Poissons Ratio (y) = 0.53483 0.14996
# Poissons Ratio (z) = 0.21789 0.05075
#
# Static dielectric constant tensor:
#      x y z
#    x 1.657080 0.000000 0.000000 
#    y 0.000000 1.680520 0.000000 
#    z 0.000000 0.000000 1.716100 
# 
# From -- ./inp_files/42103.got.cif
#   From: 2010.05.17/outbox.cif.g08.bks.cpg/sg69_22_cif.got.tgz:42103.got - 2010.06.03 19:29:58.
