data_PCOD9511079
_publ_section_title
;
Structure prediction by ZEFSAII (Michael W. Deem and Ramdas Pophale) SiO2 
 PCOD9511079
Probable space group: F M M M
;
_chemical_formula_sum "Si O2"
_cell_formula_units_Z 144
_cell_length_a 24.121455
_cell_length_b 18.653575
_cell_length_c 14.042087
_cell_angle_alpha 90.000000
_cell_angle_beta 90.000000
_cell_angle_gamma 90.000000
_cell_volume 6318.256283
_symmetry_space_group_name_H-M "F M M M"
_symmetry_group_IT_number 69
_symmetry_cell_setting 'orthorhombic'
loop_
_space_group_symop_operation_xyz
x,y,z
-x,-y,z
x,-y,-z
-x,y,-z
-x,-y,-z
x,y,-z
-x,y,z
x,-y,z
x,1/2+y,1/2+z
-x,1/2-y,1/2+z
x,1/2-y,1/2-z
-x,1/2+y,1/2-z
-x,1/2-y,1/2-z
x,1/2+y,1/2-z
-x,1/2+y,1/2+z
x,1/2-y,1/2+z
1/2+x,y,1/2+z
1/2-x,-y,1/2+z
1/2+x,-y,1/2-z
1/2-x,y,1/2-z
1/2-x,-y,1/2-z
1/2+x,y,1/2-z
1/2-x,y,1/2+z
1/2+x,-y,1/2+z
1/2+x,1/2+y,z
1/2-x,1/2-y,z
1/2+x,1/2-y,-z
1/2-x,1/2+y,-z
1/2-x,1/2-y,-z
1/2+x,1/2+y,-z
1/2-x,1/2+y,z
1/2+x,1/2-y,z
loop_
_atom_site_type_symbol
_atom_site_label
_atom_site_fract_x
_atom_site_fract_y
_atom_site_fract_z
Si Si1 0.934803 0.000000 0.882548
Si Si2 0.000000 0.395813 0.894155
Si Si3 0.124552 0.579902 0.116304
Si Si4 0.888552 0.851773 0.891463
Si Si5 0.500000 0.232472 0.638583
Si Si6 0.187938 0.225341 0.616308
O O1 0.901032 0.070116 0.850886
O O2 0.000000 0.000000 0.853296
O O3 0.936381 0.000000 0.000000
O O4 0.940015 0.414029 0.850710
O O5 0.000000 0.310734 0.903807
O O6 0.000000 0.426864 0.000000
O O7 0.145494 0.500000 0.140767
O O8 0.162225 0.648073 0.145897
O O9 0.122237 0.583581 0.000000
O O10 0.947437 0.812696 0.891347
O O11 0.848967 0.791942 0.848291
O O12 0.868967 0.863624 0.000000
O O13 0.500000 0.250000 0.750000
O O14 0.184696 0.223589 0.500000
O O15 0.250000 0.250000 0.640347
#
# Coordination Sequence:
#
# PCOD9511079 Si02
#       6
#    16  16  32  32  16  32
#     4   9  16  26  50  80  98 123 169 210 248 303
#     4  10  17  30  51  72  94 127 163 199 250 304
#     4   9  16  26  45  72  99 127 161 202 245 293
#     4  10  18  33  54  73 100 136 169 206 254 300
#     4  12  22  30  49  76 104 130 165 203 250 307
#     4   9  17  29  46  70 100 132 168 206 244 287
#
# _framework density 22.791098999999999
#
# number of rings (size 3 to 8) (size 9 to 14) (size 15 to 20)
#    0.000    2.333    3.333    1.333    0.000    1.333 
#    2.000    0.000    4.889    0.667    0.000    0.000 
#    0.000    3.556    0.000    0.000    0.000    0.000 
#
# Total GULP energy -200946.886331 kJ/mol
# GULP energy per Si atom -5581.857954 kJ/mol
# Density = 2.273923 g / cm^3
# Si number density = 22.791099 Si / 1000 Ang^3
#
#
#
# Elastic Constant Matrix: (Units=GPa)
#
#
# Indices 1 2 3 4 5 6 
#
# 1 167.2648 112.1223 -7.2289 0.0000 0.0000 0.0000
# 2 112.1223 283.2051 17.1594 0.0000 0.0000 0.0000
# 3 -7.2289 17.1594 93.0483 0.0000 0.0000 0.0000
# 4 0.0000 0.0000 0.0000 -5.9762 0.0000 0.0000
# 5 0.0000 0.0000 0.0000 0.0000 -32.2471 0.0000
# 6 0.0000 0.0000 0.0000 0.0000 0.0000 -2.5541
#
#
#
# Elastic Compliance Matrix: (Units=1/GPa)
#
#
# Indices 1 2 3 4 5 6 
#
# 1 0.008282 -0.003356 0.001262 0.000000 0.000000 0.000000
# 2 -0.003356 0.004930 -0.001170 0.000000 0.000000 0.000000
# 3 0.001262 -0.001170 0.011061 0.000000 0.000000 0.000000
# 4 0.000000 0.000000 0.000000 -0.167330 0.000000 0.000000
# 5 0.000000 0.000000 0.000000 0.000000 -0.031011 0.000000
# 6 0.000000 0.000000 0.000000 0.000000 0.000000 -0.391535
#
#
# Mechanical properties :
#
#
# Convention : Reuss Voigt Hill
#
# Bulk Modulus (GPa) = 56.34650 87.51376 71.93013
# Shear Modulus (GPa) = -9.03899 19.94221 5.45161
#
# Velocity S-wave (km/s) = -1.99365 2.96125 1.54828
# Velocity P-wave (km/s) = 4.41330 7.08333 5.90130
#
# Compressibility (1/GPa) = 0.01774733
#
# Stress axis : x y z
#
# Youngs Moduli (GPa) = 120.73790 202.82469 90.40834
#
# Poissons Ratio (x) = 0.68058 -0.11412
# Poissons Ratio (y) = 0.40514 0.10577
# Poissons Ratio (z) = -0.15240 0.23729
#
# Static dielectric constant tensor:
#      x y z
#    x 1.790220 0.000000 0.000000 
#    y 0.000000 1.842330 0.000000 
#    z 0.000000 0.000000 1.901670 
# 
# From -- ./inp_files/22956.got.cif
#   From: 2010.05.17/outbox.cif.g08.bks.cpg/sg69_12_cif.got.tgz:22956.got - 2010.06.03 19:29:58.
