data_PCOD9511288
_publ_section_title
;
Structure prediction by ZEFSAII (Michael W. Deem and Ramdas Pophale) SiO2 
 PCOD9511288
Probable space group: F M M M
;
_chemical_formula_sum "Si O2"
_cell_formula_units_Z 160
_cell_length_a 19.404898
_cell_length_b 20.636949
_cell_length_c 22.946174
_cell_angle_alpha 90.000000
_cell_angle_beta 90.000000
_cell_angle_gamma 90.000000
_cell_volume 9188.976432
_symmetry_space_group_name_H-M "F M M M"
_symmetry_group_IT_number 69
_symmetry_cell_setting 'orthorhombic'
loop_
_space_group_symop_operation_xyz
x,y,z
-x,-y,z
x,-y,-z
-x,y,-z
-x,-y,-z
x,y,-z
-x,y,z
x,-y,z
x,1/2+y,1/2+z
-x,1/2-y,1/2+z
x,1/2-y,1/2-z
-x,1/2+y,1/2-z
-x,1/2-y,1/2-z
x,1/2+y,1/2-z
-x,1/2+y,1/2+z
x,1/2-y,1/2+z
1/2+x,y,1/2+z
1/2-x,-y,1/2+z
1/2+x,-y,1/2-z
1/2-x,y,1/2-z
1/2-x,-y,1/2-z
1/2+x,y,1/2-z
1/2-x,y,1/2+z
1/2+x,-y,1/2+z
1/2+x,1/2+y,z
1/2-x,1/2-y,z
1/2+x,1/2-y,-z
1/2-x,1/2+y,-z
1/2-x,1/2-y,-z
1/2+x,1/2+y,-z
1/2-x,1/2+y,z
1/2+x,1/2-y,z
loop_
_atom_site_type_symbol
_atom_site_label
_atom_site_fract_x
_atom_site_fract_y
_atom_site_fract_z
Si Si1 0.500000 0.833765 0.570248
Si Si2 0.352470 0.388507 0.258159
Si Si3 0.629317 0.423554 0.930231
Si Si4 0.000000 0.286384 0.153561
Si Si5 0.756912 0.427161 0.343557
Si Si6 0.888561 0.750000 0.250000
Si Si7 0.000000 0.575163 0.805918
O O1 0.500000 0.828088 0.500000
O O2 0.433409 0.876823 0.587490
O O3 0.500000 0.763193 0.599922
O O4 0.309768 0.391701 0.318311
O O5 0.311774 0.428379 0.209618
O O6 0.348572 0.314974 0.236107
O O7 0.430394 0.412194 0.268386
O O8 0.616360 0.500000 0.915322
O O9 0.699367 0.402562 0.898182
O O10 0.635628 0.420439 0.000000
O O11 0.064494 0.268454 0.194794
O O12 0.000000 0.364811 0.147606
O O13 0.734234 0.500000 0.357016
O O14 0.000000 0.500000 0.825794
#
# Coordination Sequence:
#
# PCOD9511288 Si02
#       7
#    16  32  32  16  32  16  16
#     4  10  18  31  52  74  99 130 164 200 238 290
#     4  10  19  31  48  72  99 128 161 196 242 290
#     4   9  18  31  48  72 101 134 168 200 238 286
#     4   9  18  31  48  75 102 126 159 199 251 297
#     4  10  19  30  45  69 102 131 159 198 242 288
#     4   9  18  31  48  70  98 128 160 198 236 290
#     4  10  19  33  53  73  96 126 163 204 244 295
#
# _framework density 17.412168000000001
#
# number of rings (size 3 to 8) (size 9 to 14) (size 15 to 20)
#    0.000    2.400    0.000    4.500    0.000    3.600 
#    0.000    1.000    0.000    5.100    0.000   12.600 
#    0.000    0.000    0.000    0.000    0.000    0.000 
#
# Total GULP energy -222719.202579 kJ/mol
# GULP energy per Si atom -5567.980064 kJ/mol
# Density = 1.737254 g / cm^3
# Si number density = 17.412168 Si / 1000 Ang^3
#
#
#
# Elastic Constant Matrix: (Units=GPa)
#
#
# Indices 1 2 3 4 5 6 
#
# 1 80.7332 20.4904 11.9260 0.0000 0.0000 0.0000
# 2 20.4904 114.9486 17.8498 0.0000 0.0000 0.0000
# 3 11.9260 17.8498 28.4585 0.0000 0.0000 0.0000
# 4 0.0000 0.0000 0.0000 28.4569 0.0000 0.0000
# 5 0.0000 0.0000 0.0000 0.0000 3.3556 0.0000
# 6 0.0000 0.0000 0.0000 0.0000 0.0000 -20.1786
#
#
#
# Elastic Compliance Matrix: (Units=1/GPa)
#
#
# Indices 1 2 3 4 5 6 
#
# 1 0.013495 -0.001692 -0.004594 0.000000 0.000000 0.000000
# 2 -0.001692 0.009850 -0.005469 0.000000 0.000000 0.000000
# 3 -0.004594 -0.005469 0.040494 0.000000 0.000000 0.000000
# 4 0.000000 0.000000 0.000000 0.035141 0.000000 0.000000
# 5 0.000000 0.000000 0.000000 0.000000 0.298007 0.000000
# 6 0.000000 0.000000 0.000000 0.000000 0.000000 -0.049558
#
#
# Mechanical properties :
#
#
# Convention : Reuss Voigt Hill
#
# Bulk Modulus (GPa) = 24.79604 36.07474 30.43539
# Shear Modulus (GPa) = 13.00785 13.91841 13.46313
#
# Velocity S-wave (km/s) = 2.73620 2.83034 2.78367
# Velocity P-wave (km/s) = 4.92483 5.60752 5.27722
#
# Compressibility (1/GPa) = 0.04032903
#
# Stress axis : x y z
#
# Youngs Moduli (GPa) = 74.10400 101.51786 24.69475
#
# Poissons Ratio (x) = 0.17178 0.11344
# Poissons Ratio (y) = 0.12540 0.13506
# Poissons Ratio (z) = 0.34042 0.55523
#
# Static dielectric constant tensor:
#      x y z
#    x 1.616940 0.000000 0.000000 
#    y 0.000000 1.636410 0.000000 
#    z 0.000000 0.000000 1.588690 
# 
# From -- ./inp_files/30878.got.cif
#   From: 2010.05.17/outbox.cif.g08.bks.cpg/sg69_16_cif.got.tgz:30878.got - 2010.06.03 19:29:58.
