data_PCOD9511485
_publ_section_title
;
Structure prediction by ZEFSAII (Michael W. Deem and Ramdas Pophale) SiO2 
 PCOD9511485
Probable space group: F M M M
;
_chemical_formula_sum "Si O2"
_cell_formula_units_Z 144
_cell_length_a 21.945851
_cell_length_b 17.416490
_cell_length_c 23.324651
_cell_angle_alpha 90.000000
_cell_angle_beta 90.000000
_cell_angle_gamma 90.000000
_cell_volume 8915.140979
_symmetry_space_group_name_H-M "F M M M"
_symmetry_group_IT_number 69
_symmetry_cell_setting 'orthorhombic'
loop_
_space_group_symop_operation_xyz
x,y,z
-x,-y,z
x,-y,-z
-x,y,-z
-x,-y,-z
x,y,-z
-x,y,z
x,-y,z
x,1/2+y,1/2+z
-x,1/2-y,1/2+z
x,1/2-y,1/2-z
-x,1/2+y,1/2-z
-x,1/2-y,1/2-z
x,1/2+y,1/2-z
-x,1/2+y,1/2+z
x,1/2-y,1/2+z
1/2+x,y,1/2+z
1/2-x,-y,1/2+z
1/2+x,-y,1/2-z
1/2-x,y,1/2-z
1/2-x,-y,1/2-z
1/2+x,y,1/2-z
1/2-x,y,1/2+z
1/2+x,-y,1/2+z
1/2+x,1/2+y,z
1/2-x,1/2-y,z
1/2+x,1/2-y,-z
1/2-x,1/2+y,-z
1/2-x,1/2-y,-z
1/2+x,1/2+y,-z
1/2-x,1/2+y,z
1/2+x,1/2-y,z
loop_
_atom_site_type_symbol
_atom_site_label
_atom_site_fract_x
_atom_site_fract_y
_atom_site_fract_z
Si Si1 0.192125 0.698643 0.100710
Si Si2 0.825973 0.087674 0.500000
Si Si3 0.765764 0.412622 0.683106
Si Si4 0.872972 0.848819 0.116157
Si Si5 0.000000 0.092737 0.930654
Si Si6 0.680561 0.085377 0.500000
O O1 0.250000 0.750000 0.077611
O O2 0.162419 0.641076 0.054995
O O3 0.223269 0.647004 0.149494
O O4 0.142105 0.758957 0.122709
O O5 0.752760 0.079978 0.500000
O O6 0.850565 0.000000 0.500000
O O7 0.754589 0.500000 0.662920
O O8 0.750000 0.408325 0.750000
O O9 0.835416 0.391570 0.666369
O O10 0.840220 0.873397 0.057028
O O11 0.941471 0.873667 0.102769
O O12 0.000000 0.000000 0.927558
O O13 0.000000 0.112104 0.000000
O O14 0.653011 0.000000 0.500000
#
# Coordination Sequence:
#
# PCOD9511485 Si02
#       6
#    32  16  32  32  16  16
#     4  10  19  29  46  71 102 133 166 210 266 313
#     4  11  18  26  44  71 102 136 167 204 262 325
#     4  10  20  34  53  76 103 136 174 219 269 321
#     4  11  21  32  50  75 108 139 173 212 261 318
#     4  11  22  34  52  77 108 148 180 210 259 318
#     4  11  17  26  46  70 105 137 164 205 255 320
#
# _framework density 16.152296
#
# number of rings (size 3 to 8) (size 9 to 14) (size 15 to 20)
#    0.000    1.444    5.556    3.667    0.000    4.000 
#    0.000    0.000    0.000    2.667    0.000    5.444 
#    0.000    0.000    0.000    0.000    0.000    0.000 
#
# Total GULP energy -200553.741621 kJ/mol
# GULP energy per Si atom -5570.937267 kJ/mol
# Density = 1.611553 g / cm^3
# Si number density = 16.152296 Si / 1000 Ang^3
#
#
#
# Elastic Constant Matrix: (Units=GPa)
#
#
# Indices 1 2 3 4 5 6 
#
# 1 98.3225 41.9869 31.3899 0.0000 0.0000 0.0000
# 2 41.9869 133.7633 33.5002 0.0000 0.0000 0.0000
# 3 31.3899 33.5002 59.1312 0.0000 0.0000 0.0000
# 4 0.0000 0.0000 0.0000 25.8006 0.0000 0.0000
# 5 0.0000 0.0000 0.0000 0.0000 41.8943 0.0000
# 6 0.0000 0.0000 0.0000 0.0000 0.0000 16.3594
#
#
#
# Elastic Compliance Matrix: (Units=1/GPa)
#
#
# Indices 1 2 3 4 5 6 
#
# 1 0.013062 -0.002754 -0.005374 0.000000 0.000000 0.000000
# 2 -0.002754 0.009293 -0.003803 0.000000 0.000000 0.000000
# 3 -0.005374 -0.003803 0.021919 0.000000 0.000000 0.000000
# 4 0.000000 0.000000 0.000000 0.038759 0.000000 0.000000
# 5 0.000000 0.000000 0.000000 0.000000 0.023870 0.000000
# 6 0.000000 0.000000 0.000000 0.000000 0.000000 0.061127
#
#
# Mechanical properties :
#
#
# Convention : Reuss Voigt Hill
#
# Bulk Modulus (GPa) = 48.98995 56.10789 52.54892
# Shear Modulus (GPa) = 25.16428 29.10021 27.13224
#
# Velocity S-wave (km/s) = 3.95135 4.24915 4.10295
# Velocity P-wave (km/s) = 7.15636 7.67371 7.41955
#
# Compressibility (1/GPa) = 0.02041235
#
# Stress axis : x y z
#
# Youngs Moduli (GPa) = 76.55569 107.61041 45.62351
#
# Poissons Ratio (x) = 0.29639 0.24517
# Poissons Ratio (y) = 0.21086 0.17349
# Poissons Ratio (z) = 0.41139 0.40920
#
# Static dielectric constant tensor:
#      x y z
#    x 1.551330 0.000000 0.000000 
#    y 0.000000 1.599690 0.000000 
#    z 0.000000 0.000000 1.531550 
# 
# From -- ./inp_files/30753.got.cif
#   From: 2010.05.17/outbox.cif.g08.bks.cpg/sg69_16_cif.got.tgz:30753.got - 2010.06.03 19:29:58.
