data_PCOD9511415
_publ_section_title
;
Structure prediction by ZEFSAII (Michael W. Deem and Ramdas Pophale) SiO2 
 PCOD9511415
Probable space group: F M M M
;
_chemical_formula_sum "Si O2"
_cell_formula_units_Z 200
_cell_length_a 18.021819
_cell_length_b 20.489009
_cell_length_c 31.521821
_cell_angle_alpha 90.000000
_cell_angle_beta 90.000000
_cell_angle_gamma 90.000000
_cell_volume 11639.407555
_symmetry_space_group_name_H-M "F M M M"
_symmetry_group_IT_number 69
_symmetry_cell_setting 'orthorhombic'
loop_
_space_group_symop_operation_xyz
x,y,z
-x,-y,z
x,-y,-z
-x,y,-z
-x,-y,-z
x,y,-z
-x,y,z
x,-y,z
x,1/2+y,1/2+z
-x,1/2-y,1/2+z
x,1/2-y,1/2-z
-x,1/2+y,1/2-z
-x,1/2-y,1/2-z
x,1/2+y,1/2-z
-x,1/2+y,1/2+z
x,1/2-y,1/2+z
1/2+x,y,1/2+z
1/2-x,-y,1/2+z
1/2+x,-y,1/2-z
1/2-x,y,1/2-z
1/2-x,-y,1/2-z
1/2+x,y,1/2-z
1/2-x,y,1/2+z
1/2+x,-y,1/2+z
1/2+x,1/2+y,z
1/2-x,1/2-y,z
1/2+x,1/2-y,-z
1/2-x,1/2+y,-z
1/2-x,1/2-y,-z
1/2+x,1/2+y,-z
1/2-x,1/2+y,z
1/2+x,1/2-y,z
loop_
_atom_site_type_symbol
_atom_site_label
_atom_site_fract_x
_atom_site_fract_y
_atom_site_fract_z
Si Si1 0.086204 0.137818 0.645892
Si Si2 0.231775 0.573950 0.884454
Si Si3 0.086763 0.718927 0.609987
Si Si4 0.868152 0.391658 0.674211
Si Si5 0.789719 0.179732 0.950852
Si Si6 0.588005 0.825781 0.244500
Si Si7 0.500000 0.000000 0.665363
O O1 0.148632 0.087571 0.631504
O O2 0.100765 0.205538 0.620881
O O3 0.094872 0.153425 0.695768
O O4 0.000000 0.118727 0.638734
O O5 0.239838 0.500000 0.899739
O O6 0.290995 0.584868 0.846338
O O7 0.251541 0.625606 0.921276
O O8 0.112374 0.675259 0.649578
O O9 0.129985 0.692909 0.569272
O O10 0.000000 0.710549 0.604467
O O11 0.867812 0.372555 0.723653
O O12 0.934006 0.443139 0.666134
O O13 0.750000 0.250000 0.947333
O O14 0.791234 0.160505 0.000000
O O15 0.500000 0.830292 0.256013
O O16 0.609688 0.750000 0.250000
#
# Coordination Sequence:
#
# PCOD9511415 Si02
#       7
#    32  32  32  32  32  32   8
#     4  10  21  37  58  84 112 154 200 248 293 332
#     4  11  24  41  58  84 119 157 196 238 293 361
#     4  10  18  34  60  85 115 147 190 235 284 346
#     4  11  21  35  57  84 116 157 197 240 285 347
#     4  10  21  38  62  89 113 141 183 239 294 349
#     4  10  18  33  56  82 113 148 200 252 292 332
#     4  12  20  36  54  86 119 164 194 230 299 362
#
# _framework density 17.183005000000001
#
# number of rings (size 3 to 8) (size 9 to 14) (size 15 to 20)
#    0.000    1.600    5.600    0.000    0.000    1.600 
#    1.440    1.600    0.000    0.480    0.000    5.600 
#    0.000    0.000    0.000    0.000    0.000    0.000 
#
# Total GULP energy -278385.052857 kJ/mol
# GULP energy per Si atom -5567.701057 kJ/mol
# Density = 1.714390 g / cm^3
# Si number density = 17.183005 Si / 1000 Ang^3
#
#
#
# Elastic Constant Matrix: (Units=GPa)
#
#
# Indices 1 2 3 4 5 6 
#
# 1 82.5447 38.0252 37.9644 0.0000 0.0000 0.0000
# 2 38.0252 71.2226 28.5577 0.0000 0.0000 0.0000
# 3 37.9644 28.5577 87.9080 0.0000 0.0000 0.0000
# 4 0.0000 0.0000 0.0000 1.3657 0.0000 0.0000
# 5 0.0000 0.0000 0.0000 0.0000 15.2132 0.0000
# 6 0.0000 0.0000 0.0000 0.0000 0.0000 26.3826
#
#
#
# Elastic Compliance Matrix: (Units=1/GPa)
#
#
# Indices 1 2 3 4 5 6 
#
# 1 0.018020 -0.007474 -0.005354 0.000000 0.000000 0.000000
# 2 -0.007474 0.019243 -0.003024 0.000000 0.000000 0.000000
# 3 -0.005354 -0.003024 0.014670 0.000000 0.000000 0.000000
# 4 0.000000 0.000000 0.000000 0.732211 0.000000 0.000000
# 5 0.000000 0.000000 0.000000 0.000000 0.065732 0.000000
# 6 0.000000 0.000000 0.000000 0.000000 0.000000 0.037904
#
#
# Mechanical properties :
#
#
# Convention : Reuss Voigt Hill
#
# Bulk Modulus (GPa) = 49.43214 50.08556 49.75885
# Shear Modulus (GPa) = 5.39824 17.73418 11.56621
#
# Velocity S-wave (km/s) = 1.77438 3.21608 2.59727
# Velocity P-wave (km/s) = 5.74703 6.55763 6.16567
#
# Compressibility (1/GPa) = 0.02022975
#
# Stress axis : x y z
#
# Youngs Moduli (GPa) = 55.49332 51.96668 68.16586
#
# Poissons Ratio (x) = 0.38840 0.36498
# Poissons Ratio (y) = 0.41475 0.20610
# Poissons Ratio (z) = 0.29713 0.15712
#
# Static dielectric constant tensor:
#      x y z
#    x 1.582690 0.000000 0.000000 
#    y 0.000000 1.576530 0.000000 
#    z 0.000000 0.000000 1.568770 
# 
# From -- ./inp_files/27943.got.cif
#   From: 2010.05.17/outbox.cif.g08.bks.cpg/sg69_14_cif.got.tgz:27943.got - 2010.06.03 19:29:58.
