data_PCOD9511101
_publ_section_title
;
Structure prediction by ZEFSAII (Michael W. Deem and Ramdas Pophale) SiO2 
 PCOD9511101
Probable space group: F M M M
;
_chemical_formula_sum "Si O2"
_cell_formula_units_Z 136
_cell_length_a 16.411913
_cell_length_b 19.248156
_cell_length_c 17.808163
_cell_angle_alpha 90.000000
_cell_angle_beta 90.000000
_cell_angle_gamma 90.000000
_cell_volume 5625.581982
_symmetry_space_group_name_H-M "F M M M"
_symmetry_group_IT_number 69
_symmetry_cell_setting 'orthorhombic'
loop_
_space_group_symop_operation_xyz
x,y,z
-x,-y,z
x,-y,-z
-x,y,-z
-x,-y,-z
x,y,-z
-x,y,z
x,-y,z
x,1/2+y,1/2+z
-x,1/2-y,1/2+z
x,1/2-y,1/2-z
-x,1/2+y,1/2-z
-x,1/2-y,1/2-z
x,1/2+y,1/2-z
-x,1/2+y,1/2+z
x,1/2-y,1/2+z
1/2+x,y,1/2+z
1/2-x,-y,1/2+z
1/2+x,-y,1/2-z
1/2-x,y,1/2-z
1/2-x,-y,1/2-z
1/2+x,y,1/2-z
1/2-x,y,1/2+z
1/2+x,-y,1/2+z
1/2+x,1/2+y,z
1/2-x,1/2-y,z
1/2+x,1/2-y,-z
1/2-x,1/2+y,-z
1/2-x,1/2-y,-z
1/2+x,1/2+y,-z
1/2-x,1/2+y,z
1/2+x,1/2-y,z
loop_
_atom_site_type_symbol
_atom_site_label
_atom_site_fract_x
_atom_site_fract_y
_atom_site_fract_z
Si Si1 0.826142 0.342227 0.500000
Si Si2 0.628486 0.923434 0.312219
Si Si3 0.500000 0.804773 0.500000
Si Si4 0.816320 0.883684 0.660539
Si Si5 0.171031 0.079162 0.500000
Si Si6 0.250000 0.250000 0.130062
Si Si7 0.000000 0.299569 0.328219
O O1 0.769012 0.409069 0.500000
O O2 0.801100 0.296413 0.571772
O O3 0.920728 0.352736 0.500000
O O4 0.723950 0.914171 0.335315
O O5 0.631966 0.922388 0.221835
O O6 0.575316 0.854977 0.328192
O O7 0.600941 0.000000 0.338659
O O8 0.500000 0.767947 0.415532
O O9 0.854102 0.887392 0.578008
O O10 0.804803 0.802251 0.677143
O O11 0.148692 0.000000 0.500000
O O12 0.000000 0.250000 0.250000
#
# Coordination Sequence:
#
# PCOD9511101 Si02
#       7
#    16  32   8  32  16  16  16
#     4   9  20  35  58  89 130 165 211 279 333 386
#     4  11  24  43  64  96 137 174 218 277 336 399
#     4  12  26  46  67  94 135 164 234 276 324 398
#     4  10  21  35  66  94 130 165 225 274 340 400
#     4  10  17  33  58  92 126 169 217 271 336 408
#     4   9  18  35  58  96 125 169 214 275 335 396
#     4  12  29  47  70  99 134 185 227 276 336 400
#
# _framework density 24.175277000000001
#
# number of rings (size 3 to 8) (size 9 to 14) (size 15 to 20)
#    0.000    1.647    0.000    6.706    6.588    0.941 
#    0.000    2.647    0.000    0.000    0.000    3.294 
#    0.000    0.000    0.000    0.000    0.000    0.000 
#
# Total GULP energy -189474.847148 kJ/mol
# GULP energy per Si atom -5572.789622 kJ/mol
# Density = 2.412025 g / cm^3
# Si number density = 24.175277 Si / 1000 Ang^3
#
#
#
# Elastic Constant Matrix: (Units=GPa)
#
#
# Indices 1 2 3 4 5 6 
#
# 1 44.9972 -9.2768 3.2675 0.0000 0.0000 0.0000
# 2 -9.2768 133.1687 32.6572 0.0000 0.0000 0.0000
# 3 3.2675 32.6572 166.9294 0.0000 0.0000 0.0000
# 4 0.0000 0.0000 0.0000 24.0094 0.0000 0.0000
# 5 0.0000 0.0000 0.0000 0.0000 18.1160 0.0000
# 6 0.0000 0.0000 0.0000 0.0000 0.0000 7.4301
#
#
#
# Elastic Compliance Matrix: (Units=1/GPa)
#
#
# Indices 1 2 3 4 5 6 
#
# 1 0.022646 0.001771 -0.000790 0.000000 0.000000 0.000000
# 2 0.001771 0.008026 -0.001605 0.000000 0.000000 0.000000
# 3 -0.000790 -0.001605 0.006320 0.000000 0.000000 0.000000
# 4 0.000000 0.000000 0.000000 0.041650 0.000000 0.000000
# 5 0.000000 0.000000 0.000000 0.000000 0.055200 0.000000
# 6 0.000000 0.000000 0.000000 0.000000 0.000000 0.134587
#
#
# Mechanical properties :
#
#
# Convention : Reuss Voigt Hill
#
# Bulk Modulus (GPa) = 27.97554 44.26569 36.12061
# Shear Modulus (GPa) = 17.75619 31.14093 24.44856
#
# Velocity S-wave (km/s) = 2.71306 3.59295 3.18355
# Velocity P-wave (km/s) = 4.62724 5.96342 5.33731
#
# Compressibility (1/GPa) = 0.03574551
#
# Stress axis : x y z
#
# Youngs Moduli (GPa) = 44.15763 124.59151 158.22820
#
# Poissons Ratio (x) = -0.22068 0.12497
# Poissons Ratio (y) = -0.07821 0.25394
# Poissons Ratio (z) = 0.03488 0.19995
#
# Static dielectric constant tensor:
#      x y z
#    x 1.978150 0.000000 0.000000 
#    y 0.000000 1.923920 0.000000 
#    z 0.000000 0.000000 2.079250 
# 
# From -- ./inp_files/22665.got.cif
#   From: 2010.05.17/outbox.cif.g08.bks.cpg/sg69_12_cif.got.tgz:22665.got - 2010.06.03 19:29:58.
