data_PCOD9511044
_publ_section_title
;
Structure prediction by ZEFSAII (Michael W. Deem and Ramdas Pophale) SiO2 
 PCOD9511044
Probable space group: F M M M
;
_chemical_formula_sum "Si O2"
_cell_formula_units_Z 208
_cell_length_a 19.124523
_cell_length_b 23.475090
_cell_length_c 21.118046
_cell_angle_alpha 90.000000
_cell_angle_beta 90.000000
_cell_angle_gamma 90.000000
_cell_volume 9480.944611
_symmetry_space_group_name_H-M "F M M M"
_symmetry_group_IT_number 69
_symmetry_cell_setting 'orthorhombic'
loop_
_space_group_symop_operation_xyz
x,y,z
-x,-y,z
x,-y,-z
-x,y,-z
-x,-y,-z
x,y,-z
-x,y,z
x,-y,z
x,1/2+y,1/2+z
-x,1/2-y,1/2+z
x,1/2-y,1/2-z
-x,1/2+y,1/2-z
-x,1/2-y,1/2-z
x,1/2+y,1/2-z
-x,1/2+y,1/2+z
x,1/2-y,1/2+z
1/2+x,y,1/2+z
1/2-x,-y,1/2+z
1/2+x,-y,1/2-z
1/2-x,y,1/2-z
1/2-x,-y,1/2-z
1/2+x,y,1/2-z
1/2-x,y,1/2+z
1/2+x,-y,1/2+z
1/2+x,1/2+y,z
1/2-x,1/2-y,z
1/2+x,1/2-y,-z
1/2-x,1/2+y,-z
1/2-x,1/2-y,-z
1/2+x,1/2+y,-z
1/2-x,1/2+y,z
1/2+x,1/2-y,z
loop_
_atom_site_type_symbol
_atom_site_label
_atom_site_fract_x
_atom_site_fract_y
_atom_site_fract_z
Si Si1 0.685752 0.596182 0.077187
Si Si2 0.915033 0.062961 0.255004
Si Si3 0.841524 0.937034 0.607585
Si Si4 0.921245 0.826410 0.403884
Si Si5 0.319830 0.223725 0.574250
Si Si6 0.420698 0.313438 0.747386
Si Si7 0.078268 0.000000 0.922928
O O1 0.758946 0.575597 0.106358
O O2 0.668548 0.660314 0.097563
O O3 0.622496 0.555167 0.094307
O O4 0.694109 0.592902 0.000000
O O5 0.874333 0.060714 0.322049
O O6 0.894348 0.125134 0.226723
O O7 0.000000 0.065965 0.264469
O O8 0.901447 0.000000 0.225266
O O9 0.878675 0.882517 0.576053
O O10 0.853459 0.000000 0.579258
O O11 0.881588 0.768665 0.420952
O O12 0.924092 0.825249 0.327620
O O13 0.000000 0.827979 0.427513
O O14 0.305724 0.215697 0.500000
O O15 0.250000 0.250000 0.604480
O O16 0.500000 0.306160 0.773617
O O17 0.386486 0.250000 0.750000
O O18 0.000000 0.000000 0.897504
O O19 0.073997 0.000000 0.000000
#
# Coordination Sequence:
#
# PCOD9511044 Si02
#       7
#    32  32  32  32  32  32  16
#     4  10  19  31  49  70  90 123 169 212 256 303
#     4   8  14  24  40  67 101 133 166 202 240 293
#     4  10  17  27  46  71 100 132 163 200 244 301
#     4  10  20  32  49  76 105 134 169 210 255 302
#     4  10  20  34  50  68  95 133 173 212 254 302
#     4   8  14  26  45  70 100 132 166 204 248 297
#     4   9  18  32  48  68  91 113 154 219 266 292
#
# _framework density 21.938742999999999
#
# number of rings (size 3 to 8) (size 9 to 14) (size 15 to 20)
#    0.000    2.692    2.308    1.385    0.000    1.846 
#    0.000    1.538    0.000    1.846    2.000    6.462 
#    0.000    4.000    0.000    0.000    0.000    2.462 
#
# Total GULP energy -289790.357902 kJ/mol
# GULP energy per Si atom -5572.891498 kJ/mol
# Density = 2.188881 g / cm^3
# Si number density = 21.938743 Si / 1000 Ang^3
#
#
#
# Elastic Constant Matrix: (Units=GPa)
#
#
# Indices 1 2 3 4 5 6 
#
# 1 137.7807 85.8020 10.3162 0.0000 0.0000 0.0000
# 2 85.8020 273.6554 22.8239 0.0000 0.0000 0.0000
# 3 10.3162 22.8239 56.2276 0.0000 0.0000 0.0000
# 4 0.0000 0.0000 0.0000 -21.0659 0.0000 0.0000
# 5 0.0000 0.0000 0.0000 0.0000 10.6821 0.0000
# 6 0.0000 0.0000 0.0000 0.0000 0.0000 21.6980
#
#
#
# Elastic Compliance Matrix: (Units=1/GPa)
#
#
# Indices 1 2 3 4 5 6 
#
# 1 0.009034 -0.002789 -0.000525 0.000000 0.000000 0.000000
# 2 -0.002789 0.004643 -0.001373 0.000000 0.000000 0.000000
# 3 -0.000525 -0.001373 0.018439 0.000000 0.000000 0.000000
# 4 0.000000 0.000000 0.000000 -0.047470 0.000000 0.000000
# 5 0.000000 0.000000 0.000000 0.000000 0.093615 0.000000
# 6 0.000000 0.000000 0.000000 0.000000 0.000000 0.046087
#
#
# Mechanical properties :
#
#
# Convention : Reuss Voigt Hill
#
# Bulk Modulus (GPa) = 43.97313 78.39418 61.18365
# Shear Modulus (GPa) = 35.38510 25.51094 30.44802
#
# Velocity S-wave (km/s) = 4.02046 3.41372 3.72945
# Velocity P-wave (km/s) = 6.45284 7.16581 6.81865
#
# Compressibility (1/GPa) = 0.02274116
#
# Stress axis : x y z
#
# Youngs Moduli (GPa) = 110.69449 215.37305 54.23392
#
# Poissons Ratio (x) = 0.60060 0.02850
# Poissons Ratio (y) = 0.30869 0.07447
# Poissons Ratio (z) = 0.05817 0.29573
#
# Static dielectric constant tensor:
#      x y z
#    x 1.752550 0.000000 0.000000 
#    y 0.000000 1.962410 0.000000 
#    z 0.000000 0.000000 1.900680 
# 
# From -- ./inp_files/42102.got.cif
#   From: 2010.05.17/outbox.cif.g08.bks.cpg/sg69_22_cif.got.tgz:42102.got - 2010.06.03 19:29:58.
