data_PCOD9511265
_publ_section_title
;
Structure prediction by ZEFSAII (Michael W. Deem and Ramdas Pophale) SiO2 
 PCOD9511265
Probable space group: F M M M
;
_chemical_formula_sum "Si O2"
_cell_formula_units_Z 176
_cell_length_a 28.590788
_cell_length_b 18.808216
_cell_length_c 16.044998
_cell_angle_alpha 90.000000
_cell_angle_beta 90.000000
_cell_angle_gamma 90.000000
_cell_volume 8628.064763
_symmetry_space_group_name_H-M "F M M M"
_symmetry_group_IT_number 69
_symmetry_cell_setting 'orthorhombic'
loop_
_space_group_symop_operation_xyz
x,y,z
-x,-y,z
x,-y,-z
-x,y,-z
-x,-y,-z
x,y,-z
-x,y,z
x,-y,z
x,1/2+y,1/2+z
-x,1/2-y,1/2+z
x,1/2-y,1/2-z
-x,1/2+y,1/2-z
-x,1/2-y,1/2-z
x,1/2+y,1/2-z
-x,1/2+y,1/2+z
x,1/2-y,1/2+z
1/2+x,y,1/2+z
1/2-x,-y,1/2+z
1/2+x,-y,1/2-z
1/2-x,y,1/2-z
1/2-x,-y,1/2-z
1/2+x,y,1/2-z
1/2-x,y,1/2+z
1/2+x,-y,1/2+z
1/2+x,1/2+y,z
1/2-x,1/2-y,z
1/2+x,1/2-y,-z
1/2-x,1/2+y,-z
1/2-x,1/2-y,-z
1/2+x,1/2+y,-z
1/2-x,1/2+y,z
1/2+x,1/2-y,z
loop_
_atom_site_type_symbol
_atom_site_label
_atom_site_fract_x
_atom_site_fract_y
_atom_site_fract_z
Si Si1 0.382961 0.696000 0.596936
Si Si2 0.944305 0.080613 0.000000
Si Si3 0.444165 0.415612 0.325162
Si Si4 0.807270 0.416392 0.600244
Si Si5 0.900142 0.847180 0.839805
Si Si6 0.776772 0.821405 0.398834
O O1 0.379990 0.718884 0.500000
O O2 0.416750 0.628696 0.605027
O O3 0.401312 0.762403 0.650349
O O4 0.330611 0.677053 0.627516
O O5 0.926717 0.120055 0.918716
O O6 0.000000 0.078080 0.000000
O O7 0.925515 0.000000 0.000000
O O8 0.500000 0.405741 0.330054
O O9 0.434709 0.500000 0.327327
O O10 0.423909 0.380791 0.240842
O O11 0.813629 0.403662 0.500000
O O12 0.812129 0.500000 0.615000
O O13 0.846687 0.372800 0.648900
O O14 0.756110 0.387368 0.623844
O O15 0.778003 0.819463 0.500000
O O16 0.750000 0.750000 0.371070
#
# Coordination Sequence:
#
# PCOD9511265 Si02
#       6
#    32  16  32  32  32  32
#     4  11  23  42  69  98 126 166 217 269 320 377
#     4  11  22  34  56  91 129 163 201 256 319 388
#     4  11  27  48  66  88 127 176 220 268 324 378
#     4  10  18  30  56  93 129 167 207 252 312 381
#     4  12  21  39  64  95 129 164 209 263 323 391
#     4   9  17  33  58  89 127 163 203 254 310 374
#
# _framework density 20.398548000000002
#
# number of rings (size 3 to 8) (size 9 to 14) (size 15 to 20)
#    0.000    1.364    3.636    2.727    0.000    5.091 
#    0.000    3.636    0.000    2.182    0.000    0.000 
#    0.000    0.000    0.000    0.000    0.000    0.000 
#
# Total GULP energy -245951.360451 kJ/mol
# GULP energy per Si atom -5589.803647 kJ/mol
# Density = 2.035212 g / cm^3
# Si number density = 20.398548 Si / 1000 Ang^3
#
#
#
# Elastic Constant Matrix: (Units=GPa)
#
#
# Indices 1 2 3 4 5 6 
#
# 1 115.6225 71.7769 10.8628 0.0000 0.0000 0.0000
# 2 71.7769 124.6512 15.4262 0.0000 0.0000 0.0000
# 3 10.8628 15.4262 36.4941 0.0000 0.0000 0.0000
# 4 0.0000 0.0000 0.0000 25.0814 0.0000 0.0000
# 5 0.0000 0.0000 0.0000 0.0000 1.7192 0.0000
# 6 0.0000 0.0000 0.0000 0.0000 0.0000 38.2071
#
#
#
# Elastic Compliance Matrix: (Units=1/GPa)
#
#
# Indices 1 2 3 4 5 6 
#
# 1 0.013481 -0.007667 -0.000772 0.000000 0.000000 0.000000
# 2 -0.007667 0.012826 -0.003139 0.000000 0.000000 0.000000
# 3 -0.000772 -0.003139 0.028958 0.000000 0.000000 0.000000
# 4 0.000000 0.000000 0.000000 0.039870 0.000000 0.000000
# 5 0.000000 0.000000 0.000000 0.000000 0.581669 0.000000
# 6 0.000000 0.000000 0.000000 0.000000 0.000000 0.026173
#
#
# Mechanical properties :
#
#
# Convention : Reuss Voigt Hill
#
# Bulk Modulus (GPa) = 31.14421 52.54440 41.84431
# Shear Modulus (GPa) = 6.78576 24.91499 15.85038
#
# Velocity S-wave (km/s) = 1.82587 3.49866 2.79056
# Velocity P-wave (km/s) = 4.44366 6.49120 5.56245
#
# Compressibility (1/GPa) = 0.03210869
#
# Stress axis : x y z
#
# Youngs Moduli (GPa) = 74.17840 77.96779 34.53224
#
# Poissons Ratio (x) = 0.59779 0.02665
# Poissons Ratio (y) = 0.56874 0.10841
# Poissons Ratio (z) = 0.05725 0.24477
#
# Static dielectric constant tensor:
#      x y z
#    x 1.713050 0.000000 0.000000 
#    y 0.000000 1.720980 0.000000 
#    z 0.000000 0.000000 1.756380 
# 
# From -- ./inp_files/27687.got.cif
#   From: 2010.05.17/outbox.cif.g08.bks.cpg/sg69_14_cif.got.tgz:27687.got - 2010.06.03 19:29:58.
