data_PCOD9511358
_publ_section_title
;
Structure prediction by ZEFSAII (Michael W. Deem and Ramdas Pophale) SiO2 
 PCOD9511358
Probable space group: F M M M
;
_chemical_formula_sum "Si O2"
_cell_formula_units_Z 112
_cell_length_a 14.480392
_cell_length_b 26.785685
_cell_length_c 15.141637
_cell_angle_alpha 90.000000
_cell_angle_beta 90.000000
_cell_angle_gamma 90.000000
_cell_volume 5872.944631
_symmetry_space_group_name_H-M "F M M M"
_symmetry_group_IT_number 69
_symmetry_cell_setting 'orthorhombic'
loop_
_space_group_symop_operation_xyz
x,y,z
-x,-y,z
x,-y,-z
-x,y,-z
-x,-y,-z
x,y,-z
-x,y,z
x,-y,z
x,1/2+y,1/2+z
-x,1/2-y,1/2+z
x,1/2-y,1/2-z
-x,1/2+y,1/2-z
-x,1/2-y,1/2-z
x,1/2+y,1/2-z
-x,1/2+y,1/2+z
x,1/2-y,1/2+z
1/2+x,y,1/2+z
1/2-x,-y,1/2+z
1/2+x,-y,1/2-z
1/2-x,y,1/2-z
1/2-x,-y,1/2-z
1/2+x,y,1/2-z
1/2-x,y,1/2+z
1/2+x,-y,1/2+z
1/2+x,1/2+y,z
1/2-x,1/2-y,z
1/2+x,1/2-y,-z
1/2-x,1/2+y,-z
1/2-x,1/2-y,-z
1/2+x,1/2+y,-z
1/2-x,1/2+y,z
1/2+x,1/2-y,z
loop_
_atom_site_type_symbol
_atom_site_label
_atom_site_fract_x
_atom_site_fract_y
_atom_site_fract_z
Si Si1 0.389831 0.500000 0.392005
Si Si2 0.206825 0.301926 0.652695
Si Si3 0.000000 0.280611 0.392646
Si Si4 0.676921 0.106186 0.104808
Si Si5 0.000000 0.665083 0.892355
O O1 0.500000 0.500000 0.367446
O O2 0.390526 0.500000 0.500000
O O3 0.335752 0.549794 0.361214
O O4 0.250000 0.301255 0.750000
O O5 0.250000 0.250000 0.610533
O O6 0.096719 0.300160 0.644845
O O7 0.238875 0.355789 0.616699
O O8 0.000000 0.222310 0.368722
O O9 0.000000 0.285919 0.500000
O O10 0.589906 0.137120 0.140595
O O11 0.665206 0.101421 0.000000
O O12 0.000000 0.663314 0.000000
#
# Coordination Sequence:
#
# PCOD9511358 Si02
#       5
#    16  32  16  32  16
#     4   9  16  28  51  83 111 137 183 242 291 328
#     4  11  24  37  54  83 118 153 190 235 287 343
#     4  11  22  38  59  84 116 156 196 232 279 346
#     4  10  18  32  53  81 112 147 188 236 287 340
#     4   9  16  26  51  81 108 139 182 229 270 330
#
# _framework density 19.070502000000001
#
# number of rings (size 3 to 8) (size 9 to 14) (size 15 to 20)
#    0.000    1.857    4.286    0.857    0.000    4.571 
#    0.000    0.714    0.000    0.857    0.000    4.000 
#    0.000    0.000    0.000    0.000    0.000    0.000 
#
# Total GULP energy -155925.039103 kJ/mol
# GULP energy per Si atom -5568.751397 kJ/mol
# Density = 1.902710 g / cm^3
# Si number density = 19.070502 Si / 1000 Ang^3
#
#
#
# Elastic Constant Matrix: (Units=GPa)
#
#
# Indices 1 2 3 4 5 6 
#
# 1 174.2534 95.0365 20.1280 0.0000 0.0000 0.0000
# 2 95.0365 199.6711 15.6119 0.0000 0.0000 0.0000
# 3 20.1280 15.6119 34.8492 0.0000 0.0000 0.0000
# 4 0.0000 0.0000 0.0000 -10.0204 0.0000 0.0000
# 5 0.0000 0.0000 0.0000 0.0000 -13.2997 0.0000
# 6 0.0000 0.0000 0.0000 0.0000 0.0000 27.7291
#
#
#
# Elastic Compliance Matrix: (Units=1/GPa)
#
#
# Indices 1 2 3 4 5 6 
#
# 1 0.008050 -0.003594 -0.003039 0.000000 0.000000 0.000000
# 2 -0.003594 0.006794 -0.000968 0.000000 0.000000 0.000000
# 3 -0.003039 -0.000968 0.030884 0.000000 0.000000 0.000000
# 4 0.000000 0.000000 0.000000 -0.099796 0.000000 0.000000
# 5 0.000000 0.000000 0.000000 0.000000 -0.075190 0.000000
# 6 0.000000 0.000000 0.000000 0.000000 0.000000 0.036063
#
#
# Mechanical properties :
#
#
# Convention : Reuss Voigt Hill
#
# Bulk Modulus (GPa) = 32.75912 74.48072 53.61992
# Shear Modulus (GPa) = -73.72883 19.41496 -27.15693
#
# Velocity S-wave (km/s) = -6.22456 3.19417 -3.77772
# Velocity P-wave (km/s) = 5.86898 7.26250 3.02481
#
# Compressibility (1/GPa) = 0.03052585
#
# Stress axis : x y z
#
# Youngs Moduli (GPa) = 124.22513 147.17857 32.37901
#
# Poissons Ratio (x) = 0.52893 0.09841
# Poissons Ratio (y) = 0.44644 0.03135
# Poissons Ratio (z) = 0.37757 0.14249
#
# Static dielectric constant tensor:
#      x y z
#    x 1.693940 0.000000 0.000000 
#    y 0.000000 1.724250 0.000000 
#    z 0.000000 0.000000 1.734830 
# 
# From -- ./inp_files/8519.got.cif
#   From: 2010.05.17/outbox.cif.g08.bks.cpg/sg69_5_cif.got.tgz:8519.got - 2010.06.03 19:29:58.
