data_PCOD9511891
_publ_section_title
;
Structure prediction by ZEFSAII (Michael W. Deem and Ramdas Pophale) SiO2 
 PCOD9511891
Probable space group: F M M M
;
_chemical_formula_sum "Si O2"
_cell_formula_units_Z 160
_cell_length_a 20.243026
_cell_length_b 21.681750
_cell_length_c 22.021105
_cell_angle_alpha 90.000000
_cell_angle_beta 90.000000
_cell_angle_gamma 90.000000
_cell_volume 9665.156111
_symmetry_space_group_name_H-M "F M M M"
_symmetry_group_IT_number 69
_symmetry_cell_setting 'orthorhombic'
loop_
_space_group_symop_operation_xyz
x,y,z
-x,-y,z
x,-y,-z
-x,y,-z
-x,-y,-z
x,y,-z
-x,y,z
x,-y,z
x,1/2+y,1/2+z
-x,1/2-y,1/2+z
x,1/2-y,1/2-z
-x,1/2+y,1/2-z
-x,1/2-y,1/2-z
x,1/2+y,1/2-z
-x,1/2+y,1/2+z
x,1/2-y,1/2+z
1/2+x,y,1/2+z
1/2-x,-y,1/2+z
1/2+x,-y,1/2-z
1/2-x,y,1/2-z
1/2-x,-y,1/2-z
1/2+x,y,1/2-z
1/2-x,y,1/2+z
1/2+x,-y,1/2+z
1/2+x,1/2+y,z
1/2-x,1/2-y,z
1/2+x,1/2-y,-z
1/2-x,1/2+y,-z
1/2-x,1/2-y,-z
1/2+x,1/2+y,-z
1/2-x,1/2+y,z
1/2+x,1/2-y,z
loop_
_atom_site_type_symbol
_atom_site_label
_atom_site_fract_x
_atom_site_fract_y
_atom_site_fract_z
Si Si1 0.750000 0.750000 0.147496
Si Si2 0.118992 0.070747 0.733780
Si Si3 0.627799 0.200073 0.069599
Si Si4 0.000000 0.268108 0.148750
Si Si5 0.922093 0.069451 0.406726
Si Si6 0.000000 0.351189 0.271042
Si Si7 0.250000 0.149925 0.750000
O O1 0.690734 0.774278 0.105612
O O2 0.768112 0.805858 0.193305
O O3 0.089210 0.069728 0.665756
O O4 0.187159 0.108075 0.734063
O O5 0.064861 0.106721 0.773082
O O6 0.128527 0.000000 0.753098
O O7 0.563970 0.220816 0.107781
O O8 0.621674 0.125476 0.069136
O O9 0.626765 0.221644 0.000000
O O10 0.000000 0.314939 0.206170
O O11 0.000000 0.200580 0.177753
O O12 0.000000 0.080670 0.419688
O O13 0.906173 0.000000 0.427924
#
# Coordination Sequence:
#
# PCOD9511891 Si02
#       7
#    16  32  32  16  32  16  16
#     4  11  23  38  52  78 107 145 182 218 282 315
#     4  11  19  32  53  81 109 136 171 216 272 324
#     4  12  22  37  54  76 109 144 187 225 262 321
#     4  11  21  34  54  80 103 140 180 210 269 312
#     4  10  19  34  55  80 111 140 177 222 272 327
#     4  11  19  34  56  77 110 137 167 218 261 330
#     4  11  21  36  56  76 109 137 178 226 266 335
#
# _framework density 16.554310999999998
#
# number of rings (size 3 to 8) (size 9 to 14) (size 15 to 20)
#    0.000    1.000    6.000    2.400    0.000    3.600 
#    0.000    1.000    0.000    0.000    0.000    0.000 
#    0.000   30.400    0.000    0.000    0.000    0.000 
#
# Total GULP energy -223335.744398 kJ/mol
# GULP energy per Si atom -5583.393610 kJ/mol
# Density = 1.651663 g / cm^3
# Si number density = 16.554311 Si / 1000 Ang^3
#
#
#
# Elastic Constant Matrix: (Units=GPa)
#
#
# Indices 1 2 3 4 5 6 
#
# 1 103.4168 58.2057 31.9903 0.0000 0.0000 0.0000
# 2 58.2057 137.1409 45.3031 0.0000 0.0000 0.0000
# 3 31.9903 45.3031 93.5950 0.0000 0.0000 0.0000
# 4 0.0000 0.0000 0.0000 3.3590 0.0000 0.0000
# 5 0.0000 0.0000 0.0000 0.0000 -15.9130 0.0000
# 6 0.0000 0.0000 0.0000 0.0000 0.0000 25.1533
#
#
#
# Elastic Compliance Matrix: (Units=1/GPa)
#
#
# Indices 1 2 3 4 5 6 
#
# 1 0.013048 -0.004838 -0.002118 0.000000 0.000000 0.000000
# 2 -0.004838 0.010474 -0.003416 0.000000 0.000000 0.000000
# 3 -0.002118 -0.003416 0.013062 0.000000 0.000000 0.000000
# 4 0.000000 0.000000 0.000000 0.297707 0.000000 0.000000
# 5 0.000000 0.000000 0.000000 0.000000 -0.062842 0.000000
# 6 0.000000 0.000000 0.000000 0.000000 0.000000 0.039756
#
#
# Mechanical properties :
#
#
# Convention : Reuss Voigt Hill
#
# Bulk Modulus (GPa) = 63.13461 67.23898 65.18680
# Shear Modulus (GPa) = 14.82677 15.76343 15.29510
#
# Velocity S-wave (km/s) = 2.99598 3.08916 3.04293
# Velocity P-wave (km/s) = 7.08438 7.30953 7.19784
#
# Compressibility (1/GPa) = 0.01583917
#
# Stress axis : x y z
#
# Youngs Moduli (GPa) = 76.64140 95.47808 76.56021
#
# Poissons Ratio (x) = 0.46194 0.16214
# Poissons Ratio (y) = 0.37080 0.26152
# Poissons Ratio (z) = 0.16231 0.32614
#
# Static dielectric constant tensor:
#      x y z
#    x 1.534450 0.000000 0.000000 
#    y 0.000000 1.576630 0.000000 
#    z 0.000000 0.000000 1.553440 
# 
# From -- ./inp_files/31052.got.cif
#   From: 2010.05.17/outbox.cif.g08.bks.cpg/sg69_16_cif.got.tgz:31052.got - 2010.06.03 19:29:58.
