data_PCOD9511621
_publ_section_title
;
Structure prediction by ZEFSAII (Michael W. Deem and Ramdas Pophale) SiO2 
 PCOD9511621
Probable space group: F M M M
;
_chemical_formula_sum "Si O2"
_cell_formula_units_Z 160
_cell_length_a 22.039478
_cell_length_b 14.856093
_cell_length_c 23.945699
_cell_angle_alpha 90.000000
_cell_angle_beta 90.000000
_cell_angle_gamma 90.000000
_cell_volume 7840.313574
_symmetry_space_group_name_H-M "F M M M"
_symmetry_group_IT_number 69
_symmetry_cell_setting 'orthorhombic'
loop_
_space_group_symop_operation_xyz
x,y,z
-x,-y,z
x,-y,-z
-x,y,-z
-x,-y,-z
x,y,-z
-x,y,z
x,-y,z
x,1/2+y,1/2+z
-x,1/2-y,1/2+z
x,1/2-y,1/2-z
-x,1/2+y,1/2-z
-x,1/2-y,1/2-z
x,1/2+y,1/2-z
-x,1/2+y,1/2+z
x,1/2-y,1/2+z
1/2+x,y,1/2+z
1/2-x,-y,1/2+z
1/2+x,-y,1/2-z
1/2-x,y,1/2-z
1/2-x,-y,1/2-z
1/2+x,y,1/2-z
1/2-x,y,1/2+z
1/2+x,-y,1/2+z
1/2+x,1/2+y,z
1/2-x,1/2-y,z
1/2+x,1/2-y,-z
1/2-x,1/2+y,-z
1/2-x,1/2-y,-z
1/2+x,1/2+y,-z
1/2-x,1/2+y,z
1/2+x,1/2-y,z
loop_
_atom_site_type_symbol
_atom_site_label
_atom_site_fract_x
_atom_site_fract_y
_atom_site_fract_z
Si Si1 0.434469 0.605507 0.324766
Si Si2 0.859509 0.901539 0.934033
Si Si3 0.102249 0.293363 0.063659
Si Si4 0.193242 0.153992 0.280456
Si Si5 0.781133 0.393056 0.094761
O O1 0.500000 0.631010 0.299899
O O2 0.434731 0.500000 0.336749
O O3 0.427687 0.654214 0.384775
O O4 0.375976 0.620762 0.285450
O O5 0.892366 0.810335 0.916303
O O6 0.787494 0.888179 0.926030
O O7 0.875561 0.000000 0.909257
O O8 0.870867 0.906330 0.000000
O O9 0.169237 0.338170 0.060416
O O10 0.076917 0.297707 0.000000
O O11 0.189180 0.250000 0.250000
O O12 0.250000 0.105222 0.250000
O O13 0.214397 0.151431 0.344410
O O14 0.797000 0.500000 0.097575
#
# Coordination Sequence:
#
# PCOD9511621 Si02
#       5
#    32  32  32  32  32
#     4  10  23  42  62  86 120 158 196 242 299 361
#     4   9  18  31  50  80 118 157 193 236 293 353
#     4  10  19  31  55  84 116 157 197 236 285 349
#     4  10  22  35  58  86 111 150 197 249 296 350
#     4  10  20  32  50  80 119 154 191 242 301 356
#
# _framework density 20.407347999999999
#
# number of rings (size 3 to 8) (size 9 to 14) (size 15 to 20)
#    0.000    2.200    0.000    3.600   11.200    6.400 
#    0.000    1.000    0.000    0.600    0.000    2.800 
#    0.000    0.000    0.000    0.000    0.000    0.000 
#
# Total GULP energy -222711.804621 kJ/mol
# GULP energy per Si atom -5567.795116 kJ/mol
# Density = 2.036090 g / cm^3
# Si number density = 20.407348 Si / 1000 Ang^3
#
#
#
# Elastic Constant Matrix: (Units=GPa)
#
#
# Indices 1 2 3 4 5 6 
#
# 1 120.6250 35.4964 32.0170 0.0000 0.0000 0.0000
# 2 35.4964 143.7405 28.8486 0.0000 0.0000 0.0000
# 3 32.0170 28.8486 58.5273 0.0000 0.0000 0.0000
# 4 0.0000 0.0000 0.0000 29.7301 0.0000 0.0000
# 5 0.0000 0.0000 0.0000 0.0000 -5.4285 0.0000
# 6 0.0000 0.0000 0.0000 0.0000 0.0000 21.2352
#
#
#
# Elastic Compliance Matrix: (Units=1/GPa)
#
#
# Indices 1 2 3 4 5 6 
#
# 1 0.009989 -0.001520 -0.004715 0.000000 0.000000 0.000000
# 2 -0.001520 0.007952 -0.003088 0.000000 0.000000 0.000000
# 3 -0.004715 -0.003088 0.021187 0.000000 0.000000 0.000000
# 4 0.000000 0.000000 0.000000 0.033636 0.000000 0.000000
# 5 0.000000 0.000000 0.000000 0.000000 -0.184215 0.000000
# 6 0.000000 0.000000 0.000000 0.000000 0.000000 0.047092
#
#
# Mechanical properties :
#
#
# Convention : Reuss Voigt Hill
#
# Bulk Modulus (GPa) = 48.82368 57.29076 53.05722
# Shear Modulus (GPa) = -128.58742 24.20942 -52.18900
#
# Velocity S-wave (km/s) = -7.94652 3.44802 -5.06252
# Velocity P-wave (km/s) = 7.76013 6.63222 2.84898
#
# Compressibility (1/GPa) = 0.02048187
#
# Stress axis : x y z
#
# Youngs Moduli (GPa) = 100.10938 125.75122 47.19777
#
# Poissons Ratio (x) = 0.19120 0.22254
# Poissons Ratio (y) = 0.15221 0.14574
# Poissons Ratio (z) = 0.47202 0.38831
#
# Static dielectric constant tensor:
#      x y z
#    x 1.785420 0.000000 0.000000 
#    y 0.000000 1.773390 0.000000 
#    z 0.000000 0.000000 1.736580 
# 
# From -- ./inp_files/37767.got.cif
#   From: 2010.05.17/outbox.cif.g08.bks.cpg/sg69_19_cif.got.tgz:37767.got - 2010.06.03 19:29:58.
