data_PCOD9511461
_publ_section_title
;
Structure prediction by ZEFSAII (Michael W. Deem and Ramdas Pophale) SiO2 
 PCOD9511461
Probable space group: F M M M
;
_chemical_formula_sum "Si O2"
_cell_formula_units_Z 192
_cell_length_a 34.032714
_cell_length_b 11.623820
_cell_length_c 24.913467
_cell_angle_alpha 90.000000
_cell_angle_beta 90.000000
_cell_angle_gamma 90.000000
_cell_volume 9855.521939
_symmetry_space_group_name_H-M "F M M M"
_symmetry_group_IT_number 69
_symmetry_cell_setting 'orthorhombic'
loop_
_space_group_symop_operation_xyz
x,y,z
-x,-y,z
x,-y,-z
-x,y,-z
-x,-y,-z
x,y,-z
-x,y,z
x,-y,z
x,1/2+y,1/2+z
-x,1/2-y,1/2+z
x,1/2-y,1/2-z
-x,1/2+y,1/2-z
-x,1/2-y,1/2-z
x,1/2+y,1/2-z
-x,1/2+y,1/2+z
x,1/2-y,1/2+z
1/2+x,y,1/2+z
1/2-x,-y,1/2+z
1/2+x,-y,1/2-z
1/2-x,y,1/2-z
1/2-x,-y,1/2-z
1/2+x,y,1/2-z
1/2-x,y,1/2+z
1/2+x,-y,1/2+z
1/2+x,1/2+y,z
1/2-x,1/2-y,z
1/2+x,1/2-y,-z
1/2-x,1/2+y,-z
1/2-x,1/2-y,-z
1/2+x,1/2+y,-z
1/2-x,1/2+y,z
1/2+x,1/2-y,z
loop_
_atom_site_type_symbol
_atom_site_label
_atom_site_fract_x
_atom_site_fract_y
_atom_site_fract_z
Si Si1 0.170745 0.736014 0.813897
Si Si2 0.929436 0.500000 0.935665
Si Si3 0.952840 0.124199 0.229542
Si Si4 0.897332 0.625671 0.629442
Si Si5 0.457768 0.247285 0.063672
Si Si6 0.849744 0.500000 0.132445
Si Si7 0.250000 0.750000 0.882926
Si Si8 0.730469 0.000000 0.064734
O O1 0.174368 0.750000 0.750000
O O2 0.139485 0.823227 0.839460
O O3 0.154472 0.610971 0.830023
O O4 0.211839 0.751925 0.844715
O O5 0.954204 0.386898 0.923268
O O6 0.889749 0.500000 0.901232
O O7 0.920795 0.500000 0.000000
O O8 0.939637 0.250000 0.250000
O O9 0.932717 0.118237 0.172024
O O10 0.000000 0.127124 0.227513
O O11 0.942158 0.000000 0.257044
O O12 0.887313 0.500000 0.608662
O O13 0.917044 0.700338 0.583582
O O14 0.500000 0.292347 0.085023
O O15 0.458958 0.261156 0.000000
O O16 0.813233 0.500000 0.090640
O O17 0.248247 0.625638 0.915113
O O18 0.730263 0.000000 0.000000
#
# Coordination Sequence:
#
# PCOD9511461 Si02
#       8
#    32  16  32  32  32  16  16  16
#     4  11  24  42  65  92 126 165 212 263 313 371
#     4  10  18  36  61  90 123 154 200 261 313 367
#     4   9  18  35  55  79 112 152 196 245 302 360
#     4  11  23  38  58  84 119 158 203 252 307 370
#     4  10  21  38  61  88 120 160 205 257 317 376
#     4  10  21  40  64  95 124 166 208 252 316 377
#     4  10  24  42  68  98 132 168 216 258 318 380
#     4  10  21  41  68 100 134 169 206 255 317 384
#
# _framework density 19.481463999999999
#
# number of rings (size 3 to 8) (size 9 to 14) (size 15 to 20)
#    0.000    1.833    1.667    2.000    2.333    2.333 
#    3.000    4.167    0.000    0.000    0.000    0.000 
#    0.000    0.000    0.000    0.000    0.000    0.000 
#
# Total GULP energy -267415.629111 kJ/mol
# GULP energy per Si atom -5571.158940 kJ/mol
# Density = 1.943712 g / cm^3
# Si number density = 19.481464 Si / 1000 Ang^3
#
#
#
# Elastic Constant Matrix: (Units=GPa)
#
#
# Indices 1 2 3 4 5 6 
#
# 1 69.5124 32.0963 50.9701 0.0000 0.0000 0.0000
# 2 32.0963 132.6149 48.9548 0.0000 0.0000 0.0000
# 3 50.9701 48.9548 70.4239 0.0000 0.0000 0.0000
# 4 0.0000 0.0000 0.0000 18.1430 0.0000 0.0000
# 5 0.0000 0.0000 0.0000 0.0000 16.8080 0.0000
# 6 0.0000 0.0000 0.0000 0.0000 0.0000 12.6799
#
#
#
# Elastic Compliance Matrix: (Units=1/GPa)
#
#
# Indices 1 2 3 4 5 6 
#
# 1 0.030760 0.001041 -0.022987 0.000000 0.000000 0.000000
# 2 0.001041 0.010179 -0.007829 0.000000 0.000000 0.000000
# 3 -0.022987 -0.007829 0.036279 0.000000 0.000000 0.000000
# 4 0.000000 0.000000 0.000000 0.055118 0.000000 0.000000
# 5 0.000000 0.000000 0.000000 0.000000 0.059495 0.000000
# 6 0.000000 0.000000 0.000000 0.000000 0.000000 0.078865
#
#
# Mechanical properties :
#
#
# Convention : Reuss Voigt Hill
#
# Bulk Modulus (GPa) = 56.59875 59.62154 58.11015
# Shear Modulus (GPa) = 14.87497 18.89485 16.88491
#
# Velocity S-wave (km/s) = 2.76623 3.11768 2.94720
# Velocity P-wave (km/s) = 6.27044 6.60535 6.44007
#
# Compressibility (1/GPa) = 0.01766823
#
# Stress axis : x y z
#
# Youngs Moduli (GPa) = 32.50932 98.24315 27.56426
#
# Poissons Ratio (x) = -0.10224 0.63361
# Poissons Ratio (y) = -0.03383 0.21580
# Poissons Ratio (z) = 0.74728 0.76914
#
# Static dielectric constant tensor:
#      x y z
#    x 1.660290 0.000000 0.000000 
#    y 0.000000 1.767880 0.000000 
#    z 0.000000 0.000000 1.675480 
# 
# From -- ./inp_files/43954.got.cif
#   From: 2010.05.17/outbox.cif.g08.bks.cpg/sg69_22_cif.got.tgz:43954.got - 2010.06.03 19:29:58.
