data_PCOD9511122
_publ_section_title
;
Structure prediction by ZEFSAII (Michael W. Deem and Ramdas Pophale) SiO2 
 PCOD9511122
Probable space group: F M M M
;
_chemical_formula_sum "Si O2"
_cell_formula_units_Z 208
_cell_length_a 22.698007
_cell_length_b 32.301712
_cell_length_c 18.276488
_cell_angle_alpha 90.000000
_cell_angle_beta 90.000000
_cell_angle_gamma 90.000000
_cell_volume 13400.037443
_symmetry_space_group_name_H-M "F M M M"
_symmetry_group_IT_number 69
_symmetry_cell_setting 'orthorhombic'
loop_
_space_group_symop_operation_xyz
x,y,z
-x,-y,z
x,-y,-z
-x,y,-z
-x,-y,-z
x,y,-z
-x,y,z
x,-y,z
x,1/2+y,1/2+z
-x,1/2-y,1/2+z
x,1/2-y,1/2-z
-x,1/2+y,1/2-z
-x,1/2-y,1/2-z
x,1/2+y,1/2-z
-x,1/2+y,1/2+z
x,1/2-y,1/2+z
1/2+x,y,1/2+z
1/2-x,-y,1/2+z
1/2+x,-y,1/2-z
1/2-x,y,1/2-z
1/2-x,-y,1/2-z
1/2+x,y,1/2-z
1/2-x,y,1/2+z
1/2+x,-y,1/2+z
1/2+x,1/2+y,z
1/2-x,1/2-y,z
1/2+x,1/2-y,-z
1/2-x,1/2+y,-z
1/2-x,1/2-y,-z
1/2+x,1/2+y,-z
1/2-x,1/2+y,z
1/2+x,1/2-y,z
loop_
_atom_site_type_symbol
_atom_site_label
_atom_site_fract_x
_atom_site_fract_y
_atom_site_fract_z
Si Si1 0.568725 0.500000 0.912111
Si Si2 0.231161 0.093391 0.413355
Si Si3 0.183640 0.546944 0.216876
Si Si4 0.218943 0.687634 0.911190
Si Si5 0.931152 0.663342 0.588528
Si Si6 0.135591 0.917817 0.142621
Si Si7 0.341333 0.267979 0.088830
O O1 0.500000 0.500000 0.889130
O O2 0.601834 0.541242 0.885011
O O3 0.570133 0.500000 0.000000
O O4 0.222221 0.089430 0.500000
O O5 0.191728 0.062940 0.365049
O O6 0.215758 0.140195 0.388326
O O7 0.300091 0.085363 0.395541
O O8 0.161272 0.500000 0.220009
O O9 0.250000 0.546788 0.250000
O O10 0.146828 0.575887 0.271061
O O11 0.282557 0.706424 0.890728
O O12 0.169916 0.720807 0.886204
O O13 0.217812 0.687124 0.000000
O O14 0.925143 0.659756 0.500000
O O15 0.900222 0.623239 0.622749
O O16 0.897231 0.705170 0.611930
O O17 0.000000 0.664684 0.605918
O O18 0.342678 0.266583 0.000000
#
# Coordination Sequence:
#
# PCOD9511122 Si02
#       7
#    16  32  32  32  32  32  32
#     4  11  22  32  45  68  95 129 170 201 220 260
#     4  10  18  28  48  73  92 119 161 200 244 286
#     4   9  19  33  44  61  90 126 160 193 236 291
#     4   8  13  23  41  65  91 119 154 193 236 284
#     4  10  18  27  43  71 102 130 163 195 222 267
#     4  11  19  32  45  62  98 136 161 190 235 286
#     4   8  13  23  39  63  95 125 152 188 232 276
#
# _framework density 15.522345
#
# number of rings (size 3 to 8) (size 9 to 14) (size 15 to 20)
#    0.000    2.538    2.308    2.769    1.077    1.538 
#    0.000    0.000    0.000    0.923    0.000    3.231 
#    0.000    5.538    0.000    0.000    0.000    0.000 
#
# Total GULP energy -289548.184056 kJ/mol
# GULP energy per Si atom -5568.234309 kJ/mol
# Density = 1.548702 g / cm^3
# Si number density = 15.522345 Si / 1000 Ang^3
#
#
#
# Elastic Constant Matrix: (Units=GPa)
#
#
# Indices 1 2 3 4 5 6 
#
# 1 75.4224 44.2110 25.7778 0.0000 0.0000 0.0000
# 2 44.2110 81.7543 26.5756 0.0000 0.0000 0.0000
# 3 25.7778 26.5756 52.0091 0.0000 0.0000 0.0000
# 4 0.0000 0.0000 0.0000 3.0472 0.0000 0.0000
# 5 0.0000 0.0000 0.0000 0.0000 14.6066 0.0000
# 6 0.0000 0.0000 0.0000 0.0000 0.0000 15.4072
#
#
#
# Elastic Compliance Matrix: (Units=1/GPa)
#
#
# Indices 1 2 3 4 5 6 
#
# 1 0.020613 -0.009385 -0.005421 0.000000 0.000000 0.000000
# 2 -0.009385 0.018941 -0.005027 0.000000 0.000000 0.000000
# 3 -0.005421 -0.005027 0.024483 0.000000 0.000000 0.000000
# 4 0.000000 0.000000 0.000000 0.328175 0.000000 0.000000
# 5 0.000000 0.000000 0.000000 0.000000 0.068462 0.000000
# 6 0.000000 0.000000 0.000000 0.000000 0.000000 0.064905
#
#
# Mechanical properties :
#
#
# Convention : Reuss Voigt Hill
#
# Bulk Modulus (GPa) = 41.03230 44.70162 42.86696
# Shear Modulus (GPa) = 8.72041 14.12028 11.42035
#
# Velocity S-wave (km/s) = 2.37280 3.01935 2.71539
# Velocity P-wave (km/s) = 5.83083 6.40438 6.12432
#
# Compressibility (1/GPa) = 0.02437104
#
# Stress axis : x y z
#
# Youngs Moduli (GPa) = 48.51418 52.79591 40.84470
#
# Poissons Ratio (x) = 0.49547 0.22142
# Poissons Ratio (y) = 0.45529 0.20533
# Poissons Ratio (z) = 0.26300 0.26540
#
# Static dielectric constant tensor:
#      x y z
#    x 1.501450 0.000000 0.000000 
#    y 0.000000 1.537070 0.000000 
#    z 0.000000 0.000000 1.512720 
# 
# From -- ./inp_files/26186.got.cif
#   From: 2010.05.17/outbox.cif.g08.bks.cpg/sg69_14_cif.got.tgz:26186.got - 2010.06.03 19:29:58.
