data_PCOD9511203
_publ_section_title
;
Structure prediction by ZEFSAII (Michael W. Deem and Ramdas Pophale) SiO2 
 PCOD9511203
Probable space group: F M M M
;
_chemical_formula_sum "Si O2"
_cell_formula_units_Z 112
_cell_length_a 8.668080
_cell_length_b 29.710545
_cell_length_c 24.971812
_cell_angle_alpha 90.000000
_cell_angle_beta 90.000000
_cell_angle_gamma 90.000000
_cell_volume 6431.075172
_symmetry_space_group_name_H-M "F M M M"
_symmetry_group_IT_number 69
_symmetry_cell_setting 'orthorhombic'
loop_
_space_group_symop_operation_xyz
x,y,z
-x,-y,z
x,-y,-z
-x,y,-z
-x,-y,-z
x,y,-z
-x,y,z
x,-y,z
x,1/2+y,1/2+z
-x,1/2-y,1/2+z
x,1/2-y,1/2-z
-x,1/2+y,1/2-z
-x,1/2-y,1/2-z
x,1/2+y,1/2-z
-x,1/2+y,1/2+z
x,1/2-y,1/2+z
1/2+x,y,1/2+z
1/2-x,-y,1/2+z
1/2+x,-y,1/2-z
1/2-x,y,1/2-z
1/2-x,-y,1/2-z
1/2+x,y,1/2-z
1/2-x,y,1/2+z
1/2+x,-y,1/2+z
1/2+x,1/2+y,z
1/2-x,1/2-y,z
1/2+x,1/2-y,-z
1/2-x,1/2+y,-z
1/2-x,1/2-y,-z
1/2+x,1/2+y,-z
1/2-x,1/2+y,z
1/2+x,1/2-y,z
loop_
_atom_site_type_symbol
_atom_site_label
_atom_site_fract_x
_atom_site_fract_y
_atom_site_fract_z
Si Si1 0.312354 0.447815 0.500000
Si Si2 0.683029 0.906131 0.690361
Si Si3 0.314861 0.200135 0.000000
Si Si4 0.184120 0.500000 0.810163
Si Si5 0.813606 0.626793 0.086801
O O1 0.259033 0.500000 0.500000
O O2 0.500000 0.449231 0.500000
O O3 0.268303 0.417334 0.448539
O O4 0.500000 0.909429 0.694822
O O5 0.750000 0.898102 0.750000
O O6 0.751656 0.953408 0.668285
O O7 0.736404 0.871945 0.644812
O O8 0.250000 0.250000 0.000000
O O9 0.270628 0.170072 0.948629
O O10 0.500000 0.202319 0.000000
O O11 0.250000 0.500000 0.750000
O O12 0.000000 0.500000 0.811162
O O13 0.000000 0.625299 0.092490
#
# Coordination Sequence:
#
# PCOD9511203 Si02
#       5
#    16  32  16  16  32
#     4   8  15  28  48  73  99 134 173 207 253 308
#     4  11  21  33  49  73 105 141 180 220 261 308
#     4   9  19  36  59  83 108 135 171 216 265 322
#     4  10  18  30  46  65  94 137 182 220 252 292
#     4   9  18  33  52  78 106 135 175 216 259 313
#
# _framework density 17.415438999999999
#
# number of rings (size 3 to 8) (size 9 to 14) (size 15 to 20)
#    0.000    2.429    0.000    7.286    2.000    1.143 
#    0.000    2.143    0.000    1.714    0.000    6.000 
#    0.000    0.000    0.000    0.000    0.000    0.000 
#
# Total GULP energy -156050.194582 kJ/mol
# GULP energy per Si atom -5573.221235 kJ/mol
# Density = 1.737580 g / cm^3
# Si number density = 17.415439 Si / 1000 Ang^3
#
#
#
# Elastic Constant Matrix: (Units=GPa)
#
#
# Indices 1 2 3 4 5 6 
#
# 1 94.0582 34.6319 51.3310 0.0000 0.0000 0.0000
# 2 34.6319 121.1417 62.3778 0.0000 0.0000 0.0000
# 3 51.3310 62.3778 140.1526 0.0000 0.0000 0.0000
# 4 0.0000 0.0000 0.0000 12.9843 0.0000 0.0000
# 5 0.0000 0.0000 0.0000 0.0000 23.8261 0.0000
# 6 0.0000 0.0000 0.0000 0.0000 0.0000 24.8410
#
#
#
# Elastic Compliance Matrix: (Units=1/GPa)
#
#
# Indices 1 2 3 4 5 6 
#
# 1 0.013556 -0.001711 -0.004203 0.000000 0.000000 0.000000
# 2 -0.001711 0.010925 -0.004236 0.000000 0.000000 0.000000
# 3 -0.004203 -0.004236 0.010560 0.000000 0.000000 0.000000
# 4 0.000000 0.000000 0.000000 0.077016 0.000000 0.000000
# 5 0.000000 0.000000 0.000000 0.000000 0.041971 0.000000
# 6 0.000000 0.000000 0.000000 0.000000 0.000000 0.040256
#
#
# Mechanical properties :
#
#
# Convention : Reuss Voigt Hill
#
# Bulk Modulus (GPa) = 67.84084 72.44823 70.14454
# Shear Modulus (GPa) = 22.77940 26.13106 24.45523
#
# Velocity S-wave (km/s) = 3.62055 3.87777 3.75137
# Velocity P-wave (km/s) = 7.51777 7.85747 7.68949
#
# Compressibility (1/GPa) = 0.01474038
#
# Stress axis : x y z
#
# Youngs Moduli (GPa) = 73.77060 91.53337 94.69943
#
# Poissons Ratio (x) = 0.15661 0.39804
# Poissons Ratio (y) = 0.12622 0.40112
# Poissons Ratio (z) = 0.31008 0.38771
#
# Static dielectric constant tensor:
#      x y z
#    x 1.587660 0.000000 0.000000 
#    y 0.000000 1.633230 0.000000 
#    z 0.000000 0.000000 1.601120 
# 
# From -- ./inp_files/4025.got.cif
#   From: 2010.05.17/outbox.cif.g08.bks.cpg/sg69_3_cif.got.tgz:4025.got - 2010.06.03 19:29:58.
