data_PCOD9511113
_publ_section_title
;
Structure prediction by ZEFSAII (Michael W. Deem and Ramdas Pophale) SiO2 
 PCOD9511113
Probable space group: F M M M
;
_chemical_formula_sum "Si O2"
_cell_formula_units_Z 144
_cell_length_a 16.437660
_cell_length_b 14.600674
_cell_length_c 28.964563
_cell_angle_alpha 90.000000
_cell_angle_beta 90.000000
_cell_angle_gamma 90.000000
_cell_volume 6951.521622
_symmetry_space_group_name_H-M "F M M M"
_symmetry_group_IT_number 69
_symmetry_cell_setting 'orthorhombic'
loop_
_space_group_symop_operation_xyz
x,y,z
-x,-y,z
x,-y,-z
-x,y,-z
-x,-y,-z
x,y,-z
-x,y,z
x,-y,z
x,1/2+y,1/2+z
-x,1/2-y,1/2+z
x,1/2-y,1/2-z
-x,1/2+y,1/2-z
-x,1/2-y,1/2-z
x,1/2+y,1/2-z
-x,1/2+y,1/2+z
x,1/2-y,1/2+z
1/2+x,y,1/2+z
1/2-x,-y,1/2+z
1/2+x,-y,1/2-z
1/2-x,y,1/2-z
1/2-x,-y,1/2-z
1/2+x,y,1/2-z
1/2-x,y,1/2+z
1/2+x,-y,1/2+z
1/2+x,1/2+y,z
1/2-x,1/2-y,z
1/2+x,1/2-y,-z
1/2-x,1/2+y,-z
1/2-x,1/2-y,-z
1/2+x,1/2+y,-z
1/2-x,1/2+y,z
1/2+x,1/2-y,z
loop_
_atom_site_type_symbol
_atom_site_label
_atom_site_fract_x
_atom_site_fract_y
_atom_site_fract_z
Si Si1 0.323658 0.389591 0.947792
Si Si2 0.589899 0.138875 0.803694
Si Si3 0.000000 0.394775 0.556367
Si Si4 0.249044 0.642174 0.855061
Si Si5 0.409821 0.138365 0.695875
O O1 0.331684 0.500000 0.949807
O O2 0.412580 0.352553 0.931355
O O3 0.256807 0.368226 0.909843
O O4 0.307167 0.357888 0.000000
O O5 0.500000 0.108945 0.819024
O O6 0.666240 0.105759 0.833179
O O7 0.599619 0.113969 0.749815
O O8 0.589533 0.250332 0.805670
O O9 0.000000 0.500000 0.572639
O O10 0.000000 0.397401 0.500000
O O11 0.250000 0.750000 0.844354
O O12 0.332242 0.604731 0.832586
O O13 0.500000 0.108569 0.679956
#
# Coordination Sequence:
#
# PCOD9511113 Si02
#       5
#    32  32  16  32  32
#     4   9  18  32  48  65  89 121 153 185 228 281
#     4   8  14  26  41  61  92 125 153 181 215 262
#     4   7  12  26  46  64  82 109 143 177 219 276
#     4  10  18  26  44  72  93 116 148 192 228 265
#     4   8  14  24  41  65  93 121 148 180 222 270
#
# _framework density 20.71489
#
# number of rings (size 3 to 8) (size 9 to 14) (size 15 to 20)
#    0.000    3.444    0.000    3.333    1.556    3.111 
#    0.000    0.000    0.000    4.000    0.000    4.667 
#    0.000    0.000    0.000    0.000    0.000    0.000 
#
# Total GULP energy -200719.171921 kJ/mol
# GULP energy per Si atom -5575.532553 kJ/mol
# Density = 2.066774 g / cm^3
# Si number density = 20.714890 Si / 1000 Ang^3
#
#
#
# Elastic Constant Matrix: (Units=GPa)
#
#
# Indices 1 2 3 4 5 6 
#
# 1 185.0971 6.9537 106.1038 0.0000 0.0000 0.0000
# 2 6.9537 60.3613 -4.0211 0.0000 0.0000 0.0000
# 3 106.1038 -4.0211 96.3833 0.0000 0.0000 0.0000
# 4 0.0000 0.0000 0.0000 27.5679 0.0000 0.0000
# 5 0.0000 0.0000 0.0000 0.0000 32.9494 0.0000
# 6 0.0000 0.0000 0.0000 0.0000 0.0000 -15.8979
#
#
#
# Elastic Compliance Matrix: (Units=1/GPa)
#
#
# Indices 1 2 3 4 5 6 
#
# 1 0.015119 -0.002858 -0.016763 0.000000 0.000000 0.000000
# 2 -0.002858 0.017154 0.003862 0.000000 0.000000 0.000000
# 3 -0.016763 0.003862 0.028990 0.000000 0.000000 0.000000
# 4 0.000000 0.000000 0.000000 0.036274 0.000000 0.000000
# 5 0.000000 0.000000 0.000000 0.000000 0.030350 0.000000
# 6 0.000000 0.000000 0.000000 0.000000 0.000000 -0.062901
#
#
# Mechanical properties :
#
#
# Convention : Reuss Voigt Hill
#
# Bulk Modulus (GPa) = 33.61990 62.21272 47.91631
# Shear Modulus (GPa) = 46.98414 24.44423 35.71419
#
# Velocity S-wave (km/s) = 4.76766 3.43889 4.15671
# Velocity P-wave (km/s) = 6.82440 6.77244 6.79847
#
# Compressibility (1/GPa) = 0.02974429
#
# Stress axis : x y z
#
# Youngs Moduli (GPa) = 66.14096 58.29714 34.49433
#
# Poissons Ratio (x) = 0.16664 0.57824
# Poissons Ratio (y) = 0.18906 -0.13323
# Poissons Ratio (z) = 1.10874 -0.22517
#
# Static dielectric constant tensor:
#      x y z
#    x 1.785380 0.000000 0.000000 
#    y 0.000000 1.777660 0.000000 
#    z 0.000000 0.000000 1.729200 
# 
# From -- ./inp_files/21724.got.cif
#   From: 2010.05.17/outbox.cif.g08.bks.cpg/sg69_11_cif.got.tgz:21724.got - 2010.06.03 19:29:58.
