data_PCOD9511612
_publ_section_title
;
Structure prediction by ZEFSAII (Michael W. Deem and Ramdas Pophale) SiO2 
 PCOD9511612
Probable space group: F M M M
;
_chemical_formula_sum "Si O2"
_cell_formula_units_Z 208
_cell_length_a 23.864451
_cell_length_b 28.003608
_cell_length_c 15.960126
_cell_angle_alpha 90.000000
_cell_angle_beta 90.000000
_cell_angle_gamma 90.000000
_cell_volume 10666.004270
_symmetry_space_group_name_H-M "F M M M"
_symmetry_group_IT_number 69
_symmetry_cell_setting 'orthorhombic'
loop_
_space_group_symop_operation_xyz
x,y,z
-x,-y,z
x,-y,-z
-x,y,-z
-x,-y,-z
x,y,-z
-x,y,z
x,-y,z
x,1/2+y,1/2+z
-x,1/2-y,1/2+z
x,1/2-y,1/2-z
-x,1/2+y,1/2-z
-x,1/2-y,1/2-z
x,1/2+y,1/2-z
-x,1/2+y,1/2+z
x,1/2-y,1/2+z
1/2+x,y,1/2+z
1/2-x,-y,1/2+z
1/2+x,-y,1/2-z
1/2-x,y,1/2-z
1/2-x,-y,1/2-z
1/2+x,y,1/2-z
1/2-x,y,1/2+z
1/2+x,-y,1/2+z
1/2+x,1/2+y,z
1/2-x,1/2-y,z
1/2+x,1/2-y,-z
1/2-x,1/2+y,-z
1/2-x,1/2-y,-z
1/2+x,1/2+y,-z
1/2-x,1/2+y,z
1/2+x,1/2-y,z
loop_
_atom_site_type_symbol
_atom_site_label
_atom_site_fract_x
_atom_site_fract_y
_atom_site_fract_z
Si Si1 0.000000 0.442644 0.904415
Si Si2 0.438434 0.873264 0.315115
Si Si3 0.612040 0.556719 0.703176
Si Si4 0.563797 0.811862 0.853559
Si Si5 0.172500 0.871069 0.597072
Si Si6 0.103274 0.790115 0.902829
Si Si7 0.728913 0.197892 0.602074
O O1 0.055737 0.431169 0.851823
O O2 0.000000 0.500000 0.911088
O O3 0.000000 0.423749 0.000000
O O4 0.500000 0.894973 0.317395
O O5 0.396132 0.915156 0.290203
O O6 0.435448 0.834677 0.239034
O O7 0.429345 0.839619 0.394076
O O8 0.616661 0.500000 0.710686
O O9 0.660972 0.582255 0.651852
O O10 0.500000 0.820351 0.886507
O O11 0.616703 0.837612 0.897612
O O12 0.575996 0.755393 0.857688
O O13 0.180747 0.883642 0.500000
O O14 0.226001 0.841291 0.629074
O O15 0.164940 0.803886 0.869068
O O16 0.108183 0.775621 0.000000
O O17 0.728735 0.195572 0.500000
O O18 0.750000 0.250000 0.626565
#
# Coordination Sequence:
#
# PCOD9511612 Si02
#       7
#    16  32  32  32  32  32  32
#     4   9  16  28  50  80 108 133 171 215 252 312
#     4  10  21  36  53  76 110 147 178 217 274 335
#     4  10  20  35  53  77 108 145 180 214 270 329
#     4  10  20  33  49  76 113 149 174 209 271 336
#     4  10  19  31  52  80 112 147 179 217 263 321
#     4  11  21  34  56  78 102 139 187 236 271 313
#     4   9  17  33  53  75 106 142 181 222 269 322
#
# _framework density 19.501211000000001
#
# number of rings (size 3 to 8) (size 9 to 14) (size 15 to 20)
#    0.000    2.077    2.308    1.846    1.077    4.308 
#    0.000    3.077    0.000    2.308    0.000    3.231 
#    0.000    0.000    0.000    0.000    0.000    0.000 
#
# Total GULP energy -289989.574746 kJ/mol
# GULP energy per Si atom -5576.722591 kJ/mol
# Density = 1.945683 g / cm^3
# Si number density = 19.501211 Si / 1000 Ang^3
#
#
#
# Elastic Constant Matrix: (Units=GPa)
#
#
# Indices 1 2 3 4 5 6 
#
# 1 74.4897 24.9802 2.5971 0.0000 0.0000 0.0000
# 2 24.9802 125.1927 12.2351 0.0000 0.0000 0.0000
# 3 2.5971 12.2351 11.0709 0.0000 0.0000 0.0000
# 4 0.0000 0.0000 0.0000 19.9780 0.0000 0.0000
# 5 0.0000 0.0000 0.0000 0.0000 3.8416 0.0000
# 6 0.0000 0.0000 0.0000 0.0000 0.0000 31.2054
#
#
#
# Elastic Compliance Matrix: (Units=1/GPa)
#
#
# Indices 1 2 3 4 5 6 
#
# 1 0.014388 -0.002849 -0.000227 0.000000 0.000000 0.000000
# 2 -0.002849 0.009519 -0.009852 0.000000 0.000000 0.000000
# 3 -0.000227 -0.009852 0.101268 0.000000 0.000000 0.000000
# 4 0.000000 0.000000 0.000000 0.050055 0.000000 0.000000
# 5 0.000000 0.000000 0.000000 0.000000 0.260308 0.000000
# 6 0.000000 0.000000 0.000000 0.000000 0.000000 0.032046
#
#
# Mechanical properties :
#
#
# Convention : Reuss Voigt Hill
#
# Bulk Modulus (GPa) = 10.06845 32.26423 21.16634
# Shear Modulus (GPa) = 9.49588 22.40107 15.94847
#
# Velocity S-wave (km/s) = 2.20906 3.39293 2.86286
# Velocity P-wave (km/s) = 3.41772 5.65066 4.66962
#
# Compressibility (1/GPa) = 0.09932017
#
# Stress axis : x y z
#
# Youngs Moduli (GPa) = 69.50286 105.05406 9.87479
#
# Poissons Ratio (x) = 0.29927 0.00224
# Poissons Ratio (y) = 0.19799 0.09728
# Poissons Ratio (z) = 0.01577 1.03496
#
# Static dielectric constant tensor:
#      x y z
#    x 1.766080 0.000000 0.000000 
#    y 0.000000 1.665250 0.000000 
#    z 0.000000 0.000000 1.725870 
# 
# From -- ./inp_files/26139.got.cif
#   From: 2010.05.17/outbox.cif.g08.bks.cpg/sg69_14_cif.got.tgz:26139.got - 2010.06.03 19:29:58.
