data_PCOD9511204
_publ_section_title
;
Structure prediction by ZEFSAII (Michael W. Deem and Ramdas Pophale) SiO2 
 PCOD9511204
Probable space group: F M M M
;
_chemical_formula_sum "Si O2"
_cell_formula_units_Z 112
_cell_length_a 24.953296
_cell_length_b 29.585777
_cell_length_c 8.629509
_cell_angle_alpha 90.000000
_cell_angle_beta 90.000000
_cell_angle_gamma 90.000000
_cell_volume 6370.844190
_symmetry_space_group_name_H-M "F M M M"
_symmetry_group_IT_number 69
_symmetry_cell_setting 'orthorhombic'
loop_
_space_group_symop_operation_xyz
x,y,z
-x,-y,z
x,-y,-z
-x,y,-z
-x,-y,-z
x,y,-z
-x,y,z
x,-y,z
x,1/2+y,1/2+z
-x,1/2-y,1/2+z
x,1/2-y,1/2-z
-x,1/2+y,1/2-z
-x,1/2-y,1/2-z
x,1/2+y,1/2-z
-x,1/2+y,1/2+z
x,1/2-y,1/2+z
1/2+x,y,1/2+z
1/2-x,-y,1/2+z
1/2+x,-y,1/2-z
1/2-x,y,1/2-z
1/2-x,-y,1/2-z
1/2+x,y,1/2-z
1/2-x,y,1/2+z
1/2+x,-y,1/2+z
1/2+x,1/2+y,z
1/2-x,1/2-y,z
1/2+x,1/2-y,-z
1/2-x,1/2+y,-z
1/2-x,1/2-y,-z
1/2+x,1/2+y,-z
1/2-x,1/2+y,z
1/2+x,1/2-y,z
loop_
_atom_site_type_symbol
_atom_site_label
_atom_site_fract_x
_atom_site_fract_y
_atom_site_fract_z
Si Si1 0.189581 0.000000 0.185269
Si Si2 0.189980 0.905230 0.315604
Si Si3 0.000000 0.300147 0.314408
Si Si4 0.000000 0.553323 0.813132
Si Si5 0.084744 0.624830 0.686502
O O1 0.250000 0.000000 0.250000
O O2 0.168211 0.046536 0.252204
O O3 0.188583 0.000000 0.000000
O O4 0.193260 0.906546 0.500000
O O5 0.250000 0.897802 0.250000
O O6 0.144246 0.872086 0.255197
O O7 0.000000 0.250000 0.250000
O O8 0.949054 0.330740 0.269225
O O9 0.000000 0.297597 0.500000
O O10 0.050980 0.581795 0.750160
O O11 0.000000 0.500000 0.767181
O O12 0.000000 0.554940 0.000000
O O13 0.086833 0.621151 0.500000
#
# Coordination Sequence:
#
# PCOD9511204 Si02
#       5
#    16  32  16  16  32
#     4  10  18  30  46  67  98 141 186 226 261 304
#     4  11  21  34  52  76 108 146 187 229 270 318
#     4   9  20  38  62  86 109 136 173 222 275 333
#     4  10  21  35  51  75 108 144 184 227 270 318
#     4  10  21  37  55  80 110 143 183 223 272 328
#
# _framework density 17.580086999999999
#
# number of rings (size 3 to 8) (size 9 to 14) (size 15 to 20)
#    0.000    1.857    0.000    7.714    2.000    4.571 
#    0.000    0.000    0.000    0.857    0.000    6.000 
#    0.000    0.000    0.000    0.000    0.000    0.000 
#
# Total GULP energy -156181.315931 kJ/mol
# GULP energy per Si atom -5577.904140 kJ/mol
# Density = 1.754007 g / cm^3
# Si number density = 17.580087 Si / 1000 Ang^3
#
#
#
# Elastic Constant Matrix: (Units=GPa)
#
#
# Indices 1 2 3 4 5 6 
#
# 1 147.2680 64.4488 55.7684 0.0022 -0.0043 -0.0013
# 2 64.4488 122.9677 44.0283 0.0008 -0.0011 -0.0006
# 3 55.7684 44.0283 125.9205 0.0049 -0.0079 -0.0026
# 4 0.0022 0.0008 0.0049 26.7063 -0.0028 -0.0007
# 5 -0.0043 -0.0011 -0.0079 -0.0028 30.1075 0.0017
# 6 -0.0013 -0.0006 -0.0026 -0.0007 0.0017 12.2570
#
#
#
# Elastic Compliance Matrix: (Units=1/GPa)
#
#
# Indices 1 2 3 4 5 6 
#
# 1 0.009635 -0.004026 -0.002860 0.000000 0.000000 0.000000
# 2 -0.004026 0.010978 -0.002056 0.000000 -0.000001 0.000000
# 3 -0.002860 -0.002056 0.009927 -0.000002 0.000002 0.000002
# 4 0.000000 0.000000 -0.000002 0.037444 0.000003 0.000002
# 5 0.000000 -0.000001 0.000002 0.000003 0.033214 -0.000005
# 6 0.000000 0.000000 0.000002 0.000002 -0.000005 0.081586
#
#
# Mechanical properties :
#
#
# Convention : Reuss Voigt Hill
#
# Bulk Modulus (GPa) = 79.00192 80.51635 79.75914
# Shear Modulus (GPa) = 24.40377 29.27487 26.83932
#
# Velocity S-wave (km/s) = 3.72983 4.08515 3.91153
# Velocity P-wave (km/s) = 7.97400 8.25533 8.11588
#
# Compressibility (1/GPa) = 0.01265792
#
# Stress axis : x y z
#
# Youngs Moduli (GPa) = 103.78703 91.08904 100.73858
#
# Poissons Ratio (x) = 0.36673 0.28807
# Poissons Ratio (y) = 0.41785 0.20707
# Poissons Ratio (z) = 0.29678 0.18723
#
# Static dielectric constant tensor:
#      x y z
#    x 1.607700 0.000000 0.000000 
#    y 0.000000 1.640490 0.000000 
#    z 0.000000 0.000000 1.588380 
# 
# From -- ./inp_files/4041.got.cif
#   From: 2010.05.17/outbox.cif.g08.bks.cpg/sg69_3_cif.got.tgz:4041.got - 2010.06.03 19:29:58.
