data_PCOD9511564
_publ_section_title
;
Structure prediction by ZEFSAII (Michael W. Deem and Ramdas Pophale) SiO2 
 PCOD9511564
Probable space group: F M M M
;
_chemical_formula_sum "Si O2"
_cell_formula_units_Z 208
_cell_length_a 18.370447
_cell_length_b 22.984390
_cell_length_c 29.175436
_cell_angle_alpha 90.000000
_cell_angle_beta 90.000000
_cell_angle_gamma 90.000000
_cell_volume 12318.846991
_symmetry_space_group_name_H-M "F M M M"
_symmetry_group_IT_number 69
_symmetry_cell_setting 'orthorhombic'
loop_
_space_group_symop_operation_xyz
x,y,z
-x,-y,z
x,-y,-z
-x,y,-z
-x,-y,-z
x,y,-z
-x,y,z
x,-y,z
x,1/2+y,1/2+z
-x,1/2-y,1/2+z
x,1/2-y,1/2-z
-x,1/2+y,1/2-z
-x,1/2-y,1/2-z
x,1/2+y,1/2-z
-x,1/2+y,1/2+z
x,1/2-y,1/2+z
1/2+x,y,1/2+z
1/2-x,-y,1/2+z
1/2+x,-y,1/2-z
1/2-x,y,1/2-z
1/2-x,-y,1/2-z
1/2+x,y,1/2-z
1/2-x,y,1/2+z
1/2+x,-y,1/2+z
1/2+x,1/2+y,z
1/2-x,1/2-y,z
1/2+x,1/2-y,-z
1/2-x,1/2+y,-z
1/2-x,1/2-y,-z
1/2+x,1/2+y,-z
1/2-x,1/2+y,z
1/2+x,1/2-y,z
loop_
_atom_site_type_symbol
_atom_site_label
_atom_site_fract_x
_atom_site_fract_y
_atom_site_fract_z
Si Si1 0.417683 0.729738 0.152400
Si Si2 0.272635 0.847010 0.949178
Si Si3 0.144530 0.569028 0.890557
Si Si4 0.869743 0.268902 0.448640
Si Si5 0.084861 0.638707 0.188678
Si Si6 0.500000 0.570463 0.552148
Si Si7 0.669406 0.815955 0.731784
O O1 0.500000 0.716120 0.169158
O O2 0.414848 0.723508 0.097646
O O3 0.404424 0.797867 0.164690
O O4 0.356294 0.691681 0.179067
O O5 0.289222 0.895369 0.911961
O O6 0.194156 0.817028 0.946768
O O7 0.329364 0.793546 0.944875
O O8 0.282359 0.872707 0.000000
O O9 0.153108 0.500000 0.893268
O O10 0.128977 0.591364 0.839764
O O11 0.072744 0.586728 0.920382
O O12 0.903135 0.271684 0.500000
O O13 0.112987 0.645250 0.240158
O O14 0.000000 0.624934 0.186824
O O15 0.500000 0.500000 0.550182
O O16 0.500000 0.592900 0.500000
O O17 0.660888 0.750000 0.750000
O O18 0.750000 0.832991 0.750000
#
# Coordination Sequence:
#
# PCOD9511564 Si02
#       7
#    32  32  32  32  32  16  32
#     4  10  19  31  48  73 103 131 165 211 259 305
#     4   9  18  31  46  67  97 134 172 210 247 289
#     4  11  20  30  46  69  97 135 175 207 244 290
#     4   9  18  31  49  71  99 134 170 206 253 310
#     4  10  19  32  47  69 102 133 165 209 252 297
#     4   9  18  30  42  62  95 134 178 212 229 270
#     4   9  19  31  50  75  94 124 166 210 256 307
#
# _framework density 16.884696999999999
#
# number of rings (size 3 to 8) (size 9 to 14) (size 15 to 20)
#    0.000    2.385    2.308    1.846    2.154    4.308 
#    0.000    0.000    0.000    0.462    0.000    0.000 
#    0.000    0.615    0.000    3.385    0.000    0.000 
#
# Total GULP energy -289597.602588 kJ/mol
# GULP energy per Si atom -5569.184665 kJ/mol
# Density = 1.684627 g / cm^3
# Si number density = 16.884697 Si / 1000 Ang^3
#
#
#
# Elastic Constant Matrix: (Units=GPa)
#
#
# Indices 1 2 3 4 5 6 
#
# 1 33.7114 18.9061 13.2774 0.0000 0.0000 0.0000
# 2 18.9061 51.2380 16.9370 0.0000 0.0000 0.0000
# 3 13.2774 16.9370 80.8364 0.0000 0.0000 0.0000
# 4 0.0000 0.0000 0.0000 16.0340 0.0000 0.0000
# 5 0.0000 0.0000 0.0000 0.0000 23.6492 0.0000
# 6 0.0000 0.0000 0.0000 0.0000 0.0000 12.6024
#
#
#
# Elastic Compliance Matrix: (Units=1/GPa)
#
#
# Indices 1 2 3 4 5 6 
#
# 1 0.038345 -0.012965 -0.003582 0.000000 0.000000 0.000000
# 2 -0.012965 0.025353 -0.003182 0.000000 0.000000 0.000000
# 3 -0.003582 -0.003182 0.013626 0.000000 0.000000 0.000000
# 4 0.000000 0.000000 0.000000 0.062368 0.000000 0.000000
# 5 0.000000 0.000000 0.000000 0.000000 0.042285 0.000000
# 6 0.000000 0.000000 0.000000 0.000000 0.000000 0.079350
#
#
# Mechanical properties :
#
#
# Convention : Reuss Voigt Hill
#
# Bulk Modulus (GPa) = 26.40932 29.33631 27.87282
# Shear Modulus (GPa) = 15.95374 18.23480 17.09427
#
# Velocity S-wave (km/s) = 3.07720 3.28984 3.18529
# Velocity P-wave (km/s) = 5.31982 5.64295 5.48377
#
# Compressibility (1/GPa) = 0.03786541
#
# Stress axis : x y z
#
# Youngs Moduli (GPa) = 26.07882 39.44375 73.39039
#
# Poissons Ratio (x) = 0.51138 0.26287
# Poissons Ratio (y) = 0.33811 0.23356
# Poissons Ratio (z) = 0.09341 0.12553
#
# Static dielectric constant tensor:
#      x y z
#    x 1.595430 0.000000 0.000000 
#    y 0.000000 1.528060 0.000000 
#    z 0.000000 0.000000 1.611850 
# 
# From -- ./inp_files/42133.got.cif
#   From: 2010.05.17/outbox.cif.g08.bks.cpg/sg69_22_cif.got.tgz:42133.got - 2010.06.03 19:29:58.
