data_PCOD9511803
_publ_section_title
;
Structure prediction by ZEFSAII (Michael W. Deem and Ramdas Pophale) SiO2 
 PCOD9511803
Probable space group: F M M M
;
_chemical_formula_sum "Si O2"
_cell_formula_units_Z 192
_cell_length_a 13.522815
_cell_length_b 28.579131
_cell_length_c 23.367709
_cell_angle_alpha 90.000000
_cell_angle_beta 90.000000
_cell_angle_gamma 90.000000
_cell_volume 9030.925540
_symmetry_space_group_name_H-M "F M M M"
_symmetry_group_IT_number 69
_symmetry_cell_setting 'orthorhombic'
loop_
_space_group_symop_operation_xyz
x,y,z
-x,-y,z
x,-y,-z
-x,y,-z
-x,-y,-z
x,y,-z
-x,y,z
x,-y,z
x,1/2+y,1/2+z
-x,1/2-y,1/2+z
x,1/2-y,1/2-z
-x,1/2+y,1/2-z
-x,1/2-y,1/2-z
x,1/2+y,1/2-z
-x,1/2+y,1/2+z
x,1/2-y,1/2+z
1/2+x,y,1/2+z
1/2-x,-y,1/2+z
1/2+x,-y,1/2-z
1/2-x,y,1/2-z
1/2-x,-y,1/2-z
1/2+x,y,1/2-z
1/2-x,y,1/2+z
1/2+x,-y,1/2+z
1/2+x,1/2+y,z
1/2-x,1/2-y,z
1/2+x,1/2-y,-z
1/2-x,1/2+y,-z
1/2-x,1/2-y,-z
1/2+x,1/2+y,-z
1/2-x,1/2+y,z
1/2+x,1/2-y,z
loop_
_atom_site_type_symbol
_atom_site_label
_atom_site_fract_x
_atom_site_fract_y
_atom_site_fract_z
Si Si1 0.000000 0.768301 0.069323
Si Si2 0.381762 0.052308 0.182261
Si Si3 0.815416 0.592567 0.933914
Si Si4 0.200402 0.319731 0.565269
Si Si5 0.612329 0.357990 0.759970
Si Si6 0.219709 0.198446 0.323783
Si Si7 0.000000 0.162433 0.567591
O O1 0.096976 0.798116 0.084704
O O2 0.000000 0.715172 0.092346
O O3 0.000000 0.767605 0.000000
O O4 0.500000 0.055169 0.169837
O O5 0.324690 0.060326 0.122023
O O6 0.363514 0.092350 0.229802
O O7 0.360810 0.000000 0.203589
O O8 0.716313 0.624300 0.932421
O O9 0.905947 0.628788 0.923342
O O10 0.825641 0.574251 0.000000
O O11 0.220189 0.305969 0.500000
O O12 0.281446 0.300442 0.608425
O O13 0.500000 0.358844 0.781507
O O14 0.693525 0.338272 0.804449
O O15 0.624155 0.320860 0.707881
O O16 0.250000 0.250000 0.306333
O O17 0.000000 0.171341 0.500000
#
# Coordination Sequence:
#
# PCOD9511803 Si02
#       7
#    16  32  32  32  32  32  16
#     4   9  20  34  50  80 117 160 210 242 276 334
#     4  10  20  36  60  87 116 150 190 243 306 365
#     4  10  19  33  54  82 120 159 190 234 299 362
#     4  10  22  38  57  84 121 161 201 249 293 344
#     4  10  22  42  61  82 119 156 196 247 290 343
#     4  11  24  39  59  89 118 157 205 241 287 346
#     4   9  18  30  47  75 115 160 197 227 279 348
#
# _framework density 21.260280000000002
#
# number of rings (size 3 to 8) (size 9 to 14) (size 15 to 20)
#    0.000    2.000    2.500    1.000    3.500    2.000 
#    0.000    2.500    0.000    0.000    0.000    0.583 
#    0.000    3.333    0.000    0.333    0.000    0.000 
#
# Total GULP energy -267573.194890 kJ/mol
# GULP energy per Si atom -5574.441560 kJ/mol
# Density = 2.121189 g / cm^3
# Si number density = 21.260280 Si / 1000 Ang^3
#
#
#
# Elastic Constant Matrix: (Units=GPa)
#
#
# Indices 1 2 3 4 5 6 
#
# 1 72.7688 21.7269 2.7799 0.0000 0.0000 0.0000
# 2 21.7269 124.5628 17.5819 0.0000 0.0000 0.0000
# 3 2.7799 17.5819 72.5090 0.0000 0.0000 0.0000
# 4 0.0000 0.0000 0.0000 -10.6371 0.0000 0.0000
# 5 0.0000 0.0000 0.0000 0.0000 5.8565 0.0000
# 6 0.0000 0.0000 0.0000 0.0000 0.0000 24.4044
#
#
#
# Elastic Compliance Matrix: (Units=1/GPa)
#
#
# Indices 1 2 3 4 5 6 
#
# 1 0.014497 -0.002537 0.000059 0.000000 0.000000 0.000000
# 2 -0.002537 0.008757 -0.002026 0.000000 0.000000 0.000000
# 3 0.000059 -0.002026 0.014280 0.000000 0.000000 0.000000
# 4 0.000000 0.000000 0.000000 -0.094011 0.000000 0.000000
# 5 0.000000 0.000000 0.000000 0.000000 0.170750 0.000000
# 6 0.000000 0.000000 0.000000 0.000000 0.000000 0.040976
#
#
# Mechanical properties :
#
#
# Convention : Reuss Voigt Hill
#
# Bulk Modulus (GPa) = 35.05465 39.33534 37.19499
# Shear Modulus (GPa) = 28.77437 19.10823 23.94130
#
# Velocity S-wave (km/s) = 3.68289 3.00121 3.35939
# Velocity P-wave (km/s) = 5.88295 5.52736 5.70792
#
# Compressibility (1/GPa) = 0.02852689
#
# Stress axis : x y z
#
# Youngs Moduli (GPa) = 68.97794 114.19981 70.02615
#
# Poissons Ratio (x) = 0.28973 -0.00416
# Poissons Ratio (y) = 0.17500 0.14187
# Poissons Ratio (z) = -0.00410 0.23137
#
# Static dielectric constant tensor:
#      x y z
#    x 1.838810 0.000000 0.000000 
#    y 0.000000 1.794080 0.000000 
#    z 0.000000 0.000000 1.839530 
# 
# From -- ./inp_files/36109.got.cif
#   From: 2010.05.17/outbox.cif.g08.bks.cpg/sg69_19_cif.got.tgz:36109.got - 2010.06.03 19:29:58.
