data_PCOD9511973
_publ_section_title
;
Structure prediction by ZEFSAII (Michael W. Deem and Ramdas Pophale) SiO2 
 PCOD9511973
Probable space group: F M M M
;
_chemical_formula_sum "Si O2"
_cell_formula_units_Z 160
_cell_length_a 32.247535
_cell_length_b 14.661203
_cell_length_c 20.532229
_cell_angle_alpha 90.000000
_cell_angle_beta 90.000000
_cell_angle_gamma 90.000000
_cell_volume 9707.384440
_symmetry_space_group_name_H-M "F M M M"
_symmetry_group_IT_number 69
_symmetry_cell_setting 'orthorhombic'
loop_
_space_group_symop_operation_xyz
x,y,z
-x,-y,z
x,-y,-z
-x,y,-z
-x,-y,-z
x,y,-z
-x,y,z
x,-y,z
x,1/2+y,1/2+z
-x,1/2-y,1/2+z
x,1/2-y,1/2-z
-x,1/2+y,1/2-z
-x,1/2-y,1/2-z
x,1/2+y,1/2-z
-x,1/2+y,1/2+z
x,1/2-y,1/2+z
1/2+x,y,1/2+z
1/2-x,-y,1/2+z
1/2+x,-y,1/2-z
1/2-x,y,1/2-z
1/2-x,-y,1/2-z
1/2+x,y,1/2-z
1/2-x,y,1/2+z
1/2+x,-y,1/2+z
1/2+x,1/2+y,z
1/2-x,1/2-y,z
1/2+x,1/2-y,-z
1/2-x,1/2+y,-z
1/2-x,1/2-y,-z
1/2+x,1/2+y,-z
1/2-x,1/2+y,z
1/2+x,1/2-y,z
loop_
_atom_site_type_symbol
_atom_site_label
_atom_site_fract_x
_atom_site_fract_y
_atom_site_fract_z
Si Si1 0.093170 0.685994 0.423973
Si Si2 0.550209 0.500000 0.269680
Si Si3 0.687477 0.711865 0.078851
Si Si4 0.950178 0.805210 0.316436
Si Si5 0.049981 0.500000 0.384270
Si Si6 0.269207 0.395954 0.579374
O O1 0.091564 0.712048 0.500000
O O2 0.141397 0.681586 0.403269
O O3 0.070683 0.757813 0.377590
O O4 0.070127 0.589885 0.414685
O O5 0.500000 0.500000 0.272388
O O6 0.564344 0.591873 0.304329
O O7 0.559810 0.500000 0.192990
O O8 0.699085 0.815371 0.099577
O O9 0.723924 0.642639 0.099418
O O10 0.689123 0.712169 0.000000
O O11 0.941448 0.750000 0.250000
O O12 0.000000 0.803701 0.325010
O O13 0.000000 0.500000 0.391918
O O14 0.269896 0.398037 0.500000
O O15 0.276665 0.500000 0.601465
#
# Coordination Sequence:
#
# PCOD9511973 Si02
#       6
#    32  16  32  32  16  32
#     4  11  22  33  49  79 114 138 163 213 271 319
#     4   9  18  35  57  75  90 127 188 228 249 291
#     4   8  16  28  41  68 102 131 164 202 252 308
#     4  10  19  35  56  73  98 138 181 219 252 300
#     4  11  21  34  53  77 107 140 174 218 269 318
#     4   8  13  25  46  64  89 132 172 202 241 303
#
# _framework density 16.482298
#
# number of rings (size 3 to 8) (size 9 to 14) (size 15 to 20)
#    0.000    2.600    2.000    2.100    1.400    2.000 
#    1.800    0.500    0.000    1.800    0.000    2.800 
#    0.000    8.000    0.000    0.000    0.000    0.000 
#
# Total GULP energy -222794.254400 kJ/mol
# GULP energy per Si atom -5569.856360 kJ/mol
# Density = 1.644478 g / cm^3
# Si number density = 16.482298 Si / 1000 Ang^3
#
#
#
# Elastic Constant Matrix: (Units=GPa)
#
#
# Indices 1 2 3 4 5 6 
#
# 1 84.6800 43.3677 24.8917 0.0000 0.0000 0.0000
# 2 43.3677 109.8680 20.3766 0.0000 0.0000 0.0000
# 3 24.8917 20.3766 52.2880 0.0000 0.0000 0.0000
# 4 0.0000 0.0000 0.0000 -2.8474 0.0000 0.0000
# 5 0.0000 0.0000 0.0000 0.0000 -9.4832 0.0000
# 6 0.0000 0.0000 0.0000 0.0000 0.0000 13.6725
#
#
#
# Elastic Compliance Matrix: (Units=1/GPa)
#
#
# Indices 1 2 3 4 5 6 
#
# 1 0.016205 -0.005353 -0.005628 0.000000 0.000000 0.000000
# 2 -0.005353 0.011579 -0.001964 0.000000 0.000000 0.000000
# 3 -0.005628 -0.001964 0.022570 0.000000 0.000000 0.000000
# 4 0.000000 0.000000 0.000000 -0.351195 0.000000 0.000000
# 5 0.000000 0.000000 0.000000 0.000000 -0.105449 0.000000
# 6 0.000000 0.000000 0.000000 0.000000 0.000000 0.073139
#
#
# Mechanical properties :
#
#
# Convention : Reuss Voigt Hill
#
# Bulk Modulus (GPa) = 40.87798 47.12312 44.00055
# Shear Modulus (GPa) = -16.71645 10.81503 -2.95071
#
# Velocity S-wave (km/s) = -3.18812 2.56434 -1.33945
# Velocity P-wave (km/s) = 3.36197 6.11719 4.93573
#
# Compressibility (1/GPa) = 0.02446305
#
# Stress axis : x y z
#
# Youngs Moduli (GPa) = 61.70962 86.36366 44.30722
#
# Poissons Ratio (x) = 0.46227 0.24938
# Poissons Ratio (y) = 0.33031 0.08703
# Poissons Ratio (z) = 0.34733 0.16964
#
# Static dielectric constant tensor:
#      x y z
#    x 1.559060 0.000000 0.000000 
#    y 0.000000 1.577190 0.000000 
#    z 0.000000 0.000000 1.529600 
# 
# From -- ./inp_files/15671.got.cif
#   From: 2010.05.17/outbox.cif.g08.bks.cpg/sg69_8_cif.got.tgz:15671.got - 2010.06.03 19:29:58.
