data_PCOD9511375
_publ_section_title
;
Structure prediction by ZEFSAII (Michael W. Deem and Ramdas Pophale) SiO2 
 PCOD9511375
Probable space group: F M M M
;
_chemical_formula_sum "Si O2"
_cell_formula_units_Z 136
_cell_length_a 19.780911
_cell_length_b 20.281691
_cell_length_c 14.608420
_cell_angle_alpha 90.000000
_cell_angle_beta 90.000000
_cell_angle_gamma 90.000000
_cell_volume 5860.756762
_symmetry_space_group_name_H-M "F M M M"
_symmetry_group_IT_number 69
_symmetry_cell_setting 'orthorhombic'
loop_
_space_group_symop_operation_xyz
x,y,z
-x,-y,z
x,-y,-z
-x,y,-z
-x,-y,-z
x,y,-z
-x,y,z
x,-y,z
x,1/2+y,1/2+z
-x,1/2-y,1/2+z
x,1/2-y,1/2-z
-x,1/2+y,1/2-z
-x,1/2-y,1/2-z
x,1/2+y,1/2-z
-x,1/2+y,1/2+z
x,1/2-y,1/2+z
1/2+x,y,1/2+z
1/2-x,-y,1/2+z
1/2+x,-y,1/2-z
1/2-x,y,1/2-z
1/2-x,-y,1/2-z
1/2+x,y,1/2-z
1/2-x,y,1/2+z
1/2+x,-y,1/2+z
1/2+x,1/2+y,z
1/2-x,1/2-y,z
1/2+x,1/2-y,-z
1/2-x,1/2+y,-z
1/2-x,1/2-y,-z
1/2+x,1/2+y,-z
1/2-x,1/2+y,z
1/2+x,1/2-y,z
loop_
_atom_site_type_symbol
_atom_site_label
_atom_site_fract_x
_atom_site_fract_y
_atom_site_fract_z
Si Si1 0.500000 0.500000 0.162227
Si Si2 0.924764 0.642613 0.888163
Si Si3 0.887992 0.000000 0.397374
Si Si4 0.672373 0.758323 0.388212
Si Si5 0.734087 0.000000 0.357053
Si Si6 0.882340 0.898784 0.107839
O O1 0.440438 0.442212 0.153772
O O2 0.911837 0.568260 0.854399
O O3 0.868952 0.694223 0.858673
O O4 0.000000 0.663718 0.862918
O O5 0.921235 0.640430 0.000000
O O6 0.807434 0.000000 0.401735
O O7 0.916664 0.000000 0.500000
O O8 0.672939 0.760584 0.500000
O O9 0.750000 0.750000 0.359217
O O10 0.633596 0.824848 0.359524
O O11 0.750000 0.000000 0.250000
O O12 0.688683 0.937572 0.383164
O O13 0.900592 0.896655 0.000000
#
# Coordination Sequence:
#
# PCOD9511375 Si02
#       6
#     8  32  16  32  16  32
#     4  10  19  30  50  82 108 140 177 220 275 326
#     4   9  17  28  47  79 111 138 172 217 268 316
#     4  10  18  32  55  76 106 140 177 222 267 316
#     4   9  17  28  46  76 111 143 173 213 267 322
#     4  11  22  35  53  77 105 139 184 227 268 319
#     4  10  19  33  55  81 112 141 178 223 274 333
#
# _framework density 23.205195
#
# number of rings (size 3 to 8) (size 9 to 14) (size 15 to 20)
#    0.000    2.353    0.000    4.588    1.647    5.176 
#    0.000    0.000   10.353    6.353    0.000    1.647 
#    0.000    0.000    0.000    0.000    0.000    0.000 
#
# Total GULP energy -189629.435784 kJ/mol
# GULP energy per Si atom -5577.336347 kJ/mol
# Density = 2.315238 g / cm^3
# Si number density = 23.205195 Si / 1000 Ang^3
#
#
#
# Elastic Constant Matrix: (Units=GPa)
#
#
# Indices 1 2 3 4 5 6 
#
# 1 190.3685 87.9548 15.5972 0.0000 0.0000 0.0000
# 2 87.9548 199.8798 19.3219 0.0000 0.0000 0.0000
# 3 15.5972 19.3219 93.4147 0.0000 0.0000 0.0000
# 4 0.0000 0.0000 0.0000 -27.6023 0.0000 0.0000
# 5 0.0000 0.0000 0.0000 0.0000 -34.9253 0.0000
# 6 0.0000 0.0000 0.0000 0.0000 0.0000 -19.1404
#
#
#
# Elastic Compliance Matrix: (Units=1/GPa)
#
#
# Indices 1 2 3 4 5 6 
#
# 1 0.006617 -0.002862 -0.000513 0.000000 0.000000 0.000000
# 2 -0.002862 0.006343 -0.000834 0.000000 0.000000 0.000000
# 3 -0.000513 -0.000834 0.010963 0.000000 0.000000 0.000000
# 4 0.000000 0.000000 0.000000 -0.036229 0.000000 0.000000
# 5 0.000000 0.000000 0.000000 0.000000 -0.028633 0.000000
# 6 0.000000 0.000000 0.000000 0.000000 0.000000 -0.052246
#
#
# Mechanical properties :
#
#
# Convention : Reuss Voigt Hill
#
# Bulk Modulus (GPa) = 64.49479 81.04566 72.77022
# Shear Modulus (GPa) = -62.81706 7.71901 -27.54902
#
# Velocity S-wave (km/s) = -5.20855 1.82583 -3.44930
# Velocity P-wave (km/s) = 2.88417 6.28063 3.94512
#
# Compressibility (1/GPa) = 0.01550513
#
# Stress axis : x y z
#
# Youngs Moduli (GPa) = 151.11522 157.64946 91.21497
#
# Poissons Ratio (x) = 0.45125 0.04678
# Poissons Ratio (y) = 0.43255 0.07608
# Poissons Ratio (z) = 0.07750 0.13150
#
# Static dielectric constant tensor:
#      x y z
#    x 1.797910 0.000000 0.000000 
#    y 0.000000 1.840630 0.000000 
#    z 0.000000 0.000000 1.952800 
# 
# From -- ./inp_files/22653.got.cif
#   From: 2010.05.17/outbox.cif.g08.bks.cpg/sg69_12_cif.got.tgz:22653.got - 2010.06.03 19:29:58.
