data_PCOD9511283
_publ_section_title
;
Structure prediction by ZEFSAII (Michael W. Deem and Ramdas Pophale) SiO2 
 PCOD9511283
Probable space group: F M M M
;
_chemical_formula_sum "Si O2"
_cell_formula_units_Z 144
_cell_length_a 21.352559
_cell_length_b 16.131876
_cell_length_c 20.055927
_cell_angle_alpha 90.000000
_cell_angle_beta 90.000000
_cell_angle_gamma 90.000000
_cell_volume 6908.401119
_symmetry_space_group_name_H-M "F M M M"
_symmetry_group_IT_number 69
_symmetry_cell_setting 'orthorhombic'
loop_
_space_group_symop_operation_xyz
x,y,z
-x,-y,z
x,-y,-z
-x,y,-z
-x,-y,-z
x,y,-z
-x,y,z
x,-y,z
x,1/2+y,1/2+z
-x,1/2-y,1/2+z
x,1/2-y,1/2-z
-x,1/2+y,1/2-z
-x,1/2-y,1/2-z
x,1/2+y,1/2-z
-x,1/2+y,1/2+z
x,1/2-y,1/2+z
1/2+x,y,1/2+z
1/2-x,-y,1/2+z
1/2+x,-y,1/2-z
1/2-x,y,1/2-z
1/2-x,-y,1/2-z
1/2+x,y,1/2-z
1/2-x,y,1/2+z
1/2+x,-y,1/2+z
1/2+x,1/2+y,z
1/2-x,1/2-y,z
1/2+x,1/2-y,-z
1/2-x,1/2+y,-z
1/2-x,1/2-y,-z
1/2+x,1/2+y,-z
1/2-x,1/2+y,z
1/2+x,1/2-y,z
loop_
_atom_site_type_symbol
_atom_site_label
_atom_site_fract_x
_atom_site_fract_y
_atom_site_fract_z
Si Si1 0.845084 0.842460 0.574176
Si Si2 0.303756 0.597060 0.699546
Si Si3 0.931236 0.000000 0.579704
Si Si4 0.428110 0.652559 0.227241
Si Si5 0.573262 0.177477 0.573811
O O1 0.819834 0.857240 0.500000
O O2 0.796469 0.848499 0.633276
O O3 0.892746 0.916959 0.592540
O O4 0.883378 0.758103 0.574168
O O5 0.295255 0.500000 0.683514
O O6 0.250000 0.622089 0.750000
O O7 0.371493 0.609989 0.733645
O O8 0.938157 0.000000 0.500000
O O9 0.000000 0.000000 0.610625
O O10 0.500000 0.625907 0.242184
O O11 0.425058 0.750000 0.250000
O O12 0.417742 0.638484 0.147383
O O13 0.583288 0.135733 0.500000
O O14 0.500000 0.202755 0.574126
#
# Coordination Sequence:
#
# PCOD9511283 Si02
#       5
#    32  32  16  32  32
#     4  10  18  31  51  78 109 142 179 223 279 345
#     4  11  24  40  55  78 114 155 191 230 279 334
#     4   9  16  24  41  74 112 142 169 208 268 339
#     4  10  20  36  58  85 113 145 186 229 277 335
#     4   9  17  31  53  81 114 145 176 224 282 334
#
# _framework density 20.844186000000001
#
# number of rings (size 3 to 8) (size 9 to 14) (size 15 to 20)
#    0.000    2.111    3.333    0.667    0.000    4.444 
#    0.000    1.111    0.000    4.667    0.000    3.111 
#    0.000    0.000    0.000    0.000    0.000    0.000 
#
# Total GULP energy -200636.448369 kJ/mol
# GULP energy per Si atom -5573.234677 kJ/mol
# Density = 2.079674 g / cm^3
# Si number density = 20.844186 Si / 1000 Ang^3
#
#
#
# Elastic Constant Matrix: (Units=GPa)
#
#
# Indices 1 2 3 4 5 6 
#
# 1 44.8256 1.1175 49.1058 0.0000 0.0000 0.0000
# 2 1.1175 4.2734 4.5538 0.0000 0.0000 0.0000
# 3 49.1058 4.5538 199.4423 0.0000 0.0000 0.0000
# 4 0.0000 0.0000 0.0000 15.3726 0.0000 0.0000
# 5 0.0000 0.0000 0.0000 0.0000 33.8357 0.0000
# 6 0.0000 0.0000 0.0000 0.0000 0.0000 19.9398
#
#
#
# Elastic Compliance Matrix: (Units=1/GPa)
#
#
# Indices 1 2 3 4 5 6 
#
# 1 0.030548 0.000028 -0.007522 0.000000 0.000000 0.000000
# 2 0.000028 0.239840 -0.005483 0.000000 0.000000 0.000000
# 3 -0.007522 -0.005483 0.006991 0.000000 0.000000 0.000000
# 4 0.000000 0.000000 0.000000 0.065051 0.000000 0.000000
# 5 0.000000 0.000000 0.000000 0.000000 0.029555 0.000000
# 6 0.000000 0.000000 0.000000 0.000000 0.000000 0.050151
#
#
# Mechanical properties :
#
#
# Convention : Reuss Voigt Hill
#
# Bulk Modulus (GPa) = 3.97734 39.78837 21.88285
# Shear Modulus (GPa) = 9.40028 26.74725 18.07377
#
# Velocity S-wave (km/s) = 2.12593 3.58606 2.94783
# Velocity P-wave (km/s) = 2.81751 6.02299 4.70185
#
# Compressibility (1/GPa) = 0.25142442
#
# Stress axis : x y z
#
# Youngs Moduli (GPa) = 32.73497 4.16945 143.03636
#
# Poissons Ratio (x) = -0.00011 1.07594
# Poissons Ratio (y) = -0.00090 0.78426
# Poissons Ratio (z) = 0.24624 0.02286
#
# Static dielectric constant tensor:
#      x y z
#    x 1.767540 0.000000 0.000000 
#    y 0.000000 1.737170 0.000000 
#    z 0.000000 0.000000 1.835840 
# 
# From -- ./inp_files/24468.got.cif
#   From: 2010.05.17/outbox.cif.g08.bks.cpg/sg69_13_cif.got.tgz:24468.got - 2010.06.03 19:29:58.
