data_PCOD9512244
_publ_section_title
;
Structure prediction by ZEFSAII (Michael W. Deem and Ramdas Pophale) SiO2 
 PCOD9512244
Probable space group: F M M M
;
_chemical_formula_sum "Si O2"
_cell_formula_units_Z 176
_cell_length_a 20.876772
_cell_length_b 28.116835
_cell_length_c 16.106877
_cell_angle_alpha 90.000000
_cell_angle_beta 90.000000
_cell_angle_gamma 90.000000
_cell_volume 9454.555656
_symmetry_space_group_name_H-M "F M M M"
_symmetry_group_IT_number 69
_symmetry_cell_setting 'orthorhombic'
loop_
_space_group_symop_operation_xyz
x,y,z
-x,-y,z
x,-y,-z
-x,y,-z
-x,-y,-z
x,y,-z
-x,y,z
x,-y,z
x,1/2+y,1/2+z
-x,1/2-y,1/2+z
x,1/2-y,1/2-z
-x,1/2+y,1/2-z
-x,1/2-y,1/2-z
x,1/2+y,1/2-z
-x,1/2+y,1/2+z
x,1/2-y,1/2+z
1/2+x,y,1/2+z
1/2-x,-y,1/2+z
1/2+x,-y,1/2-z
1/2-x,y,1/2-z
1/2-x,-y,1/2-z
1/2+x,y,1/2-z
1/2-x,y,1/2+z
1/2+x,-y,1/2+z
1/2+x,1/2+y,z
1/2-x,1/2-y,z
1/2+x,1/2-y,-z
1/2-x,1/2+y,-z
1/2-x,1/2-y,-z
1/2+x,1/2+y,-z
1/2-x,1/2+y,z
1/2+x,1/2-y,z
loop_
_atom_site_type_symbol
_atom_site_label
_atom_site_fract_x
_atom_site_fract_y
_atom_site_fract_z
Si Si1 0.077776 0.780457 0.000000
Si Si2 0.573776 0.443757 0.166274
Si Si3 0.119091 0.876802 0.598208
Si Si4 0.922413 0.111618 0.000000
Si Si5 0.422428 0.222573 0.165074
Si Si6 0.315455 0.554132 0.300896
Si Si7 0.000000 0.946537 0.401192
O O1 0.101364 0.834461 0.000000
O O2 0.095971 0.753387 0.084192
O O3 0.000000 0.781546 0.000000
O O4 0.500000 0.429895 0.189086
O O5 0.572520 0.500000 0.147901
O O6 0.594304 0.415814 0.083934
O O7 0.626315 0.436421 0.236971
O O8 0.118776 0.865479 0.500000
O O9 0.107556 0.829338 0.651153
O O10 0.180436 0.906414 0.627919
O O11 0.061497 0.914134 0.614752
O O12 0.000000 0.113009 0.000000
O O13 0.500000 0.216850 0.164753
O O14 0.405426 0.250000 0.250000
O O15 0.323074 0.500000 0.333432
O O16 0.250000 0.556368 0.250000
O O17 0.000000 0.953225 0.500000
O O18 0.000000 0.000000 0.362550
#
# Coordination Sequence:
#
# PCOD9512244 Si02
#       7
#    16  32  32  16  32  32  16
#     4   9  18  31  48  76 120 151 189 245 299 356
#     4   9  18  33  56  84 113 144 185 237 293 350
#     4  11  21  36  60  84 117 156 196 244 296 356
#     4   9  17  30  51  83 114 143 182 238 298 351
#     4  10  20  33  53  85 123 161 197 245 306 362
#     4  10  23  41  57  82 120 156 195 240 289 357
#     4   9  18  30  51  86 120 149 184 233 290 347
#
# _framework density 18.615365000000001
#
# number of rings (size 3 to 8) (size 9 to 14) (size 15 to 20)
#    0.000    2.273    1.818    0.818    3.818    2.182 
#    1.636    0.000    0.000    0.545    0.000    2.545 
#    0.000    0.000    0.000    0.000    0.000    0.000 
#
# Total GULP energy -245427.457056 kJ/mol
# GULP energy per Si atom -5577.896751 kJ/mol
# Density = 1.857300 g / cm^3
# Si number density = 18.615365 Si / 1000 Ang^3
#
#
#
# Elastic Constant Matrix: (Units=GPa)
#
#
# Indices 1 2 3 4 5 6 
#
# 1 39.3209 26.1014 23.7608 0.0000 0.0000 0.0000
# 2 26.1014 115.0362 76.4667 0.0000 0.0000 0.0000
# 3 23.7608 76.4667 111.5167 0.0000 0.0000 0.0000
# 4 0.0000 0.0000 0.0000 32.8002 0.0000 0.0000
# 5 0.0000 0.0000 0.0000 0.0000 12.1037 0.0000
# 6 0.0000 0.0000 0.0000 0.0000 0.0000 13.5521
#
#
#
# Elastic Compliance Matrix: (Units=1/GPa)
#
#
# Indices 1 2 3 4 5 6 
#
# 1 0.030561 -0.004788 -0.003228 0.000000 0.000000 0.000000
# 2 -0.004788 0.016724 -0.010447 0.000000 0.000000 0.000000
# 3 -0.003228 -0.010447 0.016819 0.000000 0.000000 0.000000
# 4 0.000000 0.000000 0.000000 0.030488 0.000000 0.000000
# 5 0.000000 0.000000 0.000000 0.000000 0.082619 0.000000
# 6 0.000000 0.000000 0.000000 0.000000 0.000000 0.073789
#
#
# Mechanical properties :
#
#
# Convention : Reuss Voigt Hill
#
# Bulk Modulus (GPa) = 36.79721 57.61464 47.20592
# Shear Modulus (GPa) = 16.83579 20.99419 18.91499
#
# Velocity S-wave (km/s) = 3.01059 3.36190 3.19108
# Velocity P-wave (km/s) = 5.64756 6.78874 6.24428
#
# Compressibility (1/GPa) = 0.02717598
#
# Stress axis : x y z
#
# Youngs Moduli (GPa) = 32.72132 59.79483 59.45738
#
# Poissons Ratio (x) = 0.28632 0.19195
# Poissons Ratio (y) = 0.15668 0.62117
# Poissons Ratio (z) = 0.10563 0.62469
#
# Static dielectric constant tensor:
#      x y z
#    x 1.658210 0.000000 0.000000 
#    y 0.000000 1.640320 0.000000 
#    z 0.000000 0.000000 1.658460 
# 
# From -- ./inp_files/18155.got.cif
#   From: 2010.05.17/outbox.cif.g08.bks.cpg/sg69_10_cif.got.tgz:18155.got - 2010.06.03 19:29:58.
