data_PCOD9512614
_publ_section_title
;
Structure prediction by ZEFSAII (Michael W. Deem and Ramdas Pophale) SiO2 
 PCOD9512614
Probable space group: F M M M
;
_chemical_formula_sum "Si O2"
_cell_formula_units_Z 160
_cell_length_a 29.887495
_cell_length_b 18.266277
_cell_length_c 13.614504
_cell_angle_alpha 90.000000
_cell_angle_beta 90.000000
_cell_angle_gamma 90.000000
_cell_volume 7432.610586
_symmetry_space_group_name_H-M "F M M M"
_symmetry_group_IT_number 69
_symmetry_cell_setting 'orthorhombic'
loop_
_space_group_symop_operation_xyz
x,y,z
-x,-y,z
x,-y,-z
-x,y,-z
-x,-y,-z
x,y,-z
-x,y,z
x,-y,z
x,1/2+y,1/2+z
-x,1/2-y,1/2+z
x,1/2-y,1/2-z
-x,1/2+y,1/2-z
-x,1/2-y,1/2-z
x,1/2+y,1/2-z
-x,1/2+y,1/2+z
x,1/2-y,1/2+z
1/2+x,y,1/2+z
1/2-x,-y,1/2+z
1/2+x,-y,1/2-z
1/2-x,y,1/2-z
1/2-x,-y,1/2-z
1/2+x,y,1/2-z
1/2-x,y,1/2+z
1/2+x,-y,1/2+z
1/2+x,1/2+y,z
1/2-x,1/2-y,z
1/2+x,1/2-y,-z
1/2-x,1/2+y,-z
1/2-x,1/2-y,-z
1/2+x,1/2+y,-z
1/2-x,1/2+y,z
1/2+x,1/2-y,z
loop_
_atom_site_type_symbol
_atom_site_label
_atom_site_fract_x
_atom_site_fract_y
_atom_site_fract_z
Si Si1 0.713286 0.083893 0.880328
Si Si2 0.551341 0.500000 0.275159
Si Si3 0.811192 0.860722 0.881579
Si Si4 0.644814 0.708949 0.619958
Si Si5 0.872593 0.000000 0.116914
Si Si6 0.949809 0.654121 0.118459
O O1 0.760942 0.118669 0.852085
O O2 0.673491 0.137854 0.849753
O O3 0.708965 0.000000 0.846055
O O4 0.712660 0.081294 0.000000
O O5 0.500000 0.500000 0.241636
O O6 0.583943 0.500000 0.183366
O O7 0.557830 0.572685 0.339968
O O8 0.831358 0.783721 0.848043
O O9 0.843477 0.928381 0.860252
O O10 0.809201 0.855474 0.000000
O O11 0.645446 0.709118 0.500000
O O12 0.592950 0.701866 0.649135
O O13 0.882241 0.000000 0.000000
O O14 0.000000 0.678389 0.148881
O O15 0.949715 0.650939 0.000000
#
# Coordination Sequence:
#
# PCOD9512614 Si02
#       6
#    32  16  32  32  16  32
#     4   9  15  24  43  76 114 147 183 226 269 324
#     4  10  21  37  57  82 110 143 182 226 277 332
#     4   9  16  30  49  74 108 149 189 227 272 319
#     4   9  17  27  48  81 113 145 183 225 274 331
#     4  10  20  36  58  77 103 144 191 234 271 314
#     4   9  18  34  56  83 114 144 175 220 280 338
#
# _framework density 21.526758000000001
#
# number of rings (size 3 to 8) (size 9 to 14) (size 15 to 20)
#    0.000    2.800    1.000    0.900    1.400    3.800 
#    0.000    2.000    0.000    8.400    0.000    2.800 
#    0.000    0.000    0.000    0.000    0.000    0.000 
#
# Total GULP energy -223669.185558 kJ/mol
# GULP energy per Si atom -5591.729639 kJ/mol
# Density = 2.147776 g / cm^3
# Si number density = 21.526758 Si / 1000 Ang^3
#
#
#
# Elastic Constant Matrix: (Units=GPa)
#
#
# Indices 1 2 3 4 5 6 
#
# 1 161.4889 103.8583 43.0579 0.0000 0.0000 0.0000
# 2 103.8583 168.0731 42.6575 0.0000 0.0000 0.0000
# 3 43.0579 42.6575 75.8138 0.0000 0.0000 0.0000
# 4 0.0000 0.0000 0.0000 22.4242 0.0000 0.0000
# 5 0.0000 0.0000 0.0000 0.0000 8.7253 0.0000
# 6 0.0000 0.0000 0.0000 0.0000 0.0000 138.1570
#
#
#
# Elastic Compliance Matrix: (Units=1/GPa)
#
#
# Indices 1 2 3 4 5 6 
#
# 1 0.010750 -0.005942 -0.002762 0.000000 0.000000 0.000000
# 2 -0.005942 0.010225 -0.002379 0.000000 0.000000 0.000000
# 3 -0.002762 -0.002379 0.016097 0.000000 0.000000 0.000000
# 4 0.000000 0.000000 0.000000 0.044595 0.000000 0.000000
# 5 0.000000 0.000000 0.000000 0.000000 0.114609 0.000000
# 6 0.000000 0.000000 0.000000 0.000000 0.000000 0.007238
#
#
# Mechanical properties :
#
#
# Convention : Reuss Voigt Hill
#
# Bulk Modulus (GPa) = 67.08157 87.16926 77.12541
# Shear Modulus (GPa) = 21.67789 48.24809 34.96299
#
# Velocity S-wave (km/s) = 3.17680 4.73938 4.03446
# Velocity P-wave (km/s) = 6.68474 8.39823 7.58999
#
# Compressibility (1/GPa) = 0.01490722
#
# Stress axis : x y z
#
# Youngs Moduli (GPa) = 93.02054 97.79726 62.12175
#
# Poissons Ratio (x) = 0.58110 0.17160
# Poissons Ratio (y) = 0.55272 0.14777
# Poissons Ratio (z) = 0.25695 0.23263
#
# Static dielectric constant tensor:
#      x y z
#    x 1.752130 0.000000 0.000000 
#    y 0.000000 1.733970 0.000000 
#    z 0.000000 0.000000 1.806710 
# 
# From -- ./inp_files/19587.got.cif
#   From: 2010.05.17/outbox.cif.g08.bks.cpg/sg69_10_cif.got.tgz:19587.got - 2010.06.03 19:29:58.
