data_PCOD9512595
_publ_section_title
;
Structure prediction by ZEFSAII (Michael W. Deem and Ramdas Pophale) SiO2 
 PCOD9512595
Probable space group: F M M M
;
_chemical_formula_sum "Si O2"
_cell_formula_units_Z 160
_cell_length_a 29.651670
_cell_length_b 32.357167
_cell_length_c 8.160376
_cell_angle_alpha 90.000000
_cell_angle_beta 90.000000
_cell_angle_gamma 90.000000
_cell_volume 7829.424101
_symmetry_space_group_name_H-M "F M M M"
_symmetry_group_IT_number 69
_symmetry_cell_setting 'orthorhombic'
loop_
_space_group_symop_operation_xyz
x,y,z
-x,-y,z
x,-y,-z
-x,y,-z
-x,-y,-z
x,y,-z
-x,y,z
x,-y,z
x,1/2+y,1/2+z
-x,1/2-y,1/2+z
x,1/2-y,1/2-z
-x,1/2+y,1/2-z
-x,1/2-y,1/2-z
x,1/2+y,1/2-z
-x,1/2+y,1/2+z
x,1/2-y,1/2+z
1/2+x,y,1/2+z
1/2-x,-y,1/2+z
1/2+x,-y,1/2-z
1/2-x,y,1/2-z
1/2-x,-y,1/2-z
1/2+x,y,1/2-z
1/2-x,y,1/2+z
1/2+x,-y,1/2+z
1/2+x,1/2+y,z
1/2-x,1/2-y,z
1/2+x,1/2-y,-z
1/2-x,1/2+y,-z
1/2-x,1/2-y,-z
1/2+x,1/2+y,-z
1/2-x,1/2+y,z
1/2+x,1/2-y,z
loop_
_atom_site_type_symbol
_atom_site_label
_atom_site_fract_x
_atom_site_fract_y
_atom_site_fract_z
Si Si1 0.100169 0.202445 0.304122
Si Si2 0.500000 0.202290 0.802498
Si Si3 0.054095 0.000000 0.316258
Si Si4 0.859346 0.624526 0.304037
Si Si5 0.449899 0.089235 0.693864
Si Si6 0.197932 0.045645 0.304218
O O1 0.098478 0.201571 0.500000
O O2 0.106135 0.250000 0.250000
O O3 0.140726 0.172594 0.246213
O O4 0.049618 0.188221 0.240885
O O5 0.500000 0.250000 0.750000
O O6 0.500000 0.197968 0.000000
O O7 0.063209 0.958572 0.218835
O O8 0.074043 0.000000 0.500000
O O9 0.000000 0.000000 0.334302
O O10 0.860490 0.623358 0.500000
O O11 0.907860 0.612012 0.228907
O O12 0.825897 0.587848 0.253062
O O13 0.452230 0.097652 0.500000
O O14 0.500000 0.096834 0.764225
O O15 0.195424 0.045335 0.500000
O O16 0.250000 0.047187 0.250000
O O17 0.179932 0.000000 0.246548
#
# Coordination Sequence:
#
# PCOD9512595 Si02
#       6
#    32  16  16  32  32  32
#     4  10  20  36  56  81 115 155 201 251 301 351
#     4   8  16  30  50  76 107 150 199 248 298 347
#     4   9  17  29  45  65  92 133 182 231 279 327
#     4  11  23  36  57  87 117 154 198 244 295 351
#     4   9  19  34  49  70 106 152 196 236 280 335
#     4  10  22  42  67  93 121 152 190 240 297 356
#
# _framework density 20.43573
#
# number of rings (size 3 to 8) (size 9 to 14) (size 15 to 20)
#    0.000    2.300    0.000    2.100    2.800    4.800 
#    0.000    0.000    0.000    0.600    0.000    4.200 
#    0.000    0.000    0.000    0.000    0.000    0.000 
#
# Total GULP energy -222779.511957 kJ/mol
# GULP energy per Si atom -5569.487799 kJ/mol
# Density = 2.038922 g / cm^3
# Si number density = 20.435730 Si / 1000 Ang^3
#
#
#
# Elastic Constant Matrix: (Units=GPa)
#
#
# Indices 1 2 3 4 5 6 
#
# 1 62.8365 63.8681 14.2670 0.0154 -0.0042 -7.0332
# 2 63.8681 142.2720 18.4497 -0.0054 -0.0104 5.3409
# 3 14.2670 18.4497 52.4939 0.0129 -0.0076 -1.8063
# 4 0.0154 -0.0054 0.0129 18.5712 -0.0124 8.0672
# 5 -0.0042 -0.0104 -0.0076 -0.0124 17.8468 4.7388
# 6 -7.0332 5.3409 -1.8063 8.0672 4.7388-4263.2834
#
#
#
# Elastic Compliance Matrix: (Units=1/GPa)
#
#
# Indices 1 2 3 4 5 6 
#
# 1 0.029878 -0.012947 -0.003572 0.000002 0.000015 -0.000064
# 2 -0.012947 0.012974 -0.001040 -0.000001 -0.000006 0.000038
# 3 -0.003572 -0.001040 0.020386 -0.000010 0.000008 -0.000004
# 4 0.000002 -0.000001 -0.000010 0.053802 0.000010 0.000102
# 5 0.000015 -0.000006 0.000008 0.000010 0.056016 0.000062
# 6 -0.000064 0.000038 -0.000004 0.000102 0.000062 -0.000234
#
#
# Mechanical properties :
#
#
# Convention : Reuss Voigt Hill
#
# Bulk Modulus (GPa) = 35.56173 50.08580 42.82377
# Shear Modulus (GPa) = 23.00825 -834.63856 -405.81515
#
# Velocity S-wave (km/s) = 3.35906 -20.23136 -14.10717
# Velocity P-wave (km/s) = 5.69946 22.82940 15.63166
#
# Compressibility (1/GPa) = 0.02812012
#
# Stress axis : x y z
#
# Youngs Moduli (GPa) = 33.46983 77.07551 49.05322
#
# Poissons Ratio (x) = 0.99789 0.17522
# Poissons Ratio (y) = 0.43333 0.05101
# Poissons Ratio (z) = 0.11956 0.08015
#
# Static dielectric constant tensor:
#      x y z
#    x 1.772020 0.000040 0.000050 
#    y 0.000040 1.837360 -0.000030 
#    z 0.000050 -0.000030 1.708920 
# 
# From -- ./inp_files/5800.got.cif
#   From: 2010.05.17/outbox.cif.g08.bks.cpg/sg69_3_cif.got.tgz:5800.got - 2010.06.03 19:29:58.
