data_PCOD9512330
_publ_section_title
;
Structure prediction by ZEFSAII (Michael W. Deem and Ramdas Pophale) SiO2 
 PCOD9512330
Probable space group: F M M M
;
_chemical_formula_sum "Si O2"
_cell_formula_units_Z 160
_cell_length_a 29.751996
_cell_length_b 8.917853
_cell_length_c 30.478693
_cell_angle_alpha 90.000000
_cell_angle_beta 90.000000
_cell_angle_gamma 90.000000
_cell_volume 8086.726510
_symmetry_space_group_name_H-M "F M M M"
_symmetry_group_IT_number 69
_symmetry_cell_setting 'orthorhombic'
loop_
_space_group_symop_operation_xyz
x,y,z
-x,-y,z
x,-y,-z
-x,y,-z
-x,-y,-z
x,y,-z
-x,y,z
x,-y,z
x,1/2+y,1/2+z
-x,1/2-y,1/2+z
x,1/2-y,1/2-z
-x,1/2+y,1/2-z
-x,1/2-y,1/2-z
x,1/2+y,1/2-z
-x,1/2+y,1/2+z
x,1/2-y,1/2+z
1/2+x,y,1/2+z
1/2-x,-y,1/2+z
1/2+x,-y,1/2-z
1/2-x,y,1/2-z
1/2-x,-y,1/2-z
1/2+x,y,1/2-z
1/2-x,y,1/2+z
1/2+x,-y,1/2+z
1/2+x,1/2+y,z
1/2-x,1/2-y,z
1/2+x,1/2-y,-z
1/2-x,1/2+y,-z
1/2-x,1/2-y,-z
1/2+x,1/2+y,-z
1/2-x,1/2+y,z
1/2+x,1/2-y,z
loop_
_atom_site_type_symbol
_atom_site_label
_atom_site_fract_x
_atom_site_fract_y
_atom_site_fract_z
Si Si1 0.897561 0.179544 0.204050
Si Si2 0.500000 0.680435 0.948158
Si Si3 0.429233 0.828479 0.883405
Si Si4 0.795565 0.820857 0.823691
Si Si5 0.798942 0.822176 0.000000
Si Si6 0.325748 0.328976 0.588195
O O1 0.912138 0.250000 0.250000
O O2 0.926012 0.244697 0.163336
O O3 0.844116 0.217681 0.197586
O O4 0.900929 0.000000 0.204427
O O5 0.500000 0.500000 0.946677
O O6 0.458019 0.744645 0.920444
O O7 0.500000 0.724684 0.000000
O O8 0.377772 0.834314 0.898910
O O9 0.445122 0.000000 0.878129
O O10 0.750000 0.750000 0.804170
O O11 0.800309 0.755471 0.872789
O O12 0.791326 0.000000 0.823992
O O13 0.750000 0.750000 0.000000
O O14 0.822007 0.760753 0.956517
O O15 0.796942 0.000000 0.000000
O O16 0.308798 0.500000 0.583525
#
# Coordination Sequence:
#
# PCOD9512330 Si02
#       6
#    32  16  32  32  16  32
#     4  10  21  38  61  88 121 160 203 249 302 360
#     4  11  25  43  66  97 130 161 195 239 293 355
#     4  10  22  41  65  91 121 157 197 244 297 356
#     4  10  20  34  53  79 113 155 200 249 299 350
#     4  12  24  36  52  75 108 149 196 246 293 348
#     4  10  21  37  56  79 110 149 194 243 296 353
#
# _framework density 19.785508
#
# number of rings (size 3 to 8) (size 9 to 14) (size 15 to 20)
#    0.000    1.700    0.000    4.200    1.400    6.000 
#    0.000    2.500    0.000    0.000    0.000    0.000 
#    0.000    0.000    0.000    0.000    0.000    0.000 
#
# Total GULP energy -223438.272819 kJ/mol
# GULP energy per Si atom -5585.956820 kJ/mol
# Density = 1.974048 g / cm^3
# Si number density = 19.785508 Si / 1000 Ang^3
#
#
#
# Elastic Constant Matrix: (Units=GPa)
#
#
# Indices 1 2 3 4 5 6 
#
# 1 67.4919 25.0801 33.1623 0.0000 0.0000 -0.0001
# 2 25.0801 106.8244 70.5556 0.0000 0.0000 0.0000
# 3 33.1623 70.5556 173.7977 0.0000 0.0000 0.0000
# 4 0.0000 0.0000 0.0000 31.3251 0.0000 0.0000
# 5 0.0000 0.0000 0.0000 0.0000 0.7690 0.0000
# 6 -0.0001 0.0000 0.0000 0.0000 0.0000 30.9940
#
#
#
# Elastic Compliance Matrix: (Units=1/GPa)
#
#
# Indices 1 2 3 4 5 6 
#
# 1 0.016824 -0.002500 -0.002195 0.000000 0.000000 0.000000
# 2 -0.002500 0.013162 -0.004866 0.000000 0.000000 0.000000
# 3 -0.002195 -0.004866 0.008148 0.000000 0.000000 0.000000
# 4 0.000000 0.000000 0.000000 0.031923 0.000000 0.000000
# 5 0.000000 0.000000 0.000000 0.000000 1.300308 0.000001
# 6 0.000000 0.000000 0.000000 0.000000 0.000001 0.032264
#
#
# Mechanical properties :
#
#
# Convention : Reuss Voigt Hill
#
# Bulk Modulus (GPa) = 52.60004 67.30113 59.95059
# Shear Modulus (GPa) = 3.50118 27.23869 15.36993
#
# Velocity S-wave (km/s) = 1.33169 3.71441 2.79019
# Velocity P-wave (km/s) = 5.38585 7.24466 6.38328
#
# Compressibility (1/GPa) = 0.01901139
#
# Stress axis : x y z
#
# Youngs Moduli (GPa) = 59.43794 75.97481 122.72527
#
# Poissons Ratio (x) = 0.18994 0.26942
# Poissons Ratio (y) = 0.14860 0.59723
# Poissons Ratio (z) = 0.13049 0.36972
#
# Static dielectric constant tensor:
#      x y z
#    x 1.710570 0.000000 0.000000 
#    y 0.000000 1.673810 0.000000 
#    z 0.000000 0.000000 1.663730 
# 
# From -- ./inp_files/5789.got.cif
#   From: 2010.05.17/outbox.cif.g08.bks.cpg/sg69_3_cif.got.tgz:5789.got - 2010.06.03 19:29:58.
