data_PCOD9512835
_publ_section_title
;
Structure prediction by ZEFSAII (Michael W. Deem and Ramdas Pophale) SiO2 
 PCOD9512835
Probable space group: F M M M
;
_chemical_formula_sum "Si O2"
_cell_formula_units_Z 208
_cell_length_a 28.008222
_cell_length_b 18.197058
_cell_length_c 23.606334
_cell_angle_alpha 90.000000
_cell_angle_beta 90.000000
_cell_angle_gamma 90.000000
_cell_volume 12031.375101
_symmetry_space_group_name_H-M "F M M M"
_symmetry_group_IT_number 69
_symmetry_cell_setting 'orthorhombic'
loop_
_space_group_symop_operation_xyz
x,y,z
-x,-y,z
x,-y,-z
-x,y,-z
-x,-y,-z
x,y,-z
-x,y,z
x,-y,z
x,1/2+y,1/2+z
-x,1/2-y,1/2+z
x,1/2-y,1/2-z
-x,1/2+y,1/2-z
-x,1/2-y,1/2-z
x,1/2+y,1/2-z
-x,1/2+y,1/2+z
x,1/2-y,1/2+z
1/2+x,y,1/2+z
1/2-x,-y,1/2+z
1/2+x,-y,1/2-z
1/2-x,y,1/2-z
1/2-x,-y,1/2-z
1/2+x,y,1/2-z
1/2-x,y,1/2+z
1/2+x,-y,1/2+z
1/2+x,1/2+y,z
1/2-x,1/2-y,z
1/2+x,1/2-y,-z
1/2-x,1/2+y,-z
1/2-x,1/2-y,-z
1/2+x,1/2+y,-z
1/2-x,1/2+y,z
1/2+x,1/2-y,z
loop_
_atom_site_type_symbol
_atom_site_label
_atom_site_fract_x
_atom_site_fract_y
_atom_site_fract_z
Si Si1 0.500000 0.913968 0.432028
Si Si2 0.442760 0.584053 0.642230
Si Si3 0.705875 0.584966 0.431163
Si Si4 0.444595 0.837560 0.741599
Si Si5 0.903949 0.344364 0.619844
Si Si6 0.616378 0.685181 0.567720
Si Si7 0.312030 0.911902 0.435526
O O1 0.500000 0.911115 0.500000
O O2 0.547962 0.874820 0.409817
O O3 0.500000 0.000000 0.414723
O O4 0.500000 0.585744 0.641526
O O5 0.426570 0.500000 0.641423
O O6 0.427962 0.623339 0.700882
O O7 0.423270 0.627880 0.588667
O O8 0.706842 0.582464 0.500000
O O9 0.696217 0.500000 0.412808
O O10 0.665920 0.644464 0.415797
O O11 0.759298 0.608472 0.413541
O O12 0.500000 0.860186 0.730878
O O13 0.444799 0.750000 0.750000
O O14 0.413499 0.852823 0.686435
O O15 0.894405 0.260767 0.600114
O O16 0.857002 0.387191 0.600283
O O17 0.615829 0.696822 0.500000
O O18 0.317676 0.882992 0.500000
O O19 0.311497 0.000000 0.438631
#
# Coordination Sequence:
#
# PCOD9512835 Si02
#       7
#    16  32  32  32  32  32  32
#     4  11  24  38  51  78 121 157 185 226 280 338
#     4  10  22  38  57  81 109 145 190 236 280 334
#     4   8  16  33  55  78 110 150 186 223 271 331
#     4  10  20  39  58  74 105 146 189 239 278 321
#     4  12  22  35  56  83 112 146 192 231 279 335
#     4  11  22  34  55  86 117 149 183 226 282 342
#     4   9  18  34  55  81 114 148 184 228 277 330
#
# _framework density 17.288132000000001
#
# number of rings (size 3 to 8) (size 9 to 14) (size 15 to 20)
#    0.000    1.923    2.308    3.231    1.077    4.308 
#    0.000    3.077    0.000    0.923    0.000    3.231 
#    0.000    0.000    0.000    0.000    0.000    0.000 
#
# Total GULP energy -289992.333094 kJ/mol
# GULP energy per Si atom -5576.775636 kJ/mol
# Density = 1.724878 g / cm^3
# Si number density = 17.288132 Si / 1000 Ang^3
#
#
#
# Elastic Constant Matrix: (Units=GPa)
#
#
# Indices 1 2 3 4 5 6 
#
# 1 91.7203 37.7592 17.9998 0.0000 0.0000 0.0000
# 2 37.7592 60.2210 -6.1374 0.0000 0.0000 0.0000
# 3 17.9998 -6.1374 27.4518 0.0000 0.0000 0.0000
# 4 0.0000 0.0000 0.0000 21.6094 0.0000 0.0000
# 5 0.0000 0.0000 0.0000 0.0000 8.6132 0.0000
# 6 0.0000 0.0000 0.0000 0.0000 0.0000 30.5531
#
#
#
# Elastic Compliance Matrix: (Units=1/GPa)
#
#
# Indices 1 2 3 4 5 6 
#
# 1 0.019900 -0.014129 -0.016207 0.000000 0.000000 0.000000
# 2 -0.014129 0.027025 0.015306 0.000000 0.000000 0.000000
# 3 -0.016207 0.015306 0.050476 0.000000 0.000000 0.000000
# 4 0.000000 0.000000 0.000000 0.046276 0.000000 0.000000
# 5 0.000000 0.000000 0.000000 0.000000 0.116101 0.000000
# 6 0.000000 0.000000 0.000000 0.000000 0.000000 0.032730
#
#
# Mechanical properties :
#
#
# Convention : Reuss Voigt Hill
#
# Bulk Modulus (GPa) = 14.84984 30.95958 22.90471
# Shear Modulus (GPa) = 14.49216 20.80658 17.64937
#
# Velocity S-wave (km/s) = 2.89843 3.47294 3.19861
# Velocity P-wave (km/s) = 4.45078 5.83341 5.18836
#
# Compressibility (1/GPa) = 0.06734082
#
# Stress axis : x y z
#
# Youngs Moduli (GPa) = 50.25135 37.00327 19.81133
#
# Poissons Ratio (x) = 0.52283 0.32108
# Poissons Ratio (y) = 0.71001 -0.30324
# Poissons Ratio (z) = 0.81442 -0.56638
#
# Static dielectric constant tensor:
#      x y z
#    x 1.592500 0.000000 0.000000 
#    y 0.000000 1.600310 0.000000 
#    z 0.000000 0.000000 1.573450 
# 
# From -- ./inp_files/38482.got.cif
#   From: 2010.05.17/outbox.cif.g08.bks.cpg/sg69_20_cif.got.tgz:38482.got - 2010.06.03 19:29:58.
