data_PCOD9512937
_publ_section_title
;
Structure prediction by ZEFSAII (Michael W. Deem and Ramdas Pophale) SiO2 
 PCOD9512937
Probable space group: F M M M
;
_chemical_formula_sum "Si O2"
_cell_formula_units_Z 224
_cell_length_a 20.595799
_cell_length_b 27.411889
_cell_length_c 20.415057
_cell_angle_alpha 90.000000
_cell_angle_beta 90.000000
_cell_angle_gamma 90.000000
_cell_volume 11525.723750
_symmetry_space_group_name_H-M "F M M M"
_symmetry_group_IT_number 69
_symmetry_cell_setting 'orthorhombic'
loop_
_space_group_symop_operation_xyz
x,y,z
-x,-y,z
x,-y,-z
-x,y,-z
-x,-y,-z
x,y,-z
-x,y,z
x,-y,z
x,1/2+y,1/2+z
-x,1/2-y,1/2+z
x,1/2-y,1/2-z
-x,1/2+y,1/2-z
-x,1/2-y,1/2-z
x,1/2+y,1/2-z
-x,1/2+y,1/2+z
x,1/2-y,1/2+z
1/2+x,y,1/2+z
1/2-x,-y,1/2+z
1/2+x,-y,1/2-z
1/2-x,y,1/2-z
1/2-x,-y,1/2-z
1/2+x,y,1/2-z
1/2-x,y,1/2+z
1/2+x,-y,1/2+z
1/2+x,1/2+y,z
1/2-x,1/2-y,z
1/2+x,1/2-y,-z
1/2-x,1/2+y,-z
1/2-x,1/2-y,-z
1/2+x,1/2+y,-z
1/2-x,1/2+y,z
1/2+x,1/2-y,z
loop_
_atom_site_type_symbol
_atom_site_label
_atom_site_fract_x
_atom_site_fract_y
_atom_site_fract_z
Si Si1 0.834558 0.190134 0.429559
Si Si2 0.620988 0.120799 0.173239
Si Si3 0.500000 0.941590 0.783854
Si Si4 0.138511 0.941041 0.924507
Si Si5 0.244791 0.442095 0.171359
Si Si6 0.000000 0.558951 0.627379
Si Si7 0.819026 0.806373 0.073909
Si Si8 0.826003 0.194365 0.773992
O O1 0.854919 0.171952 0.500000
O O2 0.881157 0.164486 0.378617
O O3 0.833329 0.248499 0.428485
O O4 0.757506 0.180421 0.422133
O O5 0.562009 0.084773 0.185166
O O6 0.682271 0.088358 0.151572
O O7 0.636767 0.151129 0.238165
O O8 0.500000 0.933153 0.705299
O O9 0.500000 0.000000 0.793914
O O10 0.192862 0.926467 0.871458
O O11 0.066816 0.922510 0.904958
O O12 0.135719 0.000000 0.920534
O O13 0.154757 0.929543 0.000000
O O14 0.235832 0.500000 0.160530
O O15 0.250000 0.435375 0.250000
O O16 0.000000 0.500000 0.617791
O O17 0.839102 0.815293 0.149283
O O18 0.840795 0.823558 0.000000
O O19 0.843538 0.250000 0.750000
O O20 0.750000 0.190030 0.750000
#
# Coordination Sequence:
#
# PCOD9512937 Si02
#       8
#    32  32  16  32  32  16  32  32
#     4   9  17  31  55  87 120 154 190 235 301 375
#     4  12  22  36  60  83 115 157 210 268 315 364
#     4  11  26  45  62  80 108 163 231 280 323 372
#     4   9  17  31  55  85 113 146 191 244 308 375
#     4  10  21  35  52  78 113 152 197 256 320 371
#     4   9  17  34  57  78 111 154 196 243 301 375
#     4   9  16  31  54  87 130 164 184 220 295 386
#     4  11  18  31  56  95 130 155 184 241 306 381
#
# _framework density 19.434787
#
# number of rings (size 3 to 8) (size 9 to 14) (size 15 to 20)
#    0.000    2.000    2.857    3.643    0.000    3.714 
#    0.000    0.714    0.000    2.571    0.000    0.000 
#    0.000    0.000    0.000    0.000    0.000    0.000 
#
# Total GULP energy -311863.568586 kJ/mol
# GULP energy per Si atom -5568.992296 kJ/mol
# Density = 1.939055 g / cm^3
# Si number density = 19.434787 Si / 1000 Ang^3
#
#
#
# Elastic Constant Matrix: (Units=GPa)
#
#
# Indices 1 2 3 4 5 6 
#
# 1 100.5734 42.6039 54.8590 0.0000 0.0000 0.0000
# 2 42.6039 100.3218 32.0933 0.0000 0.0000 0.0000
# 3 54.8590 32.0933 168.7437 0.0000 0.0000 0.0000
# 4 0.0000 0.0000 0.0000 -2.2598 0.0000 0.0000
# 5 0.0000 0.0000 0.0000 0.0000 18.6585 0.0000
# 6 0.0000 0.0000 0.0000 0.0000 0.0000 25.7972
#
#
#
# Elastic Compliance Matrix: (Units=1/GPa)
#
#
# Indices 1 2 3 4 5 6 
#
# 1 0.013936 -0.004759 -0.003626 0.000000 0.000000 0.000000
# 2 -0.004759 0.012238 -0.000781 0.000000 0.000000 0.000000
# 3 -0.003626 -0.000781 0.007253 0.000000 0.000000 0.000000
# 4 0.000000 0.000000 0.000000 -0.442525 0.000000 0.000000
# 5 0.000000 0.000000 0.000000 0.000000 0.053595 0.000000
# 6 0.000000 0.000000 0.000000 0.000000 0.000000 0.038764
#
#
# Mechanical properties :
#
#
# Convention : Reuss Voigt Hill
#
# Bulk Modulus (GPa) = 66.23190 69.86125 68.04658
# Shear Modulus (GPa) = -17.04300 24.44471 3.70086
#
# Velocity S-wave (km/s) = -2.96452 3.55037 1.38144
# Velocity P-wave (km/s) = 4.73658 7.26852 6.13460
#
# Compressibility (1/GPa) = 0.01509846
#
# Stress axis : x y z
#
# Youngs Moduli (GPa) = 71.75424 81.70962 137.86724
#
# Poissons Ratio (x) = 0.38882 0.49987
# Poissons Ratio (y) = 0.34145 0.10762
# Poissons Ratio (z) = 0.26016 0.06378
#
# Static dielectric constant tensor:
#      x y z
#    x 1.721510 0.000000 0.000000 
#    y 0.000000 1.710680 0.000000 
#    z 0.000000 0.000000 1.787300 
# 
# From -- ./inp_files/31218.got.cif
#   From: 2010.05.17/outbox.cif.g08.bks.cpg/sg69_16_cif.got.tgz:31218.got - 2010.06.03 19:29:58.
