data_PCOD9512127
_publ_section_title
;
Structure prediction by ZEFSAII (Michael W. Deem and Ramdas Pophale) SiO2 
 PCOD9512127
Probable space group: F M M M
;
_chemical_formula_sum "Si O2"
_cell_formula_units_Z 144
_cell_length_a 27.824990
_cell_length_b 35.337146
_cell_length_c 8.582947
_cell_angle_alpha 90.000000
_cell_angle_beta 90.000000
_cell_angle_gamma 90.000000
_cell_volume 8439.231853
_symmetry_space_group_name_H-M "F M M M"
_symmetry_group_IT_number 69
_symmetry_cell_setting 'orthorhombic'
loop_
_space_group_symop_operation_xyz
x,y,z
-x,-y,z
x,-y,-z
-x,y,-z
-x,-y,-z
x,y,-z
-x,y,z
x,-y,z
x,1/2+y,1/2+z
-x,1/2-y,1/2+z
x,1/2-y,1/2-z
-x,1/2+y,1/2-z
-x,1/2-y,1/2-z
x,1/2+y,1/2-z
-x,1/2+y,1/2+z
x,1/2-y,1/2+z
1/2+x,y,1/2+z
1/2-x,-y,1/2+z
1/2+x,-y,1/2-z
1/2-x,y,1/2-z
1/2-x,-y,1/2-z
1/2+x,y,1/2-z
1/2-x,y,1/2+z
1/2+x,-y,1/2+z
1/2+x,1/2+y,z
1/2-x,1/2-y,z
1/2+x,1/2-y,-z
1/2-x,1/2+y,-z
1/2-x,1/2-y,-z
1/2+x,1/2+y,-z
1/2-x,1/2+y,z
1/2+x,1/2-y,z
loop_
_atom_site_type_symbol
_atom_site_label
_atom_site_fract_x
_atom_site_fract_y
_atom_site_fract_z
Si Si1 0.057986 0.000000 0.323043
Si Si2 0.942781 0.789506 0.322894
Si Si3 0.055856 0.081407 0.187707
Si Si4 0.119095 0.150322 0.818508
Si Si5 0.303585 0.291657 0.314426
O O1 0.070046 0.039059 0.237590
O O2 0.076260 0.000000 0.500000
O O3 0.000000 0.000000 0.328822
O O4 0.924185 0.794644 0.500000
O O5 0.927089 0.750000 0.250000
O O6 0.925669 0.821749 0.207604
O O7 0.000000 0.789350 0.331414
O O8 0.096662 0.110921 0.243405
O O9 0.000000 0.088885 0.241524
O O10 0.054633 0.083951 0.000000
O O11 0.161866 0.173874 0.737345
O O12 0.131299 0.145940 0.000000
O O13 0.302291 0.289270 0.500000
O O14 0.318451 0.250000 0.250000
O O15 0.250000 0.298365 0.250000
#
# Coordination Sequence:
#
# PCOD9512127 Si02
#       5
#    16  32  32  32  32
#     4   9  17  29  47  71 100 133 168 207 247 287
#     4  10  20  32  45  63  91 128 166 202 240 285
#     4   9  18  32  50  72 101 137 172 204 241 290
#     4  11  21  33  50  73  99 128 164 205 249 295
#     4  11  22  38  57  76  99 128 165 209 256 303
#
# _framework density 17.063164
#
# number of rings (size 3 to 8) (size 9 to 14) (size 15 to 20)
#    0.000    1.889    0.000    5.667    0.000    5.333 
#    0.000    2.222    0.000    0.000    0.000    0.778 
#    0.000    0.000    0.000    0.000    0.000    0.000 
#
# Total GULP energy -200636.852660 kJ/mol
# GULP energy per Si atom -5573.245907 kJ/mol
# Density = 1.702433 g / cm^3
# Si number density = 17.063164 Si / 1000 Ang^3
#
#
#
# Elastic Constant Matrix: (Units=GPa)
#
#
# Indices 1 2 3 4 5 6 
#
# 1 94.5296 56.0304 34.6290 -0.0175 0.0437 0.0016
# 2 56.0304 137.4409 21.7899 -0.0062 0.0083 0.0004
# 3 34.6290 21.7899 62.0199 -0.0186 0.0554 -0.0021
# 4 -0.0175 -0.0062 -0.0186 18.9639 0.0186 -0.0004
# 5 0.0437 0.0083 0.0554 0.0186 17.7573 -0.0014
# 6 0.0016 0.0004 -0.0021 -0.0004 -0.0014 24.1991
#
#
#
# Elastic Compliance Matrix: (Units=1/GPa)
#
#
# Indices 1 2 3 4 5 6 
#
# 1 0.016565 -0.005598 -0.007282 0.000006 -0.000015 -0.000002
# 2 -0.005598 0.009597 -0.000246 -0.000002 0.000010 0.000000
# 3 -0.007282 -0.000246 0.020276 0.000013 -0.000045 0.000002
# 4 0.000006 -0.000002 0.000013 0.052732 -0.000055 0.000001
# 5 -0.000015 0.000010 -0.000045 -0.000055 0.056315 0.000003
# 6 -0.000002 0.000000 0.000002 0.000001 0.000003 0.041324
#
#
# Mechanical properties :
#
#
# Convention : Reuss Voigt Hill
#
# Bulk Modulus (GPa) = 49.54092 57.65434 53.59763
# Shear Modulus (GPa) = 21.75901 24.28680 23.02291
#
# Velocity S-wave (km/s) = 3.57487 3.77682 3.67723
# Velocity P-wave (km/s) = 6.79239 7.27195 7.03626
#
# Compressibility (1/GPa) = 0.02018533
#
# Stress axis : x y z
#
# Youngs Moduli (GPa) = 60.36960 104.19758 49.31891
#
# Poissons Ratio (x) = 0.58334 0.35914
# Poissons Ratio (y) = 0.33797 0.01213
# Poissons Ratio (z) = 0.43961 0.02563
#
# Static dielectric constant tensor:
#      x y z
#    x 1.597630 0.000010 0.000010 
#    y 0.000010 1.526750 0.000060 
#    z 0.000010 0.000060 1.601900 
# 
# From -- ./inp_files/5621.got.cif
#   From: 2010.05.17/outbox.cif.g08.bks.cpg/sg69_3_cif.got.tgz:5621.got - 2010.06.03 19:29:58.
