data_PCOD9512156
_publ_section_title
;
Structure prediction by ZEFSAII (Michael W. Deem and Ramdas Pophale) SiO2 
 PCOD9512156
Probable space group: F M M M
;
_chemical_formula_sum "Si O2"
_cell_formula_units_Z 208
_cell_length_a 16.973109
_cell_length_b 19.584015
_cell_length_c 30.899573
_cell_angle_alpha 90.000000
_cell_angle_beta 90.000000
_cell_angle_gamma 90.000000
_cell_volume 10271.068161
_symmetry_space_group_name_H-M "F M M M"
_symmetry_group_IT_number 69
_symmetry_cell_setting 'orthorhombic'
loop_
_space_group_symop_operation_xyz
x,y,z
-x,-y,z
x,-y,-z
-x,y,-z
-x,-y,-z
x,y,-z
-x,y,z
x,-y,z
x,1/2+y,1/2+z
-x,1/2-y,1/2+z
x,1/2-y,1/2-z
-x,1/2+y,1/2-z
-x,1/2-y,1/2-z
x,1/2+y,1/2-z
-x,1/2+y,1/2+z
x,1/2-y,1/2+z
1/2+x,y,1/2+z
1/2-x,-y,1/2+z
1/2+x,-y,1/2-z
1/2-x,y,1/2-z
1/2-x,-y,1/2-z
1/2+x,y,1/2-z
1/2-x,y,1/2+z
1/2+x,-y,1/2+z
1/2+x,1/2+y,z
1/2-x,1/2-y,z
1/2+x,1/2-y,-z
1/2-x,1/2+y,-z
1/2-x,1/2-y,-z
1/2+x,1/2+y,-z
1/2-x,1/2+y,z
1/2+x,1/2-y,z
loop_
_atom_site_type_symbol
_atom_site_label
_atom_site_fract_x
_atom_site_fract_y
_atom_site_fract_z
Si Si1 0.616602 0.922395 0.050089
Si Si2 0.329483 0.417497 0.800441
Si Si3 0.912011 0.177636 0.369602
Si Si4 0.913621 0.919273 0.114007
Si Si5 0.143332 0.582167 0.794638
Si Si6 0.750000 0.750000 0.389314
Si Si7 0.290609 0.624592 0.950773
O O1 0.591609 0.866766 0.085661
O O2 0.711781 0.920401 0.051103
O O3 0.591140 0.000000 0.060197
O O4 0.594089 0.906606 0.000000
O O5 0.333197 0.500000 0.799647
O O6 0.369276 0.390794 0.843829
O O7 0.236508 0.402780 0.801526
O O8 0.369869 0.396549 0.755358
O O9 0.903724 0.123991 0.330160
O O10 0.832386 0.224463 0.367160
O O11 0.000000 0.209794 0.367809
O O12 0.864264 0.911429 0.070745
O O13 0.000000 0.889188 0.109846
O O14 0.919980 0.000000 0.122142
O O15 0.131657 0.500000 0.799011
O O16 0.725406 0.811312 0.420519
O O17 0.304541 0.644768 0.000000
#
# Coordination Sequence:
#
# PCOD9512156 Si02
#       7
#    32  32  32  32  32  16  32
#     4   9  18  33  54  81 113 145 173 211 275 348
#     4   8  15  30  52  80 116 153 181 209 262 337
#     4  11  23  37  56  82 111 147 192 238 282 331
#     4  10  20  32  50  81 117 146 173 215 275 336
#     4   9  17  31  56  88 115 141 178 224 274 334
#     4  10  23  42  58  75 106 148 192 243 287 328
#     4  10  20  36  58  78  99 139 193 238 274 319
#
# _framework density 20.251059000000001
#
# number of rings (size 3 to 8) (size 9 to 14) (size 15 to 20)
#    0.000    2.462    0.000    3.923    0.000    5.846 
#    0.000    3.077    0.000    7.385    0.000   10.769 
#    0.000    0.000    0.000    0.000    0.000    0.000 
#
# Total GULP energy -289854.719243 kJ/mol
# GULP energy per Si atom -5574.129216 kJ/mol
# Density = 2.020497 g / cm^3
# Si number density = 20.251059 Si / 1000 Ang^3
#
#
#
# Elastic Constant Matrix: (Units=GPa)
#
#
# Indices 1 2 3 4 5 6 
#
# 1 114.7767 18.7684 43.5252 0.0000 0.0000 0.0000
# 2 18.7684 52.0701 8.2164 0.0000 0.0000 0.0000
# 3 43.5252 8.2164 55.1797 0.0000 0.0000 0.0000
# 4 0.0000 0.0000 0.0000 17.5748 0.0000 0.0000
# 5 0.0000 0.0000 0.0000 0.0000 27.6744 0.0000
# 6 0.0000 0.0000 0.0000 0.0000 0.0000 12.2354
#
#
#
# Elastic Compliance Matrix: (Units=1/GPa)
#
#
# Indices 1 2 3 4 5 6 
#
# 1 0.012907 -0.003119 -0.009717 0.000000 0.000000 0.000000
# 2 -0.003119 0.020421 -0.000580 0.000000 0.000000 0.000000
# 3 -0.009717 -0.000580 0.025874 0.000000 0.000000 0.000000
# 4 0.000000 0.000000 0.000000 0.056900 0.000000 0.000000
# 5 0.000000 0.000000 0.000000 0.000000 0.036134 0.000000
# 6 0.000000 0.000000 0.000000 0.000000 0.000000 0.081730
#
#
# Mechanical properties :
#
#
# Convention : Reuss Voigt Hill
#
# Bulk Modulus (GPa) = 30.89364 40.33851 35.61608
# Shear Modulus (GPa) = 18.41024 21.59802 20.00413
#
# Velocity S-wave (km/s) = 3.01840 3.26929 3.14635
# Velocity P-wave (km/s) = 5.23795 5.84923 5.55201
#
# Compressibility (1/GPa) = 0.03236912
#
# Stress axis : x y z
#
# Youngs Moduli (GPa) = 77.47504 48.96978 38.64951
#
# Poissons Ratio (x) = 0.15274 0.37555
# Poissons Ratio (y) = 0.24166 0.02243
# Poissons Ratio (z) = 0.75281 0.02842
#
# Static dielectric constant tensor:
#      x y z
#    x 1.754450 0.000000 0.000000 
#    y 0.000000 1.747090 0.000000 
#    z 0.000000 0.000000 1.707680 
# 
# From -- ./inp_files/46515.got.cif
#   From: 2010.05.17/outbox.cif.g08.bks.cpg/sg69_24_cif.got.tgz:46515.got - 2010.06.03 19:29:58.
