data_PCOD9512611
_publ_section_title
;
Structure prediction by ZEFSAII (Michael W. Deem and Ramdas Pophale) SiO2 
 PCOD9512611
Probable space group: F M M M
;
_chemical_formula_sum "Si O2"
_cell_formula_units_Z 176
_cell_length_a 19.168243
_cell_length_b 17.617791
_cell_length_c 28.163767
_cell_angle_alpha 90.000000
_cell_angle_beta 90.000000
_cell_angle_gamma 90.000000
_cell_volume 9510.963232
_symmetry_space_group_name_H-M "F M M M"
_symmetry_group_IT_number 69
_symmetry_cell_setting 'orthorhombic'
loop_
_space_group_symop_operation_xyz
x,y,z
-x,-y,z
x,-y,-z
-x,y,-z
-x,-y,-z
x,y,-z
-x,y,z
x,-y,z
x,1/2+y,1/2+z
-x,1/2-y,1/2+z
x,1/2-y,1/2-z
-x,1/2+y,1/2-z
-x,1/2-y,1/2-z
x,1/2+y,1/2-z
-x,1/2+y,1/2+z
x,1/2-y,1/2+z
1/2+x,y,1/2+z
1/2-x,-y,1/2+z
1/2+x,-y,1/2-z
1/2-x,y,1/2-z
1/2-x,-y,1/2-z
1/2+x,y,1/2-z
1/2-x,y,1/2+z
1/2+x,-y,1/2+z
1/2+x,1/2+y,z
1/2-x,1/2-y,z
1/2+x,1/2-y,-z
1/2-x,1/2+y,-z
1/2-x,1/2-y,-z
1/2+x,1/2+y,-z
1/2-x,1/2+y,z
1/2+x,1/2-y,z
loop_
_atom_site_type_symbol
_atom_site_label
_atom_site_fract_x
_atom_site_fract_y
_atom_site_fract_z
Si Si1 0.581890 0.176000 0.720459
Si Si2 0.145941 0.861578 0.881325
Si Si3 0.331714 0.726706 0.551886
Si Si4 0.193283 0.090701 0.388266
Si Si5 0.583799 0.000000 0.443640
Si Si6 0.423259 0.410004 0.314138
O O1 0.500000 0.189674 0.710247
O O2 0.608066 0.250000 0.750000
O O3 0.617569 0.151787 0.671623
O O4 0.587526 0.109926 0.759376
O O5 0.136621 0.782579 0.909287
O O6 0.227651 0.883810 0.878169
O O7 0.110867 0.927159 0.913715
O O8 0.362459 0.739470 0.500000
O O9 0.250000 0.750000 0.550149
O O10 0.332713 0.639164 0.566898
O O11 0.141268 0.115269 0.346040
O O12 0.191169 0.000000 0.394690
O O13 0.500000 0.000000 0.443599
O O14 0.606477 0.000000 0.500000
O O15 0.500000 0.378206 0.327904
O O16 0.426288 0.500000 0.319918
#
# Coordination Sequence:
#
# PCOD9512611 Si02
#       6
#    32  32  32  32  16  32
#     4  10  21  36  56  82 112 155 202 239 290 357
#     4  11  21  37  58  86 120 154 196 253 301 357
#     4   9  19  35  55  80 112 150 191 238 296 353
#     4  10  20  36  57  88 117 147 199 246 300 357
#     4  11  24  40  60  89 125 165 205 248 303 366
#     4   9  19  35  55  77 108 146 183 227 283 347
#
# _framework density 18.504960000000001
#
# number of rings (size 3 to 8) (size 9 to 14) (size 15 to 20)
#    0.000    2.091    0.909    2.182    1.273    1.818 
#    0.000    3.636    0.000    2.727    0.000    2.545 
#    0.000    0.000    0.000    0.000    0.000    0.000 
#
# Total GULP energy -245174.910389 kJ/mol
# GULP energy per Si atom -5572.157054 kJ/mol
# Density = 1.846284 g / cm^3
# Si number density = 18.504960 Si / 1000 Ang^3
#
#
#
# Elastic Constant Matrix: (Units=GPa)
#
#
# Indices 1 2 3 4 5 6 
#
# 1 78.0448 30.0271 57.8266 0.0000 0.0000 0.0000
# 2 30.0271 83.9176 49.9882 0.0000 0.0000 0.0000
# 3 57.8266 49.9882 130.2406 0.0000 0.0000 0.0000
# 4 0.0000 0.0000 0.0000 28.0550 0.0000 0.0000
# 5 0.0000 0.0000 0.0000 0.0000 21.1127 0.0000
# 6 0.0000 0.0000 0.0000 0.0000 0.0000 10.9004
#
#
#
# Elastic Compliance Matrix: (Units=1/GPa)
#
#
# Indices 1 2 3 4 5 6 
#
# 1 0.019447 -0.002353 -0.007731 0.000000 0.000000 0.000000
# 2 -0.002353 0.015733 -0.004994 0.000000 0.000000 0.000000
# 3 -0.007731 -0.004994 0.013027 0.000000 0.000000 0.000000
# 4 0.000000 0.000000 0.000000 0.035644 0.000000 0.000000
# 5 0.000000 0.000000 0.000000 0.000000 0.047365 0.000000
# 6 0.000000 0.000000 0.000000 0.000000 0.000000 0.091739
#
#
# Mechanical properties :
#
#
# Convention : Reuss Voigt Hill
#
# Bulk Modulus (GPa) = 55.39797 63.09851 59.24824
# Shear Modulus (GPa) = 19.29539 22.30438 20.79988
#
# Velocity S-wave (km/s) = 3.23261 3.47554 3.35627
# Velocity P-wave (km/s) = 6.62834 7.09070 6.86341
#
# Compressibility (1/GPa) = 0.01805120
#
# Stress axis : x y z
#
# Youngs Moduli (GPa) = 51.42215 63.55999 76.76086
#
# Poissons Ratio (x) = 0.14956 0.59346
# Poissons Ratio (y) = 0.12100 0.38333
# Poissons Ratio (z) = 0.39756 0.31741
#
# Static dielectric constant tensor:
#      x y z
#    x 1.643120 0.000000 0.000000 
#    y 0.000000 1.672890 0.000000 
#    z 0.000000 0.000000 1.623190 
# 
# From -- ./inp_files/26770.got.cif
#   From: 2010.05.17/outbox.cif.g08.bks.cpg/sg69_14_cif.got.tgz:26770.got - 2010.06.03 19:29:58.
