data_PCOD9512947
_publ_section_title
;
Structure prediction by ZEFSAII (Michael W. Deem and Ramdas Pophale) SiO2 
 PCOD9512947
Probable space group: F M M M
;
_chemical_formula_sum "Si O2"
_cell_formula_units_Z 116
_cell_length_a 29.433774
_cell_length_b 24.823187
_cell_length_c 8.312151
_cell_angle_alpha 90.000000
_cell_angle_beta 90.000000
_cell_angle_gamma 90.000000
_cell_volume 6073.190639
_symmetry_space_group_name_H-M "F M M M"
_symmetry_group_IT_number 69
_symmetry_cell_setting 'orthorhombic'
loop_
_space_group_symop_operation_xyz
x,y,z
-x,-y,z
x,-y,-z
-x,y,-z
-x,-y,-z
x,y,-z
-x,y,z
x,-y,z
x,1/2+y,1/2+z
-x,1/2-y,1/2+z
x,1/2-y,1/2-z
-x,1/2+y,1/2-z
-x,1/2-y,1/2-z
x,1/2+y,1/2-z
-x,1/2+y,1/2+z
x,1/2-y,1/2+z
1/2+x,y,1/2+z
1/2-x,-y,1/2+z
1/2+x,-y,1/2-z
1/2-x,y,1/2-z
1/2-x,-y,1/2-z
1/2+x,y,1/2-z
1/2-x,y,1/2+z
1/2+x,-y,1/2+z
1/2+x,1/2+y,z
1/2-x,1/2-y,z
1/2+x,1/2-y,-z
1/2-x,1/2+y,-z
1/2-x,1/2-y,-z
1/2+x,1/2+y,-z
1/2-x,1/2+y,z
1/2+x,1/2-y,z
loop_
_atom_site_type_symbol
_atom_site_label
_atom_site_fract_x
_atom_site_fract_y
_atom_site_fract_z
Si Si1 0.000000 0.500000 0.000000
Si Si2 0.126814 0.111522 0.815475
Si Si3 0.577569 0.500000 0.797504
Si Si4 0.198861 0.192628 0.687191
Si Si5 0.947101 0.810697 0.312395
O O1 0.960386 0.500000 0.848435
O O2 0.167377 0.141736 0.724988
O O3 0.083617 0.150226 0.790434
O O4 0.108564 0.052738 0.771039
O O5 0.140873 0.109898 0.000000
O O6 0.564837 0.500000 0.000000
O O7 0.202083 0.199542 0.500000
O O8 0.179608 0.250000 0.750000
O O9 0.250000 0.185778 0.750000
O O10 0.933605 0.813641 0.500000
O O11 0.943056 0.750000 0.250000
O O12 0.000000 0.826444 0.301396
#
# Coordination Sequence:
#
# PCOD9512947 Si02
#       5
#     4  32  16  32  32
#     4  12  26  44  76  86 136 164 234 268 328 368
#     4  11  23  41  61  86 124 161 207 263 314 375
#     4  10  27  45  66  97 128 172 223 271 323 380
#     4  11  22  39  65  96 128 164 208 255 321 385
#     4  10  21  35  54  82 115 154 199 246 309 376
#
# _framework density 19.100339000000002
#
# number of rings (size 3 to 8) (size 9 to 14) (size 15 to 20)
#    0.000    1.379    0.000    6.000    5.793    1.655 
#    0.000    0.690    0.000    0.000    0.000    0.000 
#    0.000    0.000    0.000    0.000    0.000    0.000 
#
# Total GULP energy -161480.547427 kJ/mol
# GULP energy per Si atom -5568.294739 kJ/mol
# Density = 1.905687 g / cm^3
# Si number density = 19.100339 Si / 1000 Ang^3
#
#
#
# Elastic Constant Matrix: (Units=GPa)
#
#
# Indices 1 2 3 4 5 6 
#
# 1 70.9339 58.6421 45.2147 -0.0022 0.0014 0.0021
# 2 58.6421 87.2580 36.1470 0.0031 -0.0025 -0.0184
# 3 45.2147 36.1470 125.4832 0.0036 -0.0035 -0.0185
# 4 -0.0022 0.0031 0.0036 17.0829 -0.0027 -0.0131
# 5 0.0014 -0.0025 -0.0035 -0.0027 36.4320 0.0019
# 6 0.0021 -0.0184 -0.0185 -0.0131 0.0019 -15.3812
#
#
#
# Elastic Compliance Matrix: (Units=1/GPa)
#
#
# Indices 1 2 3 4 5 6 
#
# 1 0.036282 -0.021538 -0.006869 0.000010 -0.000004 0.000039
# 2 -0.021538 0.025798 0.000329 -0.000008 0.000003 -0.000034
# 3 -0.006869 0.000329 0.010349 -0.000003 0.000001 -0.000014
# 4 0.000010 -0.000008 -0.000003 0.058538 0.000004 -0.000050
# 5 -0.000004 0.000003 0.000001 0.000004 0.027448 0.000003
# 6 0.000039 -0.000034 -0.000014 -0.000050 0.000003 -0.065014
#
#
# Mechanical properties :
#
#
# Convention : Reuss Voigt Hill
#
# Bulk Modulus (GPa) = 61.44688 62.63144 62.03916
# Shear Modulus (GPa) = 32.26183 17.20482 24.73332
#
# Velocity S-wave (km/s) = 4.11429 3.00452 3.60240
# Velocity P-wave (km/s) = 7.40339 6.70061 7.06075
#
# Compressibility (1/GPa) = 0.01627422
#
# Stress axis : x y z
#
# Youngs Moduli (GPa) = 27.56219 38.76195 96.62326
#
# Poissons Ratio (x) = 0.83484 0.66370
# Poissons Ratio (y) = 0.59363 -0.03179
# Poissons Ratio (z) = 0.18932 -0.01275
#
# Static dielectric constant tensor:
#      x y z
#    x 1.680350 0.000000 0.000000 
#    y 0.000000 1.674960 0.000000 
#    z 0.000000 0.000000 1.704430 
# 
# From -- ./inp_files/5231.got.cif
#   From: 2010.05.17/outbox.cif.g08.bks.cpg/sg69_3_cif.got.tgz:5231.got - 2010.06.03 19:29:58.
