data_PCOD9512632
_publ_section_title
;
Structure prediction by ZEFSAII (Michael W. Deem and Ramdas Pophale) SiO2 
 PCOD9512632
Probable space group: F M M M
;
_chemical_formula_sum "Si O2"
_cell_formula_units_Z 128
_cell_length_a 22.699835
_cell_length_b 19.581513
_cell_length_c 14.262681
_cell_angle_alpha 90.000000
_cell_angle_beta 90.000000
_cell_angle_gamma 90.000000
_cell_volume 6339.720545
_symmetry_space_group_name_H-M "F M M M"
_symmetry_group_IT_number 69
_symmetry_cell_setting 'orthorhombic'
loop_
_space_group_symop_operation_xyz
x,y,z
-x,-y,z
x,-y,-z
-x,y,-z
-x,-y,-z
x,y,-z
-x,y,z
x,-y,z
x,1/2+y,1/2+z
-x,1/2-y,1/2+z
x,1/2-y,1/2-z
-x,1/2+y,1/2-z
-x,1/2-y,1/2-z
x,1/2+y,1/2-z
-x,1/2+y,1/2+z
x,1/2-y,1/2+z
1/2+x,y,1/2+z
1/2-x,-y,1/2+z
1/2+x,-y,1/2-z
1/2-x,y,1/2-z
1/2-x,-y,1/2-z
1/2+x,y,1/2-z
1/2-x,y,1/2+z
1/2+x,-y,1/2+z
1/2+x,1/2+y,z
1/2-x,1/2-y,z
1/2+x,1/2-y,-z
1/2-x,1/2+y,-z
1/2-x,1/2-y,-z
1/2+x,1/2+y,-z
1/2-x,1/2+y,z
1/2+x,1/2-y,z
loop_
_atom_site_type_symbol
_atom_site_label
_atom_site_fract_x
_atom_site_fract_y
_atom_site_fract_z
Si Si1 0.213710 0.500000 0.612594
Si Si2 0.565551 0.105225 0.801498
Si Si3 0.846571 0.000000 0.388270
Si Si4 0.114047 0.893191 0.108149
Si Si5 0.067716 0.752298 0.393054
O O1 0.219901 0.500000 0.500000
O O2 0.279925 0.500000 0.650454
O O3 0.174243 0.432962 0.632493
O O4 0.500000 0.088626 0.836526
O O5 0.616339 0.064418 0.853270
O O6 0.570317 0.087441 0.691796
O O7 0.575031 0.185569 0.821787
O O8 0.845020 0.000000 0.500000
O O9 0.112522 0.810772 0.112922
O O10 0.098267 0.910858 0.000000
O O11 0.071487 0.779697 0.500000
O O12 0.000000 0.725926 0.381994
#
# Coordination Sequence:
#
# PCOD9512632 Si02
#       5
#    16  32  16  32  32
#     4   9  21  41  60  79 107 146 192 236 277 327
#     4  11  22  35  57  89 118 147 185 226 276 340
#     4  11  24  42  61  80 108 147 189 238 288 327
#     4  10  20  36  58  83 115 152 187 227 275 328
#     4   9  18  34  56  83 117 152 184 226 279 331
#
# _framework density 20.190163999999999
#
# number of rings (size 3 to 8) (size 9 to 14) (size 15 to 20)
#    0.000    2.000    0.000    3.375    0.000    7.500 
#    0.000    3.125    0.000   21.000    0.000    0.000 
#    0.000    0.000    0.000    0.000    0.000    0.000 
#
# Total GULP energy -178471.819543 kJ/mol
# GULP energy per Si atom -5577.244361 kJ/mol
# Density = 2.014421 g / cm^3
# Si number density = 20.190164 Si / 1000 Ang^3
#
#
#
# Elastic Constant Matrix: (Units=GPa)
#
#
# Indices 1 2 3 4 5 6 
#
# 1 148.1466 82.6826 42.6423 0.0000 0.0000 0.0000
# 2 82.6826 118.9941 27.2922 0.0000 0.0000 0.0000
# 3 42.6423 27.2922 103.9134 0.0000 0.0000 0.0000
# 4 0.0000 0.0000 0.0000 17.4142 0.0000 0.0000
# 5 0.0000 0.0000 0.0000 0.0000 25.4411 0.0000
# 6 0.0000 0.0000 0.0000 0.0000 0.0000 -157.0481
#
#
#
# Elastic Compliance Matrix: (Units=1/GPa)
#
#
# Indices 1 2 3 4 5 6 
#
# 1 0.011771 -0.007525 -0.002854 0.000000 0.000000 0.000000
# 2 -0.007525 0.013752 -0.000524 0.000000 0.000000 0.000000
# 3 -0.002854 -0.000524 0.010932 0.000000 0.000000 0.000000
# 4 0.000000 0.000000 0.000000 0.057424 0.000000 0.000000
# 5 0.000000 0.000000 0.000000 0.000000 0.039306 0.000000
# 6 0.000000 0.000000 0.000000 0.000000 0.000000 -0.006367
#
#
# Mechanical properties :
#
#
# Convention : Reuss Voigt Hill
#
# Bulk Modulus (GPa) = 68.25900 75.14316 71.70108
# Shear Modulus (GPa) = 32.57153 -8.27609 12.14772
#
# Velocity S-wave (km/s) = 4.02087 -2.02681 2.45555
# Velocity P-wave (km/s) = 7.44567 5.64103 6.60527
#
# Compressibility (1/GPa) = 0.01465008
#
# Stress axis : x y z
#
# Youngs Moduli (GPa) = 84.95347 72.71466 91.47176
#
# Poissons Ratio (x) = 0.54714 0.26108
# Poissons Ratio (y) = 0.63923 0.04795
# Poissons Ratio (z) = 0.24247 0.03812
#
# Static dielectric constant tensor:
#      x y z
#    x 1.677410 0.000000 0.000000 
#    y 0.000000 1.722520 0.000000 
#    z 0.000000 0.000000 1.780810 
# 
# From -- ./inp_files/16384.got.cif
#   From: 2010.05.17/outbox.cif.g08.bks.cpg/sg69_9_cif.got.tgz:16384.got - 2010.06.03 19:29:58.
