data_PCOD9512552
_publ_section_title
;
Structure prediction by ZEFSAII (Michael W. Deem and Ramdas Pophale) SiO2 
 PCOD9512552
Probable space group: F M M M
;
_chemical_formula_sum "Si O2"
_cell_formula_units_Z 128
_cell_length_a 21.468794
_cell_length_b 22.819593
_cell_length_c 11.855577
_cell_angle_alpha 90.000000
_cell_angle_beta 90.000000
_cell_angle_gamma 90.000000
_cell_volume 5808.155547
_symmetry_space_group_name_H-M "F M M M"
_symmetry_group_IT_number 69
_symmetry_cell_setting 'orthorhombic'
loop_
_space_group_symop_operation_xyz
x,y,z
-x,-y,z
x,-y,-z
-x,y,-z
-x,-y,-z
x,y,-z
-x,y,z
x,-y,z
x,1/2+y,1/2+z
-x,1/2-y,1/2+z
x,1/2-y,1/2-z
-x,1/2+y,1/2-z
-x,1/2-y,1/2-z
x,1/2+y,1/2-z
-x,1/2+y,1/2+z
x,1/2-y,1/2+z
1/2+x,y,1/2+z
1/2-x,-y,1/2+z
1/2+x,-y,1/2-z
1/2-x,y,1/2-z
1/2-x,-y,1/2-z
1/2+x,y,1/2-z
1/2-x,y,1/2+z
1/2+x,-y,1/2+z
1/2+x,1/2+y,z
1/2-x,1/2-y,z
1/2+x,1/2-y,-z
1/2-x,1/2+y,-z
1/2-x,1/2-y,-z
1/2+x,1/2+y,-z
1/2-x,1/2+y,z
1/2+x,1/2-y,z
loop_
_atom_site_type_symbol
_atom_site_label
_atom_site_fract_x
_atom_site_fract_y
_atom_site_fract_z
Si Si1 0.500000 0.429360 0.622080
Si Si2 0.070533 0.362563 0.370749
Si Si3 0.883583 0.250000 0.750000
Si Si4 0.786703 0.174172 0.370657
Si Si5 0.361997 0.068873 0.212177
O O1 0.500000 0.500000 0.616358
O O2 0.500000 0.401117 0.500000
O O3 0.567942 0.417018 0.670265
O O4 0.077092 0.346168 0.500000
O O5 0.077625 0.304048 0.297675
O O6 0.127585 0.405719 0.337682
O O7 0.000000 0.387948 0.359097
O O8 0.840636 0.222441 0.650819
O O9 0.761774 0.180551 0.500000
O O10 0.750000 0.180322 0.250000
O O11 0.815291 0.108940 0.357550
O O12 0.349377 0.000000 0.206667
#
# Coordination Sequence:
#
# PCOD9512552 Si02
#       5
#    16  32  16  32  32
#     4   9  16  30  55  82 111 148 188 233 288 352
#     4  10  20  35  58  90 129 167 204 250 308 377
#     4  10  22  40  64  88 120 159 213 264 320 376
#     4  11  25  43  65  92 123 164 216 270 322 376
#     4  10  21  38  60  90 126 162 203 249 306 371
#
# _framework density 22.037977000000001
#
# number of rings (size 3 to 8) (size 9 to 14) (size 15 to 20)
#    0.000    1.875    1.250    2.250    0.000    8.500 
#    0.000    1.250    0.000    0.000    0.000    0.000 
#    0.000    0.000    0.000    0.000    0.000    0.000 
#
# Total GULP energy -178149.326015 kJ/mol
# GULP energy per Si atom -5567.166438 kJ/mol
# Density = 2.198782 g / cm^3
# Si number density = 22.037977 Si / 1000 Ang^3
#
#
#
# Elastic Constant Matrix: (Units=GPa)
#
#
# Indices 1 2 3 4 5 6 
#
# 1 35.3243 11.7817 28.4355 0.0000 0.0000 0.0000
# 2 11.7817 125.7808 9.1027 0.0000 0.0000 0.0000
# 3 28.4355 9.1027 121.1901 0.0000 0.0000 0.0000
# 4 0.0000 0.0000 0.0000 11.1087 0.0000 0.0000
# 5 0.0000 0.0000 0.0000 0.0000 20.5013 0.0000
# 6 0.0000 0.0000 0.0000 0.0000 0.0000 34.5760
#
#
#
# Elastic Compliance Matrix: (Units=1/GPa)
#
#
# Indices 1 2 3 4 5 6 
#
# 1 0.035831 -0.002763 -0.008200 0.000000 0.000000 0.000000
# 2 -0.002763 0.008207 0.000032 0.000000 0.000000 0.000000
# 3 -0.008200 0.000032 0.010173 0.000000 0.000000 0.000000
# 4 0.000000 0.000000 0.000000 0.090020 0.000000 0.000000
# 5 0.000000 0.000000 0.000000 0.000000 0.048777 0.000000
# 6 0.000000 0.000000 0.000000 0.000000 0.000000 0.028922
#
#
# Mechanical properties :
#
#
# Convention : Reuss Voigt Hill
#
# Bulk Modulus (GPa) = 30.91229 42.32614 36.61921
# Shear Modulus (GPa) = 19.64058 28.76888 24.20473
#
# Velocity S-wave (km/s) = 2.98856 3.61698 3.31769
# Velocity P-wave (km/s) = 5.09568 6.05732 5.59719
#
# Compressibility (1/GPa) = 0.03234959
#
# Stress axis : x y z
#
# Youngs Moduli (GPa) = 27.90857 121.84980 98.29877
#
# Poissons Ratio (x) = 0.33665 0.80603
# Poissons Ratio (y) = 0.07711 -0.00313
# Poissons Ratio (z) = 0.22884 -0.00388
#
# Static dielectric constant tensor:
#      x y z
#    x 1.876470 0.000000 0.000000 
#    y 0.000000 1.795440 0.000000 
#    z 0.000000 0.000000 1.997450 
# 
# From -- ./inp_files/10132.got.cif
#   From: 2010.05.17/outbox.cif.g08.bks.cpg/sg69_6_cif.got.tgz:10132.got - 2010.06.03 19:29:58.
