data_PCOD9512617
_publ_section_title
;
Structure prediction by ZEFSAII (Michael W. Deem and Ramdas Pophale) SiO2 
 PCOD9512617
Probable space group: F M M M
;
_chemical_formula_sum "Si O2"
_cell_formula_units_Z 136
_cell_length_a 20.125387
_cell_length_b 21.855563
_cell_length_c 14.362839
_cell_angle_alpha 90.000000
_cell_angle_beta 90.000000
_cell_angle_gamma 90.000000
_cell_volume 6317.518626
_symmetry_space_group_name_H-M "F M M M"
_symmetry_group_IT_number 69
_symmetry_cell_setting 'orthorhombic'
loop_
_space_group_symop_operation_xyz
x,y,z
-x,-y,z
x,-y,-z
-x,y,-z
-x,-y,-z
x,y,-z
-x,y,z
x,-y,z
x,1/2+y,1/2+z
-x,1/2-y,1/2+z
x,1/2-y,1/2-z
-x,1/2+y,1/2-z
-x,1/2-y,1/2-z
x,1/2+y,1/2-z
-x,1/2+y,1/2+z
x,1/2-y,1/2+z
1/2+x,y,1/2+z
1/2-x,-y,1/2+z
1/2+x,-y,1/2-z
1/2-x,y,1/2-z
1/2-x,-y,1/2-z
1/2+x,y,1/2-z
1/2-x,y,1/2+z
1/2+x,-y,1/2+z
1/2+x,1/2+y,z
1/2-x,1/2-y,z
1/2+x,1/2-y,-z
1/2-x,1/2+y,-z
1/2-x,1/2-y,-z
1/2+x,1/2+y,-z
1/2-x,1/2+y,z
1/2+x,1/2-y,z
loop_
_atom_site_type_symbol
_atom_site_label
_atom_site_fract_x
_atom_site_fract_y
_atom_site_fract_z
Si Si1 0.000000 0.000000 0.317498
Si Si2 0.791453 0.195353 0.152719
Si Si3 0.598125 0.402276 0.606592
Si Si4 0.749643 0.066796 0.638050
Si Si5 0.924171 0.758717 0.387981
O O1 0.942617 0.946386 0.326864
O O2 0.750000 0.189281 0.250000
O O3 0.750000 0.250000 0.103679
O O4 0.789744 0.127801 0.110287
O O5 0.866702 0.218443 0.158393
O O6 0.574253 0.412409 0.500000
O O7 0.674864 0.420326 0.609086
O O8 0.589015 0.330811 0.629032
O O9 0.750000 0.063684 0.750000
O O10 0.727212 0.000000 0.604685
O O11 0.918342 0.750432 0.500000
O O12 0.000000 0.743778 0.361289
#
# Coordination Sequence:
#
# PCOD9512617 Si02
#       5
#     8  32  32  32  32
#     4  12  21  32  50  80 124 148 167 222 291 360
#     4  10  20  36  58  80 114 147 190 235 274 334
#     4  11  20  31  53  83 112 145 179 221 280 345
#     4  10  21  36  56  76 112 148 187 232 276 325
#     4  10  21  36  56  85 116 148 187 232 285 337
#
# _framework density 21.527439000000001
#
# number of rings (size 3 to 8) (size 9 to 14) (size 15 to 20)
#    0.000    1.647    4.706    1.059    0.000    1.412 
#    0.000    2.353   10.353    0.706    0.000    1.647 
#    0.000    0.000    0.000    0.000    0.000    0.000 
#
# Total GULP energy -189368.066602 kJ/mol
# GULP energy per Si atom -5569.649018 kJ/mol
# Density = 2.147844 g / cm^3
# Si number density = 21.527439 Si / 1000 Ang^3
#
#
#
# Elastic Constant Matrix: (Units=GPa)
#
#
# Indices 1 2 3 4 5 6 
#
# 1 141.8899 86.4057 19.0290 0.0000 0.0000 0.0000
# 2 86.4057 207.5658 9.4340 0.0000 0.0000 0.0000
# 3 19.0290 9.4340 83.7800 0.0000 0.0000 0.0000
# 4 0.0000 0.0000 0.0000 7.1409 0.0000 0.0000
# 5 0.0000 0.0000 0.0000 0.0000 -4.8862 0.0000
# 6 0.0000 0.0000 0.0000 0.0000 0.0000 -43.4037
#
#
#
# Elastic Compliance Matrix: (Units=1/GPa)
#
#
# Indices 1 2 3 4 5 6 
#
# 1 0.009691 -0.003955 -0.001756 0.000000 0.000000 0.000000
# 2 -0.003955 0.006456 0.000171 0.000000 0.000000 0.000000
# 3 -0.001756 0.000171 0.012316 0.000000 0.000000 0.000000
# 4 0.000000 0.000000 0.000000 0.140037 0.000000 0.000000
# 5 0.000000 0.000000 0.000000 0.000000 -0.204658 0.000000
# 6 0.000000 0.000000 0.000000 0.000000 0.000000 -0.023039
#
#
# Mechanical properties :
#
#
# Convention : Reuss Voigt Hill
#
# Bulk Modulus (GPa) = 57.52211 73.66369 65.59290
# Shear Modulus (GPa) = -118.13619 12.99467 -52.57076
#
# Velocity S-wave (km/s) = -7.41594 2.45956 -4.94706
# Velocity P-wave (km/s) = 6.82274 6.50836 1.44761
#
# Compressibility (1/GPa) = 0.01738462
#
# Stress axis : x y z
#
# Youngs Moduli (GPa) = 103.18468 154.89085 81.19809
#
# Poissons Ratio (x) = 0.61252 0.14258
# Poissons Ratio (y) = 0.40805 -0.01390
# Poissons Ratio (z) = 0.18118 -0.02652
#
# Static dielectric constant tensor:
#      x y z
#    x 1.762630 0.000000 0.000000 
#    y 0.000000 1.823870 0.000000 
#    z 0.000000 0.000000 1.883510 
# 
# From -- ./inp_files/22887.got.cif
#   From: 2010.05.17/outbox.cif.g08.bks.cpg/sg69_12_cif.got.tgz:22887.got - 2010.06.03 19:29:58.
