data_PCOD9512414
_publ_section_title
;
Structure prediction by ZEFSAII (Michael W. Deem and Ramdas Pophale) SiO2 
 PCOD9512414
Probable space group: F M M M
;
_chemical_formula_sum "Si O2"
_cell_formula_units_Z 208
_cell_length_a 34.497487
_cell_length_b 17.346996
_cell_length_c 17.781187
_cell_angle_alpha 90.000000
_cell_angle_beta 90.000000
_cell_angle_gamma 90.000000
_cell_volume 10640.756067
_symmetry_space_group_name_H-M "F M M M"
_symmetry_group_IT_number 69
_symmetry_cell_setting 'orthorhombic'
loop_
_space_group_symop_operation_xyz
x,y,z
-x,-y,z
x,-y,-z
-x,y,-z
-x,-y,-z
x,y,-z
-x,y,z
x,-y,z
x,1/2+y,1/2+z
-x,1/2-y,1/2+z
x,1/2-y,1/2-z
-x,1/2+y,1/2-z
-x,1/2-y,1/2-z
x,1/2+y,1/2-z
-x,1/2+y,1/2+z
x,1/2-y,1/2+z
1/2+x,y,1/2+z
1/2-x,-y,1/2+z
1/2+x,-y,1/2-z
1/2-x,y,1/2-z
1/2-x,-y,1/2-z
1/2+x,y,1/2-z
1/2-x,y,1/2+z
1/2+x,-y,1/2+z
1/2+x,1/2+y,z
1/2-x,1/2-y,z
1/2+x,1/2-y,-z
1/2-x,1/2+y,-z
1/2-x,1/2-y,-z
1/2+x,1/2+y,-z
1/2-x,1/2+y,z
1/2+x,1/2-y,z
loop_
_atom_site_type_symbol
_atom_site_label
_atom_site_fract_x
_atom_site_fract_y
_atom_site_fract_z
Si Si1 0.043705 0.908434 0.000000
Si Si2 0.593324 0.319287 0.588312
Si Si3 0.252932 0.594057 0.084468
Si Si4 0.831820 0.593248 0.142323
Si Si5 0.903190 0.356196 0.363107
Si Si6 0.043487 0.340761 0.773004
Si Si7 0.822557 0.091539 0.813512
O O1 0.067923 0.883951 0.927558
O O2 0.000000 0.875378 0.000000
O O3 0.040835 0.000000 0.000000
O O4 0.583733 0.314879 0.500000
O O5 0.631301 0.370676 0.601562
O O6 0.602224 0.234467 0.621411
O O7 0.558711 0.348712 0.642104
O O8 0.254138 0.500000 0.085645
O O9 0.209014 0.615154 0.104680
O O10 0.284438 0.622358 0.144699
O O11 0.262908 0.618900 0.000000
O O12 0.834960 0.500000 0.140706
O O13 0.829824 0.620782 0.229117
O O14 0.924661 0.373536 0.284313
O O15 0.861029 0.393855 0.361851
O O16 0.041808 0.250000 0.750000
O O17 0.000000 0.371887 0.762951
O O18 0.816796 0.000000 0.805561
#
# Coordination Sequence:
#
# PCOD9512414 Si02
#       7
#    16  32  32  32  32  32  32
#     4  11  24  40  62  94 128 159 193 239 295 356
#     4  11  22  37  58  86 115 153 198 246 295 350
#     4   9  18  32  53  83 115 150 191 239 291 352
#     4  10  20  37  59  83 113 152 199 248 291 339
#     4  11  21  39  59  86 122 155 191 236 294 359
#     4   9  19  36  58  82 111 148 191 236 283 343
#     4  10  20  34  58  85 114 151 193 237 292 354
#
# _framework density 19.547484000000001
#
# number of rings (size 3 to 8) (size 9 to 14) (size 15 to 20)
#    0.000    1.923    2.308    1.846    1.077    3.692 
#    0.000    0.769    0.000    5.077    0.000    1.077 
#    0.000    0.000    0.000    0.000    0.000    0.000 
#
# Total GULP energy -290194.133461 kJ/mol
# GULP energy per Si atom -5580.656413 kJ/mol
# Density = 1.950299 g / cm^3
# Si number density = 19.547484 Si / 1000 Ang^3
#
#
#
# Elastic Constant Matrix: (Units=GPa)
#
#
# Indices 1 2 3 4 5 6 
#
# 1 96.8128 4.8416 26.6338 0.0000 0.0000 0.0000
# 2 4.8416 12.6802 1.1653 0.0000 0.0000 0.0000
# 3 26.6338 1.1653 112.7069 0.0000 0.0000 0.0000
# 4 0.0000 0.0000 0.0000 14.4158 0.0000 0.0000
# 5 0.0000 0.0000 0.0000 0.0000 35.6002 0.0000
# 6 0.0000 0.0000 0.0000 0.0000 0.0000 46.8545
#
#
#
# Elastic Compliance Matrix: (Units=1/GPa)
#
#
# Indices 1 2 3 4 5 6 
#
# 1 0.011252 -0.004056 -0.002617 0.000000 0.000000 0.000000
# 2 -0.004056 0.080400 0.000127 0.000000 0.000000 0.000000
# 3 -0.002617 0.000127 0.009490 0.000000 0.000000 0.000000
# 4 0.000000 0.000000 0.000000 0.069368 0.000000 0.000000
# 5 0.000000 0.000000 0.000000 0.000000 0.028090 0.000000
# 6 0.000000 0.000000 0.000000 0.000000 0.000000 0.021343
#
#
# Mechanical properties :
#
#
# Convention : Reuss Voigt Hill
#
# Bulk Modulus (GPa) = 11.35715 31.94237 21.64976
# Shear Modulus (GPa) = 19.05607 32.01139 25.53373
#
# Velocity S-wave (km/s) = 3.12566 4.05114 3.61812
# Velocity P-wave (km/s) = 4.34154 6.18537 5.34358
#
# Compressibility (1/GPa) = 0.08805025
#
# Stress axis : x y z
#
# Youngs Moduli (GPa) = 88.87316 12.43783 105.37759
#
# Poissons Ratio (x) = 0.05044 0.27578
# Poissons Ratio (y) = 0.36044 -0.01339
# Poissons Ratio (z) = 0.23258 -0.00158
#
# Static dielectric constant tensor:
#      x y z
#    x 1.661350 0.000000 0.000000 
#    y 0.000000 1.691670 0.000000 
#    z 0.000000 0.000000 1.694300 
# 
# From -- ./inp_files/27947.got.cif
#   From: 2010.05.17/outbox.cif.g08.bks.cpg/sg69_14_cif.got.tgz:27947.got - 2010.06.03 19:29:58.
