data_PCOD9512157
_publ_section_title
;
Structure prediction by ZEFSAII (Michael W. Deem and Ramdas Pophale) SiO2 
 PCOD9512157
Probable space group: F M M M
;
_chemical_formula_sum "Si O2"
_cell_formula_units_Z 108
_cell_length_a 13.496257
_cell_length_b 19.118802
_cell_length_c 18.593500
_cell_angle_alpha 90.000000
_cell_angle_beta 90.000000
_cell_angle_gamma 90.000000
_cell_volume 4797.722925
_symmetry_space_group_name_H-M "F M M M"
_symmetry_group_IT_number 69
_symmetry_cell_setting 'orthorhombic'
loop_
_space_group_symop_operation_xyz
x,y,z
-x,-y,z
x,-y,-z
-x,y,-z
-x,-y,-z
x,y,-z
-x,y,z
x,-y,z
x,1/2+y,1/2+z
-x,1/2-y,1/2+z
x,1/2-y,1/2-z
-x,1/2+y,1/2-z
-x,1/2-y,1/2-z
x,1/2+y,1/2-z
-x,1/2+y,1/2+z
x,1/2-y,1/2+z
1/2+x,y,1/2+z
1/2-x,-y,1/2+z
1/2+x,-y,1/2-z
1/2-x,y,1/2-z
1/2-x,-y,1/2-z
1/2+x,y,1/2-z
1/2-x,y,1/2+z
1/2+x,-y,1/2+z
1/2+x,1/2+y,z
1/2-x,1/2-y,z
1/2+x,1/2-y,-z
1/2-x,1/2+y,-z
1/2-x,1/2-y,-z
1/2+x,1/2+y,-z
1/2-x,1/2+y,z
1/2+x,1/2-y,z
loop_
_atom_site_type_symbol
_atom_site_label
_atom_site_fract_x
_atom_site_fract_y
_atom_site_fract_z
Si Si1 0.500000 0.500000 0.500000
Si Si2 0.673625 0.881402 0.000000
Si Si3 0.379763 0.707277 0.637838
Si Si4 0.888337 0.000000 0.839458
Si Si5 0.836069 0.500000 0.500000
Si Si6 0.379216 0.351010 0.795347
O O1 0.585746 0.438439 0.500000
O O2 0.663297 0.832598 0.069828
O O3 0.770976 0.929241 0.000000
O O4 0.500000 0.705438 0.630459
O O5 0.355640 0.669611 0.713537
O O6 0.350538 0.788096 0.651239
O O7 0.840428 0.927429 0.815193
O O8 0.000000 0.000000 0.808804
O O9 0.892952 0.000000 0.925248
O O10 0.500000 0.352717 0.799613
#
# Coordination Sequence:
#
# PCOD9512157 Si02
#       6
#     4  16  32  16   8  32
#     4  10  20  32  50  84 106 150 186 206 264 358
#     4  11  21  36  54  83 119 153 180 222 291 333
#     4   9  16  33  57  89 118 146 186 233 272 340
#     4  10  20  41  61  78 103 152 194 241 296 327
#     4  11  27  39  51  82 120 138 193 249 271 349
#     4   8  17  32  59  88 111 142 198 237 270 328
#
# _framework density 22.510679
#
# number of rings (size 3 to 8) (size 9 to 14) (size 15 to 20)
#    0.000    2.667    1.481    2.000    0.000    3.556 
#    2.667   10.370    0.000    3.556    0.000    0.000 
#    0.000    0.000    0.000    0.000    0.000    0.000 
#
# Total GULP energy -150739.902365 kJ/mol
# GULP energy per Si atom -5582.959347 kJ/mol
# Density = 2.245944 g / cm^3
# Si number density = 22.510679 Si / 1000 Ang^3
#
#
#
# Elastic Constant Matrix: (Units=GPa)
#
#
# Indices 1 2 3 4 5 6 
#
# 1 72.4832 40.9044 27.6054 0.0000 0.0000 0.0000
# 2 40.9044 260.2630 120.8217 0.0000 0.0000 0.0000
# 3 27.6054 120.8217 138.0632 0.0000 0.0000 0.0000
# 4 0.0000 0.0000 0.0000 29.6539 0.0000 0.0000
# 5 0.0000 0.0000 0.0000 0.0000 17.1714 0.0000
# 6 0.0000 0.0000 0.0000 0.0000 0.0000 9.8443
#
#
#
# Elastic Compliance Matrix: (Units=1/GPa)
#
#
# Indices 1 2 3 4 5 6 
#
# 1 0.015349 -0.001663 -0.001613 0.000000 0.000000 0.000000
# 2 -0.001663 0.006652 -0.005488 0.000000 0.000000 0.000000
# 3 -0.001613 -0.005488 0.012369 0.000000 0.000000 0.000000
# 4 0.000000 0.000000 0.000000 0.033722 0.000000 0.000000
# 5 0.000000 0.000000 0.000000 0.000000 0.058237 0.000000
# 6 0.000000 0.000000 0.000000 0.000000 0.000000 0.101581
#
#
# Mechanical properties :
#
#
# Convention : Reuss Voigt Hill
#
# Bulk Modulus (GPa) = 59.38472 94.38583 76.88527
# Shear Modulus (GPa) = 19.91613 30.09912 25.00762
#
# Velocity S-wave (km/s) = 2.97769 3.66061 3.33667
# Velocity P-wave (km/s) = 6.18548 7.73868 7.00526
#
# Compressibility (1/GPa) = 0.01683935
#
# Stress axis : x y z
#
# Youngs Moduli (GPa) = 65.14879 150.34179 80.85031
#
# Poissons Ratio (x) = 0.25008 0.13044
# Poissons Ratio (y) = 0.10837 0.44373
# Poissons Ratio (z) = 0.10511 0.82512
#
# Static dielectric constant tensor:
#      x y z
#    x 1.893930 0.000000 0.000000 
#    y 0.000000 1.807260 0.000000 
#    z 0.000000 0.000000 1.754830 
# 
# From -- ./inp_files/30484.got.cif
#   From: 2010.05.17/outbox.cif.g08.bks.cpg/sg69_16_cif.got.tgz:30484.got - 2010.06.03 19:29:58.
