data_PCOD9512082
_publ_section_title
;
Structure prediction by ZEFSAII (Michael W. Deem and Ramdas Pophale) SiO2 
 PCOD9512082
Probable space group: F M M M
;
_chemical_formula_sum "Si O2"
_cell_formula_units_Z 192
_cell_length_a 17.156395
_cell_length_b 27.388378
_cell_length_c 19.983864
_cell_angle_alpha 90.000000
_cell_angle_beta 90.000000
_cell_angle_gamma 90.000000
_cell_volume 9390.134550
_symmetry_space_group_name_H-M "F M M M"
_symmetry_group_IT_number 69
_symmetry_cell_setting 'orthorhombic'
loop_
_space_group_symop_operation_xyz
x,y,z
-x,-y,z
x,-y,-z
-x,y,-z
-x,-y,-z
x,y,-z
-x,y,z
x,-y,z
x,1/2+y,1/2+z
-x,1/2-y,1/2+z
x,1/2-y,1/2-z
-x,1/2+y,1/2-z
-x,1/2-y,1/2-z
x,1/2+y,1/2-z
-x,1/2+y,1/2+z
x,1/2-y,1/2+z
1/2+x,y,1/2+z
1/2-x,-y,1/2+z
1/2+x,-y,1/2-z
1/2-x,y,1/2-z
1/2-x,-y,1/2-z
1/2+x,y,1/2-z
1/2-x,y,1/2+z
1/2+x,-y,1/2+z
1/2+x,1/2+y,z
1/2-x,1/2-y,z
1/2+x,1/2-y,-z
1/2-x,1/2+y,-z
1/2-x,1/2-y,-z
1/2+x,1/2+y,-z
1/2-x,1/2+y,z
1/2+x,1/2-y,z
loop_
_atom_site_type_symbol
_atom_site_label
_atom_site_fract_x
_atom_site_fract_y
_atom_site_fract_z
Si Si1 0.914169 0.806638 0.500000
Si Si2 0.292138 0.444241 0.576881
Si Si3 0.588282 0.344016 0.224153
Si Si4 0.408405 0.309311 0.000000
Si Si5 0.678175 0.555592 0.197117
Si Si6 0.199826 0.799990 0.128174
Si Si7 0.853991 0.853262 0.367056
O O1 0.918038 0.748891 0.500000
O O2 0.873308 0.823440 0.433090
O O3 0.000000 0.828621 0.500000
O O4 0.278821 0.428343 0.500000
O O5 0.318549 0.500000 0.576419
O O6 0.215195 0.442559 0.622801
O O7 0.354636 0.409564 0.612259
O O8 0.500000 0.339931 0.200860
O O9 0.621970 0.398218 0.207555
O O10 0.639687 0.301888 0.189457
O O11 0.594826 0.339986 0.304001
O O12 0.352613 0.317493 0.064881
O O13 0.500000 0.328660 0.000000
O O14 0.646166 0.500000 0.206801
O O15 0.750000 0.560230 0.250000
O O16 0.250000 0.750000 0.117938
O O17 0.264862 0.839502 0.147937
#
# Coordination Sequence:
#
# PCOD9512082 Si02
#       7
#    16  32  32  16  32  32  32
#     4  11  23  41  62  92 127 159 198 260 324 378
#     4  10  20  35  62  96 123 154 207 260 302 359
#     4  12  26  42  60  94 133 167 209 269 331 374
#     4  11  24  44  66  96 127 159 202 261 326 373
#     4  10  19  37  65  92 124 167 214 258 304 377
#     4  12  24  43  67  93 121 166 215 265 306 378
#     4  12  22  40  66  90 123 168 217 254 306 378
#
# _framework density 20.446991000000001
#
# number of rings (size 3 to 8) (size 9 to 14) (size 15 to 20)
#    0.000    0.833    5.833    2.250    0.000    1.667 
#    0.000    0.833    0.000    2.000    0.000    2.333 
#    0.000    0.000    0.000    0.000    0.000    0.000 
#
# Total GULP energy -267819.953360 kJ/mol
# GULP energy per Si atom -5579.582362 kJ/mol
# Density = 2.040045 g / cm^3
# Si number density = 20.446991 Si / 1000 Ang^3
#
#
#
# Elastic Constant Matrix: (Units=GPa)
#
#
# Indices 1 2 3 4 5 6 
#
# 1 96.8132 11.9036 12.8027 0.0000 0.0000 0.0000
# 2 11.9036 43.2085 -7.3699 0.0000 0.0000 0.0000
# 3 12.8027 -7.3699 104.6223 0.0000 0.0000 0.0000
# 4 0.0000 0.0000 0.0000 89.8344 0.0000 0.0000
# 5 0.0000 0.0000 0.0000 0.0000 39.6358 0.0000
# 6 0.0000 0.0000 0.0000 0.0000 0.0000 18.2865
#
#
#
# Elastic Compliance Matrix: (Units=1/GPa)
#
#
# Indices 1 2 3 4 5 6 
#
# 1 0.010940 -0.003282 -0.001570 0.000000 0.000000 0.000000
# 2 -0.003282 0.024409 0.002121 0.000000 0.000000 0.000000
# 3 -0.001570 0.002121 0.009900 0.000000 0.000000 0.000000
# 4 0.000000 0.000000 0.000000 0.011132 0.000000 0.000000
# 5 0.000000 0.000000 0.000000 0.000000 0.025230 0.000000
# 6 0.000000 0.000000 0.000000 0.000000 0.000000 0.054685
#
#
# Mechanical properties :
#
#
# Convention : Reuss Voigt Hill
#
# Bulk Modulus (GPa) = 25.13306 31.03518 28.08412
# Shear Modulus (GPa) = 32.25394 44.70520 38.47957
#
# Velocity S-wave (km/s) = 3.97601 4.68096 4.34281
# Velocity P-wave (km/s) = 5.77899 6.66532 6.23792
#
# Compressibility (1/GPa) = 0.03978824
#
# Stress axis : x y z
#
# Youngs Moduli (GPa) = 91.40525 40.96774 101.01290
#
# Poissons Ratio (x) = 0.13445 0.15859
# Poissons Ratio (y) = 0.29997 -0.21426
# Poissons Ratio (z) = 0.14350 -0.08690
#
# Static dielectric constant tensor:
#      x y z
#    x 1.744450 0.000000 0.000000 
#    y 0.000000 1.770980 0.000000 
#    z 0.000000 0.000000 1.624290 
# 
# From -- ./inp_files/23729.got.cif
#   From: 2010.05.17/outbox.cif.g08.bks.cpg/sg69_12_cif.got.tgz:23729.got - 2010.06.03 19:29:58.
