data_PCOD9512477
_publ_section_title
;
Structure prediction by ZEFSAII (Michael W. Deem and Ramdas Pophale) SiO2 
 PCOD9512477
Probable space group: F M M M
;
_chemical_formula_sum "Si O2"
_cell_formula_units_Z 192
_cell_length_a 32.097869
_cell_length_b 14.830702
_cell_length_c 23.674003
_cell_angle_alpha 90.000000
_cell_angle_beta 90.000000
_cell_angle_gamma 90.000000
_cell_volume 11269.628686
_symmetry_space_group_name_H-M "F M M M"
_symmetry_group_IT_number 69
_symmetry_cell_setting 'orthorhombic'
loop_
_space_group_symop_operation_xyz
x,y,z
-x,-y,z
x,-y,-z
-x,y,-z
-x,-y,-z
x,y,-z
-x,y,z
x,-y,z
x,1/2+y,1/2+z
-x,1/2-y,1/2+z
x,1/2-y,1/2-z
-x,1/2+y,1/2-z
-x,1/2-y,1/2-z
x,1/2+y,1/2-z
-x,1/2+y,1/2+z
x,1/2-y,1/2+z
1/2+x,y,1/2+z
1/2-x,-y,1/2+z
1/2+x,-y,1/2-z
1/2-x,y,1/2-z
1/2-x,-y,1/2-z
1/2+x,y,1/2-z
1/2-x,y,1/2+z
1/2+x,-y,1/2+z
1/2+x,1/2+y,z
1/2-x,1/2-y,z
1/2+x,1/2-y,-z
1/2-x,1/2+y,-z
1/2-x,1/2-y,-z
1/2+x,1/2+y,-z
1/2-x,1/2+y,z
1/2+x,1/2-y,z
loop_
_atom_site_type_symbol
_atom_site_label
_atom_site_fract_x
_atom_site_fract_y
_atom_site_fract_z
Si Si1 0.500000 0.106872 0.689778
Si Si2 0.906758 0.749995 0.434714
Si Si3 0.411998 0.854819 0.255661
Si Si4 0.133933 0.896795 0.643954
Si Si5 0.298802 0.252536 0.681906
Si Si6 0.140839 0.102701 0.862872
Si Si7 0.000000 0.808455 0.065467
O O1 0.459263 0.140632 0.722948
O O2 0.500000 0.132002 0.622975
O O3 0.500000 0.000000 0.693208
O O4 0.895438 0.750512 0.500000
O O5 0.887817 0.836472 0.403822
O O6 0.887555 0.660270 0.405949
O O7 0.956867 0.746234 0.430044
O O8 0.400416 0.750000 0.250000
O O9 0.398538 0.896295 0.196361
O O10 0.385197 0.899130 0.304942
O O11 0.175151 0.840483 0.662118
O O12 0.143007 0.000000 0.628533
O O13 0.302498 0.250000 0.750000
O O14 0.250000 0.250000 0.667980
O O15 0.320006 0.165608 0.652682
O O16 0.149722 0.000000 0.880731
O O17 0.000000 0.847668 0.000000
#
# Coordination Sequence:
#
# PCOD9512477 Si02
#       7
#    16  32  32  32  32  32  16
#     4  12  23  32  50  82 114 149 194 239 277 329
#     4  10  22  39  57  81 111 150 195 237 279 325
#     4  12  20  36  53  78 114 152 188 225 280 335
#     4  11  21  37  59  82 113 150 188 231 279 334
#     4  10  20  35  55  85 120 149 177 219 281 347
#     4  11  20  35  58  82 112 146 182 228 279 336
#     4  10  20  36  55  75 112 157 192 232 282 324
#
# _framework density 17.036940999999999
#
# number of rings (size 3 to 8) (size 9 to 14) (size 15 to 20)
#    0.000    1.167    6.667    1.750    0.000    2.167 
#    0.000    4.583    0.000    9.500    0.000    9.333 
#    0.000    0.000    0.000    0.000    0.000    0.000 
#
# Total GULP energy -267638.140527 kJ/mol
# GULP energy per Si atom -5575.794594 kJ/mol
# Density = 1.699816 g / cm^3
# Si number density = 17.036941 Si / 1000 Ang^3
#
#
#
# Elastic Constant Matrix: (Units=GPa)
#
#
# Indices 1 2 3 4 5 6 
#
# 1 133.4641 48.8311 40.1444 0.0000 0.0000 0.0000
# 2 48.8311 156.9732 47.4816 0.0000 0.0000 0.0000
# 3 40.1444 47.4816 103.2384 0.0000 0.0000 0.0000
# 4 0.0000 0.0000 0.0000 5.6770 0.0000 0.0000
# 5 0.0000 0.0000 0.0000 0.0000 -9.2289 0.0000
# 6 0.0000 0.0000 0.0000 0.0000 0.0000 -55.6535
#
#
#
# Elastic Compliance Matrix: (Units=1/GPa)
#
#
# Indices 1 2 3 4 5 6 
#
# 1 0.009007 -0.002024 -0.002571 0.000000 0.000000 0.000000
# 2 -0.002024 0.007855 -0.002826 0.000000 0.000000 0.000000
# 3 -0.002571 -0.002826 0.011986 0.000000 0.000000 0.000000
# 4 0.000000 0.000000 0.000000 0.176150 0.000000 0.000000
# 5 0.000000 0.000000 0.000000 0.000000 -0.108355 0.000000
# 6 0.000000 0.000000 0.000000 0.000000 0.000000 -0.017968
#
#
# Mechanical properties :
#
#
# Convention : Reuss Voigt Hill
#
# Bulk Modulus (GPa) = 71.40135 74.06554 72.73344
# Shear Modulus (GPa) = 50.92474 5.30683 28.11579
#
# Velocity S-wave (km/s) = 5.47318 1.76682 4.06678
# Velocity P-wave (km/s) = 9.05216 6.90870 8.05207
#
# Compressibility (1/GPa) = 0.01400534
#
# Stress axis : x y z
#
# Youngs Moduli (GPa) = 111.02961 127.31044 83.43251
#
# Poissons Ratio (x) = 0.25767 0.21453
# Poissons Ratio (y) = 0.22472 0.23574
# Poissons Ratio (z) = 0.28550 0.35973
#
# Static dielectric constant tensor:
#      x y z
#    x 1.773240 0.000000 0.000000 
#    y 0.000000 1.584630 0.000000 
#    z 0.000000 0.000000 1.572340 
# 
# From -- ./inp_files/38997.got.cif
#   From: 2010.05.17/outbox.cif.g08.bks.cpg/sg69_20_cif.got.tgz:38997.got - 2010.06.03 19:29:58.
