data_PCOD9512073
_publ_section_title
;
Structure prediction by ZEFSAII (Michael W. Deem and Ramdas Pophale) SiO2 
 PCOD9512073
Probable space group: F M M M
;
_chemical_formula_sum "Si O2"
_cell_formula_units_Z 112
_cell_length_a 14.906469
_cell_length_b 27.005873
_cell_length_c 11.557175
_cell_angle_alpha 90.000000
_cell_angle_beta 90.000000
_cell_angle_gamma 90.000000
_cell_volume 4652.481894
_symmetry_space_group_name_H-M "F M M M"
_symmetry_group_IT_number 69
_symmetry_cell_setting 'orthorhombic'
loop_
_space_group_symop_operation_xyz
x,y,z
-x,-y,z
x,-y,-z
-x,y,-z
-x,-y,-z
x,y,-z
-x,y,z
x,-y,z
x,1/2+y,1/2+z
-x,1/2-y,1/2+z
x,1/2-y,1/2-z
-x,1/2+y,1/2-z
-x,1/2-y,1/2-z
x,1/2+y,1/2-z
-x,1/2+y,1/2+z
x,1/2-y,1/2+z
1/2+x,y,1/2+z
1/2-x,-y,1/2+z
1/2+x,-y,1/2-z
1/2-x,y,1/2-z
1/2-x,-y,1/2-z
1/2+x,y,1/2-z
1/2-x,y,1/2+z
1/2+x,-y,1/2+z
1/2+x,1/2+y,z
1/2-x,1/2-y,z
1/2+x,1/2-y,-z
1/2-x,1/2+y,-z
1/2-x,1/2-y,-z
1/2+x,1/2+y,-z
1/2-x,1/2+y,z
1/2+x,1/2-y,z
loop_
_atom_site_type_symbol
_atom_site_label
_atom_site_fract_x
_atom_site_fract_y
_atom_site_fract_z
Si Si1 0.631400 0.556603 0.500000
Si Si2 0.099377 0.802494 0.307562
Si Si3 0.338063 0.415093 0.000000
Si Si4 0.757464 0.689855 0.000000
Si Si5 0.359503 0.596146 0.245133
O O1 0.603372 0.500000 0.500000
O O2 0.738996 0.561129 0.500000
O O3 0.606091 0.579100 0.627217
O O4 0.119361 0.750000 0.250000
O O5 0.178648 0.817584 0.391313
O O6 0.101521 0.848928 0.224073
O O7 0.000000 0.798108 0.360574
O O8 0.314719 0.354651 0.000000
O O9 0.381448 0.429880 0.877260
O O10 0.750000 0.750000 0.000000
O O11 0.250000 0.595214 0.250000
#
# Coordination Sequence:
#
# PCOD9512073 Si02
#       5
#    16  32  16  16  32
#     4  10  20  35  60  90 122 156 202 259 312 362
#     4  11  23  36  54  84 118 159 202 255 309 358
#     4  10  20  33  57  89 115 153 204 241 309 354
#     4  12  21  34  57  82 115 165 205 250 293 368
#     4  10  19  37  57  84 117 156 206 245 302 371
#
# _framework density 24.073173000000001
#
# number of rings (size 3 to 8) (size 9 to 14) (size 15 to 20)
#    0.000    1.429    5.714    2.143    0.000    5.143 
#    0.000    2.143    0.000    1.714    0.000    0.000 
#    0.000   20.571    0.000    0.000    0.000    0.000 
#
# Total GULP energy -155893.901892 kJ/mol
# GULP energy per Si atom -5567.639353 kJ/mol
# Density = 2.401838 g / cm^3
# Si number density = 24.073173 Si / 1000 Ang^3
#
#
#
# Elastic Constant Matrix: (Units=GPa)
#
#
# Indices 1 2 3 4 5 6 
#
# 1 47.7298 5.8442 36.5700 0.0000 0.0000 0.0000
# 2 5.8442 113.5161 38.3288 0.0000 0.0000 0.0000
# 3 36.5700 38.3288 211.5736 0.0000 0.0000 0.0000
# 4 0.0000 0.0000 0.0000 -9.9246 0.0000 0.0000
# 5 0.0000 0.0000 0.0000 0.0000 -37.5158 0.0000
# 6 0.0000 0.0000 0.0000 0.0000 0.0000 14.3556
#
#
#
# Elastic Compliance Matrix: (Units=1/GPa)
#
#
# Indices 1 2 3 4 5 6 
#
# 1 0.024153 0.000177 -0.004207 0.000000 0.000000 0.000000
# 2 0.000177 0.009385 -0.001731 0.000000 0.000000 0.000000
# 3 -0.004207 -0.001731 0.005767 0.000000 0.000000 0.000000
# 4 0.000000 0.000000 0.000000 -0.100759 0.000000 0.000000
# 5 0.000000 0.000000 0.000000 0.000000 -0.026655 0.000000
# 6 0.000000 0.000000 0.000000 0.000000 0.000000 0.069659
#
#
# Mechanical properties :
#
#
# Convention : Reuss Voigt Hill
#
# Bulk Modulus (GPa) = 35.99268 59.36730 47.67999
# Shear Modulus (GPa) = 2144.48719 12.85478 1078.67099
#
# Velocity S-wave (km/s) = 29.87899 2.31332 21.19087
# Velocity P-wave (km/s) = 34.71776 5.64358 24.87140
#
# Compressibility (1/GPa) = 0.02778343
#
# Stress axis : x y z
#
# Youngs Moduli (GPa) = 41.40305 106.55775 173.39552
#
# Poissons Ratio (x) = -0.01886 0.72944
# Poissons Ratio (y) = -0.00733 0.30010
# Poissons Ratio (z) = 0.17418 0.18442
#
# Static dielectric constant tensor:
#      x y z
#    x 1.922160 0.000000 0.000000 
#    y 0.000000 2.016650 0.000000 
#    z 0.000000 0.000000 1.889850 
# 
# From -- ./inp_files/8324.got.cif
#   From: 2010.05.17/outbox.cif.g08.bks.cpg/sg69_5_cif.got.tgz:8324.got - 2010.06.03 19:29:58.
