data_PCOD9512606
_publ_section_title
;
Structure prediction by ZEFSAII (Michael W. Deem and Ramdas Pophale) SiO2 
 PCOD9512606
Probable space group: F M M M
;
_chemical_formula_sum "Si O2"
_cell_formula_units_Z 160
_cell_length_a 14.391520
_cell_length_b 30.778214
_cell_length_c 18.311360
_cell_angle_alpha 90.000000
_cell_angle_beta 90.000000
_cell_angle_gamma 90.000000
_cell_volume 8110.930525
_symmetry_space_group_name_H-M "F M M M"
_symmetry_group_IT_number 69
_symmetry_cell_setting 'orthorhombic'
loop_
_space_group_symop_operation_xyz
x,y,z
-x,-y,z
x,-y,-z
-x,y,-z
-x,-y,-z
x,y,-z
-x,y,z
x,-y,z
x,1/2+y,1/2+z
-x,1/2-y,1/2+z
x,1/2-y,1/2-z
-x,1/2+y,1/2-z
-x,1/2-y,1/2-z
x,1/2+y,1/2-z
-x,1/2+y,1/2+z
x,1/2-y,1/2+z
1/2+x,y,1/2+z
1/2-x,-y,1/2+z
1/2+x,-y,1/2-z
1/2-x,y,1/2-z
1/2-x,-y,1/2-z
1/2+x,y,1/2-z
1/2-x,y,1/2+z
1/2+x,-y,1/2+z
1/2+x,1/2+y,z
1/2-x,1/2-y,z
1/2+x,1/2-y,-z
1/2-x,1/2+y,-z
1/2-x,1/2-y,-z
1/2+x,1/2+y,-z
1/2-x,1/2+y,z
1/2+x,1/2-y,z
loop_
_atom_site_type_symbol
_atom_site_label
_atom_site_fract_x
_atom_site_fract_y
_atom_site_fract_z
Si Si1 0.718533 0.846175 0.833183
Si Si2 0.108589 0.000000 0.207867
Si Si3 0.607525 0.238040 0.165728
Si Si4 0.103913 0.669439 0.412889
Si Si5 0.263182 0.500000 0.416174
Si Si6 0.109452 0.433518 0.161865
O O1 0.750000 0.840188 0.750000
O O2 0.672896 0.801037 0.858958
O O3 0.810766 0.856789 0.879090
O O4 0.644064 0.884464 0.835156
O O5 0.125541 0.041404 0.261073
O O6 0.177223 0.000000 0.139886
O O7 0.000000 0.000000 0.186995
O O8 0.500000 0.223497 0.163900
O O9 0.628804 0.250000 0.250000
O O10 0.614478 0.281627 0.118315
O O11 0.108511 0.669669 0.500000
O O12 0.000000 0.654374 0.390658
O O13 0.234325 0.500000 0.500000
O O14 0.328424 0.459043 0.396616
O O15 0.000000 0.437072 0.146128
#
# Coordination Sequence:
#
# PCOD9512606 Si02
#       6
#    32  16  32  32  16  32
#     4  12  22  34  60  91 119 152 200 252 299 352
#     4   9  19  41  67  91 124 159 195 240 290 355
#     4  10  20  36  57  84 118 156 200 247 298 356
#     4  10  23  41  58  80 117 163 203 245 304 365
#     4  11  22  40  65  91 123 161 195 239 302 364
#     4  10  22  40  63  91 120 156 201 246 296 353
#
# _framework density 19.726467
#
# number of rings (size 3 to 8) (size 9 to 14) (size 15 to 20)
#    0.000    1.600    2.000    4.500    0.000    4.200 
#    0.000    1.000    0.000    3.600    0.000    0.000 
#    0.000    0.000    0.000    0.000    0.000    0.000 
#
# Total GULP energy -223543.015121 kJ/mol
# GULP energy per Si atom -5588.575378 kJ/mol
# Density = 1.968157 g / cm^3
# Si number density = 19.726467 Si / 1000 Ang^3
#
#
#
# Elastic Constant Matrix: (Units=GPa)
#
#
# Indices 1 2 3 4 5 6 
#
# 1 135.4780 29.3563 49.4097 0.0000 0.0000 0.0000
# 2 29.3563 31.6269 -0.0881 0.0000 0.0000 0.0000
# 3 49.4097 -0.0881 79.9752 0.0000 0.0000 0.0000
# 4 0.0000 0.0000 0.0000 -3.1079 0.0000 0.0000
# 5 0.0000 0.0000 0.0000 0.0000 16.7089 0.0000
# 6 0.0000 0.0000 0.0000 0.0000 0.0000 34.2859
#
#
#
# Elastic Compliance Matrix: (Units=1/GPa)
#
#
# Indices 1 2 3 4 5 6 
#
# 1 0.012886 -0.011983 -0.007974 0.000000 0.000000 0.000000
# 2 -0.011983 0.042762 0.007451 0.000000 0.000000 0.000000
# 3 -0.007974 0.007451 0.017439 0.000000 0.000000 0.000000
# 4 0.000000 0.000000 0.000000 -0.321762 0.000000 0.000000
# 5 0.000000 0.000000 0.000000 0.000000 0.059848 0.000000
# 6 0.000000 0.000000 0.000000 0.000000 0.000000 0.029166
#
#
# Mechanical properties :
#
#
# Convention : Reuss Voigt Hill
#
# Bulk Modulus (GPa) = 20.80171 44.93732 32.86952
# Shear Modulus (GPa) = -42.15101 20.80421 -10.67340
#
# Velocity S-wave (km/s) = -4.62754 3.25104 -2.32862
# Velocity P-wave (km/s) = 4.24078 6.07635 3.07716
#
# Compressibility (1/GPa) = 0.04807297
#
# Stress axis : x y z
#
# Youngs Moduli (GPa) = 77.60208 23.38503 57.34326
#
# Poissons Ratio (x) = 0.28023 0.45728
# Poissons Ratio (y) = 0.92993 -0.42724
# Poissons Ratio (z) = 0.61884 -0.17423
#
# Static dielectric constant tensor:
#      x y z
#    x 1.720280 0.000000 0.000000 
#    y 0.000000 1.696030 0.000000 
#    z 0.000000 0.000000 1.654990 
# 
# From -- ./inp_files/21866.got.cif
#   From: 2010.05.17/outbox.cif.g08.bks.cpg/sg69_11_cif.got.tgz:21866.got - 2010.06.03 19:29:58.
