data_PCOD9512278
_publ_section_title
;
Structure prediction by ZEFSAII (Michael W. Deem and Ramdas Pophale) SiO2 
 PCOD9512278
Probable space group: F M M M
;
_chemical_formula_sum "Si O2"
_cell_formula_units_Z 144
_cell_length_a 28.161764
_cell_length_b 15.884003
_cell_length_c 16.548190
_cell_angle_alpha 90.000000
_cell_angle_beta 90.000000
_cell_angle_gamma 90.000000
_cell_volume 7402.361899
_symmetry_space_group_name_H-M "F M M M"
_symmetry_group_IT_number 69
_symmetry_cell_setting 'orthorhombic'
loop_
_space_group_symop_operation_xyz
x,y,z
-x,-y,z
x,-y,-z
-x,y,-z
-x,-y,-z
x,y,-z
-x,y,z
x,-y,z
x,1/2+y,1/2+z
-x,1/2-y,1/2+z
x,1/2-y,1/2-z
-x,1/2+y,1/2-z
-x,1/2-y,1/2-z
x,1/2+y,1/2-z
-x,1/2+y,1/2+z
x,1/2-y,1/2+z
1/2+x,y,1/2+z
1/2-x,-y,1/2+z
1/2+x,-y,1/2-z
1/2-x,y,1/2-z
1/2-x,-y,1/2-z
1/2+x,y,1/2-z
1/2-x,y,1/2+z
1/2+x,-y,1/2+z
1/2+x,1/2+y,z
1/2-x,1/2-y,z
1/2+x,1/2-y,-z
1/2-x,1/2+y,-z
1/2-x,1/2-y,-z
1/2+x,1/2+y,-z
1/2-x,1/2+y,z
1/2+x,1/2-y,z
loop_
_atom_site_type_symbol
_atom_site_label
_atom_site_fract_x
_atom_site_fract_y
_atom_site_fract_z
Si Si1 0.913549 0.781372 0.408104
Si Si2 0.732012 0.100151 0.593724
Si Si3 0.000000 0.098122 0.401613
Si Si4 0.647303 0.828613 0.694379
Si Si5 0.163238 0.405538 0.145692
O O1 0.924086 0.755353 0.500000
O O2 0.900208 0.702964 0.350791
O O3 0.866277 0.838600 0.405188
O O4 0.954524 0.845119 0.378606
O O5 0.739550 0.122318 0.500000
O O6 0.687599 0.148269 0.630871
O O7 0.780880 0.114459 0.641754
O O8 0.722248 0.000000 0.598274
O O9 0.000000 0.094032 0.500000
O O10 0.000000 0.000000 0.373925
O O11 0.662716 0.750000 0.750000
O O12 0.644211 0.900144 0.762427
O O13 0.157068 0.500000 0.113484
#
# Coordination Sequence:
#
# PCOD9512278 Si02
#       5
#    32  32  16  32  32
#     4  10  20  34  54  78 102 129 165 213 264 313
#     4  10  20  34  53  75 101 139 186 227 256 293
#     4   9  18  34  57  82 105 131 167 213 264 313
#     4  10  21  34  48  73 106 140 171 206 260 315
#     4  10  20  34  51  73 104 141 178 214 255 304
#
# _framework density 19.453251000000002
#
# number of rings (size 3 to 8) (size 9 to 14) (size 15 to 20)
#    0.000    2.111    0.000    3.333    0.000   10.222 
#    0.000   10.556    0.000    0.000    0.000    2.333 
#    0.000   12.444    0.000    0.000    0.000    9.111 
#
# Total GULP energy -200727.036766 kJ/mol
# GULP energy per Si atom -5575.751021 kJ/mol
# Density = 1.940897 g / cm^3
# Si number density = 19.453251 Si / 1000 Ang^3
#
#
#
# Elastic Constant Matrix: (Units=GPa)
#
#
# Indices 1 2 3 4 5 6 
#
# 1 82.5661 31.7834 26.8178 0.0000 0.0000 0.0000
# 2 31.7834 42.5244 24.7370 0.0000 0.0000 0.0000
# 3 26.8178 24.7370 84.8584 0.0000 0.0000 0.0000
# 4 0.0000 0.0000 0.0000 28.3280 0.0000 0.0000
# 5 0.0000 0.0000 0.0000 0.0000 17.3311 0.0000
# 6 0.0000 0.0000 0.0000 0.0000 0.0000 16.3989
#
#
#
# Elastic Compliance Matrix: (Units=1/GPa)
#
#
# Indices 1 2 3 4 5 6 
#
# 1 0.017293 -0.011736 -0.002044 0.000000 0.000000 0.000000
# 2 -0.011736 0.036283 -0.006868 0.000000 0.000000 0.000000
# 3 -0.002044 -0.006868 0.014432 0.000000 0.000000 0.000000
# 4 0.000000 0.000000 0.000000 0.035301 0.000000 0.000000
# 5 0.000000 0.000000 0.000000 0.000000 0.057700 0.000000
# 6 0.000000 0.000000 0.000000 0.000000 0.000000 0.060980
#
#
# Mechanical properties :
#
#
# Convention : Reuss Voigt Hill
#
# Bulk Modulus (GPa) = 37.43575 41.84726 39.64150
# Shear Modulus (GPa) = 18.36963 20.85232 19.61098
#
# Velocity S-wave (km/s) = 3.07627 3.27757 3.17852
# Velocity P-wave (km/s) = 5.64833 5.99013 5.82174
#
# Compressibility (1/GPa) = 0.02671244
#
# Stress axis : x y z
#
# Youngs Moduli (GPa) = 57.82623 27.56126 69.28900
#
# Poissons Ratio (x) = 0.32346 0.14162
# Poissons Ratio (y) = 0.67866 0.47586
# Poissons Ratio (z) = 0.11819 0.18928
#
# Static dielectric constant tensor:
#      x y z
#    x 1.673410 0.000000 0.000000 
#    y 0.000000 1.715310 0.000000 
#    z 0.000000 0.000000 1.736530 
# 
# From -- ./inp_files/19484.got.cif
#   From: 2010.05.17/outbox.cif.g08.bks.cpg/sg69_10_cif.got.tgz:19484.got - 2010.06.03 19:29:58.
