data_PCOD9512500
_publ_section_title
;
Structure prediction by ZEFSAII (Michael W. Deem and Ramdas Pophale) SiO2 
 PCOD9512500
Probable space group: F M M M
;
_chemical_formula_sum "Si O2"
_cell_formula_units_Z 160
_cell_length_a 16.314399
_cell_length_b 28.471154
_cell_length_c 17.683627
_cell_angle_alpha 90.000000
_cell_angle_beta 90.000000
_cell_angle_gamma 90.000000
_cell_volume 8213.863773
_symmetry_space_group_name_H-M "F M M M"
_symmetry_group_IT_number 69
_symmetry_cell_setting 'orthorhombic'
loop_
_space_group_symop_operation_xyz
x,y,z
-x,-y,z
x,-y,-z
-x,y,-z
-x,-y,-z
x,y,-z
-x,y,z
x,-y,z
x,1/2+y,1/2+z
-x,1/2-y,1/2+z
x,1/2-y,1/2-z
-x,1/2+y,1/2-z
-x,1/2-y,1/2-z
x,1/2+y,1/2-z
-x,1/2+y,1/2+z
x,1/2-y,1/2+z
1/2+x,y,1/2+z
1/2-x,-y,1/2+z
1/2+x,-y,1/2-z
1/2-x,y,1/2-z
1/2-x,-y,1/2-z
1/2+x,y,1/2-z
1/2-x,y,1/2+z
1/2+x,-y,1/2+z
1/2+x,1/2+y,z
1/2-x,1/2-y,z
1/2+x,1/2-y,-z
1/2-x,1/2+y,-z
1/2-x,1/2-y,-z
1/2+x,1/2+y,-z
1/2-x,1/2+y,z
1/2+x,1/2-y,z
loop_
_atom_site_type_symbol
_atom_site_label
_atom_site_fract_x
_atom_site_fract_y
_atom_site_fract_z
Si Si1 0.829718 0.883986 0.200431
Si Si2 0.831152 0.219813 0.411054
Si Si3 0.593455 0.684852 0.914692
Si Si4 0.734242 0.055260 0.913019
Si Si5 0.404719 0.122911 0.146549
O O1 0.750000 0.873039 0.250000
O O2 0.852777 0.841845 0.145671
O O3 0.802682 0.926575 0.146065
O O4 0.898238 0.890146 0.264447
O O5 0.819933 0.207532 0.500000
O O6 0.750000 0.250000 0.387935
O O7 0.900854 0.259400 0.404691
O O8 0.860557 0.173308 0.368295
O O9 0.500000 0.669011 0.908006
O O10 0.622921 0.674975 0.000000
O O11 0.651754 0.084867 0.896285
O O12 0.719753 0.000000 0.902610
O O13 0.759346 0.063530 0.000000
O O14 0.500000 0.124520 0.123056
#
# Coordination Sequence:
#
# PCOD9512500 Si02
#       5
#    32  32  32  32  32
#     4  10  21  37  58  83 113 149 190 233 281 341
#     4  10  20  35  56  83 117 158 201 237 274 329
#     4  10  20  35  57  83 112 148 190 236 282 327
#     4  10  22  41  64  86 109 145 194 243 289 342
#     4  11  23  37  57  88 124 156 186 233 297 354
#
# _framework density 19.479261000000001
#
# number of rings (size 3 to 8) (size 9 to 14) (size 15 to 20)
#    0.000    1.800    0.000    4.800    0.000    8.800 
#    0.000    7.000    0.000    1.800    0.000    7.000 
#    0.000    0.000    0.000    0.000    0.000    0.000 
#
# Total GULP energy -223117.658413 kJ/mol
# GULP energy per Si atom -5577.941460 kJ/mol
# Density = 1.943493 g / cm^3
# Si number density = 19.479261 Si / 1000 Ang^3
#
#
#
# Elastic Constant Matrix: (Units=GPa)
#
#
# Indices 1 2 3 4 5 6 
#
# 1 64.2513 32.0461 23.4068 0.0000 0.0000 0.0000
# 2 32.0461 116.5923 62.0358 0.0000 0.0000 0.0000
# 3 23.4068 62.0358 110.8663 0.0000 0.0000 0.0000
# 4 0.0000 0.0000 0.0000 -344.4996 0.0000 0.0000
# 5 0.0000 0.0000 0.0000 0.0000 1.8676 0.0000
# 6 0.0000 0.0000 0.0000 0.0000 0.0000 7.7961
#
#
#
# Elastic Compliance Matrix: (Units=1/GPa)
#
#
# Indices 1 2 3 4 5 6 
#
# 1 0.018207 -0.004213 -0.001486 0.000000 0.000000 0.000000
# 2 -0.004213 0.013188 -0.006490 0.000000 0.000000 0.000000
# 3 -0.001486 -0.006490 0.012965 0.000000 0.000000 0.000000
# 4 0.000000 0.000000 0.000000 -0.002903 0.000000 0.000000
# 5 0.000000 0.000000 0.000000 0.000000 0.535448 0.000000
# 6 0.000000 0.000000 0.000000 0.000000 0.000000 0.128269
#
#
# Mechanical properties :
#
#
# Convention : Reuss Voigt Hill
#
# Bulk Modulus (GPa) = 50.04806 58.52084 54.28445
# Shear Modulus (GPa) = 6.79150 -55.35243 -24.28047
#
# Velocity S-wave (km/s) = 1.86925 -5.33646 -3.53438
# Velocity P-wave (km/s) = 5.51431 2.80402 3.35746
#
# Compressibility (1/GPa) = 0.01998079
#
# Stress axis : x y z
#
# Youngs Moduli (GPa) = 54.92439 75.82595 77.12999
#
# Poissons Ratio (x) = 0.31949 0.11464
# Poissons Ratio (y) = 0.23142 0.50057
# Poissons Ratio (z) = 0.08163 0.49210
#
# Static dielectric constant tensor:
#      x y z
#    x 1.725210 0.000000 0.000000 
#    y 0.000000 1.648390 0.000000 
#    z 0.000000 0.000000 1.715910 
# 
# From -- ./inp_files/23148.got.cif
#   From: 2010.05.17/outbox.cif.g08.bks.cpg/sg69_12_cif.got.tgz:23148.got - 2010.06.03 19:29:58.
