data_PCOD9512444
_publ_section_title
;
Structure prediction by ZEFSAII (Michael W. Deem and Ramdas Pophale) SiO2 
 PCOD9512444
Probable space group: F M M M
;
_chemical_formula_sum "Si O2"
_cell_formula_units_Z 176
_cell_length_a 28.836753
_cell_length_b 16.714108
_cell_length_c 17.574197
_cell_angle_alpha 90.000000
_cell_angle_beta 90.000000
_cell_angle_gamma 90.000000
_cell_volume 8470.422085
_symmetry_space_group_name_H-M "F M M M"
_symmetry_group_IT_number 69
_symmetry_cell_setting 'orthorhombic'
loop_
_space_group_symop_operation_xyz
x,y,z
-x,-y,z
x,-y,-z
-x,y,-z
-x,-y,-z
x,y,-z
-x,y,z
x,-y,z
x,1/2+y,1/2+z
-x,1/2-y,1/2+z
x,1/2-y,1/2-z
-x,1/2+y,1/2-z
-x,1/2-y,1/2-z
x,1/2+y,1/2-z
-x,1/2+y,1/2+z
x,1/2-y,1/2+z
1/2+x,y,1/2+z
1/2-x,-y,1/2+z
1/2+x,-y,1/2-z
1/2-x,y,1/2-z
1/2-x,-y,1/2-z
1/2+x,y,1/2-z
1/2-x,y,1/2+z
1/2+x,-y,1/2+z
1/2+x,1/2+y,z
1/2-x,1/2-y,z
1/2+x,1/2-y,-z
1/2-x,1/2+y,-z
1/2-x,1/2-y,-z
1/2+x,1/2+y,-z
1/2-x,1/2+y,z
1/2+x,1/2-y,z
loop_
_atom_site_type_symbol
_atom_site_label
_atom_site_fract_x
_atom_site_fract_y
_atom_site_fract_z
Si Si1 0.747152 0.097361 0.417434
Si Si2 0.945213 0.587622 0.000000
Si Si3 0.829047 0.593346 0.808551
Si Si4 0.948345 0.648705 0.672193
Si Si5 0.651070 0.908976 0.369918
Si Si6 0.923755 0.666428 0.160943
O O1 0.767397 0.118706 0.500000
O O2 0.781124 0.117471 0.348192
O O3 0.694775 0.130363 0.411869
O O4 0.743682 0.000000 0.414515
O O5 0.934628 0.630878 0.079018
O O6 0.922401 0.500000 0.000000
O O7 0.000000 0.579097 0.000000
O O8 0.839643 0.500000 0.832043
O O9 0.831011 0.592078 0.717517
O O10 0.868599 0.655972 0.831760
O O11 0.901725 0.620934 0.629633
O O12 0.942806 0.624532 0.761676
O O13 0.943616 0.744558 0.666497
O O14 0.000000 0.624348 0.646203
O O15 0.647910 0.000000 0.396823
#
# Coordination Sequence:
#
# PCOD9512444 Si02
#       6
#    32  16  32  32  32  32
#     4   9  17  30  51  77 107 141 175 218 279 343
#     4  11  22  34  52  82 120 153 181 229 294 347
#     4   9  17  30  52  80 108 141 178 219 272 339
#     4  10  20  37  58  76 104 151 198 235 276 333
#     4   9  18  33  53  79 106 136 182 237 280 322
#     4  10  20  35  54  79 112 147 187 227 274 342
#
# _framework density 20.778186000000002
#
# number of rings (size 3 to 8) (size 9 to 14) (size 15 to 20)
#    0.000    2.455    0.000    3.273    1.273    3.273 
#    1.636    0.909    0.000    5.455    0.000    2.545 
#    0.000    0.000    0.000    0.000    0.000    0.000 
#
# Total GULP energy -244971.431378 kJ/mol
# GULP energy per Si atom -5567.532531 kJ/mol
# Density = 2.073089 g / cm^3
# Si number density = 20.778186 Si / 1000 Ang^3
#
#
#
# Elastic Constant Matrix: (Units=GPa)
#
#
# Indices 1 2 3 4 5 6 
#
# 1 147.0396 7.2102 16.3774 0.0000 0.0000 0.0000
# 2 7.2102 13.5031 19.6985 0.0000 0.0000 0.0000
# 3 16.3774 19.6985 67.6799 0.0000 0.0000 0.0000
# 4 0.0000 0.0000 0.0000 13.9447 0.0000 0.0000
# 5 0.0000 0.0000 0.0000 0.0000 15.3306 0.0000
# 6 0.0000 0.0000 0.0000 0.0000 0.0000 26.0149
#
#
#
# Elastic Compliance Matrix: (Units=1/GPa)
#
#
# Indices 1 2 3 4 5 6 
#
# 1 0.007027 -0.002210 -0.001057 0.000000 0.000000 0.000000
# 2 -0.002210 0.129400 -0.037128 0.000000 0.000000 0.000000
# 3 -0.001057 -0.037128 0.025837 0.000000 0.000000 0.000000
# 4 0.000000 0.000000 0.000000 0.071712 0.000000 0.000000
# 5 0.000000 0.000000 0.000000 0.000000 0.065229 0.000000
# 6 0.000000 0.000000 0.000000 0.000000 0.000000 0.038440
#
#
# Mechanical properties :
#
#
# Convention : Reuss Voigt Hill
#
# Bulk Modulus (GPa) = 12.27375 34.97718 23.62546
# Shear Modulus (GPa) = 11.22103 23.38713 17.30408
#
# Velocity S-wave (km/s) = 2.32640 3.35858 2.88896
# Velocity P-wave (km/s) = 3.62436 5.64891 4.74585
#
# Compressibility (1/GPa) = 0.08147469
#
# Stress axis : x y z
#
# Youngs Moduli (GPa) = 142.30807 7.72800 38.70359
#
# Poissons Ratio (x) = 0.01708 0.04092
# Poissons Ratio (y) = 0.31449 1.43697
# Poissons Ratio (z) = 0.15045 0.28692
#
# Static dielectric constant tensor:
#      x y z
#    x 1.779780 0.000000 0.000000 
#    y 0.000000 1.777050 0.000000 
#    z 0.000000 0.000000 2.591760 
# 
# From -- ./inp_files/27711.got.cif
#   From: 2010.05.17/outbox.cif.g08.bks.cpg/sg69_14_cif.got.tgz:27711.got - 2010.06.03 19:29:58.
