data_PCOD9512832
_publ_section_title
;
Structure prediction by ZEFSAII (Michael W. Deem and Ramdas Pophale) SiO2 
 PCOD9512832
Probable space group: F M M M
;
_chemical_formula_sum "Si O2"
_cell_formula_units_Z 176
_cell_length_a 27.343858
_cell_length_b 26.082407
_cell_length_c 11.503566
_cell_angle_alpha 90.000000
_cell_angle_beta 90.000000
_cell_angle_gamma 90.000000
_cell_volume 8204.270032
_symmetry_space_group_name_H-M "F M M M"
_symmetry_group_IT_number 69
_symmetry_cell_setting 'orthorhombic'
loop_
_space_group_symop_operation_xyz
x,y,z
-x,-y,z
x,-y,-z
-x,y,-z
-x,-y,-z
x,y,-z
-x,y,z
x,-y,z
x,1/2+y,1/2+z
-x,1/2-y,1/2+z
x,1/2-y,1/2-z
-x,1/2+y,1/2-z
-x,1/2-y,1/2-z
x,1/2+y,1/2-z
-x,1/2+y,1/2+z
x,1/2-y,1/2+z
1/2+x,y,1/2+z
1/2-x,-y,1/2+z
1/2+x,-y,1/2-z
1/2-x,y,1/2-z
1/2-x,-y,1/2-z
1/2+x,y,1/2-z
1/2-x,y,1/2+z
1/2+x,-y,1/2+z
1/2+x,1/2+y,z
1/2-x,1/2-y,z
1/2+x,1/2-y,-z
1/2-x,1/2+y,-z
1/2-x,1/2-y,-z
1/2+x,1/2+y,-z
1/2-x,1/2+y,z
1/2+x,1/2-y,z
loop_
_atom_site_type_symbol
_atom_site_label
_atom_site_fract_x
_atom_site_fract_y
_atom_site_fract_z
Si Si1 0.081643 0.000000 0.139488
Si Si2 0.446912 0.892689 0.745177
Si Si3 0.175542 0.250818 0.875210
Si Si4 0.808220 0.500000 0.366743
Si Si5 0.930424 0.214658 0.865480
Si Si6 0.845486 0.368962 0.871480
Si Si7 0.250000 0.911672 0.750000
O O1 0.057531 0.052604 0.182527
O O2 0.137841 0.000000 0.189081
O O3 0.080298 0.000000 0.000000
O O4 0.500000 0.890885 0.807562
O O5 0.446600 0.843215 0.660283
O O6 0.396984 0.886498 0.818462
O O7 0.200817 0.250000 0.750000
O O8 0.128561 0.214324 0.866330
O O9 0.153438 0.307735 0.882379
O O10 0.199698 0.239184 0.000000
O O11 0.819051 0.500000 0.500000
O O12 0.776513 0.549710 0.338227
O O13 0.943771 0.250000 0.750000
O O14 0.944236 0.230647 0.000000
O O15 0.795333 0.380845 0.803209
O O16 0.840252 0.391951 0.000000
#
# Coordination Sequence:
#
# PCOD9512832 Si02
#       7
#    16  32  32  16  32  32  16
#     4  11  24  45  67  93 136 180 227 284 342 414
#     4  12  25  43  67 100 139 183 231 281 343 413
#     4   9  17  35  62  93 132 174 219 274 337 407
#     4  10  21  38  66  98 120 161 226 286 342 398
#     4  10  20  38  65  98 137 181 234 289 343 408
#     4  11  23  43  68  98 137 177 220 278 346 413
#     4  11  22  42  67  96 128 166 221 285 342 408
#
# _framework density 21.452245000000001
#
# number of rings (size 3 to 8) (size 9 to 14) (size 15 to 20)
#    0.000    1.455    5.455    1.364    0.000    2.545 
#    0.000    3.636    0.000    3.273    0.000    0.000 
#    0.000    0.000    0.000    0.000    0.000    0.000 
#
# Total GULP energy -245010.483406 kJ/mol
# GULP energy per Si atom -5568.420077 kJ/mol
# Density = 2.140342 g / cm^3
# Si number density = 21.452245 Si / 1000 Ang^3
#
#
#
# Elastic Constant Matrix: (Units=GPa)
#
#
# Indices 1 2 3 4 5 6 
#
# 1 187.3553 24.2236 40.2776 0.0000 0.0000 -0.0003
# 2 24.2236 104.9449 24.3225 0.0000 0.0000 -0.0001
# 3 40.2776 24.3225 164.3703 0.0001 0.0002 -0.0011
# 4 0.0000 0.0000 0.0001 60.5793 0.0000 -0.0008
# 5 0.0000 0.0000 0.0002 0.0000 -3.0567 0.0007
# 6 -0.0003 -0.0001 -0.0011 -0.0008 0.0007 573.8253
#
#
#
# Elastic Compliance Matrix: (Units=1/GPa)
#
#
# Indices 1 2 3 4 5 6 
#
# 1 0.005741 -0.001035 -0.001254 0.000000 0.000000 0.000000
# 2 -0.001035 0.010054 -0.001234 0.000000 0.000000 0.000000
# 3 -0.001254 -0.001234 0.006574 0.000000 0.000000 0.000000
# 4 0.000000 0.000000 0.000000 0.016507 0.000000 0.000000
# 5 0.000000 0.000000 0.000000 0.000000 -0.327151 0.000000
# 6 0.000000 0.000000 0.000000 0.000000 0.000000 0.001743
#
#
# Mechanical properties :
#
#
# Convention : Reuss Voigt Hill
#
# Bulk Modulus (GPa) = 65.26002 70.47978 67.86990
# Shear Modulus (GPa) = -18.22285 150.79269 66.28492
#
# Velocity S-wave (km/s) = -2.91771 8.39314 5.56470
# Velocity P-wave (km/s) = 4.37451 11.26286 8.54367
#
# Compressibility (1/GPa) = 0.01532332
#
# Stress axis : x y z
#
# Youngs Moduli (GPa) = 174.19429 99.46648 152.12267
#
# Poissons Ratio (x) = 0.10290 0.19071
# Poissons Ratio (y) = 0.18021 0.18775
# Poissons Ratio (z) = 0.21838 0.12276
#
# Static dielectric constant tensor:
#      x y z
#    x 1.777050 0.000000 0.000000 
#    y 0.000000 2.108890 0.000000 
#    z 0.000000 0.000000 1.851130 
# 
# From -- ./inp_files/11596.got.cif
#   From: 2010.05.17/outbox.cif.g08.bks.cpg/sg69_6_cif.got.tgz:11596.got - 2010.06.03 19:29:58.
