data_PCOD9512003
_publ_section_title
;
Structure prediction by ZEFSAII (Michael W. Deem and Ramdas Pophale) SiO2 
 PCOD9512003
Probable space group: F M M M
;
_chemical_formula_sum "Si O2"
_cell_formula_units_Z 192
_cell_length_a 14.021169
_cell_length_b 19.448035
_cell_length_c 30.833748
_cell_angle_alpha 90.000000
_cell_angle_beta 90.000000
_cell_angle_gamma 90.000000
_cell_volume 8407.875458
_symmetry_space_group_name_H-M "F M M M"
_symmetry_group_IT_number 69
_symmetry_cell_setting 'orthorhombic'
loop_
_space_group_symop_operation_xyz
x,y,z
-x,-y,z
x,-y,-z
-x,y,-z
-x,-y,-z
x,y,-z
-x,y,z
x,-y,z
x,1/2+y,1/2+z
-x,1/2-y,1/2+z
x,1/2-y,1/2-z
-x,1/2+y,1/2-z
-x,1/2-y,1/2-z
x,1/2+y,1/2-z
-x,1/2+y,1/2+z
x,1/2-y,1/2+z
1/2+x,y,1/2+z
1/2-x,-y,1/2+z
1/2+x,-y,1/2-z
1/2-x,y,1/2-z
1/2-x,-y,1/2-z
1/2+x,y,1/2-z
1/2-x,y,1/2+z
1/2+x,-y,1/2+z
1/2+x,1/2+y,z
1/2-x,1/2-y,z
1/2+x,1/2-y,-z
1/2-x,1/2+y,-z
1/2-x,1/2-y,-z
1/2+x,1/2+y,-z
1/2-x,1/2+y,z
1/2+x,1/2-y,z
loop_
_atom_site_type_symbol
_atom_site_label
_atom_site_fract_x
_atom_site_fract_y
_atom_site_fract_z
Si Si1 0.391539 0.208106 0.680871
Si Si2 0.616239 0.074970 0.728739
Si Si3 0.115200 0.361002 0.818991
Si Si4 0.395234 0.226443 0.000000
Si Si5 0.164384 0.803721 0.915545
Si Si6 0.695868 0.921753 0.092835
Si Si7 0.336159 0.419866 0.500000
O O1 0.500000 0.210669 0.697877
O O2 0.347316 0.139757 0.701348
O O3 0.350685 0.283287 0.690507
O O4 0.392737 0.198592 0.629131
O O5 0.500000 0.073771 0.724853
O O6 0.638237 0.089703 0.778934
O O7 0.650853 0.000000 0.714825
O O8 0.153025 0.385715 0.865170
O O9 0.000000 0.358597 0.822186
O O10 0.386386 0.273886 0.957753
O O11 0.317003 0.164834 0.000000
O O12 0.500000 0.192755 0.000000
O O13 0.250000 0.750000 0.908238
O O14 0.210519 0.878878 0.921059
O O15 0.718124 0.000000 0.103575
O O16 0.628323 0.921208 0.049996
O O17 0.289312 0.500000 0.500000
#
# Coordination Sequence:
#
# PCOD9512003 Si02
#       7
#    32  32  32  16  32  32  16
#     4  10  20  35  59  88 117 154 204 252 300 356
#     4   9  18  33  55  84 119 158 201 253 307 353
#     4  10  19  35  59  88 119 157 205 254 301 362
#     4  12  24  41  68  95 120 158 204 246 291 348
#     4  12  22  40  63  87 122 162 199 242 291 359
#     4  11  23  38  60  88 123 165 200 242 306 366
#     4  10  21  38  58  89 128 158 189 232 296 364
#
# _framework density 22.835733999999999
#
# number of rings (size 3 to 8) (size 9 to 14) (size 15 to 20)
#    0.000    1.500    3.333    2.250    0.000    5.833 
#    0.000    2.500    0.000    4.000    0.000    0.000 
#    0.000    0.000    0.000    0.000    0.000    0.000 
#
# Total GULP energy -267709.345306 kJ/mol
# GULP energy per Si atom -5577.278027 kJ/mol
# Density = 2.278376 g / cm^3
# Si number density = 22.835734 Si / 1000 Ang^3
#
#
#
# Elastic Constant Matrix: (Units=GPa)
#
#
# Indices 1 2 3 4 5 6 
#
# 1 54.7612 23.0835 -7.6586 0.0000 0.0000 0.0000
# 2 23.0835 212.4879 55.8346 0.0000 0.0000 0.0000
# 3 -7.6586 55.8346 108.1077 0.0000 0.0000 0.0000
# 4 0.0000 0.0000 0.0000 25.9231 0.0000 0.0000
# 5 0.0000 0.0000 0.0000 0.0000 38.0572 0.0000
# 6 0.0000 0.0000 0.0000 0.0000 0.0000 17.8845
#
#
#
# Elastic Compliance Matrix: (Units=1/GPa)
#
#
# Indices 1 2 3 4 5 6 
#
# 1 0.019905 -0.002931 0.002924 0.000000 0.000000 0.000000
# 2 -0.002931 0.005877 -0.003243 0.000000 0.000000 0.000000
# 3 0.002924 -0.003243 0.011132 0.000000 0.000000 0.000000
# 4 0.000000 0.000000 0.000000 0.038576 0.000000 0.000000
# 5 0.000000 0.000000 0.000000 0.000000 0.026276 0.000000
# 6 0.000000 0.000000 0.000000 0.000000 0.000000 0.055914
#
#
# Mechanical properties :
#
#
# Convention : Reuss Voigt Hill
#
# Bulk Modulus (GPa) = 32.87890 57.54176 45.21033
# Shear Modulus (GPa) = 28.68325 36.64611 32.66468
#
# Velocity S-wave (km/s) = 3.54795 4.01030 3.78619
# Velocity P-wave (km/s) = 5.58688 6.83346 6.24137
#
# Compressibility (1/GPa) = 0.03041464
#
# Stress axis : x y z
#
# Youngs Moduli (GPa) = 50.23768 170.16655 89.83168
#
# Poissons Ratio (x) = 0.49870 -0.26265
# Poissons Ratio (y) = 0.14723 0.29130
# Poissons Ratio (z) = -0.14688 0.55180
#
# Static dielectric constant tensor:
#      x y z
#    x 1.923030 0.000000 0.000000 
#    y 0.000000 1.869830 0.000000 
#    z 0.000000 0.000000 1.825070 
# 
# From -- ./inp_files/46422.got.cif
#   From: 2010.05.17/outbox.cif.g08.bks.cpg/sg69_24_cif.got.tgz:46422.got - 2010.06.03 19:29:58.
