data_PCOD9512392
_publ_section_title
;
Structure prediction by ZEFSAII (Michael W. Deem and Ramdas Pophale) SiO2 
 PCOD9512392
Probable space group: F M M M
;
_chemical_formula_sum "Si O2"
_cell_formula_units_Z 160
_cell_length_a 15.061115
_cell_length_b 16.416509
_cell_length_c 29.855982
_cell_angle_alpha 90.000000
_cell_angle_beta 90.000000
_cell_angle_gamma 90.000000
_cell_volume 7381.919314
_symmetry_space_group_name_H-M "F M M M"
_symmetry_group_IT_number 69
_symmetry_cell_setting 'orthorhombic'
loop_
_space_group_symop_operation_xyz
x,y,z
-x,-y,z
x,-y,-z
-x,y,-z
-x,-y,-z
x,y,-z
-x,y,z
x,-y,z
x,1/2+y,1/2+z
-x,1/2-y,1/2+z
x,1/2-y,1/2-z
-x,1/2+y,1/2-z
-x,1/2-y,1/2-z
x,1/2+y,1/2-z
-x,1/2+y,1/2+z
x,1/2-y,1/2+z
1/2+x,y,1/2+z
1/2-x,-y,1/2+z
1/2+x,-y,1/2-z
1/2-x,y,1/2-z
1/2-x,-y,1/2-z
1/2+x,y,1/2-z
1/2-x,y,1/2+z
1/2+x,-y,1/2+z
1/2+x,1/2+y,z
1/2-x,1/2-y,z
1/2+x,1/2-y,-z
1/2-x,1/2+y,-z
1/2-x,1/2-y,-z
1/2+x,1/2+y,-z
1/2-x,1/2+y,z
1/2+x,1/2-y,z
loop_
_atom_site_type_symbol
_atom_site_label
_atom_site_fract_x
_atom_site_fract_y
_atom_site_fract_z
Si Si1 0.108068 0.639991 0.550206
Si Si2 0.892139 0.406780 0.141610
Si Si3 0.350248 0.665103 0.266706
Si Si4 0.898203 0.000000 0.783692
Si Si5 0.890593 0.500000 0.383237
Si Si6 0.108364 0.172044 0.549708
O O1 0.134207 0.613384 0.500000
O O2 0.137787 0.579485 0.588953
O O3 0.135266 0.733761 0.556238
O O4 0.000000 0.639890 0.550790
O O5 0.866682 0.500000 0.150994
O O6 0.857751 0.347107 0.180221
O O7 0.863223 0.380616 0.092005
O O8 0.000000 0.402839 0.143255
O O9 0.392850 0.750000 0.250000
O O10 0.250000 0.668095 0.250000
O O11 0.383952 0.581692 0.244457
O O12 0.853575 0.000000 0.832701
O O13 0.000000 0.000000 0.795350
O O14 0.000000 0.500000 0.384428
O O15 0.137620 0.145499 0.500000
O O16 0.000000 0.170395 0.549284
#
# Coordination Sequence:
#
# PCOD9512392 Si02
#       6
#    32  32  32  16  16  32
#     4   8  13  23  39  63 101 144 178 211 263 332
#     4  10  20  34  56  85 114 147 189 240 296 343
#     4  11  25  43  61  81 112 157 204 241 290 351
#     4  11  23  38  59  90 119 143 186 248 304 349
#     4   9  17  25  40  71 106 138 173 216 275 334
#     4   8  15  27  45  74 112 148 182 225 280 342
#
# _framework density 21.674579000000001
#
# number of rings (size 3 to 8) (size 9 to 14) (size 15 to 20)
#    0.000    2.600    1.000    2.400    2.800    3.200 
#    0.000    2.000    0.000    0.000    0.000    5.600 
#    0.000    0.000    0.000    0.000    0.000    0.200 
#
# Total GULP energy -223255.648447 kJ/mol
# GULP energy per Si atom -5581.391211 kJ/mol
# Density = 2.162525 g / cm^3
# Si number density = 21.674579 Si / 1000 Ang^3
#
#
#
# Elastic Constant Matrix: (Units=GPa)
#
#
# Indices 1 2 3 4 5 6 
#
# 1 42.8351 6.9973 7.6977 0.0000 0.0000 0.0000
# 2 6.9973 117.0643 72.7659 0.0000 0.0000 0.0000
# 3 7.6977 72.7659 174.7982 0.0000 0.0000 0.0000
# 4 0.0000 0.0000 0.0000 20.6067 0.0000 0.0000
# 5 0.0000 0.0000 0.0000 0.0000 -115.3354 0.0000
# 6 0.0000 0.0000 0.0000 0.0000 0.0000 21.7579
#
#
#
# Elastic Compliance Matrix: (Units=1/GPa)
#
#
# Indices 1 2 3 4 5 6 
#
# 1 0.023624 -0.001033 -0.000610 0.000000 0.000000 0.000000
# 2 -0.001033 0.011569 -0.004771 0.000000 0.000000 0.000000
# 3 -0.000610 -0.004771 0.007734 0.000000 0.000000 0.000000
# 4 0.000000 0.000000 0.000000 0.048528 0.000000 0.000000
# 5 0.000000 0.000000 0.000000 0.000000 -0.008670 0.000000
# 6 0.000000 0.000000 0.000000 0.000000 0.000000 0.045960
#
#
# Mechanical properties :
#
#
# Convention : Reuss Voigt Hill
#
# Bulk Modulus (GPa) = 33.22333 56.62439 44.92386
# Shear Modulus (GPa) = 32.98033 1.88828 17.43431
#
# Velocity S-wave (km/s) = 3.90502 0.93439 2.83921
# Velocity P-wave (km/s) = 5.97442 5.22930 5.61424
#
# Compressibility (1/GPa) = 0.03009933
#
# Stress axis : x y z
#
# Youngs Moduli (GPa) = 42.33033 86.43443 129.30339
#
# Poissons Ratio (x) = 0.08925 0.07894
# Poissons Ratio (y) = 0.04371 0.61687
# Poissons Ratio (z) = 0.02584 0.41235
#
# Static dielectric constant tensor:
#      x y z
#    x 1.790810 0.000000 0.000000 
#    y 0.000000 1.531840 0.000000 
#    z 0.000000 0.000000 1.790530 
# 
# From -- ./inp_files/41771.got.cif
#   From: 2010.05.17/outbox.cif.g08.bks.cpg/sg69_21_cif.got.tgz:41771.got - 2010.06.03 19:29:58.
