data_PCOD9512017
_publ_section_title
;
Structure prediction by ZEFSAII (Michael W. Deem and Ramdas Pophale) SiO2 
 PCOD9512017
Probable space group: F M M M
;
_chemical_formula_sum "Si O2"
_cell_formula_units_Z 128
_cell_length_a 17.477981
_cell_length_b 14.871454
_cell_length_c 27.867991
_cell_angle_alpha 90.000000
_cell_angle_beta 90.000000
_cell_angle_gamma 90.000000
_cell_volume 7243.531559
_symmetry_space_group_name_H-M "F M M M"
_symmetry_group_IT_number 69
_symmetry_cell_setting 'orthorhombic'
loop_
_space_group_symop_operation_xyz
x,y,z
-x,-y,z
x,-y,-z
-x,y,-z
-x,-y,-z
x,y,-z
-x,y,z
x,-y,z
x,1/2+y,1/2+z
-x,1/2-y,1/2+z
x,1/2-y,1/2-z
-x,1/2+y,1/2-z
-x,1/2-y,1/2-z
x,1/2+y,1/2-z
-x,1/2+y,1/2+z
x,1/2-y,1/2+z
1/2+x,y,1/2+z
1/2-x,-y,1/2+z
1/2+x,-y,1/2-z
1/2-x,y,1/2-z
1/2-x,-y,1/2-z
1/2+x,y,1/2-z
1/2-x,y,1/2+z
1/2+x,-y,1/2+z
1/2+x,1/2+y,z
1/2-x,1/2-y,z
1/2+x,1/2-y,-z
1/2-x,1/2+y,-z
1/2-x,1/2-y,-z
1/2+x,1/2+y,-z
1/2-x,1/2+y,z
1/2+x,1/2-y,z
loop_
_atom_site_type_symbol
_atom_site_label
_atom_site_fract_x
_atom_site_fract_y
_atom_site_fract_z
Si Si1 0.640886 0.500000 0.201159
Si Si2 0.773034 0.894519 0.944842
Si Si3 0.820689 0.312310 0.861722
Si Si4 0.412416 0.856419 0.374617
Si Si5 0.325113 0.000000 0.191393
O O1 0.607810 0.415032 0.172365
O O2 0.630473 0.500000 0.258100
O O3 0.732691 0.500000 0.196152
O O4 0.710742 0.840510 0.914111
O O5 0.852825 0.884253 0.916193
O O6 0.752872 0.000000 0.943392
O O7 0.778815 0.866134 0.000000
O O8 0.750000 0.250000 0.841021
O O9 0.892587 0.246925 0.864099
O O10 0.838644 0.405163 0.835049
O O11 0.500000 0.871177 0.387926
#
# Coordination Sequence:
#
# PCOD9512017 Si02
#       5
#    16  32  32  32  16
#     4  11  21  36  58  84 112 145 187 243 286 329
#     4  10  19  35  61  88 112 147 192 237 283 335
#     4  10  19  37  58  85 115 146 190 239 278 332
#     4  11  22  38  56  84 122 154 184 231 291 344
#     4  11  20  38  60  83 106 146 198 237 281 332
#
# _framework density 17.670939000000001
#
# number of rings (size 3 to 8) (size 9 to 14) (size 15 to 20)
#    0.000    1.500    7.500    0.375    0.000    6.000 
#    0.000    5.625    0.000    0.000    0.000    1.750 
#    0.000    0.000    0.000    0.000    0.000    0.000 
#
# Total GULP energy -178389.379341 kJ/mol
# GULP energy per Si atom -5574.668104 kJ/mol
# Density = 1.763072 g / cm^3
# Si number density = 17.670939 Si / 1000 Ang^3
#
#
#
# Elastic Constant Matrix: (Units=GPa)
#
#
# Indices 1 2 3 4 5 6 
#
# 1 48.3734 14.0433 28.4514 0.0000 0.0000 0.0000
# 2 14.0433 136.7202 67.7205 0.0000 0.0000 0.0000
# 3 28.4514 67.7205 140.8974 0.0000 0.0000 0.0000
# 4 0.0000 0.0000 0.0000 -0.7753 0.0000 0.0000
# 5 0.0000 0.0000 0.0000 0.0000 8.3283 0.0000
# 6 0.0000 0.0000 0.0000 0.0000 0.0000 10.2750
#
#
#
# Elastic Compliance Matrix: (Units=1/GPa)
#
#
# Indices 1 2 3 4 5 6 
#
# 1 0.023459 -0.000083 -0.004697 0.000000 0.000000 0.000000
# 2 -0.000083 0.009600 -0.004597 0.000000 0.000000 0.000000
# 3 -0.004697 -0.004597 0.010256 0.000000 0.000000 0.000000
# 4 0.000000 0.000000 0.000000 -1.289795 0.000000 0.000000
# 5 0.000000 0.000000 0.000000 0.000000 0.120072 0.000000
# 6 0.000000 0.000000 0.000000 0.000000 0.000000 0.097323
#
#
# Mechanical properties :
#
#
# Convention : Reuss Voigt Hill
#
# Bulk Modulus (GPa) = 40.71716 60.71348 50.71532
# Shear Modulus (GPa) = -4.98931 17.95067 6.48068
#
# Velocity S-wave (km/s) = -1.68214 3.19067 1.91713
# Velocity P-wave (km/s) = 4.39535 6.92865 5.80195
#
# Compressibility (1/GPa) = 0.02455967
#
# Stress axis : x y z
#
# Youngs Moduli (GPa) = 42.62688 104.16809 97.50857
#
# Poissons Ratio (x) = 0.00864 0.45802
# Poissons Ratio (y) = 0.00354 0.44828
# Poissons Ratio (z) = 0.20023 0.47889
#
# Static dielectric constant tensor:
#      x y z
#    x 1.573990 0.000000 0.000000 
#    y 0.000000 1.652980 0.000000 
#    z 0.000000 0.000000 1.613830 
# 
# From -- ./inp_files/18625.got.cif
#   From: 2010.05.17/outbox.cif.g08.bks.cpg/sg69_10_cif.got.tgz:18625.got - 2010.06.03 19:29:58.
