data_PCOD9512356
_publ_section_title
;
Structure prediction by ZEFSAII (Michael W. Deem and Ramdas Pophale) SiO2 
 PCOD9512356
Probable space group: F M M M
;
_chemical_formula_sum "Si O2"
_cell_formula_units_Z 160
_cell_length_a 30.813649
_cell_length_b 8.635815
_cell_length_c 30.721904
_cell_angle_alpha 90.000000
_cell_angle_beta 90.000000
_cell_angle_gamma 90.000000
_cell_volume 8175.128523
_symmetry_space_group_name_H-M "F M M M"
_symmetry_group_IT_number 69
_symmetry_cell_setting 'orthorhombic'
loop_
_space_group_symop_operation_xyz
x,y,z
-x,-y,z
x,-y,-z
-x,y,-z
-x,-y,-z
x,y,-z
-x,y,z
x,-y,z
x,1/2+y,1/2+z
-x,1/2-y,1/2+z
x,1/2-y,1/2-z
-x,1/2+y,1/2-z
-x,1/2-y,1/2-z
x,1/2+y,1/2-z
-x,1/2+y,1/2+z
x,1/2-y,1/2+z
1/2+x,y,1/2+z
1/2-x,-y,1/2+z
1/2+x,-y,1/2-z
1/2-x,y,1/2-z
1/2-x,-y,1/2-z
1/2+x,y,1/2-z
1/2-x,y,1/2+z
1/2+x,-y,1/2+z
1/2+x,1/2+y,z
1/2-x,1/2-y,z
1/2+x,1/2-y,-z
1/2-x,1/2+y,-z
1/2-x,1/2-y,-z
1/2+x,1/2+y,-z
1/2-x,1/2+y,z
1/2+x,1/2-y,z
loop_
_atom_site_type_symbol
_atom_site_label
_atom_site_fract_x
_atom_site_fract_y
_atom_site_fract_z
Si Si1 0.050697 0.684804 0.500000
Si Si2 0.500000 0.686080 0.298262
Si Si3 0.796038 0.314281 0.891385
Si Si4 0.587707 0.182111 0.336714
Si Si5 0.386005 0.681784 0.427066
Si Si6 0.820831 0.318601 0.296734
O O1 0.048463 0.500000 0.500000
O O2 0.079805 0.738570 0.459095
O O3 0.000000 0.741753 0.500000
O O4 0.500000 0.500000 0.300051
O O5 0.500000 0.750000 0.250000
O O6 0.457390 0.757255 0.319495
O O7 0.796235 0.500000 0.890744
O O8 0.750000 0.250000 0.906358
O O9 0.835831 0.262676 0.922782
O O10 0.803033 0.257397 0.841318
O O11 0.598424 0.285538 0.378300
O O12 0.627012 0.197973 0.302434
O O13 0.585897 0.000000 0.348769
O O14 0.385651 0.500000 0.437498
O O15 0.809718 0.500000 0.297766
O O16 0.807385 0.250000 0.250000
#
# Coordination Sequence:
#
# PCOD9512356 Si02
#       6
#    16  16  32  32  32  32
#     4  11  25  43  66  95 126 159 196 243 293 352
#     4  12  24  36  52  77 110 151 200 250 296 348
#     4  10  21  38  61  88 119 156 199 246 298 356
#     4  10  21  37  57  80 112 153 196 244 298 356
#     4  10  22  41  64  91 122 156 195 243 296 356
#     4  10  20  34  54  80 113 154 199 249 300 349
#
# _framework density 19.571556999999999
#
# number of rings (size 3 to 8) (size 9 to 14) (size 15 to 20)
#    0.000    1.700    0.000    4.200    1.400    7.600 
#    0.000    2.500    0.000    0.000    0.000    0.000 
#    0.000    0.000    0.000    0.000    0.000    0.000 
#
# Total GULP energy -223238.501038 kJ/mol
# GULP energy per Si atom -5580.962526 kJ/mol
# Density = 1.952701 g / cm^3
# Si number density = 19.571557 Si / 1000 Ang^3
#
#
#
# Elastic Constant Matrix: (Units=GPa)
#
#
# Indices 1 2 3 4 5 6 
#
# 1 162.9015 30.6924 35.9543 0.0000 0.0000 -0.0001
# 2 30.6924 52.5102 9.1851 -0.0001 -0.0001 -0.0001
# 3 35.9543 9.1851 60.7501 0.0000 0.0000 -0.0001
# 4 0.0000 -0.0001 0.0000 25.0801 0.0000 0.0000
# 5 0.0000 -0.0001 0.0000 0.0000 7.9530 0.0001
# 6 -0.0001 -0.0001 -0.0001 0.0000 0.0001 30.4220
#
#
#
# Elastic Compliance Matrix: (Units=1/GPa)
#
#
# Indices 1 2 3 4 5 6 
#
# 1 0.007743 -0.003826 -0.004004 0.000000 0.000000 0.000000
# 2 -0.003826 0.021451 -0.000979 0.000000 0.000000 0.000000
# 3 -0.004004 -0.000979 0.018979 0.000000 0.000000 0.000000
# 4 0.000000 0.000000 0.000000 0.039872 0.000000 0.000000
# 5 0.000000 0.000000 0.000000 0.000000 0.125739 0.000000
# 6 0.000000 0.000000 0.000000 0.000000 0.000000 0.032871
#
#
# Mechanical properties :
#
#
# Convention : Reuss Voigt Hill
#
# Bulk Modulus (GPa) = 32.72772 47.53617 40.13195
# Shear Modulus (GPa) = 18.21770 26.04635 22.13202
#
# Velocity S-wave (km/s) = 3.05425 3.65201 3.36642
# Velocity P-wave (km/s) = 5.40336 6.49030 5.97161
#
# Compressibility (1/GPa) = 0.03055513
#
# Stress axis : x y z
#
# Youngs Moduli (GPa) = 129.14460 46.61738 52.69010
#
# Poissons Ratio (x) = 0.17834 0.21099
# Poissons Ratio (y) = 0.49404 0.05160
# Poissons Ratio (z) = 0.51714 0.04565
#
# Static dielectric constant tensor:
#      x y z
#    x 1.821470 0.000000 0.000000 
#    y 0.000000 1.668320 0.000000 
#    z 0.000000 0.000000 1.654730 
# 
# From -- ./inp_files/5719.got.cif
#   From: 2010.05.17/outbox.cif.g08.bks.cpg/sg69_3_cif.got.tgz:5719.got - 2010.06.03 19:29:58.
