data_PCOD9512457
_publ_section_title
;
Structure prediction by ZEFSAII (Michael W. Deem and Ramdas Pophale) SiO2 
 PCOD9512457
Probable space group: F M M M
;
_chemical_formula_sum "Si O2"
_cell_formula_units_Z 144
_cell_length_a 8.600974
_cell_length_b 29.686663
_cell_length_c 31.934860
_cell_angle_alpha 90.000000
_cell_angle_beta 90.000000
_cell_angle_gamma 90.000000
_cell_volume 8154.062461
_symmetry_space_group_name_H-M "F M M M"
_symmetry_group_IT_number 69
_symmetry_cell_setting 'orthorhombic'
loop_
_space_group_symop_operation_xyz
x,y,z
-x,-y,z
x,-y,-z
-x,y,-z
-x,-y,-z
x,y,-z
-x,y,z
x,-y,z
x,1/2+y,1/2+z
-x,1/2-y,1/2+z
x,1/2-y,1/2-z
-x,1/2+y,1/2-z
-x,1/2-y,1/2-z
x,1/2+y,1/2-z
-x,1/2+y,1/2+z
x,1/2-y,1/2+z
1/2+x,y,1/2+z
1/2-x,-y,1/2+z
1/2+x,-y,1/2-z
1/2-x,y,1/2-z
1/2-x,-y,1/2-z
1/2+x,y,1/2-z
1/2-x,y,1/2+z
1/2+x,-y,1/2+z
1/2+x,1/2+y,z
1/2-x,1/2-y,z
1/2+x,1/2-y,-z
1/2-x,1/2+y,-z
1/2-x,1/2-y,-z
1/2+x,1/2+y,-z
1/2-x,1/2+y,z
1/2+x,1/2-y,z
loop_
_atom_site_type_symbol
_atom_site_label
_atom_site_fract_x
_atom_site_fract_y
_atom_site_fract_z
Si Si1 0.687068 0.800283 0.795478
Si Si2 0.812059 0.142092 0.375217
Si Si3 0.175469 0.554629 0.500000
Si Si4 0.813484 0.300817 0.452811
Si Si5 0.813044 0.449004 0.089309
O O1 0.500000 0.798708 0.794121
O O2 0.750000 0.814216 0.750000
O O3 0.750000 0.750000 0.803739
O O4 0.737956 0.833023 0.832890
O O5 0.752283 0.168703 0.415809
O O6 0.761535 0.090067 0.379212
O O7 0.000000 0.143165 0.376055
O O8 0.168661 0.500000 0.500000
O O9 0.260966 0.566067 0.457088
O O10 0.000000 0.572690 0.500000
O O11 0.769641 0.316327 0.500000
O O12 0.750000 0.250000 0.447970
O O13 0.000000 0.299988 0.450347
O O14 0.754767 0.500000 0.097086
O O15 0.000000 0.450880 0.089852
#
# Coordination Sequence:
#
# PCOD9512457 Si02
#       5
#    32  32  16  32  32
#     4  10  20  35  55  79 104 129 162 204 256 309
#     4  10  21  34  52  77 102 133 172 213 254 303
#     4   9  17  29  45  67  96 129 168 215 259 295
#     4  10  21  35  50  71 101 137 173 207 248 301
#     4   9  18  33  51  71  98 135 176 215 254 297
#
# _framework density 17.659908000000001
#
# number of rings (size 3 to 8) (size 9 to 14) (size 15 to 20)
#    0.000    2.333    0.000    3.000    1.556    7.111 
#    0.000    0.000    0.000    0.667    0.000    0.000 
#    0.000    0.000    0.000    0.000    0.000    0.889 
#
# Total GULP energy -200869.640414 kJ/mol
# GULP energy per Si atom -5579.712234 kJ/mol
# Density = 1.761971 g / cm^3
# Si number density = 17.659908 Si / 1000 Ang^3
#
#
#
# Elastic Constant Matrix: (Units=GPa)
#
#
# Indices 1 2 3 4 5 6 
#
# 1 18.4506 21.4502 25.1636 0.0000 0.0000 0.0000
# 2 21.4502 115.7449 101.3057 0.0000 0.0000 0.0000
# 3 25.1636 101.3057 140.1765 0.0000 0.0000 0.0000
# 4 0.0000 0.0000 0.0000 22.0792 0.0000 0.0000
# 5 0.0000 0.0000 0.0000 0.0000 11.1768 0.0000
# 6 0.0000 0.0000 0.0000 0.0000 0.0000 12.4132
#
#
#
# Elastic Compliance Matrix: (Units=1/GPa)
#
#
# Indices 1 2 3 4 5 6 
#
# 1 0.073084 -0.005610 -0.009066 0.000000 0.000000 0.000000
# 2 -0.005610 0.023943 -0.016296 0.000000 0.000000 0.000000
# 3 -0.009066 -0.016296 0.020539 0.000000 0.000000 0.000000
# 4 0.000000 0.000000 0.000000 0.045291 0.000000 0.000000
# 5 0.000000 0.000000 0.000000 0.000000 0.089471 0.000000
# 6 0.000000 0.000000 0.000000 0.000000 0.000000 0.080560
#
#
# Mechanical properties :
#
#
# Convention : Reuss Voigt Hill
#
# Bulk Modulus (GPa) = 17.97831 63.35677 40.66754
# Shear Modulus (GPa) = 12.09564 17.56400 14.82982
#
# Velocity S-wave (km/s) = 2.61994 3.15710 2.90098
# Velocity P-wave (km/s) = 4.39938 7.01738 5.85654
#
# Compressibility (1/GPa) = 0.05562257
#
# Stress axis : x y z
#
# Youngs Moduli (GPa) = 13.68284 41.76630 48.68847
#
# Poissons Ratio (x) = 0.23429 0.44139
# Poissons Ratio (y) = 0.07675 0.79345
# Poissons Ratio (z) = 0.12404 0.68064
#
# Static dielectric constant tensor:
#      x y z
#    x 1.601170 0.000000 0.000000 
#    y 0.000000 1.634420 0.000000 
#    z 0.000000 0.000000 1.581490 
# 
# From -- ./inp_files/5526.got.cif
#   From: 2010.05.17/outbox.cif.g08.bks.cpg/sg69_3_cif.got.tgz:5526.got - 2010.06.03 19:29:58.
