data_PCOD9512227
_publ_section_title
;
Structure prediction by ZEFSAII (Michael W. Deem and Ramdas Pophale) SiO2 
 PCOD9512227
Probable space group: F M M M
;
_chemical_formula_sum "Si O2"
_cell_formula_units_Z 192
_cell_length_a 25.083122
_cell_length_b 21.984202
_cell_length_c 18.454942
_cell_angle_alpha 90.000000
_cell_angle_beta 90.000000
_cell_angle_gamma 90.000000
_cell_volume 10176.653343
_symmetry_space_group_name_H-M "F M M M"
_symmetry_group_IT_number 69
_symmetry_cell_setting 'orthorhombic'
loop_
_space_group_symop_operation_xyz
x,y,z
-x,-y,z
x,-y,-z
-x,y,-z
-x,-y,-z
x,y,-z
-x,y,z
x,-y,z
x,1/2+y,1/2+z
-x,1/2-y,1/2+z
x,1/2-y,1/2-z
-x,1/2+y,1/2-z
-x,1/2-y,1/2-z
x,1/2+y,1/2-z
-x,1/2+y,1/2+z
x,1/2-y,1/2+z
1/2+x,y,1/2+z
1/2-x,-y,1/2+z
1/2+x,-y,1/2-z
1/2-x,y,1/2-z
1/2-x,-y,1/2-z
1/2+x,y,1/2-z
1/2-x,y,1/2+z
1/2+x,-y,1/2+z
1/2+x,1/2+y,z
1/2-x,1/2-y,z
1/2+x,1/2-y,-z
1/2-x,1/2+y,-z
1/2-x,1/2-y,-z
1/2+x,1/2+y,-z
1/2-x,1/2+y,z
1/2+x,1/2-y,z
loop_
_atom_site_type_symbol
_atom_site_label
_atom_site_fract_x
_atom_site_fract_y
_atom_site_fract_z
Si Si1 0.259462 0.427134 0.165126
Si Si2 0.561293 0.232391 0.583591
Si Si3 0.062526 0.354873 0.166418
Si Si4 0.137275 0.383249 0.415161
Si Si5 0.437181 0.433315 0.801892
Si Si6 0.849630 0.571940 0.916068
O O1 0.270213 0.500000 0.155902
O O2 0.250000 0.415904 0.250000
O O3 0.307831 0.390372 0.128948
O O4 0.204181 0.412071 0.125999
O O5 0.563951 0.256461 0.500000
O O6 0.500000 0.208528 0.592186
O O7 0.568794 0.284830 0.643252
O O8 0.606355 0.181205 0.589869
O O9 0.076647 0.378550 0.246947
O O10 0.100014 0.392699 0.113912
O O11 0.000000 0.369550 0.156577
O O12 0.145690 0.396898 0.500000
O O13 0.096358 0.427726 0.374547
O O14 0.500000 0.429999 0.816604
O O15 0.426191 0.500000 0.767753
O O16 0.858180 0.500000 0.907046
O O17 0.841690 0.585192 0.000000
#
# Coordination Sequence:
#
# PCOD9512227 Si02
#       6
#    32  32  32  32  32  32
#     4  10  21  38  59  81 109 147 189 234 286 343
#     4   9  19  36  58  86 119 154 194 239 283 332
#     4  10  20  36  58  81 112 155 196 233 282 342
#     4  11  22  37  59  85 114 152 195 234 280 342
#     4  10  21  35  53  82 117 150 189 240 292 341
#     4  10  20  33  52  81 112 139 178 236 292 341
#
# _framework density 18.866713000000001
#
# number of rings (size 3 to 8) (size 9 to 14) (size 15 to 20)
#    0.000    2.000    0.000    3.500    0.000    7.000 
#    0.000    5.000    0.000    4.000    0.000    0.000 
#    0.000    0.000    0.000    0.000    0.000    0.000 
#
# Total GULP energy -267821.608934 kJ/mol
# GULP energy per Si atom -5579.616853 kJ/mol
# Density = 1.882377 g / cm^3
# Si number density = 18.866713 Si / 1000 Ang^3
#
#
#
# Elastic Constant Matrix: (Units=GPa)
#
#
# Indices 1 2 3 4 5 6 
#
# 1 82.4959 32.5747 86.7751 0.0000 0.0000 0.0000
# 2 32.5747 145.3511 -84.6359 0.0000 0.0000 0.0000
# 3 86.7751 -84.6359 310.7830 0.0000 0.0000 0.0000
# 4 0.0000 0.0000 0.0000 27.9765 0.0000 0.0000
# 5 0.0000 0.0000 0.0000 0.0000 37.3014 0.0000
# 6 0.0000 0.0000 0.0000 0.0000 0.0000 -19.5632
#
#
#
# Elastic Compliance Matrix: (Units=1/GPa)
#
#
# Indices 1 2 3 4 5 6 
#
# 1 0.030830 -0.014168 -0.012467 0.000000 0.000000 0.000000
# 2 -0.014168 0.014688 0.007956 0.000000 0.000000 0.000000
# 3 -0.012467 0.007956 0.008865 0.000000 0.000000 0.000000
# 4 0.000000 0.000000 0.000000 0.035744 0.000000 0.000000
# 5 0.000000 0.000000 0.000000 0.000000 0.026809 0.000000
# 6 0.000000 0.000000 0.000000 0.000000 0.000000 -0.051116
#
#
# Mechanical properties :
#
#
# Convention : Reuss Voigt Hill
#
# Bulk Modulus (GPa) = 58.73814 67.56198 63.15006
# Shear Modulus (GPa) = 45.93384 42.73735 44.33559
#
# Velocity S-wave (km/s) = 4.93957 4.76460 4.85287
# Velocity P-wave (km/s) = 7.98331 8.13366 8.05884
#
# Compressibility (1/GPa) = 0.01702471
#
# Stress axis : x y z
#
# Youngs Moduli (GPa) = 32.43627 68.08353 112.80067
#
# Poissons Ratio (x) = 0.96463 1.40624
# Poissons Ratio (y) = 0.45957 -0.89744
# Poissons Ratio (z) = 0.40437 -0.54167
#
# Static dielectric constant tensor:
#      x y z
#    x 1.629310 0.000000 0.000000 
#    y 0.000000 1.672550 0.000000 
#    z 0.000000 0.000000 1.667890 
# 
# From -- ./inp_files/32838.got.cif
#   From: 2010.05.17/outbox.cif.g08.bks.cpg/sg69_17_cif.got.tgz:32838.got - 2010.06.03 19:29:58.
