data_PCOD9512713
_publ_section_title
;
Structure prediction by ZEFSAII (Michael W. Deem and Ramdas Pophale) SiO2 
 PCOD9512713
Probable space group: F M M M
;
_chemical_formula_sum "Si O2"
_cell_formula_units_Z 176
_cell_length_a 26.860708
_cell_length_b 17.956471
_cell_length_c 18.725401
_cell_angle_alpha 90.000000
_cell_angle_beta 90.000000
_cell_angle_gamma 90.000000
_cell_volume 9031.701403
_symmetry_space_group_name_H-M "F M M M"
_symmetry_group_IT_number 69
_symmetry_cell_setting 'orthorhombic'
loop_
_space_group_symop_operation_xyz
x,y,z
-x,-y,z
x,-y,-z
-x,y,-z
-x,-y,-z
x,y,-z
-x,y,z
x,-y,z
x,1/2+y,1/2+z
-x,1/2-y,1/2+z
x,1/2-y,1/2-z
-x,1/2+y,1/2-z
-x,1/2-y,1/2-z
x,1/2+y,1/2-z
-x,1/2+y,1/2+z
x,1/2-y,1/2+z
1/2+x,y,1/2+z
1/2-x,-y,1/2+z
1/2+x,-y,1/2-z
1/2-x,y,1/2-z
1/2-x,-y,1/2-z
1/2+x,y,1/2-z
1/2-x,y,1/2+z
1/2+x,-y,1/2+z
1/2+x,1/2+y,z
1/2-x,1/2-y,z
1/2+x,1/2-y,-z
1/2-x,1/2+y,-z
1/2-x,1/2-y,-z
1/2+x,1/2+y,-z
1/2-x,1/2+y,z
1/2+x,1/2-y,z
loop_
_atom_site_type_symbol
_atom_site_label
_atom_site_fract_x
_atom_site_fract_y
_atom_site_fract_z
Si Si1 0.440530 0.000000 0.740495
Si Si2 0.684027 0.365966 0.081644
Si Si3 0.276444 0.584718 0.327024
Si Si4 0.060110 0.916734 0.500000
Si Si5 0.559785 0.359697 0.341481
Si Si6 0.654253 0.775878 0.827345
Si Si7 0.394411 0.500000 0.081976
O O1 0.426137 0.073245 0.786808
O O2 0.500000 0.000000 0.740799
O O3 0.423987 0.000000 0.657525
O O4 0.732093 0.402014 0.117712
O O5 0.668815 0.289547 0.119478
O O6 0.640004 0.426605 0.085675
O O7 0.695006 0.350115 0.000000
O O8 0.295549 0.500000 0.330086
O O9 0.250000 0.595060 0.250000
O O10 0.318344 0.646038 0.341301
O O11 0.071967 0.879903 0.424105
O O12 0.000000 0.921457 0.500000
O O13 0.080923 0.000000 0.500000
O O14 0.500000 0.347586 0.335998
O O15 0.595239 0.290542 0.325316
O O16 0.671894 0.750000 0.750000
O O17 0.417232 0.500000 0.000000
#
# Coordination Sequence:
#
# PCOD9512713 Si02
#       7
#    16  32  32  16  32  32  16
#     4  10  20  36  63  97 125 163 217 266 319 378
#     4  11  24  44  66  92 128 168 210 262 320 377
#     4  11  24  41  66  94 124 166 208 256 316 385
#     4   9  16  34  60  88 125 167 209 257 318 375
#     4  10  22  38  62  92 131 175 213 263 320 379
#     4  12  25  40  64  97 131 167 215 262 318 376
#     4  10  22  43  69  89 121 171 216 261 324 380
#
# _framework density 19.486915
#
# number of rings (size 3 to 8) (size 9 to 14) (size 15 to 20)
#    0.000    1.364    3.636    1.636    2.545    2.000 
#    0.000    0.909    0.000    1.091    0.000    0.000 
#    0.000    0.000    0.000    0.000    0.000    0.000 
#
# Total GULP energy -245577.408366 kJ/mol
# GULP energy per Si atom -5581.304736 kJ/mol
# Density = 1.944256 g / cm^3
# Si number density = 19.486915 Si / 1000 Ang^3
#
#
#
# Elastic Constant Matrix: (Units=GPa)
#
#
# Indices 1 2 3 4 5 6 
#
# 1 26.3952 19.6797 14.0653 0.0000 0.0000 0.0000
# 2 19.6797 106.6082 39.3041 0.0000 0.0000 0.0000
# 3 14.0653 39.3041 155.8064 0.0000 0.0000 0.0000
# 4 0.0000 0.0000 0.0000 36.2479 0.0000 0.0000
# 5 0.0000 0.0000 0.0000 0.0000 35.6307 0.0000
# 6 0.0000 0.0000 0.0000 0.0000 0.0000 30.8628
#
#
#
# Elastic Compliance Matrix: (Units=1/GPa)
#
#
# Indices 1 2 3 4 5 6 
#
# 1 0.044575 -0.007437 -0.002148 0.000000 0.000000 0.000000
# 2 -0.007437 0.011583 -0.002251 0.000000 0.000000 0.000000
# 3 -0.002148 -0.002251 0.007180 0.000000 0.000000 0.000000
# 4 0.000000 0.000000 0.000000 0.027588 0.000000 0.000000
# 5 0.000000 0.000000 0.000000 0.000000 0.028066 0.000000
# 6 0.000000 0.000000 0.000000 0.000000 0.000000 0.032401
#
#
# Mechanical properties :
#
#
# Convention : Reuss Voigt Hill
#
# Bulk Modulus (GPa) = 25.20974 48.32311 36.76642
# Shear Modulus (GPa) = 26.55552 34.93233 30.74393
#
# Velocity S-wave (km/s) = 3.69553 4.23851 3.97630
# Velocity P-wave (km/s) = 5.58338 6.98605 6.32372
#
# Compressibility (1/GPa) = 0.03966721
#
# Stress axis : x y z
#
# Youngs Moduli (GPa) = 22.43420 86.33617 139.27855
#
# Poissons Ratio (x) = 0.64204 0.29917
# Poissons Ratio (y) = 0.16683 0.31345
# Poissons Ratio (z) = 0.04819 0.19430
#
# Static dielectric constant tensor:
#      x y z
#    x 1.677820 0.000000 0.000000 
#    y 0.000000 1.698740 0.000000 
#    z 0.000000 0.000000 1.747180 
# 
# From -- ./inp_files/23303.got.cif
#   From: 2010.05.17/outbox.cif.g08.bks.cpg/sg69_12_cif.got.tgz:23303.got - 2010.06.03 19:29:58.
