data_PCOD9512205
_publ_section_title
;
Structure prediction by ZEFSAII (Michael W. Deem and Ramdas Pophale) SiO2 
 PCOD9512205
Probable space group: F M M M
;
_chemical_formula_sum "Si O2"
_cell_formula_units_Z 160
_cell_length_a 14.822432
_cell_length_b 23.294164
_cell_length_c 25.170814
_cell_angle_alpha 90.000000
_cell_angle_beta 90.000000
_cell_angle_gamma 90.000000
_cell_volume 8690.882049
_symmetry_space_group_name_H-M "F M M M"
_symmetry_group_IT_number 69
_symmetry_cell_setting 'orthorhombic'
loop_
_space_group_symop_operation_xyz
x,y,z
-x,-y,z
x,-y,-z
-x,y,-z
-x,-y,-z
x,y,-z
-x,y,z
x,-y,z
x,1/2+y,1/2+z
-x,1/2-y,1/2+z
x,1/2-y,1/2-z
-x,1/2+y,1/2-z
-x,1/2-y,1/2-z
x,1/2+y,1/2-z
-x,1/2+y,1/2+z
x,1/2-y,1/2+z
1/2+x,y,1/2+z
1/2-x,-y,1/2+z
1/2+x,-y,1/2-z
1/2-x,y,1/2-z
1/2-x,-y,1/2-z
1/2+x,y,1/2-z
1/2-x,y,1/2+z
1/2+x,-y,1/2+z
1/2+x,1/2+y,z
1/2-x,1/2-y,z
1/2+x,1/2-y,-z
1/2-x,1/2+y,-z
1/2-x,1/2-y,-z
1/2+x,1/2+y,-z
1/2-x,1/2+y,z
1/2+x,1/2-y,z
loop_
_atom_site_type_symbol
_atom_site_label
_atom_site_fract_x
_atom_site_fract_y
_atom_site_fract_z
Si Si1 0.782077 0.567161 0.352314
Si Si2 0.605856 0.759513 0.630574
Si Si3 0.397271 0.135258 0.844252
Si Si4 0.846366 0.337034 0.728365
Si Si5 0.391885 0.132872 0.562836
O O1 0.789254 0.500000 0.341975
O O2 0.677587 0.587100 0.354636
O O3 0.827533 0.605629 0.305989
O O4 0.835257 0.585507 0.405449
O O5 0.500000 0.751731 0.621194
O O6 0.642089 0.694927 0.631324
O O7 0.616750 0.789856 0.687846
O O8 0.637775 0.805589 0.587375
O O9 0.500000 0.123273 0.862291
O O10 0.400947 0.147931 0.781024
O O11 0.750000 0.317131 0.750000
O O12 0.378693 0.130630 0.500000
O O13 0.500000 0.126569 0.573658
#
# Coordination Sequence:
#
# PCOD9512205 Si02
#       5
#    32  32  32  32  32
#     4  10  22  37  51  74 108 141 180 226 260 294
#     4   9  17  31  51  78 108 132 164 213 264 315
#     4  10  20  33  51  75 106 146 182 209 248 305
#     4   9  18  29  48  74 104 139 176 216 261 308
#     4   9  19  37  61  85 105 127 159 209 277 337
#
# _framework density 18.410098999999999
#
# number of rings (size 3 to 8) (size 9 to 14) (size 15 to 20)
#    0.000    2.600    0.000    1.200    0.000   16.800 
#    0.000    3.000    0.000    1.800    0.000    1.400 
#    0.000    0.000    0.000    0.000    0.000    0.000 
#
# Total GULP energy -223049.572509 kJ/mol
# GULP energy per Si atom -5576.239313 kJ/mol
# Density = 1.836820 g / cm^3
# Si number density = 18.410099 Si / 1000 Ang^3
#
#
#
# Elastic Constant Matrix: (Units=GPa)
#
#
# Indices 1 2 3 4 5 6 
#
# 1 65.7163 14.9035 19.8902 0.0000 0.0000 0.0000
# 2 14.9035 106.0547 14.1970 0.0000 0.0000 0.0000
# 3 19.8902 14.1970 53.7479 0.0000 0.0000 0.0000
# 4 0.0000 0.0000 0.0000 6.8136 0.0000 0.0000
# 5 0.0000 0.0000 0.0000 0.0000 21.9261 0.0000
# 6 0.0000 0.0000 0.0000 0.0000 0.0000 17.9662
#
#
#
# Elastic Compliance Matrix: (Units=1/GPa)
#
#
# Indices 1 2 3 4 5 6 
#
# 1 0.017408 -0.001642 -0.006008 0.000000 0.000000 0.000000
# 2 -0.001642 0.009930 -0.002015 0.000000 0.000000 0.000000
# 3 -0.006008 -0.002015 0.021361 0.000000 0.000000 0.000000
# 4 0.000000 0.000000 0.000000 0.146765 0.000000 0.000000
# 5 0.000000 0.000000 0.000000 0.000000 0.045608 0.000000
# 6 0.000000 0.000000 0.000000 0.000000 0.000000 0.055660
#
#
# Mechanical properties :
#
#
# Convention : Reuss Voigt Hill
#
# Bulk Modulus (GPa) = 34.05109 35.94450 34.99780
# Shear Modulus (GPa) = 15.34439 21.10972 18.22705
#
# Velocity S-wave (km/s) = 2.89013 3.38988 3.14993
# Velocity P-wave (km/s) = 5.44731 5.90664 5.68162
#
# Compressibility (1/GPa) = 0.02936763
#
# Stress axis : x y z
#
# Youngs Moduli (GPa) = 57.44543 100.70898 46.81401
#
# Poissons Ratio (x) = 0.16536 0.28127
# Poissons Ratio (y) = 0.09432 0.09434
# Poissons Ratio (z) = 0.34515 0.20295
#
# Static dielectric constant tensor:
#      x y z
#    x 1.673480 0.000000 0.000000 
#    y 0.000000 1.642580 0.000000 
#    z 0.000000 0.000000 1.633630 
# 
# From -- ./inp_files/17677.got.cif
#   From: 2010.05.17/outbox.cif.g08.bks.cpg/sg69_9_cif.got.tgz:17677.got - 2010.06.03 19:29:58.
