data_PCOD9512754
_publ_section_title
;
Structure prediction by ZEFSAII (Michael W. Deem and Ramdas Pophale) SiO2 
 PCOD9512754
Probable space group: F M M M
;
_chemical_formula_sum "Si O2"
_cell_formula_units_Z 160
_cell_length_a 18.991743
_cell_length_b 31.373139
_cell_length_c 13.206312
_cell_angle_alpha 90.000000
_cell_angle_beta 90.000000
_cell_angle_gamma 90.000000
_cell_volume 7868.724710
_symmetry_space_group_name_H-M "F M M M"
_symmetry_group_IT_number 69
_symmetry_cell_setting 'orthorhombic'
loop_
_space_group_symop_operation_xyz
x,y,z
-x,-y,z
x,-y,-z
-x,y,-z
-x,-y,-z
x,y,-z
-x,y,z
x,-y,z
x,1/2+y,1/2+z
-x,1/2-y,1/2+z
x,1/2-y,1/2-z
-x,1/2+y,1/2-z
-x,1/2-y,1/2-z
x,1/2+y,1/2-z
-x,1/2+y,1/2+z
x,1/2-y,1/2+z
1/2+x,y,1/2+z
1/2-x,-y,1/2+z
1/2+x,-y,1/2-z
1/2-x,y,1/2-z
1/2-x,-y,1/2-z
1/2+x,y,1/2-z
1/2-x,y,1/2+z
1/2+x,-y,1/2+z
1/2+x,1/2+y,z
1/2-x,1/2-y,z
1/2+x,1/2-y,-z
1/2-x,1/2+y,-z
1/2-x,1/2-y,-z
1/2+x,1/2+y,-z
1/2-x,1/2+y,z
1/2+x,1/2-y,z
loop_
_atom_site_type_symbol
_atom_site_label
_atom_site_fract_x
_atom_site_fract_y
_atom_site_fract_z
Si Si1 0.790454 0.684825 0.877096
Si Si2 0.500000 0.683605 0.123285
Si Si3 0.706841 0.087897 0.882611
Si Si4 0.650117 0.549460 0.186872
Si Si5 0.500000 0.414846 0.121824
Si Si6 0.143585 0.727180 0.623356
O O1 0.806859 0.636589 0.847694
O O2 0.840921 0.723933 0.847174
O O3 0.711207 0.698637 0.848343
O O4 0.791234 0.684155 0.000000
O O5 0.500000 0.634498 0.155190
O O6 0.570213 0.707620 0.156950
O O7 0.500000 0.683545 0.000000
O O8 0.666129 0.057463 0.805347
O O9 0.789859 0.077184 0.869638
O O10 0.687569 0.083022 0.000000
O O11 0.660844 0.500000 0.161414
O O12 0.571600 0.563401 0.159522
O O13 0.500000 0.416285 0.000000
O O14 0.142632 0.726961 0.500000
#
# Coordination Sequence:
#
# PCOD9512754 Si02
#       6
#    32  16  32  32  16  32
#     4   8  14  26  47  74 105 146 186 224 274 327
#     4   9  16  27  49  80 109 143 181 222 275 331
#     4  10  20  37  61  86 115 152 194 238 285 340
#     4  11  24  39  59  88 117 148 190 243 299 350
#     4  11  23  40  63  88 117 151 187 233 293 354
#     4   8  13  23  43  75 110 141 183 226 267 328
#
# _framework density 20.333663999999999
#
# number of rings (size 3 to 8) (size 9 to 14) (size 15 to 20)
#    0.000    2.600    0.000    4.500    0.000    6.400 
#    0.000    1.500    0.000   25.200    0.000    0.000 
#    0.000    0.000    0.000    0.000    0.000    0.000 
#
# Total GULP energy -223564.087232 kJ/mol
# GULP energy per Si atom -5589.102181 kJ/mol
# Density = 2.028738 g / cm^3
# Si number density = 20.333664 Si / 1000 Ang^3
#
#
#
# Elastic Constant Matrix: (Units=GPa)
#
#
# Indices 1 2 3 4 5 6 
#
# 1 99.8702 34.7294 9.4673 0.0000 0.0000 0.0000
# 2 34.7294 114.4033 -4.3516 0.0000 0.0000 0.0000
# 3 9.4673 -4.3516 69.5250 0.0000 0.0000 0.0000
# 4 0.0000 0.0000 0.0000 26.6424 0.0000 0.0000
# 5 0.0000 0.0000 0.0000 0.0000 19.5325 0.0000
# 6 0.0000 0.0000 0.0000 0.0000 0.0000 27.9061
#
#
#
# Elastic Compliance Matrix: (Units=1/GPa)
#
#
# Indices 1 2 3 4 5 6 
#
# 1 0.011409 -0.003531 -0.001775 0.000000 0.000000 0.000000
# 2 -0.003531 0.009855 0.001098 0.000000 0.000000 0.000000
# 3 -0.001775 0.001098 0.014694 0.000000 0.000000 0.000000
# 4 0.000000 0.000000 0.000000 0.037534 0.000000 0.000000
# 5 0.000000 0.000000 0.000000 0.000000 0.051197 0.000000
# 6 0.000000 0.000000 0.000000 0.000000 0.000000 0.035834
#
#
# Mechanical properties :
#
#
# Convention : Reuss Voigt Hill
#
# Bulk Modulus (GPa) = 36.30877 40.38762 38.34820
# Shear Modulus (GPa) = 28.07109 31.07975 29.57542
#
# Velocity S-wave (km/s) = 3.71957 3.91383 3.81794
# Velocity P-wave (km/s) = 6.02845 6.35056 6.19160
#
# Compressibility (1/GPa) = 0.02754155
#
# Stress axis : x y z
#
# Youngs Moduli (GPa) = 87.64933 101.47489 68.05652
#
# Poissons Ratio (x) = 0.35830 0.12077
# Poissons Ratio (y) = 0.30949 -0.07470
# Poissons Ratio (z) = 0.15554 -0.11138
#
# Static dielectric constant tensor:
#      x y z
#    x 1.666150 0.000000 0.000000 
#    y 0.000000 1.702350 0.000000 
#    z 0.000000 0.000000 1.799900 
# 
# From -- ./inp_files/15697.got.cif
#   From: 2010.05.17/outbox.cif.g08.bks.cpg/sg69_8_cif.got.tgz:15697.got - 2010.06.03 19:29:58.
