data_PCOD9512365
_publ_section_title
;
Structure prediction by ZEFSAII (Michael W. Deem and Ramdas Pophale) SiO2 
 PCOD9512365
Probable space group: F M M M
;
_chemical_formula_sum "Si O2"
_cell_formula_units_Z 208
_cell_length_a 27.529121
_cell_length_b 19.111192
_cell_length_c 23.563124
_cell_angle_alpha 90.000000
_cell_angle_beta 90.000000
_cell_angle_gamma 90.000000
_cell_volume 12396.896890
_symmetry_space_group_name_H-M "F M M M"
_symmetry_group_IT_number 69
_symmetry_cell_setting 'orthorhombic'
loop_
_space_group_symop_operation_xyz
x,y,z
-x,-y,z
x,-y,-z
-x,y,-z
-x,-y,-z
x,y,-z
-x,y,z
x,-y,z
x,1/2+y,1/2+z
-x,1/2-y,1/2+z
x,1/2-y,1/2-z
-x,1/2+y,1/2-z
-x,1/2-y,1/2-z
x,1/2+y,1/2-z
-x,1/2+y,1/2+z
x,1/2-y,1/2+z
1/2+x,y,1/2+z
1/2-x,-y,1/2+z
1/2+x,-y,1/2-z
1/2-x,y,1/2-z
1/2-x,-y,1/2-z
1/2+x,y,1/2-z
1/2-x,y,1/2+z
1/2+x,-y,1/2+z
1/2+x,1/2+y,z
1/2-x,1/2-y,z
1/2+x,1/2-y,-z
1/2-x,1/2+y,-z
1/2-x,1/2-y,-z
1/2+x,1/2+y,-z
1/2-x,1/2+y,z
1/2+x,1/2-y,z
loop_
_atom_site_type_symbol
_atom_site_label
_atom_site_fract_x
_atom_site_fract_y
_atom_site_fract_z
Si Si1 0.500000 0.919814 0.432111
Si Si2 0.441573 0.581585 0.650563
Si Si3 0.724767 0.678155 0.431229
Si Si4 0.443088 0.832438 0.736560
Si Si5 0.905528 0.339800 0.613322
Si Si6 0.611881 0.684563 0.568508
Si Si7 0.311153 0.919265 0.431339
O O1 0.500000 0.921592 0.500000
O O2 0.548260 0.880048 0.412395
O O3 0.500000 0.000000 0.410838
O O4 0.500000 0.585383 0.645734
O O5 0.427575 0.500000 0.652160
O O6 0.428600 0.621886 0.708922
O O7 0.418044 0.623199 0.598468
O O8 0.724842 0.679523 0.500000
O O9 0.750000 0.750000 0.411817
O O10 0.668586 0.675321 0.415025
O O11 0.759872 0.614914 0.413912
O O12 0.500000 0.848488 0.723747
O O13 0.440508 0.750000 0.750000
O O14 0.411549 0.845045 0.680858
O O15 0.905692 0.259493 0.592316
O O16 0.855859 0.374939 0.592498
O O17 0.607739 0.683893 0.500000
O O18 0.313919 0.915664 0.500000
O O19 0.314833 0.000000 0.414505
#
# Coordination Sequence:
#
# PCOD9512365 Si02
#       7
#    16  32  32  32  32  32  32
#     4  11  24  36  47  78 127 161 181 222 284 346
#     4  10  23  41  59  82 115 151 189 238 288 334
#     4   9  17  33  54  79 111 146 186 230 276 332
#     4  10  20  38  59  80 107 144 194 243 276 321
#     4  12  21  35  57  84 115 148 194 232 278 338
#     4  11  22  35  59  89 116 149 190 235 285 341
#     4  10  20  34  54  83 118 150 181 225 283 341
#
# _framework density 16.778392
#
# number of rings (size 3 to 8) (size 9 to 14) (size 15 to 20)
#    0.000    1.615    3.846    1.846    1.077    3.692 
#    0.000    2.308    0.000    0.923    0.000    2.154 
#    0.000    0.000    0.000    0.000    0.000    0.000 
#
# Total GULP energy -290189.810857 kJ/mol
# GULP energy per Si atom -5580.573286 kJ/mol
# Density = 1.674020 g / cm^3
# Si number density = 16.778392 Si / 1000 Ang^3
#
#
#
# Elastic Constant Matrix: (Units=GPa)
#
#
# Indices 1 2 3 4 5 6 
#
# 1 74.3555 50.2692 31.6984 0.0000 0.0000 0.0000
# 2 50.2692 136.5934 43.5292 0.0000 0.0000 0.0000
# 3 31.6984 43.5292 74.3985 0.0000 0.0000 0.0000
# 4 0.0000 0.0000 0.0000 24.9171 0.0000 0.0000
# 5 0.0000 0.0000 0.0000 0.0000 -1.0596 0.0000
# 6 0.0000 0.0000 0.0000 0.0000 0.0000 25.4730
#
#
#
# Elastic Compliance Matrix: (Units=1/GPa)
#
#
# Indices 1 2 3 4 5 6 
#
# 1 0.019307 -0.005512 -0.005001 0.000000 0.000000 0.000000
# 2 -0.005512 0.010572 -0.003837 0.000000 0.000000 0.000000
# 3 -0.005001 -0.003837 0.017817 0.000000 0.000000 0.000000
# 4 0.000000 0.000000 0.000000 0.040133 0.000000 0.000000
# 5 0.000000 0.000000 0.000000 0.000000 -0.943777 0.000000
# 6 0.000000 0.000000 0.000000 0.000000 0.000000 0.039257
#
#
# Mechanical properties :
#
#
# Convention : Reuss Voigt Hill
#
# Bulk Modulus (GPa) = 52.64252 59.59346 56.11799
# Shear Modulus (GPa) = -6.39667 20.52281 7.06307
#
# Velocity S-wave (km/s) = -1.95467 3.50118 2.05396
# Velocity P-wave (km/s) = 5.13313 7.20690 6.25653
#
# Compressibility (1/GPa) = 0.01899605
#
# Stress axis : x y z
#
# Youngs Moduli (GPa) = 51.79401 94.58704 56.12570
#
# Poissons Ratio (x) = 0.52133 0.28070
# Poissons Ratio (y) = 0.28547 0.21537
# Poissons Ratio (z) = 0.25904 0.36296
#
# Static dielectric constant tensor:
#      x y z
#    x 1.552050 0.000000 0.000000 
#    y 0.000000 1.567030 0.000000 
#    z 0.000000 0.000000 1.553840 
# 
# From -- ./inp_files/38480.got.cif
#   From: 2010.05.17/outbox.cif.g08.bks.cpg/sg69_20_cif.got.tgz:38480.got - 2010.06.03 19:29:58.
