data_PCOD9512959
_publ_section_title
;
Structure prediction by ZEFSAII (Michael W. Deem and Ramdas Pophale) SiO2 
 PCOD9512959
Probable space group: F M M M
;
_chemical_formula_sum "Si O2"
_cell_formula_units_Z 208
_cell_length_a 16.579335
_cell_length_b 23.359328
_cell_length_c 26.827906
_cell_angle_alpha 90.000000
_cell_angle_beta 90.000000
_cell_angle_gamma 90.000000
_cell_volume 10389.968426
_symmetry_space_group_name_H-M "F M M M"
_symmetry_group_IT_number 69
_symmetry_cell_setting 'orthorhombic'
loop_
_space_group_symop_operation_xyz
x,y,z
-x,-y,z
x,-y,-z
-x,y,-z
-x,-y,-z
x,y,-z
-x,y,z
x,-y,z
x,1/2+y,1/2+z
-x,1/2-y,1/2+z
x,1/2-y,1/2-z
-x,1/2+y,1/2-z
-x,1/2-y,1/2-z
x,1/2+y,1/2-z
-x,1/2+y,1/2+z
x,1/2-y,1/2+z
1/2+x,y,1/2+z
1/2-x,-y,1/2+z
1/2+x,-y,1/2-z
1/2-x,y,1/2-z
1/2-x,-y,1/2-z
1/2+x,y,1/2-z
1/2-x,y,1/2+z
1/2+x,-y,1/2+z
1/2+x,1/2+y,z
1/2-x,1/2-y,z
1/2+x,1/2-y,-z
1/2-x,1/2+y,-z
1/2-x,1/2-y,-z
1/2+x,1/2+y,-z
1/2-x,1/2+y,z
1/2+x,1/2-y,z
loop_
_atom_site_type_symbol
_atom_site_label
_atom_site_fract_x
_atom_site_fract_y
_atom_site_fract_z
Si Si1 0.588716 0.600716 0.841579
Si Si2 0.645712 0.147193 0.444326
Si Si3 0.404440 0.773454 0.698866
Si Si4 0.096903 0.233316 0.407994
Si Si5 0.743522 0.565025 0.307486
Si Si6 0.678441 0.615280 0.595157
Si Si7 0.092729 0.000000 0.440361
O O1 0.500000 0.576793 0.831423
O O2 0.593791 0.620944 0.899121
O O3 0.600117 0.658603 0.808970
O O4 0.665630 0.563286 0.828910
O O5 0.623086 0.129000 0.500000
O O6 0.635913 0.215917 0.440090
O O7 0.736405 0.127934 0.431402
O O8 0.500000 0.758972 0.699175
O O9 0.368590 0.750000 0.750000
O O10 0.372501 0.745627 0.648340
O O11 0.122421 0.168840 0.418533
O O12 0.000000 0.239836 0.410858
O O13 0.709838 0.500000 0.308203
O O14 0.750000 0.583757 0.250000
O O15 0.695883 0.606125 0.345596
O O16 0.638929 0.556452 0.577492
O O17 0.091624 0.000000 0.500000
O O18 0.000000 0.000000 0.422244
#
# Coordination Sequence:
#
# PCOD9512959 Si02
#       7
#    32  32  32  32  32  32  16
#     4   9  19  35  58  87 116 149 193 244 298 356
#     4  10  21  38  61  87 121 161 199 243 303 367
#     4   8  15  29  49  77 111 144 178 224 286 348
#     4  10  21  35  56  88 122 153 195 249 299 357
#     4  10  22  40  60  82 116 157 200 251 299 355
#     4  11  22  40  61  86 119 162 204 248 298 363
#     4  11  24  42  63  88 119 157 204 255 302 352
#
# _framework density 20.019310000000001
#
# number of rings (size 3 to 8) (size 9 to 14) (size 15 to 20)
#    0.000    2.231    0.769    2.769    2.154    3.385 
#    0.000    0.769    0.000    0.000    0.000    2.154 
#    0.000    0.000    0.000    0.000    0.000    0.000 
#
# Total GULP energy -290069.137577 kJ/mol
# GULP energy per Si atom -5578.252646 kJ/mol
# Density = 1.997375 g / cm^3
# Si number density = 20.019310 Si / 1000 Ang^3
#
#
#
# Elastic Constant Matrix: (Units=GPa)
#
#
# Indices 1 2 3 4 5 6 
#
# 1 82.9426 43.0067 13.9713 0.0000 0.0000 0.0000
# 2 43.0067 76.9599 11.0766 0.0000 0.0000 0.0000
# 3 13.9713 11.0766 110.9858 0.0000 0.0000 0.0000
# 4 0.0000 0.0000 0.0000 6.3870 0.0000 0.0000
# 5 0.0000 0.0000 0.0000 0.0000 11.5761 0.0000
# 6 0.0000 0.0000 0.0000 0.0000 0.0000 79.4580
#
#
#
# Elastic Compliance Matrix: (Units=1/GPa)
#
#
# Indices 1 2 3 4 5 6 
#
# 1 0.017136 -0.009401 -0.001219 0.000000 0.000000 0.000000
# 2 -0.009401 0.018340 -0.000647 0.000000 0.000000 0.000000
# 3 -0.001219 -0.000647 0.009228 0.000000 0.000000 0.000000
# 4 0.000000 0.000000 0.000000 0.156567 0.000000 0.000000
# 5 0.000000 0.000000 0.000000 0.000000 0.086385 0.000000
# 6 0.000000 0.000000 0.000000 0.000000 0.000000 0.012585
#
#
# Mechanical properties :
#
#
# Convention : Reuss Voigt Hill
#
# Bulk Modulus (GPa) = 45.10321 45.22196 45.16259
# Shear Modulus (GPa) = 15.14391 33.00647 24.07519
#
# Velocity S-wave (km/s) = 2.75337 4.06486 3.47161
# Velocity P-wave (km/s) = 5.71724 6.68349 6.21916
#
# Compressibility (1/GPa) = 0.02217137
#
# Stress axis : x y z
#
# Youngs Moduli (GPa) = 58.35609 54.52523 108.36366
#
# Poissons Ratio (x) = 0.51257 0.13209
# Poissons Ratio (y) = 0.54858 0.07011
# Poissons Ratio (z) = 0.07113 0.03528
#
# Static dielectric constant tensor:
#      x y z
#    x 1.695030 0.000000 0.000000 
#    y 0.000000 1.702560 0.000000 
#    z 0.000000 0.000000 1.732530 
# 
# From -- ./inp_files/42112.got.cif
#   From: 2010.05.17/outbox.cif.g08.bks.cpg/sg69_22_cif.got.tgz:42112.got - 2010.06.03 19:29:58.
