data_PCOD9512424
_publ_section_title
;
Structure prediction by ZEFSAII (Michael W. Deem and Ramdas Pophale) SiO2 
 PCOD9512424
Probable space group: F M M M
;
_chemical_formula_sum "Si O2"
_cell_formula_units_Z 144
_cell_length_a 29.098389
_cell_length_b 8.386404
_cell_length_c 32.341970
_cell_angle_alpha 90.000000
_cell_angle_beta 90.000000
_cell_angle_gamma 90.000000
_cell_volume 7892.438297
_symmetry_space_group_name_H-M "F M M M"
_symmetry_group_IT_number 69
_symmetry_cell_setting 'orthorhombic'
loop_
_space_group_symop_operation_xyz
x,y,z
-x,-y,z
x,-y,-z
-x,y,-z
-x,-y,-z
x,y,-z
-x,y,z
x,-y,z
x,1/2+y,1/2+z
-x,1/2-y,1/2+z
x,1/2-y,1/2-z
-x,1/2+y,1/2-z
-x,1/2-y,1/2-z
x,1/2+y,1/2-z
-x,1/2+y,1/2+z
x,1/2-y,1/2+z
1/2+x,y,1/2+z
1/2-x,-y,1/2+z
1/2+x,-y,1/2-z
1/2-x,y,1/2-z
1/2-x,-y,1/2-z
1/2+x,y,1/2-z
1/2-x,y,1/2+z
1/2+x,-y,1/2+z
1/2+x,1/2+y,z
1/2-x,1/2-y,z
1/2+x,1/2-y,-z
1/2-x,1/2+y,-z
1/2-x,1/2-y,-z
1/2+x,1/2+y,-z
1/2-x,1/2+y,z
1/2+x,1/2-y,z
loop_
_atom_site_type_symbol
_atom_site_label
_atom_site_fract_x
_atom_site_fract_y
_atom_site_fract_z
Si Si1 0.697320 0.307766 0.500000
Si Si2 0.946004 0.806019 0.045798
Si Si3 0.802193 0.308881 0.909652
Si Si4 0.947184 0.190658 0.295121
Si Si5 0.391182 0.809525 0.373467
O O1 0.695440 0.500000 0.500000
O O2 0.750000 0.250000 0.500000
O O3 0.680037 0.251825 0.544686
O O4 0.918035 0.747868 0.085523
O O5 0.000000 0.764792 0.049927
O O6 0.943562 0.000000 0.045606
O O7 0.930138 0.751190 0.000000
O O8 0.801695 0.500000 0.909465
O O9 0.750000 0.250000 0.904040
O O10 0.838683 0.246005 0.877013
O O11 0.931963 0.250000 0.250000
O O12 0.916096 0.250688 0.332402
O O13 0.000000 0.247247 0.301175
O O14 0.947289 0.000000 0.295062
O O15 0.392854 0.000000 0.374309
#
# Coordination Sequence:
#
# PCOD9512424 Si02
#       5
#    16  32  32  32  32
#     4   8  16  30  48  68  95 134 179 228 276 319
#     4   8  15  28  45  69 104 143 181 219 258 308
#     4  10  20  35  52  74 105 143 186 234 281 326
#     4  10  21  38  60  85 113 143 178 224 276 328
#     4  11  21  32  53  82 110 145 184 225 273 329
#
# _framework density 18.245311999999998
#
# number of rings (size 3 to 8) (size 9 to 14) (size 15 to 20)
#    0.000    2.444    0.000    3.333    1.556    3.111 
#    0.000    0.000    0.000    0.667    0.000    9.333 
#    0.000    0.000    0.000    0.000    0.000    0.000 
#
# Total GULP energy -200819.032679 kJ/mol
# GULP energy per Si atom -5578.306463 kJ/mol
# Density = 1.820378 g / cm^3
# Si number density = 18.245312 Si / 1000 Ang^3
#
#
#
# Elastic Constant Matrix: (Units=GPa)
#
#
# Indices 1 2 3 4 5 6 
#
# 1 96.5037 19.8491 94.0588 0.0000 0.0000 0.0004
# 2 19.8491 35.4866 33.2170 -0.0001 0.0000 0.0003
# 3 94.0588 33.2170 155.3517 0.0000 0.0000 0.0000
# 4 0.0000 -0.0001 0.0000 22.0095 0.0000 0.0000
# 5 0.0000 0.0000 0.0000 0.0000 29.4879 0.0000
# 6 0.0004 0.0003 0.0000 0.0000 0.0000 19.4278
#
#
#
# Elastic Compliance Matrix: (Units=1/GPa)
#
#
# Indices 1 2 3 4 5 6 
#
# 1 0.025283 0.000234 -0.015358 0.000000 0.000000 -0.000001
# 2 0.000234 0.035233 -0.007675 0.000000 0.000000 -0.000001
# 3 -0.015358 -0.007675 0.017376 0.000000 0.000000 0.000000
# 4 0.000000 0.000000 0.000000 0.045435 0.000000 0.000000
# 5 0.000000 0.000000 0.000000 0.000000 0.033912 0.000000
# 6 -0.000001 -0.000001 0.000000 0.000000 0.000000 0.051473
#
#
# Mechanical properties :
#
#
# Convention : Reuss Voigt Hill
#
# Bulk Modulus (GPa) = 30.96499 64.62132 47.79316
# Shear Modulus (GPa) = 18.86261 23.53284 21.19773
#
# Velocity S-wave (km/s) = 3.21882 3.59528 3.41224
# Velocity P-wave (km/s) = 5.55182 7.26152 6.46345
#
# Compressibility (1/GPa) = 0.03229454
#
# Stress axis : x y z
#
# Youngs Moduli (GPa) = 39.55266 28.38240 57.54922
#
# Poissons Ratio (x) = -0.00663 0.88382
# Poissons Ratio (y) = -0.00924 0.44169
# Poissons Ratio (z) = 0.60743 0.21783
#
# Static dielectric constant tensor:
#      x y z
#    x 1.616620 0.000000 0.000000 
#    y 0.000000 1.613170 0.000000 
#    z 0.000000 0.000000 1.633350 
# 
# From -- ./inp_files/5585.got.cif
#   From: 2010.05.17/outbox.cif.g08.bks.cpg/sg69_3_cif.got.tgz:5585.got - 2010.06.03 19:29:58.
