data_PCOD9512924
_publ_section_title
;
Structure prediction by ZEFSAII (Michael W. Deem and Ramdas Pophale) SiO2 
 PCOD9512924
Probable space group: F M M M
;
_chemical_formula_sum "Si O2"
_cell_formula_units_Z 112
_cell_length_a 35.074701
_cell_length_b 10.823119
_cell_length_c 14.568961
_cell_angle_alpha 90.000000
_cell_angle_beta 90.000000
_cell_angle_gamma 90.000000
_cell_volume 5530.634924
_symmetry_space_group_name_H-M "F M M M"
_symmetry_group_IT_number 69
_symmetry_cell_setting 'orthorhombic'
loop_
_space_group_symop_operation_xyz
x,y,z
-x,-y,z
x,-y,-z
-x,y,-z
-x,-y,-z
x,y,-z
-x,y,z
x,-y,z
x,1/2+y,1/2+z
-x,1/2-y,1/2+z
x,1/2-y,1/2-z
-x,1/2+y,1/2-z
-x,1/2-y,1/2-z
x,1/2+y,1/2-z
-x,1/2+y,1/2+z
x,1/2-y,1/2+z
1/2+x,y,1/2+z
1/2-x,-y,1/2+z
1/2+x,-y,1/2-z
1/2-x,y,1/2-z
1/2-x,-y,1/2-z
1/2+x,y,1/2-z
1/2-x,y,1/2+z
1/2+x,-y,1/2+z
1/2+x,1/2+y,z
1/2-x,1/2-y,z
1/2+x,1/2-y,-z
1/2-x,1/2+y,-z
1/2-x,1/2-y,-z
1/2+x,1/2+y,-z
1/2-x,1/2+y,z
1/2+x,1/2-y,z
loop_
_atom_site_type_symbol
_atom_site_label
_atom_site_fract_x
_atom_site_fract_y
_atom_site_fract_z
Si Si1 0.865009 0.638463 0.112039
Si Si2 0.000000 0.861660 0.179967
Si Si3 0.915640 0.635064 0.391199
Si Si4 0.277079 0.360976 0.611953
O O1 0.877016 0.500000 0.139497
O O2 0.892304 0.747859 0.144546
O O3 0.821052 0.657871 0.139962
O O4 0.865321 0.639310 0.000000
O O5 0.000000 0.750000 0.250000
O O6 0.039182 0.851749 0.123909
O O7 0.000000 0.000000 0.222369
O O8 0.908722 0.631865 0.500000
O O9 0.904029 0.500000 0.353833
O O10 0.276707 0.359917 0.500000
O O11 0.265104 0.500000 0.639558
O O12 0.250000 0.250000 0.642625
#
# Coordination Sequence:
#
# PCOD9512924 Si02
#       4
#    32  16  32  32
#     4   8  14  24  37  56  83 112 143 180 218 255
#     4  10  21  35  49  67  91 116 144 180 222 266
#     4   9  17  30  48  67  87 114 148 184 220 259
#     4   8  13  20  30  47  75 110 143 174 209 249
#
# _framework density 20.250838999999999
#
# number of rings (size 3 to 8) (size 9 to 14) (size 15 to 20)
#    0.000    3.429    0.000    2.143    0.000    4.000 
#    0.000    5.714    0.000    4.286    0.000    0.000 
#    0.000    1.143    0.000   12.571    0.000   20.571 
#
# Total GULP energy -156083.033695 kJ/mol
# GULP energy per Si atom -5574.394061 kJ/mol
# Density = 2.020475 g / cm^3
# Si number density = 20.250839 Si / 1000 Ang^3
#
#
#
# Elastic Constant Matrix: (Units=GPa)
#
#
# Indices 1 2 3 4 5 6 
#
# 1 105.3316 133.1887 5.7482 0.0000 0.0000 0.0000
# 2 133.1887 243.0380 17.0724 0.0000 0.0000 0.0000
# 3 5.7482 17.0724 47.4062 0.0000 0.0000 0.0000
# 4 0.0000 0.0000 0.0000 2.1004 0.0000 0.0000
# 5 0.0000 0.0000 0.0000 0.0000 -20.6346 0.0000
# 6 0.0000 0.0000 0.0000 0.0000 0.0000 45.9254
#
#
#
# Elastic Compliance Matrix: (Units=1/GPa)
#
#
# Indices 1 2 3 4 5 6 
#
# 1 0.031191 -0.017264 0.002435 0.000000 0.000000 0.000000
# 2 -0.017264 0.013777 -0.002868 0.000000 0.000000 0.000000
# 3 0.002435 -0.002868 0.021832 0.000000 0.000000 0.000000
# 4 0.000000 0.000000 0.000000 0.476107 0.000000 0.000000
# 5 0.000000 0.000000 0.000000 0.000000 -0.048462 0.000000
# 6 0.000000 0.000000 0.000000 0.000000 0.000000 0.021774
#
#
# Mechanical properties :
#
#
# Convention : Reuss Voigt Hill
#
# Bulk Modulus (GPa) = 31.84112 78.64380 55.24246
# Shear Modulus (GPa) = 8.89549 21.46266 15.17908
#
# Velocity S-wave (km/s) = 2.09814 3.25905 2.74077
# Velocity P-wave (km/s) = 4.65049 7.28567 6.11180
#
# Compressibility (1/GPa) = 0.03140593
#
# Stress axis : x y z
#
# Youngs Moduli (GPa) = 32.06039 72.58378 45.80445
#
# Poissons Ratio (x) = 1.25311 -0.11155
# Poissons Ratio (y) = 0.55350 0.13138
# Poissons Ratio (z) = -0.07808 0.20819
#
# Static dielectric constant tensor:
#      x y z
#    x 1.694110 0.000000 0.000000 
#    y 0.000000 1.735520 0.000000 
#    z 0.000000 0.000000 1.714690 
# 
# From -- ./inp_files/7306.got.cif
#   From: 2010.05.17/outbox.cif.g08.bks.cpg/sg69_4_cif.got.tgz:7306.got - 2010.06.03 19:29:58.
