data_PCOD9512187
_publ_section_title
;
Structure prediction by ZEFSAII (Michael W. Deem and Ramdas Pophale) SiO2 
 PCOD9512187
Probable space group: F M M M
;
_chemical_formula_sum "Si O2"
_cell_formula_units_Z 160
_cell_length_a 24.358520
_cell_length_b 15.293117
_cell_length_c 23.511065
_cell_angle_alpha 90.000000
_cell_angle_beta 90.000000
_cell_angle_gamma 90.000000
_cell_volume 8758.287772
_symmetry_space_group_name_H-M "F M M M"
_symmetry_group_IT_number 69
_symmetry_cell_setting 'orthorhombic'
loop_
_space_group_symop_operation_xyz
x,y,z
-x,-y,z
x,-y,-z
-x,y,-z
-x,-y,-z
x,y,-z
-x,y,z
x,-y,z
x,1/2+y,1/2+z
-x,1/2-y,1/2+z
x,1/2-y,1/2-z
-x,1/2+y,1/2-z
-x,1/2-y,1/2-z
x,1/2+y,1/2-z
-x,1/2+y,1/2+z
x,1/2-y,1/2+z
1/2+x,y,1/2+z
1/2-x,-y,1/2+z
1/2+x,-y,1/2-z
1/2-x,y,1/2-z
1/2-x,-y,1/2-z
1/2+x,y,1/2-z
1/2-x,y,1/2+z
1/2+x,-y,1/2+z
1/2+x,1/2+y,z
1/2-x,1/2-y,z
1/2+x,1/2-y,-z
1/2-x,1/2+y,-z
1/2-x,1/2-y,-z
1/2+x,1/2+y,-z
1/2-x,1/2+y,z
1/2+x,1/2-y,z
loop_
_atom_site_type_symbol
_atom_site_label
_atom_site_fract_x
_atom_site_fract_y
_atom_site_fract_z
Si Si1 0.185874 0.771751 0.063032
Si Si2 0.940290 0.397184 0.181105
Si Si3 0.176619 0.345580 0.774577
Si Si4 0.387606 0.098756 0.064824
Si Si5 0.217786 0.097700 0.158615
O O1 0.250000 0.750000 0.059738
O O2 0.153176 0.681040 0.071574
O O3 0.184928 0.839721 0.115279
O O4 0.169306 0.806459 0.000000
O O5 0.937806 0.500000 0.196416
O O6 0.885613 0.353449 0.205229
O O7 0.933339 0.392470 0.112969
O O8 0.000000 0.362497 0.198562
O O9 0.187625 0.250000 0.750000
O O10 0.187472 0.404687 0.719468
O O11 0.221345 0.368164 0.823128
O O12 0.362900 0.000000 0.072851
O O13 0.407964 0.101815 0.000000
O O14 0.222658 0.000000 0.134979
#
# Coordination Sequence:
#
# PCOD9512187 Si02
#       5
#    32  32  32  32  32
#     4  10  20  33  49  73 103 132 167 211 256 304
#     4  10  20  33  50  74 104 134 168 215 265 314
#     4  11  21  35  53  73 102 136 175 216 258 313
#     4   9  18  33  52  73 101 139 177 212 256 312
#     4  11  21  34  54  76 102 139 176 212 257 312
#
# _framework density 18.268411
#
# number of rings (size 3 to 8) (size 9 to 14) (size 15 to 20)
#    0.000    1.800    0.000    7.200    0.000    3.600 
#    0.000    4.000    0.000    0.000    0.000    0.000 
#    0.000    0.000    0.000   14.600    0.000    2.800 
#
# Total GULP energy -222922.011581 kJ/mol
# GULP energy per Si atom -5573.050290 kJ/mol
# Density = 1.822683 g / cm^3
# Si number density = 18.268411 Si / 1000 Ang^3
#
#
#
# Elastic Constant Matrix: (Units=GPa)
#
#
# Indices 1 2 3 4 5 6 
#
# 1 104.5918 26.4900 28.1310 0.0000 0.0000 0.0000
# 2 26.4900 106.9761 29.2902 0.0000 0.0000 0.0000
# 3 28.1310 29.2902 97.1708 0.0000 0.0000 0.0000
# 4 0.0000 0.0000 0.0000 16.0904 0.0000 0.0000
# 5 0.0000 0.0000 0.0000 0.0000 2.0684 0.0000
# 6 0.0000 0.0000 0.0000 0.0000 0.0000 28.3878
#
#
#
# Elastic Compliance Matrix: (Units=1/GPa)
#
#
# Indices 1 2 3 4 5 6 
#
# 1 0.010736 -0.001970 -0.002514 0.000000 0.000000 0.000000
# 2 -0.001970 0.010550 -0.002610 0.000000 0.000000 0.000000
# 3 -0.002514 -0.002610 0.011806 0.000000 0.000000 0.000000
# 4 0.000000 0.000000 0.000000 0.062149 0.000000 0.000000
# 5 0.000000 0.000000 0.000000 0.000000 0.483455 0.000000
# 6 0.000000 0.000000 0.000000 0.000000 0.000000 0.035226
#
#
# Mechanical properties :
#
#
# Convention : Reuss Voigt Hill
#
# Bulk Modulus (GPa) = 52.89958 52.95124 52.92541
# Shear Modulus (GPa) = 7.88130 24.29781 16.08955
#
# Velocity S-wave (km/s) = 2.07931 3.65093 2.97093
# Velocity P-wave (km/s) = 5.89783 6.84255 6.38768
#
# Compressibility (1/GPa) = 0.01890374
#
# Stress axis : x y z
#
# Youngs Moduli (GPa) = 93.14279 94.78386 84.70462
#
# Poissons Ratio (x) = 0.18674 0.21297
# Poissons Ratio (y) = 0.18350 0.22106
# Poissons Ratio (z) = 0.23419 0.24737
#
# Static dielectric constant tensor:
#      x y z
#    x 1.616140 0.000000 0.000000 
#    y 0.000000 1.708670 0.000000 
#    z 0.000000 0.000000 1.694160 
# 
# From -- ./inp_files/17719.got.cif
#   From: 2010.05.17/outbox.cif.g08.bks.cpg/sg69_9_cif.got.tgz:17719.got - 2010.06.03 19:29:58.
