data_PCOD9512195
_publ_section_title
;
Structure prediction by ZEFSAII (Michael W. Deem and Ramdas Pophale) SiO2 
 PCOD9512195
Probable space group: F M M M
;
_chemical_formula_sum "Si O2"
_cell_formula_units_Z 160
_cell_length_a 28.521417
_cell_length_b 13.898637
_cell_length_c 23.919217
_cell_angle_alpha 90.000000
_cell_angle_beta 90.000000
_cell_angle_gamma 90.000000
_cell_volume 9481.788625
_symmetry_space_group_name_H-M "F M M M"
_symmetry_group_IT_number 69
_symmetry_cell_setting 'orthorhombic'
loop_
_space_group_symop_operation_xyz
x,y,z
-x,-y,z
x,-y,-z
-x,y,-z
-x,-y,-z
x,y,-z
-x,y,z
x,-y,z
x,1/2+y,1/2+z
-x,1/2-y,1/2+z
x,1/2-y,1/2-z
-x,1/2+y,1/2-z
-x,1/2-y,1/2-z
x,1/2+y,1/2-z
-x,1/2+y,1/2+z
x,1/2-y,1/2+z
1/2+x,y,1/2+z
1/2-x,-y,1/2+z
1/2+x,-y,1/2-z
1/2-x,y,1/2-z
1/2-x,-y,1/2-z
1/2+x,y,1/2-z
1/2-x,y,1/2+z
1/2+x,-y,1/2+z
1/2+x,1/2+y,z
1/2-x,1/2-y,z
1/2+x,1/2-y,-z
1/2-x,1/2+y,-z
1/2-x,1/2-y,-z
1/2+x,1/2+y,-z
1/2-x,1/2+y,z
1/2+x,1/2-y,z
loop_
_atom_site_type_symbol
_atom_site_label
_atom_site_fract_x
_atom_site_fract_y
_atom_site_fract_z
Si Si1 0.347116 0.389004 0.435038
Si Si2 0.174295 0.750000 0.250000
Si Si3 0.336844 0.611500 0.158180
Si Si4 0.774085 0.387686 0.163590
Si Si5 0.500000 0.888470 0.432144
Si Si6 0.099355 0.197919 0.066292
O O1 0.332190 0.379017 0.500000
O O2 0.362351 0.500000 0.427109
O O3 0.304675 0.370649 0.392159
O O4 0.387184 0.309785 0.424931
O O5 0.146280 0.683235 0.293138
O O6 0.205195 0.677637 0.212548
O O7 0.343662 0.500000 0.172443
O O8 0.280867 0.629380 0.153305
O O9 0.363208 0.637347 0.101444
O O10 0.779341 0.500000 0.179161
O O11 0.500000 0.890098 0.500000
O O12 0.547432 0.833591 0.415504
O O13 0.500000 0.000000 0.413408
O O14 0.103623 0.178563 0.000000
#
# Coordination Sequence:
#
# PCOD9512195 Si02
#       6
#    32  16  32  32  16  32
#     4   9  18  33  52  76 105 136 170 207 254 311
#     4  12  21  34  50  71 106 143 180 216 250 293
#     4  11  22  33  50  77 104 137 180 216 252 304
#     4  10  20  33  50  73 105 141 174 213 255 297
#     4   9  18  34  55  78 105 133 162 206 264 317
#     4  10  20  35  56  80 105 133 167 211 265 316
#
# _framework density 16.874452999999999
#
# number of rings (size 3 to 8) (size 9 to 14) (size 15 to 20)
#    0.000    1.900    2.000    3.000    0.000    3.600 
#    0.000    4.500    0.000    3.600    0.000    0.000 
#    0.000    0.000    0.000    0.000    0.000    0.000 
#
# Total GULP energy -223136.188524 kJ/mol
# GULP energy per Si atom -5578.404713 kJ/mol
# Density = 1.683605 g / cm^3
# Si number density = 16.874453 Si / 1000 Ang^3
#
#
#
# Elastic Constant Matrix: (Units=GPa)
#
#
# Indices 1 2 3 4 5 6 
#
# 1 59.9106 42.9624 39.0562 0.0000 0.0000 0.0000
# 2 42.9624 100.8540 47.5543 0.0000 0.0000 0.0000
# 3 39.0562 47.5543 66.6426 0.0000 0.0000 0.0000
# 4 0.0000 0.0000 0.0000 31.3423 0.0000 0.0000
# 5 0.0000 0.0000 0.0000 0.0000 6.2799 0.0000
# 6 0.0000 0.0000 0.0000 0.0000 0.0000 22.3481
#
#
#
# Elastic Compliance Matrix: (Units=1/GPa)
#
#
# Indices 1 2 3 4 5 6 
#
# 1 0.029746 -0.006709 -0.012646 0.000000 0.000000 0.000000
# 2 -0.006709 0.016456 -0.007811 0.000000 0.000000 0.000000
# 3 -0.012646 -0.007811 0.027990 0.000000 0.000000 0.000000
# 4 0.000000 0.000000 0.000000 0.031906 0.000000 0.000000
# 5 0.000000 0.000000 0.000000 0.000000 0.159238 0.000000
# 6 0.000000 0.000000 0.000000 0.000000 0.000000 0.044746
#
#
# Mechanical properties :
#
#
# Convention : Reuss Voigt Hill
#
# Bulk Modulus (GPa) = 50.34823 54.06147 52.20485
# Shear Modulus (GPa) = 13.47582 18.51636 15.99609
#
# Velocity S-wave (km/s) = 2.82900 3.31615 3.08221
# Velocity P-wave (km/s) = 6.36967 6.83882 6.60841
#
# Compressibility (1/GPa) = 0.01986167
#
# Stress axis : x y z
#
# Youngs Moduli (GPa) = 33.61752 60.76747 35.72678
#
# Poissons Ratio (x) = 0.40768 0.45179
# Poissons Ratio (y) = 0.22553 0.27906
# Poissons Ratio (z) = 0.42512 0.47465
#
# Static dielectric constant tensor:
#      x y z
#    x 1.535600 0.000000 0.000000 
#    y 0.000000 1.614390 0.000000 
#    z 0.000000 0.000000 1.577930 
# 
# From -- ./inp_files/37795.got.cif
#   From: 2010.05.17/outbox.cif.g08.bks.cpg/sg69_19_cif.got.tgz:37795.got - 2010.06.03 19:29:58.
