data_PCOD9512651
_publ_section_title
;
Structure prediction by ZEFSAII (Michael W. Deem and Ramdas Pophale) SiO2 
 PCOD9512651
Probable space group: F M M M
;
_chemical_formula_sum "Si O2"
_cell_formula_units_Z 208
_cell_length_a 26.891294
_cell_length_b 17.137149
_cell_length_c 24.450008
_cell_angle_alpha 90.000000
_cell_angle_beta 90.000000
_cell_angle_gamma 90.000000
_cell_volume 11267.544427
_symmetry_space_group_name_H-M "F M M M"
_symmetry_group_IT_number 69
_symmetry_cell_setting 'orthorhombic'
loop_
_space_group_symop_operation_xyz
x,y,z
-x,-y,z
x,-y,-z
-x,y,-z
-x,-y,-z
x,y,-z
-x,y,z
x,-y,z
x,1/2+y,1/2+z
-x,1/2-y,1/2+z
x,1/2-y,1/2-z
-x,1/2+y,1/2-z
-x,1/2-y,1/2-z
x,1/2+y,1/2-z
-x,1/2+y,1/2+z
x,1/2-y,1/2+z
1/2+x,y,1/2+z
1/2-x,-y,1/2+z
1/2+x,-y,1/2-z
1/2-x,y,1/2-z
1/2-x,-y,1/2-z
1/2+x,y,1/2-z
1/2-x,y,1/2+z
1/2+x,-y,1/2+z
1/2+x,1/2+y,z
1/2-x,1/2-y,z
1/2+x,1/2-y,-z
1/2-x,1/2+y,-z
1/2-x,1/2-y,-z
1/2+x,1/2+y,-z
1/2-x,1/2+y,z
1/2+x,1/2-y,z
loop_
_atom_site_type_symbol
_atom_site_label
_atom_site_fract_x
_atom_site_fract_y
_atom_site_fract_z
Si Si1 0.556659 0.500000 0.065188
Si Si2 0.850164 0.764579 0.437095
Si Si3 0.156558 0.409692 0.253860
Si Si4 0.187076 0.090941 0.371448
Si Si5 0.283866 0.323807 0.848625
Si Si6 0.443834 0.832721 0.722339
Si Si7 0.442544 0.329430 0.907465
O O1 0.500000 0.500000 0.088088
O O2 0.578456 0.416962 0.082297
O O3 0.554490 0.500000 0.000000
O O4 0.833379 0.760993 0.500000
O O5 0.841181 0.850303 0.411966
O O6 0.819298 0.707661 0.396757
O O7 0.906740 0.734450 0.433403
O O8 0.168984 0.500000 0.264430
O O9 0.170432 0.392455 0.191157
O O10 0.185803 0.356864 0.297397
O O11 0.098234 0.393747 0.261835
O O12 0.245460 0.112459 0.371844
O O13 0.178581 0.000000 0.383040
O O14 0.250000 0.250000 0.831647
O O15 0.500000 0.856046 0.737986
O O16 0.432063 0.750000 0.750000
O O17 0.442934 0.819371 0.657522
O O18 0.500000 0.326837 0.927393
#
# Coordination Sequence:
#
# PCOD9512651 Si02
#       7
#    16  32  32  32  32  32  32
#     4   9  18  32  52  80 114 149 186 224 269 336
#     4  11  23  39  60  87 117 151 197 243 288 346
#     4  11  22  37  61  90 118 148 191 238 289 349
#     4  10  23  41  60  83 113 152 198 246 294 340
#     4  10  22  37  60  87 115 150 188 241 294 351
#     4  10  21  35  55  84 119 155 190 226 276 345
#     4  10  20  36  59  85 118 157 191 229 282 346
#
# _framework density 18.460100000000001
#
# number of rings (size 3 to 8) (size 9 to 14) (size 15 to 20)
#    0.000    1.769    1.538    2.308    3.231    7.385 
#    1.385    0.000    0.000    1.385    0.000    1.077 
#    0.000    0.000    0.000    0.000    0.000    0.000 
#
# Total GULP energy -290324.725350 kJ/mol
# GULP energy per Si atom -5583.167795 kJ/mol
# Density = 1.841808 g / cm^3
# Si number density = 18.460100 Si / 1000 Ang^3
#
#
#
# Elastic Constant Matrix: (Units=GPa)
#
#
# Indices 1 2 3 4 5 6 
#
# 1 73.5650 39.7326 25.1287 0.0000 0.0000 0.0000
# 2 39.7326 89.2342 60.5256 0.0000 0.0000 0.0000
# 3 25.1287 60.5256 102.7765 0.0000 0.0000 0.0000
# 4 0.0000 0.0000 0.0000 -0.3289 0.0000 0.0000
# 5 0.0000 0.0000 0.0000 0.0000 70.8224 0.0000
# 6 0.0000 0.0000 0.0000 0.0000 0.0000 24.9598
#
#
#
# Elastic Compliance Matrix: (Units=1/GPa)
#
#
# Indices 1 2 3 4 5 6 
#
# 1 0.017915 -0.008335 0.000529 0.000000 0.000000 0.000000
# 2 -0.008335 0.022538 -0.011235 0.000000 0.000000 0.000000
# 3 0.000529 -0.011235 0.016217 0.000000 0.000000 0.000000
# 4 0.000000 0.000000 0.000000 -3.040056 0.000000 0.000000
# 5 0.000000 0.000000 0.000000 0.000000 0.014120 0.000000
# 6 0.000000 0.000000 0.000000 0.000000 0.000000 0.040064
#
#
# Mechanical properties :
#
#
# Convention : Reuss Voigt Hill
#
# Bulk Modulus (GPa) = 53.80208 57.37218 55.58713
# Shear Modulus (GPa) = -1.73315 28.43658 13.35172
#
# Velocity S-wave (km/s) = -0.97000 3.92910 2.69229
# Velocity P-wave (km/s) = 5.28714 7.19237 6.31205
#
# Compressibility (1/GPa) = 0.01858664
#
# Stress axis : x y z
#
# Youngs Moduli (GPa) = 55.81993 44.36900 61.66393
#
# Poissons Ratio (x) = 0.36983 -0.03259
# Poissons Ratio (y) = 0.46527 0.69279
# Poissons Ratio (z) = -0.02950 0.49848
#
# Static dielectric constant tensor:
#      x y z
#    x 1.671340 0.000000 0.000000 
#    y 0.000000 1.625010 0.000000 
#    z 0.000000 0.000000 1.612840 
# 
# From -- ./inp_files/38523.got.cif
#   From: 2010.05.17/outbox.cif.g08.bks.cpg/sg69_20_cif.got.tgz:38523.got - 2010.06.03 19:29:58.
