data_PCOD9512406
_publ_section_title
;
Structure prediction by ZEFSAII (Michael W. Deem and Ramdas Pophale) SiO2 
 PCOD9512406
Probable space group: F M M M
;
_chemical_formula_sum "Si O2"
_cell_formula_units_Z 148
_cell_length_a 16.141843
_cell_length_b 14.656953
_cell_length_c 32.799596
_cell_angle_alpha 90.000000
_cell_angle_beta 90.000000
_cell_angle_gamma 90.000000
_cell_volume 7760.064099
_symmetry_space_group_name_H-M "F M M M"
_symmetry_group_IT_number 69
_symmetry_cell_setting 'orthorhombic'
loop_
_space_group_symop_operation_xyz
x,y,z
-x,-y,z
x,-y,-z
-x,y,-z
-x,-y,-z
x,y,-z
-x,y,z
x,-y,z
x,1/2+y,1/2+z
-x,1/2-y,1/2+z
x,1/2-y,1/2-z
-x,1/2+y,1/2-z
-x,1/2-y,1/2-z
x,1/2+y,1/2-z
-x,1/2+y,1/2+z
x,1/2-y,1/2+z
1/2+x,y,1/2+z
1/2-x,-y,1/2+z
1/2+x,-y,1/2-z
1/2-x,y,1/2-z
1/2-x,-y,1/2-z
1/2+x,y,1/2-z
1/2-x,y,1/2+z
1/2+x,-y,1/2+z
1/2+x,1/2+y,z
1/2-x,1/2-y,z
1/2+x,1/2-y,-z
1/2-x,1/2+y,-z
1/2-x,1/2-y,-z
1/2+x,1/2+y,-z
1/2-x,1/2+y,z
1/2+x,1/2-y,z
loop_
_atom_site_type_symbol
_atom_site_label
_atom_site_fract_x
_atom_site_fract_y
_atom_site_fract_z
Si Si1 0.904926 0.109199 0.835470
Si Si2 0.098609 0.105016 0.341863
Si Si3 0.154285 0.110624 0.252972
Si Si4 0.000000 0.190639 0.955164
Si Si5 0.000000 0.000000 0.000000
Si Si6 0.341789 0.259656 0.099203
O O1 0.890478 0.138175 0.788654
O O2 0.845253 0.161172 0.866342
O O3 0.000000 0.130662 0.846840
O O4 0.893407 0.000000 0.837770
O O5 0.118365 0.140100 0.296273
O O6 0.138028 0.168032 0.375929
O O7 0.000000 0.106287 0.346901
O O8 0.127661 0.000000 0.344706
O O9 0.250000 0.136941 0.250000
O O10 0.149349 0.000000 0.253467
O O11 0.083364 0.218417 0.931475
O O12 0.000000 0.082130 0.964939
O O13 0.000000 0.235490 0.000000
O O14 0.250000 0.250000 0.080959
#
# Coordination Sequence:
#
# PCOD9512406 Si02
#       6
#    32  32  32  16   4  32
#     4  10  20  34  57  86 123 166 218 278 325 361
#     4  10  20  37  57  80 123 177 220 255 304 366
#     4   9  17  30  48  78 119 166 222 272 314 362
#     4  10  24  48  73  99 129 152 194 242 316 388
#     4   8  24  48  84 100 126 162 176 244 332 380
#     4  12  24  39  65  97 127 162 206 257 309 371
#
# _framework density 19.072006999999999
#
# number of rings (size 3 to 8) (size 9 to 14) (size 15 to 20)
#    0.324    1.514    2.162    1.946    1.514    6.486 
#    0.000    4.324    0.000    1.297    0.000    0.000 
#    0.000    0.000    0.000    0.000    0.000    0.000 
#
# Total GULP energy -206325.500437 kJ/mol
# GULP energy per Si atom -5576.364877 kJ/mol
# Density = 1.902860 g / cm^3
# Si number density = 19.072007 Si / 1000 Ang^3
#
#
#
# Elastic Constant Matrix: (Units=GPa)
#
#
# Indices 1 2 3 4 5 6 
#
# 1 115.1516 35.4242 52.8351 0.0000 0.0000 0.0000
# 2 35.4242 83.8039 35.9070 0.0000 0.0000 0.0000
# 3 52.8351 35.9070 107.5109 0.0000 0.0000 0.0000
# 4 0.0000 0.0000 0.0000 17.2576 0.0000 0.0000
# 5 0.0000 0.0000 0.0000 0.0000 8.8337 0.0000
# 6 0.0000 0.0000 0.0000 0.0000 0.0000 16.5860
#
#
#
# Elastic Compliance Matrix: (Units=1/GPa)
#
#
# Indices 1 2 3 4 5 6 
#
# 1 0.011795 -0.002920 -0.004821 0.000000 0.000000 0.000000
# 2 -0.002920 0.014648 -0.003457 0.000000 0.000000 0.000000
# 3 -0.004821 -0.003457 0.012825 0.000000 0.000000 0.000000
# 4 0.000000 0.000000 0.000000 0.057945 0.000000 0.000000
# 5 0.000000 0.000000 0.000000 0.000000 0.113202 0.000000
# 6 0.000000 0.000000 0.000000 0.000000 0.000000 0.060292
#
#
# Mechanical properties :
#
#
# Convention : Reuss Voigt Hill
#
# Bulk Modulus (GPa) = 59.27177 61.64434 60.45806
# Shear Modulus (GPa) = 16.73764 20.68883 18.71324
#
# Velocity S-wave (km/s) = 2.96565 3.29716 3.13579
# Velocity P-wave (km/s) = 6.54768 6.84742 6.69923
#
# Compressibility (1/GPa) = 0.01687144
#
# Stress axis : x y z
#
# Youngs Moduli (GPa) = 84.78517 68.26769 77.97061
#
# Poissons Ratio (x) = 0.19934 0.37590
# Poissons Ratio (y) = 0.24757 0.26957
# Poissons Ratio (z) = 0.40876 0.23602
#
# Static dielectric constant tensor:
#      x y z
#    x 1.662510 0.000000 0.000000 
#    y 0.000000 1.697770 0.000000 
#    z 0.000000 0.000000 1.651790 
# 
# From -- ./inp_files/45648.got.cif
#   From: 2010.05.17/outbox.cif.g08.bks.cpg/sg69_23_cif.got.tgz:45648.got - 2010.06.03 19:29:58.
