data_PCOD9512857
_publ_section_title
;
Structure prediction by ZEFSAII (Michael W. Deem and Ramdas Pophale) SiO2 
 PCOD9512857
Probable space group: F M M M
;
_chemical_formula_sum "Si O2"
_cell_formula_units_Z 160
_cell_length_a 15.739834
_cell_length_b 25.699532
_cell_length_c 20.915999
_cell_angle_alpha 90.000000
_cell_angle_beta 90.000000
_cell_angle_gamma 90.000000
_cell_volume 8460.654779
_symmetry_space_group_name_H-M "F M M M"
_symmetry_group_IT_number 69
_symmetry_cell_setting 'orthorhombic'
loop_
_space_group_symop_operation_xyz
x,y,z
-x,-y,z
x,-y,-z
-x,y,-z
-x,-y,-z
x,y,-z
-x,y,z
x,-y,z
x,1/2+y,1/2+z
-x,1/2-y,1/2+z
x,1/2-y,1/2-z
-x,1/2+y,1/2-z
-x,1/2-y,1/2-z
x,1/2+y,1/2-z
-x,1/2+y,1/2+z
x,1/2-y,1/2+z
1/2+x,y,1/2+z
1/2-x,-y,1/2+z
1/2+x,-y,1/2-z
1/2-x,y,1/2-z
1/2-x,-y,1/2-z
1/2+x,y,1/2-z
1/2-x,y,1/2+z
1/2+x,-y,1/2+z
1/2+x,1/2+y,z
1/2-x,1/2-y,z
1/2+x,1/2-y,-z
1/2-x,1/2+y,-z
1/2-x,1/2-y,-z
1/2+x,1/2+y,-z
1/2-x,1/2+y,z
1/2+x,1/2-y,z
loop_
_atom_site_type_symbol
_atom_site_label
_atom_site_fract_x
_atom_site_fract_y
_atom_site_fract_z
Si Si1 0.897823 0.218442 0.187902
Si Si2 0.853865 0.500000 0.748033
Si Si3 0.704718 0.898608 0.927631
Si Si4 0.178984 0.104938 0.194404
Si Si5 0.901302 0.500000 0.103537
Si Si6 0.398183 0.207617 0.926395
O O1 0.866822 0.250000 0.250000
O O2 0.869483 0.159127 0.190683
O O3 0.870171 0.248859 0.124068
O O4 0.000000 0.219756 0.188642
O O5 0.750000 0.500000 0.750000
O O6 0.875440 0.445995 0.713178
O O7 0.888469 0.500000 0.819685
O O8 0.774723 0.904451 0.872927
O O9 0.643847 0.948477 0.922485
O O10 0.650691 0.846304 0.914666
O O11 0.738706 0.895235 0.000000
O O12 0.250000 0.110516 0.250000
O O13 0.000000 0.500000 0.087611
O O14 0.500000 0.199141 0.919046
O O15 0.383074 0.223395 0.000000
#
# Coordination Sequence:
#
# PCOD9512857 Si02
#       6
#    32  16  32  32  16  32
#     4  10  22  37  57  84 112 147 198 248 290 337
#     4  10  20  40  58  79 115 155 186 229 289 346
#     4  11  22  36  57  88 120 155 194 237 291 350
#     4  11  21  39  60  79 116 156 189 237 293 347
#     4  12  23  37  62  90 118 156 197 238 293 360
#     4   9  19  36  54  77 116 153 182 231 291 343
#
# _framework density 18.911065000000001
#
# number of rings (size 3 to 8) (size 9 to 14) (size 15 to 20)
#    0.000    1.600    4.000    2.100    0.000    6.000 
#    0.000    2.000    0.000    0.000    0.000    0.000 
#    0.000    7.200    0.000    0.000    0.000    0.000 
#
# Total GULP energy -223451.352597 kJ/mol
# GULP energy per Si atom -5586.283815 kJ/mol
# Density = 1.886802 g / cm^3
# Si number density = 18.911065 Si / 1000 Ang^3
#
#
#
# Elastic Constant Matrix: (Units=GPa)
#
#
# Indices 1 2 3 4 5 6 
#
# 1 12.2725 12.7970 17.1936 0.0000 0.0000 0.0000
# 2 12.7970 167.2908 64.1563 0.0000 0.0000 0.0000
# 3 17.1936 64.1563 126.6650 0.0000 0.0000 0.0000
# 4 0.0000 0.0000 0.0000 37.1739 0.0000 0.0000
# 5 0.0000 0.0000 0.0000 0.0000 5.3571 0.0000
# 6 0.0000 0.0000 0.0000 0.0000 0.0000 55.4644
#
#
#
# Elastic Compliance Matrix: (Units=1/GPa)
#
#
# Indices 1 2 3 4 5 6 
#
# 1 0.101889 -0.003090 -0.012265 0.000000 0.000000 0.000000
# 2 -0.003090 0.007512 -0.003386 0.000000 0.000000 0.000000
# 3 -0.012265 -0.003386 0.011275 0.000000 0.000000 0.000000
# 4 0.000000 0.000000 0.000000 0.026901 0.000000 0.000000
# 5 0.000000 0.000000 0.000000 0.000000 0.186667 0.000000
# 6 0.000000 0.000000 0.000000 0.000000 0.000000 0.018030
#
#
# Mechanical properties :
#
#
# Convention : Reuss Voigt Hill
#
# Bulk Modulus (GPa) = 12.02015 54.94688 33.48351
# Shear Modulus (GPa) = 11.97644 33.73784 22.85714
#
# Velocity S-wave (km/s) = 2.51928 4.22836 3.48036
# Velocity P-wave (km/s) = 3.85128 7.27717 5.82192
#
# Compressibility (1/GPa) = 0.08319363
#
# Stress axis : x y z
#
# Youngs Moduli (GPa) = 9.81462 133.11355 88.69541
#
# Poissons Ratio (x) = 0.41136 1.08787
# Poissons Ratio (y) = 0.03033 0.30029
# Poissons Ratio (z) = 0.12038 0.45067
#
# Static dielectric constant tensor:
#      x y z
#    x 1.645920 0.000000 0.000000 
#    y 0.000000 1.650260 0.000000 
#    z 0.000000 0.000000 1.658700 
# 
# From -- ./inp_files/24941.got.cif
#   From: 2010.05.17/outbox.cif.g08.bks.cpg/sg69_13_cif.got.tgz:24941.got - 2010.06.03 19:29:58.
