data_PCOD9512787
_publ_section_title
;
Structure prediction by ZEFSAII (Michael W. Deem and Ramdas Pophale) SiO2 
 PCOD9512787
Probable space group: F M M M
;
_chemical_formula_sum "Si O2"
_cell_formula_units_Z 112
_cell_length_a 23.388818
_cell_length_b 20.614075
_cell_length_c 10.163541
_cell_angle_alpha 90.000000
_cell_angle_beta 90.000000
_cell_angle_gamma 90.000000
_cell_volume 4900.237954
_symmetry_space_group_name_H-M "F M M M"
_symmetry_group_IT_number 69
_symmetry_cell_setting 'orthorhombic'
loop_
_space_group_symop_operation_xyz
x,y,z
-x,-y,z
x,-y,-z
-x,y,-z
-x,-y,-z
x,y,-z
-x,y,z
x,-y,z
x,1/2+y,1/2+z
-x,1/2-y,1/2+z
x,1/2-y,1/2-z
-x,1/2+y,1/2-z
-x,1/2-y,1/2-z
x,1/2+y,1/2-z
-x,1/2+y,1/2+z
x,1/2-y,1/2+z
1/2+x,y,1/2+z
1/2-x,-y,1/2+z
1/2+x,-y,1/2-z
1/2-x,y,1/2-z
1/2-x,-y,1/2-z
1/2+x,y,1/2-z
1/2-x,y,1/2+z
1/2+x,-y,1/2+z
1/2+x,1/2+y,z
1/2-x,1/2-y,z
1/2+x,1/2-y,-z
1/2-x,1/2+y,-z
1/2-x,1/2-y,-z
1/2+x,1/2+y,-z
1/2-x,1/2+y,z
1/2+x,1/2-y,z
loop_
_atom_site_type_symbol
_atom_site_label
_atom_site_fract_x
_atom_site_fract_y
_atom_site_fract_z
Si Si1 0.750000 0.365988 0.250000
Si Si2 0.062797 0.391205 0.500000
Si Si3 0.686587 0.576669 0.000000
Si Si4 0.636293 0.302752 0.647962
Si Si5 0.434996 0.069765 0.202008
O O1 0.722410 0.407591 0.131553
O O2 0.700230 0.322007 0.311234
O O3 0.131113 0.375202 0.500000
O O4 0.061326 0.427589 0.360663
O O5 0.000000 0.354051 0.500000
O O6 0.670597 0.500000 0.000000
O O7 0.634232 0.277856 0.500000
O O8 0.613122 0.250000 0.750000
O O9 0.600743 0.369046 0.657220
O O10 0.500000 0.074119 0.153709
O O11 0.410164 0.000000 0.163211
#
# Coordination Sequence:
#
# PCOD9512787 Si02
#       5
#    16  16  16  32  32
#     4  12  26  46  68 100 143 194 245 292 353 432
#     4  10  20  37  69 110 145 183 234 296 368 435
#     4  12  24  41  70 109 151 192 239 302 369 433
#     4  12  29  48  72 103 141 191 243 296 360 434
#     4  10  22  43  73 108 145 185 235 299 368 434
#
# _framework density 22.856034000000001
#
# number of rings (size 3 to 8) (size 9 to 14) (size 15 to 20)
#    0.000    0.857    4.286    2.143    4.000    7.143 
#    0.000    1.429    0.000    0.000    0.000    0.000 
#    0.000    0.000    0.000    0.000    0.000    0.000 
#
# Total GULP energy -156393.045528 kJ/mol
# GULP energy per Si atom -5585.465912 kJ/mol
# Density = 2.280401 g / cm^3
# Si number density = 22.856034 Si / 1000 Ang^3
#
#
#
# Elastic Constant Matrix: (Units=GPa)
#
#
# Indices 1 2 3 4 5 6 
#
# 1 112.7858 51.6702 34.4270 0.0000 0.0000 0.0000
# 2 51.6702 147.5543 49.7665 0.0000 0.0000 0.0000
# 3 34.4270 49.7665 184.5691 0.0001 -0.0002 0.0003
# 4 0.0000 0.0000 0.0001 -5.9705 -0.0001 0.0000
# 5 0.0000 0.0000 -0.0002 -0.0001 3.2118 -0.0002
# 6 0.0000 0.0000 0.0003 0.0000 -0.0002 73.4110
#
#
#
# Elastic Compliance Matrix: (Units=1/GPa)
#
#
# Indices 1 2 3 4 5 6 
#
# 1 0.010756 -0.003399 -0.001090 0.000000 0.000000 0.000000
# 2 -0.003399 0.008529 -0.001666 0.000000 0.000000 0.000000
# 3 -0.001090 -0.001666 0.006070 0.000000 0.000000 0.000000
# 4 0.000000 0.000000 0.000000 -0.167491 -0.000003 0.000000
# 5 0.000000 0.000000 0.000000 -0.000003 0.311350 0.000001
# 6 0.000000 0.000000 0.000000 0.000000 0.000001 0.013622
#
#
# Mechanical properties :
#
#
# Convention : Reuss Voigt Hill
#
# Bulk Modulus (GPa) = 76.64787 79.62629 78.13708
# Shear Modulus (GPa) = 25.06321 34.73351 29.89836
#
# Velocity S-wave (km/s) = 3.31504 3.90252 3.62071
# Velocity P-wave (km/s) = 6.94698 7.43102 7.19307
#
# Compressibility (1/GPa) = 0.01304668
#
# Stress axis : x y z
#
# Youngs Moduli (GPa) = 92.96967 117.24357 164.73215
#
# Poissons Ratio (x) = 0.39851 0.17953
# Poissons Ratio (y) = 0.31600 0.27441
# Poissons Ratio (z) = 0.10132 0.19530
#
# Static dielectric constant tensor:
#      x y z
#    x 1.871420 0.000000 0.000000 
#    y 0.000000 1.849160 0.000000 
#    z 0.000000 0.000000 1.873140 
# 
# From -- ./inp_files/9917.got.cif
#   From: 2010.05.17/outbox.cif.g08.bks.cpg/sg69_5_cif.got.tgz:9917.got - 2010.06.03 19:29:58.
