data_PCOD9512059
_publ_section_title
;
Structure prediction by ZEFSAII (Michael W. Deem and Ramdas Pophale) SiO2 
 PCOD9512059
Probable space group: F M M M
;
_chemical_formula_sum "Si O2"
_cell_formula_units_Z 136
_cell_length_a 19.194257
_cell_length_b 15.366990
_cell_length_c 24.848135
_cell_angle_alpha 90.000000
_cell_angle_beta 90.000000
_cell_angle_gamma 90.000000
_cell_volume 7329.155095
_symmetry_space_group_name_H-M "F M M M"
_symmetry_group_IT_number 69
_symmetry_cell_setting 'orthorhombic'
loop_
_space_group_symop_operation_xyz
x,y,z
-x,-y,z
x,-y,-z
-x,y,-z
-x,-y,-z
x,y,-z
-x,y,z
x,-y,z
x,1/2+y,1/2+z
-x,1/2-y,1/2+z
x,1/2-y,1/2-z
-x,1/2+y,1/2-z
-x,1/2-y,1/2-z
x,1/2+y,1/2-z
-x,1/2+y,1/2+z
x,1/2-y,1/2+z
1/2+x,y,1/2+z
1/2-x,-y,1/2+z
1/2+x,-y,1/2-z
1/2-x,y,1/2-z
1/2-x,-y,1/2-z
1/2+x,y,1/2-z
1/2-x,y,1/2+z
1/2+x,-y,1/2+z
1/2+x,1/2+y,z
1/2-x,1/2-y,z
1/2+x,1/2-y,-z
1/2-x,1/2+y,-z
1/2-x,1/2-y,-z
1/2+x,1/2+y,-z
1/2-x,1/2+y,z
1/2+x,1/2-y,z
loop_
_atom_site_type_symbol
_atom_site_label
_atom_site_fract_x
_atom_site_fract_y
_atom_site_fract_z
Si Si1 0.215962 0.101246 0.695131
Si Si2 0.420561 0.354542 0.748830
Si Si3 0.580730 0.602284 0.126849
Si Si4 0.243336 0.500000 0.500000
Si Si5 0.777862 0.158647 0.916528
O O1 0.250000 0.137327 0.750000
O O2 0.134053 0.109693 0.706195
O O3 0.242051 0.146975 0.641852
O O4 0.236211 0.000000 0.690779
O O5 0.500000 0.379140 0.736378
O O6 0.415821 0.250000 0.750000
O O7 0.405041 0.387801 0.809269
O O8 0.500000 0.628606 0.117960
O O9 0.587173 0.500000 0.112938
O O10 0.638808 0.654698 0.094200
O O11 0.240942 0.423033 0.453397
O O12 0.750000 0.250000 0.938156
#
# Coordination Sequence:
#
# PCOD9512059 Si02
#       5
#    32  32  32   8  32
#     4  11  21  34  57  90 125 159 202 241 303 381
#     4  10  20  32  51  87 129 166 202 242 300 385
#     4  10  19  36  61  92 130 163 197 255 323 381
#     4  12  26  48  63  90 125 158 226 270 308 378
#     4  12  24  42  66  93 124 169 209 263 318 371
#
# _framework density 18.556027
#
# number of rings (size 3 to 8) (size 9 to 14) (size 15 to 20)
#    0.000    1.176    4.706    2.471    0.000    1.412 
#    0.000    1.176    0.000    0.000    0.000    5.765 
#    0.000    0.000    0.000    0.000    0.000    0.000 
#
# Total GULP energy -189420.991130 kJ/mol
# GULP energy per Si atom -5571.205621 kJ/mol
# Density = 1.851379 g / cm^3
# Si number density = 18.556027 Si / 1000 Ang^3
#
#
#
# Elastic Constant Matrix: (Units=GPa)
#
#
# Indices 1 2 3 4 5 6 
#
# 1 101.6541 40.8395 34.0851 0.0000 0.0000 0.0000
# 2 40.8395 122.2127 43.5958 0.0000 0.0000 0.0000
# 3 34.0851 43.5958 97.7728 0.0000 0.0000 0.0000
# 4 0.0000 0.0000 0.0000 -25.7426 0.0000 0.0000
# 5 0.0000 0.0000 0.0000 0.0000 -9.0187 0.0000
# 6 0.0000 0.0000 0.0000 0.0000 0.0000 19.4761
#
#
#
# Elastic Compliance Matrix: (Units=1/GPa)
#
#
# Indices 1 2 3 4 5 6 
#
# 1 0.011994 -0.002992 -0.002847 0.000000 0.000000 0.000000
# 2 -0.002992 0.010477 -0.003628 0.000000 0.000000 0.000000
# 3 -0.002847 -0.003628 0.012838 0.000000 0.000000 0.000000
# 4 0.000000 0.000000 0.000000 -0.038846 0.000000 0.000000
# 5 0.000000 0.000000 0.000000 0.000000 -0.110880 0.000000
# 6 0.000000 0.000000 0.000000 0.000000 0.000000 0.051345
#
#
# Mechanical properties :
#
#
# Convention : Reuss Voigt Hill
#
# Bulk Modulus (GPa) = 61.07432 62.07560 61.57496
# Shear Modulus (GPa) = -129.26799 10.48424 -59.39188
#
# Velocity S-wave (km/s) = -8.35553 2.37956 -5.66359
# Velocity P-wave (km/s) = 7.75252 6.40901 3.08432
#
# Compressibility (1/GPa) = 0.01637349
#
# Stress axis : x y z
#
# Youngs Moduli (GPa) = 83.37424 95.44997 77.89319
#
# Poissons Ratio (x) = 0.28563 0.22176
# Poissons Ratio (y) = 0.24949 0.28261
# Poissons Ratio (z) = 0.23737 0.34631
#
# Static dielectric constant tensor:
#      x y z
#    x 1.680570 0.000000 0.000000 
#    y 0.000000 1.666980 0.000000 
#    z 0.000000 0.000000 1.617680 
# 
# From -- ./inp_files/16543.got.cif
#   From: 2010.05.17/outbox.cif.g08.bks.cpg/sg69_9_cif.got.tgz:16543.got - 2010.06.03 19:29:58.
