data_PCOD9512866
_publ_section_title
;
Structure prediction by ZEFSAII (Michael W. Deem and Ramdas Pophale) SiO2 
 PCOD9512866
Probable space group: F M M M
;
_chemical_formula_sum "Si O2"
_cell_formula_units_Z 208
_cell_length_a 25.804824
_cell_length_b 16.259659
_cell_length_c 23.411903
_cell_angle_alpha 90.000000
_cell_angle_beta 90.000000
_cell_angle_gamma 90.000000
_cell_volume 9823.110980
_symmetry_space_group_name_H-M "F M M M"
_symmetry_group_IT_number 69
_symmetry_cell_setting 'orthorhombic'
loop_
_space_group_symop_operation_xyz
x,y,z
-x,-y,z
x,-y,-z
-x,y,-z
-x,-y,-z
x,y,-z
-x,y,z
x,-y,z
x,1/2+y,1/2+z
-x,1/2-y,1/2+z
x,1/2-y,1/2-z
-x,1/2+y,1/2-z
-x,1/2-y,1/2-z
x,1/2+y,1/2-z
-x,1/2+y,1/2+z
x,1/2-y,1/2+z
1/2+x,y,1/2+z
1/2-x,-y,1/2+z
1/2+x,-y,1/2-z
1/2-x,y,1/2-z
1/2-x,-y,1/2-z
1/2+x,y,1/2-z
1/2-x,y,1/2+z
1/2+x,-y,1/2+z
1/2+x,1/2+y,z
1/2-x,1/2-y,z
1/2+x,1/2-y,-z
1/2-x,1/2+y,-z
1/2-x,1/2-y,-z
1/2+x,1/2+y,-z
1/2-x,1/2+y,z
1/2+x,1/2-y,z
loop_
_atom_site_type_symbol
_atom_site_label
_atom_site_fract_x
_atom_site_fract_y
_atom_site_fract_z
Si Si1 0.116698 0.305504 0.500000
Si Si2 0.442189 0.901591 0.837591
Si Si3 0.801520 0.703656 0.328865
Si Si4 0.147220 0.829559 0.405776
Si Si5 0.114448 0.901051 0.221191
Si Si6 0.741917 0.597749 0.065291
Si Si7 0.940508 0.901350 0.899017
O O1 0.134220 0.238170 0.548256
O O2 0.093900 0.365788 0.550548
O O3 0.500000 0.867491 0.845825
O O4 0.403126 0.880217 0.888395
O O5 0.417966 0.876150 0.776747
O O6 0.445718 0.000000 0.834688
O O7 0.750000 0.750000 0.310295
O O8 0.837171 0.777780 0.350068
O O9 0.831203 0.646016 0.284794
O O10 0.786811 0.648615 0.385234
O O11 0.197214 0.881922 0.426010
O O12 0.083161 0.881326 0.163113
O O13 0.122668 0.000000 0.223175
O O14 0.732941 0.500000 0.070525
O O15 0.725255 0.622983 0.000000
O O16 0.000000 0.871600 0.903897
O O17 0.940999 0.000000 0.902855
#
# Coordination Sequence:
#
# PCOD9512866 Si02
#       7
#    16  32  32  32  32  32  32
#     4  12  22  37  58  87 132 172 207 254 317 377
#     4  10  23  45  70  92 121 165 217 267 312 368
#     4  10  22  38  60  90 127 161 198 256 316 380
#     4  11  23  40  61  90 130 168 209 258 315 369
#     4  10  20  40  67  94 123 162 214 265 316 375
#     4  10  21  38  64  91 122 169 218 261 310 375
#     4  10  21  37  59  89 127 170 212 255 314 389
#
# _framework density 21.174555000000002
#
# number of rings (size 3 to 8) (size 9 to 14) (size 15 to 20)
#    0.000    1.692    2.308    1.846    1.077    5.231 
#    0.000    6.154    0.000    9.231    0.000    0.000 
#    0.000    0.000    0.000    0.000    0.000    0.000 
#
# Total GULP energy -289672.175480 kJ/mol
# GULP energy per Si atom -5570.618759 kJ/mol
# Density = 2.112636 g / cm^3
# Si number density = 21.174555 Si / 1000 Ang^3
#
#
#
# Elastic Constant Matrix: (Units=GPa)
#
#
# Indices 1 2 3 4 5 6 
#
# 1 53.0334 7.4644 -2.7709 0.0000 0.0000 0.0000
# 2 7.4644 35.7335 5.3178 0.0000 0.0000 0.0000
# 3 -2.7709 5.3178 51.5452 0.0000 0.0000 0.0000
# 4 0.0000 0.0000 0.0000 38.2713 0.0000 0.0000
# 5 0.0000 0.0000 0.0000 0.0000 24.8756 0.0000
# 6 0.0000 0.0000 0.0000 0.0000 0.0000 20.5079
#
#
#
# Elastic Compliance Matrix: (Units=1/GPa)
#
#
# Indices 1 2 3 4 5 6 
#
# 1 0.019540 -0.004304 0.001494 0.000000 0.000000 0.000000
# 2 -0.004304 0.029369 -0.003261 0.000000 0.000000 0.000000
# 3 0.001494 -0.003261 0.019817 0.000000 0.000000 0.000000
# 4 0.000000 0.000000 0.000000 0.026129 0.000000 0.000000
# 5 0.000000 0.000000 0.000000 0.000000 0.040200 0.000000
# 6 0.000000 0.000000 0.000000 0.000000 0.000000 0.048762
#
#
# Mechanical properties :
#
#
# Convention : Reuss Voigt Hill
#
# Bulk Modulus (GPa) = 17.67267 17.81496 17.74381
# Shear Modulus (GPa) = 23.27521 25.41770 24.34646
#
# Velocity S-wave (km/s) = 3.31903 3.46842 3.39455
# Velocity P-wave (km/s) = 4.80127 4.94688 4.87462
#
# Compressibility (1/GPa) = 0.05658455
#
# Stress axis : x y z
#
# Youngs Moduli (GPa) = 51.17733 34.04912 50.46109
#
# Poissons Ratio (x) = 0.14655 -0.07541
# Poissons Ratio (y) = 0.22027 0.16457
# Poissons Ratio (z) = -0.07648 0.11105
#
# Static dielectric constant tensor:
#      x y z
#    x 1.817740 0.000000 0.000000 
#    y 0.000000 1.732940 0.000000 
#    z 0.000000 0.000000 1.777220 
# 
# From -- ./inp_files/38470.got.cif
#   From: 2010.05.17/outbox.cif.g08.bks.cpg/sg69_20_cif.got.tgz:38470.got - 2010.06.03 19:29:58.
