data_PCOD9512962
_publ_section_title
;
Structure prediction by ZEFSAII (Michael W. Deem and Ramdas Pophale) SiO2 
 PCOD9512962
Probable space group: F M M M
;
_chemical_formula_sum "Si O2"
_cell_formula_units_Z 160
_cell_length_a 15.726305
_cell_length_b 18.548541
_cell_length_c 26.124751
_cell_angle_alpha 90.000000
_cell_angle_beta 90.000000
_cell_angle_gamma 90.000000
_cell_volume 7620.590208
_symmetry_space_group_name_H-M "F M M M"
_symmetry_group_IT_number 69
_symmetry_cell_setting 'orthorhombic'
loop_
_space_group_symop_operation_xyz
x,y,z
-x,-y,z
x,-y,-z
-x,y,-z
-x,-y,-z
x,y,-z
-x,y,z
x,-y,z
x,1/2+y,1/2+z
-x,1/2-y,1/2+z
x,1/2-y,1/2-z
-x,1/2+y,1/2-z
-x,1/2-y,1/2-z
x,1/2+y,1/2-z
-x,1/2+y,1/2+z
x,1/2-y,1/2+z
1/2+x,y,1/2+z
1/2-x,-y,1/2+z
1/2+x,-y,1/2-z
1/2-x,y,1/2-z
1/2-x,-y,1/2-z
1/2+x,y,1/2-z
1/2-x,y,1/2+z
1/2+x,-y,1/2+z
1/2+x,1/2+y,z
1/2-x,1/2-y,z
1/2+x,1/2-y,-z
1/2-x,1/2+y,-z
1/2-x,1/2-y,-z
1/2+x,1/2+y,-z
1/2-x,1/2+y,z
1/2+x,1/2-y,z
loop_
_atom_site_type_symbol
_atom_site_label
_atom_site_fract_x
_atom_site_fract_y
_atom_site_fract_z
Si Si1 0.710162 0.579379 0.693897
Si Si2 0.000000 0.912990 0.939570
Si Si3 0.663720 0.355149 0.120513
Si Si4 0.830833 0.156141 0.560046
Si Si5 0.404114 0.500000 0.561427
Si Si6 0.097130 0.287111 0.843000
O O1 0.668799 0.500000 0.688728
O O2 0.750000 0.585227 0.750000
O O3 0.788134 0.585648 0.654226
O O4 0.648800 0.647153 0.682205
O O5 0.917683 0.882725 0.910034
O O6 0.000000 0.000000 0.936943
O O7 0.000000 0.893195 0.000000
O O8 0.735570 0.330358 0.079901
O O9 0.640510 0.290940 0.160049
O O10 0.839756 0.168915 0.500000
O O11 0.853786 0.072805 0.572464
O O12 0.895382 0.199681 0.595656
O O13 0.500000 0.500000 0.583391
O O14 0.412860 0.500000 0.500000
O O15 0.000000 0.285992 0.826220
#
# Coordination Sequence:
#
# PCOD9512962 Si02
#       6
#    32  16  32  32  16  32
#     4  10  23  45  72  98 126 164 217 279 344 409
#     4  11  24  40  64  95 133 181 235 286 329 386
#     4  11  23  42  62  93 131 173 221 270 332 400
#     4  10  21  35  57  86 124 172 219 260 317 384
#     4   9  18  32  50  81 118 157 211 268 318 374
#     4  11  24  41  62  95 134 172 214 269 331 397
#
# _framework density 20.995749
#
# number of rings (size 3 to 8) (size 9 to 14) (size 15 to 20)
#    0.000    1.600    1.000    4.200    7.000    5.600 
#    1.800    1.000    0.000    0.000    0.000    0.000 
#    0.000    0.000    0.000    0.000    0.000    0.000 
#
# Total GULP energy -223409.063359 kJ/mol
# GULP energy per Si atom -5585.226584 kJ/mol
# Density = 2.094796 g / cm^3
# Si number density = 20.995749 Si / 1000 Ang^3
#
#
#
# Elastic Constant Matrix: (Units=GPa)
#
#
# Indices 1 2 3 4 5 6 
#
# 1 127.1709 41.4637 8.8297 0.0000 0.0000 0.0000
# 2 41.4637 116.2551 6.3888 0.0000 0.0000 0.0000
# 3 8.8297 6.3888 71.5529 0.0000 0.0000 0.0000
# 4 0.0000 0.0000 0.0000 27.2373 0.0000 0.0000
# 5 0.0000 0.0000 0.0000 0.0000 11.5213 0.0000
# 6 0.0000 0.0000 0.0000 0.0000 0.0000 23.1869
#
#
#
# Elastic Compliance Matrix: (Units=1/GPa)
#
#
# Indices 1 2 3 4 5 6 
#
# 1 0.008946 -0.003146 -0.000823 0.000000 0.000000 0.000000
# 2 -0.003146 0.009750 -0.000482 0.000000 0.000000 0.000000
# 3 -0.000823 -0.000482 0.014120 0.000000 0.000000 0.000000
# 4 0.000000 0.000000 0.000000 0.036714 0.000000 0.000000
# 5 0.000000 0.000000 0.000000 0.000000 0.086796 0.000000
# 6 0.000000 0.000000 0.000000 0.000000 0.000000 0.043128
#
#
# Mechanical properties :
#
#
# Convention : Reuss Voigt Hill
#
# Bulk Modulus (GPa) = 41.81547 47.59368 44.70458
# Shear Modulus (GPa) = 23.11306 29.60889 26.36098
#
# Velocity S-wave (km/s) = 3.32150 3.75938 3.54720
# Velocity P-wave (km/s) = 5.88806 6.44681 6.17376
#
# Compressibility (1/GPa) = 0.02391459
#
# Stress axis : x y z
#
# Youngs Moduli (GPa) = 111.77973 102.56234 70.81989
#
# Poissons Ratio (x) = 0.32261 0.05829
# Poissons Ratio (y) = 0.35160 0.03416
# Poissons Ratio (z) = 0.09201 0.04948
#
# Static dielectric constant tensor:
#      x y z
#    x 1.736790 0.000000 0.000000 
#    y 0.000000 1.810890 0.000000 
#    z 0.000000 0.000000 1.756140 
# 
# From -- ./inp_files/45686.got.cif
#   From: 2010.05.17/outbox.cif.g08.bks.cpg/sg69_23_cif.got.tgz:45686.got - 2010.06.03 19:29:58.
