data_PCOD9512389
_publ_section_title
;
Structure prediction by ZEFSAII (Michael W. Deem and Ramdas Pophale) SiO2 
 PCOD9512389
Probable space group: F M M M
;
_chemical_formula_sum "Si O2"
_cell_formula_units_Z 144
_cell_length_a 32.291743
_cell_length_b 27.783495
_cell_length_c 9.446147
_cell_angle_alpha 90.000000
_cell_angle_beta 90.000000
_cell_angle_gamma 90.000000
_cell_volume 8474.870363
_symmetry_space_group_name_H-M "F M M M"
_symmetry_group_IT_number 69
_symmetry_cell_setting 'orthorhombic'
loop_
_space_group_symop_operation_xyz
x,y,z
-x,-y,z
x,-y,-z
-x,y,-z
-x,-y,-z
x,y,-z
-x,y,z
x,-y,z
x,1/2+y,1/2+z
-x,1/2-y,1/2+z
x,1/2-y,1/2-z
-x,1/2+y,1/2-z
-x,1/2-y,1/2-z
x,1/2+y,1/2-z
-x,1/2+y,1/2+z
x,1/2-y,1/2+z
1/2+x,y,1/2+z
1/2-x,-y,1/2+z
1/2+x,-y,1/2-z
1/2-x,y,1/2-z
1/2-x,-y,1/2-z
1/2+x,y,1/2-z
1/2-x,y,1/2+z
1/2+x,-y,1/2+z
1/2+x,1/2+y,z
1/2-x,1/2-y,z
1/2+x,1/2-y,-z
1/2-x,1/2+y,-z
1/2-x,1/2-y,-z
1/2+x,1/2+y,-z
1/2-x,1/2+y,z
1/2+x,1/2-y,z
loop_
_atom_site_type_symbol
_atom_site_label
_atom_site_fract_x
_atom_site_fract_y
_atom_site_fract_z
Si Si1 0.919591 0.199269 0.667499
Si Si2 0.500000 0.802612 0.326824
Si Si3 0.214169 0.315623 0.000000
Si Si4 0.661562 0.853940 0.241318
Si Si5 0.810905 0.207748 0.000000
Si Si6 0.707238 0.444106 0.166716
O O1 0.929289 0.208949 0.500000
O O2 0.909672 0.250000 0.750000
O O3 0.957889 0.177113 0.757744
O O4 0.881639 0.161879 0.673451
O O5 0.500000 0.801643 0.500000
O O6 0.500000 0.750000 0.250000
O O7 0.199060 0.343801 0.135157
O O8 0.189406 0.265053 0.000000
O O9 0.262589 0.306328 0.000000
O O10 0.667845 0.816082 0.366828
O O11 0.670258 0.907901 0.292495
O O12 0.696476 0.500000 0.192912
O O13 0.750000 0.434265 0.250000
O O14 0.715553 0.437618 0.000000
#
# Coordination Sequence:
#
# PCOD9512389 Si02
#       6
#    32  16  16  32  16  32
#     4  11  22  36  55  79 113 147 185 224 270 327
#     4  10  20  34  56  80 109 144 183 222 272 325
#     4  11  22  36  47  74 108 146 188 214 267 315
#     4  12  23  34  54  78 106 144 187 228 274 319
#     4  11  22  34  51  70 108 150 182 226 255 321
#     4  10  22  39  58  78 102 138 186 239 288 329
#
# _framework density 16.991409999999998
#
# number of rings (size 3 to 8) (size 9 to 14) (size 15 to 20)
#    0.000    1.111    2.222    7.000    4.667    1.778 
#    0.000    0.000    0.000    0.000    0.000    0.778 
#    0.000    4.444    0.000    0.000    0.000    0.000 
#
# Total GULP energy -200778.270372 kJ/mol
# GULP energy per Si atom -5577.174177 kJ/mol
# Density = 1.695274 g / cm^3
# Si number density = 16.991410 Si / 1000 Ang^3
#
#
#
# Elastic Constant Matrix: (Units=GPa)
#
#
# Indices 1 2 3 4 5 6 
#
# 1 73.2649 41.4443 28.4988 -0.0004 0.0003 0.0002
# 2 41.4443 78.9786 27.8811 0.0007 0.0008 0.0006
# 3 28.4988 27.8811 128.4941 -0.0011 0.0020 0.0012
# 4 -0.0004 0.0007 -0.0011 23.3723 0.0009 0.0005
# 5 0.0003 0.0008 0.0020 0.0009 27.8538 -0.0007
# 6 0.0002 0.0006 0.0012 0.0005 -0.0007 18.4086
#
#
#
# Elastic Compliance Matrix: (Units=1/GPa)
#
#
# Indices 1 2 3 4 5 6 
#
# 1 0.020042 -0.009690 -0.002342 0.000000 0.000000 0.000000
# 2 -0.009690 0.018397 -0.001843 -0.000001 0.000000 0.000000
# 3 -0.002342 -0.001843 0.008702 0.000000 -0.000001 0.000000
# 4 0.000000 -0.000001 0.000000 0.042786 -0.000001 -0.000001
# 5 0.000000 0.000000 -0.000001 -0.000001 0.035902 0.000001
# 6 0.000000 0.000000 0.000000 -0.000001 0.000001 0.054322
#
#
# Mechanical properties :
#
#
# Convention : Reuss Voigt Hill
#
# Bulk Modulus (GPa) = 51.57252 52.93180 52.25216
# Shear Modulus (GPa) = 23.32478 26.12116 24.72297
#
# Velocity S-wave (km/s) = 3.70907 3.92512 3.81862
# Velocity P-wave (km/s) = 6.98290 7.19456 7.08952
#
# Compressibility (1/GPa) = 0.01939017
#
# Stress axis : x y z
#
# Youngs Moduli (GPa) = 49.89585 54.35654 114.91820
#
# Poissons Ratio (x) = 0.52672 0.26920
# Poissons Ratio (y) = 0.48349 0.21176
# Poissons Ratio (z) = 0.11688 0.10016
#
# Static dielectric constant tensor:
#      x y z
#    x 1.618740 0.000000 0.000000 
#    y 0.000000 1.575540 0.000000 
#    z 0.000000 0.000000 1.594170 
# 
# From -- ./inp_files/5636.got.cif
#   From: 2010.05.17/outbox.cif.g08.bks.cpg/sg69_3_cif.got.tgz:5636.got - 2010.06.03 19:29:58.
