data_PCOD9512393
_publ_section_title
;
Structure prediction by ZEFSAII (Michael W. Deem and Ramdas Pophale) SiO2 
 PCOD9512393
Probable space group: F M M M
;
_chemical_formula_sum "Si O2"
_cell_formula_units_Z 128
_cell_length_a 21.045425
_cell_length_b 16.465420
_cell_length_c 19.708570
_cell_angle_alpha 90.000000
_cell_angle_beta 90.000000
_cell_angle_gamma 90.000000
_cell_volume 6829.448397
_symmetry_space_group_name_H-M "F M M M"
_symmetry_group_IT_number 69
_symmetry_cell_setting 'orthorhombic'
loop_
_space_group_symop_operation_xyz
x,y,z
-x,-y,z
x,-y,-z
-x,y,-z
-x,-y,-z
x,y,-z
-x,y,z
x,-y,z
x,1/2+y,1/2+z
-x,1/2-y,1/2+z
x,1/2-y,1/2-z
-x,1/2+y,1/2-z
-x,1/2-y,1/2-z
x,1/2+y,1/2-z
-x,1/2+y,1/2+z
x,1/2-y,1/2+z
1/2+x,y,1/2+z
1/2-x,-y,1/2+z
1/2+x,-y,1/2-z
1/2-x,y,1/2-z
1/2-x,-y,1/2-z
1/2+x,y,1/2-z
1/2-x,y,1/2+z
1/2+x,-y,1/2+z
1/2+x,1/2+y,z
1/2-x,1/2-y,z
1/2+x,1/2-y,-z
1/2-x,1/2+y,-z
1/2-x,1/2-y,-z
1/2+x,1/2+y,-z
1/2-x,1/2+y,z
1/2+x,1/2-y,z
loop_
_atom_site_type_symbol
_atom_site_label
_atom_site_fract_x
_atom_site_fract_y
_atom_site_fract_z
Si Si1 0.310508 0.905343 0.791701
Si Si2 0.235373 0.345386 0.925112
Si Si3 0.621715 0.904621 0.579259
Si Si4 0.927528 0.338352 0.285499
O O1 0.250000 0.871198 0.750000
O O2 0.312006 0.864041 0.864668
O O3 0.374173 0.892643 0.749948
O O4 0.298572 0.000000 0.802721
O O5 0.250000 0.250000 0.924984
O O6 0.302380 0.391042 0.912822
O O7 0.212148 0.368539 0.000000
O O8 0.606723 0.886814 0.500000
O O9 0.587543 0.847422 0.634241
O O10 0.607004 0.000000 0.591936
O O11 0.920520 0.250000 0.250000
O O12 0.000000 0.364684 0.274282
#
# Coordination Sequence:
#
# PCOD9512393 Si02
#       4
#    32  32  32  32
#     4  11  22  35  57  87 114 150 191 232 286 344
#     4  10  20  34  56  86 117 150 189 237 291 344
#     4  10  20  36  60  89 119 150 188 239 301 360
#     4  11  24  40  58  83 117 158 198 238 288 347
#
# _framework density 18.742363000000001
#
# number of rings (size 3 to 8) (size 9 to 14) (size 15 to 20)
#    0.000    1.500    2.500    3.000    0.000    4.000 
#    0.000    1.250    0.000    2.250    0.000    1.750 
#    0.000    0.000    0.000    0.000    0.000    0.000 
#
# Total GULP energy -178624.165801 kJ/mol
# GULP energy per Si atom -5582.005181 kJ/mol
# Density = 1.869970 g / cm^3
# Si number density = 18.742363 Si / 1000 Ang^3
#
#
#
# Elastic Constant Matrix: (Units=GPa)
#
#
# Indices 1 2 3 4 5 6 
#
# 1 62.0751 6.5503 44.0990 0.0000 0.0000 0.0000
# 2 6.5503 46.5362 33.8681 0.0000 0.0000 0.0000
# 3 44.0990 33.8681 149.4963 0.0000 0.0000 0.0000
# 4 0.0000 0.0000 0.0000 34.9764 0.0000 0.0000
# 5 0.0000 0.0000 0.0000 0.0000 19.1105 0.0000
# 6 0.0000 0.0000 0.0000 0.0000 0.0000 7.8891
#
#
#
# Elastic Compliance Matrix: (Units=1/GPa)
#
#
# Indices 1 2 3 4 5 6 
#
# 1 0.020508 0.001815 -0.006461 0.000000 0.000000 0.000000
# 2 0.001815 0.025892 -0.006401 0.000000 0.000000 0.000000
# 3 -0.006461 -0.006401 0.010045 0.000000 0.000000 0.000000
# 4 0.000000 0.000000 0.000000 0.028591 0.000000 0.000000
# 5 0.000000 0.000000 0.000000 0.000000 0.052327 0.000000
# 6 0.000000 0.000000 0.000000 0.000000 0.000000 0.126758
#
#
# Mechanical properties :
#
#
# Convention : Reuss Voigt Hill
#
# Bulk Modulus (GPa) = 29.11086 47.46028 38.28557
# Shear Modulus (GPa) = 16.79746 23.96788 20.38267
#
# Velocity S-wave (km/s) = 2.99696 3.57992 3.30133
# Velocity P-wave (km/s) = 5.24800 6.51653 5.91636
#
# Compressibility (1/GPa) = 0.03435145
#
# Stress axis : x y z
#
# Youngs Moduli (GPa) = 48.76213 38.62227 99.55079
#
# Poissons Ratio (x) = -0.07011 0.64317
# Poissons Ratio (y) = -0.08852 0.63725
# Poissons Ratio (z) = 0.31504 0.24723
#
# Static dielectric constant tensor:
#      x y z
#    x 1.636610 0.000000 0.000000 
#    y 0.000000 1.652450 0.000000 
#    z 0.000000 0.000000 1.680690 
# 
# From -- ./inp_files/22753.got.cif
#   From: 2010.05.17/outbox.cif.g08.bks.cpg/sg69_12_cif.got.tgz:22753.got - 2010.06.03 19:29:58.
