data_PCOD9512916
_publ_section_title
;
Structure prediction by ZEFSAII (Michael W. Deem and Ramdas Pophale) SiO2 
 PCOD9512916
Probable space group: F M M M
;
_chemical_formula_sum "Si O2"
_cell_formula_units_Z 144
_cell_length_a 18.901301
_cell_length_b 20.123230
_cell_length_c 21.612048
_cell_angle_alpha 90.000000
_cell_angle_beta 90.000000
_cell_angle_gamma 90.000000
_cell_volume 8220.255430
_symmetry_space_group_name_H-M "F M M M"
_symmetry_group_IT_number 69
_symmetry_cell_setting 'orthorhombic'
loop_
_space_group_symop_operation_xyz
x,y,z
-x,-y,z
x,-y,-z
-x,y,-z
-x,-y,-z
x,y,-z
-x,y,z
x,-y,z
x,1/2+y,1/2+z
-x,1/2-y,1/2+z
x,1/2-y,1/2-z
-x,1/2+y,1/2-z
-x,1/2-y,1/2-z
x,1/2+y,1/2-z
-x,1/2+y,1/2+z
x,1/2-y,1/2+z
1/2+x,y,1/2+z
1/2-x,-y,1/2+z
1/2+x,-y,1/2-z
1/2-x,y,1/2-z
1/2-x,-y,1/2-z
1/2+x,y,1/2-z
1/2-x,y,1/2+z
1/2+x,-y,1/2+z
1/2+x,1/2+y,z
1/2-x,1/2-y,z
1/2+x,1/2-y,-z
1/2-x,1/2+y,-z
1/2-x,1/2-y,-z
1/2+x,1/2+y,-z
1/2-x,1/2+y,z
1/2+x,1/2-y,z
loop_
_atom_site_type_symbol
_atom_site_label
_atom_site_fract_x
_atom_site_fract_y
_atom_site_fract_z
Si Si1 0.286422 0.322339 0.071936
Si Si2 0.918813 0.146293 0.718003
Si Si3 0.079690 0.000000 0.426981
Si Si4 0.579935 0.215470 0.351422
Si Si5 0.809656 0.925782 0.644919
O O1 0.250000 0.250000 0.074863
O O2 0.363860 0.310426 0.099848
O O3 0.244300 0.373980 0.115437
O O4 0.286614 0.344064 0.000000
O O5 0.914537 0.174586 0.787313
O O6 0.909271 0.208291 0.670678
O O7 0.852868 0.098556 0.704690
O O8 0.000000 0.120786 0.709716
O O9 0.125271 0.062137 0.403101
O O10 0.077415 0.000000 0.500000
O O11 0.000000 0.000000 0.402554
O O12 0.500000 0.209582 0.374778
O O13 0.778807 0.000000 0.653619
#
# Coordination Sequence:
#
# PCOD9512916 Si02
#       5
#    32  32  16  32  32
#     4  11  22  37  55  80 114 151 192 236 277 326
#     4   9  17  34  57  83 114 145 182 227 282 339
#     4   9  18  32  52  79 113 153 184 213 273 345
#     4   9  19  36  58  81 108 148 189 230 278 329
#     4  10  21  34  55  83 113 149 181 226 284 337
#
# _framework density 17.517703999999998
#
# number of rings (size 3 to 8) (size 9 to 14) (size 15 to 20)
#    0.667    1.667    2.222    2.667    0.000    1.333 
#    0.000    2.222    0.000    2.000    0.000    1.556 
#    0.000    0.000    0.000    0.000    0.000    0.000 
#
# Total GULP energy -200439.208424 kJ/mol
# GULP energy per Si atom -5567.755790 kJ/mol
# Density = 1.747783 g / cm^3
# Si number density = 17.517704 Si / 1000 Ang^3
#
#
#
# Elastic Constant Matrix: (Units=GPa)
#
#
# Indices 1 2 3 4 5 6 
#
# 1 93.7103 28.4878 19.1108 0.0000 0.0000 0.0000
# 2 28.4878 66.9098 13.4157 0.0000 0.0000 0.0000
# 3 19.1108 13.4157 23.8314 0.0000 0.0000 0.0000
# 4 0.0000 0.0000 0.0000 17.6893 0.0000 0.0000
# 5 0.0000 0.0000 0.0000 0.0000 4.3243 0.0000
# 6 0.0000 0.0000 0.0000 0.0000 0.0000 -104.7079
#
#
#
# Elastic Compliance Matrix: (Units=1/GPa)
#
#
# Indices 1 2 3 4 5 6 
#
# 1 0.013682 -0.004087 -0.008671 0.000000 0.000000 0.000000
# 2 -0.004087 0.018068 -0.006894 0.000000 0.000000 0.000000
# 3 -0.008671 -0.006894 0.052796 0.000000 0.000000 0.000000
# 4 0.000000 0.000000 0.000000 0.056531 0.000000 0.000000
# 5 0.000000 0.000000 0.000000 0.000000 0.231250 0.000000
# 6 0.000000 0.000000 0.000000 0.000000 0.000000 -0.009550
#
#
# Mechanical properties :
#
#
# Convention : Reuss Voigt Hill
#
# Bulk Modulus (GPa) = 22.10336 34.05333 28.07834
# Shear Modulus (GPa) = 11.98578 -8.30972 1.83803
#
# Velocity S-wave (km/s) = 2.61858 -2.18035 1.02544
# Velocity P-wave (km/s) = 4.66773 3.62533 4.17916
#
# Compressibility (1/GPa) = 0.04524200
#
# Stress axis : x y z
#
# Youngs Moduli (GPa) = 73.08936 55.34742 18.94087
#
# Poissons Ratio (x) = 0.22619 0.16424
# Poissons Ratio (y) = 0.29869 0.13058
# Poissons Ratio (z) = 0.63377 0.38156
#
# Static dielectric constant tensor:
#      x y z
#    x 1.591950 0.000000 0.000000 
#    y 0.000000 1.701120 0.000000 
#    z 0.000000 0.000000 1.585880 
# 
# From -- ./inp_files/30731.got.cif
#   From: 2010.05.17/outbox.cif.g08.bks.cpg/sg69_16_cif.got.tgz:30731.got - 2010.06.03 19:29:58.
