data_PCOD9512667
_publ_section_title
;
Structure prediction by ZEFSAII (Michael W. Deem and Ramdas Pophale) SiO2 
 PCOD9512667
Probable space group: F M M M
;
_chemical_formula_sum "Si O2"
_cell_formula_units_Z 144
_cell_length_a 14.866477
_cell_length_b 27.673498
_cell_length_c 18.240699
_cell_angle_alpha 90.000000
_cell_angle_beta 90.000000
_cell_angle_gamma 90.000000
_cell_volume 7504.358942
_symmetry_space_group_name_H-M "F M M M"
_symmetry_group_IT_number 69
_symmetry_cell_setting 'orthorhombic'
loop_
_space_group_symop_operation_xyz
x,y,z
-x,-y,z
x,-y,-z
-x,y,-z
-x,-y,-z
x,y,-z
-x,y,z
x,-y,z
x,1/2+y,1/2+z
-x,1/2-y,1/2+z
x,1/2-y,1/2-z
-x,1/2+y,1/2-z
-x,1/2-y,1/2-z
x,1/2+y,1/2-z
-x,1/2+y,1/2+z
x,1/2-y,1/2+z
1/2+x,y,1/2+z
1/2-x,-y,1/2+z
1/2+x,-y,1/2-z
1/2-x,y,1/2-z
1/2-x,-y,1/2-z
1/2+x,y,1/2-z
1/2-x,y,1/2+z
1/2+x,-y,1/2+z
1/2+x,1/2+y,z
1/2-x,1/2-y,z
1/2+x,1/2-y,-z
1/2-x,1/2+y,-z
1/2-x,1/2-y,-z
1/2+x,1/2+y,-z
1/2-x,1/2+y,z
1/2+x,1/2-y,z
loop_
_atom_site_type_symbol
_atom_site_label
_atom_site_fract_x
_atom_site_fract_y
_atom_site_fract_z
Si Si1 0.106551 0.444228 0.213586
Si Si2 0.000000 0.447038 0.413912
Si Si3 0.849054 0.880966 0.151273
Si Si4 0.000000 0.194688 0.648653
Si Si5 0.500000 0.195649 0.674155
Si Si6 0.848577 0.876575 0.412253
O O1 0.135358 0.500000 0.221682
O O2 0.154008 0.406785 0.269014
O O3 0.120224 0.424587 0.131432
O O4 0.000000 0.440905 0.230168
O O5 0.090005 0.419129 0.392550
O O6 0.000000 0.500000 0.379142
O O7 0.000000 0.451251 0.500000
O O8 0.910413 0.833456 0.153523
O O9 0.753991 0.870335 0.114591
O O10 0.000000 0.193764 0.737176
O O11 0.000000 0.252115 0.636315
O O12 0.913722 0.166303 0.616638
O O13 0.854599 0.880294 0.500000
#
# Coordination Sequence:
#
# PCOD9512667 Si02
#       6
#    32  16  32  16  16  32
#     4  11  22  40  67  95 127 170 220 265 309 370
#     4  10  20  36  59  90 131 167 200 255 319 371
#     4  11  21  40  65  98 123 164 212 267 314 377
#     4  11  23  44  65  94 122 165 207 264 316 377
#     4  10  22  42  72  93 118 153 216 269 320 373
#     4  12  25  42  63  93 136 174 210 259 321 385
#
# _framework density 19.188848
#
# number of rings (size 3 to 8) (size 9 to 14) (size 15 to 20)
#    0.000    1.000    5.556    2.333    0.000    4.000 
#    0.000   11.111    0.000    0.000    0.000    0.000 
#    0.000    0.000    0.000    0.000    0.000    0.000 
#
# Total GULP energy -200990.376772 kJ/mol
# GULP energy per Si atom -5583.066021 kJ/mol
# Density = 1.914517 g / cm^3
# Si number density = 19.188848 Si / 1000 Ang^3
#
#
#
# Elastic Constant Matrix: (Units=GPa)
#
#
# Indices 1 2 3 4 5 6 
#
# 1 160.8767 70.6335 50.6969 0.0000 0.0000 0.0000
# 2 70.6335 144.2821 42.0631 0.0000 0.0000 0.0000
# 3 50.6969 42.0631 122.5033 0.0000 0.0000 0.0000
# 4 0.0000 0.0000 0.0000 23.7861 0.0000 0.0000
# 5 0.0000 0.0000 0.0000 0.0000 31.6107 0.0000
# 6 0.0000 0.0000 0.0000 0.0000 0.0000 -1.2745
#
#
#
# Elastic Compliance Matrix: (Units=1/GPa)
#
#
# Indices 1 2 3 4 5 6 
#
# 1 0.008469 -0.003472 -0.002313 0.000000 0.000000 0.000000
# 2 -0.003472 0.009125 -0.001696 0.000000 0.000000 0.000000
# 3 -0.002313 -0.001696 0.009703 0.000000 0.000000 0.000000
# 4 0.000000 0.000000 0.000000 0.042041 0.000000 0.000000
# 5 0.000000 0.000000 0.000000 0.000000 0.031635 0.000000
# 6 0.000000 0.000000 0.000000 0.000000 0.000000 -0.784643
#
#
# Mechanical properties :
#
#
# Convention : Reuss Voigt Hill
#
# Bulk Modulus (GPa) = 81.07148 83.82767 82.44957
# Shear Modulus (GPa) = -7.52336 28.44238 10.45951
#
# Velocity S-wave (km/s) = -1.98222 3.85416 2.33723
# Velocity P-wave (km/s) = 6.09114 7.97411 7.09537
#
# Compressibility (1/GPa) = 0.01233479
#
# Stress axis : x y z
#
# Youngs Moduli (GPa) = 118.07685 109.58840 103.06458
#
# Poissons Ratio (x) = 0.38047 0.23836
# Poissons Ratio (y) = 0.40994 0.17484
# Poissons Ratio (z) = 0.27308 0.18591
#
# Static dielectric constant tensor:
#      x y z
#    x 1.657510 0.000000 0.000000 
#    y 0.000000 1.677510 0.000000 
#    z 0.000000 0.000000 1.699150 
# 
# From -- ./inp_files/21787.got.cif
#   From: 2010.05.17/outbox.cif.g08.bks.cpg/sg69_11_cif.got.tgz:21787.got - 2010.06.03 19:29:58.
