data_PCOD9512762
_publ_section_title
;
Structure prediction by ZEFSAII (Michael W. Deem and Ramdas Pophale) SiO2 
 PCOD9512762
Probable space group: F M M M
;
_chemical_formula_sum "Si O2"
_cell_formula_units_Z 144
_cell_length_a 15.359303
_cell_length_b 31.096289
_cell_length_c 14.986444
_cell_angle_alpha 90.000000
_cell_angle_beta 90.000000
_cell_angle_gamma 90.000000
_cell_volume 7157.785293
_symmetry_space_group_name_H-M "F M M M"
_symmetry_group_IT_number 69
_symmetry_cell_setting 'orthorhombic'
loop_
_space_group_symop_operation_xyz
x,y,z
-x,-y,z
x,-y,-z
-x,y,-z
-x,-y,-z
x,y,-z
-x,y,z
x,-y,z
x,1/2+y,1/2+z
-x,1/2-y,1/2+z
x,1/2-y,1/2-z
-x,1/2+y,1/2-z
-x,1/2-y,1/2-z
x,1/2+y,1/2-z
-x,1/2+y,1/2+z
x,1/2-y,1/2+z
1/2+x,y,1/2+z
1/2-x,-y,1/2+z
1/2+x,-y,1/2-z
1/2-x,y,1/2-z
1/2-x,-y,1/2-z
1/2+x,y,1/2-z
1/2-x,y,1/2+z
1/2+x,-y,1/2+z
1/2+x,1/2+y,z
1/2-x,1/2-y,z
1/2+x,1/2-y,-z
1/2-x,1/2+y,-z
1/2-x,1/2-y,-z
1/2+x,1/2+y,-z
1/2-x,1/2+y,z
1/2+x,1/2-y,z
loop_
_atom_site_type_symbol
_atom_site_label
_atom_site_fract_x
_atom_site_fract_y
_atom_site_fract_z
Si Si1 0.247278 0.049349 0.357669
Si Si2 0.000000 0.232971 0.650781
Si Si3 0.191830 0.791538 0.392214
Si Si4 0.599312 0.448423 0.500000
Si Si5 0.000000 0.671633 0.398791
Si Si6 0.677479 0.362219 0.105598
O O1 0.250000 0.049880 0.250000
O O2 0.158015 0.061353 0.411779
O O3 0.312425 0.087111 0.384405
O O4 0.267837 0.000000 0.384534
O O5 0.000000 0.250000 0.750000
O O6 0.091315 0.209704 0.635109
O O7 0.000000 0.277192 0.595158
O O8 0.190720 0.790070 0.500000
O O9 0.250000 0.750000 0.363489
O O10 0.241189 0.834416 0.360372
O O11 0.591081 0.500000 0.500000
O O12 0.500000 0.430707 0.500000
O O13 0.088173 0.655491 0.354086
O O14 0.000000 0.653859 0.500000
O O15 0.675623 0.352368 0.000000
#
# Coordination Sequence:
#
# PCOD9512762 Si02
#       6
#    32  16  32  16  16  32
#     4  10  21  39  63  91 127 167 209 264 325 378
#     4  12  24  36  54  87 124 159 192 247 307 361
#     4  10  20  38  62  82 110 152 203 245 290 353
#     4   9  18  38  66  89 120 167 217 263 317 391
#     4  10  20  38  61  82 116 157 208 236 302 383
#     4  10  20  37  62  88 114 161 206 258 312 371
#
# _framework density 20.117954999999998
#
# number of rings (size 3 to 8) (size 9 to 14) (size 15 to 20)
#    0.000    1.889    3.333    1.000    0.000    2.222 
#    4.000    0.556    0.000    2.000    0.000    0.000 
#    0.000    0.000    0.000    0.000    0.000    0.000 
#
# Total GULP energy -200597.228347 kJ/mol
# GULP energy per Si atom -5572.145232 kJ/mol
# Density = 2.007217 g / cm^3
# Si number density = 20.117955 Si / 1000 Ang^3
#
#
#
# Elastic Constant Matrix: (Units=GPa)
#
#
# Indices 1 2 3 4 5 6 
#
# 1 182.7099 73.6865 33.2071 0.0000 0.0000 0.0000
# 2 73.6865 85.2997 1.5261 0.0000 0.0000 0.0000
# 3 33.2071 1.5261 82.4541 0.0000 0.0000 0.0000
# 4 0.0000 0.0000 0.0000 11.2900 0.0000 0.0000
# 5 0.0000 0.0000 0.0000 0.0000 -7.7305 0.0000
# 6 0.0000 0.0000 0.0000 0.0000 0.0000 14.2171
#
#
#
# Elastic Compliance Matrix: (Units=1/GPa)
#
#
# Indices 1 2 3 4 5 6 
#
# 1 0.009370 -0.008030 -0.003625 0.000000 0.000000 0.000000
# 2 -0.008030 0.018608 0.002889 0.000000 0.000000 0.000000
# 3 -0.003625 0.002889 0.013534 0.000000 0.000000 0.000000
# 4 0.000000 0.000000 0.000000 0.088574 0.000000 0.000000
# 5 0.000000 0.000000 0.000000 0.000000 -0.129358 0.000000
# 6 0.000000 0.000000 0.000000 0.000000 0.000000 0.070338
#
#
# Mechanical properties :
#
#
# Convention : Reuss Voigt Hill
#
# Bulk Modulus (GPa) = 41.69777 63.03367 52.36572
# Shear Modulus (GPa) = 51.76408 19.69159 35.72784
#
# Velocity S-wave (km/s) = 5.07801 3.13198 4.21874
# Velocity P-wave (km/s) = 7.42652 6.66927 7.05806
#
# Compressibility (1/GPa) = 0.02398210
#
# Stress axis : x y z
#
# Youngs Moduli (GPa) = 106.71866 53.73957 73.88549
#
# Poissons Ratio (x) = 0.43152 0.26785
# Poissons Ratio (y) = 0.85693 -0.21349
# Poissons Ratio (z) = 0.38687 -0.15528
#
# Static dielectric constant tensor:
#      x y z
#    x 1.755080 0.000000 0.000000 
#    y 0.000000 1.697130 0.000000 
#    z 0.000000 0.000000 1.742820 
# 
# From -- ./inp_files/21818.got.cif
#   From: 2010.05.17/outbox.cif.g08.bks.cpg/sg69_11_cif.got.tgz:21818.got - 2010.06.03 19:29:58.
