data_PCOD9512605
_publ_section_title
;
Structure prediction by ZEFSAII (Michael W. Deem and Ramdas Pophale) SiO2 
 PCOD9512605
Probable space group: F M M M
;
_chemical_formula_sum "Si O2"
_cell_formula_units_Z 144
_cell_length_a 25.880904
_cell_length_b 20.196609
_cell_length_c 11.649840
_cell_angle_alpha 90.000000
_cell_angle_beta 90.000000
_cell_angle_gamma 90.000000
_cell_volume 6089.447076
_symmetry_space_group_name_H-M "F M M M"
_symmetry_group_IT_number 69
_symmetry_cell_setting 'orthorhombic'
loop_
_space_group_symop_operation_xyz
x,y,z
-x,-y,z
x,-y,-z
-x,y,-z
-x,-y,-z
x,y,-z
-x,y,z
x,-y,z
x,1/2+y,1/2+z
-x,1/2-y,1/2+z
x,1/2-y,1/2-z
-x,1/2+y,1/2-z
-x,1/2-y,1/2-z
x,1/2+y,1/2-z
-x,1/2+y,1/2+z
x,1/2-y,1/2+z
1/2+x,y,1/2+z
1/2-x,-y,1/2+z
1/2+x,-y,1/2-z
1/2-x,y,1/2-z
1/2-x,-y,1/2-z
1/2+x,y,1/2-z
1/2-x,y,1/2+z
1/2+x,-y,1/2+z
1/2+x,1/2+y,z
1/2-x,1/2-y,z
1/2+x,1/2-y,-z
1/2-x,1/2+y,-z
1/2-x,1/2-y,-z
1/2+x,1/2+y,-z
1/2-x,1/2+y,z
1/2+x,1/2-y,z
loop_
_atom_site_type_symbol
_atom_site_label
_atom_site_fract_x
_atom_site_fract_y
_atom_site_fract_z
Si Si1 0.938651 0.569609 0.500000
Si Si2 0.558870 0.172383 0.308183
Si Si3 0.405649 0.074048 0.136050
Si Si4 0.166194 0.218494 0.871217
Si Si5 0.807694 0.925899 0.798267
O O1 0.912391 0.500000 0.500000
O O2 0.928029 0.609503 0.612754
O O3 0.000000 0.562873 0.500000
O O4 0.500000 0.194346 0.329789
O O5 0.564078 0.137481 0.185083
O O6 0.603710 0.220792 0.352558
O O7 0.349322 0.077779 0.194763
O O8 0.427326 0.000000 0.165647
O O9 0.402003 0.077530 0.000000
O O10 0.186548 0.250000 0.750000
O O11 0.182692 0.141256 0.869095
O O12 0.178580 0.245473 0.000000
O O13 0.750000 0.922268 0.750000
O O14 0.813372 0.000000 0.850422
#
# Coordination Sequence:
#
# PCOD9512605 Si02
#       5
#    16  32  32  32  32
#     4   9  16  28  52  84 116 147 189 257 325 372
#     4  10  20  36  57  83 117 162 218 267 315 372
#     4   9  18  32  52  84 128 169 202 246 312 390
#     4  11  25  44  65  94 132 176 221 273 331 396
#     4   9  20  41  69 100 130 164 210 270 334 395
#
# _framework density 23.647466000000001
#
# number of rings (size 3 to 8) (size 9 to 14) (size 15 to 20)
#    0.000    2.333    1.111    0.667    0.000    8.444 
#    0.000    4.444    0.000    0.000    0.000    0.000 
#    0.000    0.000    0.000    0.000    0.000    0.000 
#
# Total GULP energy -200652.916629 kJ/mol
# GULP energy per Si atom -5573.692129 kJ/mol
# Density = 2.359364 g / cm^3
# Si number density = 23.647466 Si / 1000 Ang^3
#
#
#
# Elastic Constant Matrix: (Units=GPa)
#
#
# Indices 1 2 3 4 5 6 
#
# 1 102.0700 0.8155 -0.0855 0.0000 0.0000 0.0000
# 2 0.8155 108.4385 49.8281 0.0000 0.0000 0.0000
# 3 -0.0855 49.8281 147.8346 -0.0001 0.0000 0.0000
# 4 0.0000 0.0000 -0.0001 -30.6861 0.0000 0.0000
# 5 0.0000 0.0000 0.0000 0.0000 9.2980 0.0000
# 6 0.0000 0.0000 0.0000 0.0000 0.0000 5.8797
#
#
#
# Elastic Compliance Matrix: (Units=1/GPa)
#
#
# Indices 1 2 3 4 5 6 
#
# 1 0.009798 -0.000090 0.000036 0.000000 0.000000 0.000000
# 2 -0.000090 0.010913 -0.003678 0.000000 0.000000 0.000000
# 3 0.000036 -0.003678 0.008004 0.000000 0.000000 0.000000
# 4 0.000000 0.000000 0.000000 -0.032588 0.000000 0.000000
# 5 0.000000 0.000000 0.000000 0.000000 0.107550 0.000000
# 6 0.000000 0.000000 0.000000 0.000000 0.000000 0.170076
#
#
# Mechanical properties :
#
#
# Convention : Reuss Voigt Hill
#
# Bulk Modulus (GPa) = 47.05894 51.05101 49.05498
# Shear Modulus (GPa) = 17.34299 17.41733 17.38016
#
# Velocity S-wave (km/s) = 2.71107 2.71687 2.71397
# Velocity P-wave (km/s) = 5.45374 5.61045 5.53265
#
# Compressibility (1/GPa) = 0.02124995
#
# Stress axis : x y z
#
# Youngs Moduli (GPa) = 102.06217 91.63680 124.93624
#
# Poissons Ratio (x) = 0.00827 -0.00451
# Poissons Ratio (y) = 0.00921 0.45954
# Poissons Ratio (z) = -0.00368 0.33706
#
# Static dielectric constant tensor:
#      x y z
#    x 1.893530 0.000000 0.000000 
#    y 0.000000 2.052680 0.000000 
#    z 0.000000 0.000000 1.670510 
# 
# From -- ./inp_files/11339.got.cif
#   From: 2010.05.17/outbox.cif.g08.bks.cpg/sg69_6_cif.got.tgz:11339.got - 2010.06.03 19:29:58.
