data_PCOD9512487
_publ_section_title
;
Structure prediction by ZEFSAII (Michael W. Deem and Ramdas Pophale) SiO2 
 PCOD9512487
Probable space group: F M M M
;
_chemical_formula_sum "Si O2"
_cell_formula_units_Z 160
_cell_length_a 27.981856
_cell_length_b 10.755963
_cell_length_c 28.406481
_cell_angle_alpha 90.000000
_cell_angle_beta 90.000000
_cell_angle_gamma 90.000000
_cell_volume 8549.549940
_symmetry_space_group_name_H-M "F M M M"
_symmetry_group_IT_number 69
_symmetry_cell_setting 'orthorhombic'
loop_
_space_group_symop_operation_xyz
x,y,z
-x,-y,z
x,-y,-z
-x,y,-z
-x,-y,-z
x,y,-z
-x,y,z
x,-y,z
x,1/2+y,1/2+z
-x,1/2-y,1/2+z
x,1/2-y,1/2-z
-x,1/2+y,1/2-z
-x,1/2-y,1/2-z
x,1/2+y,1/2-z
-x,1/2+y,1/2+z
x,1/2-y,1/2+z
1/2+x,y,1/2+z
1/2-x,-y,1/2+z
1/2+x,-y,1/2-z
1/2-x,y,1/2-z
1/2-x,-y,1/2-z
1/2+x,y,1/2-z
1/2-x,y,1/2+z
1/2+x,-y,1/2+z
1/2+x,1/2+y,z
1/2-x,1/2-y,z
1/2+x,1/2-y,-z
1/2-x,1/2+y,-z
1/2-x,1/2-y,-z
1/2+x,1/2+y,-z
1/2-x,1/2+y,z
1/2+x,1/2-y,z
loop_
_atom_site_type_symbol
_atom_site_label
_atom_site_fract_x
_atom_site_fract_y
_atom_site_fract_z
Si Si1 0.724859 0.365970 0.198411
Si Si2 0.111626 0.142004 0.786148
Si Si3 0.215344 0.139221 0.442808
Si Si4 0.604770 0.642616 0.556717
Si Si5 0.443143 0.358968 0.884834
O O1 0.732429 0.500000 0.175680
O O2 0.750000 0.373037 0.250000
O O3 0.750000 0.250000 0.174353
O O4 0.668511 0.345839 0.204488
O O5 0.097662 0.250000 0.750000
O O6 0.083353 0.154997 0.834858
O O7 0.103943 0.000000 0.768384
O O8 0.214614 0.139306 0.500000
O O9 0.250000 0.250000 0.428571
O O10 0.160268 0.158418 0.428359
O O11 0.230468 0.000000 0.428689
O O12 0.602189 0.653110 0.500000
O O13 0.590620 0.500000 0.568809
O O14 0.574477 0.750112 0.581023
O O15 0.500000 0.350952 0.878366
O O16 0.432128 0.500000 0.902287
#
# Coordination Sequence:
#
# PCOD9512487 Si02
#       5
#    32  32  32  32  32
#     4   9  15  26  48  77 105 137 173 212 260 316
#     4  10  20  35  56  81 110 144 182 225 273 328
#     4   8  14  26  47  76 108 140 174 214 263 321
#     4   9  19  37  60  85 113 146 187 237 288 335
#     4  10  23  41  57  78 111 147 187 238 291 344
#
# _framework density 18.714435999999999
#
# number of rings (size 3 to 8) (size 9 to 14) (size 15 to 20)
#    0.000    2.800    2.000    1.200    0.000    3.200 
#    0.000    5.000    0.000    4.800    0.000    0.000 
#    0.000    0.000    0.000    0.000    0.000    0.000 
#
# Total GULP energy -222973.583803 kJ/mol
# GULP energy per Si atom -5574.339595 kJ/mol
# Density = 1.867184 g / cm^3
# Si number density = 18.714436 Si / 1000 Ang^3
#
#
#
# Elastic Constant Matrix: (Units=GPa)
#
#
# Indices 1 2 3 4 5 6 
#
# 1 90.3312 79.6932 38.0044 0.0000 0.0000 0.0000
# 2 79.6932 199.0175 56.8407 0.0000 0.0000 0.0000
# 3 38.0044 56.8407 59.0650 0.0000 0.0000 0.0000
# 4 0.0000 0.0000 0.0000 13.7531 0.0000 0.0000
# 5 0.0000 0.0000 0.0000 0.0000 26.9739 0.0000
# 6 0.0000 0.0000 0.0000 0.0000 0.0000 31.2849
#
#
#
# Elastic Compliance Matrix: (Units=1/GPa)
#
#
# Indices 1 2 3 4 5 6 
#
# 1 0.018870 -0.005638 -0.006716 0.000000 0.000000 0.000000
# 2 -0.005638 0.008614 -0.004662 0.000000 0.000000 0.000000
# 3 -0.006716 -0.004662 0.025738 0.000000 0.000000 0.000000
# 4 0.000000 0.000000 0.000000 0.072711 0.000000 0.000000
# 5 0.000000 0.000000 0.000000 0.000000 0.037073 0.000000
# 6 0.000000 0.000000 0.000000 0.000000 0.000000 0.031964
#
#
# Mechanical properties :
#
#
# Convention : Reuss Voigt Hill
#
# Bulk Modulus (GPa) = 52.10931 77.49891 64.80411
# Shear Modulus (GPa) = 21.24067 25.99407 23.61737
#
# Velocity S-wave (km/s) = 3.37261 3.73095 3.55630
# Velocity P-wave (km/s) = 6.56284 7.74992 7.18095
#
# Compressibility (1/GPa) = 0.01919043
#
# Stress axis : x y z
#
# Youngs Moduli (GPa) = 52.99421 116.09340 38.85337
#
# Poissons Ratio (x) = 0.65454 0.26093
# Poissons Ratio (y) = 0.29879 0.18112
# Poissons Ratio (z) = 0.35590 0.54119
#
# Static dielectric constant tensor:
#      x y z
#    x 1.620570 0.000000 0.000000 
#    y 0.000000 1.695540 0.000000 
#    z 0.000000 0.000000 1.643100 
# 
# From -- ./inp_files/40267.got.cif
#   From: 2010.05.17/outbox.cif.g08.bks.cpg/sg69_21_cif.got.tgz:40267.got - 2010.06.03 19:29:58.
