data_PCOD9512302
_publ_section_title
;
Structure prediction by ZEFSAII (Michael W. Deem and Ramdas Pophale) SiO2 
 PCOD9512302
Probable space group: F M M M
;
_chemical_formula_sum "Si O2"
_cell_formula_units_Z 112
_cell_length_a 9.002190
_cell_length_b 14.933696
_cell_length_c 37.600443
_cell_angle_alpha 90.000000
_cell_angle_beta 90.000000
_cell_angle_gamma 90.000000
_cell_volume 5054.851982
_symmetry_space_group_name_H-M "F M M M"
_symmetry_group_IT_number 69
_symmetry_cell_setting 'orthorhombic'
loop_
_space_group_symop_operation_xyz
x,y,z
-x,-y,z
x,-y,-z
-x,y,-z
-x,-y,-z
x,y,-z
-x,y,z
x,-y,z
x,1/2+y,1/2+z
-x,1/2-y,1/2+z
x,1/2-y,1/2-z
-x,1/2+y,1/2-z
-x,1/2-y,1/2-z
x,1/2+y,1/2-z
-x,1/2+y,1/2+z
x,1/2-y,1/2+z
1/2+x,y,1/2+z
1/2-x,-y,1/2+z
1/2+x,-y,1/2-z
1/2-x,y,1/2-z
1/2-x,-y,1/2-z
1/2+x,y,1/2-z
1/2-x,y,1/2+z
1/2+x,-y,1/2+z
1/2+x,1/2+y,z
1/2-x,1/2-y,z
1/2+x,1/2-y,-z
1/2-x,1/2+y,-z
1/2-x,1/2-y,-z
1/2+x,1/2+y,-z
1/2-x,1/2+y,z
1/2+x,1/2-y,z
loop_
_atom_site_type_symbol
_atom_site_label
_atom_site_fract_x
_atom_site_fract_y
_atom_site_fract_z
Si Si1 0.322400 0.151554 0.785129
Si Si2 0.334564 0.105474 0.643080
Si Si3 0.170381 0.890139 0.572663
Si Si4 0.170227 0.390523 0.500000
O O1 0.500000 0.153428 0.781898
O O2 0.250000 0.107280 0.750000
O O3 0.250000 0.250000 0.785937
O O4 0.269735 0.113002 0.822624
O O5 0.500000 0.143805 0.649897
O O6 0.259892 0.141570 0.607291
O O7 0.351665 0.000000 0.636780
O O8 0.246811 0.862656 0.535890
O O9 0.000000 0.860927 0.574281
O O10 0.169920 0.000000 0.572981
O O11 0.169464 0.500000 0.500000
O O12 0.000000 0.360516 0.500000
#
# Coordination Sequence:
#
# PCOD9512302 Si02
#       4
#    32  32  32  16
#     4  11  22  38  58  78 102 132 169 210 253 303
#     4  10  20  34  52  76 106 137 170 210 256 304
#     4   9  16  26  41  64  95 130 167 207 251 298
#     4   9  15  23  37  59  90 129 168 205 248 297
#
# _framework density 22.156929999999999
#
# number of rings (size 3 to 8) (size 9 to 14) (size 15 to 20)
#    0.000    2.143    0.000    5.571    0.000    7.429 
#    0.000    0.000    0.000    0.000    0.000    1.000 
#    0.000    0.000    0.000    0.000    0.000    0.000 
#
# Total GULP energy -156437.770404 kJ/mol
# GULP energy per Si atom -5587.063229 kJ/mol
# Density = 2.210650 g / cm^3
# Si number density = 22.156930 Si / 1000 Ang^3
#
#
#
# Elastic Constant Matrix: (Units=GPa)
#
#
# Indices 1 2 3 4 5 6 
#
# 1 244.5396 10.9073 119.5574 0.0000 0.0000 0.0000
# 2 10.9073 38.3619 6.9592 0.0000 0.0000 0.0000
# 3 119.5574 6.9592 221.5567 0.0000 0.0000 0.0000
# 4 0.0000 0.0000 0.0000 14.9545 0.0000 0.0000
# 5 0.0000 0.0000 0.0000 0.0000 11.5256 0.0000
# 6 0.0000 0.0000 0.0000 0.0000 0.0000 11.9266
#
#
#
# Elastic Compliance Matrix: (Units=1/GPa)
#
#
# Indices 1 2 3 4 5 6 
#
# 1 0.005597 -0.001049 -0.002987 0.000000 0.000000 0.000000
# 2 -0.001049 0.026414 -0.000263 0.000000 0.000000 0.000000
# 3 -0.002987 -0.000263 0.006134 0.000000 0.000000 0.000000
# 4 0.000000 0.000000 0.000000 0.066869 0.000000 0.000000
# 5 0.000000 0.000000 0.000000 0.000000 0.086763 0.000000
# 6 0.000000 0.000000 0.000000 0.000000 0.000000 0.083846
#
#
# Mechanical properties :
#
#
# Convention : Reuss Voigt Hill
#
# Bulk Modulus (GPa) = 33.84755 86.58957 60.21856
# Shear Modulus (GPa) = 17.00272 32.15029 24.57651
#
# Velocity S-wave (km/s) = 2.77316 3.81337 3.33408
# Velocity P-wave (km/s) = 5.05602 7.65206 6.48527
#
# Compressibility (1/GPa) = 0.02954424
#
# Stress axis : x y z
#
# Youngs Moduli (GPa) = 178.68244 37.85915 163.03422
#
# Poissons Ratio (x) = 0.03973 0.48699
# Poissons Ratio (y) = 0.18750 0.04294
# Poissons Ratio (z) = 0.53374 0.00997
#
# Static dielectric constant tensor:
#      x y z
#    x 1.779570 0.000000 0.000000 
#    y 0.000000 1.918070 0.000000 
#    z 0.000000 0.000000 1.813280 
# 
# From -- ./inp_files/3966.got.cif
#   From: 2010.05.17/outbox.cif.g08.bks.cpg/sg69_2_cif.got.tgz:3966.got - 2010.06.03 19:29:58.
