data_PCOD9512735
_publ_section_title
;
Structure prediction by ZEFSAII (Michael W. Deem and Ramdas Pophale) SiO2 
 PCOD9512735
Probable space group: F M M M
;
_chemical_formula_sum "Si O2"
_cell_formula_units_Z 160
_cell_length_a 14.849676
_cell_length_b 16.245966
_cell_length_c 29.020019
_cell_angle_alpha 90.000000
_cell_angle_beta 90.000000
_cell_angle_gamma 90.000000
_cell_volume 7001.002141
_symmetry_space_group_name_H-M "F M M M"
_symmetry_group_IT_number 69
_symmetry_cell_setting 'orthorhombic'
loop_
_space_group_symop_operation_xyz
x,y,z
-x,-y,z
x,-y,-z
-x,y,-z
-x,-y,-z
x,y,-z
-x,y,z
x,-y,z
x,1/2+y,1/2+z
-x,1/2-y,1/2+z
x,1/2-y,1/2-z
-x,1/2+y,1/2-z
-x,1/2-y,1/2-z
x,1/2+y,1/2-z
-x,1/2+y,1/2+z
x,1/2-y,1/2+z
1/2+x,y,1/2+z
1/2-x,-y,1/2+z
1/2+x,-y,1/2-z
1/2-x,y,1/2-z
1/2-x,-y,1/2-z
1/2+x,y,1/2-z
1/2-x,y,1/2+z
1/2+x,-y,1/2+z
1/2+x,1/2+y,z
1/2-x,1/2-y,z
1/2+x,1/2-y,-z
1/2-x,1/2+y,-z
1/2-x,1/2-y,-z
1/2+x,1/2+y,-z
1/2-x,1/2+y,z
1/2+x,1/2-y,z
loop_
_atom_site_type_symbol
_atom_site_label
_atom_site_fract_x
_atom_site_fract_y
_atom_site_fract_z
Si Si1 0.599162 0.644533 0.824720
Si Si2 0.396982 0.094139 0.576541
Si Si3 0.392653 0.902816 0.226891
Si Si4 0.297537 0.599719 0.551318
Si Si5 0.661819 0.307423 0.641097
O O1 0.500000 0.608625 0.816890
O O2 0.632293 0.596318 0.869559
O O3 0.640767 0.639737 0.774158
O O4 0.593061 0.737496 0.842729
O O5 0.500000 0.128557 0.572199
O O6 0.307875 0.128843 0.552489
O O7 0.403918 0.000000 0.561058
O O8 0.500000 0.884918 0.219620
O O9 0.339877 0.873056 0.181984
O O10 0.382678 0.000000 0.233157
O O11 0.333424 0.614959 0.500000
O O12 0.298712 0.500000 0.559112
O O13 0.347482 0.647576 0.592317
O O14 0.750000 0.250000 0.639985
#
# Coordination Sequence:
#
# PCOD9512735 Si02
#       5
#    32  32  32  32  32
#     4  10  20  37  59  86 119 156 196 241 293 350
#     4   9  17  33  57  84 115 151 195 244 293 350
#     4  10  22  41  65  88 117 164 214 252 287 344
#     4  10  22  41  62  84 114 155 202 250 301 358
#     4  12  23  38  56  90 124 159 192 240 309 363
#
# _framework density 22.853871000000002
#
# number of rings (size 3 to 8) (size 9 to 14) (size 15 to 20)
#    0.000    1.800    2.000    2.400    0.000    6.400 
#    0.000    3.000    0.000    2.400    0.000    7.000 
#    0.000    0.000    0.000    0.000    0.000    0.000 
#
# Total GULP energy -222943.675200 kJ/mol
# GULP energy per Si atom -5573.591880 kJ/mol
# Density = 2.280185 g / cm^3
# Si number density = 22.853871 Si / 1000 Ang^3
#
#
#
# Elastic Constant Matrix: (Units=GPa)
#
#
# Indices 1 2 3 4 5 6 
#
# 1 18.3925 25.9345 24.0240 0.0000 0.0000 0.0000
# 2 25.9345 82.6324 62.6065 0.0000 0.0000 0.0000
# 3 24.0240 62.6065 206.4237 0.0000 0.0000 0.0000
# 4 0.0000 0.0000 0.0000 34.2787 0.0000 0.0000
# 5 0.0000 0.0000 0.0000 0.0000 16.3878 0.0000
# 6 0.0000 0.0000 0.0000 0.0000 0.0000 23.0292
#
#
#
# Elastic Compliance Matrix: (Units=1/GPa)
#
#
# Indices 1 2 3 4 5 6 
#
# 1 0.098693 -0.028918 -0.002716 0.000000 0.000000 0.000000
# 2 -0.028918 0.024185 -0.003970 0.000000 0.000000 0.000000
# 3 -0.002716 -0.003970 0.006364 0.000000 0.000000 0.000000
# 4 0.000000 0.000000 0.000000 0.029173 0.000000 0.000000
# 5 0.000000 0.000000 0.000000 0.000000 0.061021 0.000000
# 6 0.000000 0.000000 0.000000 0.000000 0.000000 0.043423
#
#
# Mechanical properties :
#
#
# Convention : Reuss Voigt Hill
#
# Bulk Modulus (GPa) = 17.23047 59.17541 38.20294
# Shear Modulus (GPa) = 14.14783 27.73138 20.93960
#
# Velocity S-wave (km/s) = 2.49078 3.48720 3.03023
# Velocity P-wave (km/s) = 3.97841 6.49332 5.38475
#
# Compressibility (1/GPa) = 0.05803673
#
# Stress axis : x y z
#
# Youngs Moduli (GPa) = 10.13243 41.34725 157.12325
#
# Poissons Ratio (x) = 1.19567 0.42668
# Poissons Ratio (y) = 0.29301 0.62373
# Poissons Ratio (z) = 0.02752 0.16414
#
# Static dielectric constant tensor:
#      x y z
#    x 1.968240 0.000000 0.000000 
#    y 0.000000 1.874550 0.000000 
#    z 0.000000 0.000000 1.894670 
# 
# From -- ./inp_files/41748.got.cif
#   From: 2010.05.17/outbox.cif.g08.bks.cpg/sg69_21_cif.got.tgz:41748.got - 2010.06.03 19:29:58.
