data_PCOD9512533
_publ_section_title
;
Structure prediction by ZEFSAII (Michael W. Deem and Ramdas Pophale) SiO2 
 PCOD9512533
Probable space group: F M M M
;
_chemical_formula_sum "Si O2"
_cell_formula_units_Z 88
_cell_length_a 9.705538
_cell_length_b 18.736069
_cell_length_c 27.120381
_cell_angle_alpha 90.000000
_cell_angle_beta 90.000000
_cell_angle_gamma 90.000000
_cell_volume 4931.668519
_symmetry_space_group_name_H-M "F M M M"
_symmetry_group_IT_number 69
_symmetry_cell_setting 'orthorhombic'
loop_
_space_group_symop_operation_xyz
x,y,z
-x,-y,z
x,-y,-z
-x,y,-z
-x,-y,-z
x,y,-z
-x,y,z
x,-y,z
x,1/2+y,1/2+z
-x,1/2-y,1/2+z
x,1/2-y,1/2-z
-x,1/2+y,1/2-z
-x,1/2-y,1/2-z
x,1/2+y,1/2-z
-x,1/2+y,1/2+z
x,1/2-y,1/2+z
1/2+x,y,1/2+z
1/2-x,-y,1/2+z
1/2+x,-y,1/2-z
1/2-x,y,1/2-z
1/2-x,-y,1/2-z
1/2+x,y,1/2-z
1/2-x,y,1/2+z
1/2+x,-y,1/2+z
1/2+x,1/2+y,z
1/2-x,1/2-y,z
1/2+x,1/2-y,-z
1/2-x,1/2+y,-z
1/2-x,1/2-y,-z
1/2+x,1/2+y,-z
1/2-x,1/2+y,z
1/2+x,1/2-y,z
loop_
_atom_site_type_symbol
_atom_site_label
_atom_site_fract_x
_atom_site_fract_y
_atom_site_fract_z
Si Si1 0.842780 0.685065 0.153633
Si Si2 0.339611 0.915863 0.597297
Si Si3 0.837798 0.821913 0.000000
Si Si4 0.750000 0.750000 0.750000
O O1 0.750000 0.750000 0.132034
O O2 0.763901 0.613908 0.138331
O O3 0.835949 0.701333 0.212169
O O4 0.000000 0.687199 0.136622
O O5 0.500000 0.903094 0.611399
O O6 0.311402 0.870891 0.547865
O O7 0.323165 0.000000 0.588624
O O8 0.750000 0.750000 0.000000
O O9 0.000000 0.803584 0.000000
#
# Coordination Sequence:
#
# PCOD9512533 Si02
#       4
#    32  32  16   8
#     4  10  20  35  58  84 110 143 186 233 279 330
#     4  10  21  37  57  82 116 153 187 227 276 330
#     4  10  21  37  57  83 113 150 191 226 270 326
#     4   8  22  36  60  82 110 144 184 236 282 334
#
# _framework density 17.843858999999998
#
# number of rings (size 3 to 8) (size 9 to 14) (size 15 to 20)
#    1.091    1.091    0.000    3.273    0.000    7.273 
#    0.000    0.909    0.000    3.273    0.000    0.000 
#    0.000    0.000    0.000    0.000    0.000    0.000 
#
# Total GULP energy -122551.449119 kJ/mol
# GULP energy per Si atom -5570.520414 kJ/mol
# Density = 1.780325 g / cm^3
# Si number density = 17.843859 Si / 1000 Ang^3
#
#
#
# Elastic Constant Matrix: (Units=GPa)
#
#
# Indices 1 2 3 4 5 6 
#
# 1 124.0682 78.1815 48.5233 0.0000 0.0000 0.0000
# 2 78.1815 120.3071 42.7200 0.0000 0.0000 0.0000
# 3 48.5233 42.7200 77.9066 0.0000 0.0000 0.0000
# 4 0.0000 0.0000 0.0000 23.7713 0.0000 0.0000
# 5 0.0000 0.0000 0.0000 0.0000 11.5900 0.0000
# 6 0.0000 0.0000 0.0000 0.0000 0.0000 28.9418
#
#
#
# Elastic Compliance Matrix: (Units=1/GPa)
#
#
# Indices 1 2 3 4 5 6 
#
# 1 0.015062 -0.008018 -0.004985 0.000000 0.000000 0.000000
# 2 -0.008018 0.014590 -0.003007 0.000000 0.000000 0.000000
# 3 -0.004985 -0.003007 0.017589 0.000000 0.000000 0.000000
# 4 0.000000 0.000000 0.000000 0.042068 0.000000 0.000000
# 5 0.000000 0.000000 0.000000 0.000000 0.086281 0.000000
# 6 0.000000 0.000000 0.000000 0.000000 0.000000 0.034552
#
#
# Mechanical properties :
#
#
# Convention : Reuss Voigt Hill
#
# Bulk Modulus (GPa) = 65.69003 73.45907 69.57455
# Shear Modulus (GPa) = 20.22367 23.05110 21.63738
#
# Velocity S-wave (km/s) = 3.37021 3.59809 3.48601
# Velocity P-wave (km/s) = 7.21374 7.64976 7.43495
#
# Compressibility (1/GPa) = 0.01522301
#
# Stress axis : x y z
#
# Youngs Moduli (GPa) = 66.39131 68.53884 56.85344
#
# Poissons Ratio (x) = 0.54956 0.28339
# Poissons Ratio (y) = 0.53234 0.17093
# Poissons Ratio (z) = 0.33093 0.20606
#
# Static dielectric constant tensor:
#      x y z
#    x 1.609710 0.000000 0.000000 
#    y 0.000000 1.599230 0.000000 
#    z 0.000000 0.000000 1.640320 
# 
# From -- ./inp_files/44189.got.cif
#   From: 2010.05.17/outbox.cif.g08.bks.cpg/sg69_23_cif.got.tgz:44189.got - 2010.06.03 19:29:58.
