data_PCOD9512910
_publ_section_title
;
Structure prediction by ZEFSAII (Michael W. Deem and Ramdas Pophale) SiO2 
 PCOD9512910
Probable space group: F M M M
;
_chemical_formula_sum "Si O2"
_cell_formula_units_Z 128
_cell_length_a 18.705584
_cell_length_b 27.991974
_cell_length_c 14.477487
_cell_angle_alpha 90.000000
_cell_angle_beta 90.000000
_cell_angle_gamma 90.000000
_cell_volume 7580.502257
_symmetry_space_group_name_H-M "F M M M"
_symmetry_group_IT_number 69
_symmetry_cell_setting 'orthorhombic'
loop_
_space_group_symop_operation_xyz
x,y,z
-x,-y,z
x,-y,-z
-x,y,-z
-x,-y,-z
x,y,-z
-x,y,z
x,-y,z
x,1/2+y,1/2+z
-x,1/2-y,1/2+z
x,1/2-y,1/2-z
-x,1/2+y,1/2-z
-x,1/2-y,1/2-z
x,1/2+y,1/2-z
-x,1/2+y,1/2+z
x,1/2-y,1/2+z
1/2+x,y,1/2+z
1/2-x,-y,1/2+z
1/2+x,-y,1/2-z
1/2-x,y,1/2-z
1/2-x,-y,1/2-z
1/2+x,y,1/2-z
1/2-x,y,1/2+z
1/2+x,-y,1/2+z
1/2+x,1/2+y,z
1/2-x,1/2-y,z
1/2+x,1/2-y,-z
1/2-x,1/2+y,-z
1/2-x,1/2-y,-z
1/2+x,1/2+y,-z
1/2-x,1/2+y,z
1/2+x,1/2-y,z
loop_
_atom_site_type_symbol
_atom_site_label
_atom_site_fract_x
_atom_site_fract_y
_atom_site_fract_z
Si Si1 0.084736 0.323896 0.602383
Si Si2 0.827508 0.735119 0.142499
Si Si3 0.915855 0.443383 0.891332
Si Si4 0.832709 0.134700 0.279007
O O1 0.101236 0.343780 0.500000
O O2 0.111594 0.268920 0.602491
O O3 0.124762 0.350148 0.686170
O O4 0.000000 0.325773 0.616907
O O5 0.825354 0.750000 0.250000
O O6 0.750000 0.750000 0.104098
O O7 0.838267 0.678581 0.147402
O O8 0.905449 0.500000 0.875967
O O9 0.866888 0.411439 0.825956
O O10 0.000000 0.432810 0.874882
O O11 0.901538 0.434007 0.000000
O O12 0.750000 0.129667 0.250000
#
# Coordination Sequence:
#
# PCOD9512910 Si02
#       4
#    32  32  32  32
#     4  10  21  34  50  76 110 147 183 220 261 311
#     4   9  16  33  48  72 105 140 177 213 257 301
#     4   9  20  39  60  82 106 133 174 230 282 322
#     4  11  20  34  56  81 107 142 180 217 270 324
#
# _framework density 16.885424
#
# number of rings (size 3 to 8) (size 9 to 14) (size 15 to 20)
#    0.000    2.250    5.000    1.500    0.000    8.500 
#    0.000    2.500    0.000    0.750    0.000    3.500 
#    0.000    0.000    0.000    0.000    0.000    0.000 
#
# Total GULP energy -178302.042020 kJ/mol
# GULP energy per Si atom -5571.938813 kJ/mol
# Density = 1.684699 g / cm^3
# Si number density = 16.885424 Si / 1000 Ang^3
#
#
#
# Elastic Constant Matrix: (Units=GPa)
#
#
# Indices 1 2 3 4 5 6 
#
# 1 111.5562 56.3015 67.0755 0.0000 0.0000 0.0000
# 2 56.3015 87.2594 51.5315 0.0000 0.0000 0.0000
# 3 67.0755 51.5315 98.6950 0.0000 0.0000 0.0000
# 4 0.0000 0.0000 0.0000 26.1018 0.0000 0.0000
# 5 0.0000 0.0000 0.0000 0.0000 94.3266 0.0000
# 6 0.0000 0.0000 0.0000 0.0000 0.0000 23.9806
#
#
#
# Elastic Compliance Matrix: (Units=1/GPa)
#
#
# Indices 1 2 3 4 5 6 
#
# 1 0.017104 -0.006030 -0.008475 0.000000 0.000000 0.000000
# 2 -0.006030 0.018695 -0.005663 0.000000 0.000000 0.000000
# 3 -0.008475 -0.005663 0.018849 0.000000 0.000000 0.000000
# 4 0.000000 0.000000 0.000000 0.038312 0.000000 0.000000
# 5 0.000000 0.000000 0.000000 0.000000 0.010601 0.000000
# 6 0.000000 0.000000 0.000000 0.000000 0.000000 0.041700
#
#
# Mechanical properties :
#
#
# Convention : Reuss Voigt Hill
#
# Bulk Modulus (GPa) = 69.87857 71.92528 70.90192
# Shear Modulus (GPa) = 26.26480 37.05527 31.66004
#
# Velocity S-wave (km/s) = 3.94823 4.68964 4.33482
# Velocity P-wave (km/s) = 7.89040 8.48600 8.19362
#
# Compressibility (1/GPa) = 0.01431054
#
# Stress axis : x y z
#
# Youngs Moduli (GPa) = 58.46736 53.48941 53.05301
#
# Poissons Ratio (x) = 0.32256 0.44964
# Poissons Ratio (y) = 0.35258 0.30044
# Poissons Ratio (z) = 0.49553 0.30291
#
# Static dielectric constant tensor:
#      x y z
#    x 1.564500 0.000000 0.000000 
#    y 0.000000 1.572870 0.000000 
#    z 0.000000 0.000000 1.598050 
# 
# From -- ./inp_files/24345.got.cif
#   From: 2010.05.17/outbox.cif.g08.bks.cpg/sg69_13_cif.got.tgz:24345.got - 2010.06.03 19:29:58.
