data_PCOD9512880
_publ_section_title
;
Structure prediction by ZEFSAII (Michael W. Deem and Ramdas Pophale) SiO2 
 PCOD9512880
Probable space group: F M M M
;
_chemical_formula_sum "Si O2"
_cell_formula_units_Z 192
_cell_length_a 30.966662
_cell_length_b 18.174592
_cell_length_c 17.515654
_cell_angle_alpha 90.000000
_cell_angle_beta 90.000000
_cell_angle_gamma 90.000000
_cell_volume 9857.923003
_symmetry_space_group_name_H-M "F M M M"
_symmetry_group_IT_number 69
_symmetry_cell_setting 'orthorhombic'
loop_
_space_group_symop_operation_xyz
x,y,z
-x,-y,z
x,-y,-z
-x,y,-z
-x,-y,-z
x,y,-z
-x,y,z
x,-y,z
x,1/2+y,1/2+z
-x,1/2-y,1/2+z
x,1/2-y,1/2-z
-x,1/2+y,1/2-z
-x,1/2-y,1/2-z
x,1/2+y,1/2-z
-x,1/2+y,1/2+z
x,1/2-y,1/2+z
1/2+x,y,1/2+z
1/2-x,-y,1/2+z
1/2+x,-y,1/2-z
1/2-x,y,1/2-z
1/2-x,-y,1/2-z
1/2+x,y,1/2-z
1/2-x,y,1/2+z
1/2+x,-y,1/2+z
1/2+x,1/2+y,z
1/2-x,1/2-y,z
1/2+x,1/2-y,-z
1/2-x,1/2+y,-z
1/2-x,1/2-y,-z
1/2+x,1/2+y,-z
1/2-x,1/2+y,z
1/2+x,1/2-y,z
loop_
_atom_site_type_symbol
_atom_site_label
_atom_site_fract_x
_atom_site_fract_y
_atom_site_fract_z
Si Si1 0.500000 0.397291 0.587987
Si Si2 0.909701 0.184015 0.810552
Si Si3 0.160423 0.910506 0.907337
Si Si4 0.752031 0.337536 0.658234
Si Si5 0.085225 0.080273 0.677532
Si Si6 0.332141 0.410894 0.588011
Si Si7 0.500000 0.761065 0.342685
O O1 0.500000 0.412786 0.500000
O O2 0.456007 0.425074 0.624506
O O3 0.500000 0.312163 0.608681
O O4 0.895406 0.250000 0.750000
O O5 0.874025 0.142200 0.862237
O O6 0.927120 0.124491 0.751153
O O7 0.952463 0.205686 0.857616
O O8 0.206389 0.878882 0.877198
O O9 0.156458 0.000000 0.891645
O O10 0.157273 0.902143 0.000000
O O11 0.750000 0.345109 0.750000
O O12 0.750000 0.250000 0.640494
O O13 0.709897 0.375981 0.624223
O O14 0.125328 0.114756 0.632758
O O15 0.099952 0.000000 0.702108
O O16 0.335826 0.389691 0.500000
O O17 0.329956 0.500000 0.591122
O O18 0.500000 0.750000 0.250000
#
# Coordination Sequence:
#
# PCOD9512880 Si02
#       7
#    16  32  32  32  32  32  16
#     4  12  23  37  60  92 130 166 201 258 330 387
#     4  11  22  42  70  93 127 169 220 271 316 390
#     4  11  26  46  68  99 136 174 218 276 340 396
#     4  11  25  41  64  94 127 167 219 273 324 387
#     4  11  22  38  62  92 125 165 208 255 318 389
#     4  10  22  40  60  85 121 163 205 254 314 383
#     4  10  20  42  62  90 127 165 217 269 317 375
#
# _framework density 19.476718999999999
#
# number of rings (size 3 to 8) (size 9 to 14) (size 15 to 20)
#    0.000    1.167    3.333    3.250    4.667    7.333 
#    0.000    1.250    0.000    1.000    0.000    0.000 
#    0.000    0.000    0.000    0.000    0.000    0.000 
#
# Total GULP energy -267593.809936 kJ/mol
# GULP energy per Si atom -5574.871040 kJ/mol
# Density = 1.943239 g / cm^3
# Si number density = 19.476719 Si / 1000 Ang^3
#
#
#
# Elastic Constant Matrix: (Units=GPa)
#
#
# Indices 1 2 3 4 5 6 
#
# 1 155.3624 57.3892 27.8154 0.0000 0.0000 0.0000
# 2 57.3892 94.6779 53.6179 0.0000 0.0000 0.0000
# 3 27.8154 53.6179 68.6383 0.0000 0.0000 0.0000
# 4 0.0000 0.0000 0.0000 -20.1127 0.0000 0.0000
# 5 0.0000 0.0000 0.0000 0.0000 222.8602 0.0000
# 6 0.0000 0.0000 0.0000 0.0000 0.0000 33.6907
#
#
#
# Elastic Compliance Matrix: (Units=1/GPa)
#
#
# Indices 1 2 3 4 5 6 
#
# 1 0.008333 -0.005629 0.001020 0.000000 0.000000 0.000000
# 2 -0.005629 0.022744 -0.015486 0.000000 0.000000 0.000000
# 3 0.001020 -0.015486 0.026253 0.000000 0.000000 0.000000
# 4 0.000000 0.000000 0.000000 -0.049720 0.000000 0.000000
# 5 0.000000 0.000000 0.000000 0.000000 0.004487 0.000000
# 6 0.000000 0.000000 0.000000 0.000000 0.000000 0.029682
#
#
# Mechanical properties :
#
#
# Convention : Reuss Voigt Hill
#
# Bulk Modulus (GPa) = 58.34038 66.25817 62.29927
# Shear Modulus (GPa) = 57.02461 59.27806 58.15133
#
# Velocity S-wave (km/s) = 5.41682 5.52281 5.47007
# Velocity P-wave (km/s) = 8.31514 8.64648 8.48242
#
# Compressibility (1/GPa) = 0.01714079
#
# Stress axis : x y z
#
# Youngs Moduli (GPa) = 120.00235 43.96776 38.09139
#
# Poissons Ratio (x) = 0.24749 -0.03886
# Poissons Ratio (y) = 0.67548 0.58987
# Poissons Ratio (z) = -0.12241 0.68087
#
# Static dielectric constant tensor:
#      x y z
#    x 1.644060 0.000000 0.000000 
#    y 0.000000 1.710580 0.000000 
#    z 0.000000 0.000000 1.718400 
# 
# From -- ./inp_files/27764.got.cif
#   From: 2010.05.17/outbox.cif.g08.bks.cpg/sg69_14_cif.got.tgz:27764.got - 2010.06.03 19:29:58.
