data_PCOD9512437
_publ_section_title
;
Structure prediction by ZEFSAII (Michael W. Deem and Ramdas Pophale) SiO2 
 PCOD9512437
Probable space group: F M M M
;
_chemical_formula_sum "Si O2"
_cell_formula_units_Z 160
_cell_length_a 9.600341
_cell_length_b 29.727268
_cell_length_c 33.322056
_cell_angle_alpha 90.000000
_cell_angle_beta 90.000000
_cell_angle_gamma 90.000000
_cell_volume 9509.845200
_symmetry_space_group_name_H-M "F M M M"
_symmetry_group_IT_number 69
_symmetry_cell_setting 'orthorhombic'
loop_
_space_group_symop_operation_xyz
x,y,z
-x,-y,z
x,-y,-z
-x,y,-z
-x,-y,-z
x,y,-z
-x,y,z
x,-y,z
x,1/2+y,1/2+z
-x,1/2-y,1/2+z
x,1/2-y,1/2-z
-x,1/2+y,1/2-z
-x,1/2-y,1/2-z
x,1/2+y,1/2-z
-x,1/2+y,1/2+z
x,1/2-y,1/2+z
1/2+x,y,1/2+z
1/2-x,-y,1/2+z
1/2+x,-y,1/2-z
1/2-x,y,1/2-z
1/2-x,-y,1/2-z
1/2+x,y,1/2-z
1/2-x,y,1/2+z
1/2+x,-y,1/2+z
1/2+x,1/2+y,z
1/2-x,1/2-y,z
1/2+x,1/2-y,-z
1/2-x,1/2+y,-z
1/2-x,1/2-y,-z
1/2+x,1/2+y,-z
1/2-x,1/2+y,z
1/2+x,1/2-y,z
loop_
_atom_site_type_symbol
_atom_site_label
_atom_site_fract_x
_atom_site_fract_y
_atom_site_fract_z
Si Si1 0.839683 0.549926 0.422571
Si Si2 0.163063 0.067384 0.500000
Si Si3 0.835726 0.051374 0.709346
Si Si4 0.164019 0.387106 0.133562
Si Si5 0.333359 0.205705 0.089108
Si Si6 0.163670 0.324684 0.000000
O O1 0.836808 0.500000 0.404459
O O2 0.744220 0.550033 0.461642
O O3 0.769573 0.585386 0.393720
O O4 0.000000 0.560658 0.432476
O O5 0.174462 0.121524 0.500000
O O6 0.000000 0.055755 0.500000
O O7 0.750000 0.057638 0.750000
O O8 0.811958 0.091644 0.677593
O O9 0.000000 0.051902 0.718491
O O10 0.804768 0.000000 0.693876
O O11 0.186044 0.335256 0.120683
O O12 0.000000 0.396694 0.123734
O O13 0.500000 0.213814 0.087204
O O14 0.250000 0.250000 0.101190
O O15 0.283736 0.192491 0.043478
O O16 0.000000 0.313276 0.000000
#
# Coordination Sequence:
#
# PCOD9512437 Si02
#       6
#    32  16  32  32  32  16
#     4  11  23  35  48  73 108 140 174 220 269 312
#     4  11  20  35  54  70  96 140 186 222 259 311
#     4   9  18  33  55  83 111 139 172 210 256 311
#     4  10  20  36  57  78 104 139 180 219 257 317
#     4  10  20  35  54  77 104 134 175 225 271 315
#     4   9  17  33  53  73  98 131 175 223 265 305
#
# _framework density 16.824670000000001
#
# number of rings (size 3 to 8) (size 9 to 14) (size 15 to 20)
#    0.000    2.000    2.000    2.100    0.000    5.200 
#    0.000    2.000    0.000    0.600    0.000    4.200 
#    0.000    0.000    0.000    0.000    0.000    0.000 
#
# Total GULP energy -222803.229102 kJ/mol
# GULP energy per Si atom -5570.080728 kJ/mol
# Density = 1.678638 g / cm^3
# Si number density = 16.824670 Si / 1000 Ang^3
#
#
#
# Elastic Constant Matrix: (Units=GPa)
#
#
# Indices 1 2 3 4 5 6 
#
# 1 82.5276 65.7498 53.8558 0.0000 0.0000 0.0000
# 2 65.7498 126.0249 59.3642 0.0000 0.0000 0.0000
# 3 53.8558 59.3642 86.7602 0.0000 0.0000 0.0000
# 4 0.0000 0.0000 0.0000 6.6497 0.0000 0.0000
# 5 0.0000 0.0000 0.0000 0.0000 6.0468 0.0000
# 6 0.0000 0.0000 0.0000 0.0000 0.0000 30.1857
#
#
#
# Elastic Compliance Matrix: (Units=1/GPa)
#
#
# Indices 1 2 3 4 5 6 
#
# 1 0.025434 -0.008606 -0.009899 0.000000 0.000000 0.000000
# 2 -0.008606 0.014621 -0.004662 0.000000 0.000000 0.000000
# 3 -0.009899 -0.004662 0.020861 0.000000 0.000000 0.000000
# 4 0.000000 0.000000 0.000000 0.150382 0.000000 0.000000
# 5 0.000000 0.000000 0.000000 0.000000 0.165378 0.000000
# 6 0.000000 0.000000 0.000000 0.000000 0.000000 0.033128
#
#
# Mechanical properties :
#
#
# Convention : Reuss Voigt Hill
#
# Bulk Modulus (GPa) = 68.58326 72.58359 70.58343
# Shear Modulus (GPa) = 10.84601 16.33262 13.58932
#
# Velocity S-wave (km/s) = 2.54175 3.11907 2.84509
# Velocity P-wave (km/s) = 7.03321 7.49709 7.26885
#
# Compressibility (1/GPa) = 0.01458082
#
# Stress axis : x y z
#
# Youngs Moduli (GPa) = 39.31773 68.39461 47.93723
#
# Poissons Ratio (x) = 0.58863 0.47454
# Poissons Ratio (y) = 0.33838 0.22348
# Poissons Ratio (z) = 0.38921 0.31885
#
# Static dielectric constant tensor:
#      x y z
#    x 1.550220 0.000000 0.000000 
#    y 0.000000 1.581850 0.000000 
#    z 0.000000 0.000000 1.607160 
# 
# From -- ./inp_files/44596.got.cif
#   From: 2010.05.17/outbox.cif.g08.bks.cpg/sg69_23_cif.got.tgz:44596.got - 2010.06.03 19:29:58.
