data_PCOD9512836
_publ_section_title
;
Structure prediction by ZEFSAII (Michael W. Deem and Ramdas Pophale) SiO2 
 PCOD9512836
Probable space group: F M M M
;
_chemical_formula_sum "Si O2"
_cell_formula_units_Z 160
_cell_length_a 21.683326
_cell_length_b 22.616445
_cell_length_c 17.111337
_cell_angle_alpha 90.000000
_cell_angle_beta 90.000000
_cell_angle_gamma 90.000000
_cell_volume 8391.395385
_symmetry_space_group_name_H-M "F M M M"
_symmetry_group_IT_number 69
_symmetry_cell_setting 'orthorhombic'
loop_
_space_group_symop_operation_xyz
x,y,z
-x,-y,z
x,-y,-z
-x,y,-z
-x,-y,-z
x,y,-z
-x,y,z
x,-y,z
x,1/2+y,1/2+z
-x,1/2-y,1/2+z
x,1/2-y,1/2-z
-x,1/2+y,1/2-z
-x,1/2-y,1/2-z
x,1/2+y,1/2-z
-x,1/2+y,1/2+z
x,1/2-y,1/2+z
1/2+x,y,1/2+z
1/2-x,-y,1/2+z
1/2+x,-y,1/2-z
1/2-x,y,1/2-z
1/2-x,-y,1/2-z
1/2+x,y,1/2-z
1/2-x,y,1/2+z
1/2+x,-y,1/2+z
1/2+x,1/2+y,z
1/2-x,1/2-y,z
1/2+x,1/2-y,-z
1/2-x,1/2+y,-z
1/2-x,1/2-y,-z
1/2+x,1/2+y,-z
1/2-x,1/2+y,z
1/2+x,1/2-y,z
loop_
_atom_site_type_symbol
_atom_site_label
_atom_site_fract_x
_atom_site_fract_y
_atom_site_fract_z
Si Si1 0.607903 0.814288 0.087291
Si Si2 0.928860 0.000000 0.691792
Si Si3 0.667955 0.708703 0.824854
Si Si4 0.739485 0.625275 0.411587
Si Si5 0.281736 0.000000 0.835923
Si Si6 0.934029 0.131693 0.745726
O O1 0.633451 0.750111 0.112423
O O2 0.668312 0.855684 0.086114
O O3 0.568770 0.840545 0.158473
O O4 0.580871 0.813960 0.000000
O O5 0.929205 0.938667 0.738557
O O6 0.857831 0.000000 0.657266
O O7 0.000000 0.000000 0.652339
O O8 0.681355 0.750000 0.750000
O O9 0.725486 0.674544 0.860955
O O10 0.621363 0.659263 0.793430
O O11 0.763952 0.626385 0.500000
O O12 0.741829 0.559949 0.376403
O O13 0.250000 0.000000 0.750000
O O14 0.000000 0.148129 0.781071
#
# Coordination Sequence:
#
# PCOD9512836 Si02
#       6
#    32  16  32  32  16  32
#     4  10  21  36  56  81 117 156 192 234 293 362
#     4  10  20  39  60  82 116 154 192 238 300 356
#     4  10  22  36  59  85 117 156 201 242 296 358
#     4  11  23  39  58  86 124 156 192 245 306 364
#     4  12  23  37  66  94 120 156 204 258 305 350
#     4  10  21  38  59  85 114 150 199 250 289 345
#
# _framework density 19.067150999999999
#
# number of rings (size 3 to 8) (size 9 to 14) (size 15 to 20)
#    0.000    1.600    2.000    2.700    2.800    8.000 
#    0.000    0.500    0.000    4.800    0.000    0.000 
#    0.000   15.200    0.000    0.000    0.000    0.000 
#
# Total GULP energy -223066.429228 kJ/mol
# GULP energy per Si atom -5576.660731 kJ/mol
# Density = 1.902375 g / cm^3
# Si number density = 19.067151 Si / 1000 Ang^3
#
#
#
# Elastic Constant Matrix: (Units=GPa)
#
#
# Indices 1 2 3 4 5 6 
#
# 1 71.4443 12.9400 9.0897 0.0000 0.0000 0.0000
# 2 12.9400 114.4904 17.4147 0.0000 0.0000 0.0000
# 3 9.0897 17.4147 65.0084 0.0000 0.0000 0.0000
# 4 0.0000 0.0000 0.0000 21.6768 0.0000 0.0000
# 5 0.0000 0.0000 0.0000 0.0000 6.0396 0.0000
# 6 0.0000 0.0000 0.0000 0.0000 0.0000 46.4948
#
#
#
# Elastic Compliance Matrix: (Units=1/GPa)
#
#
# Indices 1 2 3 4 5 6 
#
# 1 0.014457 -0.001383 -0.001651 0.000000 0.000000 0.000000
# 2 -0.001383 0.009238 -0.002281 0.000000 0.000000 0.000000
# 3 -0.001651 -0.002281 0.016225 0.000000 0.000000 0.000000
# 4 0.000000 0.000000 0.000000 0.046132 0.000000 0.000000
# 5 0.000000 0.000000 0.000000 0.000000 0.165574 0.000000
# 6 0.000000 0.000000 0.000000 0.000000 0.000000 0.021508
#
#
# Mechanical properties :
#
#
# Convention : Reuss Voigt Hill
#
# Bulk Modulus (GPa) = 34.14213 36.64799 35.39506
# Shear Modulus (GPa) = 17.03420 28.94216 22.98818
#
# Velocity S-wave (km/s) = 2.99219 3.90026 3.47600
# Velocity P-wave (km/s) = 5.46651 6.28847 5.89184
#
# Compressibility (1/GPa) = 0.02928933
#
# Stress axis : x y z
#
# Youngs Moduli (GPa) = 69.16855 108.25267 61.63479
#
# Poissons Ratio (x) = 0.14970 0.10176
# Poissons Ratio (y) = 0.09565 0.14060
# Poissons Ratio (z) = 0.11420 0.24695
#
# Static dielectric constant tensor:
#      x y z
#    x 1.692300 0.000000 0.000000 
#    y 0.000000 1.636140 0.000000 
#    z 0.000000 0.000000 1.679010 
# 
# From -- ./inp_files/24628.got.cif
#   From: 2010.05.17/outbox.cif.g08.bks.cpg/sg69_13_cif.got.tgz:24628.got - 2010.06.03 19:29:58.
