data_PCOD9512796
_publ_section_title
;
Structure prediction by ZEFSAII (Michael W. Deem and Ramdas Pophale) SiO2 
 PCOD9512796
Probable space group: F M M M
;
_chemical_formula_sum "Si O2"
_cell_formula_units_Z 160
_cell_length_a 22.308533
_cell_length_b 16.383457
_cell_length_c 22.878346
_cell_angle_alpha 90.000000
_cell_angle_beta 90.000000
_cell_angle_gamma 90.000000
_cell_volume 8361.827067
_symmetry_space_group_name_H-M "F M M M"
_symmetry_group_IT_number 69
_symmetry_cell_setting 'orthorhombic'
loop_
_space_group_symop_operation_xyz
x,y,z
-x,-y,z
x,-y,-z
-x,y,-z
-x,-y,-z
x,y,-z
-x,y,z
x,-y,z
x,1/2+y,1/2+z
-x,1/2-y,1/2+z
x,1/2-y,1/2-z
-x,1/2+y,1/2-z
-x,1/2-y,1/2-z
x,1/2+y,1/2-z
-x,1/2+y,1/2+z
x,1/2-y,1/2+z
1/2+x,y,1/2+z
1/2-x,-y,1/2+z
1/2+x,-y,1/2-z
1/2-x,y,1/2-z
1/2-x,-y,1/2-z
1/2+x,y,1/2-z
1/2-x,y,1/2+z
1/2+x,-y,1/2+z
1/2+x,1/2+y,z
1/2-x,1/2-y,z
1/2+x,1/2-y,-z
1/2-x,1/2+y,-z
1/2-x,1/2-y,-z
1/2+x,1/2+y,-z
1/2-x,1/2+y,z
1/2+x,1/2-y,z
loop_
_atom_site_type_symbol
_atom_site_label
_atom_site_fract_x
_atom_site_fract_y
_atom_site_fract_z
Si Si1 0.838360 0.830915 0.289443
Si Si2 0.200552 0.596598 0.500000
Si Si3 0.238468 0.152684 0.123890
Si Si4 0.065009 0.250757 0.872129
Si Si5 0.429200 0.188333 0.500000
Si Si6 0.386730 0.906555 0.677422
O O1 0.820988 0.750000 0.250000
O O2 0.784671 0.872764 0.324998
O O3 0.883905 0.798462 0.338240
O O4 0.872194 0.890281 0.245105
O O5 0.193872 0.500000 0.500000
O O6 0.238294 0.623186 0.557173
O O7 0.131753 0.632884 0.500000
O O8 0.250000 0.250000 0.122784
O O9 0.174124 0.121112 0.145005
O O10 0.075455 0.240848 0.940953
O O11 0.066357 0.159136 0.845904
O O12 0.000000 0.287946 0.861450
O O13 0.500000 0.155177 0.500000
O O14 0.401324 0.000000 0.665261
#
# Coordination Sequence:
#
# PCOD9512796 Si02
#       6
#    32  16  32  32  16  32
#     4  10  21  37  59  84 116 154 202 241 291 350
#     4  12  25  38  56  89 122 152 197 251 301 353
#     4  12  21  37  59  81 117 156 201 239 290 353
#     4  10  21  38  62  87 115 152 201 248 288 348
#     4  10  20  38  60  83 115 154 198 243 300 349
#     4  11  23  36  57  87 122 156 193 240 296 359
#
# _framework density 19.134575000000002
#
# number of rings (size 3 to 8) (size 9 to 14) (size 15 to 20)
#    0.000    1.200    6.000    1.500    0.000    7.400 
#    0.000    2.000    0.000    0.000    0.000    0.000 
#    0.000    3.200    0.000    0.000    0.000    0.000 
#
# Total GULP energy -222987.950016 kJ/mol
# GULP energy per Si atom -5574.698750 kJ/mol
# Density = 1.909102 g / cm^3
# Si number density = 19.134575 Si / 1000 Ang^3
#
#
#
# Elastic Constant Matrix: (Units=GPa)
#
#
# Indices 1 2 3 4 5 6 
#
# 1 70.6388 -15.1285 32.3212 0.0000 0.0000 0.0000
# 2 -15.1285 23.5212 -5.6788 0.0000 0.0000 0.0000
# 3 32.3212 -5.6788 135.7346 0.0000 0.0000 0.0000
# 4 0.0000 0.0000 0.0000 10.9755 0.0000 0.0000
# 5 0.0000 0.0000 0.0000 0.0000 112.6591 0.0000
# 6 0.0000 0.0000 0.0000 0.0000 0.0000 13.1593
#
#
#
# Elastic Compliance Matrix: (Units=1/GPa)
#
#
# Indices 1 2 3 4 5 6 
#
# 1 0.018251 0.010799 -0.003894 0.000000 0.000000 0.000000
# 2 0.010799 0.049338 -0.000507 0.000000 0.000000 0.000000
# 3 -0.003894 -0.000507 0.008273 0.000000 0.000000 0.000000
# 4 0.000000 0.000000 0.000000 0.091112 0.000000 0.000000
# 5 0.000000 0.000000 0.000000 0.000000 0.008876 0.000000
# 6 0.000000 0.000000 0.000000 0.000000 0.000000 0.075992
#
#
# Mechanical properties :
#
#
# Convention : Reuss Voigt Hill
#
# Bulk Modulus (GPa) = 11.27944 28.10249 19.69097
# Shear Modulus (GPa) = 18.61501 41.91749 30.26625
#
# Velocity S-wave (km/s) = 3.12243 4.68553 3.98145
# Velocity P-wave (km/s) = 4.34822 6.63257 5.60794
#
# Compressibility (1/GPa) = 0.08865690
#
# Stress axis : x y z
#
# Youngs Moduli (GPa) = 54.79142 20.26837 120.86965
#
# Poissons Ratio (x) = -0.21887 0.47069
# Poissons Ratio (y) = -0.59167 0.06131
# Poissons Ratio (z) = 0.21337 0.01028
#
# Static dielectric constant tensor:
#      x y z
#    x 1.687860 0.000000 0.000000 
#    y 0.000000 1.656540 0.000000 
#    z 0.000000 0.000000 1.701150 
# 
# From -- ./inp_files/32654.got.cif
#   From: 2010.05.17/outbox.cif.g08.bks.cpg/sg69_17_cif.got.tgz:32654.got - 2010.06.03 19:29:58.
