data_PCOD9512377
_publ_section_title
;
Structure prediction by ZEFSAII (Michael W. Deem and Ramdas Pophale) SiO2 
 PCOD9512377
Probable space group: F M M M
;
_chemical_formula_sum "Si O2"
_cell_formula_units_Z 192
_cell_length_a 16.390442
_cell_length_b 29.751227
_cell_length_c 21.253888
_cell_angle_alpha 90.000000
_cell_angle_beta 90.000000
_cell_angle_gamma 90.000000
_cell_volume 10364.155840
_symmetry_space_group_name_H-M "F M M M"
_symmetry_group_IT_number 69
_symmetry_cell_setting 'orthorhombic'
loop_
_space_group_symop_operation_xyz
x,y,z
-x,-y,z
x,-y,-z
-x,y,-z
-x,-y,-z
x,y,-z
-x,y,z
x,-y,z
x,1/2+y,1/2+z
-x,1/2-y,1/2+z
x,1/2-y,1/2-z
-x,1/2+y,1/2-z
-x,1/2-y,1/2-z
x,1/2+y,1/2-z
-x,1/2+y,1/2+z
x,1/2-y,1/2+z
1/2+x,y,1/2+z
1/2-x,-y,1/2+z
1/2+x,-y,1/2-z
1/2-x,y,1/2-z
1/2-x,-y,1/2-z
1/2+x,y,1/2-z
1/2-x,y,1/2+z
1/2+x,-y,1/2+z
1/2+x,1/2+y,z
1/2-x,1/2-y,z
1/2+x,1/2-y,-z
1/2-x,1/2+y,-z
1/2-x,1/2-y,-z
1/2+x,1/2+y,-z
1/2-x,1/2+y,z
1/2+x,1/2-y,z
loop_
_atom_site_type_symbol
_atom_site_label
_atom_site_fract_x
_atom_site_fract_y
_atom_site_fract_z
Si Si1 0.097820 0.271121 0.431387
Si Si2 0.161642 0.726313 0.810091
Si Si3 0.787105 0.051757 0.927739
Si Si4 0.094379 0.637714 0.236208
Si Si5 0.180299 0.551306 0.196051
Si Si6 0.903371 0.368824 0.613593
O O1 0.128021 0.257114 0.500000
O O2 0.121465 0.238153 0.375741
O O3 0.126323 0.321783 0.415869
O O4 0.000000 0.273390 0.432714
O O5 0.118682 0.750000 0.750000
O O6 0.250000 0.750000 0.813187
O O7 0.155478 0.673901 0.794547
O O8 0.720123 0.057166 0.872826
O O9 0.855601 0.088682 0.913241
O O10 0.817333 0.000000 0.921794
O O11 0.758150 0.057265 0.000000
O O12 0.113390 0.588849 0.208836
O O13 0.107465 0.635577 0.311255
O O14 0.000000 0.650925 0.224865
O O15 0.150543 0.500000 0.201684
O O16 0.250000 0.557208 0.250000
O O17 0.000000 0.373568 0.601134
#
# Coordination Sequence:
#
# PCOD9512377 Si02
#       6
#    32  32  32  32  32  32
#     4  10  21  38  58  80 114 155 191 234 291 354
#     4  11  24  37  59  87 114 155 196 246 288 344
#     4  10  21  36  56  84 119 157 195 241 296 353
#     4  11  23  38  62  90 119 154 199 248 297 351
#     4  10  21  38  61  86 118 155 196 248 295 343
#     4  10  20  34  55  83 117 156 194 237 293 358
#
# _framework density 18.525386999999998
#
# number of rings (size 3 to 8) (size 9 to 14) (size 15 to 20)
#    0.000    1.667    3.333    1.000    4.667    2.667 
#    0.000    3.333    0.000    1.500    0.000    2.333 
#    0.000    0.000    0.000    0.000    0.000    0.000 
#
# Total GULP energy -267869.358275 kJ/mol
# GULP energy per Si atom -5580.611631 kJ/mol
# Density = 1.848322 g / cm^3
# Si number density = 18.525387 Si / 1000 Ang^3
#
#
#
# Elastic Constant Matrix: (Units=GPa)
#
#
# Indices 1 2 3 4 5 6 
#
# 1 34.0135 21.3350 23.8757 0.0000 0.0000 0.0000
# 2 21.3350 66.7181 35.0281 0.0000 0.0000 0.0000
# 3 23.8757 35.0281 141.5072 0.0000 0.0000 0.0000
# 4 0.0000 0.0000 0.0000 -171.1964 0.0000 0.0000
# 5 0.0000 0.0000 0.0000 0.0000 20.7456 0.0000
# 6 0.0000 0.0000 0.0000 0.0000 0.0000 23.0120
#
#
#
# Elastic Compliance Matrix: (Units=1/GPa)
#
#
# Indices 1 2 3 4 5 6 
#
# 1 0.038630 -0.010265 -0.003977 0.000000 0.000000 0.000000
# 2 -0.010265 0.019955 -0.003208 0.000000 0.000000 0.000000
# 3 -0.003977 -0.003208 0.008532 0.000000 0.000000 0.000000
# 4 0.000000 0.000000 0.000000 -0.005841 0.000000 0.000000
# 5 0.000000 0.000000 0.000000 0.000000 0.048203 0.000000
# 6 0.000000 0.000000 0.000000 0.000000 0.000000 0.043456
#
#
# Mechanical properties :
#
#
# Convention : Reuss Voigt Hill
#
# Bulk Modulus (GPa) = 31.03867 44.74627 37.89247
# Shear Modulus (GPa) = 25.17961 -14.68775 5.24593
#
# Velocity S-wave (km/s) = 3.69073 -2.81880 1.68461
# Velocity P-wave (km/s) = 5.91210 3.68948 4.92774
#
# Compressibility (1/GPa) = 0.03221787
#
# Stress axis : x y z
#
# Youngs Moduli (GPa) = 25.88628 50.11257 117.20897
#
# Poissons Ratio (x) = 0.51442 0.46613
# Poissons Ratio (y) = 0.26573 0.37596
# Poissons Ratio (z) = 0.10295 0.16074
#
# Static dielectric constant tensor:
#      x y z
#    x 1.650940 0.000000 0.000000 
#    y 0.000000 1.642140 0.000000 
#    z 0.000000 0.000000 1.655360 
# 
# From -- ./inp_files/32029.got.cif
#   From: 2010.05.17/outbox.cif.g08.bks.cpg/sg69_17_cif.got.tgz:32029.got - 2010.06.03 19:29:58.
