data_PCOD9512918
_publ_section_title
;
Structure prediction by ZEFSAII (Michael W. Deem and Ramdas Pophale) SiO2 
 PCOD9512918
Probable space group: F M M M
;
_chemical_formula_sum "Si O2"
_cell_formula_units_Z 160
_cell_length_a 20.443298
_cell_length_b 21.321241
_cell_length_c 18.303602
_cell_angle_alpha 90.000000
_cell_angle_beta 90.000000
_cell_angle_gamma 90.000000
_cell_volume 7978.109675
_symmetry_space_group_name_H-M "F M M M"
_symmetry_group_IT_number 69
_symmetry_cell_setting 'orthorhombic'
loop_
_space_group_symop_operation_xyz
x,y,z
-x,-y,z
x,-y,-z
-x,y,-z
-x,-y,-z
x,y,-z
-x,y,z
x,-y,z
x,1/2+y,1/2+z
-x,1/2-y,1/2+z
x,1/2-y,1/2-z
-x,1/2+y,1/2-z
-x,1/2-y,1/2-z
x,1/2+y,1/2-z
-x,1/2+y,1/2+z
x,1/2-y,1/2+z
1/2+x,y,1/2+z
1/2-x,-y,1/2+z
1/2+x,-y,1/2-z
1/2-x,y,1/2-z
1/2-x,-y,1/2-z
1/2+x,y,1/2-z
1/2-x,y,1/2+z
1/2+x,-y,1/2+z
1/2+x,1/2+y,z
1/2-x,1/2-y,z
1/2+x,1/2-y,-z
1/2-x,1/2+y,-z
1/2-x,1/2-y,-z
1/2+x,1/2+y,-z
1/2-x,1/2+y,z
1/2+x,1/2-y,z
loop_
_atom_site_type_symbol
_atom_site_label
_atom_site_fract_x
_atom_site_fract_y
_atom_site_fract_z
Si Si1 0.500000 0.121126 0.078220
Si Si2 0.374083 0.671435 0.876803
Si Si3 0.816238 0.360742 0.777395
Si Si4 0.000000 0.753005 0.661884
Si Si5 0.859054 0.428431 0.921938
Si Si6 0.079487 0.575175 0.500000
Si Si7 0.750000 0.750000 0.863105
O O1 0.500000 0.174254 0.139220
O O2 0.436892 0.078231 0.078891
O O3 0.500000 0.156463 0.000000
O O4 0.361050 0.648593 0.793277
O O5 0.435355 0.719198 0.870949
O O6 0.392553 0.613941 0.930144
O O7 0.305972 0.706501 0.900506
O O8 0.750000 0.392918 0.750000
O O9 0.840457 0.396759 0.847232
O O10 0.793692 0.294985 0.812461
O O11 0.000000 0.750000 0.750000
O O12 0.837940 0.500000 0.921659
O O13 0.836330 0.399459 0.000000
O O14 0.095432 0.500000 0.500000
O O15 0.000000 0.579953 0.500000
#
# Coordination Sequence:
#
# PCOD9512918 Si02
#       7
#    16  32  32  16  32  16  16
#     4  10  21  34  56  87 123 155 191 250 317 387
#     4  11  22  40  68  95 132 178 217 274 342 388
#     4  10  21  41  64  92 127 167 209 267 333 392
#     4  12  22  35  63 100 128 162 219 269 326 407
#     4  10  21  39  60  86 122 162 204 254 314 382
#     4  11  26  49  66  92 140 184 237 284 315 383
#     4  10  21  43  68  99 138 161 206 283 355 408
#
# _framework density 20.054877000000001
#
# number of rings (size 3 to 8) (size 9 to 14) (size 15 to 20)
#    0.000    1.500    1.000    6.600    1.400    2.800 
#    9.000    3.000    0.000    0.000    0.000    0.000 
#    0.000    0.000    0.000    0.000    0.000    0.000 
#
# Total GULP energy -222942.420744 kJ/mol
# GULP energy per Si atom -5573.560519 kJ/mol
# Density = 2.000923 g / cm^3
# Si number density = 20.054877 Si / 1000 Ang^3
#
#
#
# Elastic Constant Matrix: (Units=GPa)
#
#
# Indices 1 2 3 4 5 6 
#
# 1 91.4998 36.6343 44.3002 0.0000 0.0000 0.0000
# 2 36.6343 93.7035 48.8399 0.0000 0.0000 0.0000
# 3 44.3002 48.8399 103.1454 0.0000 0.0000 0.0000
# 4 0.0000 0.0000 0.0000 31.1526 0.0000 0.0000
# 5 0.0000 0.0000 0.0000 0.0000 66.5084 0.0000
# 6 0.0000 0.0000 0.0000 0.0000 0.0000 30.3174
#
#
#
# Elastic Compliance Matrix: (Units=1/GPa)
#
#
# Indices 1 2 3 4 5 6 
#
# 1 0.014493 -0.003215 -0.004702 0.000000 0.000000 0.000000
# 2 -0.003215 0.014882 -0.005666 0.000000 0.000000 0.000000
# 3 -0.004702 -0.005666 0.014397 0.000000 0.000000 0.000000
# 4 0.000000 0.000000 0.000000 0.032100 0.000000 0.000000
# 5 0.000000 0.000000 0.000000 0.000000 0.015036 0.000000
# 6 0.000000 0.000000 0.000000 0.000000 0.000000 0.032984
#
#
# Mechanical properties :
#
#
# Convention : Reuss Voigt Hill
#
# Bulk Modulus (GPa) = 60.21956 60.87749 60.54853
# Shear Modulus (GPa) = 31.92963 36.16729 34.04846
#
# Velocity S-wave (km/s) = 3.99446 4.25127 4.12486
# Velocity P-wave (km/s) = 7.16707 7.38371 7.27619
#
# Compressibility (1/GPa) = 0.01660590
#
# Stress axis : x y z
#
# Youngs Moduli (GPa) = 68.99941 67.19468 69.45707
#
# Poissons Ratio (x) = 0.21605 0.32660
# Poissons Ratio (y) = 0.22185 0.39353
# Poissons Ratio (z) = 0.32444 0.38071
#
# Static dielectric constant tensor:
#      x y z
#    x 1.765370 0.000000 0.000000 
#    y 0.000000 1.731140 0.000000 
#    z 0.000000 0.000000 1.757050 
# 
# From -- ./inp_files/24707.got.cif
#   From: 2010.05.17/outbox.cif.g08.bks.cpg/sg69_13_cif.got.tgz:24707.got - 2010.06.03 19:29:58.
