data_PCOD9512822
_publ_section_title
;
Structure prediction by ZEFSAII (Michael W. Deem and Ramdas Pophale) SiO2 
 PCOD9512822
Probable space group: F M M M
;
_chemical_formula_sum "Si O2"
_cell_formula_units_Z 120
_cell_length_a 10.466605
_cell_length_b 27.814473
_cell_length_c 23.531585
_cell_angle_alpha 90.000000
_cell_angle_beta 90.000000
_cell_angle_gamma 90.000000
_cell_volume 6850.588024
_symmetry_space_group_name_H-M "F M M M"
_symmetry_group_IT_number 69
_symmetry_cell_setting 'orthorhombic'
loop_
_space_group_symop_operation_xyz
x,y,z
-x,-y,z
x,-y,-z
-x,y,-z
-x,-y,-z
x,y,-z
-x,y,z
x,-y,z
x,1/2+y,1/2+z
-x,1/2-y,1/2+z
x,1/2-y,1/2-z
-x,1/2+y,1/2-z
-x,1/2-y,1/2-z
x,1/2+y,1/2-z
-x,1/2+y,1/2+z
x,1/2-y,1/2+z
1/2+x,y,1/2+z
1/2-x,-y,1/2+z
1/2+x,-y,1/2-z
1/2-x,y,1/2-z
1/2-x,-y,1/2-z
1/2+x,y,1/2-z
1/2-x,y,1/2+z
1/2+x,-y,1/2+z
1/2+x,1/2+y,z
1/2-x,1/2-y,z
1/2+x,1/2-y,-z
1/2-x,1/2+y,-z
1/2-x,1/2-y,-z
1/2+x,1/2+y,-z
1/2-x,1/2+y,z
1/2+x,1/2-y,z
loop_
_atom_site_type_symbol
_atom_site_label
_atom_site_fract_x
_atom_site_fract_y
_atom_site_fract_z
Si Si1 0.714433 0.946103 0.500000
Si Si2 0.500000 0.817296 0.624100
Si Si3 0.847895 0.052539 0.620701
Si Si4 0.500000 0.278206 0.312208
Si Si5 0.500000 0.135394 0.500000
Si Si6 0.262819 0.648362 0.683387
O O1 0.798657 0.943363 0.443560
O O2 0.618748 0.901455 0.500000
O O3 0.653997 0.000000 0.500000
O O4 0.500000 0.760889 0.637803
O O5 0.500000 0.833572 0.558187
O O6 0.371078 0.836050 0.654976
O O7 0.801625 0.098498 0.654706
O O8 0.000000 0.052668 0.621203
O O9 0.803421 0.000000 0.642724
O O10 0.500000 0.250000 0.250000
O O11 0.374093 0.311171 0.319755
O O12 0.250000 0.639979 0.750000
#
# Coordination Sequence:
#
# PCOD9512822 Si02
#       6
#    16  16  32  16   8  32
#     4  10  20  38  64  88 120 169 220 259 308 388
#     4  12  26  41  64  98 132 166 213 271 322 374
#     4  10  21  39  63  93 126 165 210 265 324 383
#     4  12  24  44  68  93 120 169 226 267 311 377
#     4  12  23  42  60  92 138 166 207 266 330 382
#     4  12  23  41  67  95 126 167 215 266 320 379
#
# _framework density 17.516745
#
# number of rings (size 3 to 8) (size 9 to 14) (size 15 to 20)
#    0.000    0.800    6.667    1.400    0.000    2.133 
#    0.000    4.667    0.000    0.000    0.000    0.000 
#    0.000    0.000    0.000    0.000    0.000    0.000 
#
# Total GULP energy -167383.250351 kJ/mol
# GULP energy per Si atom -5579.441678 kJ/mol
# Density = 1.747688 g / cm^3
# Si number density = 17.516745 Si / 1000 Ang^3
#
#
#
# Elastic Constant Matrix: (Units=GPa)
#
#
# Indices 1 2 3 4 5 6 
#
# 1 123.1696 77.8964 57.0597 0.0000 0.0000 0.0000
# 2 77.8964 184.9366 94.9430 0.0000 0.0000 0.0000
# 3 57.0597 94.9430 143.9495 0.0000 0.0000 0.0000
# 4 0.0000 0.0000 0.0000 39.0215 0.0000 0.0000
# 5 0.0000 0.0000 0.0000 0.0000 27.5139 0.0000
# 6 0.0000 0.0000 0.0000 0.0000 0.0000 16.6946
#
#
#
# Elastic Compliance Matrix: (Units=1/GPa)
#
#
# Indices 1 2 3 4 5 6 
#
# 1 0.011455 -0.003771 -0.002054 0.000000 0.000000 0.000000
# 2 -0.003771 0.009417 -0.004716 0.000000 0.000000 0.000000
# 3 -0.002054 -0.004716 0.010872 0.000000 0.000000 0.000000
# 4 0.000000 0.000000 0.000000 0.025627 0.000000 0.000000
# 5 0.000000 0.000000 0.000000 0.000000 0.036345 0.000000
# 6 0.000000 0.000000 0.000000 0.000000 0.000000 0.059900
#
#
# Mechanical properties :
#
#
# Convention : Reuss Voigt Hill
#
# Bulk Modulus (GPa) = 93.78936 101.31712 97.55324
# Shear Modulus (GPa) = 28.05050 31.45643 29.75347
#
# Velocity S-wave (km/s) = 4.00603 4.24228 4.12585
# Velocity P-wave (km/s) = 8.66352 9.05326 8.86054
#
# Compressibility (1/GPa) = 0.01066219
#
# Stress axis : x y z
#
# Youngs Moduli (GPa) = 87.29895 106.19469 91.98316
#
# Poissons Ratio (x) = 0.40041 0.18890
# Poissons Ratio (y) = 0.32917 0.43381
# Poissons Ratio (z) = 0.17928 0.50084
#
# Static dielectric constant tensor:
#      x y z
#    x 1.622220 0.000000 0.000000 
#    y 0.000000 1.629880 0.000000 
#    z 0.000000 0.000000 1.569050 
# 
# From -- ./inp_files/9176.got.cif
#   From: 2010.05.17/outbox.cif.g08.bks.cpg/sg69_5_cif.got.tgz:9176.got - 2010.06.03 19:29:58.
