data_PCOD9512283
_publ_section_title
;
Structure prediction by ZEFSAII (Michael W. Deem and Ramdas Pophale) SiO2 
 PCOD9512283
Probable space group: F M M M
;
_chemical_formula_sum "Si O2"
_cell_formula_units_Z 120
_cell_length_a 20.233115
_cell_length_b 7.290662
_cell_length_c 36.002621
_cell_angle_alpha 90.000000
_cell_angle_beta 90.000000
_cell_angle_gamma 90.000000
_cell_volume 5310.847527
_symmetry_space_group_name_H-M "F M M M"
_symmetry_group_IT_number 69
_symmetry_cell_setting 'orthorhombic'
loop_
_space_group_symop_operation_xyz
x,y,z
-x,-y,z
x,-y,-z
-x,y,-z
-x,-y,-z
x,y,-z
-x,y,z
x,-y,z
x,1/2+y,1/2+z
-x,1/2-y,1/2+z
x,1/2-y,1/2-z
-x,1/2+y,1/2-z
-x,1/2-y,1/2-z
x,1/2+y,1/2-z
-x,1/2+y,1/2+z
x,1/2-y,1/2+z
1/2+x,y,1/2+z
1/2-x,-y,1/2+z
1/2+x,-y,1/2-z
1/2-x,y,1/2-z
1/2-x,-y,1/2-z
1/2+x,y,1/2-z
1/2-x,y,1/2+z
1/2+x,-y,1/2+z
1/2+x,1/2+y,z
1/2-x,1/2-y,z
1/2+x,1/2-y,-z
1/2-x,1/2+y,-z
1/2-x,1/2-y,-z
1/2+x,1/2+y,-z
1/2-x,1/2+y,z
1/2+x,1/2-y,z
loop_
_atom_site_type_symbol
_atom_site_label
_atom_site_fract_x
_atom_site_fract_y
_atom_site_fract_z
Si Si1 0.250000 0.250000 0.250000
Si Si2 0.576079 0.276500 0.458314
Si Si3 0.000000 0.283694 0.793769
Si Si4 0.824020 0.282622 0.103886
Si Si5 0.647513 0.725647 0.687261
O O1 0.305082 0.193125 0.281060
O O2 0.596090 0.220189 0.500000
O O3 0.500000 0.222905 0.452379
O O4 0.577454 0.500000 0.458101
O O5 0.623207 0.210822 0.425562
O O6 0.000000 0.250000 0.750000
O O7 0.929065 0.218217 0.808304
O O8 0.000000 0.500000 0.801717
O O9 0.835353 0.500000 0.106483
O O10 0.750000 0.250000 0.090331
O O11 0.830310 0.216997 0.146193
O O12 0.652371 0.500000 0.691341
#
# Coordination Sequence:
#
# PCOD9512283 Si02
#       5
#     8  32  16  32  32
#     4  12  18  34  52  70 102 134 170 204 254 302
#     4   8  15  29  51  78 104 131 166 207 249 294
#     4  10  20  36  52  72  97 127 171 211 252 298
#     4  10  20  34  51  76 104 133 166 208 252 299
#     4  10  21  33  50  73 100 133 168 208 254 298
#
# _framework density 22.595265000000001
#
# number of rings (size 3 to 8) (size 9 to 14) (size 15 to 20)
#    0.000    2.400    2.667    1.200    1.867    0.533 
#    0.000    1.333    0.000    0.800    0.000    1.867 
#    0.000    0.000    0.000    0.000    0.000    0.000 
#
# Total GULP energy -167292.206945 kJ/mol
# GULP energy per Si atom -5576.406898 kJ/mol
# Density = 2.254384 g / cm^3
# Si number density = 22.595265 Si / 1000 Ang^3
#
#
#
# Elastic Constant Matrix: (Units=GPa)
#
#
# Indices 1 2 3 4 5 6 
#
# 1 181.5235 6.9512 106.5772 0.0000 0.0000 0.0000
# 2 6.9512 105.9296 12.4300 0.0000 0.0000 0.0000
# 3 106.5772 12.4300 205.6588 0.0000 0.0000 0.0000
# 4 0.0000 0.0000 0.0000 -16.2926 0.0000 0.0000
# 5 0.0000 0.0000 0.0000 0.0000 35.9977 0.0000
# 6 0.0000 0.0000 0.0000 0.0000 0.0000 -3.0903
#
#
#
# Elastic Compliance Matrix: (Units=1/GPa)
#
#
# Indices 1 2 3 4 5 6 
#
# 1 0.007918 -0.000038 -0.004101 0.000000 0.000000 0.000000
# 2 -0.000038 0.009508 -0.000555 0.000000 0.000000 0.000000
# 3 -0.004101 -0.000555 0.007021 0.000000 0.000000 0.000000
# 4 0.000000 0.000000 0.000000 -0.061378 0.000000 0.000000
# 5 0.000000 0.000000 0.000000 0.000000 0.027780 0.000000
# 6 0.000000 0.000000 0.000000 0.000000 0.000000 -0.323592
#
#
# Mechanical properties :
#
#
# Convention : Reuss Voigt Hill
#
# Bulk Modulus (GPa) = 66.40611 82.78096 74.59354
# Shear Modulus (GPa) = -15.70672 27.79987 6.04658
#
# Velocity S-wave (km/s) = -2.63940 3.51143 1.63763
# Velocity P-wave (km/s) = 4.49050 7.29082 6.05478
#
# Compressibility (1/GPa) = 0.01505885
#
# Stress axis : x y z
#
# Youngs Moduli (GPa) = 126.29021 105.17628 142.42488
#
# Poissons Ratio (x) = 0.00404 0.58410
# Poissons Ratio (y) = 0.00485 0.07901
# Poissons Ratio (z) = 0.51793 0.05835
#
# Static dielectric constant tensor:
#      x y z
#    x 1.793800 0.000000 0.000000 
#    y 0.000000 1.793370 0.000000 
#    z 0.000000 0.000000 1.774190 
# 
# From -- ./inp_files/33200.got.cif
#   From: 2010.05.17/outbox.cif.g08.bks.cpg/sg69_17_cif.got.tgz:33200.got - 2010.06.03 19:29:58.
