data_PCOD9512890
_publ_section_title
;
Structure prediction by ZEFSAII (Michael W. Deem and Ramdas Pophale) SiO2 
 PCOD9512890
Probable space group: F M M M
;
_chemical_formula_sum "Si O2"
_cell_formula_units_Z 128
_cell_length_a 21.088423
_cell_length_b 13.153014
_cell_length_c 27.568512
_cell_angle_alpha 90.000000
_cell_angle_beta 90.000000
_cell_angle_gamma 90.000000
_cell_volume 7646.852488
_symmetry_space_group_name_H-M "F M M M"
_symmetry_group_IT_number 69
_symmetry_cell_setting 'orthorhombic'
loop_
_space_group_symop_operation_xyz
x,y,z
-x,-y,z
x,-y,-z
-x,y,-z
-x,-y,-z
x,y,-z
-x,y,z
x,-y,z
x,1/2+y,1/2+z
-x,1/2-y,1/2+z
x,1/2-y,1/2-z
-x,1/2+y,1/2-z
-x,1/2-y,1/2-z
x,1/2+y,1/2-z
-x,1/2+y,1/2+z
x,1/2-y,1/2+z
1/2+x,y,1/2+z
1/2-x,-y,1/2+z
1/2+x,-y,1/2-z
1/2-x,y,1/2-z
1/2-x,-y,1/2-z
1/2+x,y,1/2-z
1/2-x,y,1/2+z
1/2+x,-y,1/2+z
1/2+x,1/2+y,z
1/2-x,1/2-y,z
1/2+x,1/2-y,-z
1/2-x,1/2+y,-z
1/2-x,1/2-y,-z
1/2+x,1/2+y,-z
1/2-x,1/2+y,z
1/2+x,1/2-y,z
loop_
_atom_site_type_symbol
_atom_site_label
_atom_site_fract_x
_atom_site_fract_y
_atom_site_fract_z
Si Si1 0.750000 0.750000 0.885099
Si Si2 0.500000 0.382695 0.920730
Si Si3 0.204235 0.618341 0.202863
Si Si4 0.399670 0.250000 0.250000
Si Si5 0.500000 0.116951 0.304814
Si Si6 0.856085 0.620952 0.442783
O O1 0.769404 0.661207 0.847374
O O2 0.807039 0.802316 0.916039
O O3 0.500000 0.500000 0.937662
O O4 0.500000 0.378541 0.862589
O O5 0.569920 0.344499 0.936440
O O6 0.190890 0.500000 0.198989
O O7 0.250000 0.632000 0.250000
O O8 0.142884 0.682841 0.215096
O O9 0.440631 0.174860 0.282524
O O10 0.500000 0.000000 0.289878
O O11 0.841747 0.621460 0.500000
O O12 0.851608 0.500000 0.426326
#
# Coordination Sequence:
#
# PCOD9512890 Si02
#       6
#    16  16  32  16  16  32
#     4  12  20  36  54  82 112 146 184 228 278 340
#     4   9  18  33  54  77 104 138 178 224 277 327
#     4  11  22  35  53  77 109 146 182 222 265 327
#     4  11  19  36  50  74 111 147 186 216 272 326
#     4  10  21  32  52  79 106 141 183 232 271 321
#     4  10  21  36  56  82 111 143 183 234 287 336
#
# _framework density 16.738913
#
# number of rings (size 3 to 8) (size 9 to 14) (size 15 to 20)
#    0.000    1.500    2.500    3.750    0.000    1.500 
#    0.000    0.000    0.000    0.000    0.000    2.625 
#    0.000   12.000    0.000    0.000    0.000    0.000 
#
# Total GULP energy -178304.571674 kJ/mol
# GULP energy per Si atom -5572.017865 kJ/mol
# Density = 1.670081 g / cm^3
# Si number density = 16.738913 Si / 1000 Ang^3
#
#
#
# Elastic Constant Matrix: (Units=GPa)
#
#
# Indices 1 2 3 4 5 6 
#
# 1 128.6836 61.9391 54.4574 0.0000 0.0000 0.0000
# 2 61.9391 122.9939 42.9292 0.0000 0.0000 0.0000
# 3 54.4574 42.9292 88.9556 0.0000 0.0000 0.0000
# 4 0.0000 0.0000 0.0000 -91.6223 0.0000 0.0000
# 5 0.0000 0.0000 0.0000 0.0000 111.9524 0.0000
# 6 0.0000 0.0000 0.0000 0.0000 0.0000 46.2177
#
#
#
# Elastic Compliance Matrix: (Units=1/GPa)
#
#
# Indices 1 2 3 4 5 6 
#
# 1 0.012061 -0.004205 -0.005354 0.000000 0.000000 0.000000
# 2 -0.004205 0.011243 -0.002852 0.000000 0.000000 0.000000
# 3 -0.005354 -0.002852 0.015896 0.000000 0.000000 0.000000
# 4 0.000000 0.000000 0.000000 -0.010914 0.000000 0.000000
# 5 0.000000 0.000000 0.000000 0.000000 0.008932 0.000000
# 6 0.000000 0.000000 0.000000 0.000000 0.000000 0.021637
#
#
# Mechanical properties :
#
#
# Convention : Reuss Voigt Hill
#
# Bulk Modulus (GPa) = 69.55077 73.25383 71.40230
# Shear Modulus (GPa) = 56.51700 25.39672 40.95686
#
# Velocity S-wave (km/s) = 5.81697 3.89938 4.95189
# Velocity P-wave (km/s) = 9.31433 8.00820 8.68585
#
# Compressibility (1/GPa) = 0.01437799
#
# Stress axis : x y z
#
# Youngs Moduli (GPa) = 82.91331 88.94069 62.91073
#
# Poissons Ratio (x) = 0.37399 0.33683
# Poissons Ratio (y) = 0.34865 0.17941
# Poissons Ratio (z) = 0.44393 0.25364
#
# Static dielectric constant tensor:
#      x y z
#    x 1.593430 0.000000 0.000000 
#    y 0.000000 1.552500 0.000000 
#    z 0.000000 0.000000 1.573000 
# 
# From -- ./inp_files/41643.got.cif
#   From: 2010.05.17/outbox.cif.g08.bks.cpg/sg69_21_cif.got.tgz:41643.got - 2010.06.03 19:29:58.
