data_PCOD9512638
_publ_section_title
;
Structure prediction by ZEFSAII (Michael W. Deem and Ramdas Pophale) SiO2 
 PCOD9512638
Probable space group: F M M M
;
_chemical_formula_sum "Si O2"
_cell_formula_units_Z 192
_cell_length_a 27.065625
_cell_length_b 16.921499
_cell_length_c 21.189639
_cell_angle_alpha 90.000000
_cell_angle_beta 90.000000
_cell_angle_gamma 90.000000
_cell_volume 9704.662819
_symmetry_space_group_name_H-M "F M M M"
_symmetry_group_IT_number 69
_symmetry_cell_setting 'orthorhombic'
loop_
_space_group_symop_operation_xyz
x,y,z
-x,-y,z
x,-y,-z
-x,y,-z
-x,-y,-z
x,y,-z
-x,y,z
x,-y,z
x,1/2+y,1/2+z
-x,1/2-y,1/2+z
x,1/2-y,1/2-z
-x,1/2+y,1/2-z
-x,1/2-y,1/2-z
x,1/2+y,1/2-z
-x,1/2+y,1/2+z
x,1/2-y,1/2+z
1/2+x,y,1/2+z
1/2-x,-y,1/2+z
1/2+x,-y,1/2-z
1/2-x,y,1/2-z
1/2-x,-y,1/2-z
1/2+x,y,1/2-z
1/2-x,y,1/2+z
1/2+x,-y,1/2+z
1/2+x,1/2+y,z
1/2-x,1/2-y,z
1/2+x,1/2-y,-z
1/2-x,1/2+y,-z
1/2-x,1/2-y,-z
1/2+x,1/2+y,-z
1/2-x,1/2+y,z
1/2+x,1/2-y,z
loop_
_atom_site_type_symbol
_atom_site_label
_atom_site_fract_x
_atom_site_fract_y
_atom_site_fract_z
Si Si1 0.500000 0.587603 0.423683
Si Si2 0.325576 0.408845 0.375172
Si Si3 0.440824 0.845050 0.348207
Si Si4 0.092315 0.696047 0.926426
Si Si5 0.137418 0.594273 0.731424
Si Si6 0.233866 0.158296 0.179317
Si Si7 0.559552 0.000000 0.570655
O O1 0.500000 0.500000 0.396568
O O2 0.500000 0.582294 0.500000
O O3 0.549511 0.634138 0.407648
O O4 0.333932 0.500000 0.393174
O O5 0.355615 0.347687 0.417595
O O6 0.346647 0.395774 0.304070
O O7 0.267384 0.389969 0.369393
O O8 0.500000 0.835842 0.344556
O O9 0.416444 0.770246 0.381727
O O10 0.415195 0.865909 0.282082
O O11 0.428302 0.921215 0.391285
O O12 0.085007 0.718076 0.000000
O O13 0.137584 0.500000 0.719507
O O14 0.176182 0.637759 0.684033
O O15 0.250000 0.133279 0.250000
O O16 0.250000 0.250000 0.172588
O O17 0.500000 0.000000 0.566217
O O18 0.580106 0.000000 0.500000
#
# Coordination Sequence:
#
# PCOD9512638 Si02
#       7
#    16  32  32  32  32  32  16
#     4   9  18  34  54  74 103 143 191 239 279 327
#     4  10  21  37  58  87 118 154 198 240 291 352
#     4  11  21  36  57  83 117 152 189 241 296 350
#     4  11  22  37  58  84 113 149 199 249 288 338
#     4  10  20  36  58  86 120 155 192 237 292 356
#     4   9  17  32  57  86 115 148 192 239 284 345
#     4   9  18  32  54  78 103 144 189 225 272 338
#
# _framework density 19.784303999999999
#
# number of rings (size 3 to 8) (size 9 to 14) (size 15 to 20)
#    0.000    2.000    1.667    2.500    0.000    5.667 
#    1.500    0.833    0.000    5.500    0.000    0.000 
#    0.000    0.000    0.000    0.000    0.000    0.000 
#
# Total GULP energy -267761.519618 kJ/mol
# GULP energy per Si atom -5578.364992 kJ/mol
# Density = 1.973927 g / cm^3
# Si number density = 19.784304 Si / 1000 Ang^3
#
#
#
# Elastic Constant Matrix: (Units=GPa)
#
#
# Indices 1 2 3 4 5 6 
#
# 1 58.0452 7.8031 3.4329 0.0000 0.0000 0.0000
# 2 7.8031 73.3664 4.0134 0.0000 0.0000 0.0000
# 3 3.4329 4.0134 18.8571 0.0000 0.0000 0.0000
# 4 0.0000 0.0000 0.0000 7.5562 0.0000 0.0000
# 5 0.0000 0.0000 0.0000 0.0000 26.5755 0.0000
# 6 0.0000 0.0000 0.0000 0.0000 0.0000 20.4087
#
#
#
# Elastic Compliance Matrix: (Units=1/GPa)
#
#
# Indices 1 2 3 4 5 6 
#
# 1 0.017627 -0.001719 -0.002843 0.000000 0.000000 0.000000
# 2 -0.001719 0.013958 -0.002658 0.000000 0.000000 0.000000
# 3 -0.002843 -0.002658 0.054114 0.000000 0.000000 0.000000
# 4 0.000000 0.000000 0.000000 0.132342 0.000000 0.000000
# 5 0.000000 0.000000 0.000000 0.000000 0.037629 0.000000
# 6 0.000000 0.000000 0.000000 0.000000 0.000000 0.048999
#
#
# Mechanical properties :
#
#
# Convention : Reuss Voigt Hill
#
# Bulk Modulus (GPa) = 14.03332 20.08527 17.05929
# Shear Modulus (GPa) = 14.58312 19.90937 17.24625
#
# Velocity S-wave (km/s) = 2.71791 3.17570 2.95568
# Velocity P-wave (km/s) = 4.11801 4.86013 4.50438
#
# Compressibility (1/GPa) = 0.07125898
#
# Stress axis : x y z
#
# Youngs Moduli (GPa) = 56.73049 71.64108 18.47965
#
# Poissons Ratio (x) = 0.12317 0.05254
# Poissons Ratio (y) = 0.09753 0.04912
# Poissons Ratio (z) = 0.16129 0.19041
#
# Static dielectric constant tensor:
#      x y z
#    x 1.738250 0.000000 0.000000 
#    y 0.000000 1.696890 0.000000 
#    z 0.000000 0.000000 1.696000 
# 
# From -- ./inp_files/38387.got.cif
#   From: 2010.05.17/outbox.cif.g08.bks.cpg/sg69_20_cif.got.tgz:38387.got - 2010.06.03 19:29:58.
