data_PCOD9512060
_publ_section_title
;
Structure prediction by ZEFSAII (Michael W. Deem and Ramdas Pophale) SiO2 
 PCOD9512060
Probable space group: F M M M
;
_chemical_formula_sum "Si O2"
_cell_formula_units_Z 192
_cell_length_a 28.458293
_cell_length_b 11.253137
_cell_length_c 28.552326
_cell_angle_alpha 90.000000
_cell_angle_beta 90.000000
_cell_angle_gamma 90.000000
_cell_volume 9143.741636
_symmetry_space_group_name_H-M "F M M M"
_symmetry_group_IT_number 69
_symmetry_cell_setting 'orthorhombic'
loop_
_space_group_symop_operation_xyz
x,y,z
-x,-y,z
x,-y,-z
-x,y,-z
-x,-y,-z
x,y,-z
-x,y,z
x,-y,z
x,1/2+y,1/2+z
-x,1/2-y,1/2+z
x,1/2-y,1/2-z
-x,1/2+y,1/2-z
-x,1/2-y,1/2-z
x,1/2+y,1/2-z
-x,1/2+y,1/2+z
x,1/2-y,1/2+z
1/2+x,y,1/2+z
1/2-x,-y,1/2+z
1/2+x,-y,1/2-z
1/2-x,y,1/2-z
1/2-x,-y,1/2-z
1/2+x,y,1/2-z
1/2-x,y,1/2+z
1/2+x,-y,1/2+z
1/2+x,1/2+y,z
1/2-x,1/2-y,z
1/2+x,1/2-y,-z
1/2-x,1/2+y,-z
1/2-x,1/2-y,-z
1/2+x,1/2+y,-z
1/2-x,1/2+y,z
1/2+x,1/2-y,z
loop_
_atom_site_type_symbol
_atom_site_label
_atom_site_fract_x
_atom_site_fract_y
_atom_site_fract_z
Si Si1 0.588095 0.138726 0.551399
Si Si2 0.000000 0.143068 0.889778
Si Si3 0.162606 0.795808 0.878596
Si Si4 0.102887 0.191725 0.300697
Si Si5 0.180843 0.000000 0.717728
Si Si6 0.783880 0.500000 0.324865
Si Si7 0.286055 0.137809 0.053746
Si Si8 0.500000 0.198097 0.197813
O O1 0.589510 0.193352 0.500000
O O2 0.545763 0.187899 0.582469
O O3 0.637927 0.145404 0.576662
O O4 0.576772 0.000000 0.546832
O O5 0.000000 0.192086 0.837783
O O6 0.000000 0.000000 0.887649
O O7 0.120510 0.779352 0.841293
O O8 0.181709 0.673700 0.901717
O O9 0.200165 0.882854 0.853862
O O10 0.098495 0.250000 0.250000
O O11 0.147917 0.108637 0.295666
O O12 0.051034 0.138572 0.310350
O O13 0.190897 0.000000 0.773646
O O14 0.229398 0.000000 0.689414
O O15 0.250000 0.250000 0.054412
O O16 0.268997 0.000000 0.059643
O O17 0.305999 0.140647 0.000000
O O18 0.500000 0.250000 0.250000
#
# Coordination Sequence:
#
# PCOD9512060 Si02
#       8
#    32  16  32  32  16  16  32  16
#     4  10  20  35  60  95 134 176 224 289 359 438
#     4  10  19  36  61  92 134 179 225 281 363 432
#     4  12  23  39  67  97 134 180 235 285 351 428
#     4  11  24  43  66  94 131 171 227 280 351 417
#     4  11  26  47  64  92 138 184 226 289 346 420
#     4  11  26  44  67 100 137 184 235 288 353 416
#     4  10  25  46  67  96 136 181 233 293 356 422
#     4  10  22  42  61  96 127 169 224 283 339 423
#
# _framework density 20.997969000000001
#
# number of rings (size 3 to 8) (size 9 to 14) (size 15 to 20)
#    0.000    1.333    4.167    0.750    4.667    1.333 
#    6.000    0.000    0.000    0.000    0.000    0.000 
#    0.000    5.333    0.000    0.000    0.000    0.000 
#
# Total GULP energy -267395.535061 kJ/mol
# GULP energy per Si atom -5570.740314 kJ/mol
# Density = 2.095018 g / cm^3
# Si number density = 20.997969 Si / 1000 Ang^3
#
#
#
# Elastic Constant Matrix: (Units=GPa)
#
#
# Indices 1 2 3 4 5 6 
#
# 1 145.6567 37.6784 54.0551 0.0000 0.0000 0.0000
# 2 37.6784 79.8625 37.9556 0.0000 0.0000 0.0000
# 3 54.0551 37.9556 153.0536 0.0000 0.0000 0.0000
# 4 0.0000 0.0000 0.0000 1.9602 0.0000 0.0000
# 5 0.0000 0.0000 0.0000 0.0000 14.7551 0.0000
# 6 0.0000 0.0000 0.0000 0.0000 0.0000 24.7756
#
#
#
# Elastic Compliance Matrix: (Units=1/GPa)
#
#
# Indices 1 2 3 4 5 6 
#
# 1 0.008460 -0.002915 -0.002265 0.000000 0.000000 0.000000
# 2 -0.002915 0.015199 -0.002740 0.000000 0.000000 0.000000
# 3 -0.002265 -0.002740 0.008013 0.000000 0.000000 0.000000
# 4 0.000000 0.000000 0.000000 0.510141 0.000000 0.000000
# 5 0.000000 0.000000 0.000000 0.000000 0.067773 0.000000
# 6 0.000000 0.000000 0.000000 0.000000 0.000000 0.040362
#
#
# Mechanical properties :
#
#
# Convention : Reuss Voigt Hill
#
# Bulk Modulus (GPa) = 63.16041 70.88344 67.02193
# Shear Modulus (GPa) = 7.45085 24.89044 16.17064
#
# Velocity S-wave (km/s) = 1.88575 3.44666 2.77809
# Velocity P-wave (km/s) = 5.90644 7.04768 6.50215
#
# Compressibility (1/GPa) = 0.01583270
#
# Stress axis : x y z
#
# Youngs Moduli (GPa) = 118.20232 65.79464 124.79675
#
# Poissons Ratio (x) = 0.19178 0.28267
# Poissons Ratio (y) = 0.34455 0.34190
# Poissons Ratio (z) = 0.26773 0.18025
#
# Static dielectric constant tensor:
#      x y z
#    x 1.801790 0.000000 0.000000 
#    y 0.000000 1.874720 0.000000 
#    z 0.000000 0.000000 1.773680 
# 
# From -- ./inp_files/43967.got.cif
#   From: 2010.05.17/outbox.cif.g08.bks.cpg/sg69_22_cif.got.tgz:43967.got - 2010.06.03 19:29:58.
