data_PCOD9512026
_publ_section_title
;
Structure prediction by ZEFSAII (Michael W. Deem and Ramdas Pophale) SiO2 
 PCOD9512026
Probable space group: F M M M
;
_chemical_formula_sum "Si O2"
_cell_formula_units_Z 132
_cell_length_a 9.840698
_cell_length_b 31.162765
_cell_length_c 24.275091
_cell_angle_alpha 90.000000
_cell_angle_beta 90.000000
_cell_angle_gamma 90.000000
_cell_volume 7444.280951
_symmetry_space_group_name_H-M "F M M M"
_symmetry_group_IT_number 69
_symmetry_cell_setting 'orthorhombic'
loop_
_space_group_symop_operation_xyz
x,y,z
-x,-y,z
x,-y,-z
-x,y,-z
-x,-y,-z
x,y,-z
-x,y,z
x,-y,z
x,1/2+y,1/2+z
-x,1/2-y,1/2+z
x,1/2-y,1/2-z
-x,1/2+y,1/2-z
-x,1/2-y,1/2-z
x,1/2+y,1/2-z
-x,1/2+y,1/2+z
x,1/2-y,1/2+z
1/2+x,y,1/2+z
1/2-x,-y,1/2+z
1/2+x,-y,1/2-z
1/2-x,y,1/2-z
1/2-x,-y,1/2-z
1/2+x,y,1/2-z
1/2-x,y,1/2+z
1/2+x,-y,1/2+z
1/2+x,1/2+y,z
1/2-x,1/2-y,z
1/2+x,1/2-y,-z
1/2-x,1/2+y,-z
1/2-x,1/2-y,-z
1/2+x,1/2+y,-z
1/2-x,1/2+y,z
1/2+x,1/2-y,z
loop_
_atom_site_type_symbol
_atom_site_label
_atom_site_fract_x
_atom_site_fract_y
_atom_site_fract_z
Si Si1 0.159684 0.953298 0.877732
Si Si2 0.500000 0.500000 0.500000
Si Si3 0.159628 0.208363 0.115116
Si Si4 0.163657 0.627726 0.694496
Si Si5 0.661550 0.660653 0.000000
Si Si6 0.747909 0.066305 0.500000
O O1 0.210023 0.913055 0.842433
O O2 0.000000 0.955442 0.865869
O O3 0.222091 0.000000 0.864449
O O4 0.174828 0.945290 0.942752
O O5 0.382514 0.537845 0.500000
O O6 0.250000 0.250000 0.124450
O O7 0.185647 0.170752 0.159091
O O8 0.000000 0.219538 0.117912
O O9 0.185147 0.188277 0.054699
O O10 0.250000 0.628675 0.750000
O O11 0.000000 0.624516 0.704513
O O12 0.752629 0.618012 0.000000
O O13 0.500000 0.647617 0.000000
#
# Coordination Sequence:
#
# PCOD9512026 Si02
#       6
#    32   4  32  32  16  16
#     4  10  19  35  64  88 108 145 201 247 285 345
#     4  12  28  36  46  92 148 160 184 238 280 382
#     4  10  21  38  61  90 121 149 195 245 300 360
#     4  10  22  40  58  85 115 152 203 251 292 350
#     4  10  19  37  65  90 112 150 196 247 290 351
#     4  12  20  38  55  85 125 157 187 228 298 339
#
# _framework density 17.731732999999998
#
# number of rings (size 3 to 8) (size 9 to 14) (size 15 to 20)
#    0.000    1.697    3.636    1.455    0.000    2.909 
#    4.364    2.424    0.000    0.000    0.000    0.000 
#    0.000    0.000    0.000    0.000    0.000    0.000 
#
# Total GULP energy -183762.183380 kJ/mol
# GULP energy per Si atom -5568.551012 kJ/mol
# Density = 1.769137 g / cm^3
# Si number density = 17.731733 Si / 1000 Ang^3
#
#
#
# Elastic Constant Matrix: (Units=GPa)
#
#
# Indices 1 2 3 4 5 6 
#
# 1 43.9873 74.8013 48.5728 0.0000 0.0000 0.0000
# 2 74.8013 190.9270 85.3624 0.0000 0.0000 0.0000
# 3 48.5728 85.3624 137.9818 0.0000 0.0000 0.0000
# 4 0.0000 0.0000 0.0000 -0.2790 0.0000 0.0000
# 5 0.0000 0.0000 0.0000 0.0000 -140.5418 0.0000
# 6 0.0000 0.0000 0.0000 0.0000 0.0000 34.5716
#
#
#
# Elastic Compliance Matrix: (Units=1/GPa)
#
#
# Indices 1 2 3 4 5 6 
#
# 1 0.080721 -0.026154 -0.012235 0.000000 0.000000 0.000000
# 2 -0.026154 0.015715 -0.000515 0.000000 0.000000 0.000000
# 3 -0.012235 -0.000515 0.011873 0.000000 0.000000 0.000000
# 4 0.000000 0.000000 0.000000 -3.583591 0.000000 0.000000
# 5 0.000000 0.000000 0.000000 0.000000 -0.007115 0.000000
# 6 0.000000 0.000000 0.000000 0.000000 0.000000 0.028925
#
#
# Mechanical properties :
#
#
# Convention : Reuss Voigt Hill
#
# Bulk Modulus (GPa) = 32.78764 87.81878 60.30321
# Shear Modulus (GPa) = -1.48566 -10.30587 -5.89577
#
# Velocity S-wave (km/s) = -0.91634 -2.41345 -1.82543
# Velocity P-wave (km/s) = 4.17271 6.47051 5.44422
#
# Compressibility (1/GPa) = 0.03049929
#
# Stress axis : x y z
#
# Youngs Moduli (GPa) = 12.38841 63.63529 84.22555
#
# Poissons Ratio (x) = 1.66434 1.03051
# Poissons Ratio (y) = 0.32401 0.04336
# Poissons Ratio (z) = 0.15157 0.03276
#
# Static dielectric constant tensor:
#      x y z
#    x 1.591560 0.000000 0.000000 
#    y 0.000000 1.627580 0.000000 
#    z 0.000000 0.000000 1.586330 
# 
# From -- ./inp_files/39692.got.cif
#   From: 2010.05.17/outbox.cif.g08.bks.cpg/sg69_20_cif.got.tgz:39692.got - 2010.06.03 19:29:58.
