data_PCOD9512519
_publ_section_title
;
Structure prediction by ZEFSAII (Michael W. Deem and Ramdas Pophale) SiO2 
 PCOD9512519
Probable space group: F M M M
;
_chemical_formula_sum "Si O2"
_cell_formula_units_Z 176
_cell_length_a 15.114760
_cell_length_b 20.760227
_cell_length_c 26.381386
_cell_angle_alpha 90.000000
_cell_angle_beta 90.000000
_cell_angle_gamma 90.000000
_cell_volume 8278.105595
_symmetry_space_group_name_H-M "F M M M"
_symmetry_group_IT_number 69
_symmetry_cell_setting 'orthorhombic'
loop_
_space_group_symop_operation_xyz
x,y,z
-x,-y,z
x,-y,-z
-x,y,-z
-x,-y,-z
x,y,-z
-x,y,z
x,-y,z
x,1/2+y,1/2+z
-x,1/2-y,1/2+z
x,1/2-y,1/2-z
-x,1/2+y,1/2-z
-x,1/2-y,1/2-z
x,1/2+y,1/2-z
-x,1/2+y,1/2+z
x,1/2-y,1/2+z
1/2+x,y,1/2+z
1/2-x,-y,1/2+z
1/2+x,-y,1/2-z
1/2-x,y,1/2-z
1/2-x,-y,1/2-z
1/2+x,y,1/2-z
1/2-x,y,1/2+z
1/2+x,-y,1/2+z
1/2+x,1/2+y,z
1/2-x,1/2-y,z
1/2+x,1/2-y,-z
1/2-x,1/2+y,-z
1/2-x,1/2-y,-z
1/2+x,1/2+y,-z
1/2-x,1/2+y,z
1/2+x,1/2-y,z
loop_
_atom_site_type_symbol
_atom_site_label
_atom_site_fract_x
_atom_site_fract_y
_atom_site_fract_z
Si Si1 0.896051 0.607793 0.305275
Si Si2 0.104297 0.752236 0.849928
Si Si3 0.746981 0.431363 0.616037
Si Si4 0.105479 0.613480 0.811013
Si Si5 0.000000 0.573829 0.560415
Si Si6 0.664626 0.329701 0.059220
O O1 0.886877 0.684630 0.314873
O O2 0.825509 0.575787 0.342399
O O3 0.875391 0.594385 0.246770
O O4 0.000000 0.591345 0.315398
O O5 0.134424 0.687490 0.822298
O O6 0.150466 0.770498 0.902834
O O7 0.000000 0.744745 0.860587
O O8 0.757256 0.500000 0.589597
O O9 0.657946 0.427320 0.648199
O O10 0.752990 0.372348 0.577220
O O11 0.000000 0.609426 0.816920
O O12 0.084021 0.619684 0.570790
O O13 0.000000 0.500000 0.581164
O O14 0.000000 0.566222 0.500000
O O15 0.664643 0.313553 0.000000
#
# Coordination Sequence:
#
# PCOD9512519 Si02
#       6
#    32  32  32  32  16  32
#     4   9  19  35  57  85 115 146 181 230 292 352
#     4   9  17  33  57  85 115 144 183 230 281 346
#     4  11  24  38  55  82 116 152 195 241 283 337
#     4  10  21  38  58  79 108 152 198 239 284 329
#     4   9  16  28  50  80 111 146 177 201 256 345
#     4  10  20  35  57  85 116 148 179 224 288 349
#
# _framework density 21.260902000000002
#
# number of rings (size 3 to 8) (size 9 to 14) (size 15 to 20)
#    0.000    2.273    0.909    1.636    1.273    8.364 
#    0.000    7.273    0.000    1.636    0.000    1.273 
#    0.000    0.000    0.000    0.000    0.000    0.000 
#
# Total GULP energy -245784.157552 kJ/mol
# GULP energy per Si atom -5586.003581 kJ/mol
# Density = 2.121251 g / cm^3
# Si number density = 21.260902 Si / 1000 Ang^3
#
#
#
# Elastic Constant Matrix: (Units=GPa)
#
#
# Indices 1 2 3 4 5 6 
#
# 1 29.0968 -1.5383 13.8343 0.0000 0.0000 0.0000
# 2 -1.5383 54.7511 -18.8821 0.0000 0.0000 0.0000
# 3 13.8343 -18.8821 74.6904 0.0000 0.0000 0.0000
# 4 0.0000 0.0000 0.0000 9.0718 0.0000 0.0000
# 5 0.0000 0.0000 0.0000 0.0000 23.1069 0.0000
# 6 0.0000 0.0000 0.0000 0.0000 0.0000 -498.6051
#
#
#
# Elastic Compliance Matrix: (Units=1/GPa)
#
#
# Indices 1 2 3 4 5 6 
#
# 1 0.037796 -0.001482 -0.007375 0.000000 0.000000 0.000000
# 2 -0.001482 0.020067 0.005347 0.000000 0.000000 0.000000
# 3 -0.007375 0.005347 0.016107 0.000000 0.000000 0.000000
# 4 0.000000 0.000000 0.000000 0.110231 0.000000 0.000000
# 5 0.000000 0.000000 0.000000 0.000000 0.043277 0.000000
# 6 0.000000 0.000000 0.000000 0.000000 0.000000 -0.002006
#
#
# Mechanical properties :
#
#
# Convention : Reuss Voigt Hill
#
# Bulk Modulus (GPa) = 14.93625 16.15178 15.54401
# Shear Modulus (GPa) = 19.62257 -82.27700 -31.32722
#
# Velocity S-wave (km/s) = 3.04129 -6.22758 -3.84274
# Velocity P-wave (km/s) = 4.40149 6.64055 3.51595
#
# Compressibility (1/GPa) = 0.06695120
#
# Stress axis : x y z
#
# Youngs Moduli (GPa) = 26.45758 49.83295 62.08665
#
# Poissons Ratio (x) = 0.07383 0.45790
# Poissons Ratio (y) = 0.03920 -0.33201
# Poissons Ratio (z) = 0.19513 -0.26648
#
# Static dielectric constant tensor:
#      x y z
#    x 1.823230 0.000000 0.000000 
#    y 0.000000 1.797420 0.000000 
#    z 0.000000 0.000000 1.736440 
# 
# From -- ./inp_files/17892.got.cif
#   From: 2010.05.17/outbox.cif.g08.bks.cpg/sg69_9_cif.got.tgz:17892.got - 2010.06.03 19:29:58.
