data_PCOD9512364
_publ_section_title
;
Structure prediction by ZEFSAII (Michael W. Deem and Ramdas Pophale) SiO2 
 PCOD9512364
Probable space group: F M M M
;
_chemical_formula_sum "Si O2"
_cell_formula_units_Z 128
_cell_length_a 21.121985
_cell_length_b 15.447503
_cell_length_c 20.809334
_cell_angle_alpha 90.000000
_cell_angle_beta 90.000000
_cell_angle_gamma 90.000000
_cell_volume 6789.709590
_symmetry_space_group_name_H-M "F M M M"
_symmetry_group_IT_number 69
_symmetry_cell_setting 'orthorhombic'
loop_
_space_group_symop_operation_xyz
x,y,z
-x,-y,z
x,-y,-z
-x,y,-z
-x,-y,-z
x,y,-z
-x,y,z
x,-y,z
x,1/2+y,1/2+z
-x,1/2-y,1/2+z
x,1/2-y,1/2-z
-x,1/2+y,1/2-z
-x,1/2-y,1/2-z
x,1/2+y,1/2-z
-x,1/2+y,1/2+z
x,1/2-y,1/2+z
1/2+x,y,1/2+z
1/2-x,-y,1/2+z
1/2+x,-y,1/2-z
1/2-x,y,1/2-z
1/2-x,-y,1/2-z
1/2+x,y,1/2-z
1/2-x,y,1/2+z
1/2+x,-y,1/2+z
1/2+x,1/2+y,z
1/2-x,1/2-y,z
1/2+x,1/2-y,-z
1/2-x,1/2+y,-z
1/2-x,1/2-y,-z
1/2+x,1/2+y,-z
1/2-x,1/2+y,z
1/2+x,1/2-y,z
loop_
_atom_site_type_symbol
_atom_site_label
_atom_site_fract_x
_atom_site_fract_y
_atom_site_fract_z
Si Si1 0.598844 0.250000 0.750000
Si Si2 0.811810 0.403108 0.795017
Si Si3 0.076493 0.500000 0.425832
Si Si4 0.189261 0.312910 0.928477
Si Si5 0.571491 0.807330 0.389095
O O1 0.641420 0.331197 0.730863
O O2 0.565671 0.220367 0.685015
O O3 0.837422 0.500000 0.789884
O O4 0.750000 0.397901 0.750000
O O5 0.801781 0.379072 0.869707
O O6 0.097687 0.500000 0.500000
O O7 0.094323 0.407470 0.395137
O O8 0.000000 0.500000 0.424601
O O9 0.250000 0.250000 0.925432
O O10 0.125334 0.255469 0.918327
O O11 0.186976 0.351874 0.000000
O O12 0.500000 0.800829 0.417815
#
# Coordination Sequence:
#
# PCOD9512364 Si02
#       5
#    16  32  16  32  32
#     4  10  20  34  54  82 119 146 195 242 289 344
#     4  10  20  35  58  83 112 154 195 237 293 352
#     4   9  18  32  52  82 113 144 188 236 287 350
#     4  10  21  38  57  82 117 151 192 244 291 344
#     4  10  20  35  58  84 116 157 194 237 294 351
#
# _framework density 18.852059000000001
#
# number of rings (size 3 to 8) (size 9 to 14) (size 15 to 20)
#    0.000    2.125    0.000    4.500    1.750    2.000 
#    2.250    0.000    0.000    6.750    0.000    7.000 
#    0.000    0.000    0.000    0.000    0.000    0.000 
#
# Total GULP energy -178336.268646 kJ/mol
# GULP energy per Si atom -5573.008395 kJ/mol
# Density = 1.880915 g / cm^3
# Si number density = 18.852059 Si / 1000 Ang^3
#
#
#
# Elastic Constant Matrix: (Units=GPa)
#
#
# Indices 1 2 3 4 5 6 
#
# 1 67.5311 34.9743 30.1921 0.0000 0.0000 0.0000
# 2 34.9743 131.9244 50.6569 0.0000 0.0000 0.0000
# 3 30.1921 50.6569 123.7257 0.0000 0.0000 0.0000
# 4 0.0000 0.0000 0.0000 8.4479 0.0000 0.0000
# 5 0.0000 0.0000 0.0000 0.0000 7.1768 0.0000
# 6 0.0000 0.0000 0.0000 0.0000 0.0000 6.8358
#
#
#
# Elastic Compliance Matrix: (Units=1/GPa)
#
#
# Indices 1 2 3 4 5 6 
#
# 1 0.017997 -0.003660 -0.002893 0.000000 0.000000 0.000000
# 2 -0.003660 0.009739 -0.003094 0.000000 0.000000 0.000000
# 3 -0.002893 -0.003094 0.010055 0.000000 0.000000 0.000000
# 4 0.000000 0.000000 0.000000 0.118373 0.000000 0.000000
# 5 0.000000 0.000000 0.000000 0.000000 0.139337 0.000000
# 6 0.000000 0.000000 0.000000 0.000000 0.000000 0.146289
#
#
# Mechanical properties :
#
#
# Convention : Reuss Voigt Hill
#
# Bulk Modulus (GPa) = 54.06585 61.64752 57.85668
# Shear Modulus (GPa) = 10.70092 18.31596 14.50844
#
# Velocity S-wave (km/s) = 2.38507 3.12037 2.77717
# Velocity P-wave (km/s) = 6.02711 6.76417 6.40625
#
# Compressibility (1/GPa) = 0.01849596
#
# Stress axis : x y z
#
# Youngs Moduli (GPa) = 55.56441 102.68477 99.45126
#
# Poissons Ratio (x) = 0.37586 0.28772
# Poissons Ratio (y) = 0.20338 0.30771
# Poissons Ratio (z) = 0.16075 0.31771
#
# Static dielectric constant tensor:
#      x y z
#    x 1.661010 0.000000 0.000000 
#    y 0.000000 1.624580 0.000000 
#    z 0.000000 0.000000 1.685310 
# 
# From -- ./inp_files/16337.got.cif
#   From: 2010.05.17/outbox.cif.g08.bks.cpg/sg69_9_cif.got.tgz:16337.got - 2010.06.03 19:29:58.
