data_PCOD9512097
_publ_section_title
;
Structure prediction by ZEFSAII (Michael W. Deem and Ramdas Pophale) SiO2 
 PCOD9512097
Probable space group: F M M M
;
_chemical_formula_sum "Si O2"
_cell_formula_units_Z 160
_cell_length_a 32.184081
_cell_length_b 14.339068
_cell_length_c 23.900602
_cell_angle_alpha 90.000000
_cell_angle_beta 90.000000
_cell_angle_gamma 90.000000
_cell_volume 11029.882268
_symmetry_space_group_name_H-M "F M M M"
_symmetry_group_IT_number 69
_symmetry_cell_setting 'orthorhombic'
loop_
_space_group_symop_operation_xyz
x,y,z
-x,-y,z
x,-y,-z
-x,y,-z
-x,-y,-z
x,y,-z
-x,y,z
x,-y,z
x,1/2+y,1/2+z
-x,1/2-y,1/2+z
x,1/2-y,1/2-z
-x,1/2+y,1/2-z
-x,1/2-y,1/2-z
x,1/2+y,1/2-z
-x,1/2+y,1/2+z
x,1/2-y,1/2+z
1/2+x,y,1/2+z
1/2-x,-y,1/2+z
1/2+x,-y,1/2-z
1/2-x,y,1/2-z
1/2-x,-y,1/2-z
1/2+x,y,1/2-z
1/2-x,y,1/2+z
1/2+x,-y,1/2+z
1/2+x,1/2+y,z
1/2-x,1/2-y,z
1/2+x,1/2-y,-z
1/2-x,1/2+y,-z
1/2-x,1/2-y,-z
1/2+x,1/2+y,-z
1/2-x,1/2+y,z
1/2+x,1/2-y,z
loop_
_atom_site_type_symbol
_atom_site_label
_atom_site_fract_x
_atom_site_fract_y
_atom_site_fract_z
Si Si1 0.950300 0.109854 0.266022
Si Si2 0.319388 0.250702 0.182257
Si Si3 0.949992 0.606205 0.565164
Si Si4 0.249226 0.605077 0.181954
Si Si5 0.415112 0.772050 0.663014
O O1 0.927103 0.154671 0.212507
O O2 0.936448 0.175086 0.317752
O O3 0.000000 0.119154 0.257639
O O4 0.940788 0.000000 0.272529
O O5 0.322430 0.250000 0.250000
O O6 0.290024 0.337078 0.165381
O O7 0.292438 0.160313 0.165812
O O8 0.365821 0.257056 0.160485
O O9 0.939123 0.620267 0.500000
O O10 0.937413 0.500000 0.581104
O O11 0.931435 0.682659 0.606229
O O12 0.000000 0.609574 0.569428
O O13 0.249744 0.500000 0.161630
O O14 0.250000 0.604504 0.250000
#
# Coordination Sequence:
#
# PCOD9512097 Si02
#       5
#    32  32  32  32  32
#     4  10  20  30  41  62  92 123 150 176 217 275
#     4   9  16  27  37  61  89 112 149 179 209 268
#     4   9  18  32  49  68  89 116 152 191 230 269
#     4   8  15  26  40  54  82 120 147 175 213 255
#     4  11  18  29  46  66  91 119 148 187 228 263
#
# _framework density 14.506048
#
# number of rings (size 3 to 8) (size 9 to 14) (size 15 to 20)
#    0.000    2.600    2.000    4.800    0.000    4.000 
#    0.000    0.000    0.000    0.600    0.000    5.600 
#    0.000    1.600    0.000    0.000    0.000    0.000 
#
# Total GULP energy -222754.596036 kJ/mol
# GULP energy per Si atom -5568.864901 kJ/mol
# Density = 1.447303 g / cm^3
# Si number density = 14.506048 Si / 1000 Ang^3
#
#
#
# Elastic Constant Matrix: (Units=GPa)
#
#
# Indices 1 2 3 4 5 6 
#
# 1 95.9835 54.2383 23.1320 0.0000 0.0000 0.0000
# 2 54.2383 135.0493 34.0319 0.0000 0.0000 0.0000
# 3 23.1320 34.0319 40.4257 0.0000 0.0000 0.0000
# 4 0.0000 0.0000 0.0000 17.4744 0.0000 0.0000
# 5 0.0000 0.0000 0.0000 0.0000 -12.6463 0.0000
# 6 0.0000 0.0000 0.0000 0.0000 0.0000 2.5263
#
#
#
# Elastic Compliance Matrix: (Units=1/GPa)
#
#
# Indices 1 2 3 4 5 6 
#
# 1 0.014008 -0.004577 -0.004162 0.000000 0.000000 0.000000
# 2 -0.004577 0.010894 -0.006552 0.000000 0.000000 0.000000
# 3 -0.004162 -0.006552 0.032634 0.000000 0.000000 0.000000
# 4 0.000000 0.000000 0.000000 0.057226 0.000000 0.000000
# 5 0.000000 0.000000 0.000000 0.000000 -0.079074 0.000000
# 6 0.000000 0.000000 0.000000 0.000000 0.000000 0.395830
#
#
# Mechanical properties :
#
#
# Convention : Reuss Voigt Hill
#
# Bulk Modulus (GPa) = 37.10102 54.91810 46.00956
# Shear Modulus (GPa) = 10.61378 12.14131 11.37755
#
# Velocity S-wave (km/s) = 2.70789 2.89620 2.80363
# Velocity P-wave (km/s) = 5.95052 7.00892 6.50129
#
# Compressibility (1/GPa) = 0.02695344
#
# Stress axis : x y z
#
# Youngs Moduli (GPa) = 71.38817 91.79398 30.64260
#
# Poissons Ratio (x) = 0.42013 0.12755
# Poissons Ratio (y) = 0.32674 0.20077
# Poissons Ratio (z) = 0.29715 0.60143
#
# Static dielectric constant tensor:
#      x y z
#    x 1.473770 0.000000 0.000000 
#    y 0.000000 1.493750 0.000000 
#    z 0.000000 0.000000 1.456980 
# 
# From -- ./inp_files/18905.got.cif
#   From: 2010.05.17/outbox.cif.g08.bks.cpg/sg69_10_cif.got.tgz:18905.got - 2010.06.03 19:29:58.
