data_PCOD9512336
_publ_section_title
;
Structure prediction by ZEFSAII (Michael W. Deem and Ramdas Pophale) SiO2 
 PCOD9512336
Probable space group: F M M M
;
_chemical_formula_sum "Si O2"
_cell_formula_units_Z 224
_cell_length_a 33.059515
_cell_length_b 23.690368
_cell_length_c 16.580171
_cell_angle_alpha 90.000000
_cell_angle_beta 90.000000
_cell_angle_gamma 90.000000
_cell_volume 12985.458550
_symmetry_space_group_name_H-M "F M M M"
_symmetry_group_IT_number 69
_symmetry_cell_setting 'orthorhombic'
loop_
_space_group_symop_operation_xyz
x,y,z
-x,-y,z
x,-y,-z
-x,y,-z
-x,-y,-z
x,y,-z
-x,y,z
x,-y,z
x,1/2+y,1/2+z
-x,1/2-y,1/2+z
x,1/2-y,1/2-z
-x,1/2+y,1/2-z
-x,1/2-y,1/2-z
x,1/2+y,1/2-z
-x,1/2+y,1/2+z
x,1/2-y,1/2+z
1/2+x,y,1/2+z
1/2-x,-y,1/2+z
1/2+x,-y,1/2-z
1/2-x,y,1/2-z
1/2-x,-y,1/2-z
1/2+x,y,1/2-z
1/2-x,y,1/2+z
1/2+x,-y,1/2+z
1/2+x,1/2+y,z
1/2-x,1/2-y,z
1/2+x,1/2-y,-z
1/2-x,1/2+y,-z
1/2-x,1/2-y,-z
1/2+x,1/2+y,-z
1/2-x,1/2+y,z
1/2+x,1/2-y,z
loop_
_atom_site_type_symbol
_atom_site_label
_atom_site_fract_x
_atom_site_fract_y
_atom_site_fract_z
Si Si1 0.085809 0.433479 0.833254
Si Si2 0.320509 0.364877 0.903902
Si Si3 0.243908 0.436687 0.098119
Si Si4 0.335859 0.127053 0.097137
Si Si5 0.896843 0.065785 0.146688
Si Si6 0.454186 0.931551 0.500000
Si Si7 0.202595 0.254852 0.846709
Si Si8 0.500000 0.068426 0.907475
O O1 0.092410 0.500000 0.856363
O O2 0.121963 0.394963 0.867155
O O3 0.086122 0.430941 0.736572
O O4 0.041997 0.414918 0.865714
O O5 0.278295 0.392947 0.875970
O O6 0.357107 0.396823 0.861772
O O7 0.319395 0.299171 0.884223
O O8 0.324223 0.373643 0.000000
O O9 0.252901 0.500000 0.125778
O O10 0.199530 0.416529 0.122513
O O11 0.244284 0.436782 0.000000
O O12 0.319201 0.187785 0.125747
O O13 0.338623 0.127450 0.000000
O O14 0.929231 0.084336 0.079593
O O15 0.886499 0.000000 0.129896
O O16 0.500000 0.910124 0.500000
O O17 0.456191 0.000000 0.500000
O O18 0.201438 0.250000 0.750000
O O19 0.250000 0.250000 0.872032
O O20 0.500000 0.000000 0.906039
O O21 0.500000 0.087112 0.000000
#
# Coordination Sequence:
#
# PCOD9512336 Si02
#       8
#    32  32  32  32  32  16  32  16
#     4  10  21  35  55  84 118 149 183 231 285 338
#     4  11  20  34  55  77 106 144 189 231 272 324
#     4   9  18  30  49  76 108 143 180 222 271 324
#     4  11  21  36  56  80 109 146 191 235 280 330
#     4  10  20  34  53  83 118 149 184 225 276 335
#     4   9  18  32  54  82 113 148 184 224 272 332
#     4  11  23  38  55  76 107 144 189 240 285 330
#     4   9  18  34  56  83 112 147 187 228 279 337
#
# _framework density 17.250064999999999
#
# number of rings (size 3 to 8) (size 9 to 14) (size 15 to 20)
#    0.000    1.857    2.143    2.571    1.000    2.571 
#    0.000    0.000    0.000    3.429    1.857    1.500 
#    0.000    0.000    0.000    0.000    0.000    0.000 
#
# Total GULP energy -312564.363450 kJ/mol
# GULP energy per Si atom -5581.506490 kJ/mol
# Density = 1.721080 g / cm^3
# Si number density = 17.250065 Si / 1000 Ang^3
#
#
#
# Elastic Constant Matrix: (Units=GPa)
#
#
# Indices 1 2 3 4 5 6 
#
# 1 140.7323 40.8953 43.5603 0.0000 0.0000 0.0000
# 2 40.8953 80.9764 19.3427 0.0000 0.0000 0.0000
# 3 43.5603 19.3427 62.7419 0.0000 0.0000 0.0000
# 4 0.0000 0.0000 0.0000 20.7373 0.0000 0.0000
# 5 0.0000 0.0000 0.0000 0.0000 35.1959 0.0000
# 6 0.0000 0.0000 0.0000 0.0000 0.0000 -46.8163
#
#
#
# Elastic Compliance Matrix: (Units=1/GPa)
#
#
# Indices 1 2 3 4 5 6 
#
# 1 0.009957 -0.003646 -0.005789 0.000000 0.000000 0.000000
# 2 -0.003646 0.014666 -0.001990 0.000000 0.000000 0.000000
# 3 -0.005789 -0.001990 0.020571 0.000000 0.000000 0.000000
# 4 0.000000 0.000000 0.000000 0.048222 0.000000 0.000000
# 5 0.000000 0.000000 0.000000 0.000000 0.028412 0.000000
# 6 0.000000 0.000000 0.000000 0.000000 0.000000 -0.021360
#
#
# Mechanical properties :
#
#
# Convention : Reuss Voigt Hill
#
# Bulk Modulus (GPa) = 44.75459 54.67193 49.71326
# Shear Modulus (GPa) = 38.23621 13.86686 26.05153
#
# Velocity S-wave (km/s) = 4.71317 2.83834 3.89038
# Velocity P-wave (km/s) = 7.45785 6.51952 7.00441
#
# Compressibility (1/GPa) = 0.02234408
#
# Stress axis : x y z
#
# Youngs Moduli (GPa) = 100.43257 68.18549 48.61212
#
# Poissons Ratio (x) = 0.24859 0.28141
# Poissons Ratio (y) = 0.36615 0.09675
# Poissons Ratio (z) = 0.58140 0.13570
#
# Static dielectric constant tensor:
#      x y z
#    x 1.569280 0.000000 0.000000 
#    y 0.000000 1.565400 0.000000 
#    z 0.000000 0.000000 1.615590 
# 
# From -- ./inp_files/27980.got.cif
#   From: 2010.05.17/outbox.cif.g08.bks.cpg/sg69_14_cif.got.tgz:27980.got - 2010.06.03 19:29:58.
