data_PCOD9512888
_publ_section_title
;
Structure prediction by ZEFSAII (Michael W. Deem and Ramdas Pophale) SiO2 
 PCOD9512888
Probable space group: F M M M
;
_chemical_formula_sum "Si O2"
_cell_formula_units_Z 168
_cell_length_a 16.658477
_cell_length_b 27.797734
_cell_length_c 14.350148
_cell_angle_alpha 90.000000
_cell_angle_beta 90.000000
_cell_angle_gamma 90.000000
_cell_volume 6645.093078
_symmetry_space_group_name_H-M "F M M M"
_symmetry_group_IT_number 69
_symmetry_cell_setting 'orthorhombic'
loop_
_space_group_symop_operation_xyz
x,y,z
-x,-y,z
x,-y,-z
-x,y,-z
-x,-y,-z
x,y,-z
-x,y,z
x,-y,z
x,1/2+y,1/2+z
-x,1/2-y,1/2+z
x,1/2-y,1/2-z
-x,1/2+y,1/2-z
-x,1/2-y,1/2-z
x,1/2+y,1/2-z
-x,1/2+y,1/2+z
x,1/2-y,1/2+z
1/2+x,y,1/2+z
1/2-x,-y,1/2+z
1/2+x,-y,1/2-z
1/2-x,y,1/2-z
1/2-x,-y,1/2-z
1/2+x,y,1/2-z
1/2-x,y,1/2+z
1/2+x,-y,1/2+z
1/2+x,1/2+y,z
1/2-x,1/2-y,z
1/2+x,1/2-y,-z
1/2-x,1/2+y,-z
1/2-x,1/2-y,-z
1/2+x,1/2+y,-z
1/2-x,1/2+y,z
1/2+x,1/2-y,z
loop_
_atom_site_type_symbol
_atom_site_label
_atom_site_fract_x
_atom_site_fract_y
_atom_site_fract_z
Si Si1 0.164041 0.806592 0.141861
Si Si2 0.848456 0.806039 0.634008
Si Si3 0.585145 0.599601 0.894026
Si Si4 0.914932 0.941935 0.387963
Si Si5 0.000000 0.169585 0.500000
Si Si6 0.245563 0.943530 0.887184
O O1 0.152224 0.810367 0.253644
O O2 0.149104 0.751540 0.114695
O O3 0.100590 0.843809 0.101889
O O4 0.074206 0.672171 0.080970
O O5 0.830237 0.922167 0.645268
O O6 0.755353 0.820387 0.610837
O O7 0.500000 0.587350 0.851047
O O8 0.664608 0.578479 0.849142
O O9 0.583319 0.580807 0.000000
O O10 0.917429 0.934465 0.500000
O O11 0.000000 0.924178 0.352015
O O12 0.912969 0.000000 0.375288
O O13 0.244108 0.000000 0.866402
O O14 0.246340 0.938888 0.000000
#
# Coordination Sequence:
#
# PCOD9512888 Si02
#       6
#    32  32  32  32   8  32
#     4   9  20  41  58  80 126 171 202 240 323 391
#     4   9  22  38  60  88 119 164 204 254 320 377
#     4  10  21  30  49  79 107 156 215 257 299 367
#     4   7   9  15  32  55  81 124 181 231 282 349
#     4  12  24  32  64 104 120 148 218 276 304 362
#     4   8  14  26  41  65 107 150 191 248 308 360
#
# _framework density 25.281813
#
# number of rings (size 3 to 8) (size 9 to 14) (size 15 to 20)
#    0.000    3.238    0.000    2.857    5.333    1.905 
#    0.000    1.905    2.095    0.000    0.000    2.667 
#    0.000    0.000    0.000    2.762    0.000    0.000 
#
# Total GULP energy -234042.238484 kJ/mol
# GULP energy per Si atom -5572.434250 kJ/mol
# Density = 2.522427 g / cm^3
# Si number density = 25.281813 Si / 1000 Ang^3
#
#
#
# Elastic Constant Matrix: (Units=GPa)
#
#
# Indices 1 2 3 4 5 6 
#
# 1 312.0066 60.2634 44.8689 0.0000 0.0000 0.0000
# 2 60.2634 47.1464 1.5519 0.0000 0.0000 0.0000
# 3 44.8689 1.5519 142.8965 0.0000 0.0000 0.0000
# 4 0.0000 0.0000 0.0000 18.1089 0.0000 0.0000
# 5 0.0000 0.0000 0.0000 0.0000 -3.6215 0.0000
# 6 0.0000 0.0000 0.0000 0.0000 0.0000 31.4524
#
#
#
# Elastic Compliance Matrix: (Units=1/GPa)
#
#
# Indices 1 2 3 4 5 6 
#
# 1 0.004502 -0.005711 -0.001352 0.000000 0.000000 0.000000
# 2 -0.005711 0.028461 0.001484 0.000000 0.000000 0.000000
# 3 -0.001352 0.001484 0.007406 0.000000 0.000000 0.000000
# 4 0.000000 0.000000 0.000000 0.055221 0.000000 0.000000
# 5 0.000000 0.000000 0.000000 0.000000 -0.276128 0.000000
# 6 0.000000 0.000000 0.000000 0.000000 0.000000 0.031794
#
#
# Mechanical properties :
#
#
# Convention : Reuss Voigt Hill
#
# Bulk Modulus (GPa) = 34.23107 79.49089 56.86098
# Shear Modulus (GPa) = -39.10896 35.54566 -1.78165
#
# Velocity S-wave (km/s) = -3.93736 3.75370 -0.84038
# Velocity P-wave (km/s) = 2.66481 7.09206 4.64737
#
# Compressibility (1/GPa) = 0.02921323
#
# Stress axis : x y z
#
# Youngs Moduli (GPa) = 222.10179 35.13573 135.01854
#
# Poissons Ratio (x) = 0.20065 0.18251
# Poissons Ratio (y) = 1.26834 -0.20037
# Poissons Ratio (z) = 0.30022 -0.05214
#
# Static dielectric constant tensor:
#      x y z
#    x 2.034330 0.000000 0.000000 
#    y 0.000000 2.035890 0.000000 
#    z 0.000000 0.000000 1.985040 
# 
# From -- ./inp_files/16930.got.cif
#   From: 2010.05.17/outbox.cif.g08.bks.cpg/sg69_9_cif.got.tgz:16930.got - 2010.06.03 19:29:58.
