data_PCOD9512637
_publ_section_title
;
Structure prediction by ZEFSAII (Michael W. Deem and Ramdas Pophale) SiO2 
 PCOD9512637
Probable space group: F M M M
;
_chemical_formula_sum "Si O2"
_cell_formula_units_Z 192
_cell_length_a 25.212174
_cell_length_b 24.079999
_cell_length_c 18.159520
_cell_angle_alpha 90.000000
_cell_angle_beta 90.000000
_cell_angle_gamma 90.000000
_cell_volume 11024.810292
_symmetry_space_group_name_H-M "F M M M"
_symmetry_group_IT_number 69
_symmetry_cell_setting 'orthorhombic'
loop_
_space_group_symop_operation_xyz
x,y,z
-x,-y,z
x,-y,-z
-x,y,-z
-x,-y,-z
x,y,-z
-x,y,z
x,-y,z
x,1/2+y,1/2+z
-x,1/2-y,1/2+z
x,1/2-y,1/2-z
-x,1/2+y,1/2-z
-x,1/2-y,1/2-z
x,1/2+y,1/2-z
-x,1/2+y,1/2+z
x,1/2-y,1/2+z
1/2+x,y,1/2+z
1/2-x,-y,1/2+z
1/2+x,-y,1/2-z
1/2-x,y,1/2-z
1/2-x,-y,1/2-z
1/2+x,y,1/2-z
1/2-x,y,1/2+z
1/2+x,-y,1/2+z
1/2+x,1/2+y,z
1/2-x,1/2-y,z
1/2+x,1/2-y,-z
1/2-x,1/2+y,-z
1/2-x,1/2-y,-z
1/2+x,1/2+y,-z
1/2-x,1/2+y,z
1/2+x,1/2-y,z
loop_
_atom_site_type_symbol
_atom_site_label
_atom_site_fract_x
_atom_site_fract_y
_atom_site_fract_z
Si Si1 0.680576 0.500000 0.173089
Si Si2 0.659530 0.119198 0.144655
Si Si3 0.937479 0.288018 0.677878
Si Si4 0.697600 0.000000 0.849942
Si Si5 0.653661 0.123440 0.318728
Si Si6 0.257350 0.685990 0.086500
Si Si7 0.438869 0.317592 0.587231
O O1 0.690159 0.500000 0.261293
O O2 0.739160 0.500000 0.136771
O O3 0.652051 0.441344 0.157216
O O4 0.669308 0.124320 0.232284
O O5 0.701569 0.156425 0.101579
O O6 0.601191 0.141103 0.127000
O O7 0.670351 0.055860 0.122342
O O8 0.926068 0.250000 0.750000
O O9 0.900419 0.341604 0.674739
O O10 0.926527 0.245610 0.610981
O O11 0.000000 0.301954 0.679172
O O12 0.698374 0.154897 0.365685
O O13 0.250000 0.750000 0.108567
O O14 0.270841 0.683840 0.000000
O O15 0.434163 0.323885 0.500000
O O16 0.500000 0.327563 0.609509
#
# Coordination Sequence:
#
# PCOD9512637 Si02
#       7
#    16  32  32  16  32  32  32
#     4   9  18  36  53  79 113 147 189 236 282 326
#     4  11  20  36  58  80 108 149 194 230 276 337
#     4  10  20  36  58  86 113 143 188 232 274 335
#     4   9  18  34  55  78 107 148 190 234 271 326
#     4  11  21  35  59  82 109 150 190 237 283 334
#     4  11  24  36  50  79 117 146 181 238 294 345
#     4  10  21  37  58  85 118 150 180 227 288 339
#
# _framework density 17.415265999999999
#
# number of rings (size 3 to 8) (size 9 to 14) (size 15 to 20)
#    0.000    1.667    3.333    2.000    0.000    2.667 
#    0.000    3.750    0.000    4.000    0.000    0.000 
#    0.000    4.000    0.000    0.000    0.000    0.000 
#
# Total GULP energy -267894.310570 kJ/mol
# GULP energy per Si atom -5581.131470 kJ/mol
# Density = 1.737563 g / cm^3
# Si number density = 17.415266 Si / 1000 Ang^3
#
#
#
# Elastic Constant Matrix: (Units=GPa)
#
#
# Indices 1 2 3 4 5 6 
#
# 1 88.2888 79.8904 16.6448 0.0000 0.0000 0.0000
# 2 79.8904 178.7336 28.5342 0.0000 0.0000 0.0000
# 3 16.6448 28.5342 40.2293 0.0000 0.0000 0.0000
# 4 0.0000 0.0000 0.0000 -19.7081 0.0000 0.0000
# 5 0.0000 0.0000 0.0000 0.0000 18.6128 0.0000
# 6 0.0000 0.0000 0.0000 0.0000 0.0000 6.2801
#
#
#
# Elastic Compliance Matrix: (Units=1/GPa)
#
#
# Indices 1 2 3 4 5 6 
#
# 1 0.019174 -0.008236 -0.002091 0.000000 0.000000 0.000000
# 2 -0.008236 0.009847 -0.003577 0.000000 0.000000 0.000000
# 3 -0.002091 -0.003577 0.028260 0.000000 0.000000 0.000000
# 4 0.000000 0.000000 0.000000 -0.050741 0.000000 0.000000
# 5 0.000000 0.000000 0.000000 0.000000 0.053726 0.000000
# 6 0.000000 0.000000 0.000000 0.000000 0.000000 0.159234
#
#
# Mechanical properties :
#
#
# Convention : Reuss Voigt Hill
#
# Bulk Modulus (GPa) = 33.93041 61.93228 47.93135
# Shear Modulus (GPa) = 19.44517 13.18245 16.31381
#
# Velocity S-wave (km/s) = 3.34512 2.75425 3.06396
# Velocity P-wave (km/s) = 5.86900 6.76416 6.33242
#
# Compressibility (1/GPa) = 0.02947208
#
# Stress axis : x y z
#
# Youngs Moduli (GPa) = 52.15509 101.54893 35.38606
#
# Poissons Ratio (x) = 0.83640 0.07399
# Poissons Ratio (y) = 0.42957 0.12657
# Poissons Ratio (z) = 0.10906 0.36323
#
# Static dielectric constant tensor:
#      x y z
#    x 1.579920 0.000000 0.000000 
#    y 0.000000 1.591670 0.000000 
#    z 0.000000 0.000000 1.604010 
# 
# From -- ./inp_files/32925.got.cif
#   From: 2010.05.17/outbox.cif.g08.bks.cpg/sg69_17_cif.got.tgz:32925.got - 2010.06.03 19:29:58.
