data_PCOD9512399
_publ_section_title
;
Structure prediction by ZEFSAII (Michael W. Deem and Ramdas Pophale) SiO2 
 PCOD9512399
Probable space group: F M M M
;
_chemical_formula_sum "Si O2"
_cell_formula_units_Z 152
_cell_length_a 19.893991
_cell_length_b 26.387443
_cell_length_c 13.642297
_cell_angle_alpha 90.000000
_cell_angle_beta 90.000000
_cell_angle_gamma 90.000000
_cell_volume 7161.545004
_symmetry_space_group_name_H-M "F M M M"
_symmetry_group_IT_number 69
_symmetry_cell_setting 'orthorhombic'
loop_
_space_group_symop_operation_xyz
x,y,z
-x,-y,z
x,-y,-z
-x,y,-z
-x,-y,-z
x,y,-z
-x,y,z
x,-y,z
x,1/2+y,1/2+z
-x,1/2-y,1/2+z
x,1/2-y,1/2-z
-x,1/2+y,1/2-z
-x,1/2-y,1/2-z
x,1/2+y,1/2-z
-x,1/2+y,1/2+z
x,1/2-y,1/2+z
1/2+x,y,1/2+z
1/2-x,-y,1/2+z
1/2+x,-y,1/2-z
1/2-x,y,1/2-z
1/2-x,-y,1/2-z
1/2+x,y,1/2-z
1/2-x,y,1/2+z
1/2+x,-y,1/2+z
1/2+x,1/2+y,z
1/2-x,1/2-y,z
1/2+x,1/2-y,-z
1/2-x,1/2+y,-z
1/2-x,1/2-y,-z
1/2+x,1/2+y,-z
1/2-x,1/2+y,z
1/2+x,1/2-y,z
loop_
_atom_site_type_symbol
_atom_site_label
_atom_site_fract_x
_atom_site_fract_y
_atom_site_fract_z
Si Si1 0.343179 0.282564 0.000000
Si Si2 0.077525 0.912984 0.778297
Si Si3 0.422560 0.298624 0.809230
Si Si4 0.418412 0.556285 0.000000
Si Si5 0.797664 0.584554 0.157961
Si Si6 0.255388 0.000000 0.000000
Si Si7 0.694958 0.329033 0.500000
O O1 0.379141 0.303396 0.905119
O O2 0.350250 0.221400 0.000000
O O3 0.268507 0.304032 0.000000
O O4 0.078402 0.852793 0.757244
O O5 0.097058 0.920472 0.893509
O O6 0.132552 0.935770 0.705549
O O7 0.000000 0.931070 0.767519
O O8 0.500000 0.288405 0.836668
O O9 0.397780 0.250000 0.750000
O O10 0.385709 0.500000 0.000000
O O11 0.500000 0.553068 0.000000
O O12 0.750000 0.596597 0.250000
O O13 0.763240 0.544356 0.085977
O O14 0.812107 0.634753 0.093890
#
# Coordination Sequence:
#
# PCOD9512399 Si02
#       7
#    16  32  32  16  32   8  16
#     4  11  20  36  58  85 120 162 192 252 291 341
#     4  10  21  38  62  91 123 158 199 248 300 355
#     4  10  20  34  56  88 121 156 197 238 295 366
#     4   9  19  35  57  91 121 144 191 245 295 353
#     4  11  23  44  64  85 119 159 195 253 305 364
#     4  10  26  44  61  92 115 148 212 246 300 384
#     4  10  24  38  57  88 119 152 214 244 289 353
#
# _framework density 21.224471000000001
#
# number of rings (size 3 to 8) (size 9 to 14) (size 15 to 20)
#    0.000    1.789    0.000    3.789    1.474    3.368 
#    1.895    5.789    0.000    0.000    0.000    0.000 
#    0.000    0.000    0.000    0.000    0.000    0.000 
#
# Total GULP energy -211703.285495 kJ/mol
# GULP energy per Si atom -5571.139092 kJ/mol
# Density = 2.117616 g / cm^3
# Si number density = 21.224471 Si / 1000 Ang^3
#
#
#
# Elastic Constant Matrix: (Units=GPa)
#
#
# Indices 1 2 3 4 5 6 
#
# 1 35.4777 -14.3515 32.4329 0.0000 0.0000 0.0000
# 2 -14.3515 86.3686 14.0199 0.0000 0.0000 0.0000
# 3 32.4329 14.0199 112.0821 0.0000 0.0000 0.0000
# 4 0.0000 0.0000 0.0000 21.6983 0.0000 0.0000
# 5 0.0000 0.0000 0.0000 0.0000 33.1319 0.0000
# 6 0.0000 0.0000 0.0000 0.0000 0.0000 14.5897
#
#
#
# Elastic Compliance Matrix: (Units=1/GPa)
#
#
# Indices 1 2 3 4 5 6 
#
# 1 0.045274 0.009850 -0.014333 0.000000 0.000000 0.000000
# 2 0.009850 0.013961 -0.004596 0.000000 0.000000 0.000000
# 3 -0.014333 -0.004596 0.013644 0.000000 0.000000 0.000000
# 4 0.000000 0.000000 0.000000 0.046087 0.000000 0.000000
# 5 0.000000 0.000000 0.000000 0.000000 0.030182 0.000000
# 6 0.000000 0.000000 0.000000 0.000000 0.000000 0.068542
#
#
# Mechanical properties :
#
#
# Convention : Reuss Voigt Hill
#
# Bulk Modulus (GPa) = 18.27492 33.12568 25.70030
# Shear Modulus (GPa) = 19.67813 27.33911 23.50862
#
# Velocity S-wave (km/s) = 3.04821 3.59290 3.33170
# Velocity P-wave (km/s) = 4.58451 5.73176 5.18993
#
# Compressibility (1/GPa) = 0.05471981
#
# Stress axis : x y z
#
# Youngs Moduli (GPa) = 22.08786 71.62771 73.29002
#
# Poissons Ratio (x) = -0.70550 1.05045
# Poissons Ratio (y) = -0.21756 0.33688
# Poissons Ratio (z) = 0.31658 0.32924
#
# Static dielectric constant tensor:
#      x y z
#    x 1.819060 0.000000 0.000000 
#    y 0.000000 1.805250 0.000000 
#    z 0.000000 0.000000 1.707940 
# 
# From -- ./inp_files/16830.got.cif
#   From: 2010.05.17/outbox.cif.g08.bks.cpg/sg69_9_cif.got.tgz:16830.got - 2010.06.03 19:29:58.
