data_PCOD9512360
_publ_section_title
;
Structure prediction by ZEFSAII (Michael W. Deem and Ramdas Pophale) SiO2 
 PCOD9512360
Probable space group: F M M M
;
_chemical_formula_sum "Si O2"
_cell_formula_units_Z 160
_cell_length_a 25.981929
_cell_length_b 18.368535
_cell_length_c 19.264010
_cell_angle_alpha 90.000000
_cell_angle_beta 90.000000
_cell_angle_gamma 90.000000
_cell_volume 9193.748237
_symmetry_space_group_name_H-M "F M M M"
_symmetry_group_IT_number 69
_symmetry_cell_setting 'orthorhombic'
loop_
_space_group_symop_operation_xyz
x,y,z
-x,-y,z
x,-y,-z
-x,y,-z
-x,-y,-z
x,y,-z
-x,y,z
x,-y,z
x,1/2+y,1/2+z
-x,1/2-y,1/2+z
x,1/2-y,1/2-z
-x,1/2+y,1/2-z
-x,1/2-y,1/2-z
x,1/2+y,1/2-z
-x,1/2+y,1/2+z
x,1/2-y,1/2+z
1/2+x,y,1/2+z
1/2-x,-y,1/2+z
1/2+x,-y,1/2-z
1/2-x,y,1/2-z
1/2-x,-y,1/2-z
1/2+x,y,1/2-z
1/2-x,y,1/2+z
1/2+x,-y,1/2+z
1/2+x,1/2+y,z
1/2-x,1/2-y,z
1/2+x,1/2-y,-z
1/2-x,1/2+y,-z
1/2-x,1/2-y,-z
1/2+x,1/2+y,-z
1/2-x,1/2+y,z
1/2+x,1/2-y,z
loop_
_atom_site_type_symbol
_atom_site_label
_atom_site_fract_x
_atom_site_fract_y
_atom_site_fract_z
Si Si1 0.701674 0.914279 0.701109
Si Si2 0.000000 0.277475 0.578185
Si Si3 0.000000 0.165740 0.774636
Si Si4 0.698477 0.797824 0.580670
Si Si5 0.605534 0.687132 0.420061
Si Si6 0.901761 0.585890 0.790573
O O1 0.750000 0.894581 0.750000
O O2 0.700471 0.864558 0.633310
O O3 0.649296 0.903896 0.744427
O O4 0.706421 0.000000 0.683827
O O5 0.949415 0.227425 0.585009
O O6 0.000000 0.308972 0.500000
O O7 0.000000 0.333200 0.641771
O O8 0.000000 0.250000 0.750000
O O9 0.050353 0.126371 0.745058
O O10 0.694503 0.820975 0.500000
O O11 0.750000 0.750000 0.588028
O O12 0.649835 0.745930 0.596048
O O13 0.612700 0.663328 0.500000
O O14 0.607146 0.622289 0.365352
O O15 0.912023 0.500000 0.796538
#
# Coordination Sequence:
#
# PCOD9512360 Si02
#       6
#    32  16  16  32  32  32
#     4  10  22  38  56  81 114 149 186 231 282 332
#     4  10  20  34  54  82 109 139 184 228 271 329
#     4  12  21  36  61  84 109 151 188 227 285 331
#     4  10  21  36  56  83 110 142 188 234 274 331
#     4  10  20  35  55  81 112 145 183 226 277 334
#     4  11  23  37  56  84 115 146 188 234 277 336
#
# _framework density 17.403130000000001
#
# number of rings (size 3 to 8) (size 9 to 14) (size 15 to 20)
#    0.000    1.600    2.000    2.700    0.000    2.800 
#    0.000    0.000    0.000   12.600    0.000    0.000 
#    0.000    0.000    0.000    0.000    0.000    0.000 
#
# Total GULP energy -223432.684772 kJ/mol
# GULP energy per Si atom -5585.817119 kJ/mol
# Density = 1.736352 g / cm^3
# Si number density = 17.403130 Si / 1000 Ang^3
#
#
#
# Elastic Constant Matrix: (Units=GPa)
#
#
# Indices 1 2 3 4 5 6 
#
# 1 135.4516 71.2466 46.4172 0.0000 0.0000 0.0000
# 2 71.2466 117.3942 102.9979 0.0000 0.0000 0.0000
# 3 46.4172 102.9979 145.0658 0.0000 0.0000 0.0000
# 4 0.0000 0.0000 0.0000 1.9324 0.0000 0.0000
# 5 0.0000 0.0000 0.0000 0.0000 409.7748 0.0000
# 6 0.0000 0.0000 0.0000 0.0000 0.0000 19.3019
#
#
#
# Elastic Compliance Matrix: (Units=1/GPa)
#
#
# Indices 1 2 3 4 5 6 
#
# 1 0.011431 -0.009888 0.003363 0.000000 0.000000 0.000000
# 2 -0.009888 0.031145 -0.018949 0.000000 0.000000 0.000000
# 3 0.003363 -0.018949 0.019271 0.000000 0.000000 0.000000
# 4 0.000000 0.000000 0.000000 0.517493 0.000000 0.000000
# 5 0.000000 0.000000 0.000000 0.000000 0.002440 0.000000
# 6 0.000000 0.000000 0.000000 0.000000 0.000000 0.051808
#
#
# Mechanical properties :
#
#
# Convention : Reuss Voigt Hill
#
# Bulk Modulus (GPa) = 91.75280 93.24834 92.50057
# Shear Modulus (GPa) = 7.26563 98.01849 52.64206
#
# Velocity S-wave (km/s) = 2.04547 7.51296 5.50584
# Velocity P-wave (km/s) = 7.64298 11.35593 9.67916
#
# Compressibility (1/GPa) = 0.01089885
#
# Stress axis : x y z
#
# Youngs Moduli (GPa) = 87.47758 32.10782 51.89036
#
# Poissons Ratio (x) = 0.31750 -0.17451
# Poissons Ratio (y) = 0.86502 0.98328
# Poissons Ratio (z) = -0.29420 0.60842
#
# Static dielectric constant tensor:
#      x y z
#    x 1.581800 0.000000 0.000000 
#    y 0.000000 1.549630 0.000000 
#    z 0.000000 0.000000 1.589920 
# 
# From -- ./inp_files/24677.got.cif
#   From: 2010.05.17/outbox.cif.g08.bks.cpg/sg69_13_cif.got.tgz:24677.got - 2010.06.03 19:29:58.
