data_PCOD9512201
_publ_section_title
;
Structure prediction by ZEFSAII (Michael W. Deem and Ramdas Pophale) SiO2 
 PCOD9512201
Probable space group: F M M M
;
_chemical_formula_sum "Si O2"
_cell_formula_units_Z 160
_cell_length_a 17.373463
_cell_length_b 31.917646
_cell_length_c 15.172445
_cell_angle_alpha 90.000000
_cell_angle_beta 90.000000
_cell_angle_gamma 90.000000
_cell_volume 8413.424836
_symmetry_space_group_name_H-M "F M M M"
_symmetry_group_IT_number 69
_symmetry_cell_setting 'orthorhombic'
loop_
_space_group_symop_operation_xyz
x,y,z
-x,-y,z
x,-y,-z
-x,y,-z
-x,-y,-z
x,y,-z
-x,y,z
x,-y,z
x,1/2+y,1/2+z
-x,1/2-y,1/2+z
x,1/2-y,1/2-z
-x,1/2+y,1/2-z
-x,1/2-y,1/2-z
x,1/2+y,1/2-z
-x,1/2+y,1/2+z
x,1/2-y,1/2+z
1/2+x,y,1/2+z
1/2-x,-y,1/2+z
1/2+x,-y,1/2-z
1/2-x,y,1/2-z
1/2-x,-y,1/2-z
1/2+x,y,1/2-z
1/2-x,y,1/2+z
1/2+x,-y,1/2+z
1/2+x,1/2+y,z
1/2-x,1/2-y,z
1/2+x,1/2-y,-z
1/2-x,1/2+y,-z
1/2-x,1/2-y,-z
1/2+x,1/2+y,-z
1/2-x,1/2+y,z
1/2+x,1/2-y,z
loop_
_atom_site_type_symbol
_atom_site_label
_atom_site_fract_x
_atom_site_fract_y
_atom_site_fract_z
Si Si1 0.160481 0.760397 0.500000
Si Si2 0.089478 0.679000 0.142037
Si Si3 0.321425 0.047479 0.683196
Si Si4 0.585298 0.394201 0.500000
Si Si5 0.407128 0.367613 0.186543
Si Si6 0.092314 0.831447 0.000000
Si Si7 0.234739 0.951516 0.500000
O O1 0.250000 0.750000 0.500000
O O2 0.136675 0.787325 0.413998
O O3 0.115105 0.716883 0.500000
O O4 0.089602 0.636599 0.083992
O O5 0.118046 0.665390 0.238337
O O6 0.000000 0.693225 0.147420
O O7 0.250000 0.048637 0.750000
O O8 0.377741 0.085597 0.704975
O O9 0.286343 0.054999 0.586369
O O10 0.354457 0.000000 0.686230
O O11 0.500000 0.414339 0.500000
O O12 0.658223 0.424030 0.500000
O O13 0.500000 0.367557 0.188381
O O14 0.379841 0.353118 0.089963
O O15 0.000000 0.834946 0.000000
O O16 0.210638 0.000000 0.500000
#
# Coordination Sequence:
#
# PCOD9512201 Si02
#       7
#    16  32  32  16  32  16  16
#     4  11  23  38  57  85 113 141 179 222 273 334
#     4   9  19  37  58  79 108 144 180 225 283 332
#     4  10  21  36  54  79 113 150 184 224 279 334
#     4   9  17  32  55  79 103 140 190 234 275 332
#     4  10  21  37  59  84 108 144 191 232 273 326
#     4  10  22  39  57  80 111 144 183 229 274 324
#     4  10  20  33  50  76 112 150 182 222 283 338
#
# _framework density 19.017226000000001
#
# number of rings (size 3 to 8) (size 9 to 14) (size 15 to 20)
#    0.000    2.200    0.000    3.300    0.000    6.200 
#    0.000    4.000    0.000   10.800    0.000    0.000 
#    0.000    0.000    0.000    0.000    0.000    0.000 
#
# Total GULP energy -223240.025553 kJ/mol
# GULP energy per Si atom -5581.000639 kJ/mol
# Density = 1.897394 g / cm^3
# Si number density = 19.017226 Si / 1000 Ang^3
#
#
#
# Elastic Constant Matrix: (Units=GPa)
#
#
# Indices 1 2 3 4 5 6 
#
# 1 32.0920 39.6276 22.1985 0.0000 0.0000 0.0000
# 2 39.6276 115.5328 42.9813 0.0000 0.0000 0.0000
# 3 22.1985 42.9813 137.3104 0.0000 0.0000 0.0000
# 4 0.0000 0.0000 0.0000 20.5341 0.0000 0.0000
# 5 0.0000 0.0000 0.0000 0.0000 8.7936 0.0000
# 6 0.0000 0.0000 0.0000 0.0000 0.0000 45.2700
#
#
#
# Elastic Compliance Matrix: (Units=1/GPa)
#
#
# Indices 1 2 3 4 5 6 
#
# 1 0.055427 -0.017744 -0.003406 0.000000 0.000000 0.000000
# 2 -0.017744 0.015477 -0.001976 0.000000 0.000000 0.000000
# 3 -0.003406 -0.001976 0.008452 0.000000 0.000000 0.000000
# 4 0.000000 0.000000 0.000000 0.048700 0.000000 0.000000
# 5 0.000000 0.000000 0.000000 0.000000 0.113719 0.000000
# 6 0.000000 0.000000 0.000000 0.000000 0.000000 0.022090
#
#
# Mechanical properties :
#
#
# Convention : Reuss Voigt Hill
#
# Bulk Modulus (GPa) = 30.20868 54.95000 42.57934
# Shear Modulus (GPa) = 15.56896 26.92805 21.24851
#
# Velocity S-wave (km/s) = 2.86436 3.76704 3.34627
# Velocity P-wave (km/s) = 5.18255 6.91942 6.11298
#
# Compressibility (1/GPa) = 0.03310307
#
# Stress axis : x y z
#
# Youngs Moduli (GPa) = 18.04161 64.61236 118.31515
#
# Poissons Ratio (x) = 1.14650 0.40303
# Poissons Ratio (y) = 0.32013 0.23379
# Poissons Ratio (z) = 0.06146 0.12767
#
# Static dielectric constant tensor:
#      x y z
#    x 1.637540 0.000000 0.000000 
#    y 0.000000 1.643130 0.000000 
#    z 0.000000 0.000000 1.695270 
# 
# From -- ./inp_files/15729.got.cif
#   From: 2010.05.17/outbox.cif.g08.bks.cpg/sg69_8_cif.got.tgz:15729.got - 2010.06.03 19:29:58.
