data_PCOD9512694
_publ_section_title
;
Structure prediction by ZEFSAII (Michael W. Deem and Ramdas Pophale) SiO2 
 PCOD9512694
Probable space group: F M M M
;
_chemical_formula_sum "Si O2"
_cell_formula_units_Z 176
_cell_length_a 16.726466
_cell_length_b 18.846396
_cell_length_c 27.909694
_cell_angle_alpha 90.000000
_cell_angle_beta 90.000000
_cell_angle_gamma 90.000000
_cell_volume 8798.073368
_symmetry_space_group_name_H-M "F M M M"
_symmetry_group_IT_number 69
_symmetry_cell_setting 'orthorhombic'
loop_
_space_group_symop_operation_xyz
x,y,z
-x,-y,z
x,-y,-z
-x,y,-z
-x,-y,-z
x,y,-z
-x,y,z
x,-y,z
x,1/2+y,1/2+z
-x,1/2-y,1/2+z
x,1/2-y,1/2-z
-x,1/2+y,1/2-z
-x,1/2-y,1/2-z
x,1/2+y,1/2-z
-x,1/2+y,1/2+z
x,1/2-y,1/2+z
1/2+x,y,1/2+z
1/2-x,-y,1/2+z
1/2+x,-y,1/2-z
1/2-x,y,1/2-z
1/2-x,-y,1/2-z
1/2+x,y,1/2-z
1/2-x,y,1/2+z
1/2+x,-y,1/2+z
1/2+x,1/2+y,z
1/2-x,1/2-y,z
1/2+x,1/2-y,-z
1/2-x,1/2+y,-z
1/2-x,1/2-y,-z
1/2+x,1/2+y,-z
1/2-x,1/2+y,z
1/2+x,1/2-y,z
loop_
_atom_site_type_symbol
_atom_site_label
_atom_site_fract_x
_atom_site_fract_y
_atom_site_fract_z
Si Si1 0.409222 0.584558 0.298271
Si Si2 0.148559 0.835235 0.892965
Si Si3 0.095754 0.314187 0.714946
Si Si4 0.908123 0.300968 0.056654
Si Si5 0.500000 0.085439 0.442800
Si Si6 0.185311 0.585093 0.107204
O O1 0.500000 0.609506 0.310086
O O2 0.410461 0.500000 0.295987
O O3 0.388671 0.616522 0.246951
O O4 0.348909 0.604848 0.340216
O O5 0.135023 0.820530 0.836672
O O6 0.145394 0.758969 0.918471
O O7 0.229057 0.879338 0.900097
O O8 0.076529 0.880403 0.916637
O O9 0.120988 0.250000 0.750000
O O10 0.000000 0.307073 0.707279
O O11 0.875919 0.378058 0.070771
O O12 0.000000 0.291757 0.072978
O O13 0.905609 0.291121 0.000000
O O14 0.500000 0.102570 0.500000
O O15 0.500000 0.000000 0.438100
O O16 0.188062 0.500000 0.103012
#
# Coordination Sequence:
#
# PCOD9512694 Si02
#       6
#    32  32  32  32  16  32
#     4   9  19  37  60  86 122 169 211 254 312 378
#     4  12  23  42  66  96 131 171 215 271 327 390
#     4  10  20  36  61  93 126 168 219 268 311 373
#     4  11  24  44  70  94 122 166 219 271 328 395
#     4  11  24  42  65  92 127 173 220 267 325 392
#     4  11  25  42  63  97 136 170 212 268 331 390
#
# _framework density 20.004380000000001
#
# number of rings (size 3 to 8) (size 9 to 14) (size 15 to 20)
#    0.000    1.364    1.818    3.273    0.000    7.273 
#    0.000    3.636    0.000    0.000    0.000    0.000 
#    0.000    0.000    0.000    0.000    0.000    0.000 
#
# Total GULP energy -245961.863207 kJ/mol
# GULP energy per Si atom -5590.042346 kJ/mol
# Density = 1.995885 g / cm^3
# Si number density = 20.004380 Si / 1000 Ang^3
#
#
#
# Elastic Constant Matrix: (Units=GPa)
#
#
# Indices 1 2 3 4 5 6 
#
# 1 75.5744 40.7254 44.5229 0.0000 0.0000 0.0000
# 2 40.7254 79.7413 42.4040 0.0000 0.0000 0.0000
# 3 44.5229 42.4040 95.2927 0.0000 0.0000 0.0000
# 4 0.0000 0.0000 0.0000 36.5582 0.0000 0.0000
# 5 0.0000 0.0000 0.0000 0.0000 285.3419 0.0000
# 6 0.0000 0.0000 0.0000 0.0000 0.0000 18.3587
#
#
#
# Elastic Compliance Matrix: (Units=1/GPa)
#
#
# Indices 1 2 3 4 5 6 
#
# 1 0.021014 -0.007220 -0.006606 0.000000 0.000000 0.000000
# 2 -0.007220 0.018908 -0.005041 0.000000 0.000000 0.000000
# 3 -0.006606 -0.005041 0.015823 0.000000 0.000000 0.000000
# 4 0.000000 0.000000 0.000000 0.027354 0.000000 0.000000
# 5 0.000000 0.000000 0.000000 0.000000 0.003505 0.000000
# 6 0.000000 0.000000 0.000000 0.000000 0.000000 0.054470
#
#
# Mechanical properties :
#
#
# Convention : Reuss Voigt Hill
#
# Bulk Modulus (GPa) = 55.51333 56.21256 55.86294
# Shear Modulus (GPa) = 27.05473 76.24882 51.65178
#
# Velocity S-wave (km/s) = 3.68154 6.18052 5.08687
# Velocity P-wave (km/s) = 6.77366 8.89342 7.90492
#
# Compressibility (1/GPa) = 0.01801369
#
# Stress axis : x y z
#
# Youngs Moduli (GPa) = 47.58728 52.88691 63.19777
#
# Poissons Ratio (x) = 0.38182 0.41746
# Poissons Ratio (y) = 0.34356 0.31856
# Poissons Ratio (z) = 0.31434 0.26659
#
# Static dielectric constant tensor:
#      x y z
#    x 1.710270 0.000000 0.000000 
#    y 0.000000 1.712760 0.000000 
#    z 0.000000 0.000000 1.676490 
# 
# From -- ./inp_files/41818.got.cif
#   From: 2010.05.17/outbox.cif.g08.bks.cpg/sg69_21_cif.got.tgz:41818.got - 2010.06.03 19:29:58.
