data_PCOD9512223
_publ_section_title
;
Structure prediction by ZEFSAII (Michael W. Deem and Ramdas Pophale) SiO2 
 PCOD9512223
Probable space group: F M M M
;
_chemical_formula_sum "Si O2"
_cell_formula_units_Z 160
_cell_length_a 19.992363
_cell_length_b 14.438215
_cell_length_c 26.354438
_cell_angle_alpha 90.000000
_cell_angle_beta 90.000000
_cell_angle_gamma 90.000000
_cell_volume 7607.314878
_symmetry_space_group_name_H-M "F M M M"
_symmetry_group_IT_number 69
_symmetry_cell_setting 'orthorhombic'
loop_
_space_group_symop_operation_xyz
x,y,z
-x,-y,z
x,-y,-z
-x,y,-z
-x,-y,-z
x,y,-z
-x,y,z
x,-y,z
x,1/2+y,1/2+z
-x,1/2-y,1/2+z
x,1/2-y,1/2-z
-x,1/2+y,1/2-z
-x,1/2-y,1/2-z
x,1/2+y,1/2-z
-x,1/2+y,1/2+z
x,1/2-y,1/2+z
1/2+x,y,1/2+z
1/2-x,-y,1/2+z
1/2+x,-y,1/2-z
1/2-x,y,1/2-z
1/2-x,-y,1/2-z
1/2+x,y,1/2-z
1/2-x,y,1/2+z
1/2+x,-y,1/2+z
1/2+x,1/2+y,z
1/2-x,1/2-y,z
1/2+x,1/2-y,-z
1/2-x,1/2+y,-z
1/2-x,1/2-y,-z
1/2+x,1/2+y,-z
1/2-x,1/2+y,z
1/2+x,1/2-y,z
loop_
_atom_site_type_symbol
_atom_site_label
_atom_site_fract_x
_atom_site_fract_y
_atom_site_fract_z
Si Si1 0.576434 0.860304 0.747117
Si Si2 0.214279 0.892612 0.200085
Si Si3 0.079985 0.399895 0.138281
Si Si4 0.857468 0.777606 0.555580
Si Si5 0.227944 0.611756 0.415245
O O1 0.500000 0.892948 0.737359
O O2 0.573498 0.750000 0.750000
O O3 0.634337 0.886297 0.708020
O O4 0.600211 0.891923 0.802972
O O5 0.250000 0.851375 0.250000
O O6 0.234195 0.859879 0.144319
O O7 0.233546 0.000000 0.199240
O O8 0.104937 0.500000 0.118591
O O9 0.100956 0.316170 0.102751
O O10 0.000000 0.401547 0.139391
O O11 0.889304 0.787482 0.500000
O O12 0.833881 0.672085 0.563944
O O13 0.792210 0.844351 0.557562
O O14 0.222419 0.500000 0.420077
#
# Coordination Sequence:
#
# PCOD9512223 Si02
#       5
#    32  32  32  32  32
#     4  10  20  34  54  81 114 151 188 224 268 331
#     4  10  20  33  52  79 110 145 183 222 270 332
#     4  10  21  37  58  85 116 148 185 233 287 341
#     4  11  23  38  58  82 109 145 190 240 292 344
#     4  10  21  37  56  81 113 146 185 233 283 338
#
# _framework density 21.032388000000001
#
# number of rings (size 3 to 8) (size 9 to 14) (size 15 to 20)
#    0.000    1.800    0.000    4.800    0.000    8.000 
#    0.000    1.000    0.000    1.800    0.000    1.400 
#    0.000    0.000    0.000    0.000    0.000    0.000 
#
# Total GULP energy -223290.832665 kJ/mol
# GULP energy per Si atom -5582.270817 kJ/mol
# Density = 2.098452 g / cm^3
# Si number density = 21.032388 Si / 1000 Ang^3
#
#
#
# Elastic Constant Matrix: (Units=GPa)
#
#
# Indices 1 2 3 4 5 6 
#
# 1 41.6775 4.4512 14.0404 0.0000 0.0000 0.0000
# 2 4.4512 135.1529 12.3377 0.0000 0.0000 0.0000
# 3 14.0404 12.3377 89.4377 0.0000 0.0000 0.0000
# 4 0.0000 0.0000 0.0000 26.5838 0.0000 0.0000
# 5 0.0000 0.0000 0.0000 0.0000 -190.3925 0.0000
# 6 0.0000 0.0000 0.0000 0.0000 0.0000 29.4442
#
#
#
# Elastic Compliance Matrix: (Units=1/GPa)
#
#
# Indices 1 2 3 4 5 6 
#
# 1 0.025364 -0.000478 -0.003916 0.000000 0.000000 0.000000
# 2 -0.000478 0.007502 -0.000960 0.000000 0.000000 0.000000
# 3 -0.003916 -0.000960 0.011928 0.000000 0.000000 0.000000
# 4 0.000000 0.000000 0.000000 0.037617 0.000000 0.000000
# 5 0.000000 0.000000 0.000000 0.000000 -0.005252 0.000000
# 6 0.000000 0.000000 0.000000 0.000000 0.000000 0.033962
#
#
# Mechanical properties :
#
#
# Convention : Reuss Voigt Hill
#
# Bulk Modulus (GPa) = 29.33654 36.43630 32.88642
# Shear Modulus (GPa) = 37.54002 -11.17696 13.18153
#
# Velocity S-wave (km/s) = 4.22935 -2.30775 2.50616
# Velocity P-wave (km/s) = 6.15048 3.20321 4.90352
#
# Compressibility (1/GPa) = 0.03408718
#
# Stress axis : x y z
#
# Youngs Moduli (GPa) = 39.42602 133.29074 83.83554
#
# Poissons Ratio (x) = 0.06370 0.32829
# Poissons Ratio (y) = 0.01884 0.08048
# Poissons Ratio (z) = 0.15439 0.12795
#
# Static dielectric constant tensor:
#      x y z
#    x 1.784930 0.000000 0.000000 
#    y 0.000000 1.781330 0.000000 
#    z 0.000000 0.000000 1.771290 
# 
# From -- ./inp_files/17728.got.cif
#   From: 2010.05.17/outbox.cif.g08.bks.cpg/sg69_9_cif.got.tgz:17728.got - 2010.06.03 19:29:58.
