data_PCOD9512042
_publ_section_title
;
Structure prediction by ZEFSAII (Michael W. Deem and Ramdas Pophale) SiO2 
 PCOD9512042
Probable space group: F M M M
;
_chemical_formula_sum "Si O2"
_cell_formula_units_Z 192
_cell_length_a 30.134154
_cell_length_b 18.787007
_cell_length_c 19.203520
_cell_angle_alpha 90.000000
_cell_angle_beta 90.000000
_cell_angle_gamma 90.000000
_cell_volume 10871.699573
_symmetry_space_group_name_H-M "F M M M"
_symmetry_group_IT_number 69
_symmetry_cell_setting 'orthorhombic'
loop_
_space_group_symop_operation_xyz
x,y,z
-x,-y,z
x,-y,-z
-x,y,-z
-x,-y,-z
x,y,-z
-x,y,z
x,-y,z
x,1/2+y,1/2+z
-x,1/2-y,1/2+z
x,1/2-y,1/2-z
-x,1/2+y,1/2-z
-x,1/2-y,1/2-z
x,1/2+y,1/2-z
-x,1/2+y,1/2+z
x,1/2-y,1/2+z
1/2+x,y,1/2+z
1/2-x,-y,1/2+z
1/2+x,-y,1/2-z
1/2-x,y,1/2-z
1/2-x,-y,1/2-z
1/2+x,y,1/2-z
1/2-x,y,1/2+z
1/2+x,-y,1/2+z
1/2+x,1/2+y,z
1/2-x,1/2-y,z
1/2+x,1/2-y,-z
1/2-x,1/2+y,-z
1/2-x,1/2-y,-z
1/2+x,1/2+y,-z
1/2-x,1/2+y,z
1/2+x,1/2-y,z
loop_
_atom_site_type_symbol
_atom_site_label
_atom_site_fract_x
_atom_site_fract_y
_atom_site_fract_z
Si Si1 0.500000 0.582989 0.308015
Si Si2 0.921112 0.829824 0.081835
Si Si3 0.322053 0.791567 0.820768
Si Si4 0.574105 0.701015 0.316566
Si Si5 0.819337 0.656905 0.417163
Si Si6 0.242966 0.920254 0.333163
Si Si7 0.500000 0.079281 0.641517
O O1 0.500000 0.500000 0.333872
O O2 0.543078 0.632103 0.325405
O O3 0.500000 0.578182 0.224570
O O4 0.927512 0.753296 0.117506
O O5 0.871459 0.859300 0.093998
O O6 0.956774 0.880771 0.115575
O O7 0.927944 0.824111 0.000000
O O8 0.307346 0.750000 0.750000
O O9 0.373318 0.813675 0.807593
O O10 0.315760 0.734991 0.882759
O O11 0.294186 0.860297 0.840818
O O12 0.559966 0.750000 0.250000
O O13 0.810218 0.656514 0.500000
O O14 0.786520 0.605738 0.374748
O O15 0.250000 0.922406 0.250000
O O16 0.230701 0.000000 0.356043
O O17 0.500000 0.000000 0.613332
#
# Coordination Sequence:
#
# PCOD9512042 Si02
#       7
#    16  32  32  32  32  32  16
#     4  11  22  34  55  87 121 153 189 234 283 336
#     4  10  21  37  58  85 113 146 191 239 285 336
#     4  10  20  36  60  84 108 145 192 240 283 330
#     4  10  19  36  59  81 109 149 192 234 279 329
#     4  10  22  39  60  85 112 148 193 239 288 341
#     4  11  23  36  54  82 115 150 186 229 283 341
#     4  11  22  34  52  82 117 154 189 225 280 346
#
# _framework density 17.660532
#
# number of rings (size 3 to 8) (size 9 to 14) (size 15 to 20)
#    0.000    1.667    3.333    1.500    0.000    3.667 
#    0.000    5.000    0.000    1.000    0.000    4.667 
#    0.000    0.000    0.000    0.000    0.000    0.000 
#
# Total GULP energy -267734.867782 kJ/mol
# GULP energy per Si atom -5577.809745 kJ/mol
# Density = 1.762034 g / cm^3
# Si number density = 17.660532 Si / 1000 Ang^3
#
#
#
# Elastic Constant Matrix: (Units=GPa)
#
#
# Indices 1 2 3 4 5 6 
#
# 1 82.8749 68.7944 41.1092 0.0000 0.0000 0.0000
# 2 68.7944 112.9176 27.0541 0.0000 0.0000 0.0000
# 3 41.1092 27.0541 72.2201 0.0000 0.0000 0.0000
# 4 0.0000 0.0000 0.0000 2.9507 0.0000 0.0000
# 5 0.0000 0.0000 0.0000 0.0000 24.6272 0.0000
# 6 0.0000 0.0000 0.0000 0.0000 0.0000 -612.7380
#
#
#
# Elastic Compliance Matrix: (Units=1/GPa)
#
#
# Indices 1 2 3 4 5 6 
#
# 1 0.031509 -0.016369 -0.011804 0.000000 0.000000 0.000000
# 2 -0.016369 0.018233 0.002487 0.000000 0.000000 0.000000
# 3 -0.011804 0.002487 0.019634 0.000000 0.000000 0.000000
# 4 0.000000 0.000000 0.000000 0.338900 0.000000 0.000000
# 5 0.000000 0.000000 0.000000 0.000000 0.040606 0.000000
# 6 0.000000 0.000000 0.000000 0.000000 0.000000 -0.001632
#
#
# Mechanical properties :
#
#
# Convention : Reuss Voigt Hill
#
# Bulk Modulus (GPa) = 55.53962 60.21422 57.87692
# Shear Modulus (GPa) = 9.90842 -108.29504 -49.19331
#
# Velocity S-wave (km/s) = 2.37122 -7.83923 -5.28350
# Velocity P-wave (km/s) = 6.24609 6.91148 2.09225
#
# Compressibility (1/GPa) = 0.01800516
#
# Stress axis : x y z
#
# Youngs Moduli (GPa) = 31.73677 54.84678 50.93264
#
# Poissons Ratio (x) = 0.89777 0.60120
# Poissons Ratio (y) = 0.51949 -0.12669
# Poissons Ratio (z) = 0.37462 -0.13642
#
# Static dielectric constant tensor:
#      x y z
#    x 1.613410 0.000000 0.000000 
#    y 0.000000 1.596160 0.000000 
#    z 0.000000 0.000000 1.597820 
# 
# From -- ./inp_files/27824.got.cif
#   From: 2010.05.17/outbox.cif.g08.bks.cpg/sg69_14_cif.got.tgz:27824.got - 2010.06.03 19:29:58.
