data_PCOD9512401
_publ_section_title
;
Structure prediction by ZEFSAII (Michael W. Deem and Ramdas Pophale) SiO2 
 PCOD9512401
Probable space group: F M M M
;
_chemical_formula_sum "Si O2"
_cell_formula_units_Z 128
_cell_length_a 15.673411
_cell_length_b 23.287017
_cell_length_c 17.181231
_cell_angle_alpha 90.000000
_cell_angle_beta 90.000000
_cell_angle_gamma 90.000000
_cell_volume 6270.925760
_symmetry_space_group_name_H-M "F M M M"
_symmetry_group_IT_number 69
_symmetry_cell_setting 'orthorhombic'
loop_
_space_group_symop_operation_xyz
x,y,z
-x,-y,z
x,-y,-z
-x,y,-z
-x,-y,-z
x,y,-z
-x,y,z
x,-y,z
x,1/2+y,1/2+z
-x,1/2-y,1/2+z
x,1/2-y,1/2-z
-x,1/2+y,1/2-z
-x,1/2-y,1/2-z
x,1/2+y,1/2-z
-x,1/2+y,1/2+z
x,1/2-y,1/2+z
1/2+x,y,1/2+z
1/2-x,-y,1/2+z
1/2+x,-y,1/2-z
1/2-x,y,1/2-z
1/2-x,-y,1/2-z
1/2+x,y,1/2-z
1/2-x,y,1/2+z
1/2+x,-y,1/2+z
1/2+x,1/2+y,z
1/2-x,1/2-y,z
1/2+x,1/2-y,-z
1/2-x,1/2+y,-z
1/2-x,1/2-y,-z
1/2+x,1/2+y,-z
1/2-x,1/2+y,z
1/2+x,1/2-y,z
loop_
_atom_site_type_symbol
_atom_site_label
_atom_site_fract_x
_atom_site_fract_y
_atom_site_fract_z
Si Si1 0.768875 0.566851 0.410416
Si Si2 0.659320 0.341865 0.209648
Si Si3 0.146541 0.248333 0.085187
Si Si4 0.405755 0.875836 0.872339
O O1 0.792010 0.578816 0.500000
O O2 0.783482 0.500000 0.393814
O O3 0.817827 0.608183 0.351345
O O4 0.669298 0.582432 0.399394
O O5 0.750000 0.324261 0.250000
O O6 0.621390 0.290126 0.158907
O O7 0.603281 0.365734 0.279688
O O8 0.250000 0.250000 0.086848
O O9 0.112825 0.312766 0.092815
O O10 0.121390 0.225106 0.000000
O O11 0.500000 0.895289 0.893282
#
# Coordination Sequence:
#
# PCOD9512401 Si02
#       4
#    32  32  32  32
#     4  10  21  38  61  85 109 145 194 238 275 324
#     4  10  20  34  57  81 110 147 189 231 273 327
#     4  11  20  33  55  81 110 148 188 227 273 330
#     4  11  24  37  54  85 121 150 181 227 285 341
#
# _framework density 20.411659
#
# number of rings (size 3 to 8) (size 9 to 14) (size 15 to 20)
#    0.000    1.500    5.000    2.250    0.000    9.000 
#    0.000    1.250    0.000    2.250    0.000    1.750 
#    0.000    0.000    0.000    0.000    0.000    0.000 
#
# Total GULP energy -178874.300600 kJ/mol
# GULP energy per Si atom -5589.821894 kJ/mol
# Density = 2.036520 g / cm^3
# Si number density = 20.411659 Si / 1000 Ang^3
#
#
#
# Elastic Constant Matrix: (Units=GPa)
#
#
# Indices 1 2 3 4 5 6 
#
# 1 34.2480 -8.2252 -10.3131 0.0000 0.0000 0.0000
# 2 -8.2252 58.2343 37.1039 0.0000 0.0000 0.0000
# 3 -10.3131 37.1039 121.8905 0.0000 0.0000 0.0000
# 4 0.0000 0.0000 0.0000 6.9870 0.0000 0.0000
# 5 0.0000 0.0000 0.0000 0.0000 -6.6417 0.0000
# 6 0.0000 0.0000 0.0000 0.0000 0.0000 9.0779
#
#
#
# Elastic Compliance Matrix: (Units=1/GPa)
#
#
# Indices 1 2 3 4 5 6 
#
# 1 0.030465 0.003301 0.001573 0.000000 0.000000 0.000000
# 2 0.003301 0.021662 -0.006315 0.000000 0.000000 0.000000
# 3 0.001573 -0.006315 0.010259 0.000000 0.000000 0.000000
# 4 0.000000 0.000000 0.000000 0.143123 0.000000 0.000000
# 5 0.000000 0.000000 0.000000 0.000000 -0.150565 0.000000
# 6 0.000000 0.000000 0.000000 0.000000 0.000000 0.110158
#
#
# Mechanical properties :
#
#
# Convention : Reuss Voigt Hill
#
# Bulk Modulus (GPa) = 16.80548 27.94488 22.37518
# Shear Modulus (GPa) = 26.62151 14.93846 20.77999
#
# Velocity S-wave (km/s) = 3.61533 2.70822 3.19414
# Velocity P-wave (km/s) = 5.06741 4.84765 4.95875
#
# Compressibility (1/GPa) = 0.05950440
#
# Stress axis : x y z
#
# Youngs Moduli (GPa) = 32.82437 46.16468 97.47210
#
# Poissons Ratio (x) = -0.15238 -0.15331
# Poissons Ratio (y) = -0.10835 0.61550
# Poissons Ratio (z) = -0.05163 0.29151
#
# Static dielectric constant tensor:
#      x y z
#    x 1.727950 0.000000 0.000000 
#    y 0.000000 1.692090 0.000000 
#    z 0.000000 0.000000 1.757280 
# 
# From -- ./inp_files/22736.got.cif
#   From: 2010.05.17/outbox.cif.g08.bks.cpg/sg69_12_cif.got.tgz:22736.got - 2010.06.03 19:29:58.
