data_PCOD9512243
_publ_section_title
;
Structure prediction by ZEFSAII (Michael W. Deem and Ramdas Pophale) SiO2 
 PCOD9512243
Probable space group: F M M M
;
_chemical_formula_sum "Si O2"
_cell_formula_units_Z 192
_cell_length_a 30.248443
_cell_length_b 16.770349
_cell_length_c 18.874321
_cell_angle_alpha 90.000000
_cell_angle_beta 90.000000
_cell_angle_gamma 90.000000
_cell_volume 9574.507911
_symmetry_space_group_name_H-M "F M M M"
_symmetry_group_IT_number 69
_symmetry_cell_setting 'orthorhombic'
loop_
_space_group_symop_operation_xyz
x,y,z
-x,-y,z
x,-y,-z
-x,y,-z
-x,-y,-z
x,y,-z
-x,y,z
x,-y,z
x,1/2+y,1/2+z
-x,1/2-y,1/2+z
x,1/2-y,1/2-z
-x,1/2+y,1/2-z
-x,1/2-y,1/2-z
x,1/2+y,1/2-z
-x,1/2+y,1/2+z
x,1/2-y,1/2+z
1/2+x,y,1/2+z
1/2-x,-y,1/2+z
1/2+x,-y,1/2-z
1/2-x,y,1/2-z
1/2-x,-y,1/2-z
1/2+x,y,1/2-z
1/2-x,y,1/2+z
1/2+x,-y,1/2+z
1/2+x,1/2+y,z
1/2-x,1/2-y,z
1/2+x,1/2-y,-z
1/2-x,1/2+y,-z
1/2-x,1/2-y,-z
1/2+x,1/2+y,-z
1/2-x,1/2+y,z
1/2+x,1/2-y,z
loop_
_atom_site_type_symbol
_atom_site_label
_atom_site_fract_x
_atom_site_fract_y
_atom_site_fract_z
Si Si1 0.500000 0.915435 0.886666
Si Si2 0.598167 0.618173 0.424269
Si Si3 0.337600 0.596170 0.149595
Si Si4 0.329808 0.091607 0.810503
Si Si5 0.242700 0.403048 0.919444
Si Si6 0.916703 0.306915 0.419050
Si Si7 0.500000 0.235290 0.667436
O O1 0.452159 0.913062 0.924141
O O2 0.500000 0.827161 0.856278
O O3 0.500000 0.000000 0.845313
O O4 0.619042 0.594552 0.500000
O O5 0.625294 0.590962 0.356061
O O6 0.597292 0.714014 0.420807
O O7 0.344220 0.500000 0.148978
O O8 0.335393 0.625019 0.231600
O O9 0.291457 0.613379 0.110394
O O10 0.377202 0.638988 0.108926
O O11 0.293246 0.128325 0.863060
O O12 0.315486 0.000000 0.798136
O O13 0.238112 0.500000 0.921954
O O14 0.236894 0.373742 0.000000
O O15 0.929520 0.327841 0.500000
O O16 0.957581 0.308578 0.364974
O O17 0.500000 0.250000 0.750000
#
# Coordination Sequence:
#
# PCOD9512243 Si02
#       7
#    16  32  32  32  32  32  16
#     4  10  21  36  59  87 118 150 193 240 288 352
#     4  10  21  36  55  82 116 153 190 235 298 366
#     4  10  21  36  58  85 115 152 200 251 295 345
#     4  10  20  33  53  84 118 150 188 241 300 358
#     4   9  17  32  55  81 112 151 193 241 301 362
#     4  10  22  40  61  83 113 154 197 240 290 355
#     4  10  23  41  64  87 118 161 192 239 297 352
#
# _framework density 20.053249999999998
#
# number of rings (size 3 to 8) (size 9 to 14) (size 15 to 20)
#    0.000    2.167    0.000    2.500    4.667    7.333 
#    0.000    1.250    0.000    6.000    0.000    0.000 
#    0.000    0.000    0.000    0.000    0.000    0.000 
#
# Total GULP energy -267545.172042 kJ/mol
# GULP energy per Si atom -5573.857751 kJ/mol
# Density = 2.000761 g / cm^3
# Si number density = 20.053250 Si / 1000 Ang^3
#
#
#
# Elastic Constant Matrix: (Units=GPa)
#
#
# Indices 1 2 3 4 5 6 
#
# 1 116.2535 31.7454 61.5136 0.0000 0.0000 0.0000
# 2 31.7454 35.1869 8.9527 0.0000 0.0000 0.0000
# 3 61.5136 8.9527 146.5689 0.0000 0.0000 0.0000
# 4 0.0000 0.0000 0.0000 7.0979 0.0000 0.0000
# 5 0.0000 0.0000 0.0000 0.0000 32.8207 0.0000
# 6 0.0000 0.0000 0.0000 0.0000 0.0000 30.5611
#
#
#
# Elastic Compliance Matrix: (Units=1/GPa)
#
#
# Indices 1 2 3 4 5 6 
#
# 1 0.014744 -0.011913 -0.005460 0.000000 0.000000 0.000000
# 2 -0.011913 0.038493 0.002648 0.000000 0.000000 0.000000
# 3 -0.005460 0.002648 0.008953 0.000000 0.000000 0.000000
# 4 0.000000 0.000000 0.000000 0.140886 0.000000 0.000000
# 5 0.000000 0.000000 0.000000 0.000000 0.030469 0.000000
# 6 0.000000 0.000000 0.000000 0.000000 0.000000 0.032721
#
#
# Mechanical properties :
#
#
# Convention : Reuss Voigt Hill
#
# Bulk Modulus (GPa) = 30.54287 55.82586 43.18437
# Shear Modulus (GPa) = 16.30632 27.14912 21.72772
#
# Velocity S-wave (km/s) = 2.85467 3.68346 3.29523
# Velocity P-wave (km/s) = 5.11170 6.78158 6.00497
#
# Compressibility (1/GPa) = 0.03274086
#
# Stress axis : x y z
#
# Youngs Moduli (GPa) = 67.82336 25.97842 111.69928
#
# Poissons Ratio (x) = 0.30948 0.60992
# Poissons Ratio (y) = 0.80797 -0.29583
# Poissons Ratio (z) = 0.37034 -0.06880
#
# Static dielectric constant tensor:
#      x y z
#    x 1.709740 0.000000 0.000000 
#    y 0.000000 1.695910 0.000000 
#    z 0.000000 0.000000 1.882350 
# 
# From -- ./inp_files/27778.got.cif
#   From: 2010.05.17/outbox.cif.g08.bks.cpg/sg69_14_cif.got.tgz:27778.got - 2010.06.03 19:29:58.
