data_PCOD9512893
_publ_section_title
;
Structure prediction by ZEFSAII (Michael W. Deem and Ramdas Pophale) SiO2 
 PCOD9512893
Probable space group: F M M M
;
_chemical_formula_sum "Si O2"
_cell_formula_units_Z 176
_cell_length_a 35.546477
_cell_length_b 18.383982
_cell_length_c 14.829451
_cell_angle_alpha 90.000000
_cell_angle_beta 90.000000
_cell_angle_gamma 90.000000
_cell_volume 9690.835551
_symmetry_space_group_name_H-M "F M M M"
_symmetry_group_IT_number 69
_symmetry_cell_setting 'orthorhombic'
loop_
_space_group_symop_operation_xyz
x,y,z
-x,-y,z
x,-y,-z
-x,y,-z
-x,-y,-z
x,y,-z
-x,y,z
x,-y,z
x,1/2+y,1/2+z
-x,1/2-y,1/2+z
x,1/2-y,1/2-z
-x,1/2+y,1/2-z
-x,1/2-y,1/2-z
x,1/2+y,1/2-z
-x,1/2+y,1/2+z
x,1/2-y,1/2+z
1/2+x,y,1/2+z
1/2-x,-y,1/2+z
1/2+x,-y,1/2-z
1/2-x,y,1/2-z
1/2-x,-y,1/2-z
1/2+x,y,1/2-z
1/2-x,y,1/2+z
1/2+x,-y,1/2+z
1/2+x,1/2+y,z
1/2-x,1/2-y,z
1/2+x,1/2-y,-z
1/2-x,1/2+y,-z
1/2-x,1/2-y,-z
1/2+x,1/2+y,-z
1/2-x,1/2+y,z
1/2+x,1/2-y,z
loop_
_atom_site_type_symbol
_atom_site_label
_atom_site_fract_x
_atom_site_fract_y
_atom_site_fract_z
Si Si1 0.543551 0.588057 0.698962
Si Si2 0.454514 0.082242 0.000000
Si Si3 0.613754 0.836698 0.258052
Si Si4 0.249220 0.918003 0.109792
Si Si5 0.679315 0.677638 0.893868
Si Si6 0.172094 0.649896 0.893935
O O1 0.500000 0.607323 0.717559
O O2 0.545485 0.500000 0.698105
O O3 0.554018 0.615386 0.597318
O O4 0.574392 0.622021 0.764147
O O5 0.500000 0.076223 0.000000
O O6 0.438891 0.000000 0.000000
O O7 0.607210 0.750000 0.250000
O O8 0.642758 0.847559 0.339725
O O9 0.636625 0.863293 0.169716
O O10 0.216984 0.862248 0.139359
O O11 0.291291 0.895028 0.135238
O O12 0.240586 0.000000 0.138355
O O13 0.249208 0.915863 0.000000
O O14 0.682398 0.764675 0.883511
O O15 0.675022 0.662548 0.000000
O O16 0.164218 0.636298 0.000000
#
# Coordination Sequence:
#
# PCOD9512893 Si02
#       6
#    32  16  32  32  32  32
#     4   9  18  33  53  76 103 133 162 196 247 309
#     4   7  12  26  48  74 100 126 154 181 227 305
#     4  10  21  33  49  76 100 129 169 208 247 293
#     4   9  17  30  49  72  96 126 166 208 249 293
#     4   9  18  34  51  66  94 135 172 205 242 288
#     4   9  18  32  49  70  99 130 160 199 252 304
#
# _framework density 18.161487999999999
#
# number of rings (size 3 to 8) (size 9 to 14) (size 15 to 20)
#    0.000    3.000    0.000    1.636    1.273    4.727 
#    0.000    3.636    0.000    0.545    0.000    1.273 
#    0.000    0.000    0.000    0.000    0.000    0.000 
#
# Total GULP energy -245240.345754 kJ/mol
# GULP energy per Si atom -5573.644222 kJ/mol
# Density = 1.812015 g / cm^3
# Si number density = 18.161488 Si / 1000 Ang^3
#
#
#
# Elastic Constant Matrix: (Units=GPa)
#
#
# Indices 1 2 3 4 5 6 
#
# 1 102.4571 28.9682 7.5361 0.0000 0.0000 0.0000
# 2 28.9682 16.5892 5.5486 0.0000 0.0000 0.0000
# 3 7.5361 5.5486 21.1998 0.0000 0.0000 0.0000
# 4 0.0000 0.0000 0.0000 10.9423 0.0000 0.0000
# 5 0.0000 0.0000 0.0000 0.0000 27.3229 0.0000
# 6 0.0000 0.0000 0.0000 0.0000 0.0000 51.6570
#
#
#
# Elastic Compliance Matrix: (Units=1/GPa)
#
#
# Indices 1 2 3 4 5 6 
#
# 1 0.019367 -0.034541 0.002156 0.000000 0.000000 0.000000
# 2 -0.034541 0.127665 -0.021135 0.000000 0.000000 0.000000
# 3 0.002156 -0.021135 0.051936 0.000000 0.000000 0.000000
# 4 0.000000 0.000000 0.000000 0.091388 0.000000 0.000000
# 5 0.000000 0.000000 0.000000 0.000000 0.036599 0.000000
# 6 0.000000 0.000000 0.000000 0.000000 0.000000 0.019358
#
#
# Mechanical properties :
#
#
# Convention : Reuss Voigt Hill
#
# Bulk Modulus (GPa) = 10.87812 24.92796 17.90304
# Shear Modulus (GPa) = 10.33066 24.53066 17.43066
#
# Velocity S-wave (km/s) = 2.38759 3.67917 3.10136
# Velocity P-wave (km/s) = 3.68828 5.63949 4.76484
#
# Compressibility (1/GPa) = 0.09192766
#
# Stress axis : x y z
#
# Youngs Moduli (GPa) = 51.63297 7.83303 19.25463
#
# Poissons Ratio (x) = 0.27056 -0.04150
# Poissons Ratio (y) = 1.78344 0.40694
# Poissons Ratio (z) = -0.11130 0.16555
#
# Static dielectric constant tensor:
#      x y z
#    x 1.595170 0.000000 0.000000 
#    y 0.000000 1.615590 0.000000 
#    z 0.000000 0.000000 1.668280 
# 
# From -- ./inp_files/27677.got.cif
#   From: 2010.05.17/outbox.cif.g08.bks.cpg/sg69_14_cif.got.tgz:27677.got - 2010.06.03 19:29:58.
