data_PCOD9512455
_publ_section_title
;
Structure prediction by ZEFSAII (Michael W. Deem and Ramdas Pophale) SiO2 
 PCOD9512455
Probable space group: F M M M
;
_chemical_formula_sum "Si O2"
_cell_formula_units_Z 192
_cell_length_a 19.235602
_cell_length_b 30.379736
_cell_length_c 19.467291
_cell_angle_alpha 90.000000
_cell_angle_beta 90.000000
_cell_angle_gamma 90.000000
_cell_volume 11376.149715
_symmetry_space_group_name_H-M "F M M M"
_symmetry_group_IT_number 69
_symmetry_cell_setting 'orthorhombic'
loop_
_space_group_symop_operation_xyz
x,y,z
-x,-y,z
x,-y,-z
-x,y,-z
-x,-y,-z
x,y,-z
-x,y,z
x,-y,z
x,1/2+y,1/2+z
-x,1/2-y,1/2+z
x,1/2-y,1/2-z
-x,1/2+y,1/2-z
-x,1/2-y,1/2-z
x,1/2+y,1/2-z
-x,1/2+y,1/2+z
x,1/2-y,1/2+z
1/2+x,y,1/2+z
1/2-x,-y,1/2+z
1/2+x,-y,1/2-z
1/2-x,y,1/2-z
1/2-x,-y,1/2-z
1/2+x,y,1/2-z
1/2-x,y,1/2+z
1/2+x,-y,1/2+z
1/2+x,1/2+y,z
1/2-x,1/2-y,z
1/2+x,1/2-y,-z
1/2-x,1/2+y,-z
1/2-x,1/2-y,-z
1/2+x,1/2+y,-z
1/2-x,1/2+y,z
1/2+x,1/2-y,z
loop_
_atom_site_type_symbol
_atom_site_label
_atom_site_fract_x
_atom_site_fract_y
_atom_site_fract_z
Si Si1 0.581124 0.688899 0.379880
Si Si2 0.816385 0.885693 0.426250
Si Si3 0.326925 0.271054 0.920600
Si Si4 0.576758 0.875241 0.754576
Si Si5 0.790784 0.849969 0.819345
Si Si6 0.422316 0.948730 0.872237
O O1 0.500000 0.689896 0.399898
O O2 0.626769 0.653467 0.421484
O O3 0.618592 0.735324 0.391376
O O4 0.583621 0.831552 0.197190
O O5 0.780694 0.883034 0.500000
O O6 0.763441 0.877941 0.364326
O O7 0.860567 0.930055 0.418333
O O8 0.250000 0.250000 0.922694
O O9 0.318205 0.311144 0.868103
O O10 0.345007 0.282488 0.000000
O O11 0.500000 0.874161 0.722444
O O12 0.641771 0.876385 0.704893
O O13 0.579368 0.916838 0.805951
O O14 0.750000 0.834901 0.750000
O O15 0.500000 0.942757 0.902909
O O16 0.414131 0.000000 0.855968
#
# Coordination Sequence:
#
# PCOD9512455 Si02
#       6
#    32  32  32  32  32  32
#     4  10  20  35  55  77 102 138 181 221 269 325
#     4  11  21  35  54  79 111 144 177 216 263 323
#     4  11  22  35  50  73 104 140 182 227 265 308
#     4   9  19  36  55  80 110 141 181 227 270 317
#     4  12  21  36  56  77 102 143 189 221 264 319
#     4   9  18  34  57  85 114 142 172 209 264 333
#
# _framework density 16.877414999999999
#
# number of rings (size 3 to 8) (size 9 to 14) (size 15 to 20)
#    0.000    1.667    5.000    2.500    0.000    5.667 
#    0.000    4.167    0.000    1.500    0.000    0.000 
#    0.000    0.000    0.000   18.167    0.000    0.000 
#
# Total GULP energy -267545.256049 kJ/mol
# GULP energy per Si atom -5573.859501 kJ/mol
# Density = 1.683900 g / cm^3
# Si number density = 16.877415 Si / 1000 Ang^3
#
#
#
# Elastic Constant Matrix: (Units=GPa)
#
#
# Indices 1 2 3 4 5 6 
#
# 1 114.2858 33.8606 49.0972 0.0000 0.0000 0.0000
# 2 33.8606 70.4087 32.6188 0.0000 0.0000 0.0000
# 3 49.0972 32.6188 84.9885 0.0000 0.0000 0.0000
# 4 0.0000 0.0000 0.0000 0.0595 0.0000 0.0000
# 5 0.0000 0.0000 0.0000 0.0000 5.7276 0.0000
# 6 0.0000 0.0000 0.0000 0.0000 0.0000 25.2553
#
#
#
# Elastic Compliance Matrix: (Units=1/GPa)
#
#
# Indices 1 2 3 4 5 6 
#
# 1 0.012191 -0.003162 -0.005829 0.000000 0.000000 0.000000
# 2 -0.003162 0.018095 -0.005118 0.000000 0.000000 0.000000
# 3 -0.005829 -0.005118 0.017098 0.000000 0.000000 0.000000
# 4 0.000000 0.000000 0.000000 16.817416 0.000000 0.000000
# 5 0.000000 0.000000 0.000000 0.000000 0.174593 0.000000
# 6 0.000000 0.000000 0.000000 0.000000 0.000000 0.039596
#
#
# Mechanical properties :
#
#
# Convention : Reuss Voigt Hill
#
# Bulk Modulus (GPa) = 52.17812 55.64848 53.91330
# Shear Modulus (GPa) = 0.29217 16.48223 8.38720
#
# Velocity S-wave (km/s) = 0.41652 3.12843 2.23165
# Velocity P-wave (km/s) = 5.58698 6.78919 6.21721
#
# Compressibility (1/GPa) = 0.01916512
#
# Stress axis : x y z
#
# Youngs Moduli (GPa) = 82.02720 55.26496 58.48685
#
# Poissons Ratio (x) = 0.17477 0.34092
# Poissons Ratio (y) = 0.25941 0.29933
# Poissons Ratio (z) = 0.47813 0.28284
#
# Static dielectric constant tensor:
#      x y z
#    x 1.583940 0.000000 0.000000 
#    y 0.000000 1.560780 0.000000 
#    z 0.000000 0.000000 1.597620 
# 
# From -- ./inp_files/32141.got.cif
#   From: 2010.05.17/outbox.cif.g08.bks.cpg/sg69_17_cif.got.tgz:32141.got - 2010.06.03 19:29:58.
