data_PCOD9512290
_publ_section_title
;
Structure prediction by ZEFSAII (Michael W. Deem and Ramdas Pophale) SiO2 
 PCOD9512290
Probable space group: F M M M
;
_chemical_formula_sum "Si O2"
_cell_formula_units_Z 160
_cell_length_a 30.353594
_cell_length_b 8.967288
_cell_length_c 32.597703
_cell_angle_alpha 90.000000
_cell_angle_beta 90.000000
_cell_angle_gamma 90.000000
_cell_volume 8872.749848
_symmetry_space_group_name_H-M "F M M M"
_symmetry_group_IT_number 69
_symmetry_cell_setting 'orthorhombic'
loop_
_space_group_symop_operation_xyz
x,y,z
-x,-y,z
x,-y,-z
-x,y,-z
-x,-y,-z
x,y,-z
-x,y,z
x,-y,z
x,1/2+y,1/2+z
-x,1/2-y,1/2+z
x,1/2-y,1/2-z
-x,1/2+y,1/2-z
-x,1/2-y,1/2-z
x,1/2+y,1/2-z
-x,1/2+y,1/2+z
x,1/2-y,1/2+z
1/2+x,y,1/2+z
1/2-x,-y,1/2+z
1/2+x,-y,1/2-z
1/2-x,y,1/2-z
1/2-x,-y,1/2-z
1/2+x,y,1/2-z
1/2-x,y,1/2+z
1/2+x,-y,1/2+z
1/2+x,1/2+y,z
1/2-x,1/2-y,z
1/2+x,1/2-y,-z
1/2-x,1/2+y,-z
1/2-x,1/2-y,-z
1/2+x,1/2+y,-z
1/2-x,1/2+y,z
1/2+x,1/2-y,z
loop_
_atom_site_type_symbol
_atom_site_label
_atom_site_fract_x
_atom_site_fract_y
_atom_site_fract_z
Si Si1 0.452920 0.663105 0.424809
Si Si2 0.879912 0.828010 0.355855
Si Si3 0.176591 0.682935 0.500000
Si Si4 0.296500 0.681377 0.588530
Si Si5 0.550662 0.178975 0.295096
Si Si6 0.576795 0.172171 0.500000
O O1 0.500000 0.675223 0.403390
O O2 0.450877 0.500000 0.444957
O O3 0.413462 0.673056 0.393846
O O4 0.448623 0.781900 0.459847
O O5 0.834146 0.778652 0.377565
O O6 0.908050 0.737783 0.322064
O O7 0.874292 0.000000 0.341745
O O8 0.181002 0.500000 0.500000
O O9 0.195034 0.748378 0.542996
O O10 0.125827 0.737557 0.500000
O O11 0.295742 0.500000 0.585195
O O12 0.250000 0.750000 0.602121
O O13 0.500000 0.216590 0.309575
O O14 0.554412 0.250000 0.250000
O O15 0.552931 0.000000 0.293173
O O16 0.584151 0.000000 0.500000
#
# Coordination Sequence:
#
# PCOD9512290 Si02
#       6
#    32  32  16  32  32  16
#     4  10  20  34  52  73 102 143 186 225 269 328
#     4  10  21  37  58  82 111 146 185 229 278 334
#     4  11  22  37  56  78 107 146 192 242 291 335
#     4  11  23  39  60  83 110 146 189 239 291 341
#     4  10  21  37  60  90 122 154 186 223 269 325
#     4  11  22  33  48  71 104 142 182 232 277 321
#
# _framework density 18.03274
#
# number of rings (size 3 to 8) (size 9 to 14) (size 15 to 20)
#    0.000    1.600    2.000    3.000    0.000    6.800 
#    0.000    0.000    0.000    0.600    0.000    4.200 
#    0.000    0.000    0.000    0.000    0.000    0.000 
#
# Total GULP energy -222798.591866 kJ/mol
# GULP energy per Si atom -5569.964797 kJ/mol
# Density = 1.799170 g / cm^3
# Si number density = 18.032740 Si / 1000 Ang^3
#
#
#
# Elastic Constant Matrix: (Units=GPa)
#
#
# Indices 1 2 3 4 5 6 
#
# 1 168.2542 45.5442 52.7617 0.0001 -0.0005 -0.0003
# 2 45.5442 61.3870 44.9730 0.0003 0.0000 -0.0005
# 3 52.7617 44.9730 82.9462 0.0000 -0.0011 0.0000
# 4 0.0001 0.0003 0.0000 22.1744 0.0010 -0.0001
# 5 -0.0005 0.0000 -0.0011 0.0010 -390.8896 0.0003
# 6 -0.0003 -0.0005 0.0000 -0.0001 0.0003 27.1549
#
#
#
# Elastic Compliance Matrix: (Units=1/GPa)
#
#
# Indices 1 2 3 4 5 6 
#
# 1 0.007878 -0.003606 -0.003056 0.000000 0.000000 0.000000
# 2 -0.003606 0.028675 -0.013254 0.000000 0.000000 0.000000
# 3 -0.003056 -0.013254 0.021186 0.000000 0.000000 0.000000
# 4 0.000000 0.000000 0.000000 0.045097 0.000000 0.000000
# 5 0.000000 0.000000 0.000000 0.000000 -0.002558 0.000000
# 6 0.000000 0.000000 0.000000 0.000000 0.000000 0.036826
#
#
# Mechanical properties :
#
#
# Convention : Reuss Voigt Hill
#
# Bulk Modulus (GPa) = 55.84182 66.57171 61.20676
# Shear Modulus (GPa) = 27.33664 -57.02485 -14.84410
#
# Velocity S-wave (km/s) = 3.89774 -5.62953 -2.87222
# Velocity P-wave (km/s) = 7.16175 2.29307 4.79752
#
# Compressibility (1/GPa) = 0.01790773
#
# Stress axis : x y z
#
# Youngs Moduli (GPa) = 126.94024 34.87309 47.20064
#
# Poissons Ratio (x) = 0.12575 0.14424
# Poissons Ratio (y) = 0.45772 0.62560
# Poissons Ratio (z) = 0.38792 0.46221
#
# Static dielectric constant tensor:
#      x y z
#    x 1.664060 0.000000 0.000000 
#    y 0.000000 1.639820 0.000000 
#    z 0.000000 0.000000 1.600710 
# 
# From -- ./inp_files/47494.got.cif
#   From: 2010.05.17/outbox.cif.g08.bks.cpg/sg69_24_cif.got.tgz:47494.got - 2010.06.03 19:29:58.
