data_PCOD9512645
_publ_section_title
;
Structure prediction by ZEFSAII (Michael W. Deem and Ramdas Pophale) SiO2 
 PCOD9512645
Probable space group: F M M M
;
_chemical_formula_sum "Si O2"
_cell_formula_units_Z 160
_cell_length_a 18.936348
_cell_length_b 27.904129
_cell_length_c 15.743976
_cell_angle_alpha 90.000000
_cell_angle_beta 90.000000
_cell_angle_gamma 90.000000
_cell_volume 8319.153088
_symmetry_space_group_name_H-M "F M M M"
_symmetry_group_IT_number 69
_symmetry_cell_setting 'orthorhombic'
loop_
_space_group_symop_operation_xyz
x,y,z
-x,-y,z
x,-y,-z
-x,y,-z
-x,-y,-z
x,y,-z
-x,y,z
x,-y,z
x,1/2+y,1/2+z
-x,1/2-y,1/2+z
x,1/2-y,1/2-z
-x,1/2+y,1/2-z
-x,1/2-y,1/2-z
x,1/2+y,1/2-z
-x,1/2+y,1/2+z
x,1/2-y,1/2+z
1/2+x,y,1/2+z
1/2-x,-y,1/2+z
1/2+x,-y,1/2-z
1/2-x,y,1/2-z
1/2-x,-y,1/2-z
1/2+x,y,1/2-z
1/2-x,y,1/2+z
1/2+x,-y,1/2+z
1/2+x,1/2+y,z
1/2-x,1/2-y,z
1/2+x,1/2-y,-z
1/2-x,1/2+y,-z
1/2-x,1/2-y,-z
1/2+x,1/2+y,-z
1/2-x,1/2+y,z
1/2+x,1/2-y,z
loop_
_atom_site_type_symbol
_atom_site_label
_atom_site_fract_x
_atom_site_fract_y
_atom_site_fract_z
Si Si1 0.826428 0.725774 0.000000
Si Si2 0.915088 0.282426 0.833975
Si Si3 0.918783 0.443638 0.685126
Si Si4 0.278200 0.385246 0.500000
Si Si5 0.636009 0.891275 0.833248
Si Si6 0.500000 0.054291 0.899463
Si Si7 0.361052 0.055813 0.500000
O O1 0.750000 0.750000 0.000000
O O2 0.873508 0.737046 0.083272
O O3 0.805349 0.669587 0.000000
O O4 0.904911 0.250000 0.750000
O O5 0.881775 0.335269 0.821525
O O6 0.000000 0.286170 0.849439
O O7 0.912347 0.500000 0.704632
O O8 0.860997 0.415005 0.740233
O O9 0.905656 0.438364 0.585384
O O10 0.000000 0.428334 0.703639
O O11 0.307401 0.401615 0.592887
O O12 0.198753 0.403707 0.500000
O O13 0.567642 0.917050 0.871131
O O14 0.500000 0.000000 0.867364
O O15 0.500000 0.052245 0.000000
O O16 0.333462 0.000000 0.500000
#
# Coordination Sequence:
#
# PCOD9512645 Si02
#       7
#    16  32  32  16  32  16  16
#     4  10  23  41  61  84 116 154 193 240 292 354
#     4  10  21  38  63  90 115 151 193 242 298 353
#     4  10  20  36  59  83 109 149 197 245 290 334
#     4  10  24  39  58  82 116 159 184 227 299 357
#     4  11  20  36  59  88 119 147 188 238 296 351
#     4  11  20  30  53  91 125 151 184 232 284 343
#     4  10  23  40  54  76 115 158 201 235 275 346
#
# _framework density 19.232726
#
# number of rings (size 3 to 8) (size 9 to 14) (size 15 to 20)
#    0.000    1.700    3.000    1.200    0.000    5.600 
#    0.000    6.000    0.000    3.600    0.000    0.000 
#    0.000    0.000    0.000    0.000    0.000    0.000 
#
# Total GULP energy -222876.136158 kJ/mol
# GULP energy per Si atom -5571.903404 kJ/mol
# Density = 1.918895 g / cm^3
# Si number density = 19.232726 Si / 1000 Ang^3
#
#
#
# Elastic Constant Matrix: (Units=GPa)
#
#
# Indices 1 2 3 4 5 6 
#
# 1 53.5569 11.1514 36.4641 0.0000 0.0000 0.0000
# 2 11.1514 43.3743 39.1021 0.0000 0.0000 0.0000
# 3 36.4641 39.1021 167.5116 0.0000 0.0000 0.0000
# 4 0.0000 0.0000 0.0000 40.1893 0.0000 0.0000
# 5 0.0000 0.0000 0.0000 0.0000 -0.2141 0.0000
# 6 0.0000 0.0000 0.0000 0.0000 0.0000 24.0820
#
#
#
# Elastic Compliance Matrix: (Units=1/GPa)
#
#
# Indices 1 2 3 4 5 6 
#
# 1 0.022019 -0.001697 -0.004397 0.000000 0.000000 0.000000
# 2 -0.001697 0.029331 -0.006477 0.000000 0.000000 0.000000
# 3 -0.004397 -0.006477 0.008439 0.000000 0.000000 0.000000
# 4 0.000000 0.000000 0.000000 0.024882 0.000000 0.000000
# 5 0.000000 0.000000 0.000000 0.000000 -4.670444 0.000000
# 6 0.000000 0.000000 0.000000 0.000000 0.000000 0.041525
#
#
# Mechanical properties :
#
#
# Convention : Reuss Voigt Hill
#
# Bulk Modulus (GPa) = 28.86359 48.65312 38.75835
# Shear Modulus (GPa) = -1.10925 24.65979 11.77527
#
# Velocity S-wave (km/s) = -0.76026 3.58464 2.47706
# Velocity P-wave (km/s) = 3.77749 6.51804 5.32702
#
# Compressibility (1/GPa) = 0.03464573
#
# Stress axis : x y z
#
# Youngs Moduli (GPa) = 45.41591 34.09404 118.49990
#
# Poissons Ratio (x) = 0.05786 0.52103
# Poissons Ratio (y) = 0.07708 0.76755
# Poissons Ratio (z) = 0.19969 0.22083
#
# Static dielectric constant tensor:
#      x y z
#    x 1.674940 0.000000 0.000000 
#    y 0.000000 1.668660 0.000000 
#    z 0.000000 0.000000 1.736540 
# 
# From -- ./inp_files/23259.got.cif
#   From: 2010.05.17/outbox.cif.g08.bks.cpg/sg69_12_cif.got.tgz:23259.got - 2010.06.03 19:29:58.
