data_PCOD9512894
_publ_section_title
;
Structure prediction by ZEFSAII (Michael W. Deem and Ramdas Pophale) SiO2 
 PCOD9512894
Probable space group: F M M M
;
_chemical_formula_sum "Si O2"
_cell_formula_units_Z 176
_cell_length_a 24.667074
_cell_length_b 28.349121
_cell_length_c 14.113936
_cell_angle_alpha 90.000000
_cell_angle_beta 90.000000
_cell_angle_gamma 90.000000
_cell_volume 9869.732408
_symmetry_space_group_name_H-M "F M M M"
_symmetry_group_IT_number 69
_symmetry_cell_setting 'orthorhombic'
loop_
_space_group_symop_operation_xyz
x,y,z
-x,-y,z
x,-y,-z
-x,y,-z
-x,-y,-z
x,y,-z
-x,y,z
x,-y,z
x,1/2+y,1/2+z
-x,1/2-y,1/2+z
x,1/2-y,1/2-z
-x,1/2+y,1/2-z
-x,1/2-y,1/2-z
x,1/2+y,1/2-z
-x,1/2+y,1/2+z
x,1/2-y,1/2+z
1/2+x,y,1/2+z
1/2-x,-y,1/2+z
1/2+x,-y,1/2-z
1/2-x,y,1/2-z
1/2-x,-y,1/2-z
1/2+x,y,1/2-z
1/2-x,y,1/2+z
1/2+x,-y,1/2+z
1/2+x,1/2+y,z
1/2-x,1/2-y,z
1/2+x,1/2-y,-z
1/2-x,1/2+y,-z
1/2-x,1/2-y,-z
1/2+x,1/2+y,-z
1/2-x,1/2+y,z
1/2+x,1/2-y,z
loop_
_atom_site_type_symbol
_atom_site_label
_atom_site_fract_x
_atom_site_fract_y
_atom_site_fract_z
Si Si1 0.090584 0.177414 0.388892
Si Si2 0.058001 0.573552 0.886141
Si Si3 0.166508 0.695957 0.269852
Si Si4 0.940500 0.782912 0.886300
Si Si5 0.250000 0.621331 0.250000
Si Si6 0.180834 0.945631 0.387533
O O1 0.101104 0.177614 0.500000
O O2 0.059377 0.129635 0.367590
O O3 0.145958 0.177580 0.331498
O O4 0.061448 0.226640 0.366072
O O5 0.117288 0.556046 0.855933
O O6 0.000000 0.555018 0.849425
O O7 0.057294 0.565992 0.000000
O O8 0.184427 0.750000 0.250000
O O9 0.112426 0.697076 0.334583
O O10 0.210286 0.658359 0.303885
O O11 0.000000 0.801129 0.857113
O O12 0.935833 0.788687 0.000000
O O13 0.216876 0.588143 0.177852
O O14 0.182457 0.932360 0.500000
O O15 0.199023 0.000000 0.380097
#
# Coordination Sequence:
#
# PCOD9512894 Si02
#       6
#    32  32  32  32  16  32
#     4   9  16  29  48  74 103 135 170 205 253 307
#     4   9  16  28  50  78 104 128 156 198 259 323
#     4  10  21  33  50  75 106 141 178 214 253 295
#     4   9  18  32  49  72 104 140 178 217 253 296
#     4  12  22  38  54  76 102 142 180 218 250 304
#     4  10  22  39  58  79 102 132 171 217 267 314
#
# _framework density 17.832298000000002
#
# number of rings (size 3 to 8) (size 9 to 14) (size 15 to 20)
#    0.000    2.364    1.818    1.091    0.000    7.273 
#    0.000    1.818    0.000    5.455    0.000    0.000 
#    0.000    0.000    0.000    9.636    0.000    0.182 
#
# Total GULP energy -245023.421250 kJ/mol
# GULP energy per Si atom -5568.714119 kJ/mol
# Density = 1.779171 g / cm^3
# Si number density = 17.832298 Si / 1000 Ang^3
#
#
#
# Elastic Constant Matrix: (Units=GPa)
#
#
# Indices 1 2 3 4 5 6 
#
# 1 134.9213 64.8669 41.9566 0.0000 0.0000 0.0000
# 2 64.8669 89.8857 36.8383 0.0000 0.0000 0.0000
# 3 41.9566 36.8383 33.1527 0.0000 0.0000 0.0000
# 4 0.0000 0.0000 0.0000 15.7586 0.0000 0.0000
# 5 0.0000 0.0000 0.0000 0.0000 19.0227 0.0000
# 6 0.0000 0.0000 0.0000 0.0000 0.0000 -5.0569
#
#
#
# Elastic Compliance Matrix: (Units=1/GPa)
#
#
# Indices 1 2 3 4 5 6 
#
# 1 0.013329 -0.004968 -0.011348 0.000000 0.000000 0.000000
# 2 -0.004968 0.022280 -0.018469 0.000000 0.000000 0.000000
# 3 -0.011348 -0.018469 0.065048 0.000000 0.000000 0.000000
# 4 0.000000 0.000000 0.000000 0.063457 0.000000 0.000000
# 5 0.000000 0.000000 0.000000 0.000000 0.052569 0.000000
# 6 0.000000 0.000000 0.000000 0.000000 0.000000 -0.197748
#
#
# Mechanical properties :
#
#
# Convention : Reuss Voigt Hill
#
# Bulk Modulus (GPa) = 32.16942 60.58701 46.37822
# Shear Modulus (GPa) = 50.57177 13.56474 32.06825
#
# Velocity S-wave (km/s) = 5.33115 2.76104 4.24527
# Velocity P-wave (km/s) = 7.48158 6.64938 7.07772
#
# Compressibility (1/GPa) = 0.03108542
#
# Stress axis : x y z
#
# Youngs Moduli (GPa) = 75.02216 44.88338 15.37329
#
# Poissons Ratio (x) = 0.22299 0.17446
# Poissons Ratio (y) = 0.37273 0.28393
# Poissons Ratio (z) = 0.85139 0.82896
#
# Static dielectric constant tensor:
#      x y z
#    x 1.672630 0.000000 0.000000 
#    y 0.000000 1.647490 0.000000 
#    z 0.000000 0.000000 1.603760 
# 
# From -- ./inp_files/18269.got.cif
#   From: 2010.05.17/outbox.cif.g08.bks.cpg/sg69_10_cif.got.tgz:18269.got - 2010.06.03 19:29:58.
