data_PCOD9512207
_publ_section_title
;
Structure prediction by ZEFSAII (Michael W. Deem and Ramdas Pophale) SiO2 
 PCOD9512207
Probable space group: F M M M
;
_chemical_formula_sum "Si O2"
_cell_formula_units_Z 128
_cell_length_a 27.971961
_cell_length_b 17.946392
_cell_length_c 14.172751
_cell_angle_alpha 90.000000
_cell_angle_beta 90.000000
_cell_angle_gamma 90.000000
_cell_volume 7114.661152
_symmetry_space_group_name_H-M "F M M M"
_symmetry_group_IT_number 69
_symmetry_cell_setting 'orthorhombic'
loop_
_space_group_symop_operation_xyz
x,y,z
-x,-y,z
x,-y,-z
-x,y,-z
-x,-y,-z
x,y,-z
-x,y,z
x,-y,z
x,1/2+y,1/2+z
-x,1/2-y,1/2+z
x,1/2-y,1/2-z
-x,1/2+y,1/2-z
-x,1/2-y,1/2-z
x,1/2+y,1/2-z
-x,1/2+y,1/2+z
x,1/2-y,1/2+z
1/2+x,y,1/2+z
1/2-x,-y,1/2+z
1/2+x,-y,1/2-z
1/2-x,y,1/2-z
1/2-x,-y,1/2-z
1/2+x,y,1/2-z
1/2-x,y,1/2+z
1/2+x,-y,1/2+z
1/2+x,1/2+y,z
1/2-x,1/2-y,z
1/2+x,1/2-y,-z
1/2-x,1/2+y,-z
1/2-x,1/2-y,-z
1/2+x,1/2+y,-z
1/2-x,1/2+y,z
1/2+x,1/2-y,z
loop_
_atom_site_type_symbol
_atom_site_label
_atom_site_fract_x
_atom_site_fract_y
_atom_site_fract_z
Si Si1 0.762063 0.917687 0.390435
Si Si2 0.947175 0.912587 0.613341
Si Si3 0.649440 0.647132 0.696144
Si Si4 0.674733 0.693468 0.111101
O O1 0.777439 0.913282 0.500000
O O2 0.809018 0.911408 0.327156
O O3 0.725273 0.849582 0.376210
O O4 0.739582 0.000000 0.377230
O O5 0.946118 0.908055 0.500000
O O6 0.901516 0.870267 0.652138
O O7 0.000000 0.886302 0.644577
O O8 0.942972 0.000000 0.638302
O O9 0.642888 0.654780 0.808400
O O10 0.671572 0.721387 0.646436
O O11 0.662618 0.688399 0.000000
#
# Coordination Sequence:
#
# PCOD9512207 Si02
#       4
#    32  32  32  32
#     4  10  20  33  51  76 105 137 174 214 253 298
#     4   9  18  33  55  84 111 130 159 212 266 303
#     4  11  20  33  56  76  98 139 177 206 253 312
#     4  10  22  36  48  72 107 137 171 214 253 294
#
# _framework density 17.991018
#
# number of rings (size 3 to 8) (size 9 to 14) (size 15 to 20)
#    0.000    2.000    0.000    5.250    0.000    9.000 
#    0.000    2.500    0.000    2.250    0.000    1.750 
#    0.000    0.000    0.000    0.000    0.000    0.000 
#
# Total GULP energy -178258.743852 kJ/mol
# GULP energy per Si atom -5570.585745 kJ/mol
# Density = 1.795007 g / cm^3
# Si number density = 17.991018 Si / 1000 Ang^3
#
#
#
# Elastic Constant Matrix: (Units=GPa)
#
#
# Indices 1 2 3 4 5 6 
#
# 1 96.2999 54.3882 48.0115 0.0000 0.0000 0.0000
# 2 54.3882 75.4299 33.4256 0.0000 0.0000 0.0000
# 3 48.0115 33.4256 105.1432 0.0000 0.0000 0.0000
# 4 0.0000 0.0000 0.0000 14.0179 0.0000 0.0000
# 5 0.0000 0.0000 0.0000 0.0000 18.4807 0.0000
# 6 0.0000 0.0000 0.0000 0.0000 0.0000 0.4185
#
#
#
# Elastic Compliance Matrix: (Units=1/GPa)
#
#
# Indices 1 2 3 4 5 6 
#
# 1 0.019703 -0.011895 -0.005215 0.000000 0.000000 0.000000
# 2 -0.011895 0.022613 -0.001757 0.000000 0.000000 0.000000
# 3 -0.005215 -0.001757 0.012451 0.000000 0.000000 0.000000
# 4 0.000000 0.000000 0.000000 0.071337 0.000000 0.000000
# 5 0.000000 0.000000 0.000000 0.000000 0.054110 0.000000
# 6 0.000000 0.000000 0.000000 0.000000 0.000000 2.389509
#
#
# Mechanical properties :
#
#
# Convention : Reuss Voigt Hill
#
# Bulk Modulus (GPa) = 58.71555 60.94705 59.83130
# Shear Modulus (GPa) = 1.91341 15.98661 8.95001
#
# Velocity S-wave (km/s) = 1.03240 2.98415 2.23283
# Velocity P-wave (km/s) = 5.84192 6.76930 6.32264
#
# Compressibility (1/GPa) = 0.01703126
#
# Stress axis : x y z
#
# Youngs Moduli (GPa) = 50.75482 44.22230 80.31614
#
# Poissons Ratio (x) = 0.52604 0.41886
# Poissons Ratio (y) = 0.60375 0.14112
# Poissons Ratio (z) = 0.26469 0.07770
#
# Static dielectric constant tensor:
#      x y z
#    x 1.589260 0.000000 0.000000 
#    y 0.000000 1.684780 0.000000 
#    z 0.000000 0.000000 1.648080 
# 
# From -- ./inp_files/25518.got.cif
#   From: 2010.05.17/outbox.cif.g08.bks.cpg/sg69_13_cif.got.tgz:25518.got - 2010.06.03 19:29:58.
