data_PCOD9512513
_publ_section_title
;
Structure prediction by ZEFSAII (Michael W. Deem and Ramdas Pophale) SiO2 
 PCOD9512513
Probable space group: F M M M
;
_chemical_formula_sum "Si O2"
_cell_formula_units_Z 144
_cell_length_a 23.676445
_cell_length_b 18.340432
_cell_length_c 16.026848
_cell_angle_alpha 90.000000
_cell_angle_beta 90.000000
_cell_angle_gamma 90.000000
_cell_volume 6959.438047
_symmetry_space_group_name_H-M "F M M M"
_symmetry_group_IT_number 69
_symmetry_cell_setting 'orthorhombic'
loop_
_space_group_symop_operation_xyz
x,y,z
-x,-y,z
x,-y,-z
-x,y,-z
-x,-y,-z
x,y,-z
-x,y,z
x,-y,z
x,1/2+y,1/2+z
-x,1/2-y,1/2+z
x,1/2-y,1/2-z
-x,1/2+y,1/2-z
-x,1/2-y,1/2-z
x,1/2+y,1/2-z
-x,1/2+y,1/2+z
x,1/2-y,1/2+z
1/2+x,y,1/2+z
1/2-x,-y,1/2+z
1/2+x,-y,1/2-z
1/2-x,y,1/2-z
1/2-x,-y,1/2-z
1/2+x,y,1/2-z
1/2-x,y,1/2+z
1/2+x,-y,1/2+z
1/2+x,1/2+y,z
1/2-x,1/2-y,z
1/2+x,1/2-y,-z
1/2-x,1/2+y,-z
1/2-x,1/2-y,-z
1/2+x,1/2+y,-z
1/2-x,1/2+y,z
1/2+x,1/2-y,z
loop_
_atom_site_type_symbol
_atom_site_label
_atom_site_fract_x
_atom_site_fract_y
_atom_site_fract_z
Si Si1 0.936451 0.171343 0.702701
Si Si2 0.742695 0.079694 0.100106
Si Si3 0.566332 0.087978 0.500000
Si Si4 0.142158 0.131816 0.842980
Si Si5 0.159819 0.710719 0.902668
O O1 0.939368 0.250000 0.750000
O O2 0.895073 0.124017 0.760560
O O3 0.903609 0.183881 0.616708
O O4 0.000000 0.143765 0.695153
O O5 0.802291 0.083991 0.146738
O O6 0.702871 0.147198 0.122741
O O7 0.716435 0.000000 0.114156
O O8 0.754215 0.086002 0.000000
O O9 0.500000 0.108757 0.500000
O O10 0.599402 0.117584 0.419557
O O11 0.569561 0.000000 0.500000
O O12 0.165297 0.214553 0.852057
O O13 0.168594 0.726449 0.000000
#
# Coordination Sequence:
#
# PCOD9512513 Si02
#       5
#    32  32  16  32  32
#     4   9  20  36  54  82 117 147 187 241 287 331
#     4  10  20  35  57  83 116 149 185 237 291 344
#     4  11  22  34  53  86 123 155 187 224 278 350
#     4  11  19  35  58  83 115 152 189 232 285 342
#     4  10  20  36  58  86 111 148 197 241 280 336
#
# _framework density 20.691327000000001
#
# number of rings (size 3 to 8) (size 9 to 14) (size 15 to 20)
#    0.000    1.889    2.222    2.000    0.000    4.000 
#    0.000    6.667    0.000    3.333    0.000    3.111 
#    0.000    0.000    0.000    0.000    0.000    0.000 
#
# Total GULP energy -201026.298665 kJ/mol
# GULP energy per Si atom -5584.063852 kJ/mol
# Density = 2.064423 g / cm^3
# Si number density = 20.691327 Si / 1000 Ang^3
#
#
#
# Elastic Constant Matrix: (Units=GPa)
#
#
# Indices 1 2 3 4 5 6 
#
# 1 109.5140 39.5182 -2.4967 0.0000 0.0000 0.0000
# 2 39.5182 93.0633 0.8990 0.0000 0.0000 0.0000
# 3 -2.4967 0.8990 7.6976 0.0000 0.0000 0.0000
# 4 0.0000 0.0000 0.0000 7.7152 0.0000 0.0000
# 5 0.0000 0.0000 0.0000 0.0000 27.8156 0.0000
# 6 0.0000 0.0000 0.0000 0.0000 0.0000 20.5404
#
#
#
# Elastic Compliance Matrix: (Units=1/GPa)
#
#
# Indices 1 2 3 4 5 6 
#
# 1 0.010910 -0.004672 0.004084 0.000000 0.000000 0.000000
# 2 -0.004672 0.012759 -0.003006 0.000000 0.000000 0.000000
# 3 0.004084 -0.003006 0.131586 0.000000 0.000000 0.000000
# 4 0.000000 0.000000 0.000000 0.129614 0.000000 0.000000
# 5 0.000000 0.000000 0.000000 0.000000 0.035951 0.000000
# 6 0.000000 0.000000 0.000000 0.000000 0.000000 0.048684
#
#
# Mechanical properties :
#
#
# Convention : Reuss Voigt Hill
#
# Bulk Modulus (GPa) = 6.75368 31.79069 19.27218
# Shear Modulus (GPa) = 11.73577 22.70453 17.22015
#
# Velocity S-wave (km/s) = 2.38414 3.31614 2.88799
# Velocity P-wave (km/s) = 3.29393 5.48270 4.52272
#
# Compressibility (1/GPa) = 0.14806752
#
# Stress axis : x y z
#
# Youngs Moduli (GPa) = 91.65549 78.37910 7.59961
#
# Poissons Ratio (x) = 0.36622 -0.03104
# Poissons Ratio (y) = 0.42825 0.02284
# Poissons Ratio (z) = -0.37436 0.23558
#
# Static dielectric constant tensor:
#      x y z
#    x 1.728480 0.000000 0.000000 
#    y 0.000000 1.760270 0.000000 
#    z 0.000000 0.000000 1.756490 
# 
# From -- ./inp_files/22842.got.cif
#   From: 2010.05.17/outbox.cif.g08.bks.cpg/sg69_12_cif.got.tgz:22842.got - 2010.06.03 19:29:58.
