data_PCOD9512371
_publ_section_title
;
Structure prediction by ZEFSAII (Michael W. Deem and Ramdas Pophale) SiO2 
 PCOD9512371
Probable space group: F M M M
;
_chemical_formula_sum "Si O2"
_cell_formula_units_Z 144
_cell_length_a 8.496469
_cell_length_b 32.652168
_cell_length_c 29.070533
_cell_angle_alpha 90.000000
_cell_angle_beta 90.000000
_cell_angle_gamma 90.000000
_cell_volume 8064.983701
_symmetry_space_group_name_H-M "F M M M"
_symmetry_group_IT_number 69
_symmetry_cell_setting 'orthorhombic'
loop_
_space_group_symop_operation_xyz
x,y,z
-x,-y,z
x,-y,-z
-x,y,-z
-x,-y,-z
x,y,-z
-x,y,z
x,-y,z
x,1/2+y,1/2+z
-x,1/2-y,1/2+z
x,1/2-y,1/2-z
-x,1/2+y,1/2-z
-x,1/2-y,1/2-z
x,1/2+y,1/2-z
-x,1/2+y,1/2+z
x,1/2-y,1/2+z
1/2+x,y,1/2+z
1/2-x,-y,1/2+z
1/2+x,-y,1/2-z
1/2-x,y,1/2-z
1/2-x,-y,1/2-z
1/2+x,y,1/2-z
1/2-x,y,1/2+z
1/2+x,-y,1/2+z
1/2+x,1/2+y,z
1/2-x,1/2-y,z
1/2+x,1/2-y,-z
1/2-x,1/2+y,-z
1/2-x,1/2-y,-z
1/2+x,1/2+y,-z
1/2-x,1/2+y,z
1/2+x,1/2-y,z
loop_
_atom_site_type_symbol
_atom_site_label
_atom_site_fract_x
_atom_site_fract_y
_atom_site_fract_z
Si Si1 0.821354 0.906801 0.553849
Si Si2 0.184405 0.706908 0.698606
Si Si3 0.500000 0.544831 0.944641
Si Si4 0.690298 0.454078 0.697746
Si Si5 0.183015 0.629456 0.147845
O O1 0.810937 0.894871 0.500000
O O2 0.667962 0.934028 0.564844
O O3 0.811626 0.872033 0.592544
O O4 0.000000 0.925336 0.559846
O O5 0.250000 0.700928 0.750000
O O6 0.250000 0.750000 0.680151
O O7 0.227040 0.667581 0.668692
O O8 0.000000 0.711165 0.702299
O O9 0.500000 0.500000 0.923542
O O10 0.500000 0.541884 0.000000
O O11 0.500000 0.454289 0.697709
O O12 0.741298 0.500000 0.682280
O O13 0.750000 0.448746 0.750000
O O14 0.739424 0.414679 0.667714
O O15 0.000000 0.633463 0.161710
#
# Coordination Sequence:
#
# PCOD9512371 Si02
#       5
#    32  32  16  32  32
#     4   9  19  35  54  77 108 146 187 234 288 337
#     4  11  22  37  58  83 114 143 177 222 276 333
#     4   9  18  32  50  74 106 141 186 240 284 333
#     4   9  18  32  48  69 101 139 177 219 263 313
#     4  10  20  34  55  80 107 141 186 228 274 335
#
# _framework density 17.854963999999999
#
# number of rings (size 3 to 8) (size 9 to 14) (size 15 to 20)
#    0.000    2.333    0.000    3.333    1.556    4.000 
#    0.000    4.444    0.000    0.667    0.000    0.000 
#    0.000    0.000    0.000    0.000    0.000    0.000 
#
# Total GULP energy -200482.045784 kJ/mol
# GULP energy per Si atom -5568.945716 kJ/mol
# Density = 1.781433 g / cm^3
# Si number density = 17.854964 Si / 1000 Ang^3
#
#
#
# Elastic Constant Matrix: (Units=GPa)
#
#
# Indices 1 2 3 4 5 6 
#
# 1 115.7948 60.8317 37.3627 0.0000 0.0000 0.0000
# 2 60.8317 121.9185 59.7671 0.0000 0.0000 0.0000
# 3 37.3627 59.7671 73.7707 0.0000 0.0000 0.0000
# 4 0.0000 0.0000 0.0000 8.7567 0.0000 0.0000
# 5 0.0000 0.0000 0.0000 0.0000 17.4058 0.0000
# 6 0.0000 0.0000 0.0000 0.0000 0.0000 21.3046
#
#
#
# Elastic Compliance Matrix: (Units=1/GPa)
#
#
# Indices 1 2 3 4 5 6 
#
# 1 0.011882 -0.004941 -0.002015 0.000000 0.000000 0.000000
# 2 -0.004941 0.015660 -0.010185 0.000000 0.000000 0.000000
# 3 -0.002015 -0.010185 0.022828 0.000000 0.000000 0.000000
# 4 0.000000 0.000000 0.000000 0.114198 0.000000 0.000000
# 5 0.000000 0.000000 0.000000 0.000000 0.057452 0.000000
# 6 0.000000 0.000000 0.000000 0.000000 0.000000 0.046938
#
#
# Mechanical properties :
#
#
# Convention : Reuss Voigt Hill
#
# Bulk Modulus (GPa) = 62.15767 69.71189 65.93478
# Shear Modulus (GPa) = 16.20202 19.72825 17.96514
#
# Velocity S-wave (km/s) = 3.01562 3.32764 3.17546
# Velocity P-wave (km/s) = 6.85663 7.34114 7.10302
#
# Compressibility (1/GPa) = 0.01608812
#
# Stress axis : x y z
#
# Youngs Moduli (GPa) = 84.16360 63.85515 43.80596
#
# Poissons Ratio (x) = 0.31548 0.08827
# Poissons Ratio (y) = 0.41582 0.44618
# Poissons Ratio (z) = 0.16958 0.65039
#
# Static dielectric constant tensor:
#      x y z
#    x 1.655460 0.000000 0.000000 
#    y 0.000000 1.609350 0.000000 
#    z 0.000000 0.000000 1.603920 
# 
# From -- ./inp_files/44510.got.cif
#   From: 2010.05.17/outbox.cif.g08.bks.cpg/sg69_23_cif.got.tgz:44510.got - 2010.06.03 19:29:58.
