data_PCOD9512542
_publ_section_title
;
Structure prediction by ZEFSAII (Michael W. Deem and Ramdas Pophale) SiO2 
 PCOD9512542
Probable space group: F M M M
;
_chemical_formula_sum "Si O2"
_cell_formula_units_Z 132
_cell_length_a 23.465709
_cell_length_b 15.039204
_cell_length_c 16.592301
_cell_angle_alpha 90.000000
_cell_angle_beta 90.000000
_cell_angle_gamma 90.000000
_cell_volume 5855.515685
_symmetry_space_group_name_H-M "F M M M"
_symmetry_group_IT_number 69
_symmetry_cell_setting 'orthorhombic'
loop_
_space_group_symop_operation_xyz
x,y,z
-x,-y,z
x,-y,-z
-x,y,-z
-x,-y,-z
x,y,-z
-x,y,z
x,-y,z
x,1/2+y,1/2+z
-x,1/2-y,1/2+z
x,1/2-y,1/2-z
-x,1/2+y,1/2-z
-x,1/2-y,1/2-z
x,1/2+y,1/2-z
-x,1/2+y,1/2+z
x,1/2-y,1/2+z
1/2+x,y,1/2+z
1/2-x,-y,1/2+z
1/2+x,-y,1/2-z
1/2-x,y,1/2-z
1/2-x,-y,1/2-z
1/2+x,y,1/2-z
1/2-x,y,1/2+z
1/2+x,-y,1/2+z
1/2+x,1/2+y,z
1/2-x,1/2-y,z
1/2+x,1/2-y,-z
1/2-x,1/2+y,-z
1/2-x,1/2-y,-z
1/2+x,1/2+y,-z
1/2-x,1/2+y,z
1/2+x,1/2-y,z
loop_
_atom_site_type_symbol
_atom_site_label
_atom_site_fract_x
_atom_site_fract_y
_atom_site_fract_z
Si Si1 0.000000 0.500000 0.000000
Si Si2 0.120881 0.108245 0.672370
Si Si3 0.805275 0.890884 0.000000
Si Si4 0.500000 0.157167 0.868992
Si Si5 0.873466 0.605311 0.345804
Si Si6 0.326928 0.891538 0.000000
Si Si7 0.500000 0.858632 0.407816
O O1 0.000000 0.422875 0.931503
O O2 0.147397 0.136797 0.757765
O O3 0.144574 0.136719 0.584813
O O4 0.057362 0.145263 0.680082
O O5 0.120051 0.000000 0.670480
O O6 0.838034 0.857582 0.920879
O O7 0.739150 0.866706 0.000000
O O8 0.807309 0.000000 0.000000
O O9 0.500000 0.252311 0.909562
O O10 0.862740 0.500000 0.345360
O O11 0.940889 0.615563 0.364337
O O12 0.331563 0.000000 0.000000
O O13 0.500000 0.893144 0.500000
#
# Coordination Sequence:
#
# PCOD9512542 Si02
#       7
#     4  32  16  16  32  16  16
#     4  12  20  36  60  84 118 158 184 236 292 358
#     4  10  20  35  58  87 117 154 194 242 299 360
#     4   9  18  35  56  82 116 156 197 247 291 339
#     4  12  23  36  60  88 122 152 188 241 301 360
#     4  10  21  37  59  85 120 160 199 241 292 347
#     4   9  19  33  56  87 116 150 203 249 293 348
#     4  12  24  36  58  91 115 156 200 240 290 357
#
# _framework density 22.542847999999999
#
# number of rings (size 3 to 8) (size 9 to 14) (size 15 to 20)
#    0.000    1.697    3.030    1.818    1.697    5.333 
#    0.000    4.848    0.000    2.909    0.000    3.394 
#    0.000    0.000    0.000    0.000    0.000    0.000 
#
# Total GULP energy -183999.155650 kJ/mol
# GULP energy per Si atom -5575.731989 kJ/mol
# Density = 2.249154 g / cm^3
# Si number density = 22.542848 Si / 1000 Ang^3
#
#
#
# Elastic Constant Matrix: (Units=GPa)
#
#
# Indices 1 2 3 4 5 6 
#
# 1 117.6260 -16.7676 87.9778 0.0000 0.0000 0.0000
# 2 -16.7676 63.3075 8.1203 0.0000 0.0000 0.0000
# 3 87.9778 8.1203 250.4732 0.0000 0.0000 0.0000
# 4 0.0000 0.0000 0.0000 17.2295 0.0000 0.0000
# 5 0.0000 0.0000 0.0000 0.0000 -11.5252 0.0000
# 6 0.0000 0.0000 0.0000 0.0000 0.0000 9.1740
#
#
#
# Elastic Compliance Matrix: (Units=1/GPa)
#
#
# Indices 1 2 3 4 5 6 
#
# 1 0.012404 0.003860 -0.004482 0.000000 0.000000 0.000000
# 2 0.003860 0.017063 -0.001909 0.000000 0.000000 0.000000
# 3 -0.004482 -0.001909 0.005629 0.000000 0.000000 0.000000
# 4 0.000000 0.000000 0.000000 0.058040 0.000000 0.000000
# 5 0.000000 0.000000 0.000000 0.000000 -0.086766 0.000000
# 6 0.000000 0.000000 0.000000 0.000000 0.000000 0.109003
#
#
# Mechanical properties :
#
#
# Convention : Reuss Voigt Hill
#
# Bulk Modulus (GPa) = 33.29536 65.56308 49.42922
# Shear Modulus (GPa) = 38.33010 26.44743 32.38877
#
# Velocity S-wave (km/s) = 4.12797 3.42893 3.79458
# Velocity P-wave (km/s) = 6.12552 6.69504 6.41661
#
# Compressibility (1/GPa) = 0.03003421
#
# Stress axis : x y z
#
# Youngs Moduli (GPa) = 80.61833 58.60561 177.66285
#
# Poissons Ratio (x) = -0.22623 0.79629
# Poissons Ratio (y) = -0.31121 0.33917
# Poissons Ratio (z) = 0.36134 0.11188
#
# Static dielectric constant tensor:
#      x y z
#    x 1.830980 0.000000 0.000000 
#    y 0.000000 1.812660 0.000000 
#    z 0.000000 0.000000 1.875730 
# 
# From -- ./inp_files/18688.got.cif
#   From: 2010.05.17/outbox.cif.g08.bks.cpg/sg69_10_cif.got.tgz:18688.got - 2010.06.03 19:29:58.
