data_PCOD9512375
_publ_section_title
;
Structure prediction by ZEFSAII (Michael W. Deem and Ramdas Pophale) SiO2 
 PCOD9512375
Probable space group: F M M M
;
_chemical_formula_sum "Si O2"
_cell_formula_units_Z 160
_cell_length_a 26.510344
_cell_length_b 34.286033
_cell_length_c 9.849854
_cell_angle_alpha 90.000000
_cell_angle_beta 90.000000
_cell_angle_gamma 90.000000
_cell_volume 8952.872408
_symmetry_space_group_name_H-M "F M M M"
_symmetry_group_IT_number 69
_symmetry_cell_setting 'orthorhombic'
loop_
_space_group_symop_operation_xyz
x,y,z
-x,-y,z
x,-y,-z
-x,y,-z
-x,-y,-z
x,y,-z
-x,y,z
x,-y,z
x,1/2+y,1/2+z
-x,1/2-y,1/2+z
x,1/2-y,1/2-z
-x,1/2+y,1/2-z
-x,1/2-y,1/2-z
x,1/2+y,1/2-z
-x,1/2+y,1/2+z
x,1/2-y,1/2+z
1/2+x,y,1/2+z
1/2-x,-y,1/2+z
1/2+x,-y,1/2-z
1/2-x,y,1/2-z
1/2-x,-y,1/2-z
1/2+x,y,1/2-z
1/2-x,y,1/2+z
1/2+x,-y,1/2+z
1/2+x,1/2+y,z
1/2-x,1/2-y,z
1/2+x,1/2-y,-z
1/2-x,1/2+y,-z
1/2-x,1/2-y,-z
1/2+x,1/2+y,-z
1/2-x,1/2+y,z
1/2+x,1/2-y,z
loop_
_atom_site_type_symbol
_atom_site_label
_atom_site_fract_x
_atom_site_fract_y
_atom_site_fract_z
Si Si1 0.940857 0.322255 0.660721
Si Si2 0.059962 0.544742 0.000000
Si Si3 0.598483 0.093324 0.746501
Si Si4 0.559142 0.953598 0.500000
Si Si5 0.854496 0.285162 0.839767
Si Si6 0.799415 0.131924 0.659317
O O1 0.927213 0.318167 0.500000
O O2 0.930471 0.366832 0.706365
O O3 0.906014 0.296710 0.760308
O O4 0.000000 0.313230 0.674562
O O5 0.076525 0.570601 0.873806
O O6 0.079944 0.500000 0.000000
O O7 0.000000 0.541698 0.000000
O O8 0.588875 0.063648 0.626019
O O9 0.655412 0.105839 0.780289
O O10 0.500000 0.940565 0.500000
O O11 0.558647 0.000000 0.500000
O O12 0.832420 0.250000 0.750000
O O13 0.819593 0.323506 0.834022
O O14 0.862367 0.275742 0.000000
O O15 0.791084 0.122766 0.500000
O O16 0.750000 0.127597 0.750000
#
# Coordination Sequence:
#
# PCOD9512375 Si02
#       6
#    32  16  32  16  32  32
#     4  10  20  34  55  82 115 160 203 239 286 344
#     4  11  22  36  59  89 124 163 195 237 297 355
#     4  11  21  38  58  88 123 158 201 249 292 351
#     4  11  22  36  59  93 128 161 197 237 291 355
#     4  10  22  39  58  86 119 150 190 240 295 352
#     4  10  23  41  64  89 112 151 202 249 300 350
#
# _framework density 17.871359000000002
#
# number of rings (size 3 to 8) (size 9 to 14) (size 15 to 20)
#    0.000    1.600    2.000    3.000    2.800    4.400 
#    0.000    2.000    0.000    3.600    0.000    0.000 
#    0.000    0.000    0.000    0.000    0.000    0.000 
#
# Total GULP energy -223213.211741 kJ/mol
# GULP energy per Si atom -5580.330294 kJ/mol
# Density = 1.783068 g / cm^3
# Si number density = 17.871359 Si / 1000 Ang^3
#
#
#
# Elastic Constant Matrix: (Units=GPa)
#
#
# Indices 1 2 3 4 5 6 
#
# 1 110.3033 32.7941 68.5498 -0.0030 -0.0008 0.0007
# 2 32.7941 80.2433 51.7561 -0.0007 -0.0002 0.0003
# 3 68.5498 51.7561 186.5541 -0.0075 -0.0024 0.0030
# 4 -0.0030 -0.0007 -0.0075 63.5704 0.0006 0.0025
# 5 -0.0008 -0.0002 -0.0024 0.0006 22.2455 -0.0002
# 6 0.0007 0.0003 0.0030 0.0025 -0.0002 6.5920
#
#
#
# Elastic Compliance Matrix: (Units=1/GPa)
#
#
# Indices 1 2 3 4 5 6 
#
# 1 0.012160 -0.002543 -0.003763 0.000000 0.000000 0.000001
# 2 -0.002543 0.015710 -0.003424 0.000000 0.000000 0.000001
# 3 -0.003763 -0.003424 0.007693 0.000001 0.000001 -0.000003
# 4 0.000000 0.000000 0.000001 0.015731 0.000000 -0.000006
# 5 0.000000 0.000000 0.000001 0.000000 0.044953 0.000001
# 6 0.000001 0.000001 -0.000003 -0.000006 0.000001 0.151700
#
#
# Mechanical properties :
#
#
# Convention : Reuss Voigt Hill
#
# Bulk Modulus (GPa) = 62.09728 75.92229 69.00978
# Shear Modulus (GPa) = 18.33018 33.41494 25.87256
#
# Velocity S-wave (km/s) = 3.20609 4.32875 3.80901
# Velocity P-wave (km/s) = 6.96617 8.21943 7.61861
#
# Compressibility (1/GPa) = 0.01610377
#
# Stress axis : x y z
#
# Youngs Moduli (GPa) = 82.23392 63.65479 129.98772
#
# Poissons Ratio (x) = 0.16185 0.48914
# Poissons Ratio (y) = 0.20910 0.44509
# Poissons Ratio (z) = 0.30944 0.21796
#
# Static dielectric constant tensor:
#      x y z
#    x 1.583870 0.000000 0.000000 
#    y 0.000000 1.617650 0.000000 
#    z 0.000000 0.000000 1.558790 
# 
# From -- ./inp_files/5810.got.cif
#   From: 2010.05.17/outbox.cif.g08.bks.cpg/sg69_3_cif.got.tgz:5810.got - 2010.06.03 19:29:58.
