data_PCOD9512556
_publ_section_title
;
Structure prediction by ZEFSAII (Michael W. Deem and Ramdas Pophale) SiO2 
 PCOD9512556
Probable space group: F M M M
;
_chemical_formula_sum "Si O2"
_cell_formula_units_Z 100
_cell_length_a 27.327021
_cell_length_b 23.795863
_cell_length_c 7.910140
_cell_angle_alpha 90.000000
_cell_angle_beta 90.000000
_cell_angle_gamma 90.000000
_cell_volume 5143.727117
_symmetry_space_group_name_H-M "F M M M"
_symmetry_group_IT_number 69
_symmetry_cell_setting 'orthorhombic'
loop_
_space_group_symop_operation_xyz
x,y,z
-x,-y,z
x,-y,-z
-x,y,-z
-x,-y,-z
x,y,-z
-x,y,z
x,-y,z
x,1/2+y,1/2+z
-x,1/2-y,1/2+z
x,1/2-y,1/2-z
-x,1/2+y,1/2-z
-x,1/2-y,1/2-z
x,1/2+y,1/2-z
-x,1/2+y,1/2+z
x,1/2-y,1/2+z
1/2+x,y,1/2+z
1/2-x,-y,1/2+z
1/2+x,-y,1/2-z
1/2-x,y,1/2-z
1/2-x,-y,1/2-z
1/2+x,y,1/2-z
1/2-x,y,1/2+z
1/2+x,-y,1/2+z
1/2+x,1/2+y,z
1/2-x,1/2-y,z
1/2+x,1/2-y,-z
1/2-x,1/2+y,-z
1/2-x,1/2-y,-z
1/2+x,1/2+y,-z
1/2-x,1/2+y,z
1/2+x,1/2-y,z
loop_
_atom_site_type_symbol
_atom_site_label
_atom_site_fract_x
_atom_site_fract_y
_atom_site_fract_z
Si Si1 0.500000 0.683869 0.703349
Si Si2 0.399343 0.120843 0.206998
Si Si3 0.077389 0.000000 0.191200
Si Si4 0.303095 0.315101 0.700126
Si Si5 0.500000 0.500000 0.500000
O O1 0.500000 0.680924 0.500000
O O2 0.500000 0.750000 0.750000
O O3 0.450517 0.651269 0.758903
O O4 0.352038 0.155476 0.265249
O O5 0.395209 0.058819 0.282781
O O6 0.400320 0.117864 0.000000
O O7 0.040966 0.000000 0.349675
O O8 0.057019 0.000000 0.000000
O O9 0.305653 0.318199 0.500000
O O10 0.304061 0.250000 0.750000
O O11 0.250000 0.338848 0.750000
#
# Coordination Sequence:
#
# PCOD9512556 Si02
#       5
#    16  32  16  32   4
#     4  10  21  35  56  82 115 155 190 239 308 364
#     4  10  21  39  60  84 123 163 198 256 314 364
#     4  12  25  39  66  93 116 170 213 248 311 366
#     4  10  20  35  59  88 121 163 206 256 316 363
#     4  12  22  44  60  82 136 148 206 260 288 350
#
# _framework density 19.441155999999999
#
# number of rings (size 3 to 8) (size 9 to 14) (size 15 to 20)
#    0.000    1.600    1.600    4.080    2.240    3.840 
#    0.000    0.800    0.000    0.000    0.000    0.000 
#    0.000    0.000    0.000    0.000    0.000    0.000 
#
# Total GULP energy -139186.904584 kJ/mol
# GULP energy per Si atom -5567.476183 kJ/mol
# Density = 1.939691 g / cm^3
# Si number density = 19.441156 Si / 1000 Ang^3
#
#
#
# Elastic Constant Matrix: (Units=GPa)
#
#
# Indices 1 2 3 4 5 6 
#
# 1 191.7734 89.4809 27.2315 0.0027 -0.0020 -0.0026
# 2 89.4809 131.3880 7.7035 0.0046 -0.0039 -0.0064
# 3 27.2315 7.7035 73.4399 0.0041 -0.0048 -0.0090
# 4 0.0027 0.0046 0.0041 23.6399 -0.0040 -0.0078
# 5 -0.0020 -0.0039 -0.0048 -0.0040 31.4626 0.0043
# 6 -0.0026 -0.0064 -0.0090 -0.0078 0.0043 48.1666
#
#
#
# Elastic Compliance Matrix: (Units=1/GPa)
#
#
# Indices 1 2 3 4 5 6 
#
# 1 0.008051 -0.005341 -0.002425 0.000001 -0.000001 -0.000001
# 2 -0.005341 0.011201 0.000805 -0.000002 0.000001 0.000001
# 3 -0.002425 0.000805 0.014431 -0.000002 0.000002 0.000003
# 4 0.000001 -0.000002 -0.000002 0.042301 0.000005 0.000007
# 5 -0.000001 0.000001 0.000002 0.000005 0.031784 -0.000003
# 6 -0.000001 0.000001 0.000003 0.000007 -0.000003 0.020761
#
#
# Mechanical properties :
#
#
# Convention : Reuss Voigt Hill
#
# Bulk Modulus (GPa) = 50.60096 71.71478 61.15787
# Shear Modulus (GPa) = 33.54850 38.79951 36.17400
#
# Velocity S-wave (km/s) = 4.15859 4.47222 4.31825
# Velocity P-wave (km/s) = 7.01019 7.97721 7.50928
#
# Compressibility (1/GPa) = 0.01976247
#
# Stress axis : x y z
#
# Youngs Moduli (GPa) = 124.21082 89.27677 69.29387
#
# Poissons Ratio (x) = 0.47681 0.16804
# Poissons Ratio (y) = 0.66338 -0.05581
# Poissons Ratio (z) = 0.30121 -0.07191
#
# Static dielectric constant tensor:
#      x y z
#    x 1.705760 0.000000 0.000000 
#    y 0.000000 1.591840 0.000000 
#    z 0.000000 0.000000 1.689230 
# 
# From -- ./inp_files/3105.got.cif
#   From: 2010.05.17/outbox.cif.g08.bks.cpg/sg69_2_cif.got.tgz:3105.got - 2010.06.03 19:29:58.
