data_PCOD9512627
_publ_section_title
;
Structure prediction by ZEFSAII (Michael W. Deem and Ramdas Pophale) SiO2 
 PCOD9512627
Probable space group: F M M M
;
_chemical_formula_sum "Si O2"
_cell_formula_units_Z 160
_cell_length_a 32.974769
_cell_length_b 9.880263
_cell_length_c 27.806249
_cell_angle_alpha 90.000000
_cell_angle_beta 90.000000
_cell_angle_gamma 90.000000
_cell_volume 9059.258965
_symmetry_space_group_name_H-M "F M M M"
_symmetry_group_IT_number 69
_symmetry_cell_setting 'orthorhombic'
loop_
_space_group_symop_operation_xyz
x,y,z
-x,-y,z
x,-y,-z
-x,y,-z
-x,-y,-z
x,y,-z
-x,y,z
x,-y,z
x,1/2+y,1/2+z
-x,1/2-y,1/2+z
x,1/2-y,1/2-z
-x,1/2+y,1/2-z
-x,1/2-y,1/2-z
x,1/2+y,1/2-z
-x,1/2+y,1/2+z
x,1/2-y,1/2+z
1/2+x,y,1/2+z
1/2-x,-y,1/2+z
1/2+x,-y,1/2-z
1/2-x,y,1/2-z
1/2-x,-y,1/2-z
1/2+x,y,1/2-z
1/2-x,y,1/2+z
1/2+x,-y,1/2+z
1/2+x,1/2+y,z
1/2-x,1/2-y,z
1/2+x,1/2-y,-z
1/2-x,1/2+y,-z
1/2-x,1/2-y,-z
1/2+x,1/2+y,-z
1/2-x,1/2+y,z
1/2+x,1/2-y,z
loop_
_atom_site_type_symbol
_atom_site_label
_atom_site_fract_x
_atom_site_fract_y
_atom_site_fract_z
Si Si1 0.208848 0.338299 0.943895
Si Si2 0.063002 0.149738 0.943286
Si Si3 0.645203 0.156994 0.389800
Si Si4 0.500000 0.850040 0.100287
Si Si5 0.091207 0.152905 0.203985
Si Si6 0.500000 0.219445 0.306087
O O1 0.214447 0.500000 0.934552
O O2 0.250000 0.250000 0.940837
O O3 0.178026 0.265723 0.907055
O O4 0.194853 0.326827 0.000000
O O5 0.109869 0.158842 0.929733
O O6 0.038346 0.266923 0.918027
O O7 0.049058 0.000000 0.927162
O O8 0.056692 0.158590 0.000000
O O9 0.621640 0.187977 0.339744
O O10 0.660430 0.000000 0.387170
O O11 0.500000 0.845540 0.157953
O O12 0.500000 0.000000 0.081248
O O13 0.094518 0.250000 0.250000
O O14 0.044203 0.153282 0.185883
O O15 0.100601 0.000000 0.219117
O O16 0.500000 0.250000 0.250000
#
# Coordination Sequence:
#
# PCOD9512627 Si02
#       6
#    32  32  32  16  32  16
#     4  10  21  37  59  88 119 150 183 224 274 330
#     4  10  21  37  55  74 104 149 191 225 271 334
#     4  10  20  36  58  83 111 147 186 227 276 334
#     4  12  24  36  52  76 107 142 184 238 288 326
#     4  10  21  36  58  83 111 147 189 237 286 335
#     4  10  21  38  54  75 107 146 191 235 288 339
#
# _framework density 17.661489
#
# number of rings (size 3 to 8) (size 9 to 14) (size 15 to 20)
#    0.000    1.800    2.000    2.100    0.000    9.200 
#    0.000    0.000    0.000    0.600    0.000    4.200 
#    0.000    0.000    0.000    0.000    0.000    0.000 
#
# Total GULP energy -222906.949178 kJ/mol
# GULP energy per Si atom -5572.673729 kJ/mol
# Density = 1.762129 g / cm^3
# Si number density = 17.661489 Si / 1000 Ang^3
#
#
#
# Elastic Constant Matrix: (Units=GPa)
#
#
# Indices 1 2 3 4 5 6 
#
# 1 78.9642 61.8474 43.4966 0.0000 0.0000 0.0000
# 2 61.8474 149.3443 66.0118 0.0000 0.0000 0.0000
# 3 43.4966 66.0118 98.1477 0.0000 0.0000 0.0000
# 4 0.0000 0.0000 0.0000 27.4300 0.0000 0.0000
# 5 0.0000 0.0000 0.0000 0.0000 32.4654 0.0000
# 6 0.0000 0.0000 0.0000 0.0000 0.0000 25.2288
#
#
#
# Elastic Compliance Matrix: (Units=1/GPa)
#
#
# Indices 1 2 3 4 5 6 
#
# 1 0.020175 -0.006266 -0.004727 0.000000 0.000000 0.000000
# 2 -0.006266 0.011475 -0.004941 0.000000 0.000000 0.000000
# 3 -0.004727 -0.004941 0.015607 0.000000 0.000000 0.000000
# 4 0.000000 0.000000 0.000000 0.036456 0.000000 0.000000
# 5 0.000000 0.000000 0.000000 0.000000 0.030802 0.000000
# 6 0.000000 0.000000 0.000000 0.000000 0.000000 0.039637
#
#
# Mechanical properties :
#
#
# Convention : Reuss Voigt Hill
#
# Bulk Modulus (GPa) = 64.97891 74.35197 69.66544
# Shear Modulus (GPa) = 26.15759 27.36486 26.76123
#
# Velocity S-wave (km/s) = 3.85262 3.94052 3.89682
# Velocity P-wave (km/s) = 7.52738 7.93053 7.73158
#
# Compressibility (1/GPa) = 0.01538961
#
# Stress axis : x y z
#
# Youngs Moduli (GPa) = 49.56548 87.14898 64.07538
#
# Poissons Ratio (x) = 0.54605 0.30288
# Poissons Ratio (y) = 0.31057 0.31658
# Poissons Ratio (z) = 0.23430 0.43058
#
# Static dielectric constant tensor:
#      x y z
#    x 1.610390 0.000000 0.000000 
#    y 0.000000 1.608060 0.000000 
#    z 0.000000 0.000000 1.616730 
# 
# From -- ./inp_files/47475.got.cif
#   From: 2010.05.17/outbox.cif.g08.bks.cpg/sg69_24_cif.got.tgz:47475.got - 2010.06.03 19:29:58.
