data_PCOD9512231
_publ_section_title
;
Structure prediction by ZEFSAII (Michael W. Deem and Ramdas Pophale) SiO2 
 PCOD9512231
Probable space group: F M M M
;
_chemical_formula_sum "Si O2"
_cell_formula_units_Z 160
_cell_length_a 9.912538
_cell_length_b 33.025664
_cell_length_c 26.565607
_cell_angle_alpha 90.000000
_cell_angle_beta 90.000000
_cell_angle_gamma 90.000000
_cell_volume 8696.733601
_symmetry_space_group_name_H-M "F M M M"
_symmetry_group_IT_number 69
_symmetry_cell_setting 'orthorhombic'
loop_
_space_group_symop_operation_xyz
x,y,z
-x,-y,z
x,-y,-z
-x,y,-z
-x,-y,-z
x,y,-z
-x,y,z
x,-y,z
x,1/2+y,1/2+z
-x,1/2-y,1/2+z
x,1/2-y,1/2-z
-x,1/2+y,1/2-z
-x,1/2-y,1/2-z
x,1/2+y,1/2-z
-x,1/2+y,1/2+z
x,1/2-y,1/2+z
1/2+x,y,1/2+z
1/2-x,-y,1/2+z
1/2+x,-y,1/2-z
1/2-x,y,1/2-z
1/2-x,-y,1/2-z
1/2+x,y,1/2-z
1/2-x,y,1/2+z
1/2+x,-y,1/2+z
1/2+x,1/2+y,z
1/2-x,1/2-y,z
1/2+x,1/2-y,-z
1/2-x,1/2+y,-z
1/2-x,1/2-y,-z
1/2+x,1/2+y,-z
1/2-x,1/2+y,z
1/2+x,1/2-y,z
loop_
_atom_site_type_symbol
_atom_site_label
_atom_site_fract_x
_atom_site_fract_y
_atom_site_fract_z
Si Si1 0.722972 0.921088 0.635431
Si Si2 0.000000 0.549591 0.712417
Si Si3 0.500000 0.695581 0.788983
Si Si4 0.500000 0.823225 0.441941
Si Si5 0.000000 0.210941 0.324897
Si Si6 0.000000 0.922062 0.057245
Si Si7 0.227323 0.825492 0.863720
Si Si8 0.000000 0.452586 0.172499
O O1 0.629673 0.932649 0.683275
O O2 0.632306 0.934836 0.588162
O O3 0.749435 0.873244 0.629832
O O4 0.866612 0.940790 0.642943
O O5 0.000000 0.500000 0.709058
O O6 0.000000 0.563905 0.770236
O O7 0.500000 0.742400 0.807411
O O8 0.500000 0.689133 0.729546
O O9 0.366584 0.677952 0.814416
O O10 0.500000 0.809951 0.500000
O O11 0.500000 0.872593 0.441629
O O12 0.632336 0.810779 0.409921
O O13 0.134767 0.198664 0.354844
O O14 0.000000 0.935556 0.000000
O O15 0.000000 0.500000 0.179676
#
# Coordination Sequence:
#
# PCOD9512231 Si02
#       8
#    32  16  16  16  16  16  32  16
#     4  10  20  33  53  79 101 129 173 216 251 293
#     4  10  20  34  51  71 101 143 177 198 239 308
#     4  10  21  35  50  71 106 148 173 198 250 305
#     4   8  16  34  56  76 101 131 165 210 263 308
#     4  11  21  33  50  75 108 141 173 205 248 308
#     4   8  16  34  57  76  96 128 171 213 253 303
#     4  10  20  33  53  78 101 132 173 216 254 291
#     4  11  22  34  49  73 109 142 161 197 259 309
#
# _framework density 18.397713
#
# number of rings (size 3 to 8) (size 9 to 14) (size 15 to 20)
#    0.000    2.200    0.000    4.800    0.000    8.000 
#    0.000    1.000    0.000   25.800    0.000    0.000 
#    0.000    0.000    0.000    0.000    0.000    0.000 
#
# Total GULP energy -223151.690208 kJ/mol
# GULP energy per Si atom -5578.792255 kJ/mol
# Density = 1.835584 g / cm^3
# Si number density = 18.397713 Si / 1000 Ang^3
#
#
#
# Elastic Constant Matrix: (Units=GPa)
#
#
# Indices 1 2 3 4 5 6 
#
# 1 167.4067 14.6176 72.0395 0.0000 0.0000 0.0000
# 2 14.6176 22.8013 10.6138 0.0000 0.0000 0.0000
# 3 72.0395 10.6138 143.5391 0.0000 0.0000 0.0000
# 4 0.0000 0.0000 0.0000 47.3994 0.0000 0.0000
# 5 0.0000 0.0000 0.0000 0.0000 2.9500 0.0000
# 6 0.0000 0.0000 0.0000 0.0000 0.0000 -49.4080
#
#
#
# Elastic Compliance Matrix: (Units=1/GPa)
#
#
# Indices 1 2 3 4 5 6 
#
# 1 0.007854 -0.003314 -0.003696 0.000000 0.000000 0.000000
# 2 -0.003314 0.046819 -0.001799 0.000000 0.000000 0.000000
# 3 -0.003696 -0.001799 0.008955 0.000000 0.000000 0.000000
# 4 0.000000 0.000000 0.000000 0.021097 0.000000 0.000000
# 5 0.000000 0.000000 0.000000 0.000000 0.338980 0.000000
# 6 0.000000 0.000000 0.000000 0.000000 0.000000 -0.020240
#
#
# Mechanical properties :
#
#
# Convention : Reuss Voigt Hill
#
# Bulk Modulus (GPa) = 21.73492 58.69877 40.21685
# Shear Modulus (GPa) = 11.45686 15.95336 13.70511
#
# Velocity S-wave (km/s) = 2.49817 2.94792 2.73231
# Velocity P-wave (km/s) = 4.49007 6.60013 5.64457
#
# Compressibility (1/GPa) = 0.04600891
#
# Stress axis : x y z
#
# Youngs Moduli (GPa) = 127.33086 21.35886 111.67012
#
# Poissons Ratio (x) = 0.07079 0.41279
# Poissons Ratio (y) = 0.42199 0.20086
# Poissons Ratio (z) = 0.47068 0.03842
#
# Static dielectric constant tensor:
#      x y z
#    x 1.613210 0.000000 0.000000 
#    y 0.000000 1.656660 0.000000 
#    z 0.000000 0.000000 1.633420 
# 
# From -- ./inp_files/44662.got.cif
#   From: 2010.05.17/outbox.cif.g08.bks.cpg/sg69_23_cif.got.tgz:44662.got - 2010.06.03 19:29:58.
