data_PCOD9512940
_publ_section_title
;
Structure prediction by ZEFSAII (Michael W. Deem and Ramdas Pophale) SiO2 
 PCOD9512940
Probable space group: F M M M
;
_chemical_formula_sum "Si O2"
_cell_formula_units_Z 176
_cell_length_a 14.717439
_cell_length_b 24.258174
_cell_length_c 29.803823
_cell_angle_alpha 90.000000
_cell_angle_beta 90.000000
_cell_angle_gamma 90.000000
_cell_volume 10640.507124
_symmetry_space_group_name_H-M "F M M M"
_symmetry_group_IT_number 69
_symmetry_cell_setting 'orthorhombic'
loop_
_space_group_symop_operation_xyz
x,y,z
-x,-y,z
x,-y,-z
-x,y,-z
-x,-y,-z
x,y,-z
-x,y,z
x,-y,z
x,1/2+y,1/2+z
-x,1/2-y,1/2+z
x,1/2-y,1/2-z
-x,1/2+y,1/2-z
-x,1/2-y,1/2-z
x,1/2+y,1/2-z
-x,1/2+y,1/2+z
x,1/2-y,1/2+z
1/2+x,y,1/2+z
1/2-x,-y,1/2+z
1/2+x,-y,1/2-z
1/2-x,y,1/2-z
1/2-x,-y,1/2-z
1/2+x,y,1/2-z
1/2-x,y,1/2+z
1/2+x,-y,1/2+z
1/2+x,1/2+y,z
1/2-x,1/2-y,z
1/2+x,1/2-y,-z
1/2-x,1/2+y,-z
1/2-x,1/2-y,-z
1/2+x,1/2+y,-z
1/2-x,1/2+y,z
1/2+x,1/2-y,z
loop_
_atom_site_type_symbol
_atom_site_label
_atom_site_fract_x
_atom_site_fract_y
_atom_site_fract_z
Si Si1 0.890197 0.060467 0.582635
Si Si2 0.392596 0.680482 0.552032
Si Si3 0.109751 0.438560 0.812577
Si Si4 0.148670 0.327053 0.764190
Si Si5 0.750000 0.250000 0.110760
Si Si6 0.098612 0.223464 0.824428
O O1 0.866285 0.115920 0.556716
O O2 0.864693 0.067353 0.634998
O O3 0.000000 0.058024 0.581094
O O4 0.857244 0.000000 0.566984
O O5 0.387103 0.696966 0.500000
O O6 0.500000 0.685735 0.565908
O O7 0.321540 0.714925 0.581590
O O8 0.137602 0.500000 0.797686
O O9 0.145367 0.387952 0.783848
O O10 0.000000 0.436097 0.810861
O O11 0.250000 0.311815 0.750000
O O12 0.112482 0.283517 0.800917
O O13 0.097589 0.318292 0.717347
O O14 0.816187 0.214476 0.143074
O O15 0.000000 0.222326 0.847125
#
# Coordination Sequence:
#
# PCOD9512940 Si02
#       6
#    32  32  32  32  16  32
#     4   8  15  29  50  75 100 129 164 200 246 304
#     4  10  21  35  53  77 104 133 161 201 258 312
#     4   9  17  29  46  68  97 134 168 201 245 292
#     4  11  19  32  47  71 100 129 173 215 246 285
#     4  12  21  35  50  74 100 134 170 207 245 306
#     4  11  21  34  51  70  96 132 171 212 250 283
#
# _framework density 16.540565000000001
#
# number of rings (size 3 to 8) (size 9 to 14) (size 15 to 20)
#    0.000    2.000    1.818    5.727    0.000    2.182 
#    0.000    1.818    0.000    0.000    0.000    0.000 
#    0.000    2.182    0.000    8.909    0.000    0.727 
#
# Total GULP energy -245149.381350 kJ/mol
# GULP energy per Si atom -5571.576849 kJ/mol
# Density = 1.650292 g / cm^3
# Si number density = 16.540565 Si / 1000 Ang^3
#
#
#
# Elastic Constant Matrix: (Units=GPa)
#
#
# Indices 1 2 3 4 5 6 
#
# 1 89.0942 7.5784 25.1865 0.0000 0.0000 0.0000
# 2 7.5784 58.5107 25.3708 0.0000 0.0000 0.0000
# 3 25.1865 25.3708 55.5419 0.0000 0.0000 0.0000
# 4 0.0000 0.0000 0.0000 24.7697 0.0000 0.0000
# 5 0.0000 0.0000 0.0000 0.0000 21.0733 0.0000
# 6 0.0000 0.0000 0.0000 0.0000 0.0000 -6.5067
#
#
#
# Elastic Compliance Matrix: (Units=1/GPa)
#
#
# Indices 1 2 3 4 5 6 
#
# 1 0.012929 0.001082 -0.006357 0.000000 0.000000 0.000000
# 2 0.001082 0.021403 -0.010267 0.000000 0.000000 0.000000
# 3 -0.006357 -0.010267 0.025577 0.000000 0.000000 0.000000
# 4 0.000000 0.000000 0.000000 0.040372 0.000000 0.000000
# 5 0.000000 0.000000 0.000000 0.000000 0.047453 0.000000
# 6 0.000000 0.000000 0.000000 0.000000 0.000000 -0.153688
#
#
# Mechanical properties :
#
#
# Convention : Reuss Voigt Hill
#
# Bulk Modulus (GPa) = 34.69301 35.49091 35.09196
# Shear Modulus (GPa) = 143.93000 17.53467 80.73233
#
# Velocity S-wave (km/s) = 9.33838 3.25945 6.99390
# Velocity P-wave (km/s) = 11.71724 5.97234 9.29953
#
# Compressibility (1/GPa) = 0.02882425
#
# Stress axis : x y z
#
# Youngs Moduli (GPa) = 77.34435 46.72326 39.09757
#
# Poissons Ratio (x) = -0.05055 0.24855
# Poissons Ratio (y) = -0.08368 0.40142
# Poissons Ratio (z) = 0.49169 0.47971
#
# Static dielectric constant tensor:
#      x y z
#    x 1.587110 0.000000 0.000000 
#    y 0.000000 1.574050 0.000000 
#    z 0.000000 0.000000 1.582880 
# 
# From -- ./inp_files/45833.got.cif
#   From: 2010.05.17/outbox.cif.g08.bks.cpg/sg69_23_cif.got.tgz:45833.got - 2010.06.03 19:29:58.
