data_PCOD9512708
_publ_section_title
;
Structure prediction by ZEFSAII (Michael W. Deem and Ramdas Pophale) SiO2 
 PCOD9512708
Probable space group: F M M M
;
_chemical_formula_sum "Si O2"
_cell_formula_units_Z 192
_cell_length_a 19.895365
_cell_length_b 16.453333
_cell_length_c 30.727835
_cell_angle_alpha 90.000000
_cell_angle_beta 90.000000
_cell_angle_gamma 90.000000
_cell_volume 10058.605161
_symmetry_space_group_name_H-M "F M M M"
_symmetry_group_IT_number 69
_symmetry_cell_setting 'orthorhombic'
loop_
_space_group_symop_operation_xyz
x,y,z
-x,-y,z
x,-y,-z
-x,y,-z
-x,-y,-z
x,y,-z
-x,y,z
x,-y,z
x,1/2+y,1/2+z
-x,1/2-y,1/2+z
x,1/2-y,1/2-z
-x,1/2+y,1/2-z
-x,1/2-y,1/2-z
x,1/2+y,1/2-z
-x,1/2+y,1/2+z
x,1/2-y,1/2+z
1/2+x,y,1/2+z
1/2-x,-y,1/2+z
1/2+x,-y,1/2-z
1/2-x,y,1/2-z
1/2-x,-y,1/2-z
1/2+x,y,1/2-z
1/2-x,y,1/2+z
1/2+x,-y,1/2+z
1/2+x,1/2+y,z
1/2-x,1/2-y,z
1/2+x,1/2-y,-z
1/2-x,1/2+y,-z
1/2-x,1/2-y,-z
1/2+x,1/2+y,-z
1/2-x,1/2+y,z
1/2+x,1/2-y,z
loop_
_atom_site_type_symbol
_atom_site_label
_atom_site_fract_x
_atom_site_fract_y
_atom_site_fract_z
Si Si1 0.831311 0.750285 0.548183
Si Si2 0.421826 0.093305 0.570685
Si Si3 0.113407 0.365841 0.667308
Si Si4 0.000000 0.403199 0.166499
Si Si5 0.633706 0.180967 0.139624
Si Si6 0.500000 0.597133 0.765090
Si Si7 0.741820 0.906614 0.200457
O O1 0.851552 0.779244 0.500000
O O2 0.750000 0.750000 0.549060
O O3 0.868924 0.662458 0.554920
O O4 0.850125 0.806336 0.588937
O O5 0.500000 0.112020 0.558668
O O6 0.416697 0.096419 0.623263
O O7 0.407140 0.000000 0.556699
O O8 0.122003 0.270926 0.658014
O O9 0.064765 0.377284 0.707857
O O10 0.185334 0.403222 0.678444
O O11 0.066597 0.370509 0.144258
O O12 0.000000 0.500000 0.167104
O O13 0.000000 0.371170 0.216176
O O14 0.691545 0.141495 0.169224
O O15 0.500000 0.500000 0.762967
O O16 0.750000 0.874518 0.250000
O O17 0.717945 0.000000 0.204143
#
# Coordination Sequence:
#
# PCOD9512708 Si02
#       7
#    32  32  32  16  32  16  32
#     4  10  23  43  66  93 122 160 205 250 310 378
#     4  10  20  36  62  97 131 163 199 251 323 388
#     4  11  21  34  57  88 120 158 199 247 301 365
#     4  11  25  41  58  80 114 161 210 250 295 352
#     4  11  23  40  61  86 118 160 201 252 306 353
#     4  11  21  35  55  83 120 160 199 246 299 360
#     4  11  23  38  58  86 122 164 207 251 305 366
#
# _framework density 19.088132999999999
#
# number of rings (size 3 to 8) (size 9 to 14) (size 15 to 20)
#    0.000    1.333    0.833    6.000    3.500    7.333 
#    0.000    1.667    0.000    4.500    0.000    0.000 
#    0.000    0.000    0.000    0.000    0.000    0.000 
#
# Total GULP energy -268130.048882 kJ/mol
# GULP energy per Si atom -5586.042685 kJ/mol
# Density = 1.904469 g / cm^3
# Si number density = 19.088133 Si / 1000 Ang^3
#
#
#
# Elastic Constant Matrix: (Units=GPa)
#
#
# Indices 1 2 3 4 5 6 
#
# 1 133.4262 44.7988 60.0308 0.0000 0.0000 0.0000
# 2 44.7988 81.1770 50.1216 0.0000 0.0000 0.0000
# 3 60.0308 50.1216 161.6886 0.0000 0.0000 0.0000
# 4 0.0000 0.0000 0.0000 -39.5725 0.0000 0.0000
# 5 0.0000 0.0000 0.0000 0.0000 25.7199 0.0000
# 6 0.0000 0.0000 0.0000 0.0000 0.0000 32.0256
#
#
#
# Elastic Compliance Matrix: (Units=1/GPa)
#
#
# Indices 1 2 3 4 5 6 
#
# 1 0.009932 -0.003963 -0.002459 0.000000 0.000000 0.000000
# 2 -0.003963 0.016816 -0.003741 0.000000 0.000000 0.000000
# 3 -0.002459 -0.003741 0.008257 0.000000 0.000000 0.000000
# 4 0.000000 0.000000 0.000000 -0.025270 0.000000 0.000000
# 5 0.000000 0.000000 0.000000 0.000000 0.038880 0.000000
# 6 0.000000 0.000000 0.000000 0.000000 0.000000 0.031225
#
#
# Mechanical properties :
#
#
# Convention : Reuss Voigt Hill
#
# Bulk Modulus (GPa) = 68.12608 76.24379 72.18493
# Shear Modulus (GPa) = 47.59223 18.39064 32.99143
#
# Velocity S-wave (km/s) = 4.99870 3.10733 4.16188
# Velocity P-wave (km/s) = 8.31167 7.27350 7.80985
#
# Compressibility (1/GPa) = 0.01467867
#
# Stress axis : x y z
#
# Youngs Moduli (GPa) = 100.68861 59.46817 121.10229
#
# Poissons Ratio (x) = 0.23565 0.29779
# Poissons Ratio (y) = 0.39899 0.45310
# Poissons Ratio (z) = 0.24759 0.22250
#
# Static dielectric constant tensor:
#      x y z
#    x 1.655980 0.000000 0.000000 
#    y 0.000000 1.663610 0.000000 
#    z 0.000000 0.000000 1.666190 
# 
# From -- ./inp_files/46448.got.cif
#   From: 2010.05.17/outbox.cif.g08.bks.cpg/sg69_24_cif.got.tgz:46448.got - 2010.06.03 19:29:58.
