data_PCOD9512226
_publ_section_title
;
Structure prediction by ZEFSAII (Michael W. Deem and Ramdas Pophale) SiO2 
 PCOD9512226
Probable space group: F M M M
;
_chemical_formula_sum "Si O2"
_cell_formula_units_Z 176
_cell_length_a 18.966688
_cell_length_b 18.915800
_cell_length_c 29.025905
_cell_angle_alpha 90.000000
_cell_angle_beta 90.000000
_cell_angle_gamma 90.000000
_cell_volume 10413.626168
_symmetry_space_group_name_H-M "F M M M"
_symmetry_group_IT_number 69
_symmetry_cell_setting 'orthorhombic'
loop_
_space_group_symop_operation_xyz
x,y,z
-x,-y,z
x,-y,-z
-x,y,-z
-x,-y,-z
x,y,-z
-x,y,z
x,-y,z
x,1/2+y,1/2+z
-x,1/2-y,1/2+z
x,1/2-y,1/2-z
-x,1/2+y,1/2-z
-x,1/2-y,1/2-z
x,1/2+y,1/2-z
-x,1/2+y,1/2+z
x,1/2-y,1/2+z
1/2+x,y,1/2+z
1/2-x,-y,1/2+z
1/2+x,-y,1/2-z
1/2-x,y,1/2-z
1/2-x,-y,1/2-z
1/2+x,y,1/2-z
1/2-x,y,1/2+z
1/2+x,-y,1/2+z
1/2+x,1/2+y,z
1/2-x,1/2-y,z
1/2+x,1/2-y,-z
1/2-x,1/2+y,-z
1/2-x,1/2-y,-z
1/2+x,1/2+y,-z
1/2-x,1/2+y,z
1/2+x,1/2-y,z
loop_
_atom_site_type_symbol
_atom_site_label
_atom_site_fract_x
_atom_site_fract_y
_atom_site_fract_z
Si Si1 0.918437 0.704948 0.296814
Si Si2 0.807343 0.581228 0.711573
Si Si3 0.352972 0.151658 0.444985
Si Si4 0.231536 0.579877 0.887845
Si Si5 0.000000 0.080897 0.056077
Si Si6 0.328978 0.725724 0.623474
O O1 0.914869 0.750000 0.250000
O O2 0.872349 0.634438 0.290367
O O3 0.883117 0.750309 0.337600
O O4 0.000000 0.689213 0.307074
O O5 0.828171 0.500000 0.721832
O O6 0.750000 0.603259 0.750000
O O7 0.769587 0.581811 0.661932
O O8 0.349898 0.154371 0.500000
O O9 0.290768 0.102829 0.424786
O O10 0.428344 0.119799 0.430019
O O11 0.343692 0.228154 0.421986
O O12 0.206456 0.500000 0.896068
O O13 0.174443 0.642526 0.886408
O O14 0.000000 0.000000 0.072304
O O15 0.000000 0.079638 0.000000
O O16 0.250000 0.750000 0.638795
#
# Coordination Sequence:
#
# PCOD9512226 Si02
#       6
#    32  32  32  32  16  32
#     4  11  23  36  55  83 110 142 185 235 284 332
#     4  10  20  35  57  81 108 145 186 226 272 331
#     4  10  20  33  52  80 112 146 182 224 274 336
#     4  10  20  34  52  79 105 138 187 226 270 325
#     4   9  18  32  50  76 110 149 181 213 275 342
#     4  10  20  35  55  78 106 147 182 227 271 337
#
# _framework density 16.900932000000001
#
# number of rings (size 3 to 8) (size 9 to 14) (size 15 to 20)
#    0.000    1.909    3.636    1.636    1.273    4.727 
#    0.000    0.000    0.000    1.636    0.000    0.000 
#    0.000    2.182    0.000    0.000    0.000    0.000 
#
# Total GULP energy -245523.541971 kJ/mol
# GULP energy per Si atom -5580.080499 kJ/mol
# Density = 1.686247 g / cm^3
# Si number density = 16.900932 Si / 1000 Ang^3
#
#
#
# Elastic Constant Matrix: (Units=GPa)
#
#
# Indices 1 2 3 4 5 6 
#
# 1 105.3547 73.3855 42.1367 0.0000 0.0000 0.0000
# 2 73.3855 162.7251 34.0380 0.0000 0.0000 0.0000
# 3 42.1367 34.0380 86.3424 0.0000 0.0000 0.0000
# 4 0.0000 0.0000 0.0000 20.6109 0.0000 0.0000
# 5 0.0000 0.0000 0.0000 0.0000 24.4412 0.0000
# 6 0.0000 0.0000 0.0000 0.0000 0.0000 -117.3188
#
#
#
# Elastic Compliance Matrix: (Units=1/GPa)
#
#
# Indices 1 2 3 4 5 6 
#
# 1 0.015822 -0.006016 -0.005350 0.000000 0.000000 0.000000
# 2 -0.006016 0.008985 -0.000606 0.000000 0.000000 0.000000
# 3 -0.005350 -0.000606 0.014431 0.000000 0.000000 0.000000
# 4 0.000000 0.000000 0.000000 0.048518 0.000000 0.000000
# 5 0.000000 0.000000 0.000000 0.000000 0.040915 0.000000
# 6 0.000000 0.000000 0.000000 0.000000 0.000000 -0.008524
#
#
# Mechanical properties :
#
#
# Convention : Reuss Voigt Hill
#
# Bulk Modulus (GPa) = 65.38271 72.61586 68.99928
# Shear Modulus (GPa) = 33.51425 -0.79586 16.35919
#
# Velocity S-wave (km/s) = 4.45790 -0.68697 3.11456
# Velocity P-wave (km/s) = 8.07880 6.51380 7.33814
#
# Compressibility (1/GPa) = 0.01529456
#
# Stress axis : x y z
#
# Youngs Moduli (GPa) = 63.20263 111.29173 69.29298
#
# Poissons Ratio (x) = 0.66958 0.37070
# Poissons Ratio (y) = 0.38025 0.04200
# Poissons Ratio (z) = 0.33811 0.06746
#
# Static dielectric constant tensor:
#      x y z
#    x 1.553780 0.000000 0.000000 
#    y 0.000000 1.590150 0.000000 
#    z 0.000000 0.000000 1.567980 
# 
# From -- ./inp_files/23600.got.cif
#   From: 2010.05.17/outbox.cif.g08.bks.cpg/sg69_12_cif.got.tgz:23600.got - 2010.06.03 19:29:58.
