data_PCOD9512506
_publ_section_title
;
Structure prediction by ZEFSAII (Michael W. Deem and Ramdas Pophale) SiO2 
 PCOD9512506
Probable space group: F M M M
;
_chemical_formula_sum "Si O2"
_cell_formula_units_Z 176
_cell_length_a 15.958313
_cell_length_b 26.659190
_cell_length_c 20.704693
_cell_angle_alpha 90.000000
_cell_angle_beta 90.000000
_cell_angle_gamma 90.000000
_cell_volume 8808.515526
_symmetry_space_group_name_H-M "F M M M"
_symmetry_group_IT_number 69
_symmetry_cell_setting 'orthorhombic'
loop_
_space_group_symop_operation_xyz
x,y,z
-x,-y,z
x,-y,-z
-x,y,-z
-x,-y,-z
x,y,-z
-x,y,z
x,-y,z
x,1/2+y,1/2+z
-x,1/2-y,1/2+z
x,1/2-y,1/2-z
-x,1/2+y,1/2-z
-x,1/2-y,1/2-z
x,1/2+y,1/2-z
-x,1/2+y,1/2+z
x,1/2-y,1/2+z
1/2+x,y,1/2+z
1/2-x,-y,1/2+z
1/2+x,-y,1/2-z
1/2-x,y,1/2-z
1/2-x,-y,1/2-z
1/2+x,y,1/2-z
1/2-x,y,1/2+z
1/2+x,-y,1/2+z
1/2+x,1/2+y,z
1/2-x,1/2-y,z
1/2+x,1/2-y,-z
1/2-x,1/2+y,-z
1/2-x,1/2-y,-z
1/2+x,1/2+y,-z
1/2-x,1/2+y,z
1/2+x,1/2-y,z
loop_
_atom_site_type_symbol
_atom_site_label
_atom_site_fract_x
_atom_site_fract_y
_atom_site_fract_z
Si Si1 0.262297 0.304528 0.104965
Si Si2 0.908004 0.349623 0.842420
Si Si3 0.906796 0.197610 0.211013
Si Si4 0.677573 0.588572 0.072221
Si Si5 0.500000 0.560238 0.075975
Si Si6 0.641651 0.557206 0.577344
O O1 0.250000 0.250000 0.073971
O O2 0.169959 0.319961 0.128360
O O3 0.328488 0.300083 0.163558
O O4 0.298931 0.352842 0.068752
O O5 0.897586 0.345882 0.765085
O O6 0.904737 0.403469 0.877016
O O7 0.000000 0.327006 0.855868
O O8 0.906525 0.250000 0.250000
O O9 0.000000 0.192661 0.180613
O O10 0.587679 0.580042 0.104743
O O11 0.760627 0.562029 0.098489
O O12 0.669267 0.567249 0.000000
O O13 0.500000 0.500000 0.078480
O O14 0.500000 0.576512 0.000000
O O15 0.636320 0.570677 0.500000
O O16 0.613450 0.500000 0.583416
#
# Coordination Sequence:
#
# PCOD9512506 Si02
#       6
#    32  32  32  32  16  32
#     4  11  21  33  56  79 107 148 187 232 275 331
#     4  10  21  35  52  81 111 140 183 232 272 320
#     4  10  20  35  57  80 104 136 186 234 274 327
#     4   9  19  33  51  81 115 145 183 228 278 338
#     4   9  16  30  54  78 105 144 186 230 275 330
#     4   9  18  35  59  84 111 145 184 224 273 337
#
# _framework density 19.980664999999998
#
# number of rings (size 3 to 8) (size 9 to 14) (size 15 to 20)
#    0.000    2.273    1.818    1.091    1.273    3.273 
#    0.000    0.909    0.000    9.818    0.000    0.000 
#    0.000    0.000    0.000    0.000    0.000    0.000 
#
# Total GULP energy -245029.930455 kJ/mol
# GULP energy per Si atom -5568.862056 kJ/mol
# Density = 1.993519 g / cm^3
# Si number density = 19.980665 Si / 1000 Ang^3
#
#
#
# Elastic Constant Matrix: (Units=GPa)
#
#
# Indices 1 2 3 4 5 6 
#
# 1 151.5372 21.8264 29.8768 0.0000 0.0000 0.0000
# 2 21.8264 99.1298 29.1032 0.0000 0.0000 0.0000
# 3 29.8768 29.1032 51.2380 0.0000 0.0000 0.0000
# 4 0.0000 0.0000 0.0000 26.4108 0.0000 0.0000
# 5 0.0000 0.0000 0.0000 0.0000 17.0210 0.0000
# 6 0.0000 0.0000 0.0000 0.0000 0.0000 17.6732
#
#
#
# Elastic Compliance Matrix: (Units=1/GPa)
#
#
# Indices 1 2 3 4 5 6 
#
# 1 0.007472 -0.000439 -0.004107 0.000000 0.000000 0.000000
# 2 -0.000439 0.012132 -0.006635 0.000000 0.000000 0.000000
# 3 -0.004107 -0.006635 0.025680 0.000000 0.000000 0.000000
# 4 0.000000 0.000000 0.000000 0.037863 0.000000 0.000000
# 5 0.000000 0.000000 0.000000 0.000000 0.058751 0.000000
# 6 0.000000 0.000000 0.000000 0.000000 0.000000 0.056583
#
#
# Mechanical properties :
#
#
# Convention : Reuss Voigt Hill
#
# Bulk Modulus (GPa) = 43.62728 51.50197 47.56463
# Shear Modulus (GPa) = 21.88313 26.96091 24.42202
#
# Velocity S-wave (km/s) = 3.31299 3.67733 3.49991
# Velocity P-wave (km/s) = 6.04291 6.62286 6.33952
#
# Compressibility (1/GPa) = 0.02292144
#
# Stress axis : x y z
#
# Youngs Moduli (GPa) = 133.83058 82.42343 38.94006
#
# Poissons Ratio (x) = 0.03621 0.15994
# Poissons Ratio (y) = 0.05880 0.25837
# Poissons Ratio (z) = 0.54970 0.54688
#
# Static dielectric constant tensor:
#      x y z
#    x 1.761470 0.000000 0.000000 
#    y 0.000000 1.723120 0.000000 
#    z 0.000000 0.000000 1.701980 
# 
# From -- ./inp_files/36043.got.cif
#   From: 2010.05.17/outbox.cif.g08.bks.cpg/sg69_19_cif.got.tgz:36043.got - 2010.06.03 19:29:58.
