data_PCOD9512710
_publ_section_title
;
Structure prediction by ZEFSAII (Michael W. Deem and Ramdas Pophale) SiO2 
 PCOD9512710
Probable space group: F M M M
;
_chemical_formula_sum "Si O2"
_cell_formula_units_Z 144
_cell_length_a 21.278949
_cell_length_b 17.976776
_cell_length_c 18.949571
_cell_angle_alpha 90.000000
_cell_angle_beta 90.000000
_cell_angle_gamma 90.000000
_cell_volume 7248.720645
_symmetry_space_group_name_H-M "F M M M"
_symmetry_group_IT_number 69
_symmetry_cell_setting 'orthorhombic'
loop_
_space_group_symop_operation_xyz
x,y,z
-x,-y,z
x,-y,-z
-x,y,-z
-x,-y,-z
x,y,-z
-x,y,z
x,-y,z
x,1/2+y,1/2+z
-x,1/2-y,1/2+z
x,1/2-y,1/2-z
-x,1/2+y,1/2-z
-x,1/2-y,1/2-z
x,1/2+y,1/2-z
-x,1/2+y,1/2+z
x,1/2-y,1/2+z
1/2+x,y,1/2+z
1/2-x,-y,1/2+z
1/2+x,-y,1/2-z
1/2-x,y,1/2-z
1/2-x,-y,1/2-z
1/2+x,y,1/2-z
1/2-x,y,1/2+z
1/2+x,-y,1/2+z
1/2+x,1/2+y,z
1/2-x,1/2-y,z
1/2+x,1/2-y,-z
1/2-x,1/2+y,-z
1/2-x,1/2-y,-z
1/2+x,1/2+y,-z
1/2-x,1/2+y,z
1/2+x,1/2-y,z
loop_
_atom_site_type_symbol
_atom_site_label
_atom_site_fract_x
_atom_site_fract_y
_atom_site_fract_z
Si Si1 0.500000 0.915574 0.108869
Si Si2 0.000000 0.413457 0.722370
Si Si3 0.257268 0.840070 0.581777
Si Si4 0.385978 0.161656 0.357931
Si Si5 0.074275 0.582410 0.500000
Si Si6 0.121675 0.178899 0.418482
O O1 0.500000 0.915173 0.193694
O O2 0.561696 0.872781 0.084495
O O3 0.500000 0.000000 0.084200
O O4 0.063729 0.371528 0.696802
O O5 0.000000 0.500000 0.695761
O O6 0.272935 0.861682 0.500000
O O7 0.250000 0.750000 0.582003
O O8 0.311575 0.859063 0.638061
O O9 0.186318 0.864386 0.598718
O O10 0.408941 0.127710 0.431329
O O11 0.388108 0.250924 0.366702
O O12 0.103306 0.500000 0.500000
O O13 0.000000 0.574501 0.500000
O O14 0.129047 0.206189 0.500000
#
# Coordination Sequence:
#
# PCOD9512710 Si02
#       6
#    16  16  32  32  16  32
#     4  11  26  44  55  71 107 151 199 245 276 312
#     4  11  25  40  53  75 115 159 188 221 273 333
#     4   8  15  30  53  86 118 141 169 220 280 330
#     4  11  18  33  58  86 118 145 176 218 271 341
#     4  11  20  28  45  82 124 153 172 209 264 332
#     4  10  20  36  63  88 108 140 184 235 287 324
#
# _framework density 19.865575
#
# number of rings (size 3 to 8) (size 9 to 14) (size 15 to 20)
#    0.000    1.889    3.333    3.000    0.000    2.667 
#    0.000    3.333    0.000    6.667    0.000    0.000 
#    0.000    0.000    0.000    0.000    0.000    0.000 
#
# Total GULP energy -200648.951761 kJ/mol
# GULP energy per Si atom -5573.581993 kJ/mol
# Density = 1.982036 g / cm^3
# Si number density = 19.865575 Si / 1000 Ang^3
#
#
#
# Elastic Constant Matrix: (Units=GPa)
#
#
# Indices 1 2 3 4 5 6 
#
# 1 190.7971 48.0820 20.0173 0.0000 0.0000 0.0000
# 2 48.0820 55.9383 6.3142 0.0000 0.0000 0.0000
# 3 20.0173 6.3142 47.0391 0.0000 0.0000 0.0000
# 4 0.0000 0.0000 0.0000 25.1033 0.0000 0.0000
# 5 0.0000 0.0000 0.0000 0.0000 -42.7889 0.0000
# 6 0.0000 0.0000 0.0000 0.0000 0.0000 -59.6468
#
#
#
# Elastic Compliance Matrix: (Units=1/GPa)
#
#
# Indices 1 2 3 4 5 6 
#
# 1 0.006903 -0.005688 -0.002174 0.000000 0.000000 0.000000
# 2 -0.005688 0.022839 -0.000645 0.000000 0.000000 0.000000
# 3 -0.002174 -0.000645 0.022271 0.000000 0.000000 0.000000
# 4 0.000000 0.000000 0.000000 0.039835 0.000000 0.000000
# 5 0.000000 0.000000 0.000000 0.000000 -0.023371 0.000000
# 6 0.000000 0.000000 0.000000 0.000000 0.000000 -0.016765
#
#
# Mechanical properties :
#
#
# Convention : Reuss Voigt Hill
#
# Bulk Modulus (GPa) = 28.57312 49.17795 38.87553
# Shear Modulus (GPa) = 62.19588 -0.84241 30.67674
#
# Velocity S-wave (km/s) = 5.60146 -0.65190 3.93391
# Velocity P-wave (km/s) = 7.49997 4.92366 6.34398
#
# Compressibility (1/GPa) = 0.03499793
#
# Stress axis : x y z
#
# Youngs Moduli (GPa) = 144.87318 43.78546 44.90222
#
# Poissons Ratio (x) = 0.24904 0.09761
# Poissons Ratio (y) = 0.82400 0.02898
# Poissons Ratio (z) = 0.31494 0.02826
#
# Static dielectric constant tensor:
#      x y z
#    x 1.785690 0.000000 0.000000 
#    y 0.000000 1.723240 0.000000 
#    z 0.000000 0.000000 3.829930 
# 
# From -- ./inp_files/31695.got.cif
#   From: 2010.05.17/outbox.cif.g08.bks.cpg/sg69_16_cif.got.tgz:31695.got - 2010.06.03 19:29:58.
