data_PCOD9512383
_publ_section_title
;
Structure prediction by ZEFSAII (Michael W. Deem and Ramdas Pophale) SiO2 
 PCOD9512383
Probable space group: F M M M
;
_chemical_formula_sum "Si O2"
_cell_formula_units_Z 128
_cell_length_a 16.102645
_cell_length_b 24.756395
_cell_length_c 15.261279
_cell_angle_alpha 90.000000
_cell_angle_beta 90.000000
_cell_angle_gamma 90.000000
_cell_volume 6083.808762
_symmetry_space_group_name_H-M "F M M M"
_symmetry_group_IT_number 69
_symmetry_cell_setting 'orthorhombic'
loop_
_space_group_symop_operation_xyz
x,y,z
-x,-y,z
x,-y,-z
-x,y,-z
-x,-y,-z
x,y,-z
-x,y,z
x,-y,z
x,1/2+y,1/2+z
-x,1/2-y,1/2+z
x,1/2-y,1/2-z
-x,1/2+y,1/2-z
-x,1/2-y,1/2-z
x,1/2+y,1/2-z
-x,1/2+y,1/2+z
x,1/2-y,1/2+z
1/2+x,y,1/2+z
1/2-x,-y,1/2+z
1/2+x,-y,1/2-z
1/2-x,y,1/2-z
1/2-x,-y,1/2-z
1/2+x,y,1/2-z
1/2-x,y,1/2+z
1/2+x,-y,1/2+z
1/2+x,1/2+y,z
1/2-x,1/2-y,z
1/2+x,1/2-y,-z
1/2-x,1/2+y,-z
1/2-x,1/2-y,-z
1/2+x,1/2+y,-z
1/2-x,1/2+y,z
1/2+x,1/2-y,z
loop_
_atom_site_type_symbol
_atom_site_label
_atom_site_fract_x
_atom_site_fract_y
_atom_site_fract_z
Si Si1 0.336475 0.775407 0.607364
Si Si2 0.823994 0.000000 0.862313
Si Si3 0.362222 0.000000 0.157025
Si Si4 0.592900 0.386238 0.896996
Si Si5 0.500000 0.790987 0.893118
Si Si6 0.000000 0.415079 0.894545
O O1 0.333637 0.774550 0.500000
O O2 0.250000 0.750000 0.637756
O O3 0.351795 0.836935 0.638020
O O4 0.416841 0.740501 0.633847
O O5 0.866976 0.055090 0.891971
O O6 0.727345 0.000000 0.888800
O O7 0.838935 0.000000 0.758434
O O8 0.419092 0.948318 0.135691
O O9 0.500000 0.386511 0.858074
O O10 0.584079 0.374209 0.000000
O O11 0.500000 0.853222 0.864673
O O12 0.500000 0.790968 0.000000
O O13 0.000000 0.415963 0.000000
#
# Coordination Sequence:
#
# PCOD9512383 Si02
#       6
#    32  16  16  32  16  16
#     4   9  17  30  51  81 116 148 179 228 288 334
#     4  11  24  38  58  80 111 158 194 228 285 344
#     4  10  24  42  55  81 111 147 190 241 288 346
#     4  10  20  34  55  86 117 146 188 234 272 330
#     4   9  17  32  53  82 113 140 177 228 289 345
#     4  10  22  39  64  87 112 146 190 250 300 342
#
# _framework density 21.039452000000001
#
# number of rings (size 3 to 8) (size 9 to 14) (size 15 to 20)
#    0.000    2.250    1.250    1.500    7.000    3.000 
#    0.000    0.000    0.000    3.000    0.000    0.000 
#    0.000    0.000    0.000    0.000    0.000    0.000 
#
# Total GULP energy -178676.984839 kJ/mol
# GULP energy per Si atom -5583.655776 kJ/mol
# Density = 2.099157 g / cm^3
# Si number density = 21.039452 Si / 1000 Ang^3
#
#
#
# Elastic Constant Matrix: (Units=GPa)
#
#
# Indices 1 2 3 4 5 6 
#
# 1 214.2477 121.5688 5.6774 0.0000 0.0000 0.0000
# 2 121.5688 217.3181 -1.5867 0.0000 0.0000 0.0000
# 3 5.6774 -1.5867 32.3751 0.0000 0.0000 0.0000
# 4 0.0000 0.0000 0.0000 -33.4662 0.0000 0.0000
# 5 0.0000 0.0000 0.0000 0.0000 12.6961 0.0000
# 6 0.0000 0.0000 0.0000 0.0000 0.0000 19.0858
#
#
#
# Elastic Compliance Matrix: (Units=1/GPa)
#
#
# Indices 1 2 3 4 5 6 
#
# 1 0.006901 -0.003871 -0.001400 0.000000 0.000000 0.000000
# 2 -0.003871 0.006774 0.001011 0.000000 0.000000 0.000000
# 3 -0.001400 0.001011 0.031183 0.000000 0.000000 0.000000
# 4 0.000000 0.000000 0.000000 -0.029881 0.000000 0.000000
# 5 0.000000 0.000000 0.000000 0.000000 0.078764 0.000000
# 6 0.000000 0.000000 0.000000 0.000000 0.000000 0.052395
#
#
# Mechanical properties :
#
#
# Convention : Reuss Voigt Hill
#
# Bulk Modulus (GPa) = 27.51895 79.47333 53.49614
# Shear Modulus (GPa) = 29.98169 22.21523 26.09846
#
# Velocity S-wave (km/s) = 3.77904 3.25296 3.52583
# Velocity P-wave (km/s) = 5.67006 7.20864 6.48514
#
# Compressibility (1/GPa) = 0.03633860
#
# Stress axis : x y z
#
# Youngs Moduli (GPa) = 144.90977 147.61993 32.06879
#
# Poissons Ratio (x) = 0.57138 0.04489
# Poissons Ratio (y) = 0.56089 -0.03241
# Poissons Ratio (z) = 0.20285 -0.14921
#
# Static dielectric constant tensor:
#      x y z
#    x 1.747820 0.000000 0.000000 
#    y 0.000000 1.730680 0.000000 
#    z 0.000000 0.000000 1.788030 
# 
# From -- ./inp_files/21635.got.cif
#   From: 2010.05.17/outbox.cif.g08.bks.cpg/sg69_11_cif.got.tgz:21635.got - 2010.06.03 19:29:58.
