data_PCOD9512897
_publ_section_title
;
Structure prediction by ZEFSAII (Michael W. Deem and Ramdas Pophale) SiO2 
 PCOD9512897
Probable space group: F M M M
;
_chemical_formula_sum "Si O2"
_cell_formula_units_Z 168
_cell_length_a 31.428196
_cell_length_b 8.323484
_cell_length_c 31.428201
_cell_angle_alpha 90.000000
_cell_angle_beta 90.000000
_cell_angle_gamma 90.000000
_cell_volume 8221.368676
_symmetry_space_group_name_H-M "F M M M"
_symmetry_group_IT_number 69
_symmetry_cell_setting 'orthorhombic'
loop_
_space_group_symop_operation_xyz
x,y,z
-x,-y,z
x,-y,-z
-x,y,-z
-x,-y,-z
x,y,-z
-x,y,z
x,-y,z
x,1/2+y,1/2+z
-x,1/2-y,1/2+z
x,1/2-y,1/2-z
-x,1/2+y,1/2-z
-x,1/2-y,1/2-z
x,1/2+y,1/2-z
-x,1/2+y,1/2+z
x,1/2-y,1/2+z
1/2+x,y,1/2+z
1/2-x,-y,1/2+z
1/2+x,-y,1/2-z
1/2-x,y,1/2-z
1/2-x,-y,1/2-z
1/2+x,y,1/2-z
1/2-x,y,1/2+z
1/2+x,-y,1/2+z
1/2+x,1/2+y,z
1/2-x,1/2-y,z
1/2+x,1/2-y,-z
1/2-x,1/2+y,-z
1/2-x,1/2-y,-z
1/2+x,1/2+y,-z
1/2-x,1/2+y,z
1/2+x,1/2-y,z
loop_
_atom_site_type_symbol
_atom_site_label
_atom_site_fract_x
_atom_site_fract_y
_atom_site_fract_z
Si Si1 0.296844 0.307696 0.083876
Si Si2 0.115909 0.693883 0.952757
Si Si3 0.952757 0.306117 0.115909
Si Si4 0.416124 0.192304 0.703156
Si Si5 0.821492 0.806068 0.821492
Si Si6 0.750000 0.250000 0.250000
O O1 0.296705 0.500000 0.084276
O O2 0.250000 0.250000 0.071126
O O3 0.335994 0.248908 0.055587
O O4 0.307495 0.247782 0.131904
O O5 0.115200 0.500000 0.951424
O O6 0.084360 0.753809 0.915640
O O7 0.102056 0.744638 0.000000
O O8 0.951424 0.500000 0.115200
O O9 0.944413 0.251092 0.164006
O O10 0.000000 0.255362 0.102056
O O11 0.428874 0.250000 0.750000
O O12 0.368096 0.252218 0.692505
O O13 0.415724 0.000000 0.703295
O O14 0.786772 0.762363 0.786772
O O15 0.823339 0.000000 0.823339
#
# Coordination Sequence:
#
# PCOD9512897 Si02
#       6
#    32  32  32  32  32   8
#     4  11  22  39  60  88 122 161 205 249 301 363
#     4  10  22  41  65  93 123 158 201 252 312 375
#     4  10  22  41  65  93 123 158 201 252 312 375
#     4  11  22  39  60  88 122 161 205 249 301 363
#     4  10  21  33  51  80 116 156 196 242 294 348
#     4  12  18  36  52  82 120 152 202 256 298 356
#
# _framework density 20.434553000000001
#
# number of rings (size 3 to 8) (size 9 to 14) (size 15 to 20)
#    0.000    1.524    3.810    1.429    0.000    1.905 
#    0.000    1.905    0.000    0.000    0.000    2.667 
#    0.000    0.000    0.000    0.000    0.000    0.000 
#
# Total GULP energy -234167.736442 kJ/mol
# GULP energy per Si atom -5575.422296 kJ/mol
# Density = 2.038804 g / cm^3
# Si number density = 20.434553 Si / 1000 Ang^3
#
#
#
# Elastic Constant Matrix: (Units=GPa)
#
#
# Indices 1 2 3 4 5 6 
#
# 1 113.2688 16.5135 58.1536 0.0003 -0.0002 0.0010
# 2 16.5135 17.2502 16.5136 0.0005 -0.0006 0.0004
# 3 58.1536 16.5136 113.2694 -0.0002 0.0000 -0.0001
# 4 0.0003 0.0005 -0.0002 28.6311 -0.0002 -0.0003
# 5 -0.0002 -0.0006 0.0000 -0.0002 13.2222 0.0001
# 6 0.0010 0.0004 -0.0001 -0.0003 0.0001 28.6297
#
#
#
# Elastic Compliance Matrix: (Units=1/GPa)
#
#
# Indices 1 2 3 4 5 6 
#
# 1 0.012648 -0.006847 -0.005495 0.000000 0.000000 0.000000
# 2 -0.006847 0.071080 -0.006847 -0.000001 0.000003 -0.000001
# 3 -0.005495 -0.006847 0.012648 0.000000 0.000000 0.000000
# 4 0.000000 -0.000001 0.000000 0.034927 0.000000 0.000000
# 5 0.000000 0.000003 0.000000 0.000000 0.075630 0.000000
# 6 0.000000 -0.000001 0.000000 0.000000 0.000000 0.034929
#
#
# Mechanical properties :
#
#
# Convention : Reuss Voigt Hill
#
# Bulk Modulus (GPa) = 17.24248 47.34998 32.29623
# Shear Modulus (GPa) = 16.69032 24.27045 20.48039
#
# Velocity S-wave (km/s) = 2.86102 3.45006 3.16926
# Velocity P-wave (km/s) = 4.40115 6.25239 5.40660
#
# Compressibility (1/GPa) = 0.05799629
#
# Stress axis : x y z
#
# Youngs Moduli (GPa) = 79.06219 14.06866 79.06262
#
# Poissons Ratio (x) = 0.09633 0.43449
# Poissons Ratio (y) = 0.54136 0.54137
# Poissons Ratio (z) = 0.43448 0.09633
#
# Static dielectric constant tensor:
#      x y z
#    x 1.725370 0.000000 0.000000 
#    y 0.000000 1.716360 0.000000 
#    z 0.000000 0.000000 1.725370 
# 
# From -- ./inp_files/47505.got.cif
#   From: 2010.05.17/outbox.cif.g08.bks.cpg/sg69_24_cif.got.tgz:47505.got - 2010.06.03 19:29:58.
