data_PCOD9512926
_publ_section_title
;
Structure prediction by ZEFSAII (Michael W. Deem and Ramdas Pophale) SiO2 
 PCOD9512926
Probable space group: F M M M
;
_chemical_formula_sum "Si O2"
_cell_formula_units_Z 176
_cell_length_a 20.971129
_cell_length_b 30.321193
_cell_length_c 14.271733
_cell_angle_alpha 90.000000
_cell_angle_beta 90.000000
_cell_angle_gamma 90.000000
_cell_volume 9074.961865
_symmetry_space_group_name_H-M "F M M M"
_symmetry_group_IT_number 69
_symmetry_cell_setting 'orthorhombic'
loop_
_space_group_symop_operation_xyz
x,y,z
-x,-y,z
x,-y,-z
-x,y,-z
-x,-y,-z
x,y,-z
-x,y,z
x,-y,z
x,1/2+y,1/2+z
-x,1/2-y,1/2+z
x,1/2-y,1/2-z
-x,1/2+y,1/2-z
-x,1/2-y,1/2-z
x,1/2+y,1/2-z
-x,1/2+y,1/2+z
x,1/2-y,1/2+z
1/2+x,y,1/2+z
1/2-x,-y,1/2+z
1/2+x,-y,1/2-z
1/2-x,y,1/2-z
1/2-x,-y,1/2-z
1/2+x,y,1/2-z
1/2-x,y,1/2+z
1/2+x,-y,1/2+z
1/2+x,1/2+y,z
1/2-x,1/2-y,z
1/2+x,1/2-y,-z
1/2-x,1/2+y,-z
1/2-x,1/2-y,-z
1/2+x,1/2+y,-z
1/2-x,1/2+y,z
1/2+x,1/2-y,z
loop_
_atom_site_type_symbol
_atom_site_label
_atom_site_fract_x
_atom_site_fract_y
_atom_site_fract_z
Si Si1 0.070555 0.677907 0.886618
Si Si2 0.364949 0.947376 0.394329
Si Si3 0.290441 0.708947 0.611882
Si Si4 0.737852 0.111095 0.892528
Si Si5 0.071237 0.500000 0.110876
Si Si6 0.112141 0.911522 0.296197
O O1 0.135950 0.702552 0.855409
O O2 0.075106 0.629844 0.838830
O O3 0.000000 0.697140 0.865579
O O4 0.074056 0.672922 0.000000
O O5 0.390897 0.942646 0.500000
O O6 0.297275 0.921772 0.392565
O O7 0.402856 0.923859 0.310790
O O8 0.357868 0.000000 0.375794
O O9 0.296708 0.715347 0.500000
O O10 0.250000 0.750000 0.648248
O O11 0.251290 0.663237 0.624170
O O12 0.686196 0.098902 0.815008
O O13 0.710466 0.108636 0.000000
O O14 0.102318 0.544354 0.145599
O O15 0.000000 0.500000 0.149607
O O16 0.069948 0.500000 0.000000
#
# Coordination Sequence:
#
# PCOD9512926 Si02
#       6
#    32  32  32  32  16  32
#     4   9  17  30  50  79 114 147 178 218 275 342
#     4  10  21  35  49  69 100 137 183 235 280 329
#     4   8  14  27  49  79 114 147 178 215 267 336
#     4   9  18  30  48  76 106 138 177 222 277 337
#     4  11  22  32  46  73 103 131 168 214 262 319
#     4  11  19  31  49  70 102 144 180 219 270 329
#
# _framework density 19.394020999999999
#
# number of rings (size 3 to 8) (size 9 to 14) (size 15 to 20)
#    0.000    2.455    0.909    3.818    1.273    2.182 
#    0.000    0.000    0.000   11.455    0.000    3.818 
#    0.000    8.727    0.000    0.000    0.000    0.000 
#
# Total GULP energy -245078.011952 kJ/mol
# GULP energy per Si atom -5569.954817 kJ/mol
# Density = 1.934988 g / cm^3
# Si number density = 19.394021 Si / 1000 Ang^3
#
#
#
# Elastic Constant Matrix: (Units=GPa)
#
#
# Indices 1 2 3 4 5 6 
#
# 1 66.1064 47.8542 4.3606 0.0000 0.0000 0.0000
# 2 47.8542 111.6215 25.2758 0.0000 0.0000 0.0000
# 3 4.3606 25.2758 80.2173 0.0000 0.0000 0.0000
# 4 0.0000 0.0000 0.0000 -22.9338 0.0000 0.0000
# 5 0.0000 0.0000 0.0000 0.0000-5407.1452 0.0000
# 6 0.0000 0.0000 0.0000 0.0000 0.0000 39.2429
#
#
#
# Elastic Compliance Matrix: (Units=1/GPa)
#
#
# Indices 1 2 3 4 5 6 
#
# 1 0.022209 -0.009958 0.001931 0.000000 0.000000 0.000000
# 2 -0.009958 0.014113 -0.003905 0.000000 0.000000 0.000000
# 3 0.001931 -0.003905 0.013592 0.000000 0.000000 0.000000
# 4 0.000000 0.000000 0.000000 -0.043604 0.000000 0.000000
# 5 0.000000 0.000000 0.000000 0.000000 -0.000185 0.000000
# 6 0.000000 0.000000 0.000000 0.000000 0.000000 0.025482
#
#
# Mechanical properties :
#
#
# Convention : Reuss Voigt Hill
#
# Bulk Modulus (GPa) = 38.39297 45.88069 42.13683
# Shear Modulus (GPa) = 77.93587 -1066.13693 -494.10053
#
# Velocity S-wave (km/s) = 6.34608 -23.47164 -15.97882
# Velocity P-wave (km/s) = 8.57533 26.66175 17.85095
#
# Compressibility (1/GPa) = 0.02604643
#
# Stress axis : x y z
#
# Youngs Moduli (GPa) = 45.02748 70.85893 73.57400
#
# Poissons Ratio (x) = 0.70564 -0.14204
# Poissons Ratio (y) = 0.44840 0.28734
# Poissons Ratio (z) = -0.08693 0.27673
#
# Static dielectric constant tensor:
#      x y z
#    x 1.680430 0.000000 0.000000 
#    y 0.000000 1.623200 0.000000 
#    z 0.000000 0.000000 1.727840 
# 
# From -- ./inp_files/18096.got.cif
#   From: 2010.05.17/outbox.cif.g08.bks.cpg/sg69_10_cif.got.tgz:18096.got - 2010.06.03 19:29:58.
