data_PCOD9512560
_publ_section_title
;
Structure prediction by ZEFSAII (Michael W. Deem and Ramdas Pophale) SiO2 
 PCOD9512560
Probable space group: F M M M
;
_chemical_formula_sum "Si O2"
_cell_formula_units_Z 160
_cell_length_a 18.797280
_cell_length_b 14.502356
_cell_length_c 30.966214
_cell_angle_alpha 90.000000
_cell_angle_beta 90.000000
_cell_angle_gamma 90.000000
_cell_volume 8441.540011
_symmetry_space_group_name_H-M "F M M M"
_symmetry_group_IT_number 69
_symmetry_cell_setting 'orthorhombic'
loop_
_space_group_symop_operation_xyz
x,y,z
-x,-y,z
x,-y,-z
-x,y,-z
-x,-y,-z
x,y,-z
-x,y,z
x,-y,z
x,1/2+y,1/2+z
-x,1/2-y,1/2+z
x,1/2-y,1/2-z
-x,1/2+y,1/2-z
-x,1/2-y,1/2-z
x,1/2+y,1/2-z
-x,1/2+y,1/2+z
x,1/2-y,1/2+z
1/2+x,y,1/2+z
1/2-x,-y,1/2+z
1/2+x,-y,1/2-z
1/2-x,y,1/2-z
1/2-x,-y,1/2-z
1/2+x,y,1/2-z
1/2-x,y,1/2+z
1/2+x,-y,1/2+z
1/2+x,1/2+y,z
1/2-x,1/2-y,z
1/2+x,1/2-y,-z
1/2-x,1/2+y,-z
1/2-x,1/2-y,-z
1/2+x,1/2+y,-z
1/2-x,1/2+y,z
1/2+x,1/2-y,z
loop_
_atom_site_type_symbol
_atom_site_label
_atom_site_fract_x
_atom_site_fract_y
_atom_site_fract_z
Si Si1 0.813157 0.684399 0.364842
Si Si2 0.760275 0.111639 0.548673
Si Si3 0.686808 0.000000 0.689515
Si Si4 0.577911 0.605042 0.437672
Si Si5 0.852071 0.500000 0.784944
Si Si6 0.920237 0.159169 0.658879
O O1 0.750000 0.750000 0.347318
O O2 0.786544 0.656357 0.413165
O O3 0.823428 0.590840 0.338811
O O4 0.881057 0.748024 0.356287
O O5 0.734162 0.130483 0.500000
O O6 0.843706 0.142940 0.550566
O O7 0.760489 0.000000 0.555248
O O8 0.769213 0.000000 0.703242
O O9 0.641332 0.000000 0.733328
O O10 0.500000 0.646935 0.449882
O O11 0.577473 0.500000 0.453459
O O12 0.578377 0.603268 0.385928
O O13 0.884012 0.407519 0.806302
O O14 0.000000 0.179447 0.673145
#
# Coordination Sequence:
#
# PCOD9512560 Si02
#       6
#    32  32  16  32  16  32
#     4  12  22  40  64  89 129 168 214 261 317 382
#     4  10  20  35  59  90 126 167 216 269 318 375
#     4  11  24  40  63  94 125 161 210 261 314 368
#     4   9  16  29  53  84 123 164 199 249 317 379
#     4  11  21  40  64  96 126 155 204 260 308 379
#     4  11  22  39  64  93 125 168 206 254 323 383
#
# _framework density 18.953887999999999
#
# number of rings (size 3 to 8) (size 9 to 14) (size 15 to 20)
#    0.000    1.400    6.000    0.300    0.000    1.600 
#    0.000    5.500    0.000    0.600    0.000    1.400 
#    0.000    0.000    0.000    0.000    0.000    0.000 
#
# Total GULP energy -222873.914720 kJ/mol
# GULP energy per Si atom -5571.847868 kJ/mol
# Density = 1.891075 g / cm^3
# Si number density = 18.953888 Si / 1000 Ang^3
#
#
#
# Elastic Constant Matrix: (Units=GPa)
#
#
# Indices 1 2 3 4 5 6 
#
# 1 104.8506 52.4487 59.0931 0.0000 0.0000 0.0000
# 2 52.4487 135.5922 69.5889 0.0000 0.0000 0.0000
# 3 59.0931 69.5889 153.3059 0.0000 0.0000 0.0000
# 4 0.0000 0.0000 0.0000 7.2269 0.0000 0.0000
# 5 0.0000 0.0000 0.0000 0.0000 13.1759 0.0000
# 6 0.0000 0.0000 0.0000 0.0000 0.0000 10.9449
#
#
#
# Elastic Compliance Matrix: (Units=1/GPa)
#
#
# Indices 1 2 3 4 5 6 
#
# 1 0.013200 -0.003252 -0.003612 0.000000 0.000000 0.000000
# 2 -0.003252 0.010416 -0.003475 0.000000 0.000000 0.000000
# 3 -0.003612 -0.003475 0.009492 0.000000 0.000000 0.000000
# 4 0.000000 0.000000 0.000000 0.138372 0.000000 0.000000
# 5 0.000000 0.000000 0.000000 0.000000 0.075896 0.000000
# 6 0.000000 0.000000 0.000000 0.000000 0.000000 0.091367
#
#
# Mechanical properties :
#
#
# Convention : Reuss Voigt Hill
#
# Bulk Modulus (GPa) = 80.44224 84.00112 82.22168
# Shear Modulus (GPa) = 13.75273 20.44405 17.09839
#
# Velocity S-wave (km/s) = 2.69660 3.28780 3.00676
# Velocity P-wave (km/s) = 7.22694 7.66992 7.45172
#
# Compressibility (1/GPa) = 0.01243128
#
# Stress axis : x y z
#
# Youngs Moduli (GPa) = 75.75896 96.00347 105.34893
#
# Poissons Ratio (x) = 0.31222 0.38049
# Poissons Ratio (y) = 0.24638 0.36604
# Poissons Ratio (z) = 0.27362 0.33357
#
# Static dielectric constant tensor:
#      x y z
#    x 1.695860 0.000000 0.000000 
#    y 0.000000 1.717090 0.000000 
#    z 0.000000 0.000000 1.685050 
# 
# From -- ./inp_files/27502.got.cif
#   From: 2010.05.17/outbox.cif.g08.bks.cpg/sg69_14_cif.got.tgz:27502.got - 2010.06.03 19:29:58.
