data_PCOD9512523
_publ_section_title
;
Structure prediction by ZEFSAII (Michael W. Deem and Ramdas Pophale) SiO2 
 PCOD9512523
Probable space group: F M M M
;
_chemical_formula_sum "Si O2"
_cell_formula_units_Z 240
_cell_length_a 27.033567
_cell_length_b 22.730753
_cell_length_c 22.381355
_cell_angle_alpha 90.000000
_cell_angle_beta 90.000000
_cell_angle_gamma 90.000000
_cell_volume 13753.193458
_symmetry_space_group_name_H-M "F M M M"
_symmetry_group_IT_number 69
_symmetry_cell_setting 'orthorhombic'
loop_
_space_group_symop_operation_xyz
x,y,z
-x,-y,z
x,-y,-z
-x,y,-z
-x,-y,-z
x,y,-z
-x,y,z
x,-y,z
x,1/2+y,1/2+z
-x,1/2-y,1/2+z
x,1/2-y,1/2-z
-x,1/2+y,1/2-z
-x,1/2-y,1/2-z
x,1/2+y,1/2-z
-x,1/2+y,1/2+z
x,1/2-y,1/2+z
1/2+x,y,1/2+z
1/2-x,-y,1/2+z
1/2+x,-y,1/2-z
1/2-x,y,1/2-z
1/2-x,-y,1/2-z
1/2+x,y,1/2-z
1/2-x,y,1/2+z
1/2+x,-y,1/2+z
1/2+x,1/2+y,z
1/2-x,1/2-y,z
1/2+x,1/2-y,-z
1/2-x,1/2+y,-z
1/2-x,1/2-y,-z
1/2+x,1/2+y,-z
1/2-x,1/2+y,z
1/2+x,1/2-y,z
loop_
_atom_site_type_symbol
_atom_site_label
_atom_site_fract_x
_atom_site_fract_y
_atom_site_fract_z
Si Si1 0.807655 0.237845 0.931404
Si Si2 0.059581 0.928901 0.787684
Si Si3 0.410380 0.070259 0.848653
Si Si4 0.854207 0.131498 0.145089
Si Si5 0.808186 0.685256 0.241632
Si Si6 0.500000 0.428161 0.431416
Si Si7 0.276034 0.433312 0.929686
Si Si8 0.319178 0.360680 0.391101
O O1 0.750000 0.250000 0.910584
O O2 0.839173 0.191606 0.891687
O O3 0.831122 0.302893 0.929544
O O4 0.804658 0.216602 0.000000
O O5 0.078803 0.911949 0.720452
O O6 0.091006 0.891595 0.836818
O O7 0.000000 0.919437 0.790612
O O8 0.067888 0.000000 0.795072
O O9 0.453507 0.091243 0.892505
O O10 0.361042 0.091098 0.881771
O O11 0.411211 0.000000 0.846699
O O12 0.829025 0.141652 0.209175
O O13 0.824357 0.082753 0.108050
O O14 0.830799 0.750000 0.250000
O O15 0.750000 0.689331 0.250000
O O16 0.815093 0.664485 0.175205
O O17 0.500000 0.500000 0.432502
O O18 0.500000 0.408397 0.500000
O O19 0.260264 0.500000 0.916793
O O20 0.231779 0.389345 0.912868
O O21 0.286232 0.428366 0.000000
#
# Coordination Sequence:
#
# PCOD9512523 Si02
#       8
#    32  32  32  32  32  16  32  32
#     4  11  22  38  61  85 115 160 206 241 283 354
#     4  10  21  39  63  89 118 155 201 255 312 364
#     4  10  20  35  57  86 120 156 193 237 293 355
#     4  12  21  37  61  88 115 151 201 249 304 356
#     4  11  20  33  52  83 118 152 185 233 285 347
#     4   9  18  34  56  78 105 150 201 239 275 336
#     4  11  24  39  54  80 122 163 194 233 290 356
#     4  12  21  35  56  87 120 153 193 232 284 352
#
# _framework density 17.450493000000002
#
# number of rings (size 3 to 8) (size 9 to 14) (size 15 to 20)
#    0.000    1.133    6.000    1.600    0.000    1.067 
#    0.000    2.000    1.467    2.800    0.000    4.667 
#    0.000    0.000    0.000    0.000    0.000    0.000 
#
# Total GULP energy -334268.385684 kJ/mol
# GULP energy per Si atom -5571.139761 kJ/mol
# Density = 1.741077 g / cm^3
# Si number density = 17.450493 Si / 1000 Ang^3
#
#
#
# Elastic Constant Matrix: (Units=GPa)
#
#
# Indices 1 2 3 4 5 6 
#
# 1 87.3358 16.8837 34.6879 0.0000 0.0000 0.0000
# 2 16.8837 67.0138 31.4443 0.0000 0.0000 0.0000
# 3 34.6879 31.4443 99.5640 0.0000 0.0000 0.0000
# 4 0.0000 0.0000 0.0000 25.9366 0.0000 0.0000
# 5 0.0000 0.0000 0.0000 0.0000 14.4259 0.0000
# 6 0.0000 0.0000 0.0000 0.0000 0.0000 17.7621
#
#
#
# Elastic Compliance Matrix: (Units=1/GPa)
#
#
# Indices 1 2 3 4 5 6 
#
# 1 0.013399 -0.001392 -0.004229 0.000000 0.000000 0.000000
# 2 -0.001392 0.017663 -0.005093 0.000000 0.000000 0.000000
# 3 -0.004229 -0.005093 0.013126 0.000000 0.000000 0.000000
# 4 0.000000 0.000000 0.000000 0.038556 0.000000 0.000000
# 5 0.000000 0.000000 0.000000 0.000000 0.069320 0.000000
# 6 0.000000 0.000000 0.000000 0.000000 0.000000 0.056300
#
#
# Mechanical properties :
#
#
# Convention : Reuss Voigt Hill
#
# Bulk Modulus (GPa) = 43.93693 46.66060 45.29876
# Shear Modulus (GPa) = 21.06367 23.01811 22.04089
#
# Velocity S-wave (km/s) = 3.47804 3.63582 3.55780
# Velocity P-wave (km/s) = 6.43130 6.66502 6.54920
#
# Compressibility (1/GPa) = 0.02275990
#
# Stress axis : x y z
#
# Youngs Moduli (GPa) = 74.63481 56.61603 76.18680
#
# Poissons Ratio (x) = 0.07878 0.32216
# Poissons Ratio (y) = 0.10386 0.38805
# Poissons Ratio (z) = 0.31560 0.28837
#
# Static dielectric constant tensor:
#      x y z
#    x 1.591640 0.000000 0.000000 
#    y 0.000000 1.645050 0.000000 
#    z 0.000000 0.000000 1.600400 
# 
# From -- ./inp_files/38592.got.cif
#   From: 2010.05.17/outbox.cif.g08.bks.cpg/sg69_20_cif.got.tgz:38592.got - 2010.06.03 19:29:58.
