data_PCOD9512450
_publ_section_title
;
Structure prediction by ZEFSAII (Michael W. Deem and Ramdas Pophale) SiO2 
 PCOD9512450
Probable space group: F M M M
;
_chemical_formula_sum "Si O2"
_cell_formula_units_Z 128
_cell_length_a 26.092591
_cell_length_b 8.776560
_cell_length_c 29.607802
_cell_angle_alpha 90.000000
_cell_angle_beta 90.000000
_cell_angle_gamma 90.000000
_cell_volume 6780.281121
_symmetry_space_group_name_H-M "F M M M"
_symmetry_group_IT_number 69
_symmetry_cell_setting 'orthorhombic'
loop_
_space_group_symop_operation_xyz
x,y,z
-x,-y,z
x,-y,-z
-x,y,-z
-x,-y,-z
x,y,-z
-x,y,z
x,-y,z
x,1/2+y,1/2+z
-x,1/2-y,1/2+z
x,1/2-y,1/2-z
-x,1/2+y,1/2-z
-x,1/2-y,1/2-z
x,1/2+y,1/2-z
-x,1/2+y,1/2+z
x,1/2-y,1/2+z
1/2+x,y,1/2+z
1/2-x,-y,1/2+z
1/2+x,-y,1/2-z
1/2-x,y,1/2-z
1/2-x,-y,1/2-z
1/2+x,y,1/2-z
1/2-x,y,1/2+z
1/2+x,-y,1/2+z
1/2+x,1/2+y,z
1/2-x,1/2-y,z
1/2+x,1/2-y,-z
1/2-x,1/2+y,-z
1/2-x,1/2-y,-z
1/2+x,1/2+y,-z
1/2-x,1/2+y,z
1/2+x,1/2-y,z
loop_
_atom_site_type_symbol
_atom_site_label
_atom_site_fract_x
_atom_site_fract_y
_atom_site_fract_z
Si Si1 0.596578 0.178378 0.360288
Si Si2 0.806563 0.318359 0.898059
Si Si3 0.807371 0.316410 0.000000
Si Si4 0.938525 0.173334 0.550866
Si Si5 0.500000 0.315050 0.800134
O O1 0.651382 0.261343 0.362277
O O2 0.574700 0.209598 0.410292
O O3 0.551830 0.233783 0.326529
O O4 0.604509 0.000000 0.352488
O O5 0.802694 0.500000 0.896685
O O6 0.750000 0.250000 0.891196
O O7 0.825290 0.272515 0.949189
O O8 0.750000 0.250000 0.000000
O O9 0.807168 0.500000 0.000000
O O10 0.920097 0.206930 0.500000
O O11 0.000000 0.167417 0.548619
O O12 0.921000 0.000000 0.562595
O O13 0.500000 0.500000 0.799792
O O14 0.500000 0.250000 0.750000
#
# Coordination Sequence:
#
# PCOD9512450 Si02
#       5
#    32  32  16  32  16
#     4  11  22  37  56  84 117 150 189 237 289 344
#     4  10  20  35  54  80 114 157 201 242 281 330
#     4   8  16  30  48  71 106 149 199 241 271 311
#     4   9  18  32  50  75 110 152 195 234 273 328
#     4  10  24  44  65  88 115 143 184 237 295 358
#
# _framework density 18.878273
#
# number of rings (size 3 to 8) (size 9 to 14) (size 15 to 20)
#    0.000    2.250    1.250    2.250    1.750    3.500 
#    0.000    1.250    0.000    0.750    0.000    5.250 
#    0.000    0.000    0.000    0.000    0.000    0.000 
#
# Total GULP energy -178422.033750 kJ/mol
# GULP energy per Si atom -5575.688555 kJ/mol
# Density = 1.883531 g / cm^3
# Si number density = 18.878273 Si / 1000 Ang^3
#
#
#
# Elastic Constant Matrix: (Units=GPa)
#
#
# Indices 1 2 3 4 5 6 
#
# 1 149.7219 43.8037 62.4712 0.0000 0.0000 0.0000
# 2 43.8037 33.9338 26.0041 0.0000 0.0000 -0.0001
# 3 62.4712 26.0041 88.8695 0.0000 0.0000 0.0000
# 4 0.0000 0.0000 0.0000 23.4648 0.0000 0.0000
# 5 0.0000 0.0000 0.0000 0.0000 20.8056 0.0000
# 6 0.0000 -0.0001 0.0000 0.0000 0.0000 33.6725
#
#
#
# Elastic Compliance Matrix: (Units=1/GPa)
#
#
# Indices 1 2 3 4 5 6 
#
# 1 0.012337 -0.011961 -0.005172 0.000000 0.000000 0.000000
# 2 -0.011961 0.049584 -0.006101 0.000000 0.000000 0.000000
# 3 -0.005172 -0.006101 0.016673 0.000000 0.000000 0.000000
# 4 0.000000 0.000000 0.000000 0.042617 0.000000 0.000000
# 5 0.000000 0.000000 0.000000 0.000000 0.048064 0.000000
# 6 0.000000 0.000000 0.000000 0.000000 0.000000 0.029698
#
#
# Mechanical properties :
#
#
# Convention : Reuss Voigt Hill
#
# Bulk Modulus (GPa) = 31.12712 59.67592 45.40152
# Shear Modulus (GPa) = 19.51982 24.93833 22.22908
#
# Velocity S-wave (km/s) = 3.21905 3.63851 3.43519
# Velocity P-wave (km/s) = 5.50822 7.02362 6.31156
#
# Compressibility (1/GPa) = 0.03212632
#
# Stress axis : x y z
#
# Youngs Moduli (GPa) = 81.05983 20.16762 59.97620
#
# Poissons Ratio (x) = 0.24123 0.31020
# Poissons Ratio (y) = 0.96958 0.36589
# Poissons Ratio (z) = 0.41925 0.12303
#
# Static dielectric constant tensor:
#      x y z
#    x 1.733750 0.000000 0.000000 
#    y 0.000000 1.662530 0.000000 
#    z 0.000000 0.000000 1.635890 
# 
# From -- ./inp_files/39668.got.cif
#   From: 2010.05.17/outbox.cif.g08.bks.cpg/sg69_20_cif.got.tgz:39668.got - 2010.06.03 19:29:58.
