data_PCOD9512993
_publ_section_title
;
Structure prediction by ZEFSAII (Michael W. Deem and Ramdas Pophale) SiO2 
 PCOD9512993
Probable space group: F M M M
;
_chemical_formula_sum "Si O2"
_cell_formula_units_Z 136
_cell_length_a 25.625250
_cell_length_b 8.506643
_cell_length_c 28.024504
_cell_angle_alpha 90.000000
_cell_angle_beta 90.000000
_cell_angle_gamma 90.000000
_cell_volume 6108.917400
_symmetry_space_group_name_H-M "F M M M"
_symmetry_group_IT_number 69
_symmetry_cell_setting 'orthorhombic'
loop_
_space_group_symop_operation_xyz
x,y,z
-x,-y,z
x,-y,-z
-x,y,-z
-x,-y,-z
x,y,-z
-x,y,z
x,-y,z
x,1/2+y,1/2+z
-x,1/2-y,1/2+z
x,1/2-y,1/2-z
-x,1/2+y,1/2-z
-x,1/2-y,1/2-z
x,1/2+y,1/2-z
-x,1/2+y,1/2+z
x,1/2-y,1/2+z
1/2+x,y,1/2+z
1/2-x,-y,1/2+z
1/2+x,-y,1/2-z
1/2-x,y,1/2-z
1/2-x,-y,1/2-z
1/2+x,y,1/2-z
1/2-x,y,1/2+z
1/2+x,-y,1/2+z
1/2+x,1/2+y,z
1/2-x,1/2-y,z
1/2+x,1/2-y,-z
1/2-x,1/2+y,-z
1/2-x,1/2-y,-z
1/2+x,1/2+y,-z
1/2-x,1/2+y,z
1/2+x,1/2-y,z
loop_
_atom_site_type_symbol
_atom_site_label
_atom_site_fract_x
_atom_site_fract_y
_atom_site_fract_z
Si Si1 0.055809 0.190807 0.842465
Si Si2 0.250000 0.750000 0.750000
Si Si3 0.670490 0.822682 0.329946
Si Si4 0.694743 0.182483 0.072023
Si Si5 0.082957 0.187454 0.948871
O O1 0.111168 0.230031 0.818217
O O2 0.060724 0.243676 0.898059
O O3 0.000000 0.248130 0.823068
O O4 0.053932 0.000000 0.842010
O O5 0.290507 0.830674 0.714009
O O6 0.691610 0.707755 0.370690
O O7 0.667323 0.000000 0.351013
O O8 0.750000 0.250000 0.055936
O O9 0.644402 0.274010 0.053149
O O10 0.690403 0.000000 0.060262
O O11 0.074824 0.000000 0.948864
O O12 0.062821 0.248636 0.000000
#
# Coordination Sequence:
#
# PCOD9512993 Si02
#       5
#    32   8  32  32  32
#     4   8  15  31  55  80 108 144 185 229 273 319
#     4  12  22  32  58  86 116 144 178 230 274 328
#     4  10  21  36  55  82 112 142 182 225 274 332
#     4  11  21  34  53  75 107 147 185 225 274 328
#     4   9  18  32  51  78 110 143 184 229 271 320
#
# _framework density 22.262536000000001
#
# number of rings (size 3 to 8) (size 9 to 14) (size 15 to 20)
#    0.000    2.353    1.176    3.882    0.000    2.353 
#    0.000    2.941    0.000   11.294    0.000    6.588 
#    0.000    0.000    0.000    0.000    0.000    0.000 
#
# Total GULP energy -189522.336488 kJ/mol
# GULP energy per Si atom -5574.186367 kJ/mol
# Density = 2.221187 g / cm^3
# Si number density = 22.262536 Si / 1000 Ang^3
#
#
#
# Elastic Constant Matrix: (Units=GPa)
#
#
# Indices 1 2 3 4 5 6 
#
# 1 183.2104 -0.7000 28.8437 0.0000 0.0000 -0.0001
# 2 -0.7000 21.4798 5.8418 0.0000 -0.0001 -0.0001
# 3 28.8437 5.8418 75.0099 0.0000 0.0000 0.0000
# 4 0.0000 0.0000 0.0000 2.6780 0.0000 0.0000
# 5 0.0000 -0.0001 0.0000 0.0000 12.6364 0.0001
# 6 -0.0001 -0.0001 0.0000 0.0000 0.0001 10.7455
#
#
#
# Elastic Compliance Matrix: (Units=1/GPa)
#
#
# Indices 1 2 3 4 5 6 
#
# 1 0.005824 0.000816 -0.002303 0.000000 0.000000 0.000000
# 2 0.000816 0.047677 -0.004027 0.000000 0.000000 0.000001
# 3 -0.002303 -0.004027 0.014531 0.000000 0.000000 0.000000
# 4 0.000000 0.000000 0.000000 0.373410 0.000000 0.000000
# 5 0.000000 0.000000 0.000000 0.000000 0.079137 -0.000001
# 6 0.000000 0.000001 0.000000 0.000000 -0.000001 0.093063
#
#
# Mechanical properties :
#
#
# Convention : Reuss Voigt Hill
#
# Bulk Modulus (GPa) = 17.54258 38.63013 28.08635
# Shear Modulus (GPa) = 7.76795 21.59294 14.68045
#
# Velocity S-wave (km/s) = 1.86998 3.11774 2.57071
# Velocity P-wave (km/s) = 3.54393 5.50909 4.63193
#
# Compressibility (1/GPa) = 0.05700415
#
# Stress axis : x y z
#
# Youngs Moduli (GPa) = 171.70620 20.97441 68.81936
#
# Poissons Ratio (x) = -0.01712 0.15849
# Poissons Ratio (y) = -0.14014 0.27713
# Poissons Ratio (z) = 0.39545 0.08446
#
# Static dielectric constant tensor:
#      x y z
#    x 1.851500 0.000000 0.000000 
#    y 0.000000 1.809290 0.000000 
#    z 0.000000 0.000000 1.873930 
# 
# From -- ./inp_files/47138.got.cif
#   From: 2010.05.17/outbox.cif.g08.bks.cpg/sg69_24_cif.got.tgz:47138.got - 2010.06.03 19:29:58.
