data_PCOD9512367
_publ_section_title
;
Structure prediction by ZEFSAII (Michael W. Deem and Ramdas Pophale) SiO2 
 PCOD9512367
Probable space group: F M M M
;
_chemical_formula_sum "Si O2"
_cell_formula_units_Z 144
_cell_length_a 27.537633
_cell_length_b 12.242432
_cell_length_c 26.310838
_cell_angle_alpha 90.000000
_cell_angle_beta 90.000000
_cell_angle_gamma 90.000000
_cell_volume 8870.109654
_symmetry_space_group_name_H-M "F M M M"
_symmetry_group_IT_number 69
_symmetry_cell_setting 'orthorhombic'
loop_
_space_group_symop_operation_xyz
x,y,z
-x,-y,z
x,-y,-z
-x,y,-z
-x,-y,-z
x,y,-z
-x,y,z
x,-y,z
x,1/2+y,1/2+z
-x,1/2-y,1/2+z
x,1/2-y,1/2-z
-x,1/2+y,1/2-z
-x,1/2-y,1/2-z
x,1/2+y,1/2-z
-x,1/2+y,1/2+z
x,1/2-y,1/2+z
1/2+x,y,1/2+z
1/2-x,-y,1/2+z
1/2+x,-y,1/2-z
1/2-x,y,1/2-z
1/2-x,-y,1/2-z
1/2+x,y,1/2-z
1/2-x,y,1/2+z
1/2+x,-y,1/2+z
1/2+x,1/2+y,z
1/2-x,1/2-y,z
1/2+x,1/2-y,-z
1/2-x,1/2+y,-z
1/2-x,1/2-y,-z
1/2+x,1/2+y,-z
1/2-x,1/2+y,z
1/2+x,1/2-y,z
loop_
_atom_site_type_symbol
_atom_site_label
_atom_site_fract_x
_atom_site_fract_y
_atom_site_fract_z
Si Si1 0.313083 0.000000 0.634845
Si Si2 0.721685 0.000000 0.058206
Si Si3 0.192594 0.771601 0.808597
Si Si4 0.554535 0.238711 0.560707
Si Si5 0.404530 0.000000 0.559939
Si Si6 0.858919 0.623732 0.109147
O O1 0.264295 0.000000 0.600016
O O2 0.315471 0.106675 0.670254
O O3 0.357527 0.000000 0.595432
O O4 0.685627 0.102367 0.069569
O O5 0.738625 0.000000 0.000000
O O6 0.179626 0.750000 0.750000
O O7 0.250000 0.750000 0.813745
O O8 0.163067 0.689159 0.844009
O O9 0.556359 0.255897 0.500000
O O10 0.500000 0.265462 0.578311
O O11 0.596461 0.310865 0.585665
O O12 0.565638 0.110713 0.569591
O O13 0.391012 0.000000 0.500000
O O14 0.873521 0.500000 0.123426
#
# Coordination Sequence:
#
# PCOD9512367 Si02
#       6
#    16  16  32  32  16  32
#     4  12  21  37  58  86 113 152 189 223 283 345
#     4  10  21  35  53  82 121 154 181 220 273 343
#     4  11  23  38  59  82 112 150 194 242 280 328
#     4  10  20  35  57  83 113 152 193 235 282 334
#     4  10  20  34  54  85 119 147 185 230 276 341
#     4  10  21  37  54  79 116 148 187 233 282 332
#
# _framework density 16.234297000000002
#
# number of rings (size 3 to 8) (size 9 to 14) (size 15 to 20)
#    0.667    0.889    4.444    1.333    1.556    2.667 
#    0.000    2.222    0.000    0.667    0.000    0.000 
#    0.000    0.000    0.000    0.000    0.000    0.000 
#
# Total GULP energy -200670.194013 kJ/mol
# GULP energy per Si atom -5574.172056 kJ/mol
# Density = 1.619735 g / cm^3
# Si number density = 16.234297 Si / 1000 Ang^3
#
#
#
# Elastic Constant Matrix: (Units=GPa)
#
#
# Indices 1 2 3 4 5 6 
#
# 1 98.6916 35.8650 57.5109 0.0000 0.0000 0.0000
# 2 35.8650 123.0740 65.4396 0.0000 0.0000 0.0000
# 3 57.5109 65.4396 101.4557 0.0000 0.0000 0.0000
# 4 0.0000 0.0000 0.0000 10.7029 0.0000 0.0000
# 5 0.0000 0.0000 0.0000 0.0000 19.1682 0.0000
# 6 0.0000 0.0000 0.0000 0.0000 0.0000 16.3141
#
#
#
# Elastic Compliance Matrix: (Units=1/GPa)
#
#
# Indices 1 2 3 4 5 6 
#
# 1 0.015135 0.000230 -0.008728 0.000000 0.000000 0.000000
# 2 0.000230 0.012370 -0.008109 0.000000 0.000000 0.000000
# 3 -0.008728 -0.008109 0.020034 0.000000 0.000000 0.000000
# 4 0.000000 0.000000 0.000000 0.093432 0.000000 0.000000
# 5 0.000000 0.000000 0.000000 0.000000 0.052170 0.000000
# 6 0.000000 0.000000 0.000000 0.000000 0.000000 0.061297
#
#
# Mechanical properties :
#
#
# Convention : Reuss Voigt Hill
#
# Bulk Modulus (GPa) = 69.80483 71.20580 70.50531
# Shear Modulus (GPa) = 17.09831 20.19743 18.64787
#
# Velocity S-wave (km/s) = 3.24886 3.53104 3.39288
# Velocity P-wave (km/s) = 7.56076 7.78337 7.67287
#
# Compressibility (1/GPa) = 0.01432566
#
# Stress axis : x y z
#
# Youngs Moduli (GPa) = 66.07244 80.84215 49.91431
#
# Poissons Ratio (x) = -0.01861 0.43564
# Poissons Ratio (y) = -0.01521 0.40476
# Poissons Ratio (z) = 0.57667 0.65556
#
# Static dielectric constant tensor:
#      x y z
#    x 1.527790 0.000000 0.000000 
#    y 0.000000 1.550090 0.000000 
#    z 0.000000 0.000000 1.517980 
# 
# From -- ./inp_files/43475.got.cif
#   From: 2010.05.17/outbox.cif.g08.bks.cpg/sg69_22_cif.got.tgz:43475.got - 2010.06.03 19:29:58.
