data_PCOD9512650
_publ_section_title
;
Structure prediction by ZEFSAII (Michael W. Deem and Ramdas Pophale) SiO2 
 PCOD9512650
Probable space group: F M M M
;
_chemical_formula_sum "Si O2"
_cell_formula_units_Z 128
_cell_length_a 30.968894
_cell_length_b 9.516788
_cell_length_c 23.106953
_cell_angle_alpha 90.000000
_cell_angle_beta 90.000000
_cell_angle_gamma 90.000000
_cell_volume 6810.182831
_symmetry_space_group_name_H-M "F M M M"
_symmetry_group_IT_number 69
_symmetry_cell_setting 'orthorhombic'
loop_
_space_group_symop_operation_xyz
x,y,z
-x,-y,z
x,-y,-z
-x,y,-z
-x,-y,-z
x,y,-z
-x,y,z
x,-y,z
x,1/2+y,1/2+z
-x,1/2-y,1/2+z
x,1/2-y,1/2-z
-x,1/2+y,1/2-z
-x,1/2-y,1/2-z
x,1/2+y,1/2-z
-x,1/2+y,1/2+z
x,1/2-y,1/2+z
1/2+x,y,1/2+z
1/2-x,-y,1/2+z
1/2+x,-y,1/2-z
1/2-x,y,1/2-z
1/2-x,-y,1/2-z
1/2+x,y,1/2-z
1/2-x,y,1/2+z
1/2+x,-y,1/2+z
1/2+x,1/2+y,z
1/2-x,1/2-y,z
1/2+x,1/2-y,-z
1/2-x,1/2+y,-z
1/2-x,1/2-y,-z
1/2+x,1/2+y,-z
1/2-x,1/2+y,z
1/2+x,1/2-y,z
loop_
_atom_site_type_symbol
_atom_site_label
_atom_site_fract_x
_atom_site_fract_y
_atom_site_fract_z
Si Si1 0.709237 0.159542 0.160868
Si Si2 0.658682 0.664497 0.068099
Si Si3 0.139482 0.250000 0.750000
Si Si4 0.078680 0.157735 0.149139
Si Si5 0.500000 0.668034 0.311381
O O1 0.750000 0.250000 0.180901
O O2 0.690243 0.235763 0.104138
O O3 0.671367 0.163405 0.208590
O O4 0.722027 0.000000 0.149505
O O5 0.670236 0.500000 0.077630
O O6 0.611048 0.681945 0.095720
O O7 0.659266 0.692650 0.000000
O O8 0.108717 0.165487 0.793535
O O9 0.042292 0.275147 0.155733
O O10 0.060162 0.000000 0.145232
O O11 0.500000 0.500000 0.303864
O O12 0.500000 0.750000 0.250000
#
# Coordination Sequence:
#
# PCOD9512650 Si02
#       5
#    32  32  16  32  16
#     4  11  23  37  56  84 115 151 191 235 285 339
#     4   9  20  40  63  85 111 146 189 237 286 336
#     4  10  21  35  58  82 114 146 188 229 285 340
#     4  10  20  36  59  85 114 147 185 229 280 338
#     4  12  24  36  55  84 119 153 186 226 274 331
#
# _framework density 18.795383999999999
#
# number of rings (size 3 to 8) (size 9 to 14) (size 15 to 20)
#    0.000    1.750    1.250    3.000    0.000    9.000 
#    0.000    0.625    0.000    3.750    0.000    0.000 
#    0.000    0.000    0.000    0.000    0.000    0.000 
#
# Total GULP energy -178684.445153 kJ/mol
# GULP energy per Si atom -5583.888911 kJ/mol
# Density = 1.875260 g / cm^3
# Si number density = 18.795384 Si / 1000 Ang^3
#
#
#
# Elastic Constant Matrix: (Units=GPa)
#
#
# Indices 1 2 3 4 5 6 
#
# 1 88.3674 58.1600 27.5810 0.0000 0.0000 0.0000
# 2 58.1600 147.6283 38.1530 0.0000 0.0000 0.0000
# 3 27.5810 38.1530 98.5666 0.0000 0.0000 0.0000
# 4 0.0000 0.0000 0.0000 10.6626 0.0000 0.0000
# 5 0.0000 0.0000 0.0000 0.0000 10.6239 0.0000
# 6 0.0000 0.0000 0.0000 0.0000 0.0000 27.2525
#
#
#
# Elastic Compliance Matrix: (Units=1/GPa)
#
#
# Indices 1 2 3 4 5 6 
#
# 1 0.015704 -0.005612 -0.002222 0.000000 0.000000 0.000000
# 2 -0.005612 0.009533 -0.002119 0.000000 0.000000 0.000000
# 3 -0.002222 -0.002119 0.011587 0.000000 0.000000 0.000000
# 4 0.000000 0.000000 0.000000 0.093786 0.000000 0.000000
# 5 0.000000 0.000000 0.000000 0.000000 0.094127 0.000000
# 6 0.000000 0.000000 0.000000 0.000000 0.000000 0.036694
#
#
# Mechanical properties :
#
#
# Convention : Reuss Voigt Hill
#
# Bulk Modulus (GPa) = 59.11357 64.70559 61.90958
# Shear Modulus (GPa) = 17.42299 23.75236 20.58768
#
# Velocity S-wave (km/s) = 3.04794 3.55876 3.31321
# Velocity P-wave (km/s) = 6.62616 7.16850 6.90266
#
# Compressibility (1/GPa) = 0.01691659
#
# Stress axis : x y z
#
# Youngs Moduli (GPa) = 63.67904 104.90308 86.30000
#
# Poissons Ratio (x) = 0.58877 0.19174
# Poissons Ratio (y) = 0.35740 0.18290
# Poissons Ratio (z) = 0.14148 0.22233
#
# Static dielectric constant tensor:
#      x y z
#    x 1.662240 0.000000 0.000000 
#    y 0.000000 1.648530 0.000000 
#    z 0.000000 0.000000 1.633290 
# 
# From -- ./inp_files/43766.got.cif
#   From: 2010.05.17/outbox.cif.g08.bks.cpg/sg69_22_cif.got.tgz:43766.got - 2010.06.03 19:29:58.
