data_PCOD9512904
_publ_section_title
;
Structure prediction by ZEFSAII (Michael W. Deem and Ramdas Pophale) SiO2 
 PCOD9512904
Probable space group: F M M M
;
_chemical_formula_sum "Si O2"
_cell_formula_units_Z 144
_cell_length_a 25.787446
_cell_length_b 33.938312
_cell_length_c 8.956081
_cell_angle_alpha 90.000000
_cell_angle_beta 90.000000
_cell_angle_gamma 90.000000
_cell_volume 7838.204357
_symmetry_space_group_name_H-M "F M M M"
_symmetry_group_IT_number 69
_symmetry_cell_setting 'orthorhombic'
loop_
_space_group_symop_operation_xyz
x,y,z
-x,-y,z
x,-y,-z
-x,y,-z
-x,-y,-z
x,y,-z
-x,y,z
x,-y,z
x,1/2+y,1/2+z
-x,1/2-y,1/2+z
x,1/2-y,1/2-z
-x,1/2+y,1/2-z
-x,1/2-y,1/2-z
x,1/2+y,1/2-z
-x,1/2+y,1/2+z
x,1/2-y,1/2+z
1/2+x,y,1/2+z
1/2-x,-y,1/2+z
1/2+x,-y,1/2-z
1/2-x,y,1/2-z
1/2-x,-y,1/2-z
1/2+x,y,1/2-z
1/2-x,y,1/2+z
1/2+x,-y,1/2+z
1/2+x,1/2+y,z
1/2-x,1/2-y,z
1/2+x,1/2-y,-z
1/2-x,1/2+y,-z
1/2-x,1/2-y,-z
1/2+x,1/2+y,-z
1/2-x,1/2+y,z
1/2+x,1/2-y,z
loop_
_atom_site_type_symbol
_atom_site_label
_atom_site_fract_x
_atom_site_fract_y
_atom_site_fract_z
Si Si1 0.500000 0.292865 0.323164
Si Si2 0.441582 0.438668 0.174915
Si Si3 0.802684 0.875094 0.178653
Si Si4 0.915022 0.346789 0.674921
Si Si5 0.835555 0.956527 0.677415
O O1 0.500000 0.289511 0.500000
O O2 0.500000 0.250000 0.250000
O O3 0.449821 0.317317 0.268651
O O4 0.500000 0.450910 0.212537
O O5 0.437467 0.391182 0.186389
O O6 0.396191 0.455300 0.276883
O O7 0.431705 0.448498 0.000000
O O8 0.750000 0.859333 0.250000
O O9 0.854747 0.851138 0.219771
O O10 0.810691 0.919775 0.237029
O O11 0.799468 0.875874 0.000000
O O12 0.917747 0.335658 0.500000
O O13 0.829711 0.950995 0.500000
O O14 0.815316 0.000000 0.717989
#
# Coordination Sequence:
#
# PCOD9512904 Si02
#       5
#    16  32  32  32  32
#     4  12  24  36  58  90 121 152 179 212 260 313
#     4   9  17  31  51  72  99 139 181 223 274 330
#     4  10  21  37  59  82 106 142 185 231 278 326
#     4   9  18  36  57  80 113 145 178 221 267 320
#     4  10  21  34  47  69 103 140 182 234 284 329
#
# _framework density 18.371554
#
# number of rings (size 3 to 8) (size 9 to 14) (size 15 to 20)
#    0.000    2.222    1.111    3.667    0.000    7.556 
#    0.000    2.222    0.000    0.667    0.000    4.667 
#    0.000    0.000    0.000    0.000    0.000    0.000 
#
# Total GULP energy -200997.211235 kJ/mol
# GULP energy per Si atom -5583.255868 kJ/mol
# Density = 1.832974 g / cm^3
# Si number density = 18.371554 Si / 1000 Ang^3
#
#
#
# Elastic Constant Matrix: (Units=GPa)
#
#
# Indices 1 2 3 4 5 6 
#
# 1 140.8751 41.1422 52.4886 0.0018 -0.0029 -0.0025
# 2 41.1422 88.1065 51.3392 0.0010 -0.0005 -0.0029
# 3 52.4886 51.3392 74.0642 0.0028 -0.0040 -0.0088
# 4 0.0018 0.0010 0.0028 23.9923 -0.0017 -0.0052
# 5 -0.0029 -0.0005 -0.0040 -0.0017 33.7387 0.0035
# 6 -0.0025 -0.0029 -0.0088 -0.0052 0.0035 12.5155
#
#
#
# Elastic Compliance Matrix: (Units=1/GPa)
#
#
# Indices 1 2 3 4 5 6 
#
# 1 0.009686 -0.000878 -0.006256 0.000000 0.000000 -0.000003
# 2 -0.000878 0.019120 -0.012631 0.000001 -0.000001 -0.000005
# 3 -0.006256 -0.012631 0.026691 -0.000002 0.000002 0.000015
# 4 0.000000 0.000001 -0.000002 0.041680 0.000002 0.000017
# 5 0.000000 -0.000001 0.000002 0.000002 0.029640 -0.000008
# 6 -0.000003 -0.000005 0.000015 0.000017 -0.000008 0.079901
#
#
# Mechanical properties :
#
#
# Convention : Reuss Voigt Hill
#
# Bulk Modulus (GPa) = 62.62962 65.88730 64.25846
# Shear Modulus (GPa) = 19.87526 24.58770 22.23148
#
# Velocity S-wave (km/s) = 3.29272 3.66233 3.48243
# Velocity P-wave (km/s) = 6.97284 7.33656 7.15701
#
# Compressibility (1/GPa) = 0.01596689
#
# Stress axis : x y z
#
# Youngs Moduli (GPa) = 103.24585 52.30124 37.46584
#
# Poissons Ratio (x) = 0.04590 0.23438
# Poissons Ratio (y) = 0.09061 0.47325
# Poissons Ratio (z) = 0.64588 0.66064
#
# Static dielectric constant tensor:
#      x y z
#    x 1.660400 0.000000 0.000000 
#    y 0.000000 1.618640 0.000000 
#    z 0.000000 0.000000 1.608360 
# 
# From -- ./inp_files/5611.got.cif
#   From: 2010.05.17/outbox.cif.g08.bks.cpg/sg69_3_cif.got.tgz:5611.got - 2010.06.03 19:29:58.
