data_PCOD9512136
_publ_section_title
;
Structure prediction by ZEFSAII (Michael W. Deem and Ramdas Pophale) SiO2 
 PCOD9512136
Probable space group: F M M M
;
_chemical_formula_sum "Si O2"
_cell_formula_units_Z 176
_cell_length_a 32.634241
_cell_length_b 13.401292
_cell_length_c 24.286280
_cell_angle_alpha 90.000000
_cell_angle_beta 90.000000
_cell_angle_gamma 90.000000
_cell_volume 10621.385808
_symmetry_space_group_name_H-M "F M M M"
_symmetry_group_IT_number 69
_symmetry_cell_setting 'orthorhombic'
loop_
_space_group_symop_operation_xyz
x,y,z
-x,-y,z
x,-y,-z
-x,y,-z
-x,-y,-z
x,y,-z
-x,y,z
x,-y,z
x,1/2+y,1/2+z
-x,1/2-y,1/2+z
x,1/2-y,1/2-z
-x,1/2+y,1/2-z
-x,1/2-y,1/2-z
x,1/2+y,1/2-z
-x,1/2+y,1/2+z
x,1/2-y,1/2+z
1/2+x,y,1/2+z
1/2-x,-y,1/2+z
1/2+x,-y,1/2-z
1/2-x,y,1/2-z
1/2-x,-y,1/2-z
1/2+x,y,1/2-z
1/2-x,y,1/2+z
1/2+x,-y,1/2+z
1/2+x,1/2+y,z
1/2-x,1/2-y,z
1/2+x,1/2-y,-z
1/2-x,1/2+y,-z
1/2-x,1/2-y,-z
1/2+x,1/2+y,-z
1/2-x,1/2+y,z
1/2+x,1/2-y,z
loop_
_atom_site_type_symbol
_atom_site_label
_atom_site_fract_x
_atom_site_fract_y
_atom_site_fract_z
Si Si1 0.787320 0.885791 0.289145
Si Si2 0.859106 0.750000 0.250000
Si Si3 0.453012 0.120970 0.437740
Si Si4 0.224461 0.111928 0.417744
Si Si5 0.382818 0.619777 0.851929
Si Si6 0.815434 0.681458 0.559933
O O1 0.750000 0.855147 0.250000
O O2 0.827962 0.822549 0.281991
O O3 0.773078 0.880736 0.351769
O O4 0.796859 0.000000 0.274433
O O5 0.882141 0.683372 0.295619
O O6 0.442204 0.154344 0.500000
O O7 0.500000 0.151508 0.426521
O O8 0.421061 0.149814 0.390743
O O9 0.452486 0.000000 0.438788
O O10 0.194567 0.200458 0.436305
O O11 0.270473 0.131877 0.438009
O O12 0.211270 0.000000 0.432531
O O13 0.383700 0.500000 0.841684
O O14 0.342868 0.644778 0.889346
O O15 0.834242 0.657891 0.500000
#
# Coordination Sequence:
#
# PCOD9512136 Si02
#       6
#    32  16  32  32  32  32
#     4  10  20  32  48  65  88 130 178 220 257 296
#     4  12  21  34  49  70 104 130 170 216 255 301
#     4   8  15  31  56  83 108 133 162 200 252 314
#     4  10  20  34  47  65  97 135 173 214 260 308
#     4  11  22  35  53  77 104 136 170 210 261 310
#     4  11  22  34  49  73 101 130 171 219 264 312
#
# _framework density 16.570343000000001
#
# number of rings (size 3 to 8) (size 9 to 14) (size 15 to 20)
#    0.000    1.818    1.818    4.636    2.545    4.727 
#    0.000    0.455    0.000    0.000    0.000    0.000 
#    0.000    2.182    0.000   20.182    0.000    1.636 
#
# Total GULP energy -245457.343504 kJ/mol
# GULP energy per Si atom -5578.575989 kJ/mol
# Density = 1.653263 g / cm^3
# Si number density = 16.570343 Si / 1000 Ang^3
#
#
#
# Elastic Constant Matrix: (Units=GPa)
#
#
# Indices 1 2 3 4 5 6 
#
# 1 72.2535 21.5066 45.6186 0.0000 0.0000 0.0000
# 2 21.5066 88.9490 37.5833 0.0000 0.0000 0.0000
# 3 45.6186 37.5833 124.6561 0.0000 0.0000 0.0000
# 4 0.0000 0.0000 0.0000 -31.1120 0.0000 0.0000
# 5 0.0000 0.0000 0.0000 0.0000 38.3528 0.0000
# 6 0.0000 0.0000 0.0000 0.0000 0.0000 9.5439
#
#
#
# Elastic Compliance Matrix: (Units=1/GPa)
#
#
# Indices 1 2 3 4 5 6 
#
# 1 0.018253 -0.001823 -0.006130 0.000000 0.000000 0.000000
# 2 -0.001823 0.013066 -0.003272 0.000000 0.000000 0.000000
# 3 -0.006130 -0.003272 0.011252 0.000000 0.000000 0.000000
# 4 0.000000 0.000000 0.000000 -0.032142 0.000000 0.000000
# 5 0.000000 0.000000 0.000000 0.000000 0.026074 0.000000
# 6 0.000000 0.000000 0.000000 0.000000 0.000000 0.104779
#
#
# Mechanical properties :
#
#
# Convention : Reuss Voigt Hill
#
# Bulk Modulus (GPa) = 49.70166 55.03063 52.36615
# Shear Modulus (GPa) = 29.33597 15.43362 22.38480
#
# Velocity S-wave (km/s) = 4.21216 3.05520 3.67944
# Velocity P-wave (km/s) = 7.32911 6.76225 7.05138
#
# Compressibility (1/GPa) = 0.02012005
#
# Stress axis : x y z
#
# Youngs Moduli (GPa) = 54.78479 76.53599 88.87341
#
# Poissons Ratio (x) = 0.13954 0.54481
# Poissons Ratio (y) = 0.09988 0.29080
# Poissons Ratio (z) = 0.33584 0.25043
#
# Static dielectric constant tensor:
#      x y z
#    x 1.533340 0.000000 0.000000 
#    y 0.000000 1.583360 0.000000 
#    z 0.000000 0.000000 1.598510 
# 
# From -- ./inp_files/38960.got.cif
#   From: 2010.05.17/outbox.cif.g08.bks.cpg/sg69_20_cif.got.tgz:38960.got - 2010.06.03 19:29:58.
