data_PCOD9512586
_publ_section_title
;
Structure prediction by ZEFSAII (Michael W. Deem and Ramdas Pophale) SiO2 
 PCOD9512586
Probable space group: F M M M
;
_chemical_formula_sum "Si O2"
_cell_formula_units_Z 144
_cell_length_a 28.415396
_cell_length_b 19.716172
_cell_length_c 15.627840
_cell_angle_alpha 90.000000
_cell_angle_beta 90.000000
_cell_angle_gamma 90.000000
_cell_volume 8755.385386
_symmetry_space_group_name_H-M "F M M M"
_symmetry_group_IT_number 69
_symmetry_cell_setting 'orthorhombic'
loop_
_space_group_symop_operation_xyz
x,y,z
-x,-y,z
x,-y,-z
-x,y,-z
-x,-y,-z
x,y,-z
-x,y,z
x,-y,z
x,1/2+y,1/2+z
-x,1/2-y,1/2+z
x,1/2-y,1/2-z
-x,1/2+y,1/2-z
-x,1/2-y,1/2-z
x,1/2+y,1/2-z
-x,1/2+y,1/2+z
x,1/2-y,1/2+z
1/2+x,y,1/2+z
1/2-x,-y,1/2+z
1/2+x,-y,1/2-z
1/2-x,y,1/2-z
1/2-x,-y,1/2-z
1/2+x,y,1/2-z
1/2-x,y,1/2+z
1/2+x,-y,1/2+z
1/2+x,1/2+y,z
1/2-x,1/2-y,z
1/2+x,1/2-y,-z
1/2-x,1/2+y,-z
1/2-x,1/2-y,-z
1/2+x,1/2+y,-z
1/2-x,1/2+y,z
1/2+x,1/2-y,z
loop_
_atom_site_type_symbol
_atom_site_label
_atom_site_fract_x
_atom_site_fract_y
_atom_site_fract_z
Si Si1 0.443057 0.000000 0.096390
Si Si2 0.771630 0.075815 0.000000
Si Si3 0.788065 0.422856 0.174543
Si Si4 0.851901 0.708304 0.836046
Si Si5 0.196202 0.223787 0.000000
Si Si6 0.945406 0.350433 0.895822
O O1 0.432234 0.073073 0.134584
O O2 0.500000 0.000000 0.088916
O O3 0.422850 0.000000 0.000000
O O4 0.739278 0.080498 0.915704
O O5 0.804225 0.142018 0.000000
O O6 0.793631 0.000000 0.000000
O O7 0.806643 0.500000 0.184167
O O8 0.750000 0.411394 0.250000
O O9 0.827025 0.364782 0.174160
O O10 0.844461 0.750000 0.750000
O O11 0.828224 0.746270 0.915937
O O12 0.906897 0.698724 0.856839
O O13 0.250000 0.250000 0.000000
O O14 0.000000 0.336661 0.874632
O O15 0.942098 0.350184 0.000000
#
# Coordination Sequence:
#
# PCOD9512586 Si02
#       6
#    16  16  32  32  16  32
#     4   7  12  26  52  78 103 135 165 211 272 323
#     4  10  20  36  56  74 100 147 186 217 260 311
#     4  10  21  36  52  76 108 143 181 223 266 317
#     4  12  24  34  55  83 107 146 182 222 278 325
#     4  12  22  38  55  78 114 144 180 224 267 313
#     4   9  18  35  54  79 111 140 176 221 273 335
#
# _framework density 16.447019999999998
#
# number of rings (size 3 to 8) (size 9 to 14) (size 15 to 20)
#    0.000    1.889    3.333    2.667    1.556    0.444 
#    0.000    0.000    0.000    0.000    0.000    0.000 
#    0.000    0.889    0.000    0.000    0.000    0.000 
#
# Total GULP energy -200718.055350 kJ/mol
# GULP energy per Si atom -5575.501537 kJ/mol
# Density = 1.640959 g / cm^3
# Si number density = 16.447020 Si / 1000 Ang^3
#
#
#
# Elastic Constant Matrix: (Units=GPa)
#
#
# Indices 1 2 3 4 5 6 
#
# 1 86.1321 63.5979 48.8535 0.0000 0.0000 0.0000
# 2 63.5979 122.3618 42.2607 0.0000 0.0000 0.0000
# 3 48.8535 42.2607 109.9628 0.0000 0.0000 0.0000
# 4 0.0000 0.0000 0.0000 24.4060 0.0000 0.0000
# 5 0.0000 0.0000 0.0000 0.0000 6.8679 0.0000
# 6 0.0000 0.0000 0.0000 0.0000 0.0000 29.6913
#
#
#
# Elastic Compliance Matrix: (Units=1/GPa)
#
#
# Indices 1 2 3 4 5 6 
#
# 1 0.021980 -0.009284 -0.006197 0.000000 0.000000 0.000000
# 2 -0.009284 0.013345 -0.001004 0.000000 0.000000 0.000000
# 3 -0.006197 -0.001004 0.012233 0.000000 0.000000 0.000000
# 4 0.000000 0.000000 0.000000 0.040974 0.000000 0.000000
# 5 0.000000 0.000000 0.000000 0.000000 0.145605 0.000000
# 6 0.000000 0.000000 0.000000 0.000000 0.000000 0.033680
#
#
# Mechanical properties :
#
#
# Convention : Reuss Voigt Hill
#
# Bulk Modulus (GPa) = 68.55126 69.76454 69.15790
# Shear Modulus (GPa) = 16.35863 23.10933 19.73398
#
# Velocity S-wave (km/s) = 3.15719 3.75250 3.46764
# Velocity P-wave (km/s) = 7.42031 7.82846 7.62712
#
# Compressibility (1/GPa) = 0.01458762
#
# Stress axis : x y z
#
# Youngs Moduli (GPa) = 45.49578 74.93695 81.74553
#
# Poissons Ratio (x) = 0.69570 0.50659
# Poissons Ratio (y) = 0.42238 0.08207
# Poissons Ratio (z) = 0.28195 0.07524
#
# Static dielectric constant tensor:
#      x y z
#    x 1.543770 0.000000 0.000000 
#    y 0.000000 1.585900 0.000000 
#    z 0.000000 0.000000 1.531660 
# 
# From -- ./inp_files/19489.got.cif
#   From: 2010.05.17/outbox.cif.g08.bks.cpg/sg69_10_cif.got.tgz:19489.got - 2010.06.03 19:29:58.
