data_PCOD9512480
_publ_section_title
;
Structure prediction by ZEFSAII (Michael W. Deem and Ramdas Pophale) SiO2 
 PCOD9512480
Probable space group: F M M M
;
_chemical_formula_sum "Si O2"
_cell_formula_units_Z 144
_cell_length_a 24.732134
_cell_length_b 14.747362
_cell_length_c 18.184086
_cell_angle_alpha 90.000000
_cell_angle_beta 90.000000
_cell_angle_gamma 90.000000
_cell_volume 6632.349570
_symmetry_space_group_name_H-M "F M M M"
_symmetry_group_IT_number 69
_symmetry_cell_setting 'orthorhombic'
loop_
_space_group_symop_operation_xyz
x,y,z
-x,-y,z
x,-y,-z
-x,y,-z
-x,-y,-z
x,y,-z
-x,y,z
x,-y,z
x,1/2+y,1/2+z
-x,1/2-y,1/2+z
x,1/2-y,1/2-z
-x,1/2+y,1/2-z
-x,1/2-y,1/2-z
x,1/2+y,1/2-z
-x,1/2+y,1/2+z
x,1/2-y,1/2+z
1/2+x,y,1/2+z
1/2-x,-y,1/2+z
1/2+x,-y,1/2-z
1/2-x,y,1/2-z
1/2-x,-y,1/2-z
1/2+x,y,1/2-z
1/2-x,y,1/2+z
1/2+x,-y,1/2+z
1/2+x,1/2+y,z
1/2-x,1/2-y,z
1/2+x,1/2-y,-z
1/2-x,1/2+y,-z
1/2-x,1/2-y,-z
1/2+x,1/2+y,-z
1/2-x,1/2+y,z
1/2+x,1/2-y,z
loop_
_atom_site_type_symbol
_atom_site_label
_atom_site_fract_x
_atom_site_fract_y
_atom_site_fract_z
Si Si1 0.879743 0.608650 0.084975
Si Si2 0.434728 0.110031 0.500000
Si Si3 0.810385 0.611395 0.774864
Si Si4 0.000000 0.330111 0.912147
Si Si5 0.000000 0.330515 0.307575
Si Si6 0.110101 0.604169 0.347884
O O1 0.874608 0.500000 0.081613
O O2 0.836736 0.640559 0.146945
O O3 0.941890 0.628102 0.109893
O O4 0.872386 0.641851 0.000000
O O5 0.500000 0.121828 0.500000
O O6 0.402924 0.144166 0.572045
O O7 0.430255 0.000000 0.500000
O O8 0.812534 0.500000 0.776518
O O9 0.750000 0.635968 0.750000
O O10 0.847600 0.645755 0.707871
O O11 0.000000 0.229745 0.880877
O O12 0.000000 0.334131 0.000000
O O13 0.000000 0.250000 0.250000
O O14 0.947126 0.390642 0.306496
O O15 0.126261 0.500000 0.359703
#
# Coordination Sequence:
#
# PCOD9512480 Si02
#       6
#    32  16  32  16  16  32
#     4   9  17  33  56  78 105 144 183 216 264 330
#     4   9  16  30  52  78 104 135 177 214 258 323
#     4   9  18  33  52  79 109 136 175 229 274 306
#     4  10  21  33  51  79 110 136 167 222 275 314
#     4  12  23  32  50  81 112 137 177 217 271 326
#     4  10  20  35  56  77 109 148 179 217 267 326
#
# _framework density 21.711763000000001
#
# number of rings (size 3 to 8) (size 9 to 14) (size 15 to 20)
#    0.000    2.333    1.111    2.000    1.556    1.333 
#    2.000    4.444    0.000    6.000    0.000    3.111 
#    0.000    0.000    0.000    0.000    0.000    0.000 
#
# Total GULP energy -200635.710484 kJ/mol
# GULP energy per Si atom -5573.214180 kJ/mol
# Density = 2.166235 g / cm^3
# Si number density = 21.711763 Si / 1000 Ang^3
#
#
#
# Elastic Constant Matrix: (Units=GPa)
#
#
# Indices 1 2 3 4 5 6 
#
# 1 177.2781 -5.2152 104.0637 0.0000 0.0000 0.0000
# 2 -5.2152 36.5367 18.3135 0.0000 0.0000 0.0000
# 3 104.0637 18.3135 172.0774 0.0000 0.0000 0.0000
# 4 0.0000 0.0000 0.0000 21.5409 0.0000 0.0000
# 5 0.0000 0.0000 0.0000 0.0000 32.9389 0.0000
# 6 0.0000 0.0000 0.0000 0.0000 0.0000 -42.4645
#
#
#
# Elastic Compliance Matrix: (Units=1/GPa)
#
#
# Indices 1 2 3 4 5 6 
#
# 1 0.009374 0.004415 -0.006139 0.000000 0.000000 0.000000
# 2 0.004415 0.030992 -0.005968 0.000000 0.000000 0.000000
# 3 -0.006139 -0.005968 0.010159 0.000000 0.000000 0.000000
# 4 0.000000 0.000000 0.000000 0.046423 0.000000 0.000000
# 5 0.000000 0.000000 0.000000 0.000000 0.030359 0.000000
# 6 0.000000 0.000000 0.000000 0.000000 0.000000 -0.023549
#
#
# Mechanical properties :
#
#
# Convention : Reuss Voigt Hill
#
# Bulk Modulus (GPa) = 28.45708 68.91291 48.68500
# Shear Modulus (GPa) = 38.20975 20.31842 29.26408
#
# Velocity S-wave (km/s) = 4.19962 3.06245 3.67528
# Velocity P-wave (km/s) = 6.05401 6.65684 6.36257
#
# Compressibility (1/GPa) = 0.03514064
#
# Stress axis : x y z
#
# Youngs Moduli (GPa) = 106.67309 32.26681 98.43349
#
# Poissons Ratio (x) = -0.14247 0.60429
# Poissons Ratio (y) = -0.47099 0.58749
# Poissons Ratio (z) = 0.65487 0.19258
#
# Static dielectric constant tensor:
#      x y z
#    x 1.790390 0.000000 0.000000 
#    y 0.000000 1.797730 0.000000 
#    z 0.000000 0.000000 2.075030 
# 
# From -- ./inp_files/25643.got.cif
#   From: 2010.05.17/outbox.cif.g08.bks.cpg/sg69_13_cif.got.tgz:25643.got - 2010.06.03 19:29:58.
