data_PCOD9512102
_publ_section_title
;
Structure prediction by ZEFSAII (Michael W. Deem and Ramdas Pophale) SiO2 
 PCOD9512102
Probable space group: F M M M
;
_chemical_formula_sum "Si O2"
_cell_formula_units_Z 160
_cell_length_a 33.048771
_cell_length_b 9.324033
_cell_length_c 31.442797
_cell_angle_alpha 90.000000
_cell_angle_beta 90.000000
_cell_angle_gamma 90.000000
_cell_volume 9689.029709
_symmetry_space_group_name_H-M "F M M M"
_symmetry_group_IT_number 69
_symmetry_cell_setting 'orthorhombic'
loop_
_space_group_symop_operation_xyz
x,y,z
-x,-y,z
x,-y,-z
-x,y,-z
-x,-y,-z
x,y,-z
-x,y,z
x,-y,z
x,1/2+y,1/2+z
-x,1/2-y,1/2+z
x,1/2-y,1/2-z
-x,1/2+y,1/2-z
-x,1/2-y,1/2-z
x,1/2+y,1/2-z
-x,1/2+y,1/2+z
x,1/2-y,1/2+z
1/2+x,y,1/2+z
1/2-x,-y,1/2+z
1/2+x,-y,1/2-z
1/2-x,y,1/2-z
1/2-x,-y,1/2-z
1/2+x,y,1/2-z
1/2-x,y,1/2+z
1/2+x,-y,1/2+z
1/2+x,1/2+y,z
1/2-x,1/2-y,z
1/2+x,1/2-y,-z
1/2-x,1/2+y,-z
1/2-x,1/2-y,-z
1/2+x,1/2+y,-z
1/2-x,1/2+y,z
1/2+x,1/2-y,z
loop_
_atom_site_type_symbol
_atom_site_label
_atom_site_fract_x
_atom_site_fract_y
_atom_site_fract_z
Si Si1 0.452923 0.171417 0.706122
Si Si2 0.878917 0.673228 0.649630
Si Si3 0.307576 0.842339 0.289613
Si Si4 0.325230 0.832972 0.082311
Si Si5 0.250000 0.750000 0.860824
Si Si6 0.294052 0.826246 0.500000
O O1 0.500000 0.205323 0.697423
O O2 0.441385 0.250000 0.750000
O O3 0.423501 0.207348 0.666872
O O4 0.449400 0.000000 0.712723
O O5 0.875451 0.500000 0.641929
O O6 0.848948 0.709227 0.688819
O O7 0.861038 0.762542 0.610337
O O8 0.294637 0.750000 0.250000
O O9 0.275760 0.845011 0.328112
O O10 0.314492 0.000000 0.272737
O O11 0.283619 0.824907 0.109980
O O12 0.316879 0.734148 0.041456
O O13 0.332791 0.000000 0.071899
O O14 0.250000 0.750000 0.500000
O O15 0.290512 0.000000 0.500000
#
# Coordination Sequence:
#
# PCOD9512102 Si02
#       6
#    32  32  32  32  16  16
#     4   9  17  30  50  76 106 141 179 219 262 309
#     4   9  19  34  49  69 101 134 169 212 260 308
#     4  10  20  31  43  61  87 125 166 207 249 289
#     4  11  22  36  55  76  99 130 169 209 255 308
#     4  10  21  33  48  64  94 124 166 207 249 294
#     4  12  24  38  58  80 105 132 165 208 258 309
#
# _framework density 16.513521000000001
#
# number of rings (size 3 to 8) (size 9 to 14) (size 15 to 20)
#    0.000    2.000    1.000    3.000    0.000    7.200 
#    0.000    0.000    0.000    0.000    0.000    0.700 
#    0.000    5.600    0.000    0.000    0.000    0.000 
#
# Total GULP energy -222957.330037 kJ/mol
# GULP energy per Si atom -5573.933251 kJ/mol
# Density = 1.647594 g / cm^3
# Si number density = 16.513521 Si / 1000 Ang^3
#
#
#
# Elastic Constant Matrix: (Units=GPa)
#
#
# Indices 1 2 3 4 5 6 
#
# 1 86.3627 34.9767 46.0945 -0.0001 0.0000 0.0008
# 2 34.9767 88.2102 59.2093 -0.0001 0.0000 0.0006
# 3 46.0945 59.2093 107.2598 0.0000 0.0000 0.0001
# 4 -0.0001 -0.0001 0.0000 19.8717 0.0000 0.0002
# 5 0.0000 0.0000 0.0000 0.0000 23.8694 -0.0001
# 6 0.0008 0.0006 0.0001 0.0002 -0.0001 41.6516
#
#
#
# Elastic Compliance Matrix: (Units=1/GPa)
#
#
# Indices 1 2 3 4 5 6 
#
# 1 0.015404 -0.002644 -0.005160 0.000000 0.000000 0.000000
# 2 -0.002644 0.018464 -0.009056 0.000000 0.000000 0.000000
# 3 -0.005160 -0.009056 0.016540 0.000000 0.000000 0.000000
# 4 0.000000 0.000000 0.000000 0.050323 0.000000 0.000000
# 5 0.000000 0.000000 0.000000 0.000000 0.041895 0.000000
# 6 0.000000 0.000000 0.000000 0.000000 0.000000 0.024009
#
#
# Mechanical properties :
#
#
# Convention : Reuss Voigt Hill
#
# Bulk Modulus (GPa) = 59.92758 62.48818 61.20788
# Shear Modulus (GPa) = 24.28165 26.51534 25.39850
#
# Velocity S-wave (km/s) = 3.83875 4.01143 3.92604
# Velocity P-wave (km/s) = 7.48444 7.70573 7.59589
#
# Compressibility (1/GPa) = 0.01668681
#
# Stress axis : x y z
#
# Youngs Moduli (GPa) = 64.91746 54.16050 60.46054
#
# Poissons Ratio (x) = 0.14322 0.31199
# Poissons Ratio (y) = 0.17166 0.54752
# Poissons Ratio (z) = 0.33499 0.49047
#
# Static dielectric constant tensor:
#      x y z
#    x 1.578340 0.000000 0.000000 
#    y 0.000000 1.571410 0.000000 
#    z 0.000000 0.000000 1.503680 
# 
# From -- ./inp_files/47514.got.cif
#   From: 2010.05.17/outbox.cif.g08.bks.cpg/sg69_24_cif.got.tgz:47514.got - 2010.06.03 19:29:58.
