data_PCOD9512936
_publ_section_title
;
Structure prediction by ZEFSAII (Michael W. Deem and Ramdas Pophale) SiO2 
 PCOD9512936
Probable space group: F M M M
;
_chemical_formula_sum "Si O2"
_cell_formula_units_Z 88
_cell_length_a 9.506197
_cell_length_b 29.122158
_cell_length_c 17.516856
_cell_angle_alpha 90.000000
_cell_angle_beta 90.000000
_cell_angle_gamma 90.000000
_cell_volume 4849.383424
_symmetry_space_group_name_H-M "F M M M"
_symmetry_group_IT_number 69
_symmetry_cell_setting 'orthorhombic'
loop_
_space_group_symop_operation_xyz
x,y,z
-x,-y,z
x,-y,-z
-x,y,-z
-x,-y,-z
x,y,-z
-x,y,z
x,-y,z
x,1/2+y,1/2+z
-x,1/2-y,1/2+z
x,1/2-y,1/2-z
-x,1/2+y,1/2-z
-x,1/2-y,1/2-z
x,1/2+y,1/2-z
-x,1/2+y,1/2+z
x,1/2-y,1/2+z
1/2+x,y,1/2+z
1/2-x,-y,1/2+z
1/2+x,-y,1/2-z
1/2-x,y,1/2-z
1/2-x,-y,1/2-z
1/2+x,y,1/2-z
1/2-x,y,1/2+z
1/2+x,-y,1/2+z
1/2+x,1/2+y,z
1/2-x,1/2-y,z
1/2+x,1/2-y,-z
1/2-x,1/2+y,-z
1/2-x,1/2-y,-z
1/2+x,1/2+y,-z
1/2-x,1/2+y,z
1/2+x,1/2-y,z
loop_
_atom_site_type_symbol
_atom_site_label
_atom_site_fract_x
_atom_site_fract_y
_atom_site_fract_z
Si Si1 0.750000 0.750000 0.635201
Si Si2 0.500000 0.189858 0.205748
Si Si3 0.500000 0.888065 0.082478
Si Si4 0.289575 0.445752 0.500000
Si Si5 0.500000 0.603784 0.000000
Si Si6 0.500000 0.687341 0.888029
O O1 0.639311 0.718429 0.681944
O O2 0.641599 0.783980 0.592249
O O3 0.500000 0.144347 0.154279
O O4 0.500000 0.182174 0.296049
O O5 0.632525 0.921649 0.071876
O O6 0.500000 0.860638 0.000000
O O7 0.308152 0.500000 0.500000
O O8 0.132841 0.428864 0.500000
O O9 0.500000 0.638732 0.071140
#
# Coordination Sequence:
#
# PCOD9512936 Si02
#       6
#    16  16  16  16   8  16
#     4  10  21  35  52  73 104 149 180 203 253 294
#     4  11  18  36  54  74 106 140 177 212 248 294
#     4   8  19  35  58  79  97 126 182 205 251 310
#     4   9  19  37  59  76 102 134 161 207 269 327
#     4  12  23  34  50  84 104 130 176 212 265 300
#     4  11  22  34  52  73 108 144 175 213 245 296
#
# _framework density 18.146636999999998
#
# number of rings (size 3 to 8) (size 9 to 14) (size 15 to 20)
#    1.091    0.727    0.000    7.909    0.000    0.727 
#    6.545    0.000    0.000    6.545    0.000    0.000 
#    0.000    0.000    0.000    0.000    0.000    0.000 
#
# Total GULP energy -122561.427782 kJ/mol
# GULP energy per Si atom -5570.973990 kJ/mol
# Density = 1.810533 g / cm^3
# Si number density = 18.146637 Si / 1000 Ang^3
#
#
#
# Elastic Constant Matrix: (Units=GPa)
#
#
# Indices 1 2 3 4 5 6 
#
# 1 164.7251 50.5425 24.5333 0.0000 0.0000 0.0000
# 2 50.5425 126.2252 52.1563 0.0000 0.0000 0.0000
# 3 24.5333 52.1563 85.0887 0.0000 0.0000 0.0000
# 4 0.0000 0.0000 0.0000 9.3198 0.0000 0.0000
# 5 0.0000 0.0000 0.0000 0.0000 -17.7457 0.0000
# 6 0.0000 0.0000 0.0000 0.0000 0.0000 32.7913
#
#
#
# Elastic Compliance Matrix: (Units=1/GPa)
#
#
# Indices 1 2 3 4 5 6 
#
# 1 0.006931 -0.002611 -0.000398 0.000000 0.000000 0.000000
# 2 -0.002611 0.011593 -0.006353 0.000000 0.000000 0.000000
# 3 -0.000398 -0.006353 0.015762 0.000000 0.000000 0.000000
# 4 0.000000 0.000000 0.000000 0.107298 0.000000 0.000000
# 5 0.000000 0.000000 0.000000 0.000000 -0.056352 0.000000
# 6 0.000000 0.000000 0.000000 0.000000 0.000000 0.030496
#
#
# Mechanical properties :
#
#
# Convention : Reuss Voigt Hill
#
# Bulk Modulus (GPa) = 64.26233 70.05590 67.15912
# Shear Modulus (GPa) = 35.80656 21.46021 28.63339
#
# Velocity S-wave (km/s) = 4.44687 3.44263 3.97658
# Velocity P-wave (km/s) = 7.86485 7.38183 7.62717
#
# Compressibility (1/GPa) = 0.01556122
#
# Stress axis : x y z
#
# Youngs Moduli (GPa) = 144.27755 86.25937 63.44557
#
# Poissons Ratio (x) = 0.22521 0.02526
# Poissons Ratio (y) = 0.37668 0.40309
# Poissons Ratio (z) = 0.05743 0.54803
#
# Static dielectric constant tensor:
#      x y z
#    x 1.590410 0.000000 0.000000 
#    y 0.000000 1.592750 0.000000 
#    z 0.000000 0.000000 1.638210 
# 
# From -- ./inp_files/20335.got.cif
#   From: 2010.05.17/outbox.cif.g08.bks.cpg/sg69_11_cif.got.tgz:20335.got - 2010.06.03 19:29:58.
