data_PCOD9512992
_publ_section_title
;
Structure prediction by ZEFSAII (Michael W. Deem and Ramdas Pophale) SiO2 
 PCOD9512992
Probable space group: F M M M
;
_chemical_formula_sum "Si O2"
_cell_formula_units_Z 116
_cell_length_a 28.819653
_cell_length_b 8.733976
_cell_length_c 24.939198
_cell_angle_alpha 90.000000
_cell_angle_beta 90.000000
_cell_angle_gamma 90.000000
_cell_volume 6277.449460
_symmetry_space_group_name_H-M "F M M M"
_symmetry_group_IT_number 69
_symmetry_cell_setting 'orthorhombic'
loop_
_space_group_symop_operation_xyz
x,y,z
-x,-y,z
x,-y,-z
-x,y,-z
-x,-y,-z
x,y,-z
-x,y,z
x,-y,z
x,1/2+y,1/2+z
-x,1/2-y,1/2+z
x,1/2-y,1/2-z
-x,1/2+y,1/2-z
-x,1/2-y,1/2-z
x,1/2+y,1/2-z
-x,1/2+y,1/2+z
x,1/2-y,1/2+z
1/2+x,y,1/2+z
1/2-x,-y,1/2+z
1/2+x,-y,1/2-z
1/2-x,y,1/2-z
1/2-x,-y,1/2-z
1/2+x,y,1/2-z
1/2-x,y,1/2+z
1/2+x,-y,1/2+z
1/2+x,1/2+y,z
1/2-x,1/2-y,z
1/2+x,1/2-y,-z
1/2-x,1/2+y,-z
1/2-x,1/2-y,-z
1/2+x,1/2+y,-z
1/2-x,1/2+y,z
1/2+x,1/2-y,z
loop_
_atom_site_type_symbol
_atom_site_label
_atom_site_fract_x
_atom_site_fract_y
_atom_site_fract_z
Si Si1 0.301685 0.816740 0.307284
Si Si2 0.000000 0.500000 0.500000
Si Si3 0.902107 0.330434 0.500000
Si Si4 0.055414 0.176729 0.192562
Si Si5 0.124181 0.319288 0.112042
O O1 0.319002 0.750000 0.250000
O O2 0.250000 0.750000 0.314387
O O3 0.334132 0.762013 0.355711
O O4 0.300256 0.000000 0.304080
O O5 0.957647 0.368374 0.500000
O O6 0.880141 0.500000 0.500000
O O7 0.885549 0.243811 0.552966
O O8 0.066037 0.250000 0.250000
O O9 0.079182 0.275304 0.146946
O O10 0.000000 0.176398 0.186062
O O11 0.071578 0.000000 0.189865
O O12 0.132029 0.500000 0.111446
#
# Coordination Sequence:
#
# PCOD9512992 Si02
#       5
#    32   4  16  32  32
#     4  11  22  40  65  95 128 165 205 254 310 371
#     4   8  24  44  70  84 124 156 218 260 308 362
#     4  10  23  43  64  88 116 161 205 256 306 359
#     4  10  21  36  55  81 115 153 195 245 304 365
#     4  12  24  39  60  88 122 159 204 253 305 369
#
# _framework density 18.478843000000001
#
# number of rings (size 3 to 8) (size 9 to 14) (size 15 to 20)
#    0.414    0.828    0.000    7.862    1.931    1.655 
#    0.000    1.379    0.000    0.000    0.000    0.000 
#    0.000    0.000    0.000    0.000    0.000    0.000 
#
# Total GULP energy -161760.633234 kJ/mol
# GULP energy per Si atom -5577.952870 kJ/mol
# Density = 1.843678 g / cm^3
# Si number density = 18.478843 Si / 1000 Ang^3
#
#
#
# Elastic Constant Matrix: (Units=GPa)
#
#
# Indices 1 2 3 4 5 6 
#
# 1 86.2686 50.1045 64.8391 0.0000 0.0000 0.0000
# 2 50.1045 188.7530 73.0900 0.0000 0.0000 0.0000
# 3 64.8391 73.0900 170.5161 0.0000 0.0000 0.0000
# 4 0.0000 0.0000 0.0000 31.3917 0.0000 0.0000
# 5 0.0000 0.0000 0.0000 0.0000 0.2797 0.0000
# 6 0.0000 0.0000 0.0000 0.0000 0.0000 26.2127
#
#
#
# Elastic Compliance Matrix: (Units=1/GPa)
#
#
# Indices 1 2 3 4 5 6 
#
# 1 0.017108 -0.002425 -0.005466 0.000000 0.000000 0.000000
# 2 -0.002425 0.006696 -0.001948 0.000000 0.000000 0.000000
# 3 -0.005466 -0.001948 0.008778 0.000000 0.000000 0.000000
# 4 0.000000 0.000000 0.000000 0.031856 0.000000 0.000000
# 5 0.000000 0.000000 0.000000 0.000000 3.575653 0.000001
# 6 0.000000 0.000000 0.000000 0.000000 0.000001 0.038149
#
#
# Mechanical properties :
#
#
# Convention : Reuss Voigt Hill
#
# Bulk Modulus (GPa) = 77.49342 91.28942 84.39142
# Shear Modulus (GPa) = 1.35054 28.74375 15.04715
#
# Velocity S-wave (km/s) = 0.85583 3.94826 2.85667
# Velocity P-wave (km/s) = 6.55774 8.38417 7.52656
#
# Compressibility (1/GPa) = 0.01290432
#
# Stress axis : x y z
#
# Youngs Moduli (GPa) = 58.45112 149.34395 113.91998
#
# Poissons Ratio (x) = 0.36213 0.62270
# Poissons Ratio (y) = 0.14173 0.22193
# Poissons Ratio (z) = 0.31950 0.29094
#
# Static dielectric constant tensor:
#      x y z
#    x 1.651540 0.000000 0.000000 
#    y 0.000000 1.626100 0.000000 
#    z 0.000000 0.000000 1.633080 
# 
# From -- ./inp_files/38738.got.cif
#   From: 2010.05.17/outbox.cif.g08.bks.cpg/sg69_20_cif.got.tgz:38738.got - 2010.06.03 19:29:58.
