data_PCOD9512758
_publ_section_title
;
Structure prediction by ZEFSAII (Michael W. Deem and Ramdas Pophale) SiO2 
 PCOD9512758
Probable space group: F M M M
;
_chemical_formula_sum "Si O2"
_cell_formula_units_Z 136
_cell_length_a 14.651416
_cell_length_b 19.006118
_cell_length_c 24.907757
_cell_angle_alpha 90.000000
_cell_angle_beta 90.000000
_cell_angle_gamma 90.000000
_cell_volume 6935.976945
_symmetry_space_group_name_H-M "F M M M"
_symmetry_group_IT_number 69
_symmetry_cell_setting 'orthorhombic'
loop_
_space_group_symop_operation_xyz
x,y,z
-x,-y,z
x,-y,-z
-x,y,-z
-x,-y,-z
x,y,-z
-x,y,z
x,-y,z
x,1/2+y,1/2+z
-x,1/2-y,1/2+z
x,1/2-y,1/2-z
-x,1/2+y,1/2-z
-x,1/2-y,1/2-z
x,1/2+y,1/2-z
-x,1/2+y,1/2+z
x,1/2-y,1/2+z
1/2+x,y,1/2+z
1/2-x,-y,1/2+z
1/2+x,-y,1/2-z
1/2-x,y,1/2-z
1/2-x,-y,1/2-z
1/2+x,y,1/2-z
1/2-x,y,1/2+z
1/2+x,-y,1/2+z
1/2+x,1/2+y,z
1/2-x,1/2-y,z
1/2+x,1/2-y,-z
1/2-x,1/2+y,-z
1/2-x,1/2-y,-z
1/2+x,1/2+y,-z
1/2-x,1/2+y,z
1/2+x,1/2-y,z
loop_
_atom_site_type_symbol
_atom_site_label
_atom_site_fract_x
_atom_site_fract_y
_atom_site_fract_z
Si Si1 0.853232 0.773134 0.919405
Si Si2 0.607490 0.786005 0.806040
Si Si3 0.727295 0.422971 0.312772
Si Si4 0.394394 0.078735 0.394742
Si Si5 0.500000 0.780529 0.000000
O O1 0.750000 0.750000 0.928432
O O2 0.875854 0.764918 0.856295
O O3 0.872762 0.854950 0.932426
O O4 0.920770 0.725592 0.953408
O O5 0.500000 0.801044 0.800692
O O6 0.637738 0.750000 0.750000
O O7 0.662114 0.856642 0.820612
O O8 0.686224 0.500000 0.326178
O O9 0.750000 0.422997 0.250000
O O10 0.820085 0.417450 0.347124
O O11 0.500000 0.085643 0.376451
O O12 0.385856 0.000000 0.418626
#
# Coordination Sequence:
#
# PCOD9512758 Si02
#       5
#    32  32  32  32   8
#     4  12  23  41  65  92 124 164 208 263 315 373
#     4  11  23  38  62  94 128 167 208 257 313 380
#     4  10  21  35  56  89 126 167 208 253 310 379
#     4  10  20  37  61  89 123 162 204 258 315 372
#     4  12  26  44  63  94 125 158 218 268 318 370
#
# _framework density 19.60791
#
# number of rings (size 3 to 8) (size 9 to 14) (size 15 to 20)
#    0.000    1.176    4.706    1.765    0.000    3.294 
#    0.000    3.529    0.000    0.706    0.000    4.118 
#    0.000    0.000    0.000    0.000    0.000    0.000 
#
# Total GULP energy -189301.261565 kJ/mol
# GULP energy per Si atom -5567.684164 kJ/mol
# Density = 1.956328 g / cm^3
# Si number density = 19.607910 Si / 1000 Ang^3
#
#
#
# Elastic Constant Matrix: (Units=GPa)
#
#
# Indices 1 2 3 4 5 6 
#
# 1 146.1779 41.2374 12.6136 0.0000 0.0000 0.0000
# 2 41.2374 132.6631 -0.0140 0.0000 0.0000 0.0000
# 3 12.6136 -0.0140 72.5021 0.0000 0.0000 0.0000
# 4 0.0000 0.0000 0.0000 -19.3879 0.0000 0.0000
# 5 0.0000 0.0000 0.0000 0.0000 71.2804 0.0000
# 6 0.0000 0.0000 0.0000 0.0000 0.0000 26.8527
#
#
#
# Elastic Compliance Matrix: (Units=1/GPa)
#
#
# Indices 1 2 3 4 5 6 
#
# 1 0.007624 -0.002370 -0.001327 0.000000 0.000000 0.000000
# 2 -0.002370 0.008275 0.000414 0.000000 0.000000 0.000000
# 3 -0.001327 0.000414 0.014024 0.000000 0.000000 0.000000
# 4 0.000000 0.000000 0.000000 -0.051579 0.000000 0.000000
# 5 0.000000 0.000000 0.000000 0.000000 0.014029 0.000000
# 6 0.000000 0.000000 0.000000 0.000000 0.000000 0.037240
#
#
# Mechanical properties :
#
#
# Convention : Reuss Voigt Hill
#
# Bulk Modulus (GPa) = 42.81477 51.00188 46.90832
# Shear Modulus (GPa) = 113.72831 35.58279 74.65555
#
# Velocity S-wave (km/s) = 7.62412 4.26457 6.17712
# Velocity P-wave (km/s) = 9.96924 7.09338 8.65164
#
# Compressibility (1/GPa) = 0.02335643
#
# Stress axis : x y z
#
# Youngs Moduli (GPa) = 131.16355 120.85116 71.30819
#
# Poissons Ratio (x) = 0.28642 0.09462
# Poissons Ratio (y) = 0.31086 -0.02952
# Poissons Ratio (z) = 0.17404 -0.05002
#
# Static dielectric constant tensor:
#      x y z
#    x 1.668820 0.000000 0.000000 
#    y 0.000000 1.772680 0.000000 
#    z 0.000000 0.000000 1.704900 
# 
# From -- ./inp_files/16542.got.cif
#   From: 2010.05.17/outbox.cif.g08.bks.cpg/sg69_9_cif.got.tgz:16542.got - 2010.06.03 19:29:58.
