data_PCOD9512971
_publ_section_title
;
Structure prediction by ZEFSAII (Michael W. Deem and Ramdas Pophale) SiO2 
 PCOD9512971
Probable space group: F M M M
;
_chemical_formula_sum "Si O2"
_cell_formula_units_Z 160
_cell_length_a 18.325330
_cell_length_b 23.591317
_cell_length_c 22.374210
_cell_angle_alpha 90.000000
_cell_angle_beta 90.000000
_cell_angle_gamma 90.000000
_cell_volume 9672.788691
_symmetry_space_group_name_H-M "F M M M"
_symmetry_group_IT_number 69
_symmetry_cell_setting 'orthorhombic'
loop_
_space_group_symop_operation_xyz
x,y,z
-x,-y,z
x,-y,-z
-x,y,-z
-x,-y,-z
x,y,-z
-x,y,z
x,-y,z
x,1/2+y,1/2+z
-x,1/2-y,1/2+z
x,1/2-y,1/2-z
-x,1/2+y,1/2-z
-x,1/2-y,1/2-z
x,1/2+y,1/2-z
-x,1/2+y,1/2+z
x,1/2-y,1/2+z
1/2+x,y,1/2+z
1/2-x,-y,1/2+z
1/2+x,-y,1/2-z
1/2-x,y,1/2-z
1/2-x,-y,1/2-z
1/2+x,y,1/2-z
1/2-x,y,1/2+z
1/2+x,-y,1/2+z
1/2+x,1/2+y,z
1/2-x,1/2-y,z
1/2+x,1/2-y,-z
1/2-x,1/2+y,-z
1/2-x,1/2-y,-z
1/2+x,1/2+y,-z
1/2-x,1/2+y,z
1/2+x,1/2-y,z
loop_
_atom_site_type_symbol
_atom_site_label
_atom_site_fract_x
_atom_site_fract_y
_atom_site_fract_z
Si Si1 0.152747 0.625782 0.127309
Si Si2 0.414769 0.874956 0.000000
Si Si3 0.334443 0.256817 0.116979
Si Si4 0.584696 0.932387 0.757422
Si Si5 0.582825 0.737155 0.000000
Si Si6 0.798606 0.139051 0.190940
O O1 0.138810 0.693778 0.133483
O O2 0.108873 0.592876 0.178454
O O3 0.239166 0.618943 0.141626
O O4 0.126443 0.608409 0.061172
O O5 0.500000 0.893024 0.000000
O O6 0.414813 0.806066 0.000000
O O7 0.250000 0.250000 0.098363
O O8 0.333775 0.302115 0.169790
O O9 0.377764 0.280361 0.060535
O O10 0.500000 0.918684 0.745963
O O11 0.639270 0.905068 0.709102
O O12 0.593104 0.000000 0.758361
O O13 0.500000 0.718369 0.000000
O O14 0.750000 0.149223 0.250000
#
# Coordination Sequence:
#
# PCOD9512971 Si02
#       6
#    32  16  32  32  16  32
#     4   9  18  31  51  74  99 130 159 192 234 288
#     4   9  16  29  48  73 104 131 156 189 237 286
#     4   9  17  30  48  71 101 130 156 189 236 283
#     4  10  21  36  51  68  93 126 163 203 246 285
#     4   9  17  27  43  70 101 132 161 189 223 277
#     4   9  19  32  49  72  97 127 164 200 235 281
#
# _framework density 16.541248
#
# number of rings (size 3 to 8) (size 9 to 14) (size 15 to 20)
#    0.000    2.800    0.000    0.900    0.000   16.800 
#    0.000    1.500    0.000    1.800    0.000    2.100 
#    0.000    7.200    0.000    0.000    0.000    0.000 
#
# Total GULP energy -222821.425086 kJ/mol
# GULP energy per Si atom -5570.535627 kJ/mol
# Density = 1.650360 g / cm^3
# Si number density = 16.541248 Si / 1000 Ang^3
#
#
#
# Elastic Constant Matrix: (Units=GPa)
#
#
# Indices 1 2 3 4 5 6 
#
# 1 88.9024 60.3195 72.0708 0.0000 0.0000 0.0000
# 2 60.3195 57.7802 38.3711 0.0000 0.0000 0.0000
# 3 72.0708 38.3711 90.2262 0.0000 0.0000 0.0000
# 4 0.0000 0.0000 0.0000 -1.9706 0.0000 0.0000
# 5 0.0000 0.0000 0.0000 0.0000 18.9007 0.0000
# 6 0.0000 0.0000 0.0000 0.0000 0.0000 20.9363
#
#
#
# Elastic Compliance Matrix: (Units=1/GPa)
#
#
# Indices 1 2 3 4 5 6 
#
# 1 0.098982 -0.070830 -0.048943 0.000000 0.000000 0.000000
# 2 -0.070830 0.074803 0.024765 0.000000 0.000000 0.000000
# 3 -0.048943 0.024765 0.039645 0.000000 0.000000 0.000000
# 4 0.000000 0.000000 0.000000 -0.507450 0.000000 0.000000
# 5 0.000000 0.000000 0.000000 0.000000 0.052908 0.000000
# 6 0.000000 0.000000 0.000000 0.000000 0.000000 0.047764
#
#
# Mechanical properties :
#
#
# Convention : Reuss Voigt Hill
#
# Bulk Modulus (GPa) = 42.70477 64.27019 53.48748
# Shear Modulus (GPa) = 1117.85036 11.98309 564.91672
#
# Velocity S-wave (km/s) = 26.02427 2.69446 18.50031
# Velocity P-wave (km/s) = 30.47770 6.97273 22.10779
#
# Compressibility (1/GPa) = 0.02341659
#
# Stress axis : x y z
#
# Youngs Moduli (GPa) = 10.10283 13.36839 25.22363
#
# Poissons Ratio (x) = 0.94688 1.23451
# Poissons Ratio (y) = 0.71558 -0.62467
# Poissons Ratio (z) = 0.49446 -0.33107
#
# Static dielectric constant tensor:
#      x y z
#    x 1.565520 0.000000 0.000000 
#    y 0.000000 1.546260 0.000000 
#    z 0.000000 0.000000 1.558920 
# 
# From -- ./inp_files/25818.got.cif
#   From: 2010.05.17/outbox.cif.g08.bks.cpg/sg69_13_cif.got.tgz:25818.got - 2010.06.03 19:29:58.
