data_PCOD9512247
_publ_section_title
;
Structure prediction by ZEFSAII (Michael W. Deem and Ramdas Pophale) SiO2 
 PCOD9512247
Probable space group: F M M M
;
_chemical_formula_sum "Si O2"
_cell_formula_units_Z 176
_cell_length_a 17.315259
_cell_length_b 21.323827
_cell_length_c 25.694079
_cell_angle_alpha 90.000000
_cell_angle_beta 90.000000
_cell_angle_gamma 90.000000
_cell_volume 9486.962799
_symmetry_space_group_name_H-M "F M M M"
_symmetry_group_IT_number 69
_symmetry_cell_setting 'orthorhombic'
loop_
_space_group_symop_operation_xyz
x,y,z
-x,-y,z
x,-y,-z
-x,y,-z
-x,-y,-z
x,y,-z
-x,y,z
x,-y,z
x,1/2+y,1/2+z
-x,1/2-y,1/2+z
x,1/2-y,1/2-z
-x,1/2+y,1/2-z
-x,1/2-y,1/2-z
x,1/2+y,1/2-z
-x,1/2+y,1/2+z
x,1/2-y,1/2+z
1/2+x,y,1/2+z
1/2-x,-y,1/2+z
1/2+x,-y,1/2-z
1/2-x,y,1/2-z
1/2-x,-y,1/2-z
1/2+x,y,1/2-z
1/2-x,y,1/2+z
1/2+x,-y,1/2+z
1/2+x,1/2+y,z
1/2-x,1/2-y,z
1/2+x,1/2-y,-z
1/2-x,1/2+y,-z
1/2-x,1/2-y,-z
1/2+x,1/2+y,-z
1/2-x,1/2+y,z
1/2+x,1/2-y,z
loop_
_atom_site_type_symbol
_atom_site_label
_atom_site_fract_x
_atom_site_fract_y
_atom_site_fract_z
Si Si1 0.309478 0.569962 0.797599
Si Si2 0.409157 0.304336 0.209341
Si Si3 0.297208 0.896183 0.105633
Si Si4 0.376477 0.244072 0.000000
Si Si5 0.585497 0.713178 0.384430
Si Si6 0.233103 0.647120 0.500000
Si Si7 0.908590 0.000000 0.437571
O O1 0.346257 0.500000 0.799464
O O2 0.250000 0.570282 0.750000
O O3 0.365123 0.629680 0.789785
O O4 0.257457 0.579511 0.848992
O O5 0.500000 0.314634 0.220400
O O6 0.381977 0.250000 0.250000
O O7 0.402089 0.273099 0.152281
O O8 0.341814 0.832898 0.122493
O O9 0.246149 0.888848 0.053583
O O10 0.367001 0.941186 0.088544
O O11 0.416530 0.230033 0.945435
O O12 0.302881 0.197617 0.000000
O O13 0.345658 0.314619 0.000000
O O14 0.500000 0.686880 0.370226
O O15 0.895204 0.000000 0.500000
O O16 0.000000 0.000000 0.429345
#
# Coordination Sequence:
#
# PCOD9512247 Si02
#       7
#    32  32  32  16  32  16  16
#     4  11  24  40  61  86 119 153 195 246 295 356
#     4  10  22  41  63  87 114 150 197 245 299 359
#     4  11  20  36  55  82 117 153 203 245 292 356
#     4   9  17  30  46  78 112 142 182 236 294 349
#     4  10  20  33  54  82 113 149 190 241 295 349
#     4   9  18  29  51  76 105 146 192 236 291 342
#     4  11  22  36  55  82 121 169 206 242 300 364
#
# _framework density 18.551776
#
# number of rings (size 3 to 8) (size 9 to 14) (size 15 to 20)
#    0.000    1.727    1.818    3.000    0.000    4.364 
#    0.000    0.909    0.000    0.000    0.000    0.000 
#    0.000    8.000    0.000    0.000    0.000    0.000 
#
# Total GULP energy -245394.416134 kJ/mol
# GULP energy per Si atom -5577.145821 kJ/mol
# Density = 1.850955 g / cm^3
# Si number density = 18.551776 Si / 1000 Ang^3
#
#
#
# Elastic Constant Matrix: (Units=GPa)
#
#
# Indices 1 2 3 4 5 6 
#
# 1 51.1540 49.6737 14.9549 0.0000 0.0000 0.0000
# 2 49.6737 123.4313 43.4242 0.0000 0.0000 0.0000
# 3 14.9549 43.4242 103.2841 0.0000 0.0000 0.0000
# 4 0.0000 0.0000 0.0000 22.0983 0.0000 0.0000
# 5 0.0000 0.0000 0.0000 0.0000 21.8402 0.0000
# 6 0.0000 0.0000 0.0000 0.0000 0.0000 12.4596
#
#
#
# Elastic Compliance Matrix: (Units=1/GPa)
#
#
# Indices 1 2 3 4 5 6 
#
# 1 0.032164 -0.013268 0.000921 0.000000 0.000000 0.000000
# 2 -0.013268 0.014981 -0.004378 0.000000 0.000000 0.000000
# 3 0.000921 -0.004378 0.011389 0.000000 0.000000 0.000000
# 4 0.000000 0.000000 0.000000 0.045252 0.000000 0.000000
# 5 0.000000 0.000000 0.000000 0.000000 0.045787 0.000000
# 6 0.000000 0.000000 0.000000 0.000000 0.000000 0.080259
#
#
# Mechanical properties :
#
#
# Convention : Reuss Voigt Hill
#
# Bulk Modulus (GPa) = 39.86387 54.88611 47.37499
# Shear Modulus (GPa) = 18.40650 22.60073 20.50361
#
# Velocity S-wave (km/s) = 3.15329 3.49413 3.32808
# Velocity P-wave (km/s) = 5.89849 6.77704 6.35297
#
# Compressibility (1/GPa) = 0.02508537
#
# Stress axis : x y z
#
# Youngs Moduli (GPa) = 31.09110 66.74991 87.80318
#
# Poissons Ratio (x) = 0.88564 -0.08089
# Poissons Ratio (y) = 0.41252 0.38436
# Poissons Ratio (z) = -0.02864 0.29220
#
# Static dielectric constant tensor:
#      x y z
#    x 1.626420 0.000000 0.000000 
#    y 0.000000 1.699300 0.000000 
#    z 0.000000 0.000000 1.643300 
# 
# From -- ./inp_files/23310.got.cif
#   From: 2010.05.17/outbox.cif.g08.bks.cpg/sg69_12_cif.got.tgz:23310.got - 2010.06.03 19:29:58.
