data_PCOD9512919
_publ_section_title
;
Structure prediction by ZEFSAII (Michael W. Deem and Ramdas Pophale) SiO2 
 PCOD9512919
Probable space group: F M M M
;
_chemical_formula_sum "Si O2"
_cell_formula_units_Z 144
_cell_length_a 18.425916
_cell_length_b 22.840060
_cell_length_c 17.524891
_cell_angle_alpha 90.000000
_cell_angle_beta 90.000000
_cell_angle_gamma 90.000000
_cell_volume 7375.333326
_symmetry_space_group_name_H-M "F M M M"
_symmetry_group_IT_number 69
_symmetry_cell_setting 'orthorhombic'
loop_
_space_group_symop_operation_xyz
x,y,z
-x,-y,z
x,-y,-z
-x,y,-z
-x,-y,-z
x,y,-z
-x,y,z
x,-y,z
x,1/2+y,1/2+z
-x,1/2-y,1/2+z
x,1/2-y,1/2-z
-x,1/2+y,1/2-z
-x,1/2-y,1/2-z
x,1/2+y,1/2-z
-x,1/2+y,1/2+z
x,1/2-y,1/2+z
1/2+x,y,1/2+z
1/2-x,-y,1/2+z
1/2+x,-y,1/2-z
1/2-x,y,1/2-z
1/2-x,-y,1/2-z
1/2+x,y,1/2-z
1/2-x,y,1/2+z
1/2+x,-y,1/2+z
1/2+x,1/2+y,z
1/2-x,1/2-y,z
1/2+x,1/2-y,-z
1/2-x,1/2+y,-z
1/2-x,1/2-y,-z
1/2+x,1/2+y,-z
1/2-x,1/2+y,z
1/2+x,1/2-y,z
loop_
_atom_site_type_symbol
_atom_site_label
_atom_site_fract_x
_atom_site_fract_y
_atom_site_fract_z
Si Si1 0.380768 0.929569 0.500000
Si Si2 0.665180 0.769938 0.334115
Si Si3 0.783303 0.596041 0.000000
Si Si4 0.366296 0.500000 0.219694
Si Si5 0.667121 0.273704 0.500000
Si Si6 0.421473 0.883316 0.660210
Si Si7 0.279560 0.500000 0.374485
O O1 0.303515 0.896416 0.500000
O O2 0.420592 0.909187 0.575332
O O3 0.370605 0.000000 0.500000
O O4 0.637147 0.750000 0.250000
O O5 0.750000 0.750000 0.334711
O O6 0.635731 0.747011 0.417199
O O7 0.645418 0.838567 0.333283
O O8 0.825843 0.656245 0.000000
O O9 0.796426 0.556321 0.074152
O O10 0.410343 0.440362 0.211680
O O11 0.325719 0.500000 0.299063
O O12 0.304189 0.500000 0.153403
O O13 0.750000 0.250000 0.500000
O O14 0.500000 0.854973 0.675390
#
# Coordination Sequence:
#
# PCOD9512919 Si02
#       7
#    16  32  16  16  16  32  16
#     4  12  19  35  56  91 127 164 198 250 317 394
#     4  10  23  40  63  89 120 164 213 266 317 371
#     4  11  18  37  59  89 124 159 212 264 322 370
#     4  11  23  36  60  92 130 158 204 255 324 384
#     4  10  21  34  58  86 120 160 207 262 322 373
#     4  12  24  39  61  90 129 170 207 254 321 395
#     4  10  22  34  59  91 126 158 200 269 321 371
#
# _framework density 19.524542
#
# number of rings (size 3 to 8) (size 9 to 14) (size 15 to 20)
#    0.000    1.111    4.444    4.000    3.111    2.667 
#    0.000    0.000    0.000    0.000    0.000    6.222 
#    0.000    0.000    0.000    0.000    0.000    0.000 
#
# Total GULP energy -200656.656143 kJ/mol
# GULP energy per Si atom -5573.796004 kJ/mol
# Density = 1.948010 g / cm^3
# Si number density = 19.524542 Si / 1000 Ang^3
#
#
#
# Elastic Constant Matrix: (Units=GPa)
#
#
# Indices 1 2 3 4 5 6 
#
# 1 55.0478 25.1898 8.7300 0.0000 0.0000 0.0000
# 2 25.1898 92.2070 31.4227 0.0000 0.0000 0.0000
# 3 8.7300 31.4227 149.6944 0.0000 0.0000 0.0000
# 4 0.0000 0.0000 0.0000 4.6428 0.0000 0.0000
# 5 0.0000 0.0000 0.0000 0.0000 -4.3209 0.0000
# 6 0.0000 0.0000 0.0000 0.0000 0.0000 7.7302
#
#
#
# Elastic Compliance Matrix: (Units=1/GPa)
#
#
# Indices 1 2 3 4 5 6 
#
# 1 0.020762 -0.005664 -0.000022 0.000000 0.000000 0.000000
# 2 -0.005664 0.013226 -0.002446 0.000000 0.000000 0.000000
# 3 -0.000022 -0.002446 0.007195 0.000000 0.000000 0.000000
# 4 0.000000 0.000000 0.000000 0.215388 0.000000 0.000000
# 5 0.000000 0.000000 0.000000 0.000000 -0.231431 0.000000
# 6 0.000000 0.000000 0.000000 0.000000 0.000000 0.129362
#
#
# Mechanical properties :
#
#
# Convention : Reuss Voigt Hill
#
# Bulk Modulus (GPa) = 40.13100 47.51492 43.82296
# Shear Modulus (GPa) = 27.92176 17.05086 22.48631
#
# Velocity S-wave (km/s) = 3.78575 2.95838 3.39734
# Velocity P-wave (km/s) = 6.30142 6.00484 6.15492
#
# Compressibility (1/GPa) = 0.02491839
#
# Stress axis : x y z
#
# Youngs Moduli (GPa) = 48.16605 75.60773 138.98557
#
# Poissons Ratio (x) = 0.42827 0.00302
# Poissons Ratio (y) = 0.27283 0.33996
# Poissons Ratio (z) = 0.00105 0.18494
#
# Static dielectric constant tensor:
#      x y z
#    x 1.609510 0.000000 0.000000 
#    y 0.000000 1.716770 0.000000 
#    z 0.000000 0.000000 1.719220 
# 
# From -- ./inp_files/24545.got.cif
#   From: 2010.05.17/outbox.cif.g08.bks.cpg/sg69_13_cif.got.tgz:24545.got - 2010.06.03 19:29:58.
