data_PCOD9512253
_publ_section_title
;
Structure prediction by ZEFSAII (Michael W. Deem and Ramdas Pophale) SiO2 
 PCOD9512253
Probable space group: F M M M
;
_chemical_formula_sum "Si O2"
_cell_formula_units_Z 144
_cell_length_a 18.270330
_cell_length_b 22.937431
_cell_length_c 14.659347
_cell_angle_alpha 90.000000
_cell_angle_beta 90.000000
_cell_angle_gamma 90.000000
_cell_volume 6143.357543
_symmetry_space_group_name_H-M "F M M M"
_symmetry_group_IT_number 69
_symmetry_cell_setting 'orthorhombic'
loop_
_space_group_symop_operation_xyz
x,y,z
-x,-y,z
x,-y,-z
-x,y,-z
-x,-y,-z
x,y,-z
-x,y,z
x,-y,z
x,1/2+y,1/2+z
-x,1/2-y,1/2+z
x,1/2-y,1/2-z
-x,1/2+y,1/2-z
-x,1/2-y,1/2-z
x,1/2+y,1/2-z
-x,1/2+y,1/2+z
x,1/2-y,1/2+z
1/2+x,y,1/2+z
1/2-x,-y,1/2+z
1/2+x,-y,1/2-z
1/2-x,y,1/2-z
1/2-x,-y,1/2-z
1/2+x,y,1/2-z
1/2-x,y,1/2+z
1/2+x,-y,1/2+z
1/2+x,1/2+y,z
1/2-x,1/2-y,z
1/2+x,1/2-y,-z
1/2-x,1/2+y,-z
1/2-x,1/2-y,-z
1/2+x,1/2+y,-z
1/2-x,1/2+y,z
1/2+x,1/2-y,z
loop_
_atom_site_type_symbol
_atom_site_label
_atom_site_fract_x
_atom_site_fract_y
_atom_site_fract_z
Si Si1 0.914853 0.500000 0.611935
Si Si2 0.420938 0.258705 0.142808
Si Si3 0.851581 0.122902 0.109083
Si Si4 0.083066 0.566020 0.888350
Si Si5 0.305896 0.162138 0.892121
O O1 0.914173 0.500000 0.500000
O O2 0.875328 0.559359 0.643575
O O3 0.000000 0.500000 0.639608
O O4 0.500000 0.237727 0.105107
O O5 0.423487 0.250000 0.250000
O O6 0.410814 0.326674 0.123283
O O7 0.348538 0.223351 0.113525
O O8 0.775054 0.149961 0.145215
O O9 0.844490 0.115820 0.000000
O O10 0.103453 0.500000 0.863459
O O11 0.138263 0.614313 0.853169
O O12 0.000000 0.577492 0.858820
O O13 0.082893 0.568094 0.000000
O O14 0.299664 0.151415 0.000000
#
# Coordination Sequence:
#
# PCOD9512253 Si02
#       5
#    16  32  32  32  32
#     4   9  18  34  58  87 117 151 190 235 287 337
#     4  11  24  40  58  79 110 153 196 238 288 341
#     4  10  21  36  59  90 118 147 188 237 289 342
#     4   8  14  25  44  72 106 143 178 213 259 317
#     4  10  20  33  55  85 116 145 181 230 286 340
#
# _framework density 23.439951000000001
#
# number of rings (size 3 to 8) (size 9 to 14) (size 15 to 20)
#    0.000    2.333    0.000    3.333    1.556    7.111 
#    0.000    0.000    2.444    1.333    0.000    0.000 
#    0.000    0.000    0.000    0.000    0.000    0.000 
#
# Total GULP energy -201115.602362 kJ/mol
# GULP energy per Si atom -5586.544510 kJ/mol
# Density = 2.338660 g / cm^3
# Si number density = 23.439951 Si / 1000 Ang^3
#
#
#
# Elastic Constant Matrix: (Units=GPa)
#
#
# Indices 1 2 3 4 5 6 
#
# 1 136.6477 84.1409 6.3157 0.0000 0.0000 0.0000
# 2 84.1409 167.2396 -0.8522 0.0000 0.0000 0.0000
# 3 6.3157 -0.8522 47.8664 0.0000 0.0000 0.0000
# 4 0.0000 0.0000 0.0000 10.3037 0.0000 0.0000
# 5 0.0000 0.0000 0.0000 0.0000 192.0634 0.0000
# 6 0.0000 0.0000 0.0000 0.0000 0.0000 37.8274
#
#
#
# Elastic Compliance Matrix: (Units=1/GPa)
#
#
# Indices 1 2 3 4 5 6 
#
# 1 0.010711 -0.005396 -0.001509 0.000000 0.000000 0.000000
# 2 -0.005396 0.008699 0.000867 0.000000 0.000000 0.000000
# 3 -0.001509 0.000867 0.021106 0.000000 0.000000 0.000000
# 4 0.000000 0.000000 0.000000 0.097053 0.000000 0.000000
# 5 0.000000 0.000000 0.000000 0.000000 0.005207 0.000000
# 6 0.000000 0.000000 0.000000 0.000000 0.000000 0.026436
#
#
# Mechanical properties :
#
#
# Convention : Reuss Voigt Hill
#
# Bulk Modulus (GPa) = 35.16418 58.99583 47.08000
# Shear Modulus (GPa) = 26.20986 65.51552 45.86269
#
# Velocity S-wave (km/s) = 3.34753 5.29255 4.42815
# Velocity P-wave (km/s) = 5.47501 7.91022 6.80247
#
# Compressibility (1/GPa) = 0.02843803
#
# Stress axis : x y z
#
# Youngs Moduli (GPa) = 93.36472 114.95738 47.37974
#
# Poissons Ratio (x) = 0.62036 0.07151
# Poissons Ratio (y) = 0.50383 -0.04107
# Poissons Ratio (z) = 0.14092 -0.09966
#
# Static dielectric constant tensor:
#      x y z
#    x 1.902930 0.000000 0.000000 
#    y 0.000000 1.854860 0.000000 
#    z 0.000000 0.000000 1.920570 
# 
# From -- ./inp_files/22893.got.cif
#   From: 2010.05.17/outbox.cif.g08.bks.cpg/sg69_12_cif.got.tgz:22893.got - 2010.06.03 19:29:58.
