data_PCOD9512058
_publ_section_title
;
Structure prediction by ZEFSAII (Michael W. Deem and Ramdas Pophale) SiO2 
 PCOD9512058
Probable space group: F M M M
;
_chemical_formula_sum "Si O2"
_cell_formula_units_Z 112
_cell_length_a 18.444123
_cell_length_b 15.458863
_cell_length_c 17.666900
_cell_angle_alpha 90.000000
_cell_angle_beta 90.000000
_cell_angle_gamma 90.000000
_cell_volume 5037.277877
_symmetry_space_group_name_H-M "F M M M"
_symmetry_group_IT_number 69
_symmetry_cell_setting 'orthorhombic'
loop_
_space_group_symop_operation_xyz
x,y,z
-x,-y,z
x,-y,-z
-x,y,-z
-x,-y,-z
x,y,-z
-x,y,z
x,-y,z
x,1/2+y,1/2+z
-x,1/2-y,1/2+z
x,1/2-y,1/2-z
-x,1/2+y,1/2-z
-x,1/2-y,1/2-z
x,1/2+y,1/2-z
-x,1/2+y,1/2+z
x,1/2-y,1/2+z
1/2+x,y,1/2+z
1/2-x,-y,1/2+z
1/2+x,-y,1/2-z
1/2-x,y,1/2-z
1/2-x,-y,1/2-z
1/2+x,y,1/2-z
1/2-x,y,1/2+z
1/2+x,-y,1/2+z
1/2+x,1/2+y,z
1/2-x,1/2-y,z
1/2+x,1/2-y,-z
1/2-x,1/2+y,-z
1/2-x,1/2-y,-z
1/2+x,1/2+y,-z
1/2-x,1/2+y,z
1/2+x,1/2-y,z
loop_
_atom_site_type_symbol
_atom_site_label
_atom_site_fract_x
_atom_site_fract_y
_atom_site_fract_z
Si Si1 0.317998 0.102215 0.137137
Si Si2 0.660554 0.894962 0.412717
Si Si3 0.079647 0.649333 0.269073
Si Si4 0.917255 0.393687 0.000000
O O1 0.237476 0.136669 0.122120
O O2 0.354995 0.112674 0.218350
O O3 0.373771 0.136083 0.074008
O O4 0.311692 0.000000 0.123178
O O5 0.654547 0.867748 0.500000
O O6 0.598208 0.864231 0.356550
O O7 0.659612 0.000000 0.411637
O O8 0.077713 0.750000 0.250000
O O9 0.000000 0.611934 0.250101
O O10 0.918374 0.500000 0.000000
O O11 0.000000 0.364604 0.000000
#
# Coordination Sequence:
#
# PCOD9512058 Si02
#       4
#    32  32  32  16
#     4  10  19  36  61  90 119 149 194 248 302 358
#     4  10  21  40  66  93 121 155 199 253 307 361
#     4  11  25  42  57  83 123 164 206 250 299 356
#     4   9  16  28  52  85 117 147 182 231 293 353
#
# _framework density 22.234231999999999
#
# number of rings (size 3 to 8) (size 9 to 14) (size 15 to 20)
#    0.000    1.857    1.429    2.571    0.000    8.571 
#    2.571    2.857    0.000    0.000    0.000    0.000 
#    0.000    0.000    0.000    0.000    0.000    0.000 
#
# Total GULP energy -156474.238048 kJ/mol
# GULP energy per Si atom -5588.365645 kJ/mol
# Density = 2.218363 g / cm^3
# Si number density = 22.234232 Si / 1000 Ang^3
#
#
#
# Elastic Constant Matrix: (Units=GPa)
#
#
# Indices 1 2 3 4 5 6 
#
# 1 52.6590 6.4242 41.9534 0.0000 0.0000 0.0000
# 2 6.4242 27.0695 5.0343 0.0000 0.0000 0.0000
# 3 41.9534 5.0343 140.1526 0.0000 0.0000 0.0000
# 4 0.0000 0.0000 0.0000 8.4384 0.0000 0.0000
# 5 0.0000 0.0000 0.0000 0.0000 40.3523 0.0000
# 6 0.0000 0.0000 0.0000 0.0000 0.0000 -4.7762
#
#
#
# Elastic Compliance Matrix: (Units=1/GPa)
#
#
# Indices 1 2 3 4 5 6 
#
# 1 0.025509 -0.004665 -0.007468 0.000000 0.000000 0.000000
# 2 -0.004665 0.038044 0.000030 0.000000 0.000000 0.000000
# 3 -0.007468 0.000030 0.009370 0.000000 0.000000 0.000000
# 4 0.000000 0.000000 0.000000 0.118506 0.000000 0.000000
# 5 0.000000 0.000000 0.000000 0.000000 0.024782 0.000000
# 6 0.000000 0.000000 0.000000 0.000000 0.000000 -0.209370
#
#
# Mechanical properties :
#
#
# Convention : Reuss Voigt Hill
#
# Bulk Modulus (GPa) = 20.52739 36.30054 28.41397
# Shear Modulus (GPa) = 105.74015 19.90084 62.82049
#
# Velocity S-wave (km/s) = 6.90367 2.99499 5.32121
# Velocity P-wave (km/s) = 8.53228 5.32183 7.11061
#
# Compressibility (1/GPa) = 0.04871539
#
# Stress axis : x y z
#
# Youngs Moduli (GPa) = 39.20142 26.28568 106.72816
#
# Poissons Ratio (x) = 0.12262 0.79709
# Poissons Ratio (y) = 0.18287 -0.00319
# Poissons Ratio (z) = 0.29277 -0.00079
#
# Static dielectric constant tensor:
#      x y z
#    x 1.809670 0.000000 0.000000 
#    y 0.000000 1.826820 0.000000 
#    z 0.000000 0.000000 1.804920 
# 
# From -- ./inp_files/22329.got.cif
#   From: 2010.05.17/outbox.cif.g08.bks.cpg/sg69_12_cif.got.tgz:22329.got - 2010.06.03 19:29:58.
