data_PCOD9512979
_publ_section_title
;
Structure prediction by ZEFSAII (Michael W. Deem and Ramdas Pophale) SiO2 
 PCOD9512979
Probable space group: F M M M
;
_chemical_formula_sum "Si O2"
_cell_formula_units_Z 144
_cell_length_a 29.389926
_cell_length_b 31.948676
_cell_length_c 8.625358
_cell_angle_alpha 90.000000
_cell_angle_beta 90.000000
_cell_angle_gamma 90.000000
_cell_volume 8098.945703
_symmetry_space_group_name_H-M "F M M M"
_symmetry_group_IT_number 69
_symmetry_cell_setting 'orthorhombic'
loop_
_space_group_symop_operation_xyz
x,y,z
-x,-y,z
x,-y,-z
-x,y,-z
-x,-y,-z
x,y,-z
-x,y,z
x,-y,z
x,1/2+y,1/2+z
-x,1/2-y,1/2+z
x,1/2-y,1/2-z
-x,1/2+y,1/2-z
-x,1/2-y,1/2-z
x,1/2+y,1/2-z
-x,1/2+y,1/2+z
x,1/2-y,1/2+z
1/2+x,y,1/2+z
1/2-x,-y,1/2+z
1/2+x,-y,1/2-z
1/2-x,y,1/2-z
1/2-x,-y,1/2-z
1/2+x,y,1/2-z
1/2-x,y,1/2+z
1/2+x,-y,1/2+z
1/2+x,1/2+y,z
1/2-x,1/2-y,z
1/2+x,1/2-y,-z
1/2-x,1/2+y,-z
1/2-x,1/2-y,-z
1/2+x,1/2+y,-z
1/2-x,1/2+y,z
1/2+x,1/2-y,z
loop_
_atom_site_type_symbol
_atom_site_label
_atom_site_fract_x
_atom_site_fract_y
_atom_site_fract_z
Si Si1 0.447678 0.091754 0.811955
Si Si2 0.359123 0.375402 0.814475
Si Si3 0.944758 0.500000 0.175921
Si Si4 0.698722 0.047306 0.186055
Si Si5 0.800812 0.205046 0.186139
O O1 0.500000 0.100094 0.767376
O O2 0.410277 0.123078 0.749224
O O3 0.433950 0.044965 0.753459
O O4 0.446373 0.090326 0.000000
O O5 0.332499 0.415906 0.750815
O O6 0.332694 0.333412 0.766486
O O7 0.359468 0.377181 0.000000
O O8 0.000000 0.500000 0.164070
O O9 0.925915 0.500000 0.000000
O O10 0.750000 0.052238 0.250000
O O11 0.683164 0.000000 0.228495
O O12 0.699564 0.049903 0.000000
O O13 0.816356 0.250000 0.250000
O O14 0.750000 0.197874 0.250000
O O15 0.798849 0.206858 0.000000
#
# Coordination Sequence:
#
# PCOD9512979 Si02
#       5
#    32  32  16  32  32
#     4   9  18  33  53  76 104 141 184 228 270 314
#     4  11  23  35  52  80 111 142 176 218 268 322
#     4   7  12  26  47  69  94 127 172 221 261 299
#     4  10  21  36  53  74 104 143 183 220 259 309
#     4  10  21  37  58  83 109 137 171 215 267 320
#
# _framework density 17.780090999999999
#
# number of rings (size 3 to 8) (size 9 to 14) (size 15 to 20)
#    0.000    2.333    0.000    4.667    1.556    7.111 
#    0.000    0.000    0.000    2.667    0.000    0.000 
#    0.000    0.000    0.000    0.000    0.000    0.000 
#
# Total GULP energy -200894.657750 kJ/mol
# GULP energy per Si atom -5580.407160 kJ/mol
# Density = 1.773962 g / cm^3
# Si number density = 17.780091 Si / 1000 Ang^3
#
#
#
# Elastic Constant Matrix: (Units=GPa)
#
#
# Indices 1 2 3 4 5 6 
#
# 1 108.3650 95.0700 32.8382 -0.0021 0.0008 0.0017
# 2 95.0700 139.2487 40.9176 -0.0042 0.0048 -0.0035
# 3 32.8382 40.9176 35.6111 -0.0095 0.0054 -0.0008
# 4 -0.0021 -0.0042 -0.0095 26.5761 0.0033 -0.0028
# 5 0.0008 0.0048 0.0054 0.0033 27.2121 -0.0011
# 6 0.0017 -0.0035 -0.0008 -0.0028 -0.0011 22.8403
#
#
#
# Elastic Compliance Matrix: (Units=1/GPa)
#
#
# Indices 1 2 3 4 5 6 
#
# 1 0.023564 -0.014649 -0.004897 -0.000002 0.000003 -0.000004
# 2 -0.014649 0.019948 -0.009413 -0.000001 -0.000001 0.000004
# 3 -0.004897 -0.009413 0.043413 0.000014 -0.000007 0.000000
# 4 -0.000002 -0.000001 0.000014 0.037628 -0.000005 0.000005
# 5 0.000003 -0.000001 -0.000007 -0.000005 0.036748 0.000002
# 6 -0.000004 0.000004 0.000000 0.000005 0.000002 0.043782
#
#
# Mechanical properties :
#
#
# Convention : Reuss Voigt Hill
#
# Bulk Modulus (GPa) = 34.47461 68.98626 51.73044
# Shear Modulus (GPa) = 18.33718 22.95230 20.64474
#
# Velocity S-wave (km/s) = 3.21492 3.59681 3.41121
# Velocity P-wave (km/s) = 5.76303 7.49222 6.68378
#
# Compressibility (1/GPa) = 0.02900685
#
# Stress axis : x y z
#
# Youngs Moduli (GPa) = 42.43850 50.12910 23.03468
#
# Poissons Ratio (x) = 0.73432 0.11281
# Poissons Ratio (y) = 0.62166 0.21683
# Poissons Ratio (z) = 0.20783 0.47187
#
# Static dielectric constant tensor:
#      x y z
#    x 1.610880 0.000000 0.000000 
#    y 0.000000 1.613360 -0.000010 
#    z 0.000000 -0.000010 1.605380 
# 
# From -- ./inp_files/5590.got.cif
#   From: 2010.05.17/outbox.cif.g08.bks.cpg/sg69_3_cif.got.tgz:5590.got - 2010.06.03 19:29:58.
