data_PCOD9512544
_publ_section_title
;
Structure prediction by ZEFSAII (Michael W. Deem and Ramdas Pophale) SiO2 
 PCOD9512544
Probable space group: F M M M
;
_chemical_formula_sum "Si O2"
_cell_formula_units_Z 192
_cell_length_a 15.004319
_cell_length_b 31.002918
_cell_length_c 18.780085
_cell_angle_alpha 90.000000
_cell_angle_beta 90.000000
_cell_angle_gamma 90.000000
_cell_volume 8736.076213
_symmetry_space_group_name_H-M "F M M M"
_symmetry_group_IT_number 69
_symmetry_cell_setting 'orthorhombic'
loop_
_space_group_symop_operation_xyz
x,y,z
-x,-y,z
x,-y,-z
-x,y,-z
-x,-y,-z
x,y,-z
-x,y,z
x,-y,z
x,1/2+y,1/2+z
-x,1/2-y,1/2+z
x,1/2-y,1/2-z
-x,1/2+y,1/2-z
-x,1/2-y,1/2-z
x,1/2+y,1/2-z
-x,1/2+y,1/2+z
x,1/2-y,1/2+z
1/2+x,y,1/2+z
1/2-x,-y,1/2+z
1/2+x,-y,1/2-z
1/2-x,y,1/2-z
1/2-x,-y,1/2-z
1/2+x,y,1/2-z
1/2-x,y,1/2+z
1/2+x,-y,1/2+z
1/2+x,1/2+y,z
1/2-x,1/2-y,z
1/2+x,1/2-y,-z
1/2-x,1/2+y,-z
1/2-x,1/2-y,-z
1/2+x,1/2+y,-z
1/2-x,1/2+y,z
1/2+x,1/2-y,z
loop_
_atom_site_type_symbol
_atom_site_label
_atom_site_fract_x
_atom_site_fract_y
_atom_site_fract_z
Si Si1 0.894323 0.185626 0.579587
Si Si2 0.101978 0.733797 0.330035
Si Si3 0.349121 0.903340 0.844101
Si Si4 0.864161 0.500000 0.178819
Si Si5 0.655096 0.086795 0.415741
Si Si6 0.100846 0.357285 0.297570
Si Si7 0.648360 0.000000 0.657215
O O1 0.855815 0.184204 0.500000
O O2 0.859005 0.226986 0.623673
O O3 0.886631 0.138874 0.616152
O O4 0.000000 0.193232 0.575026
O O5 0.094228 0.750000 0.250000
O O6 0.148406 0.687738 0.317058
O O7 0.000000 0.724770 0.356592
O O8 0.391005 0.951989 0.849749
O O9 0.252432 0.907751 0.879771
O O10 0.353630 0.888293 0.761181
O O11 0.756459 0.500000 0.168360
O O12 0.887323 0.500000 0.262498
O O13 0.658441 0.090906 0.500000
O O14 0.596341 0.120561 0.373739
O O15 0.622510 0.040757 0.388949
O O16 0.000000 0.349263 0.269377
#
# Coordination Sequence:
#
# PCOD9512544 Si02
#       7
#    32  32  32  16  32  32  16
#     4  10  20  35  58  87 119 155 197 247 300 355
#     4   9  17  33  57  84 110 148 199 240 285 348
#     4  11  20  38  61  87 116 154 199 245 293 353
#     4   9  18  32  60  86 112 147 197 252 283 343
#     4  11  23  38  59  86 121 158 194 243 298 356
#     4  11  22  37  62  89 117 153 198 249 295 347
#     4   9  17  36  58  84 109 154 203 242 284 346
#
# _framework density 21.977830000000001
#
# number of rings (size 3 to 8) (size 9 to 14) (size 15 to 20)
#    0.000    1.833    3.333    1.750    0.000    1.000 
#    0.000    6.667    0.000    4.000    0.000    0.000 
#    0.000    0.000    0.000    0.000    0.000    0.000 
#
# Total GULP energy -267383.800217 kJ/mol
# GULP energy per Si atom -5570.495838 kJ/mol
# Density = 2.192781 g / cm^3
# Si number density = 21.977830 Si / 1000 Ang^3
#
#
#
# Elastic Constant Matrix: (Units=GPa)
#
#
# Indices 1 2 3 4 5 6 
#
# 1 30.7779 5.2741 6.6664 0.0000 0.0000 0.0000
# 2 5.2741 195.0339 68.3063 0.0000 0.0000 0.0000
# 3 6.6664 68.3063 153.8348 0.0000 0.0000 0.0000
# 4 0.0000 0.0000 0.0000 27.4041 0.0000 0.0000
# 5 0.0000 0.0000 0.0000 0.0000 17.2656 0.0000
# 6 0.0000 0.0000 0.0000 0.0000 0.0000 28.1385
#
#
#
# Elastic Compliance Matrix: (Units=1/GPa)
#
#
# Indices 1 2 3 4 5 6 
#
# 1 0.032834 -0.000461 -0.001218 0.000000 0.000000 0.000000
# 2 -0.000461 0.006078 -0.002679 0.000000 0.000000 0.000000
# 3 -0.001218 -0.002679 0.007743 0.000000 0.000000 0.000000
# 4 0.000000 0.000000 0.000000 0.036491 0.000000 0.000000
# 5 0.000000 0.000000 0.000000 0.000000 0.057919 0.000000
# 6 0.000000 0.000000 0.000000 0.000000 0.000000 0.035539
#
#
# Mechanical properties :
#
#
# Convention : Reuss Voigt Hill
#
# Bulk Modulus (GPa) = 26.35865 60.01560 43.18713
# Shear Modulus (GPa) = 25.25702 34.52161 29.88932
#
# Velocity S-wave (km/s) = 3.39367 3.96756 3.69179
# Velocity P-wave (km/s) = 5.23214 6.95380 6.15348
#
# Compressibility (1/GPa) = 0.03793821
#
# Stress axis : x y z
#
# Youngs Moduli (GPa) = 30.45648 164.52860 129.15392
#
# Poissons Ratio (x) = 0.07590 0.15731
# Poissons Ratio (y) = 0.01405 0.34597
# Poissons Ratio (z) = 0.03710 0.44073
#
# Static dielectric constant tensor:
#      x y z
#    x 1.908020 0.000000 0.000000 
#    y 0.000000 1.906260 0.000000 
#    z 0.000000 0.000000 1.772500 
# 
# From -- ./inp_files/23750.got.cif
#   From: 2010.05.17/outbox.cif.g08.bks.cpg/sg69_12_cif.got.tgz:23750.got - 2010.06.03 19:29:58.
