data_PCOD9512064
_publ_section_title
;
Structure prediction by ZEFSAII (Michael W. Deem and Ramdas Pophale) SiO2 
 PCOD9512064
Probable space group: F M M M
;
_chemical_formula_sum "Si O2"
_cell_formula_units_Z 168
_cell_length_a 14.244548
_cell_length_b 22.964152
_cell_length_c 24.915308
_cell_angle_alpha 90.000000
_cell_angle_beta 90.000000
_cell_angle_gamma 90.000000
_cell_volume 8150.145200
_symmetry_space_group_name_H-M "F M M M"
_symmetry_group_IT_number 69
_symmetry_cell_setting 'orthorhombic'
loop_
_space_group_symop_operation_xyz
x,y,z
-x,-y,z
x,-y,-z
-x,y,-z
-x,-y,-z
x,y,-z
-x,y,z
x,-y,z
x,1/2+y,1/2+z
-x,1/2-y,1/2+z
x,1/2-y,1/2-z
-x,1/2+y,1/2-z
-x,1/2-y,1/2-z
x,1/2+y,1/2-z
-x,1/2+y,1/2+z
x,1/2-y,1/2+z
1/2+x,y,1/2+z
1/2-x,-y,1/2+z
1/2+x,-y,1/2-z
1/2-x,y,1/2-z
1/2-x,-y,1/2-z
1/2+x,y,1/2-z
1/2-x,y,1/2+z
1/2+x,-y,1/2+z
1/2+x,1/2+y,z
1/2-x,1/2-y,z
1/2+x,1/2-y,-z
1/2-x,1/2+y,-z
1/2-x,1/2-y,-z
1/2+x,1/2+y,-z
1/2-x,1/2+y,z
1/2+x,1/2-y,z
loop_
_atom_site_type_symbol
_atom_site_label
_atom_site_fract_x
_atom_site_fract_y
_atom_site_fract_z
Si Si1 0.888243 0.399657 0.682209
Si Si2 0.858726 0.235898 0.809822
Si Si3 0.115049 0.934565 0.699254
Si Si4 0.384694 0.000000 0.400672
Si Si5 0.391800 0.158490 0.885095
Si Si6 0.258737 0.000000 0.000000
Si Si7 0.115246 0.616800 0.000000
O O1 0.870589 0.331306 0.675800
O O2 0.853380 0.419721 0.740612
O O3 0.861251 0.443209 0.635061
O O4 0.000000 0.406486 0.685168
O O5 0.898251 0.250000 0.750000
O O6 0.750000 0.250000 0.806074
O O7 0.892171 0.278973 0.856598
O O8 0.151974 0.886942 0.657330
O O9 0.000000 0.932369 0.699779
O O10 0.141803 0.000000 0.684232
O O11 0.500000 0.000000 0.412212
O O12 0.313716 0.000000 0.450243
O O13 0.500000 0.140396 0.889270
O O14 0.356512 0.151537 0.945690
O O15 0.327953 0.943902 0.000000
O O16 0.000000 0.608422 0.000000
#
# Coordination Sequence:
#
# PCOD9512064 Si02
#       7
#    32  32  32  16  32   8  16
#     4  10  19  36  62  93 127 161 205 261 318 383
#     4  11  23  36  57  91 135 168 206 259 321 387
#     4   9  16  29  55  89 121 157 199 253 321 378
#     4  10  23  43  68 100 132 163 212 269 320 387
#     4  10  21  39  61  85 122 165 217 267 309 374
#     4  12  26  44  72  90 126 176 212 260 322 384
#     4  10  25  45  65  93 124 166 223 271 309 368
#
# _framework density 20.613130000000002
#
# number of rings (size 3 to 8) (size 9 to 14) (size 15 to 20)
#    0.000    1.905    2.857    0.857    4.000    0.762 
#    0.000    1.429    0.000    5.714    0.000    0.000 
#    0.000    0.000    0.000    0.000    0.000    0.000 
#
# Total GULP energy -234415.346899 kJ/mol
# GULP energy per Si atom -5581.317783 kJ/mol
# Density = 2.056621 g / cm^3
# Si number density = 20.613130 Si / 1000 Ang^3
#
#
#
# Elastic Constant Matrix: (Units=GPa)
#
#
# Indices 1 2 3 4 5 6 
#
# 1 75.0962 8.7696 35.0448 0.0000 0.0000 0.0000
# 2 8.7696 160.4614 94.2515 0.0000 0.0000 0.0000
# 3 35.0448 94.2515 184.7801 0.0000 0.0000 0.0000
# 4 0.0000 0.0000 0.0000 30.0952 0.0000 0.0000
# 5 0.0000 0.0000 0.0000 0.0000 37.9875 0.0000
# 6 0.0000 0.0000 0.0000 0.0000 0.0000 18.9615
#
#
#
# Elastic Compliance Matrix: (Units=1/GPa)
#
#
# Indices 1 2 3 4 5 6 
#
# 1 0.014768 0.001197 -0.003411 0.000000 0.000000 0.000000
# 2 0.001197 0.008995 -0.004815 0.000000 0.000000 0.000000
# 3 -0.003411 -0.004815 0.008515 0.000000 0.000000 0.000000
# 4 0.000000 0.000000 0.000000 0.033228 0.000000 0.000000
# 5 0.000000 0.000000 0.000000 0.000000 0.026324 0.000000
# 6 0.000000 0.000000 0.000000 0.000000 0.000000 0.052739
#
#
# Mechanical properties :
#
#
# Convention : Reuss Voigt Hill
#
# Bulk Modulus (GPa) = 54.88852 77.38550 66.13701
# Shear Modulus (GPa) = 30.35800 36.22695 33.29248
#
# Velocity S-wave (km/s) = 3.84181 4.19677 4.02320
# Velocity P-wave (km/s) = 6.80919 7.81711 7.33049
#
# Compressibility (1/GPa) = 0.01821875
#
# Stress axis : x y z
#
# Youngs Moduli (GPa) = 67.71190 111.17484 117.44252
#
# Poissons Ratio (x) = -0.13303 0.40063
# Poissons Ratio (y) = -0.08102 0.56548
# Poissons Ratio (z) = 0.23098 0.53530
#
# Static dielectric constant tensor:
#      x y z
#    x 1.651380 0.000000 0.000000 
#    y 0.000000 1.684920 0.000000 
#    z 0.000000 0.000000 1.752400 
# 
# From -- ./inp_files/41014.got.cif
#   From: 2010.05.17/outbox.cif.g08.bks.cpg/sg69_21_cif.got.tgz:41014.got - 2010.06.03 19:29:58.
