data_PCOD9512860
_publ_section_title
;
Structure prediction by ZEFSAII (Michael W. Deem and Ramdas Pophale) SiO2 
 PCOD9512860
Probable space group: F M M M
;
_chemical_formula_sum "Si O2"
_cell_formula_units_Z 132
_cell_length_a 15.146878
_cell_length_b 19.348457
_cell_length_c 22.696627
_cell_angle_alpha 90.000000
_cell_angle_beta 90.000000
_cell_angle_gamma 90.000000
_cell_volume 6651.671370
_symmetry_space_group_name_H-M "F M M M"
_symmetry_group_IT_number 69
_symmetry_cell_setting 'orthorhombic'
loop_
_space_group_symop_operation_xyz
x,y,z
-x,-y,z
x,-y,-z
-x,y,-z
-x,-y,-z
x,y,-z
-x,y,z
x,-y,z
x,1/2+y,1/2+z
-x,1/2-y,1/2+z
x,1/2-y,1/2-z
-x,1/2+y,1/2-z
-x,1/2-y,1/2-z
x,1/2+y,1/2-z
-x,1/2+y,1/2+z
x,1/2-y,1/2+z
1/2+x,y,1/2+z
1/2-x,-y,1/2+z
1/2+x,-y,1/2-z
1/2-x,y,1/2-z
1/2-x,-y,1/2-z
1/2+x,y,1/2-z
1/2-x,y,1/2+z
1/2+x,-y,1/2+z
1/2+x,1/2+y,z
1/2-x,1/2-y,z
1/2+x,1/2-y,-z
1/2-x,1/2+y,-z
1/2-x,1/2-y,-z
1/2+x,1/2+y,-z
1/2-x,1/2+y,z
1/2+x,1/2-y,z
loop_
_atom_site_type_symbol
_atom_site_label
_atom_site_fract_x
_atom_site_fract_y
_atom_site_fract_z
Si Si1 0.500000 0.311738 0.204512
Si Si2 0.177169 0.312349 0.370404
Si Si3 0.136733 0.374303 0.000000
Si Si4 0.500000 0.417052 0.307436
Si Si5 0.684497 0.582929 0.372847
Si Si6 0.500000 0.000000 0.000000
Si Si7 0.850782 0.776653 0.000000
O O1 0.500000 0.250000 0.250000
O O2 0.410755 0.303888 0.167343
O O3 0.500000 0.380812 0.244349
O O4 0.250000 0.250000 0.366747
O O5 0.230849 0.378922 0.346283
O O6 0.141076 0.315447 0.438084
O O7 0.186332 0.385550 0.061354
O O8 0.098802 0.296845 0.000000
O O9 0.073250 0.439357 0.000000
O O10 0.500000 0.500000 0.302625
O O11 0.410276 0.398753 0.343546
O O12 0.691100 0.500000 0.373488
O O13 0.750000 0.750000 0.000000
#
# Coordination Sequence:
#
# PCOD9512860 Si02
#       7
#    16  32  16  16  32   4  16
#     4  12  28  43  63  91 120 165 224 277 303 375
#     4  11  23  43  66  93 127 167 211 259 334 390
#     4  12  20  34  61  95 142 162 205 253 332 399
#     4  10  25  43  61  90 130 166 214 270 328 380
#     4  11  21  38  64  96 130 168 208 266 324 396
#     4  12  24  28  56 108 136 178 198 264 332 374
#     4  10  20  40  62  94 128 166 196 255 320 396
#
# _framework density 19.844636000000001
#
# number of rings (size 3 to 8) (size 9 to 14) (size 15 to 20)
#    0.000    0.970    6.061    2.182    1.697    5.818 
#    0.000    2.424    0.000    0.000    0.000    4.242 
#    0.000    0.000    0.000    0.000    0.000    0.000 
#
# Total GULP energy -183720.076205 kJ/mol
# GULP energy per Si atom -5567.275037 kJ/mol
# Density = 1.979947 g / cm^3
# Si number density = 19.844636 Si / 1000 Ang^3
#
#
#
# Elastic Constant Matrix: (Units=GPa)
#
#
# Indices 1 2 3 4 5 6 
#
# 1 153.3185 52.1034 73.4071 0.0000 0.0000 0.0000
# 2 52.1034 83.2101 26.3889 0.0000 0.0000 0.0000
# 3 73.4071 26.3889 118.4062 0.0000 0.0000 0.0000
# 4 0.0000 0.0000 0.0000 16.6684 0.0000 0.0000
# 5 0.0000 0.0000 0.0000 0.0000 4.6619 0.0000
# 6 0.0000 0.0000 0.0000 0.0000 0.0000 54.1163
#
#
#
# Elastic Compliance Matrix: (Units=1/GPa)
#
#
# Indices 1 2 3 4 5 6 
#
# 1 0.010954 -0.005063 -0.005663 0.000000 0.000000 0.000000
# 2 -0.005063 0.015272 -0.000265 0.000000 0.000000 0.000000
# 3 -0.005663 -0.000265 0.012015 0.000000 0.000000 0.000000
# 4 0.000000 0.000000 0.000000 0.059994 0.000000 0.000000
# 5 0.000000 0.000000 0.000000 0.000000 0.214506 0.000000
# 6 0.000000 0.000000 0.000000 0.000000 0.000000 0.018479
#
#
# Mechanical properties :
#
#
# Convention : Reuss Voigt Hill
#
# Bulk Modulus (GPa) = 61.49985 73.19262 67.34624
# Shear Modulus (GPa) = 13.94226 28.62502 21.28364
#
# Velocity S-wave (km/s) = 2.65348 3.80209 3.27848
# Velocity P-wave (km/s) = 6.35971 7.49916 6.95282
#
# Compressibility (1/GPa) = 0.01626020
#
# Stress axis : x y z
#
# Youngs Moduli (GPa) = 91.28770 65.47849 83.22797
#
# Poissons Ratio (x) = 0.33154 0.47130
# Poissons Ratio (y) = 0.46222 0.02202
# Poissons Ratio (z) = 0.51694 0.01733
#
# Static dielectric constant tensor:
#      x y z
#    x 1.761660 0.000000 0.000000 
#    y 0.000000 1.954040 0.000000 
#    z 0.000000 0.000000 1.896510 
# 
# From -- ./inp_files/29708.got.cif
#   From: 2010.05.17/outbox.cif.g08.bks.cpg/sg69_15_cif.got.tgz:29708.got - 2010.06.03 19:29:58.
