data_PCOD9512154
_publ_section_title
;
Structure prediction by ZEFSAII (Michael W. Deem and Ramdas Pophale) SiO2 
 PCOD9512154
Probable space group: F M M M
;
_chemical_formula_sum "Si O2"
_cell_formula_units_Z 160
_cell_length_a 14.341238
_cell_length_b 15.909462
_cell_length_c 30.038225
_cell_angle_alpha 90.000000
_cell_angle_beta 90.000000
_cell_angle_gamma 90.000000
_cell_volume 6853.562899
_symmetry_space_group_name_H-M "F M M M"
_symmetry_group_IT_number 69
_symmetry_cell_setting 'orthorhombic'
loop_
_space_group_symop_operation_xyz
x,y,z
-x,-y,z
x,-y,-z
-x,y,-z
-x,-y,-z
x,y,-z
-x,y,z
x,-y,z
x,1/2+y,1/2+z
-x,1/2-y,1/2+z
x,1/2-y,1/2-z
-x,1/2+y,1/2-z
-x,1/2-y,1/2-z
x,1/2+y,1/2-z
-x,1/2+y,1/2+z
x,1/2-y,1/2+z
1/2+x,y,1/2+z
1/2-x,-y,1/2+z
1/2+x,-y,1/2-z
1/2-x,y,1/2-z
1/2-x,-y,1/2-z
1/2+x,y,1/2-z
1/2-x,y,1/2+z
1/2+x,-y,1/2+z
1/2+x,1/2+y,z
1/2-x,1/2-y,z
1/2+x,1/2-y,-z
1/2-x,1/2+y,-z
1/2-x,1/2-y,-z
1/2+x,1/2+y,-z
1/2-x,1/2+y,z
1/2+x,1/2-y,z
loop_
_atom_site_type_symbol
_atom_site_label
_atom_site_fract_x
_atom_site_fract_y
_atom_site_fract_z
Si Si1 0.388515 0.596730 0.687514
Si Si2 0.151033 0.406207 0.381205
Si Si3 0.325171 0.409676 0.449068
Si Si4 0.107180 0.899418 0.784224
Si Si5 0.860161 0.728504 0.108306
O O1 0.500000 0.588161 0.692541
O O2 0.354083 0.500000 0.677194
O O3 0.356547 0.628798 0.736164
O O4 0.376453 0.667993 0.650352
O O5 0.107633 0.500000 0.382091
O O6 0.238341 0.412384 0.414754
O O7 0.168650 0.387700 0.328436
O O8 0.097785 0.321250 0.393830
O O9 0.293617 0.401339 0.500000
O O10 0.374226 0.500000 0.444620
O O11 0.383038 0.329810 0.433633
O O12 0.000000 0.868736 0.792471
O O13 0.101402 0.000000 0.778506
O O14 0.750000 0.750000 0.107965
#
# Coordination Sequence:
#
# PCOD9512154 Si02
#       5
#    32  32  32  32  32
#     4   9  18  34  56  80 107 142 185 231 277 326
#     4   9  18  31  46  69 100 134 173 214 257 312
#     4   9  18  34  55  75  97 130 172 221 280 336
#     4   8  15  30  51  72  98 137 179 217 263 319
#     4  10  20  32  50  77 107 139 176 224 274 325
#
# _framework density 23.345521999999999
#
# number of rings (size 3 to 8) (size 9 to 14) (size 15 to 20)
#    0.000    3.000    0.000    1.800    0.000    6.000 
#    0.000    9.000    0.000   16.800    0.000   12.600 
#    0.000    0.000    0.000    0.000    0.000    0.000 
#
# Total GULP energy -222712.044064 kJ/mol
# GULP energy per Si atom -5567.801102 kJ/mol
# Density = 2.329239 g / cm^3
# Si number density = 23.345522 Si / 1000 Ang^3
#
#
#
# Elastic Constant Matrix: (Units=GPa)
#
#
# Indices 1 2 3 4 5 6 
#
# 1 62.4510 12.8885 9.8479 0.0000 0.0000 0.0000
# 2 12.8885 205.9271 64.9476 0.0000 0.0000 0.0000
# 3 9.8479 64.9476 143.8517 0.0000 0.0000 0.0000
# 4 0.0000 0.0000 0.0000 -5.7265 0.0000 0.0000
# 5 0.0000 0.0000 0.0000 0.0000 -103.9079 0.0000
# 6 0.0000 0.0000 0.0000 0.0000 0.0000 -8.4387
#
#
#
# Elastic Compliance Matrix: (Units=1/GPa)
#
#
# Indices 1 2 3 4 5 6 
#
# 1 0.016294 -0.000779 -0.000764 0.000000 0.000000 0.000000
# 2 -0.000779 0.005700 -0.002520 0.000000 0.000000 0.000000
# 3 -0.000764 -0.002520 0.008142 0.000000 0.000000 0.000000
# 4 0.000000 0.000000 0.000000 -0.174626 0.000000 0.000000
# 5 0.000000 0.000000 0.000000 0.000000 -0.009624 0.000000
# 6 0.000000 0.000000 0.000000 0.000000 0.000000 -0.118502
#
#
# Mechanical properties :
#
#
# Convention : Reuss Voigt Hill
#
# Bulk Modulus (GPa) = 45.43460 65.28864 55.36162
# Shear Modulus (GPa) = -19.44353 -1.97823 -10.71088
#
# Velocity S-wave (km/s) = -2.88906 -0.92153 -2.14428
# Velocity P-wave (km/s) = 2.89399 5.18601 4.19939
#
# Compressibility (1/GPa) = 0.02200966
#
# Stress axis : x y z
#
# Youngs Moduli (GPa) = 61.37324 175.45016 122.82531
#
# Poissons Ratio (x) = 0.13666 0.09381
# Poissons Ratio (y) = 0.04780 0.30952
# Poissons Ratio (z) = 0.04688 0.44213
#
# Static dielectric constant tensor:
#      x y z
#    x 1.926750 0.000000 0.000000 
#    y 0.000000 1.981080 0.000000 
#    z 0.000000 0.000000 1.901220 
# 
# From -- ./inp_files/17731.got.cif
#   From: 2010.05.17/outbox.cif.g08.bks.cpg/sg69_9_cif.got.tgz:17731.got - 2010.06.03 19:29:58.
