data_PCOD9512765
_publ_section_title
;
Structure prediction by ZEFSAII (Michael W. Deem and Ramdas Pophale) SiO2 
 PCOD9512765
Probable space group: F M M M
;
_chemical_formula_sum "Si O2"
_cell_formula_units_Z 160
_cell_length_a 20.613413
_cell_length_b 19.530705
_cell_length_c 19.904558
_cell_angle_alpha 90.000000
_cell_angle_beta 90.000000
_cell_angle_gamma 90.000000
_cell_volume 8013.465344
_symmetry_space_group_name_H-M "F M M M"
_symmetry_group_IT_number 69
_symmetry_cell_setting 'orthorhombic'
loop_
_space_group_symop_operation_xyz
x,y,z
-x,-y,z
x,-y,-z
-x,y,-z
-x,-y,-z
x,y,-z
-x,y,z
x,-y,z
x,1/2+y,1/2+z
-x,1/2-y,1/2+z
x,1/2-y,1/2-z
-x,1/2+y,1/2-z
-x,1/2-y,1/2-z
x,1/2+y,1/2-z
-x,1/2+y,1/2+z
x,1/2-y,1/2+z
1/2+x,y,1/2+z
1/2-x,-y,1/2+z
1/2+x,-y,1/2-z
1/2-x,y,1/2-z
1/2-x,-y,1/2-z
1/2+x,y,1/2-z
1/2-x,y,1/2+z
1/2+x,-y,1/2+z
1/2+x,1/2+y,z
1/2-x,1/2-y,z
1/2+x,1/2-y,-z
1/2-x,1/2+y,-z
1/2-x,1/2-y,-z
1/2+x,1/2+y,-z
1/2-x,1/2+y,z
1/2+x,1/2-y,z
loop_
_atom_site_type_symbol
_atom_site_label
_atom_site_fract_x
_atom_site_fract_y
_atom_site_fract_z
Si Si1 0.923361 0.783149 0.926349
Si Si2 0.604986 0.583026 0.500000
Si Si3 0.424891 0.850088 0.858154
Si Si4 0.638541 0.077753 0.393887
Si Si5 0.253289 0.581683 0.000000
Si Si6 0.322442 0.421378 0.260155
O O1 0.901782 0.727888 0.871780
O O2 0.910568 0.862028 0.910926
O O3 0.000000 0.771804 0.929993
O O4 0.894908 0.767752 0.000000
O O5 0.600040 0.500000 0.500000
O O6 0.575811 0.612746 0.431093
O O7 0.680291 0.606957 0.500000
O O8 0.500000 0.851957 0.833159
O O9 0.372992 0.885071 0.809296
O O10 0.704131 0.097725 0.434256
O O11 0.649007 0.076837 0.314644
O O12 0.620902 0.000000 0.415119
O O13 0.246615 0.500000 0.000000
O O14 0.313998 0.500000 0.285159
O O15 0.250000 0.391772 0.250000
#
# Coordination Sequence:
#
# PCOD9512765 Si02
#       6
#    32  16  32  32  16  32
#     4  10  21  39  60  85 123 162 200 255 320 373
#     4  11  21  35  59  88 118 157 205 254 305 362
#     4  11  23  40  61  88 125 165 205 253 310 374
#     4  10  20  37  62  89 117 155 209 258 305 374
#     4   9  18  34  57  86 118 151 194 253 312 360
#     4  10  22  41  63  89 126 166 203 252 311 368
#
# _framework density 19.966393
#
# number of rings (size 3 to 8) (size 9 to 14) (size 15 to 20)
#    0.000    1.800    2.000    2.100    0.000    7.200 
#    0.000   11.000    0.000    0.000    0.000    0.000 
#    0.000    0.000    0.000    0.000    0.000    0.000 
#
# Total GULP energy -223087.614356 kJ/mol
# GULP energy per Si atom -5577.190359 kJ/mol
# Density = 1.992095 g / cm^3
# Si number density = 19.966393 Si / 1000 Ang^3
#
#
#
# Elastic Constant Matrix: (Units=GPa)
#
#
# Indices 1 2 3 4 5 6 
#
# 1 78.3804 39.8558 44.6976 0.0000 0.0000 0.0000
# 2 39.8558 97.7837 31.4540 0.0000 0.0000 0.0000
# 3 44.6976 31.4540 94.7971 0.0000 0.0000 0.0000
# 4 0.0000 0.0000 0.0000 33.0045 0.0000 0.0000
# 5 0.0000 0.0000 0.0000 0.0000 24.9253 0.0000
# 6 0.0000 0.0000 0.0000 0.0000 0.0000 -79.0305
#
#
#
# Elastic Compliance Matrix: (Units=1/GPa)
#
#
# Indices 1 2 3 4 5 6 
#
# 1 0.019946 -0.005715 -0.007509 0.000000 0.000000 0.000000
# 2 -0.005715 0.013086 -0.001647 0.000000 0.000000 0.000000
# 3 -0.007509 -0.001647 0.014636 0.000000 0.000000 0.000000
# 4 0.000000 0.000000 0.000000 0.030299 0.000000 0.000000
# 5 0.000000 0.000000 0.000000 0.000000 0.040120 0.000000
# 6 0.000000 0.000000 0.000000 0.000000 0.000000 -0.012653
#
#
# Mechanical properties :
#
#
# Convention : Reuss Voigt Hill
#
# Bulk Modulus (GPa) = 55.78352 55.88622 55.83487
# Shear Modulus (GPa) = 35.42342 6.11012 20.76677
#
# Velocity S-wave (km/s) = 4.21664 1.75124 3.22854
# Velocity P-wave (km/s) = 7.19069 5.66922 6.47480
#
# Compressibility (1/GPa) = 0.01792644
#
# Stress axis : x y z
#
# Youngs Moduli (GPa) = 50.13552 76.41886 68.32542
#
# Poissons Ratio (x) = 0.43670 0.51303
# Poissons Ratio (y) = 0.28650 0.11256
# Poissons Ratio (z) = 0.37645 0.12590
#
# Static dielectric constant tensor:
#      x y z
#    x 1.715900 0.000000 0.000000 
#    y 0.000000 1.730020 0.000000 
#    z 0.000000 0.000000 1.720830 
# 
# From -- ./inp_files/31759.got.cif
#   From: 2010.05.17/outbox.cif.g08.bks.cpg/sg69_16_cif.got.tgz:31759.got - 2010.06.03 19:29:58.
