data_PCOD9512580
_publ_section_title
;
Structure prediction by ZEFSAII (Michael W. Deem and Ramdas Pophale) SiO2 
 PCOD9512580
Probable space group: F M M M
;
_chemical_formula_sum "Si O2"
_cell_formula_units_Z 144
_cell_length_a 32.982041
_cell_length_b 8.527556
_cell_length_c 27.799344
_cell_angle_alpha 90.000000
_cell_angle_beta 90.000000
_cell_angle_gamma 90.000000
_cell_volume 7818.737901
_symmetry_space_group_name_H-M "F M M M"
_symmetry_group_IT_number 69
_symmetry_cell_setting 'orthorhombic'
loop_
_space_group_symop_operation_xyz
x,y,z
-x,-y,z
x,-y,-z
-x,y,-z
-x,-y,-z
x,y,-z
-x,y,z
x,-y,z
x,1/2+y,1/2+z
-x,1/2-y,1/2+z
x,1/2-y,1/2-z
-x,1/2+y,1/2-z
-x,1/2-y,1/2-z
x,1/2+y,1/2-z
-x,1/2+y,1/2+z
x,1/2-y,1/2+z
1/2+x,y,1/2+z
1/2-x,-y,1/2+z
1/2+x,-y,1/2-z
1/2-x,y,1/2-z
1/2-x,-y,1/2-z
1/2+x,y,1/2-z
1/2-x,y,1/2+z
1/2+x,-y,1/2+z
1/2+x,1/2+y,z
1/2-x,1/2-y,z
1/2+x,1/2-y,-z
1/2-x,1/2+y,-z
1/2-x,1/2-y,-z
1/2+x,1/2+y,-z
1/2-x,1/2+y,z
1/2+x,1/2-y,z
loop_
_atom_site_type_symbol
_atom_site_label
_atom_site_fract_x
_atom_site_fract_y
_atom_site_fract_z
Si Si1 0.874936 0.687593 0.197926
Si Si2 0.293789 0.313906 0.151379
Si Si3 0.000000 0.808053 0.444208
Si Si4 0.415496 0.690565 0.399665
Si Si5 0.830412 0.689724 0.054385
O O1 0.874973 0.500000 0.198460
O O2 0.886505 0.750000 0.250000
O O3 0.830022 0.744175 0.183368
O O4 0.904059 0.741069 0.154323
O O5 0.294506 0.500000 0.154767
O O6 0.250000 0.250000 0.165716
O O7 0.303337 0.262190 0.096453
O O8 0.958688 0.753932 0.418802
O O9 0.000000 0.762807 0.500000
O O10 0.000000 0.000000 0.442829
O O11 0.416762 0.500000 0.399733
O O12 0.377117 0.732806 0.433142
O O13 0.827482 0.500000 0.057708
O O14 0.820059 0.736645 0.000000
#
# Coordination Sequence:
#
# PCOD9512580 Si02
#       5
#    32  32  16  32  32
#     4  10  20  36  55  75 100 132 170 211 258 306
#     4  11  22  36  53  75 102 131 167 211 258 307
#     4   9  14  22  43  76 109 139 171 207 248 293
#     4   8  15  27  45  72 105 136 169 211 253 296
#     4   9  17  31  50  72 102 140 177 213 255 302
#
# _framework density 18.417294999999999
#
# number of rings (size 3 to 8) (size 9 to 14) (size 15 to 20)
#    0.000    2.556    0.000    4.667    0.000    4.000 
#    0.000    2.778    0.000    0.000    0.000   18.667 
#    0.000   29.333    0.000    0.000    0.000    0.000 
#
# Total GULP energy -200873.201749 kJ/mol
# GULP energy per Si atom -5579.811160 kJ/mol
# Density = 1.837538 g / cm^3
# Si number density = 18.417295 Si / 1000 Ang^3
#
#
#
# Elastic Constant Matrix: (Units=GPa)
#
#
# Indices 1 2 3 4 5 6 
#
# 1 100.9973 10.6251 26.4222 0.0000 0.0000 0.0001
# 2 10.6251 43.3200 18.3910 -0.0001 0.0000 0.0001
# 3 26.4222 18.3910 99.5264 0.0000 0.0000 0.0000
# 4 0.0000 -0.0001 0.0000 27.1120 0.0000 0.0000
# 5 0.0000 0.0000 0.0000 0.0000 7.4051 0.0000
# 6 0.0001 0.0001 0.0000 0.0000 0.0000 10.5784
#
#
#
# Elastic Compliance Matrix: (Units=1/GPa)
#
#
# Indices 1 2 3 4 5 6 
#
# 1 0.010735 -0.001544 -0.002564 0.000000 0.000000 0.000000
# 2 -0.001544 0.025271 -0.004260 0.000000 0.000000 0.000000
# 3 -0.002564 -0.004260 0.011516 0.000000 0.000000 0.000000
# 4 0.000000 0.000000 0.000000 0.036884 0.000000 0.000000
# 5 0.000000 0.000000 0.000000 0.000000 0.135042 0.000000
# 6 0.000000 0.000000 0.000000 0.000000 0.000000 0.094533
#
#
# Mechanical properties :
#
#
# Convention : Reuss Voigt Hill
#
# Bulk Modulus (GPa) = 32.48389 39.41335 35.94862
# Shear Modulus (GPa) = 14.66367 21.57945 18.12156
#
# Velocity S-wave (km/s) = 2.82475 3.42672 3.14019
# Velocity P-wave (km/s) = 5.32118 6.09124 5.71918
#
# Compressibility (1/GPa) = 0.03078449
#
# Stress axis : x y z
#
# Youngs Moduli (GPa) = 93.15664 39.57073 86.83912
#
# Poissons Ratio (x) = 0.06110 0.22270
# Poissons Ratio (y) = 0.14385 0.36992
# Poissons Ratio (z) = 0.23890 0.16856
#
# Static dielectric constant tensor:
#      x y z
#    x 1.620520 0.000000 0.000000 
#    y 0.000000 1.631270 0.000000 
#    z 0.000000 0.000000 1.629660 
# 
# From -- ./inp_files/5561.got.cif
#   From: 2010.05.17/outbox.cif.g08.bks.cpg/sg69_3_cif.got.tgz:5561.got - 2010.06.03 19:29:58.
