data_PCOD9512190
_publ_section_title
;
Structure prediction by ZEFSAII (Michael W. Deem and Ramdas Pophale) SiO2 
 PCOD9512190
Probable space group: F M M M
;
_chemical_formula_sum "Si O2"
_cell_formula_units_Z 128
_cell_length_a 24.273745
_cell_length_b 16.847884
_cell_length_c 16.655760
_cell_angle_alpha 90.000000
_cell_angle_beta 90.000000
_cell_angle_gamma 90.000000
_cell_volume 6811.560263
_symmetry_space_group_name_H-M "F M M M"
_symmetry_group_IT_number 69
_symmetry_cell_setting 'orthorhombic'
loop_
_space_group_symop_operation_xyz
x,y,z
-x,-y,z
x,-y,-z
-x,y,-z
-x,-y,-z
x,y,-z
-x,y,z
x,-y,z
x,1/2+y,1/2+z
-x,1/2-y,1/2+z
x,1/2-y,1/2-z
-x,1/2+y,1/2-z
-x,1/2-y,1/2-z
x,1/2+y,1/2-z
-x,1/2+y,1/2+z
x,1/2-y,1/2+z
1/2+x,y,1/2+z
1/2-x,-y,1/2+z
1/2+x,-y,1/2-z
1/2-x,y,1/2-z
1/2-x,-y,1/2-z
1/2+x,y,1/2-z
1/2-x,y,1/2+z
1/2+x,-y,1/2+z
1/2+x,1/2+y,z
1/2-x,1/2-y,z
1/2+x,1/2-y,-z
1/2-x,1/2+y,-z
1/2-x,1/2-y,-z
1/2+x,1/2+y,-z
1/2-x,1/2+y,z
1/2+x,1/2-y,z
loop_
_atom_site_type_symbol
_atom_site_label
_atom_site_fract_x
_atom_site_fract_y
_atom_site_fract_z
Si Si1 0.336625 0.803120 0.670748
Si Si2 0.939465 0.153096 0.251457
Si Si3 0.754762 0.410320 0.095657
Si Si4 0.623790 0.648656 0.408325
O O1 0.325079 0.750000 0.750000
O O2 0.386955 0.861841 0.694564
O O3 0.283022 0.848509 0.642083
O O4 0.358958 0.740820 0.605025
O O5 0.942544 0.250000 0.250000
O O6 0.921741 0.129915 0.341483
O O7 0.000000 0.122774 0.229415
O O8 0.739539 0.500000 0.117253
O O9 0.819570 0.397445 0.110036
O O10 0.746562 0.399195 0.000000
O O11 0.607364 0.634054 0.500000
#
# Coordination Sequence:
#
# PCOD9512190 Si02
#       4
#    32  32  32  32
#     4   9  18  31  49  71  98 129 161 198 242 288
#     4   8  16  30  46  67  95 123 156 200 243 282
#     4  10  20  33  50  73 101 130 160 198 243 290
#     4   9  17  29  48  72  96 124 160 200 240 286
#
# _framework density 18.791582999999999
#
# number of rings (size 3 to 8) (size 9 to 14) (size 15 to 20)
#    0.000    3.500    0.000    1.500    0.000   10.500 
#    0.000   10.000    0.000    5.250    0.000    5.250 
#    0.000    0.000    0.000    0.000    0.000    0.000 
#
# Total GULP energy -178300.097388 kJ/mol
# GULP energy per Si atom -5571.878043 kJ/mol
# Density = 1.874881 g / cm^3
# Si number density = 18.791583 Si / 1000 Ang^3
#
#
#
# Elastic Constant Matrix: (Units=GPa)
#
#
# Indices 1 2 3 4 5 6 
#
# 1 73.0988 20.0828 24.4841 0.0000 0.0000 0.0000
# 2 20.0828 27.1696 12.4700 0.0000 0.0000 0.0000
# 3 24.4841 12.4700 25.3220 0.0000 0.0000 0.0000
# 4 0.0000 0.0000 0.0000 11.6505 0.0000 0.0000
# 5 0.0000 0.0000 0.0000 0.0000 10.5816 0.0000
# 6 0.0000 0.0000 0.0000 0.0000 0.0000 -1.7010
#
#
#
# Elastic Compliance Matrix: (Units=1/GPa)
#
#
# Indices 1 2 3 4 5 6 
#
# 1 0.021569 -0.008232 -0.016802 0.000000 0.000000 0.000000
# 2 -0.008232 0.050696 -0.017006 0.000000 0.000000 0.000000
# 3 -0.016802 -0.017006 0.064112 0.000000 0.000000 0.000000
# 4 0.000000 0.000000 0.000000 0.085833 0.000000 0.000000
# 5 0.000000 0.000000 0.000000 0.000000 0.094504 0.000000
# 6 0.000000 0.000000 0.000000 0.000000 0.000000 -0.587874
#
#
# Mechanical properties :
#
#
# Convention : Reuss Voigt Hill
#
# Bulk Modulus (GPa) = 19.12135 26.62937 22.87536
# Shear Modulus (GPa) = -29.47274 8.67644 -10.39815
#
# Velocity S-wave (km/s) = -3.96460 2.15110 -2.35487
# Velocity P-wave (km/s) = 3.28022 4.51346 2.19220
#
# Compressibility (1/GPa) = 0.05229756
#
# Stress axis : x y z
#
# Youngs Moduli (GPa) = 46.36209 19.72551 15.59773
#
# Poissons Ratio (x) = 0.16238 0.26207
# Poissons Ratio (y) = 0.38164 0.26526
# Poissons Ratio (z) = 0.77896 0.33546
#
# Static dielectric constant tensor:
#      x y z
#    x 1.677350 0.000000 0.000000 
#    y 0.000000 1.679320 0.000000 
#    z 0.000000 0.000000 1.670330 
# 
# From -- ./inp_files/22764.got.cif
#   From: 2010.05.17/outbox.cif.g08.bks.cpg/sg69_12_cif.got.tgz:22764.got - 2010.06.03 19:29:58.
