data_PCOD9512683
_publ_section_title
;
Structure prediction by ZEFSAII (Michael W. Deem and Ramdas Pophale) SiO2 
 PCOD9512683
Probable space group: F M M M
;
_chemical_formula_sum "Si O2"
_cell_formula_units_Z 192
_cell_length_a 29.613132
_cell_length_b 18.618267
_cell_length_c 17.755024
_cell_angle_alpha 90.000000
_cell_angle_beta 90.000000
_cell_angle_gamma 90.000000
_cell_volume 9789.147228
_symmetry_space_group_name_H-M "F M M M"
_symmetry_group_IT_number 69
_symmetry_cell_setting 'orthorhombic'
loop_
_space_group_symop_operation_xyz
x,y,z
-x,-y,z
x,-y,-z
-x,y,-z
-x,-y,-z
x,y,-z
-x,y,z
x,-y,z
x,1/2+y,1/2+z
-x,1/2-y,1/2+z
x,1/2-y,1/2-z
-x,1/2+y,1/2-z
-x,1/2-y,1/2-z
x,1/2+y,1/2-z
-x,1/2+y,1/2+z
x,1/2-y,1/2+z
1/2+x,y,1/2+z
1/2-x,-y,1/2+z
1/2+x,-y,1/2-z
1/2-x,y,1/2-z
1/2-x,-y,1/2-z
1/2+x,y,1/2-z
1/2-x,y,1/2+z
1/2+x,-y,1/2+z
1/2+x,1/2+y,z
1/2-x,1/2-y,z
1/2+x,1/2-y,-z
1/2-x,1/2+y,-z
1/2-x,1/2-y,-z
1/2+x,1/2+y,-z
1/2-x,1/2+y,z
1/2+x,1/2-y,z
loop_
_atom_site_type_symbol
_atom_site_label
_atom_site_fract_x
_atom_site_fract_y
_atom_site_fract_z
Si Si1 0.500000 0.913959 0.709543
Si Si2 0.066735 0.915833 0.082136
Si Si3 0.334918 0.416295 0.409094
Si Si4 0.156777 0.659968 0.586825
Si Si5 0.749305 0.834128 0.339804
Si Si6 0.095084 0.295356 0.909156
Si Si7 0.500000 0.798188 0.174675
O O1 0.541592 0.889495 0.656356
O O2 0.500000 0.877992 0.790174
O O3 0.500000 0.000000 0.716706
O O4 0.119465 0.901887 0.088992
O O5 0.056541 0.000000 0.078500
O O6 0.053176 0.884065 0.000000
O O7 0.330799 0.413340 0.500000
O O8 0.338024 0.500000 0.386849
O O9 0.291104 0.377568 0.374172
O O10 0.379176 0.369339 0.388896
O O11 0.169899 0.673375 0.500000
O O12 0.200874 0.639576 0.631937
O O13 0.129374 0.730877 0.613361
O O14 0.750000 0.837749 0.250000
O O15 0.750000 0.750000 0.362848
O O16 0.046063 0.287513 0.871963
O O17 0.090461 0.291977 0.000000
O O18 0.500000 0.750000 0.250000
#
# Coordination Sequence:
#
# PCOD9512683 Si02
#       7
#    16  32  32  32  32  32  16
#     4  10  21  37  55  81 117 159 191 227 296 362
#     4   9  18  34  57  85 116 151 194 240 286 347
#     4  10  22  41  65  90 117 157 209 257 298 349
#     4  10  20  36  61  86 112 151 198 244 292 348
#     4  11  23  38  59  89 123 159 194 236 300 370
#     4  10  22  41  62  84 114 156 203 249 299 354
#     4  12  25  38  59  90 122 153 196 253 300 357
#
# _framework density 19.613558000000001
#
# number of rings (size 3 to 8) (size 9 to 14) (size 15 to 20)
#    0.000    1.833    1.667    2.000    0.000    6.000 
#    0.000    6.667    0.000    2.500    0.000    0.000 
#    0.000    0.000    0.000    0.000    0.000    0.000 
#
# Total GULP energy -267899.181431 kJ/mol
# GULP energy per Si atom -5581.232946 kJ/mol
# Density = 1.956892 g / cm^3
# Si number density = 19.613558 Si / 1000 Ang^3
#
#
#
# Elastic Constant Matrix: (Units=GPa)
#
#
# Indices 1 2 3 4 5 6 
#
# 1 149.7380 34.3058 42.0223 0.0000 0.0000 0.0000
# 2 34.3058 86.2158 15.4550 0.0000 0.0000 0.0000
# 3 42.0223 15.4550 37.5877 0.0000 0.0000 0.0000
# 4 0.0000 0.0000 0.0000 24.1575 0.0000 0.0000
# 5 0.0000 0.0000 0.0000 0.0000 39.9059 0.0000
# 6 0.0000 0.0000 0.0000 0.0000 0.0000 25.5950
#
#
#
# Elastic Compliance Matrix: (Units=1/GPa)
#
#
# Indices 1 2 3 4 5 6 
#
# 1 0.010088 -0.002151 -0.010394 0.000000 0.000000 0.000000
# 2 -0.002151 0.012980 -0.002932 0.000000 0.000000 0.000000
# 3 -0.010394 -0.002932 0.039430 0.000000 0.000000 0.000000
# 4 0.000000 0.000000 0.000000 0.041395 0.000000 0.000000
# 5 0.000000 0.000000 0.000000 0.000000 0.025059 0.000000
# 6 0.000000 0.000000 0.000000 0.000000 0.000000 0.039070
#
#
# Mechanical properties :
#
#
# Convention : Reuss Voigt Hill
#
# Bulk Modulus (GPa) = 31.70150 50.78973 41.24562
# Shear Modulus (GPa) = 23.86725 30.04888 26.95807
#
# Velocity S-wave (km/s) = 3.49216 3.91838 3.71139
# Velocity P-wave (km/s) = 5.69722 6.81345 6.28018
#
# Compressibility (1/GPa) = 0.03154425
#
# Stress axis : x y z
#
# Youngs Moduli (GPa) = 99.12747 77.03961 25.36120
#
# Poissons Ratio (x) = 0.16570 0.26360
# Poissons Ratio (y) = 0.21321 0.07437
# Poissons Ratio (z) = 1.03031 0.22592
#
# Static dielectric constant tensor:
#      x y z
#    x 1.675650 0.000000 0.000000 
#    y 0.000000 1.743070 0.000000 
#    z 0.000000 0.000000 1.724410 
# 
# From -- ./inp_files/23693.got.cif
#   From: 2010.05.17/outbox.cif.g08.bks.cpg/sg69_12_cif.got.tgz:23693.got - 2010.06.03 19:29:58.
