data_PCOD9512792
_publ_section_title
;
Structure prediction by ZEFSAII (Michael W. Deem and Ramdas Pophale) SiO2 
 PCOD9512792
Probable space group: F M M M
;
_chemical_formula_sum "Si O2"
_cell_formula_units_Z 120
_cell_length_a 19.824122
_cell_length_b 13.750865
_cell_length_c 22.057161
_cell_angle_alpha 90.000000
_cell_angle_beta 90.000000
_cell_angle_gamma 90.000000
_cell_volume 6012.756179
_symmetry_space_group_name_H-M "F M M M"
_symmetry_group_IT_number 69
_symmetry_cell_setting 'orthorhombic'
loop_
_space_group_symop_operation_xyz
x,y,z
-x,-y,z
x,-y,-z
-x,y,-z
-x,-y,-z
x,y,-z
-x,y,z
x,-y,z
x,1/2+y,1/2+z
-x,1/2-y,1/2+z
x,1/2-y,1/2-z
-x,1/2+y,1/2-z
-x,1/2-y,1/2-z
x,1/2+y,1/2-z
-x,1/2+y,1/2+z
x,1/2-y,1/2+z
1/2+x,y,1/2+z
1/2-x,-y,1/2+z
1/2+x,-y,1/2-z
1/2-x,y,1/2-z
1/2-x,-y,1/2-z
1/2+x,y,1/2-z
1/2-x,y,1/2+z
1/2+x,-y,1/2+z
1/2+x,1/2+y,z
1/2-x,1/2-y,z
1/2+x,1/2-y,-z
1/2-x,1/2+y,-z
1/2-x,1/2-y,-z
1/2+x,1/2+y,-z
1/2-x,1/2+y,z
1/2+x,1/2-y,z
loop_
_atom_site_type_symbol
_atom_site_label
_atom_site_fract_x
_atom_site_fract_y
_atom_site_fract_z
Si Si1 0.671517 0.281336 0.933952
Si Si2 0.766161 0.000000 0.318981
Si Si3 0.361152 0.317629 0.311052
Si Si4 0.500000 0.000000 0.649194
Si Si5 0.854815 0.500000 0.407544
Si Si6 0.000000 0.137058 0.262227
O O1 0.750000 0.250000 0.928296
O O2 0.634695 0.247487 0.871952
O O3 0.663598 0.397475 0.937202
O O4 0.647589 0.241695 0.000000
O O5 0.750000 0.000000 0.250000
O O6 0.806510 0.899738 0.328359
O O7 0.694262 0.000000 0.350249
O O8 0.346690 0.250000 0.250000
O O9 0.429908 0.377025 0.297013
O O10 0.433038 0.000000 0.609681
O O11 0.500000 0.087775 0.697046
O O12 0.000000 0.250000 0.250000
#
# Coordination Sequence:
#
# PCOD9512792 Si02
#       6
#    32  16  32   8  16  16
#     4  11  24  43  65  95 131 171 218 276 335 385
#     4  12  22  34  60  95 122 162 218 271 316 377
#     4  11  23  39  63  94 129 170 220 269 325 386
#     4  12  24  42  65 100 141 172 208 270 344 390
#     4  12  23  42  65  95 128 174 220 266 330 392
#     4  10  20  38  58  90 133 174 203 253 326 389
#
# _framework density 19.95757
#
# number of rings (size 3 to 8) (size 9 to 14) (size 15 to 20)
#    0.000    0.800    2.667    7.600    0.000    0.000 
#    0.000    4.000    0.000    0.000    0.000    2.800 
#    0.000    0.000    0.000    0.000    0.000    0.000 
#
# Total GULP energy -167201.564913 kJ/mol
# GULP energy per Si atom -5573.385497 kJ/mol
# Density = 1.991215 g / cm^3
# Si number density = 19.957570 Si / 1000 Ang^3
#
#
#
# Elastic Constant Matrix: (Units=GPa)
#
#
# Indices 1 2 3 4 5 6 
#
# 1 114.0776 21.9781 22.3856 0.0000 0.0000 0.0000
# 2 21.9781 116.1260 27.2723 0.0000 0.0000 0.0000
# 3 22.3856 27.2723 140.8802 0.0000 0.0000 0.0000
# 4 0.0000 0.0000 0.0000 5.5047 0.0000 0.0000
# 5 0.0000 0.0000 0.0000 0.0000 -57.9182 0.0000
# 6 0.0000 0.0000 0.0000 0.0000 0.0000 25.1696
#
#
#
# Elastic Compliance Matrix: (Units=1/GPa)
#
#
# Indices 1 2 3 4 5 6 
#
# 1 0.009284 -0.001478 -0.001189 0.000000 0.000000 0.000000
# 2 -0.001478 0.009257 -0.001557 0.000000 0.000000 0.000000
# 3 -0.001189 -0.001557 0.007589 0.000000 0.000000 0.000000
# 4 0.000000 0.000000 0.000000 0.181664 0.000000 0.000000
# 5 0.000000 0.000000 0.000000 0.000000 -0.017266 0.000000
# 6 0.000000 0.000000 0.000000 0.000000 0.000000 0.039730
#
#
# Mechanical properties :
#
#
# Convention : Reuss Voigt Hill
#
# Bulk Modulus (GPa) = 56.55736 57.15066 56.85401
# Shear Modulus (GPa) = 20.44149 14.51439 17.47794
#
# Velocity S-wave (km/s) = 3.20386 2.69971 2.96253
# Velocity P-wave (km/s) = 6.48742 6.19807 6.34440
#
# Compressibility (1/GPa) = 0.01768117
#
# Stress axis : x y z
#
# Youngs Moduli (GPa) = 107.71190 108.02948 131.77631
#
# Poissons Ratio (x) = 0.15965 0.15670
# Poissons Ratio (y) = 0.15918 0.20519
# Poissons Ratio (z) = 0.12808 0.16822
#
# Static dielectric constant tensor:
#      x y z
#    x 1.782260 0.000000 0.000000 
#    y 0.000000 1.719270 0.000000 
#    z 0.000000 0.000000 1.723410 
# 
# From -- ./inp_files/16288.got.cif
#   From: 2010.05.17/outbox.cif.g08.bks.cpg/sg69_9_cif.got.tgz:16288.got - 2010.06.03 19:29:58.
