data_PCOD9512014
_publ_section_title
;
Structure prediction by ZEFSAII (Michael W. Deem and Ramdas Pophale) SiO2 
 PCOD9512014
Probable space group: F M M M
;
_chemical_formula_sum "Si O2"
_cell_formula_units_Z 192
_cell_length_a 18.678895
_cell_length_b 20.078201
_cell_length_c 27.958138
_cell_angle_alpha 90.000000
_cell_angle_beta 90.000000
_cell_angle_gamma 90.000000
_cell_volume 10485.381165
_symmetry_space_group_name_H-M "F M M M"
_symmetry_group_IT_number 69
_symmetry_cell_setting 'orthorhombic'
loop_
_space_group_symop_operation_xyz
x,y,z
-x,-y,z
x,-y,-z
-x,y,-z
-x,-y,-z
x,y,-z
-x,y,z
x,-y,z
x,1/2+y,1/2+z
-x,1/2-y,1/2+z
x,1/2-y,1/2-z
-x,1/2+y,1/2-z
-x,1/2-y,1/2-z
x,1/2+y,1/2-z
-x,1/2+y,1/2+z
x,1/2-y,1/2+z
1/2+x,y,1/2+z
1/2-x,-y,1/2+z
1/2+x,-y,1/2-z
1/2-x,y,1/2-z
1/2-x,-y,1/2-z
1/2+x,y,1/2-z
1/2-x,y,1/2+z
1/2+x,-y,1/2+z
1/2+x,1/2+y,z
1/2-x,1/2-y,z
1/2+x,1/2-y,-z
1/2-x,1/2+y,-z
1/2-x,1/2-y,-z
1/2+x,1/2+y,-z
1/2-x,1/2+y,z
1/2+x,1/2-y,z
loop_
_atom_site_type_symbol
_atom_site_label
_atom_site_fract_x
_atom_site_fract_y
_atom_site_fract_z
Si Si1 0.136936 0.366443 0.349690
Si Si2 0.920350 0.265016 0.806048
Si Si3 0.914795 0.676517 0.445327
Si Si4 0.302132 0.364092 0.653025
Si Si5 0.817513 0.699565 0.945172
Si Si6 0.815179 0.000000 0.289066
Si Si7 0.585423 0.500000 0.797816
O O1 0.088371 0.305688 0.332005
O O2 0.123835 0.369402 0.406458
O O3 0.218734 0.347156 0.338803
O O4 0.115961 0.434397 0.323822
O O5 0.914023 0.250000 0.750000
O O6 0.857447 0.313453 0.822661
O O7 0.000000 0.292625 0.815580
O O8 0.896605 0.658410 0.500000
O O9 0.885616 0.751743 0.438355
O O10 0.000000 0.673376 0.439491
O O11 0.314545 0.355376 0.596097
O O12 0.312080 0.435614 0.677248
O O13 0.750000 0.750000 0.939055
O O14 0.816299 0.675300 0.000000
O O15 0.750000 0.000000 0.250000
O O16 0.885644 0.000000 0.256227
O O17 0.500000 0.500000 0.800138
#
# Coordination Sequence:
#
# PCOD9512014 Si02
#       7
#    32  32  32  32  32  16  16
#     4  12  22  39  61  91 123 164 213 254 314 374
#     4  11  24  38  58  90 124 156 209 270 316 371
#     4  10  20  35  58  90 127 162 201 255 314 371
#     4  12  23  39  63  89 122 170 207 261 318 369
#     4  10  19  35  60  91 124 159 203 251 309 371
#     4  12  26  46  61  85 123 168 217 253 307 392
#     4  12  26  44  67  88 123 172 211 260 314 373
#
# _framework density 18.311208000000001
#
# number of rings (size 3 to 8) (size 9 to 14) (size 15 to 20)
#    0.000    0.833    5.000    3.000    0.000    2.667 
#    0.000    0.833    0.000    3.500    0.000    0.000 
#    0.000    4.667    0.000    0.000    0.000    0.000 
#
# Total GULP energy -268128.309660 kJ/mol
# GULP energy per Si atom -5586.006451 kJ/mol
# Density = 1.826953 g / cm^3
# Si number density = 18.311208 Si / 1000 Ang^3
#
#
#
# Elastic Constant Matrix: (Units=GPa)
#
#
# Indices 1 2 3 4 5 6 
#
# 1 129.7845 30.7416 42.3212 0.0000 0.0000 0.0000
# 2 30.7416 85.5560 59.7959 0.0000 0.0000 0.0000
# 3 42.3212 59.7959 139.0819 0.0000 0.0000 0.0000
# 4 0.0000 0.0000 0.0000 37.7785 0.0000 0.0000
# 5 0.0000 0.0000 0.0000 0.0000 27.1149 0.0000
# 6 0.0000 0.0000 0.0000 0.0000 0.0000 15.2006
#
#
#
# Elastic Compliance Matrix: (Units=1/GPa)
#
#
# Indices 1 2 3 4 5 6 
#
# 1 0.008751 -0.001834 -0.001874 0.000000 0.000000 0.000000
# 2 -0.001834 0.017094 -0.006791 0.000000 0.000000 0.000000
# 3 -0.001874 -0.006791 0.010680 0.000000 0.000000 0.000000
# 4 0.000000 0.000000 0.000000 0.026470 0.000000 0.000000
# 5 0.000000 0.000000 0.000000 0.000000 0.036880 0.000000
# 6 0.000000 0.000000 0.000000 0.000000 0.000000 0.065787
#
#
# Mechanical properties :
#
#
# Convention : Reuss Voigt Hill
#
# Bulk Modulus (GPa) = 64.41067 68.90442 66.65754
# Shear Modulus (GPa) = 26.06403 30.78971 28.42687
#
# Velocity S-wave (km/s) = 3.77688 4.10502 3.94436
# Velocity P-wave (km/s) = 7.36693 7.75755 7.56476
#
# Compressibility (1/GPa) = 0.01552538
#
# Stress axis : x y z
#
# Youngs Moduli (GPa) = 114.27637 58.50139 93.63395
#
# Poissons Ratio (x) = 0.10732 0.17547
# Poissons Ratio (y) = 0.20964 0.63586
# Poissons Ratio (z) = 0.21416 0.39728
#
# Static dielectric constant tensor:
#      x y z
#    x 1.653940 0.000000 0.000000 
#    y 0.000000 1.592860 0.000000 
#    z 0.000000 0.000000 1.686030 
# 
# From -- ./inp_files/46438.got.cif
#   From: 2010.05.17/outbox.cif.g08.bks.cpg/sg69_24_cif.got.tgz:46438.got - 2010.06.03 19:29:58.
