data_PCOD9512991
_publ_section_title
;
Structure prediction by ZEFSAII (Michael W. Deem and Ramdas Pophale) SiO2 
 PCOD9512991
Probable space group: F M M M
;
_chemical_formula_sum "Si O2"
_cell_formula_units_Z 208
_cell_length_a 34.726086
_cell_length_b 15.784859
_cell_length_c 21.221114
_cell_angle_alpha 90.000000
_cell_angle_beta 90.000000
_cell_angle_gamma 90.000000
_cell_volume 11632.276630
_symmetry_space_group_name_H-M "F M M M"
_symmetry_group_IT_number 69
_symmetry_cell_setting 'orthorhombic'
loop_
_space_group_symop_operation_xyz
x,y,z
-x,-y,z
x,-y,-z
-x,y,-z
-x,-y,-z
x,y,-z
-x,y,z
x,-y,z
x,1/2+y,1/2+z
-x,1/2-y,1/2+z
x,1/2-y,1/2-z
-x,1/2+y,1/2-z
-x,1/2-y,1/2-z
x,1/2+y,1/2-z
-x,1/2+y,1/2+z
x,1/2-y,1/2+z
1/2+x,y,1/2+z
1/2-x,-y,1/2+z
1/2+x,-y,1/2-z
1/2-x,y,1/2-z
1/2-x,-y,1/2-z
1/2+x,y,1/2-z
1/2-x,y,1/2+z
1/2+x,-y,1/2+z
1/2+x,1/2+y,z
1/2-x,1/2-y,z
1/2+x,1/2-y,-z
1/2-x,1/2+y,-z
1/2-x,1/2-y,-z
1/2+x,1/2+y,-z
1/2-x,1/2+y,z
1/2+x,1/2-y,z
loop_
_atom_site_type_symbol
_atom_site_label
_atom_site_fract_x
_atom_site_fract_y
_atom_site_fract_z
Si Si1 0.840380 0.406026 0.801823
Si Si2 0.850763 0.396204 0.000000
Si Si3 0.756030 0.402205 0.139958
Si Si4 0.377892 0.216418 0.881977
Si Si5 0.316918 0.683764 0.808517
Si Si6 0.738661 0.849385 0.000000
Si Si7 0.044305 0.689614 0.076684
Si Si8 0.046207 0.000000 0.428983
O O1 0.850253 0.500000 0.822009
O O2 0.800211 0.384132 0.839092
O O3 0.873946 0.342717 0.820936
O O4 0.832898 0.398318 0.727829
O O5 0.867806 0.347434 0.060609
O O6 0.806561 0.368272 0.000000
O O7 0.853021 0.500000 0.000000
O O8 0.749260 0.500000 0.158591
O O9 0.726043 0.338716 0.171419
O O10 0.748764 0.390918 0.065635
O O11 0.344694 0.285216 0.865159
O O12 0.421161 0.246144 0.895886
O O13 0.316553 0.750000 0.750000
O O14 0.750000 0.750000 0.000000
O O15 0.054191 0.592696 0.098186
O O16 0.000000 0.709048 0.094187
O O17 0.045603 0.690143 0.000000
O O18 0.062900 0.000000 0.500000
O O19 0.000000 0.000000 0.434970
#
# Coordination Sequence:
#
# PCOD9512991 Si02
#       8
#    32  16  32  32  32  16  32  16
#     4  10  21  36  55  74  98 137 184 224 258 296
#     4  12  22  34  49  74 112 140 167 205 258 325
#     4  11  22  38  57  77 104 140 180 219 262 311
#     4  11  21  32  51  78 106 139 168 207 261 314
#     4  10  23  37  52  72 102 136 184 226 258 294
#     4  12  24  36  54  77 107 139 172 213 267 319
#     4   9  17  29  47  73 106 135 164 200 251 322
#     4   7  12  22  38  64  96 130 157 184 230 295
#
# _framework density 17.88128
#
# number of rings (size 3 to 8) (size 9 to 14) (size 15 to 20)
#    0.000    1.769    2.308    3.923    4.308    3.077 
#    0.000    0.000    0.000    4.154    0.000    0.000 
#    0.000    1.846    0.000    6.769    0.000    0.000 
#
# Total GULP energy -289473.730536 kJ/mol
# GULP energy per Si atom -5566.802510 kJ/mol
# Density = 1.784058 g / cm^3
# Si number density = 17.881280 Si / 1000 Ang^3
#
#
#
# Elastic Constant Matrix: (Units=GPa)
#
#
# Indices 1 2 3 4 5 6 
#
# 1 105.5308 29.8266 20.9248 0.0000 0.0000 0.0000
# 2 29.8266 49.7869 15.3861 0.0000 0.0000 0.0000
# 3 20.9248 15.3861 56.9864 0.0000 0.0000 0.0000
# 4 0.0000 0.0000 0.0000 20.8050 0.0000 0.0000
# 5 0.0000 0.0000 0.0000 0.0000 18.9258 0.0000
# 6 0.0000 0.0000 0.0000 0.0000 0.0000 18.0871
#
#
#
# Elastic Compliance Matrix: (Units=1/GPa)
#
#
# Indices 1 2 3 4 5 6 
#
# 1 0.011759 -0.006230 -0.002636 0.000000 0.000000 0.000000
# 2 -0.006230 0.025215 -0.004520 0.000000 0.000000 0.000000
# 3 -0.002636 -0.004520 0.019736 0.000000 0.000000 0.000000
# 4 0.000000 0.000000 0.000000 0.048065 0.000000 0.000000
# 5 0.000000 0.000000 0.000000 0.000000 0.052838 0.000000
# 6 0.000000 0.000000 0.000000 0.000000 0.000000 0.055288
#
#
# Mechanical properties :
#
#
# Convention : Reuss Voigt Hill
#
# Bulk Modulus (GPa) = 33.40228 38.28657 35.84442
# Shear Modulus (GPa) = 20.02770 21.30802 20.66786
#
# Velocity S-wave (km/s) = 3.35033 3.45576 3.40345
# Velocity P-wave (km/s) = 5.80404 6.11400 5.96103
#
# Compressibility (1/GPa) = 0.02993808
#
# Stress axis : x y z
#
# Youngs Moduli (GPa) = 85.03802 39.65878 50.66794
#
# Poissons Ratio (x) = 0.24709 0.13355
# Poissons Ratio (y) = 0.52982 0.22903
# Poissons Ratio (z) = 0.22414 0.17927
#
# Static dielectric constant tensor:
#      x y z
#    x 1.652050 0.000000 0.000000 
#    y 0.000000 1.706420 0.000000 
#    z 0.000000 0.000000 1.672660 
# 
# From -- ./inp_files/34029.got.cif
#   From: 2010.05.17/outbox.cif.g08.bks.cpg/sg69_18_cif.got.tgz:34029.got - 2010.06.03 19:29:58.
