data_PCOD9512630
_publ_section_title
;
Structure prediction by ZEFSAII (Michael W. Deem and Ramdas Pophale) SiO2 
 PCOD9512630
Probable space group: F M M M
;
_chemical_formula_sum "Si O2"
_cell_formula_units_Z 112
_cell_length_a 18.790095
_cell_length_b 20.732408
_cell_length_c 14.911681
_cell_angle_alpha 90.000000
_cell_angle_beta 90.000000
_cell_angle_gamma 90.000000
_cell_volume 5809.052843
_symmetry_space_group_name_H-M "F M M M"
_symmetry_group_IT_number 69
_symmetry_cell_setting 'orthorhombic'
loop_
_space_group_symop_operation_xyz
x,y,z
-x,-y,z
x,-y,-z
-x,y,-z
-x,-y,-z
x,y,-z
-x,y,z
x,-y,z
x,1/2+y,1/2+z
-x,1/2-y,1/2+z
x,1/2-y,1/2-z
-x,1/2+y,1/2-z
-x,1/2-y,1/2-z
x,1/2+y,1/2-z
-x,1/2+y,1/2+z
x,1/2-y,1/2+z
1/2+x,y,1/2+z
1/2-x,-y,1/2+z
1/2+x,-y,1/2-z
1/2-x,y,1/2-z
1/2-x,-y,1/2-z
1/2+x,y,1/2-z
1/2-x,y,1/2+z
1/2+x,-y,1/2+z
1/2+x,1/2+y,z
1/2-x,1/2-y,z
1/2+x,1/2-y,-z
1/2-x,1/2+y,-z
1/2-x,1/2-y,-z
1/2+x,1/2+y,-z
1/2-x,1/2+y,z
1/2+x,1/2-y,z
loop_
_atom_site_type_symbol
_atom_site_label
_atom_site_fract_x
_atom_site_fract_y
_atom_site_fract_z
Si Si1 0.809414 0.570006 0.000000
Si Si2 0.583166 0.424055 0.832829
Si Si3 0.419137 0.263562 0.500000
Si Si4 0.834919 0.365792 0.500000
Si Si5 0.581946 0.879172 0.136417
O O1 0.861076 0.577659 0.915147
O O2 0.774057 0.500000 0.000000
O O3 0.749433 0.624379 0.000000
O O4 0.500000 0.416705 0.858760
O O5 0.594818 0.500000 0.813661
O O6 0.632508 0.400087 0.912514
O O7 0.594696 0.383321 0.742106
O O8 0.500000 0.236835 0.500000
O O9 0.362284 0.207267 0.500000
O O10 0.412501 0.310079 0.413168
O O11 0.500000 0.901193 0.121543
#
# Coordination Sequence:
#
# PCOD9512630 Si02
#       5
#    16  32  16  16  32
#     4  11  22  36  57  84 117 153 186 234 291 339
#     4  10  20  36  58  83 113 150 193 239 282 330
#     4   9  19  38  61  85 114 148 190 239 285 332
#     4  12  24  35  52  83 123 160 188 217 273 351
#     4   9  20  38  61  86 108 141 194 247 289 328
#
# _framework density 19.280251
#
# number of rings (size 3 to 8) (size 9 to 14) (size 15 to 20)
#    0.000    2.000    0.000    4.714    0.000    8.000 
#    0.000    7.143    0.000    6.857    0.000    0.000 
#    0.000    0.000    0.000    0.000    0.000    0.000 
#
# Total GULP energy -156320.919630 kJ/mol
# GULP energy per Si atom -5582.889987 kJ/mol
# Density = 1.923637 g / cm^3
# Si number density = 19.280251 Si / 1000 Ang^3
#
#
#
# Elastic Constant Matrix: (Units=GPa)
#
#
# Indices 1 2 3 4 5 6 
#
# 1 89.3892 40.5770 63.1193 0.0000 0.0000 0.0000
# 2 40.5770 81.7862 27.1746 0.0000 0.0000 0.0000
# 3 63.1193 27.1746 126.7619 0.0000 0.0000 0.0000
# 4 0.0000 0.0000 0.0000 21.9172 0.0000 0.0000
# 5 0.0000 0.0000 0.0000 0.0000 19.2328 0.0000
# 6 0.0000 0.0000 0.0000 0.0000 0.0000 31.5457
#
#
#
# Elastic Compliance Matrix: (Units=1/GPa)
#
#
# Indices 1 2 3 4 5 6 
#
# 1 0.020691 -0.007367 -0.008723 0.000000 0.000000 0.000000
# 2 -0.007367 0.015788 0.000284 0.000000 0.000000 0.000000
# 3 -0.008723 0.000284 0.012172 0.000000 0.000000 0.000000
# 4 0.000000 0.000000 0.000000 0.045626 0.000000 0.000000
# 5 0.000000 0.000000 0.000000 0.000000 0.051995 0.000000
# 6 0.000000 0.000000 0.000000 0.000000 0.000000 0.031700
#
#
# Mechanical properties :
#
#
# Convention : Reuss Voigt Hill
#
# Bulk Modulus (GPa) = 58.69569 62.18659 60.44114
# Shear Modulus (GPa) = 23.22730 25.67689 24.45209
#
# Velocity S-wave (km/s) = 3.47467 3.65330 3.56511
# Velocity P-wave (km/s) = 6.82696 7.07952 6.95438
#
# Compressibility (1/GPa) = 0.01703703
#
# Stress axis : x y z
#
# Youngs Moduli (GPa) = 48.33015 63.34028 82.15777
#
# Poissons Ratio (x) = 0.46663 0.71670
# Poissons Ratio (y) = 0.35605 -0.02332
# Poissons Ratio (z) = 0.42161 -0.01798
#
# Static dielectric constant tensor:
#      x y z
#    x 1.657250 0.000000 0.000000 
#    y 0.000000 1.672840 0.000000 
#    z 0.000000 0.000000 1.648810 
# 
# From -- ./inp_files/14097.got.cif
#   From: 2010.05.17/outbox.cif.g08.bks.cpg/sg69_8_cif.got.tgz:14097.got - 2010.06.03 19:29:58.
