data_PCOD9512568
_publ_section_title
;
Structure prediction by ZEFSAII (Michael W. Deem and Ramdas Pophale) SiO2 
 PCOD9512568
Probable space group: F M M M
;
_chemical_formula_sum "Si O2"
_cell_formula_units_Z 176
_cell_length_a 24.927520
_cell_length_b 13.960314
_cell_length_c 23.818885
_cell_angle_alpha 90.000000
_cell_angle_beta 90.000000
_cell_angle_gamma 90.000000
_cell_volume 8288.876858
_symmetry_space_group_name_H-M "F M M M"
_symmetry_group_IT_number 69
_symmetry_cell_setting 'orthorhombic'
loop_
_space_group_symop_operation_xyz
x,y,z
-x,-y,z
x,-y,-z
-x,y,-z
-x,-y,-z
x,y,-z
-x,y,z
x,-y,z
x,1/2+y,1/2+z
-x,1/2-y,1/2+z
x,1/2-y,1/2-z
-x,1/2+y,1/2-z
-x,1/2-y,1/2-z
x,1/2+y,1/2-z
-x,1/2+y,1/2+z
x,1/2-y,1/2+z
1/2+x,y,1/2+z
1/2-x,-y,1/2+z
1/2+x,-y,1/2-z
1/2-x,y,1/2-z
1/2-x,-y,1/2-z
1/2+x,y,1/2-z
1/2-x,y,1/2+z
1/2+x,-y,1/2+z
1/2+x,1/2+y,z
1/2-x,1/2-y,z
1/2+x,1/2-y,-z
1/2-x,1/2+y,-z
1/2-x,1/2-y,-z
1/2+x,1/2+y,-z
1/2-x,1/2+y,z
1/2+x,1/2-y,z
loop_
_atom_site_type_symbol
_atom_site_label
_atom_site_fract_x
_atom_site_fract_y
_atom_site_fract_z
Si Si1 0.090821 0.383692 0.221283
Si Si2 0.250000 0.750000 0.398981
Si Si3 0.368104 0.217099 0.438264
Si Si4 0.787925 0.114216 0.697567
Si Si5 0.939451 0.384254 0.653909
Si Si6 0.939986 0.886560 0.403187
O O1 0.089935 0.500000 0.224747
O O2 0.152049 0.352794 0.211537
O O3 0.069760 0.350893 0.281714
O O4 0.060826 0.361501 0.163394
O O5 0.304148 0.775425 0.431723
O O6 0.234222 0.836549 0.357681
O O7 0.381387 0.178109 0.500000
O O8 0.395323 0.156976 0.388267
O O9 0.395383 0.321617 0.431910
O O10 0.750000 0.136044 0.750000
O O11 0.789291 0.000000 0.690258
O O12 0.936079 0.500000 0.653616
O O13 0.000000 0.357591 0.636330
O O14 0.000000 0.868845 0.425104
O O15 0.928639 0.000000 0.408242
#
# Coordination Sequence:
#
# PCOD9512568 Si02
#       6
#    32  16  32  32  32  32
#     4   9  17  35  62  95 128 154 192 246 308 380
#     4  12  24  42  64  84 122 167 215 262 312 356
#     4  12  27  44  62  87 121 168 224 268 304 356
#     4  10  20  35  60  93 127 162 198 244 308 381
#     4  10  22  41  66  96 130 166 203 250 310 376
#     4  10  21  40  67  96 125 157 197 254 322 383
#
# _framework density 21.233274000000002
#
# number of rings (size 3 to 8) (size 9 to 14) (size 15 to 20)
#    0.000    1.636    1.818    2.727    0.000    7.273 
#    0.000    3.636    0.000    3.273    0.000    0.000 
#    0.000    0.000    0.000    0.000    0.000    0.000 
#
# Total GULP energy -246085.751426 kJ/mol
# GULP energy per Si atom -5592.857987 kJ/mol
# Density = 2.118495 g / cm^3
# Si number density = 21.233274 Si / 1000 Ang^3
#
#
#
# Elastic Constant Matrix: (Units=GPa)
#
#
# Indices 1 2 3 4 5 6 
#
# 1 139.4281 16.8386 27.3706 0.0000 0.0000 0.0000
# 2 16.8386 60.4133 8.0497 0.0000 0.0000 0.0000
# 3 27.3706 8.0497 98.7045 0.0000 0.0000 0.0000
# 4 0.0000 0.0000 0.0000 12.0423 0.0000 0.0000
# 5 0.0000 0.0000 0.0000 0.0000 -1.3373 0.0000
# 6 0.0000 0.0000 0.0000 0.0000 0.0000 22.4251
#
#
#
# Elastic Compliance Matrix: (Units=1/GPa)
#
#
# Indices 1 2 3 4 5 6 
#
# 1 0.007796 -0.001906 -0.002006 0.000000 0.000000 0.000000
# 2 -0.001906 0.017200 -0.000874 0.000000 0.000000 0.000000
# 3 -0.002006 -0.000874 0.010759 0.000000 0.000000 0.000000
# 4 0.000000 0.000000 0.000000 0.083041 0.000000 0.000000
# 5 0.000000 0.000000 0.000000 0.000000 -0.747754 0.000000
# 6 0.000000 0.000000 0.000000 0.000000 0.000000 0.044593
#
#
# Mechanical properties :
#
#
# Convention : Reuss Voigt Hill
#
# Bulk Modulus (GPa) = 38.19329 44.78486 41.48908
# Shear Modulus (GPa) = -8.83292 23.04514 7.10611
#
# Velocity S-wave (km/s) = -2.04181 3.29801 1.83138
# Velocity P-wave (km/s) = 3.53099 5.96993 4.90449
#
# Compressibility (1/GPa) = 0.02618261
#
# Stress axis : x y z
#
# Youngs Moduli (GPa) = 128.26800 58.13856 92.94597
#
# Poissons Ratio (x) = 0.11079 0.18649
# Poissons Ratio (y) = 0.24443 0.08126
# Poissons Ratio (z) = 0.25736 0.05083
#
# Static dielectric constant tensor:
#      x y z
#    x 1.743100 0.000000 0.000000 
#    y 0.000000 1.799490 0.000000 
#    z 0.000000 0.000000 1.745080 
# 
# From -- ./inp_files/37843.got.cif
#   From: 2010.05.17/outbox.cif.g08.bks.cpg/sg69_19_cif.got.tgz:37843.got - 2010.06.03 19:29:58.
