data_PCOD9512753
_publ_section_title
;
Structure prediction by ZEFSAII (Michael W. Deem and Ramdas Pophale) SiO2 
 PCOD9512753
Probable space group: F M M M
;
_chemical_formula_sum "Si O2"
_cell_formula_units_Z 208
_cell_length_a 19.228964
_cell_length_b 18.583870
_cell_length_c 31.379473
_cell_angle_alpha 90.000000
_cell_angle_beta 90.000000
_cell_angle_gamma 90.000000
_cell_volume 11213.409716
_symmetry_space_group_name_H-M "F M M M"
_symmetry_group_IT_number 69
_symmetry_cell_setting 'orthorhombic'
loop_
_space_group_symop_operation_xyz
x,y,z
-x,-y,z
x,-y,-z
-x,y,-z
-x,-y,-z
x,y,-z
-x,y,z
x,-y,z
x,1/2+y,1/2+z
-x,1/2-y,1/2+z
x,1/2-y,1/2-z
-x,1/2+y,1/2-z
-x,1/2-y,1/2-z
x,1/2+y,1/2-z
-x,1/2+y,1/2+z
x,1/2-y,1/2+z
1/2+x,y,1/2+z
1/2-x,-y,1/2+z
1/2+x,-y,1/2-z
1/2-x,y,1/2-z
1/2-x,-y,1/2-z
1/2+x,y,1/2-z
1/2-x,y,1/2+z
1/2+x,-y,1/2+z
1/2+x,1/2+y,z
1/2-x,1/2-y,z
1/2+x,1/2-y,-z
1/2-x,1/2+y,-z
1/2-x,1/2-y,-z
1/2+x,1/2+y,-z
1/2-x,1/2+y,z
1/2+x,1/2-y,z
loop_
_atom_site_type_symbol
_atom_site_label
_atom_site_fract_x
_atom_site_fract_y
_atom_site_fract_z
Si Si1 0.818853 0.210679 0.130945
Si Si2 0.083833 0.769422 0.701717
Si Si3 0.323133 0.192665 0.954151
Si Si4 0.080372 0.913547 0.000000
Si Si5 0.196794 0.087380 0.929229
Si Si6 0.415510 0.077715 0.169065
Si Si7 0.582543 0.923060 0.070517
O O1 0.750000 0.250000 0.149283
O O2 0.879620 0.223540 0.164698
O O3 0.827097 0.254085 0.085931
O O4 0.811874 0.127754 0.116310
O O5 0.102037 0.750000 0.750000
O O6 0.106178 0.851803 0.693616
O O7 0.000000 0.764170 0.697271
O O8 0.262488 0.132190 0.948270
O O9 0.391819 0.145522 0.953501
O O10 0.317646 0.229310 0.000000
O O11 0.128773 0.897411 0.041294
O O12 0.000000 0.885031 0.000000
O O13 0.074140 0.000000 0.000000
O O14 0.206983 0.000000 0.927730
O O15 0.500000 0.077232 0.168912
O O16 0.393470 0.083508 0.119698
O O17 0.392250 0.000000 0.185647
O O18 0.500000 0.925097 0.070914
O O19 0.608064 0.000000 0.053706
#
# Coordination Sequence:
#
# PCOD9512753 Si02
#       7
#    32  32  32  16  32  32  32
#     4  10  23  38  56  81 113 147 180 229 283 338
#     4  10  20  37  61  85 109 143 187 234 285 341
#     4  11  21  33  53  79 112 152 187 224 272 327
#     4   9  18  34  55  76  99 137 187 234 277 318
#     4  10  21  37  56  78 108 144 187 233 277 326
#     4   8  14  28  51  78 108 139 173 218 272 333
#     4   9  17  29  47  74 110 148 182 216 257 314
#
# _framework density 18.549219000000001
#
# number of rings (size 3 to 8) (size 9 to 14) (size 15 to 20)
#    0.000    2.385    2.308    1.385    1.077    3.077 
#    0.000    1.538    0.000    0.923    0.000    3.231 
#    0.000    0.000    0.000    0.000    0.000    0.000 
#
# Total GULP energy -289576.620807 kJ/mol
# GULP energy per Si atom -5568.781169 kJ/mol
# Density = 1.850700 g / cm^3
# Si number density = 18.549219 Si / 1000 Ang^3
#
#
#
# Elastic Constant Matrix: (Units=GPa)
#
#
# Indices 1 2 3 4 5 6 
#
# 1 47.8486 11.6589 26.4805 0.0000 0.0000 0.0000
# 2 11.6589 79.1076 36.9731 0.0000 0.0000 0.0000
# 3 26.4805 36.9731 95.8501 0.0000 0.0000 0.0000
# 4 0.0000 0.0000 0.0000 -6.2286 0.0000 0.0000
# 5 0.0000 0.0000 0.0000 0.0000 16.9439 0.0000
# 6 0.0000 0.0000 0.0000 0.0000 0.0000 28.5732
#
#
#
# Elastic Compliance Matrix: (Units=1/GPa)
#
#
# Indices 1 2 3 4 5 6 
#
# 1 0.024691 -0.000550 -0.006609 0.000000 0.000000 0.000000
# 2 -0.000550 0.015433 -0.005801 0.000000 0.000000 0.000000
# 3 -0.006609 -0.005801 0.014497 0.000000 0.000000 0.000000
# 4 0.000000 0.000000 0.000000 -0.160550 0.000000 0.000000
# 5 0.000000 0.000000 0.000000 0.000000 0.059018 0.000000
# 6 0.000000 0.000000 0.000000 0.000000 0.000000 0.034998
#
#
# Mechanical properties :
#
#
# Convention : Reuss Voigt Hill
#
# Bulk Modulus (GPa) = 34.84311 41.44791 38.14551
# Shear Modulus (GPa) = 212.09119 17.70396 114.89758
#
# Velocity S-wave (km/s) = 10.70457 3.09274 7.87886
# Velocity P-wave (km/s) = 13.09995 5.92847 10.16749
#
# Compressibility (1/GPa) = 0.02870008
#
# Stress axis : x y z
#
# Youngs Moduli (GPa) = 40.50063 64.79422 68.98126
#
# Poissons Ratio (x) = 0.03563 0.45591
# Poissons Ratio (y) = 0.02227 0.40018
# Poissons Ratio (z) = 0.26768 0.37589
#
# Static dielectric constant tensor:
#      x y z
#    x 1.688260 0.000000 0.000000 
#    y 0.000000 1.689600 0.000000 
#    z 0.000000 0.000000 1.647540 
# 
# From -- ./inp_files/46521.got.cif
#   From: 2010.05.17/outbox.cif.g08.bks.cpg/sg69_24_cif.got.tgz:46521.got - 2010.06.03 19:29:58.
