data_PCOD9512492
_publ_section_title
;
Structure prediction by ZEFSAII (Michael W. Deem and Ramdas Pophale) SiO2 
 PCOD9512492
Probable space group: F M M M
;
_chemical_formula_sum "Si O2"
_cell_formula_units_Z 176
_cell_length_a 24.450321
_cell_length_b 30.691956
_cell_length_c 13.454789
_cell_angle_alpha 90.000000
_cell_angle_beta 90.000000
_cell_angle_gamma 90.000000
_cell_volume 10096.852772
_symmetry_space_group_name_H-M "F M M M"
_symmetry_group_IT_number 69
_symmetry_cell_setting 'orthorhombic'
loop_
_space_group_symop_operation_xyz
x,y,z
-x,-y,z
x,-y,-z
-x,y,-z
-x,-y,-z
x,y,-z
-x,y,z
x,-y,z
x,1/2+y,1/2+z
-x,1/2-y,1/2+z
x,1/2-y,1/2-z
-x,1/2+y,1/2-z
-x,1/2-y,1/2-z
x,1/2+y,1/2-z
-x,1/2+y,1/2+z
x,1/2-y,1/2+z
1/2+x,y,1/2+z
1/2-x,-y,1/2+z
1/2+x,-y,1/2-z
1/2-x,y,1/2-z
1/2-x,-y,1/2-z
1/2+x,y,1/2-z
1/2-x,y,1/2+z
1/2+x,-y,1/2+z
1/2+x,1/2+y,z
1/2-x,1/2-y,z
1/2+x,1/2-y,-z
1/2-x,1/2+y,-z
1/2-x,1/2-y,-z
1/2+x,1/2+y,-z
1/2-x,1/2+y,z
1/2+x,1/2-y,z
loop_
_atom_site_type_symbol
_atom_site_label
_atom_site_fract_x
_atom_site_fract_y
_atom_site_fract_z
Si Si1 0.343032 0.321765 0.299106
Si Si2 0.750000 0.613376 0.750000
Si Si3 0.936178 0.121185 0.384598
Si Si4 0.826478 0.448243 0.382192
Si Si5 0.939105 0.948181 0.223617
Si Si6 0.312234 0.735126 0.887710
O O1 0.292252 0.355198 0.308834
O O2 0.398220 0.347534 0.319579
O O3 0.334091 0.299645 0.191208
O O4 0.342827 0.280910 0.373590
O O5 0.785118 0.582559 0.677548
O O6 0.918925 0.120211 0.500000
O O7 0.931535 0.074740 0.329913
O O8 0.000000 0.133946 0.381395
O O9 0.821070 0.442189 0.500000
O O10 0.817356 0.500000 0.360674
O O11 0.888175 0.437028 0.346796
O O12 0.000000 0.935365 0.186267
O O13 0.938749 0.000000 0.234646
O O14 0.250000 0.750000 0.865044
O O15 0.314820 0.718890 0.000000
#
# Coordination Sequence:
#
# PCOD9512492 Si02
#       6
#    32  16  32  32  32  32
#     4  11  20  37  56  82 111 140 182 228 277 327
#     4  12  21  35  56  84 112 146 186 227 271 328
#     4  10  21  37  57  81 110 147 188 229 276 328
#     4  10  22  38  54  77 114 154 186 223 273 327
#     4   9  18  35  58  82 109 142 184 234 279 323
#     4  10  20  35  56  82 114 145 177 220 273 335
#
# _framework density 17.431173999999999
#
# number of rings (size 3 to 8) (size 9 to 14) (size 15 to 20)
#    0.000    1.818    3.636    1.364    0.000    2.909 
#    0.000    5.455    0.000    1.636    0.000    0.000 
#    0.000    0.000    0.000    0.000    0.000    0.000 
#
# Total GULP energy -245248.172109 kJ/mol
# GULP energy per Si atom -5573.822093 kJ/mol
# Density = 1.739150 g / cm^3
# Si number density = 17.431174 Si / 1000 Ang^3
#
#
#
# Elastic Constant Matrix: (Units=GPa)
#
#
# Indices 1 2 3 4 5 6 
#
# 1 86.8269 45.5045 48.9903 0.0000 0.0000 0.0000
# 2 45.5045 57.5723 31.7806 0.0000 0.0000 0.0000
# 3 48.9903 31.7806 96.3483 0.0000 0.0000 0.0000
# 4 0.0000 0.0000 0.0000 11.5191 0.0000 0.0000
# 5 0.0000 0.0000 0.0000 0.0000 26.5041 0.0000
# 6 0.0000 0.0000 0.0000 0.0000 0.0000 22.8434
#
#
#
# Elastic Compliance Matrix: (Units=1/GPa)
#
#
# Indices 1 2 3 4 5 6 
#
# 1 0.022920 -0.014283 -0.006943 0.000000 0.000000 0.000000
# 2 -0.014283 0.030137 -0.002678 0.000000 0.000000 0.000000
# 3 -0.006943 -0.002678 0.014793 0.000000 0.000000 0.000000
# 4 0.000000 0.000000 0.000000 0.086813 0.000000 0.000000
# 5 0.000000 0.000000 0.000000 0.000000 0.037730 0.000000
# 6 0.000000 0.000000 0.000000 0.000000 0.000000 0.043776
#
#
# Mechanical properties :
#
#
# Convention : Reuss Voigt Hill
#
# Bulk Modulus (GPa) = 49.89680 54.81092 52.35386
# Shear Modulus (GPa) = 17.20234 19.80478 18.50356
#
# Velocity S-wave (km/s) = 3.14486 3.37437 3.26163
# Velocity P-wave (km/s) = 6.47102 6.83332 6.65463
#
# Compressibility (1/GPa) = 0.02004136
#
# Stress axis : x y z
#
# Youngs Moduli (GPa) = 43.62968 33.18166 67.60110
#
# Poissons Ratio (x) = 0.47394 0.46935
# Poissons Ratio (y) = 0.62317 0.18105
# Poissons Ratio (z) = 0.30292 0.08887
#
# Static dielectric constant tensor:
#      x y z
#    x 1.614240 0.000000 0.000000 
#    y 0.000000 1.610480 0.000000 
#    z 0.000000 0.000000 1.579050 
# 
# From -- ./inp_files/18060.got.cif
#   From: 2010.05.17/outbox.cif.g08.bks.cpg/sg69_10_cif.got.tgz:18060.got - 2010.06.03 19:29:58.
