data_PCOD9512729
_publ_section_title
;
Structure prediction by ZEFSAII (Michael W. Deem and Ramdas Pophale) SiO2 
 PCOD9512729
Probable space group: F M M M
;
_chemical_formula_sum "Si O2"
_cell_formula_units_Z 88
_cell_length_a 8.276607
_cell_length_b 13.887491
_cell_length_c 36.170454
_cell_angle_alpha 90.000000
_cell_angle_beta 90.000000
_cell_angle_gamma 90.000000
_cell_volume 4157.479193
_symmetry_space_group_name_H-M "F M M M"
_symmetry_group_IT_number 69
_symmetry_cell_setting 'orthorhombic'
loop_
_space_group_symop_operation_xyz
x,y,z
-x,-y,z
x,-y,-z
-x,y,-z
-x,-y,-z
x,y,-z
-x,y,z
x,-y,z
x,1/2+y,1/2+z
-x,1/2-y,1/2+z
x,1/2-y,1/2-z
-x,1/2+y,1/2-z
-x,1/2-y,1/2-z
x,1/2+y,1/2-z
-x,1/2+y,1/2+z
x,1/2-y,1/2+z
1/2+x,y,1/2+z
1/2-x,-y,1/2+z
1/2+x,-y,1/2-z
1/2-x,y,1/2-z
1/2-x,-y,1/2-z
1/2+x,y,1/2-z
1/2-x,y,1/2+z
1/2+x,-y,1/2+z
1/2+x,1/2+y,z
1/2-x,1/2-y,z
1/2+x,1/2-y,-z
1/2-x,1/2+y,-z
1/2-x,1/2-y,-z
1/2+x,1/2+y,-z
1/2-x,1/2+y,z
1/2+x,1/2-y,z
loop_
_atom_site_type_symbol
_atom_site_label
_atom_site_fract_x
_atom_site_fract_y
_atom_site_fract_z
Si Si1 0.694571 0.859715 0.000000
Si Si2 0.250000 0.750000 0.750000
Si Si3 0.000000 0.116035 0.707445
Si Si4 0.680123 0.609322 0.080949
Si Si5 0.000000 0.615133 0.119325
O O1 0.750000 0.750000 0.000000
O O2 0.770203 0.897015 0.962033
O O3 0.500000 0.871866 0.000000
O O4 0.351881 0.823555 0.775381
O O5 0.000000 0.125449 0.663236
O O6 0.000000 0.000000 0.716102
O O7 0.500000 0.651993 0.084263
O O8 0.667404 0.500000 0.095424
O O9 0.834338 0.653788 0.101573
O O10 0.000000 0.500000 0.110581
#
# Coordination Sequence:
#
# PCOD9512729 Si02
#       5
#    16   8  16  32  16
#     4  12  23  36  51  76 111 154 201 255 312 366
#     4  10  22  42  68 104 128 176 226 250 332 408
#     4  10  21  43  69  99 139 172 214 275 323 393
#     4  10  20  37  59  83 112 153 205 252 303 374
#     4   9  19  38  61  87 120 161 202 253 323 379
#
# _framework density 21.166672999999999
#
# number of rings (size 3 to 8) (size 9 to 14) (size 15 to 20)
#    0.000    1.818    1.818    2.727    0.000    2.182 
#    9.818    0.000    0.000    0.000    0.000    0.000 
#    0.000    0.000    0.000    0.000    0.000    0.000 
#
# Total GULP energy -122721.374872 kJ/mol
# GULP energy per Si atom -5578.244312 kJ/mol
# Density = 2.111850 g / cm^3
# Si number density = 21.166673 Si / 1000 Ang^3
#
#
#
# Elastic Constant Matrix: (Units=GPa)
#
#
# Indices 1 2 3 4 5 6 
#
# 1 250.6968 66.1958 89.9796 0.0000 0.0000 0.0000
# 2 66.1958 132.4960 38.9582 0.0000 0.0000 0.0000
# 3 89.9796 38.9582 107.2244 0.0000 0.0000 0.0000
# 4 0.0000 0.0000 0.0000 79.7475 0.0000 0.0000
# 5 0.0000 0.0000 0.0000 0.0000 11.6050 0.0000
# 6 0.0000 0.0000 0.0000 0.0000 0.0000 27.4092
#
#
#
# Elastic Compliance Matrix: (Units=1/GPa)
#
#
# Indices 1 2 3 4 5 6 
#
# 1 0.006035 -0.001709 -0.004444 0.000000 0.000000 0.000000
# 2 -0.001709 0.008934 -0.001812 0.000000 0.000000 0.000000
# 3 -0.004444 -0.001812 0.013714 0.000000 0.000000 0.000000
# 4 0.000000 0.000000 0.000000 0.012540 0.000000 0.000000
# 5 0.000000 0.000000 0.000000 0.000000 0.086170 0.000000
# 6 0.000000 0.000000 0.000000 0.000000 0.000000 0.036484
#
#
# Mechanical properties :
#
#
# Convention : Reuss Voigt Hill
#
# Bulk Modulus (GPa) = 78.40845 97.85381 88.13113
# Shear Modulus (GPa) = 27.16571 43.43792 35.30181
#
# Velocity S-wave (km/s) = 3.58637 4.53502 4.08830
# Velocity P-wave (km/s) = 7.36703 8.58792 8.00080
#
# Compressibility (1/GPa) = 0.01275373
#
# Stress axis : x y z
#
# Youngs Moduli (GPa) = 165.70356 111.93396 72.92055
#
# Poissons Ratio (x) = 0.19124 0.32402
# Poissons Ratio (y) = 0.28311 0.13215
# Poissons Ratio (z) = 0.73631 0.20285
#
# Static dielectric constant tensor:
#      x y z
#    x 1.816790 0.000000 0.000000 
#    y 0.000000 1.770310 0.000000 
#    z 0.000000 0.000000 1.694060 
# 
# From -- ./inp_files/44200.got.cif
#   From: 2010.05.17/outbox.cif.g08.bks.cpg/sg69_23_cif.got.tgz:44200.got - 2010.06.03 19:29:58.
