data_PCOD9512845
_publ_section_title
;
Structure prediction by ZEFSAII (Michael W. Deem and Ramdas Pophale) SiO2 
 PCOD9512845
Probable space group: F M M M
;
_chemical_formula_sum "Si O2"
_cell_formula_units_Z 112
_cell_length_a 10.048385
_cell_length_b 24.518066
_cell_length_c 25.172491
_cell_angle_alpha 90.000000
_cell_angle_beta 90.000000
_cell_angle_gamma 90.000000
_cell_volume 6201.670250
_symmetry_space_group_name_H-M "F M M M"
_symmetry_group_IT_number 69
_symmetry_cell_setting 'orthorhombic'
loop_
_space_group_symop_operation_xyz
x,y,z
-x,-y,z
x,-y,-z
-x,y,-z
-x,-y,-z
x,y,-z
-x,y,z
x,-y,z
x,1/2+y,1/2+z
-x,1/2-y,1/2+z
x,1/2-y,1/2-z
-x,1/2+y,1/2-z
-x,1/2-y,1/2-z
x,1/2+y,1/2-z
-x,1/2+y,1/2+z
x,1/2-y,1/2+z
1/2+x,y,1/2+z
1/2-x,-y,1/2+z
1/2+x,-y,1/2-z
1/2-x,y,1/2-z
1/2-x,-y,1/2-z
1/2+x,y,1/2-z
1/2-x,y,1/2+z
1/2+x,-y,1/2+z
1/2+x,1/2+y,z
1/2-x,1/2-y,z
1/2+x,1/2-y,-z
1/2-x,1/2+y,-z
1/2-x,1/2-y,-z
1/2+x,1/2+y,-z
1/2-x,1/2+y,z
1/2+x,1/2-y,z
loop_
_atom_site_type_symbol
_atom_site_label
_atom_site_fract_x
_atom_site_fract_y
_atom_site_fract_z
Si Si1 0.250000 0.750000 0.888107
Si Si2 0.000000 0.818044 0.936575
Si Si3 0.000000 0.062732 0.879711
Si Si4 0.728585 0.558047 0.313194
Si Si5 0.643568 0.825871 0.797115
O O1 0.134839 0.785008 0.918510
O O2 0.327210 0.789191 0.847555
O O3 0.000000 0.880749 0.913620
O O4 0.000000 0.821009 0.000000
O O5 0.130585 0.064563 0.842655
O O6 0.000000 0.000000 0.904164
O O7 0.669478 0.500000 0.330398
O O8 0.750000 0.555171 0.250000
O O9 0.647988 0.612828 0.319516
O O10 0.500000 0.814171 0.773342
O O11 0.750000 0.819515 0.750000
#
# Coordination Sequence:
#
# PCOD9512845 Si02
#       5
#    16  16  16  32  32
#     4  12  24  42  62  88 120 158 198 252 310 370
#     4  12  26  45  66  88 116 159 212 266 315 363
#     4  10  20  39  63  91 120 157 203 257 306 356
#     4   9  19  32  54  85 121 158 196 236 290 357
#     4  11  24  36  58  90 125 163 201 241 296 369
#
# _framework density 18.059650000000001
#
# number of rings (size 3 to 8) (size 9 to 14) (size 15 to 20)
#    0.000    1.429    4.286    0.857   10.000    2.000 
#    0.000    0.000    0.000    0.000    0.000    0.000 
#    0.000    9.143    0.000    0.000    0.000    0.000 
#
# Total GULP energy -155940.186715 kJ/mol
# GULP energy per Si atom -5569.292383 kJ/mol
# Density = 1.801855 g / cm^3
# Si number density = 18.059650 Si / 1000 Ang^3
#
#
#
# Elastic Constant Matrix: (Units=GPa)
#
#
# Indices 1 2 3 4 5 6 
#
# 1 141.4680 53.6284 53.9887 0.0000 0.0000 0.0000
# 2 53.6284 168.4913 64.5894 0.0000 0.0000 0.0000
# 3 53.9887 64.5894 97.7279 0.0000 0.0000 0.0000
# 4 0.0000 0.0000 0.0000 30.7420 0.0000 0.0000
# 5 0.0000 0.0000 0.0000 0.0000 19.4049 0.0000
# 6 0.0000 0.0000 0.0000 0.0000 0.0000 36.7504
#
#
#
# Elastic Compliance Matrix: (Units=1/GPa)
#
#
# Indices 1 2 3 4 5 6 
#
# 1 0.009167 -0.001308 -0.004200 0.000000 0.000000 0.000000
# 2 -0.001308 0.008135 -0.004654 0.000000 0.000000 0.000000
# 3 -0.004200 -0.004654 0.015629 0.000000 0.000000 0.000000
# 4 0.000000 0.000000 0.000000 0.032529 0.000000 0.000000
# 5 0.000000 0.000000 0.000000 0.000000 0.051533 0.000000
# 6 0.000000 0.000000 0.000000 0.000000 0.000000 0.027211
#
#
# Mechanical properties :
#
#
# Convention : Reuss Voigt Hill
#
# Bulk Modulus (GPa) = 79.31911 83.56669 81.44290
# Shear Modulus (GPa) = 29.63292 33.07818 31.35555
#
# Velocity S-wave (km/s) = 4.05512 4.28437 4.17132
# Velocity P-wave (km/s) = 8.12042 8.41710 8.27009
#
# Compressibility (1/GPa) = 0.01260730
#
# Stress axis : x y z
#
# Youngs Moduli (GPa) = 109.08228 122.91854 63.98409
#
# Poissons Ratio (x) = 0.16075 0.26874
# Poissons Ratio (y) = 0.14266 0.29780
# Poissons Ratio (z) = 0.45816 0.57210
#
# Static dielectric constant tensor:
#      x y z
#    x 1.843090 0.000000 0.000000 
#    y 0.000000 1.743460 0.000000 
#    z 0.000000 0.000000 1.562360 
# 
# From -- ./inp_files/4512.got.cif
#   From: 2010.05.17/outbox.cif.g08.bks.cpg/sg69_3_cif.got.tgz:4512.got - 2010.06.03 19:29:58.
