data_PCOD9512112
_publ_section_title
;
Structure prediction by ZEFSAII (Michael W. Deem and Ramdas Pophale) SiO2 
 PCOD9512112
Probable space group: F M M M
;
_chemical_formula_sum "Si O2"
_cell_formula_units_Z 176
_cell_length_a 27.943842
_cell_length_b 19.652500
_cell_length_c 14.639970
_cell_angle_alpha 90.000000
_cell_angle_beta 90.000000
_cell_angle_gamma 90.000000
_cell_volume 8039.778961
_symmetry_space_group_name_H-M "F M M M"
_symmetry_group_IT_number 69
_symmetry_cell_setting 'orthorhombic'
loop_
_space_group_symop_operation_xyz
x,y,z
-x,-y,z
x,-y,-z
-x,y,-z
-x,-y,-z
x,y,-z
-x,y,z
x,-y,z
x,1/2+y,1/2+z
-x,1/2-y,1/2+z
x,1/2-y,1/2-z
-x,1/2+y,1/2-z
-x,1/2-y,1/2-z
x,1/2+y,1/2-z
-x,1/2+y,1/2+z
x,1/2-y,1/2+z
1/2+x,y,1/2+z
1/2-x,-y,1/2+z
1/2+x,-y,1/2-z
1/2-x,y,1/2-z
1/2-x,-y,1/2-z
1/2+x,y,1/2-z
1/2-x,y,1/2+z
1/2+x,-y,1/2+z
1/2+x,1/2+y,z
1/2-x,1/2-y,z
1/2+x,1/2-y,-z
1/2-x,1/2+y,-z
1/2-x,1/2-y,-z
1/2+x,1/2+y,-z
1/2-x,1/2+y,z
1/2+x,1/2-y,z
loop_
_atom_site_type_symbol
_atom_site_label
_atom_site_fract_x
_atom_site_fract_y
_atom_site_fract_z
Si Si1 0.404403 0.339016 0.891635
Si Si2 0.000000 0.920191 0.888120
Si Si3 0.201760 0.420920 0.136407
Si Si4 0.690341 0.423725 0.855132
Si Si5 0.055562 0.427470 0.111577
Si Si6 0.379564 0.311280 0.392373
O O1 0.451821 0.379495 0.858121
O O2 0.355365 0.380228 0.879835
O O3 0.389966 0.263873 0.855111
O O4 0.413476 0.332438 0.000000
O O5 0.000000 0.000000 0.858316
O O6 0.000000 0.922019 0.000000
O O7 0.191079 0.500000 0.104918
O O8 0.256628 0.404621 0.110587
O O9 0.196285 0.424110 0.245681
O O10 0.168865 0.356482 0.110684
O O11 0.681140 0.500000 0.886847
O O12 0.075931 0.500000 0.142687
O O13 0.082910 0.363779 0.150058
O O14 0.000000 0.424799 0.133405
O O15 0.059043 0.426896 0.000000
O O16 0.389379 0.304686 0.500000
#
# Coordination Sequence:
#
# PCOD9512112 Si02
#       6
#    32  16  32  32  32  32
#     4  10  21  34  53  82 110 139 174 219 274 322
#     4   9  18  34  56  79 103 137 182 225 269 319
#     4   9  19  36  57  78 102 139 182 218 260 318
#     4   9  19  37  58  77 100 136 182 226 266 313
#     4   8  14  25  43  66  93 131 173 205 239 290
#     4  10  20  31  48  77 112 142 168 210 261 314
#
# _framework density 21.89115
#
# number of rings (size 3 to 8) (size 9 to 14) (size 15 to 20)
#    0.000    2.818    0.000    2.727    1.273    4.364 
#    0.000    5.455    2.000    1.091    0.000    0.000 
#    0.000    0.000    0.000    0.000    0.000    0.000 
#
# Total GULP energy -245148.527413 kJ/mol
# GULP energy per Si atom -5571.557441 kJ/mol
# Density = 2.184132 g / cm^3
# Si number density = 21.891150 Si / 1000 Ang^3
#
#
#
# Elastic Constant Matrix: (Units=GPa)
#
#
# Indices 1 2 3 4 5 6 
#
# 1 175.0501 146.3518 0.2434 0.0000 0.0000 0.0000
# 2 146.3518 231.0979 6.1624 0.0000 0.0000 0.0000
# 3 0.2434 6.1624 57.0612 0.0000 0.0000 0.0000
# 4 0.0000 0.0000 0.0000 18.7086 0.0000 0.0000
# 5 0.0000 0.0000 0.0000 0.0000 28.6902 0.0000
# 6 0.0000 0.0000 0.0000 0.0000 0.0000 104.6237
#
#
#
# Elastic Compliance Matrix: (Units=1/GPa)
#
#
# Indices 1 2 3 4 5 6 
#
# 1 0.012176 -0.007732 0.000783 0.000000 0.000000 0.000000
# 2 -0.007732 0.009249 -0.000966 0.000000 0.000000 0.000000
# 3 0.000783 -0.000966 0.017626 0.000000 0.000000 0.000000
# 4 0.000000 0.000000 0.000000 0.053451 0.000000 0.000000
# 5 0.000000 0.000000 0.000000 0.000000 0.034855 0.000000
# 6 0.000000 0.000000 0.000000 0.000000 0.000000 0.009558
#
#
# Mechanical properties :
#
#
# Convention : Reuss Voigt Hill
#
# Bulk Modulus (GPa) = 43.06258 85.41381 64.23820
# Shear Modulus (GPa) = 31.15563 51.10129 41.12846
#
# Velocity S-wave (km/s) = 3.77663 4.83674 4.33918
# Velocity P-wave (km/s) = 6.22344 8.38417 7.38327
#
# Compressibility (1/GPa) = 0.02322202
#
# Stress axis : x y z
#
# Youngs Moduli (GPa) = 82.13180 108.11724 56.73432
#
# Poissons Ratio (x) = 0.83591 -0.04443
# Poissons Ratio (y) = 0.63500 0.05480
# Poissons Ratio (z) = -0.06431 0.10443
#
# Static dielectric constant tensor:
#      x y z
#    x 1.797650 0.000000 0.000000 
#    y 0.000000 1.823330 0.000000 
#    z 0.000000 0.000000 1.861020 
# 
# From -- ./inp_files/26719.got.cif
#   From: 2010.05.17/outbox.cif.g08.bks.cpg/sg69_14_cif.got.tgz:26719.got - 2010.06.03 19:29:58.
