data_PCOD9512448
_publ_section_title
;
Structure prediction by ZEFSAII (Michael W. Deem and Ramdas Pophale) SiO2 
 PCOD9512448
Probable space group: F M M M
;
_chemical_formula_sum "Si O2"
_cell_formula_units_Z 144
_cell_length_a 8.338652
_cell_length_b 29.221302
_cell_length_c 32.917103
_cell_angle_alpha 90.000000
_cell_angle_beta 90.000000
_cell_angle_gamma 90.000000
_cell_volume 8020.787653
_symmetry_space_group_name_H-M "F M M M"
_symmetry_group_IT_number 69
_symmetry_cell_setting 'orthorhombic'
loop_
_space_group_symop_operation_xyz
x,y,z
-x,-y,z
x,-y,-z
-x,y,-z
-x,-y,-z
x,y,-z
-x,y,z
x,-y,z
x,1/2+y,1/2+z
-x,1/2-y,1/2+z
x,1/2-y,1/2-z
-x,1/2+y,1/2-z
-x,1/2-y,1/2-z
x,1/2+y,1/2-z
-x,1/2+y,1/2+z
x,1/2-y,1/2+z
1/2+x,y,1/2+z
1/2-x,-y,1/2+z
1/2+x,-y,1/2-z
1/2-x,y,1/2-z
1/2-x,-y,1/2-z
1/2+x,y,1/2-z
1/2-x,y,1/2+z
1/2+x,-y,1/2+z
1/2+x,1/2+y,z
1/2-x,1/2-y,z
1/2+x,1/2-y,-z
1/2-x,1/2+y,-z
1/2-x,1/2-y,-z
1/2+x,1/2+y,-z
1/2-x,1/2+y,z
1/2+x,1/2-y,z
loop_
_atom_site_type_symbol
_atom_site_label
_atom_site_fract_x
_atom_site_fract_y
_atom_site_fract_z
Si Si1 0.307487 0.197708 0.293486
Si Si2 0.812109 0.648316 0.373750
Si Si3 0.500000 0.945102 0.044032
Si Si4 0.691662 0.802250 0.954481
Si Si5 0.316389 0.446845 0.095614
O O1 0.500000 0.196820 0.293402
O O2 0.250000 0.179043 0.250000
O O3 0.250000 0.250000 0.296191
O O4 0.244516 0.171477 0.333254
O O5 0.743613 0.667283 0.416169
O O6 0.800772 0.593308 0.371554
O O7 0.000000 0.660023 0.375345
O O8 0.668291 0.935802 0.065916
O O9 0.500000 0.000000 0.040350
O O10 0.500000 0.922663 0.000000
O O11 0.500000 0.802280 0.955259
O O12 0.750000 0.750000 0.948181
O O13 0.749343 0.816580 0.000000
O O14 0.500000 0.442747 0.078757
O O15 0.299115 0.500000 0.108584
#
# Coordination Sequence:
#
# PCOD9512448 Si02
#       5
#    32  32  16  32  32
#     4  10  20  35  54  80 110 137 171 215 268 324
#     4  10  21  35  54  79 104 138 181 220 266 325
#     4   9  18  32  50  74 104 137 180 230 274 323
#     4  10  21  35  51  73 103 139 177 217 261 312
#     4   9  19  36  54  75 106 143 183 228 277 323
#
# _framework density 17.953347999999998
#
# number of rings (size 3 to 8) (size 9 to 14) (size 15 to 20)
#    0.000    2.333    0.000    2.667    1.556    6.222 
#    0.000    4.444    0.000    0.667    0.000    0.000 
#    0.000    0.000    0.000    0.000    0.000    0.000 
#
# Total GULP energy -200470.238126 kJ/mol
# GULP energy per Si atom -5568.617726 kJ/mol
# Density = 1.791249 g / cm^3
# Si number density = 17.953348 Si / 1000 Ang^3
#
#
#
# Elastic Constant Matrix: (Units=GPa)
#
#
# Indices 1 2 3 4 5 6 
#
# 1 67.9046 26.1339 37.1257 0.0000 0.0000 0.0000
# 2 26.1339 85.7839 72.7377 0.0000 0.0000 0.0000
# 3 37.1257 72.7377 137.7879 0.0000 0.0000 0.0000
# 4 0.0000 0.0000 0.0000 8.6362 0.0000 0.0000
# 5 0.0000 0.0000 0.0000 0.0000 21.2808 0.0000
# 6 0.0000 0.0000 0.0000 0.0000 0.0000 16.8552
#
#
#
# Elastic Compliance Matrix: (Units=1/GPa)
#
#
# Indices 1 2 3 4 5 6 
#
# 1 0.017544 -0.002420 -0.003450 0.000000 0.000000 0.000000
# 2 -0.002420 0.021437 -0.010665 0.000000 0.000000 0.000000
# 3 -0.003450 -0.010665 0.013817 0.000000 0.000000 0.000000
# 4 0.000000 0.000000 0.000000 0.115792 0.000000 0.000000
# 5 0.000000 0.000000 0.000000 0.000000 0.046991 0.000000
# 6 0.000000 0.000000 0.000000 0.000000 0.000000 0.059329
#
#
# Mechanical properties :
#
#
# Convention : Reuss Voigt Hill
#
# Bulk Modulus (GPa) = 50.68461 62.60786 56.64624
# Shear Modulus (GPa) = 15.89556 19.71973 17.80764
#
# Velocity S-wave (km/s) = 2.97876 3.31779 3.15284
# Velocity P-wave (km/s) = 6.33429 7.04451 6.69882
#
# Compressibility (1/GPa) = 0.01972985
#
# Stress axis : x y z
#
# Youngs Moduli (GPa) = 57.00008 46.64832 72.37563
#
# Poissons Ratio (x) = 0.11287 0.24968
# Poissons Ratio (y) = 0.13792 0.77185
# Poissons Ratio (z) = 0.19663 0.49748
#
# Static dielectric constant tensor:
#      x y z
#    x 1.674210 0.000000 0.000000 
#    y 0.000000 1.626160 0.000000 
#    z 0.000000 0.000000 1.635550 
# 
# From -- ./inp_files/5545.got.cif
#   From: 2010.05.17/outbox.cif.g08.bks.cpg/sg69_3_cif.got.tgz:5545.got - 2010.06.03 19:29:58.
