data_PCOD9512113
_publ_section_title
;
Structure prediction by ZEFSAII (Michael W. Deem and Ramdas Pophale) SiO2 
 PCOD9512113
Probable space group: F M M M
;
_chemical_formula_sum "Si O2"
_cell_formula_units_Z 192
_cell_length_a 32.759476
_cell_length_b 19.020155
_cell_length_c 16.243421
_cell_angle_alpha 90.000000
_cell_angle_beta 90.000000
_cell_angle_gamma 90.000000
_cell_volume 10121.118246
_symmetry_space_group_name_H-M "F M M M"
_symmetry_group_IT_number 69
_symmetry_cell_setting 'orthorhombic'
loop_
_space_group_symop_operation_xyz
x,y,z
-x,-y,z
x,-y,-z
-x,y,-z
-x,-y,-z
x,y,-z
-x,y,z
x,-y,z
x,1/2+y,1/2+z
-x,1/2-y,1/2+z
x,1/2-y,1/2-z
-x,1/2+y,1/2-z
-x,1/2-y,1/2-z
x,1/2+y,1/2-z
-x,1/2+y,1/2+z
x,1/2-y,1/2+z
1/2+x,y,1/2+z
1/2-x,-y,1/2+z
1/2+x,-y,1/2-z
1/2-x,y,1/2-z
1/2-x,-y,1/2-z
1/2+x,y,1/2-z
1/2-x,y,1/2+z
1/2+x,-y,1/2+z
1/2+x,1/2+y,z
1/2-x,1/2-y,z
1/2+x,1/2-y,-z
1/2-x,1/2+y,-z
1/2-x,1/2-y,-z
1/2+x,1/2+y,-z
1/2-x,1/2+y,z
1/2+x,1/2-y,z
loop_
_atom_site_type_symbol
_atom_site_label
_atom_site_fract_x
_atom_site_fract_y
_atom_site_fract_z
Si Si1 0.677623 0.000000 0.899508
Si Si2 0.282723 0.852718 0.900383
Si Si3 0.956086 0.248507 0.091310
Si Si4 0.611902 0.317077 0.812151
Si Si5 0.045466 0.618579 0.206437
Si Si6 0.692006 0.696304 0.099824
Si Si7 0.581815 0.500000 0.597555
O O1 0.698548 0.926722 0.870896
O O2 0.629677 0.000000 0.878742
O O3 0.680241 0.000000 0.000000
O O4 0.306093 0.780118 0.878869
O O5 0.235519 0.838445 0.878514
O O6 0.283982 0.855170 0.000000
O O7 0.915894 0.205469 0.110311
O O8 0.957355 0.306231 0.162196
O O9 0.000000 0.209926 0.096037
O O10 0.953595 0.279963 0.000000
O O11 0.616312 0.250000 0.750000
O O12 0.583328 0.374669 0.768372
O O13 0.655686 0.336801 0.847646
O O14 0.058659 0.565652 0.135893
O O15 0.000000 0.601664 0.239186
O O16 0.686785 0.690891 0.000000
O O17 0.579721 0.500000 0.500000
#
# Coordination Sequence:
#
# PCOD9512113 Si02
#       7
#    16  32  32  32  32  32  16
#     4   9  18  31  53  81 107 132 171 225 282 329
#     4   8  16  31  52  79 108 140 179 232 287 332
#     4   9  17  30  50  76 103 133 174 223 269 314
#     4  10  20  31  49  74 106 142 176 218 270 323
#     4  10  21  36  51  73 110 146 176 215 273 334
#     4   9  17  32  55  79 105 141 190 232 273 332
#     4  11  23  36  58  84 104 139 188 225 262 326
#
# _framework density 18.970234999999999
#
# number of rings (size 3 to 8) (size 9 to 14) (size 15 to 20)
#    0.000    2.667    0.000    2.750    4.667    3.333 
#    0.000    2.500    0.000    1.000    0.000    1.750 
#    0.000    6.667    0.000    0.000    0.000    0.000 
#
# Total GULP energy -267280.508400 kJ/mol
# GULP energy per Si atom -5568.343925 kJ/mol
# Density = 1.892706 g / cm^3
# Si number density = 18.970235 Si / 1000 Ang^3
#
#
#
# Elastic Constant Matrix: (Units=GPa)
#
#
# Indices 1 2 3 4 5 6 
#
# 1 118.8297 26.3576 40.7933 0.0000 0.0000 0.0000
# 2 26.3576 46.9655 9.5570 0.0000 0.0000 0.0000
# 3 40.7933 9.5570 42.1233 0.0000 0.0000 0.0000
# 4 0.0000 0.0000 0.0000 15.8841 0.0000 0.0000
# 5 0.0000 0.0000 0.0000 0.0000 34.6630 0.0000
# 6 0.0000 0.0000 0.0000 0.0000 0.0000 63.7118
#
#
#
# Elastic Compliance Matrix: (Units=1/GPa)
#
#
# Indices 1 2 3 4 5 6 
#
# 1 0.013737 -0.005244 -0.012114 0.000000 0.000000 0.000000
# 2 -0.005244 0.024325 -0.000440 0.000000 0.000000 0.000000
# 3 -0.012114 -0.000440 0.035571 0.000000 0.000000 0.000000
# 4 0.000000 0.000000 0.000000 0.062956 0.000000 0.000000
# 5 0.000000 0.000000 0.000000 0.000000 0.028849 0.000000
# 6 0.000000 0.000000 0.000000 0.000000 0.000000 0.015696
#
#
# Mechanical properties :
#
#
# Convention : Reuss Voigt Hill
#
# Bulk Modulus (GPa) = 26.29029 40.14824 33.21926
# Shear Modulus (GPa) = 21.79514 31.59914 26.69714
#
# Velocity S-wave (km/s) = 3.39324 4.08575 3.75549
# Velocity P-wave (km/s) = 5.40748 6.59300 6.02945
#
# Compressibility (1/GPa) = 0.03803686
#
# Stress axis : x y z
#
# Youngs Moduli (GPa) = 72.79525 41.10988 28.11301
#
# Poissons Ratio (x) = 0.21560 0.34055
# Poissons Ratio (y) = 0.38177 0.01237
# Poissons Ratio (z) = 0.88181 0.01809
#
# Static dielectric constant tensor:
#      x y z
#    x 1.692520 0.000000 0.000000 
#    y 0.000000 1.641070 0.000000 
#    z 0.000000 0.000000 1.672250 
# 
# From -- ./inp_files/27768.got.cif
#   From: 2010.05.17/outbox.cif.g08.bks.cpg/sg69_14_cif.got.tgz:27768.got - 2010.06.03 19:29:58.
