data_PCOD9512526
_publ_section_title
;
Structure prediction by ZEFSAII (Michael W. Deem and Ramdas Pophale) SiO2 
 PCOD9512526
Probable space group: F M M M
;
_chemical_formula_sum "Si O2"
_cell_formula_units_Z 160
_cell_length_a 19.107125
_cell_length_b 22.355883
_cell_length_c 18.591177
_cell_angle_alpha 90.000000
_cell_angle_beta 90.000000
_cell_angle_gamma 90.000000
_cell_volume 7941.344905
_symmetry_space_group_name_H-M "F M M M"
_symmetry_group_IT_number 69
_symmetry_cell_setting 'orthorhombic'
loop_
_space_group_symop_operation_xyz
x,y,z
-x,-y,z
x,-y,-z
-x,y,-z
-x,-y,-z
x,y,-z
-x,y,z
x,-y,z
x,1/2+y,1/2+z
-x,1/2-y,1/2+z
x,1/2-y,1/2-z
-x,1/2+y,1/2-z
-x,1/2-y,1/2-z
x,1/2+y,1/2-z
-x,1/2+y,1/2+z
x,1/2-y,1/2+z
1/2+x,y,1/2+z
1/2-x,-y,1/2+z
1/2+x,-y,1/2-z
1/2-x,y,1/2-z
1/2-x,-y,1/2-z
1/2+x,y,1/2-z
1/2-x,y,1/2+z
1/2+x,-y,1/2+z
1/2+x,1/2+y,z
1/2-x,1/2-y,z
1/2+x,1/2-y,-z
1/2-x,1/2+y,-z
1/2-x,1/2-y,-z
1/2+x,1/2+y,-z
1/2-x,1/2+y,z
1/2+x,1/2-y,z
loop_
_atom_site_type_symbol
_atom_site_label
_atom_site_fract_x
_atom_site_fract_y
_atom_site_fract_z
Si Si1 0.702981 0.802692 0.582093
Si Si2 0.807880 0.500000 0.912785
Si Si3 0.082136 0.310084 0.790740
Si Si4 0.158846 0.128536 0.417442
Si Si5 0.355999 0.500000 0.912323
Si Si6 0.081811 0.623272 0.351201
O O1 0.688345 0.783611 0.500000
O O2 0.750000 0.750000 0.616432
O O3 0.758220 0.857171 0.581364
O O4 0.631626 0.826168 0.614646
O O5 0.846664 0.439478 0.891038
O O6 0.726248 0.500000 0.891627
O O7 0.807286 0.500000 0.000000
O O8 0.107292 0.250000 0.750000
O O9 0.121130 0.326722 0.863559
O O10 0.089365 0.364577 0.734020
O O11 0.000000 0.301060 0.805765
O O12 0.134161 0.134309 0.500000
O O13 0.392189 0.440650 0.880064
O O14 0.361423 0.500000 0.000000
O O15 0.000000 0.631607 0.369082
#
# Coordination Sequence:
#
# PCOD9512526 Si02
#       6
#    32  16  32  32  16  32
#     4  10  20  35  57  87 121 160 208 259 309 367
#     4   9  18  36  61  88 124 164 203 261 318 361
#     4  10  23  43  63  88 127 168 209 264 326 380
#     4  10  20  38  64  91 120 161 214 265 315 376
#     4  11  21  39  63  92 134 177 211 255 315 382
#     4  11  23  38  59  91 130 169 209 256 315 383
#
# _framework density 20.147721000000001
#
# number of rings (size 3 to 8) (size 9 to 14) (size 15 to 20)
#    0.000    1.800    2.000    2.100    0.000    4.000 
#    0.000    5.500    0.000   12.600    0.000    0.000 
#    0.000    0.000    0.000    0.000    0.000    0.000 
#
# Total GULP energy -223176.340208 kJ/mol
# GULP energy per Si atom -5579.408505 kJ/mol
# Density = 2.010186 g / cm^3
# Si number density = 20.147721 Si / 1000 Ang^3
#
#
#
# Elastic Constant Matrix: (Units=GPa)
#
#
# Indices 1 2 3 4 5 6 
#
# 1 92.7020 46.1884 68.1572 0.0000 0.0000 0.0000
# 2 46.1884 136.9275 52.1011 0.0000 0.0000 0.0000
# 3 68.1572 52.1011 94.6243 0.0000 0.0000 0.0000
# 4 0.0000 0.0000 0.0000 33.3969 0.0000 0.0000
# 5 0.0000 0.0000 0.0000 0.0000 23.3821 0.0000
# 6 0.0000 0.0000 0.0000 0.0000 0.0000 28.6963
#
#
#
# Elastic Compliance Matrix: (Units=1/GPa)
#
#
# Indices 1 2 3 4 5 6 
#
# 1 0.023301 -0.001864 -0.015757 0.000000 0.000000 0.000000
# 2 -0.001864 0.009388 -0.003826 0.000000 0.000000 0.000000
# 3 -0.015757 -0.003826 0.024025 0.000000 0.000000 0.000000
# 4 0.000000 0.000000 0.000000 0.029943 0.000000 0.000000
# 5 0.000000 0.000000 0.000000 0.000000 0.042768 0.000000
# 6 0.000000 0.000000 0.000000 0.000000 0.000000 0.034848
#
#
# Mechanical properties :
#
#
# Convention : Reuss Voigt Hill
#
# Bulk Modulus (GPa) = 72.36768 73.01636 72.69202
# Shear Modulus (GPa) = 23.61006 27.61554 25.61280
#
# Velocity S-wave (km/s) = 3.42694 3.70625 3.56933
# Velocity P-wave (km/s) = 7.18715 7.39150 7.29004
#
# Compressibility (1/GPa) = 0.01381832
#
# Stress axis : x y z
#
# Youngs Moduli (GPa) = 42.91592 106.52021 41.62380
#
# Poissons Ratio (x) = 0.19859 0.65588
# Poissons Ratio (y) = 0.08001 0.15926
# Poissons Ratio (z) = 0.67624 0.40757
#
# Static dielectric constant tensor:
#      x y z
#    x 1.690990 0.000000 0.000000 
#    y 0.000000 1.775910 0.000000 
#    z 0.000000 0.000000 1.711690 
# 
# From -- ./inp_files/24654.got.cif
#   From: 2010.05.17/outbox.cif.g08.bks.cpg/sg69_13_cif.got.tgz:24654.got - 2010.06.03 19:29:58.
