data_PCOD9512771
_publ_section_title
;
Structure prediction by ZEFSAII (Michael W. Deem and Ramdas Pophale) SiO2 
 PCOD9512771
Probable space group: F M M M
;
_chemical_formula_sum "Si O2"
_cell_formula_units_Z 128
_cell_length_a 28.507335
_cell_length_b 14.888807
_cell_length_c 16.133720
_cell_angle_alpha 90.000000
_cell_angle_beta 90.000000
_cell_angle_gamma 90.000000
_cell_volume 6847.799487
_symmetry_space_group_name_H-M "F M M M"
_symmetry_group_IT_number 69
_symmetry_cell_setting 'orthorhombic'
loop_
_space_group_symop_operation_xyz
x,y,z
-x,-y,z
x,-y,-z
-x,y,-z
-x,-y,-z
x,y,-z
-x,y,z
x,-y,z
x,1/2+y,1/2+z
-x,1/2-y,1/2+z
x,1/2-y,1/2-z
-x,1/2+y,1/2-z
-x,1/2-y,1/2-z
x,1/2+y,1/2-z
-x,1/2+y,1/2+z
x,1/2-y,1/2+z
1/2+x,y,1/2+z
1/2-x,-y,1/2+z
1/2+x,-y,1/2-z
1/2-x,y,1/2-z
1/2-x,-y,1/2-z
1/2+x,y,1/2-z
1/2-x,y,1/2+z
1/2+x,-y,1/2+z
1/2+x,1/2+y,z
1/2-x,1/2-y,z
1/2+x,1/2-y,-z
1/2-x,1/2+y,-z
1/2-x,1/2-y,-z
1/2+x,1/2+y,-z
1/2-x,1/2+y,z
1/2+x,1/2-y,z
loop_
_atom_site_type_symbol
_atom_site_label
_atom_site_fract_x
_atom_site_fract_y
_atom_site_fract_z
Si Si1 0.121789 0.654371 0.346847
Si Si2 0.687604 0.500000 0.906395
Si Si3 0.365607 0.138383 0.836025
Si Si4 0.717315 0.000000 0.169542
Si Si5 0.423829 0.599896 0.500000
Si Si6 0.446180 0.189276 0.500000
O O1 0.163683 0.586648 0.366409
O O2 0.141163 0.755562 0.347234
O O3 0.107245 0.630110 0.252289
O O4 0.081907 0.655174 0.418108
O O5 0.743537 0.500000 0.901163
O O6 0.671703 0.500000 0.000000
O O7 0.317094 0.084933 0.831356
O O8 0.393446 0.103214 0.915672
O O9 0.750000 0.000000 0.250000
O O10 0.447174 0.500000 0.500000
O O11 0.446798 0.700333 0.500000
O O12 0.500000 0.158756 0.500000
#
# Coordination Sequence:
#
# PCOD9512771 Si02
#       6
#    32  16  32  16  16  16
#     4  10  21  41  61  84 122 165 193 253 312 358
#     4  12  24  38  56  87 125 163 211 248 300 344
#     4  10  21  38  59  88 123 167 199 239 305 351
#     4  12  22  36  58  92 123 160 215 255 272 360
#     4  10  20  37  63  88 124 163 191 237 307 375
#     4  10  22  42  68  95 114 148 203 256 311 374
#
# _framework density 18.692136999999999
#
# number of rings (size 3 to 8) (size 9 to 14) (size 15 to 20)
#    0.000    1.500    5.000    0.000    1.750    1.250 
#    0.000   12.500    0.000    0.000    0.000    0.000 
#    0.000    0.000    0.000    0.000    0.000    0.000 
#
# Total GULP energy -178243.800628 kJ/mol
# GULP energy per Si atom -5570.118770 kJ/mol
# Density = 1.864959 g / cm^3
# Si number density = 18.692137 Si / 1000 Ang^3
#
#
#
# Elastic Constant Matrix: (Units=GPa)
#
#
# Indices 1 2 3 4 5 6 
#
# 1 120.1927 40.7861 58.5964 0.0000 0.0000 0.0000
# 2 40.7861 72.8243 45.6644 0.0000 0.0000 0.0000
# 3 58.5964 45.6644 153.9068 0.0000 0.0000 0.0000
# 4 0.0000 0.0000 0.0000 1208.9067 0.0000 0.0000
# 5 0.0000 0.0000 0.0000 0.0000 12.8853 0.0000
# 6 0.0000 0.0000 0.0000 0.0000 0.0000 83.8139
#
#
#
# Elastic Compliance Matrix: (Units=1/GPa)
#
#
# Indices 1 2 3 4 5 6 
#
# 1 0.011281 -0.004453 -0.002974 0.000000 0.000000 0.000000
# 2 -0.004453 0.018628 -0.003832 0.000000 0.000000 0.000000
# 3 -0.002974 -0.003832 0.008766 0.000000 0.000000 0.000000
# 4 0.000000 0.000000 0.000000 0.000827 0.000000 0.000000
# 5 0.000000 0.000000 0.000000 0.000000 0.077608 0.000000
# 6 0.000000 0.000000 0.000000 0.000000 0.000000 0.011931
#
#
# Mechanical properties :
#
#
# Convention : Reuss Voigt Hill
#
# Bulk Modulus (GPa) = 61.88656 70.77971 66.33314
# Shear Modulus (GPa) = 31.85820 274.57963 153.21892
#
# Velocity S-wave (km/s) = 4.13287 12.13321 9.06354
# Velocity P-wave (km/s) = 7.48027 15.30472 12.04552
#
# Compressibility (1/GPa) = 0.01615860
#
# Stress axis : x y z
#
# Youngs Moduli (GPa) = 88.64561 53.68141 114.07194
#
# Poissons Ratio (x) = 0.23906 0.33920
# Poissons Ratio (y) = 0.39477 0.43707
# Poissons Ratio (z) = 0.26360 0.20568
#
# Static dielectric constant tensor:
#      x y z
#    x 1.598240 0.000000 0.000000 
#    y 0.000000 1.670920 0.000000 
#    z 0.000000 0.000000 1.720800 
# 
# From -- ./inp_files/26531.got.cif
#   From: 2010.05.17/outbox.cif.g08.bks.cpg/sg69_14_cif.got.tgz:26531.got - 2010.06.03 19:29:58.
