data_PCOD9512142
_publ_section_title
;
Structure prediction by ZEFSAII (Michael W. Deem and Ramdas Pophale) SiO2 
 PCOD9512142
Probable space group: F M M M
;
_chemical_formula_sum "Si O2"
_cell_formula_units_Z 176
_cell_length_a 7.395163
_cell_length_b 29.600551
_cell_length_c 37.494081
_cell_angle_alpha 90.000000
_cell_angle_beta 90.000000
_cell_angle_gamma 90.000000
_cell_volume 8207.488058
_symmetry_space_group_name_H-M "F M M M"
_symmetry_group_IT_number 69
_symmetry_cell_setting 'orthorhombic'
loop_
_space_group_symop_operation_xyz
x,y,z
-x,-y,z
x,-y,-z
-x,y,-z
-x,-y,-z
x,y,-z
-x,y,z
x,-y,z
x,1/2+y,1/2+z
-x,1/2-y,1/2+z
x,1/2-y,1/2-z
-x,1/2+y,1/2-z
-x,1/2-y,1/2-z
x,1/2+y,1/2-z
-x,1/2+y,1/2+z
x,1/2-y,1/2+z
1/2+x,y,1/2+z
1/2-x,-y,1/2+z
1/2+x,-y,1/2-z
1/2-x,y,1/2-z
1/2-x,-y,1/2-z
1/2+x,y,1/2-z
1/2-x,y,1/2+z
1/2+x,-y,1/2+z
1/2+x,1/2+y,z
1/2-x,1/2-y,z
1/2+x,1/2-y,-z
1/2-x,1/2+y,-z
1/2-x,1/2-y,-z
1/2+x,1/2+y,-z
1/2-x,1/2+y,z
1/2+x,1/2-y,z
loop_
_atom_site_type_symbol
_atom_site_label
_atom_site_fract_x
_atom_site_fract_y
_atom_site_fract_z
Si Si1 0.719747 0.949720 0.401777
Si Si2 0.216202 0.803579 0.000000
Si Si3 0.715896 0.302992 0.141630
Si Si4 0.778531 0.354692 0.429157
Si Si5 0.784103 0.356221 0.710204
Si Si6 0.219976 0.450018 0.318441
O O1 0.500000 0.949982 0.402383
O O2 0.777922 0.906890 0.424921
O O3 0.769510 0.943052 0.360102
O O4 0.779628 0.000000 0.412704
O O5 0.250000 0.750000 0.000000
O O6 0.283131 0.828533 0.964375
O O7 0.000000 0.808816 0.000000
O O8 0.500000 0.309476 0.141576
O O9 0.750000 0.250000 0.139966
O O10 0.782121 0.328391 0.106339
O O11 0.785781 0.325048 0.178191
O O12 0.000000 0.354309 0.429476
O O13 0.750000 0.339674 0.750000
O O14 0.716207 0.407435 0.704275
O O15 0.000000 0.358166 0.706331
O O16 0.281229 0.500000 0.307226
O O17 0.000000 0.450566 0.317497
#
# Coordination Sequence:
#
# PCOD9512142 Si02
#       6
#    32  16  32  32  32  32
#     4   8  12  21  42  69  95 124 156 187 225 279
#     4  10  20  32  49  73 103 131 158 198 241 276
#     4  10  20  34  51  68  90 122 161 198 234 280
#     4   9  16  29  47  70  99 128 156 191 235 280
#     4  10  20  33  48  68  94 122 154 196 238 279
#     4   8  13  24  44  68  92 120 154 188 226 278
#
# _framework density 21.443833999999999
#
# number of rings (size 3 to 8) (size 9 to 14) (size 15 to 20)
#    0.000    2.909    1.818    1.636    0.000    1.455 
#    0.000    2.273    0.000    2.727    0.000    0.000 
#    0.000    3.636    0.000    0.000    0.000    0.000 
#
# Total GULP energy -245613.875780 kJ/mol
# GULP energy per Si atom -5582.133540 kJ/mol
# Density = 2.139503 g / cm^3
# Si number density = 21.443834 Si / 1000 Ang^3
#
#
#
# Elastic Constant Matrix: (Units=GPa)
#
#
# Indices 1 2 3 4 5 6 
#
# 1 72.3608 -1.0595 6.2159 0.0000 0.0000 0.0000
# 2 -1.0595 171.6305 106.3955 0.0000 0.0000 0.0000
# 3 6.2159 106.3955 169.5045 0.0000 0.0000 0.0000
# 4 0.0000 0.0000 0.0000 20.0393 0.0000 0.0000
# 5 0.0000 0.0000 0.0000 0.0000 -0.3946 0.0000
# 6 0.0000 0.0000 0.0000 0.0000 0.0000 7.3133
#
#
#
# Elastic Compliance Matrix: (Units=1/GPa)
#
#
# Indices 1 2 3 4 5 6 
#
# 1 0.013909 0.000658 -0.000923 0.000000 0.000000 0.000000
# 2 0.000658 0.009569 -0.006030 0.000000 0.000000 0.000000
# 3 -0.000923 -0.006030 0.009719 0.000000 0.000000 0.000000
# 4 0.000000 0.000000 0.000000 0.049902 0.000000 0.000000
# 5 0.000000 0.000000 0.000000 0.000000 -2.534141 0.000000
# 6 0.000000 0.000000 0.000000 0.000000 0.000000 0.136737
#
#
# Mechanical properties :
#
#
# Convention : Reuss Voigt Hill
#
# Bulk Modulus (GPa) = 48.53135 70.73329 59.63232
# Shear Modulus (GPa) = -2.17879 25.52120 11.67120
#
# Velocity S-wave (km/s) = -1.00909 3.45359 2.33549
# Velocity P-wave (km/s) = 4.61772 6.99714 5.92804
#
# Compressibility (1/GPa) = 0.02060524
#
# Stress axis : x y z
#
# Youngs Moduli (GPa) = 71.89807 104.50643 102.89606
#
# Poissons Ratio (x) = -0.06878 0.09499
# Poissons Ratio (y) = -0.04732 0.62050
# Poissons Ratio (z) = 0.06637 0.63021
#
# Static dielectric constant tensor:
#      x y z
#    x 1.879430 0.000000 0.000000 
#    y 0.000000 1.764690 0.000000 
#    z 0.000000 0.000000 1.746880 
# 
# From -- ./inp_files/43878.got.cif
#   From: 2010.05.17/outbox.cif.g08.bks.cpg/sg69_22_cif.got.tgz:43878.got - 2010.06.03 19:29:58.
