data_PCOD9512433
_publ_section_title
;
Structure prediction by ZEFSAII (Michael W. Deem and Ramdas Pophale) SiO2 
 PCOD9512433
Probable space group: F M M M
;
_chemical_formula_sum "Si O2"
_cell_formula_units_Z 192
_cell_length_a 22.280379
_cell_length_b 24.667512
_cell_length_c 14.712855
_cell_angle_alpha 90.000000
_cell_angle_beta 90.000000
_cell_angle_gamma 90.000000
_cell_volume 8086.207418
_symmetry_space_group_name_H-M "F M M M"
_symmetry_group_IT_number 69
_symmetry_cell_setting 'orthorhombic'
loop_
_space_group_symop_operation_xyz
x,y,z
-x,-y,z
x,-y,-z
-x,y,-z
-x,-y,-z
x,y,-z
-x,y,z
x,-y,z
x,1/2+y,1/2+z
-x,1/2-y,1/2+z
x,1/2-y,1/2-z
-x,1/2+y,1/2-z
-x,1/2-y,1/2-z
x,1/2+y,1/2-z
-x,1/2+y,1/2+z
x,1/2-y,1/2+z
1/2+x,y,1/2+z
1/2-x,-y,1/2+z
1/2+x,-y,1/2-z
1/2-x,y,1/2-z
1/2-x,-y,1/2-z
1/2+x,y,1/2-z
1/2-x,y,1/2+z
1/2+x,-y,1/2+z
1/2+x,1/2+y,z
1/2-x,1/2-y,z
1/2+x,1/2-y,-z
1/2-x,1/2+y,-z
1/2-x,1/2-y,-z
1/2+x,1/2+y,-z
1/2-x,1/2+y,z
1/2+x,1/2-y,z
loop_
_atom_site_type_symbol
_atom_site_label
_atom_site_fract_x
_atom_site_fract_y
_atom_site_fract_z
Si Si1 0.930940 0.939086 0.643443
Si Si2 0.737711 0.330497 0.111078
Si Si3 0.394327 0.710146 0.890247
Si Si4 0.434802 0.407037 0.148854
Si Si5 0.628923 0.176374 0.892147
Si Si6 0.693992 0.442637 0.896123
O O1 0.933114 0.934007 0.752272
O O2 0.894896 0.884835 0.617275
O O3 0.000000 0.934642 0.610526
O O4 0.908704 0.000000 0.618456
O O5 0.677167 0.297166 0.128064
O O6 0.803719 0.317520 0.146214
O O7 0.723985 0.390655 0.145942
O O8 0.741207 0.330300 0.000000
O O9 0.425783 0.658216 0.845317
O O10 0.409788 0.771494 0.860495
O O11 0.404120 0.703457 0.000000
O O12 0.500000 0.417883 0.108106
O O13 0.376759 0.430276 0.099784
O O14 0.633142 0.185769 0.000000
O O15 0.704867 0.500000 0.850645
O O16 0.715860 0.445145 0.000000
#
# Coordination Sequence:
#
# PCOD9512433 Si02
#       6
#    32  32  32  32  32  32
#     4  10  23  41  56  73 101 138 182 228 267 305
#     4   8  15  30  52  78 108 138 167 206 258 312
#     4   9  18  33  55  85 115 137 165 210 258 309
#     4  10  20  35  54  73 101 142 178 210 258 316
#     4  10  20  35  58  82 103 136 178 216 262 317
#     4   9  17  29  48  77 109 137 170 214 257 301
#
# _framework density 23.744136000000001
#
# number of rings (size 3 to 8) (size 9 to 14) (size 15 to 20)
#    0.000    2.667    0.000    2.500    0.000    7.000 
#    0.000   10.000    0.000    9.000    0.000    0.000 
#    0.000    0.000    0.000    0.000    0.000    0.000 
#
# Total GULP energy -267674.281027 kJ/mol
# GULP energy per Si atom -5576.547521 kJ/mol
# Density = 2.369009 g / cm^3
# Si number density = 23.744136 Si / 1000 Ang^3
#
#
#
# Elastic Constant Matrix: (Units=GPa)
#
#
# Indices 1 2 3 4 5 6 
#
# 1 27.0591 7.9538 0.5620 0.0000 0.0000 0.0000
# 2 7.9538 186.5254 2.3804 0.0000 0.0000 0.0000
# 3 0.5620 2.3804 49.2909 0.0000 0.0000 0.0000
# 4 0.0000 0.0000 0.0000 20.0493 0.0000 0.0000
# 5 0.0000 0.0000 0.0000 0.0000 14.9136 0.0000
# 6 0.0000 0.0000 0.0000 0.0000 0.0000 -4.7504
#
#
#
# Elastic Compliance Matrix: (Units=1/GPa)
#
#
# Indices 1 2 3 4 5 6 
#
# 1 0.037431 -0.001592 -0.000350 0.000000 0.000000 0.000000
# 2 -0.001592 0.005432 -0.000244 0.000000 0.000000 0.000000
# 3 -0.000350 -0.000244 0.020304 0.000000 0.000000 0.000000
# 4 0.000000 0.000000 0.000000 0.049877 0.000000 0.000000
# 5 0.000000 0.000000 0.000000 0.000000 0.067053 0.000000
# 6 0.000000 0.000000 0.000000 0.000000 0.000000 -0.210506
#
#
# Mechanical properties :
#
#
# Convention : Reuss Voigt Hill
#
# Bulk Modulus (GPa) = 17.00812 31.62974 24.31893
# Shear Modulus (GPa) = -776.40469 22.84113 -376.78178
#
# Velocity S-wave (km/s) = -18.10243 3.10493 -12.61066
# Velocity P-wave (km/s) = 20.73046 5.11899 14.20471
#
# Compressibility (1/GPa) = 0.05879545
#
# Stress axis : x y z
#
# Youngs Moduli (GPa) = 26.71565 184.08791 49.25258
#
# Poissons Ratio (x) = 0.29301 0.01723
# Poissons Ratio (y) = 0.04252 0.01203
# Poissons Ratio (z) = 0.00935 0.04495
#
# Static dielectric constant tensor:
#      x y z
#    x 1.880950 0.000000 0.000000 
#    y 0.000000 1.944600 0.000000 
#    z 0.000000 0.000000 1.940120 
# 
# From -- ./inp_files/32037.got.cif
#   From: 2010.05.17/outbox.cif.g08.bks.cpg/sg69_17_cif.got.tgz:32037.got - 2010.06.03 19:29:58.
