data_PCOD9512079
_publ_section_title
;
Structure prediction by ZEFSAII (Michael W. Deem and Ramdas Pophale) SiO2 
 PCOD9512079
Probable space group: F M M M
;
_chemical_formula_sum "Si O2"
_cell_formula_units_Z 144
_cell_length_a 15.169026
_cell_length_b 19.625069
_cell_length_c 23.459545
_cell_angle_alpha 90.000000
_cell_angle_beta 90.000000
_cell_angle_gamma 90.000000
_cell_volume 6983.746597
_symmetry_space_group_name_H-M "F M M M"
_symmetry_group_IT_number 69
_symmetry_cell_setting 'orthorhombic'
loop_
_space_group_symop_operation_xyz
x,y,z
-x,-y,z
x,-y,-z
-x,y,-z
-x,-y,-z
x,y,-z
-x,y,z
x,-y,z
x,1/2+y,1/2+z
-x,1/2-y,1/2+z
x,1/2-y,1/2-z
-x,1/2+y,1/2-z
-x,1/2-y,1/2-z
x,1/2+y,1/2-z
-x,1/2+y,1/2+z
x,1/2-y,1/2+z
1/2+x,y,1/2+z
1/2-x,-y,1/2+z
1/2+x,-y,1/2-z
1/2-x,y,1/2-z
1/2-x,-y,1/2-z
1/2+x,y,1/2-z
1/2-x,y,1/2+z
1/2+x,-y,1/2+z
1/2+x,1/2+y,z
1/2-x,1/2-y,z
1/2+x,1/2-y,-z
1/2-x,1/2+y,-z
1/2-x,1/2-y,-z
1/2+x,1/2+y,-z
1/2-x,1/2+y,z
1/2+x,1/2-y,z
loop_
_atom_site_type_symbol
_atom_site_label
_atom_site_fract_x
_atom_site_fract_y
_atom_site_fract_z
Si Si1 0.000000 0.576023 0.432445
Si Si2 0.851842 0.829891 0.434856
Si Si3 0.894771 0.923338 0.328285
Si Si4 0.652015 0.821248 0.399906
Si Si5 0.104443 0.173838 0.225878
O O1 0.914861 0.619851 0.416660
O O2 0.000000 0.500000 0.406685
O O3 0.000000 0.569627 0.500000
O O4 0.878714 0.843786 0.500000
O O5 0.880215 0.884263 0.387663
O O6 0.745565 0.828521 0.430401
O O7 0.882824 0.754164 0.416118
O O8 0.864618 0.878262 0.274483
O O9 0.000000 0.927767 0.321158
O O10 0.857865 0.000000 0.328932
O O11 0.660145 0.826871 0.331818
O O12 0.108198 0.250000 0.250000
O O13 0.000000 0.160326 0.211961
#
# Coordination Sequence:
#
# PCOD9512079 Si02
#       5
#    16  32  32  32  32
#     4  11  24  40  61  92 127 169 217 264 320 384
#     4  11  24  41  63  93 128 169 214 262 313 370
#     4  10  23  42  64  93 128 165 206 255 314 379
#     4  11  22  41  64  92 127 163 213 263 317 377
#     4  10  19  37  64  92 122 158 202 257 312 369
#
# _framework density 20.619305000000001
#
# number of rings (size 3 to 8) (size 9 to 14) (size 15 to 20)
#    0.000    1.444    3.333    2.667    1.556    3.556 
#    0.000    2.222    0.000    0.000    0.000    0.000 
#    0.000    0.000    0.000    0.000    0.000    0.000 
#
# Total GULP energy -201193.193491 kJ/mol
# GULP energy per Si atom -5588.699819 kJ/mol
# Density = 2.057237 g / cm^3
# Si number density = 20.619305 Si / 1000 Ang^3
#
#
#
# Elastic Constant Matrix: (Units=GPa)
#
#
# Indices 1 2 3 4 5 6 
#
# 1 41.9467 25.3484 0.1510 0.0000 0.0000 0.0000
# 2 25.3484 159.3129 52.0198 0.0000 0.0000 0.0000
# 3 0.1510 52.0198 163.1536 0.0000 0.0000 0.0000
# 4 0.0000 0.0000 0.0000 21.8318 0.0000 0.0000
# 5 0.0000 0.0000 0.0000 0.0000 30.5819 0.0000
# 6 0.0000 0.0000 0.0000 0.0000 0.0000 18.2649
#
#
#
# Elastic Compliance Matrix: (Units=1/GPa)
#
#
# Indices 1 2 3 4 5 6 
#
# 1 0.026694 -0.004732 0.001484 0.000000 0.000000 0.000000
# 2 -0.004732 0.007845 -0.002497 0.000000 0.000000 0.000000
# 3 0.001484 -0.002497 0.006924 0.000000 0.000000 0.000000
# 4 0.000000 0.000000 0.000000 0.045805 0.000000 0.000000
# 5 0.000000 0.000000 0.000000 0.000000 0.032699 0.000000
# 6 0.000000 0.000000 0.000000 0.000000 0.000000 0.054750
#
#
# Mechanical properties :
#
#
# Convention : Reuss Voigt Hill
#
# Bulk Modulus (GPa) = 33.36298 57.71684 45.53991
# Shear Modulus (GPa) = 25.48454 33.26199 29.37327
#
# Velocity S-wave (km/s) = 3.51943 4.02076 3.77842
# Velocity P-wave (km/s) = 5.72108 7.04328 6.41633
#
# Compressibility (1/GPa) = 0.02997334
#
# Stress axis : x y z
#
# Youngs Moduli (GPa) = 37.46179 127.46700 144.42623
#
# Poissons Ratio (x) = 0.60315 -0.21433
# Poissons Ratio (y) = 0.17726 0.36063
# Poissons Ratio (z) = -0.05559 0.31828
#
# Static dielectric constant tensor:
#      x y z
#    x 1.781430 0.000000 0.000000 
#    y 0.000000 1.741790 0.000000 
#    z 0.000000 0.000000 1.749080 
# 
# From -- ./inp_files/30720.got.cif
#   From: 2010.05.17/outbox.cif.g08.bks.cpg/sg69_16_cif.got.tgz:30720.got - 2010.06.03 19:29:58.
