data_PCOD9512709
_publ_section_title
;
Structure prediction by ZEFSAII (Michael W. Deem and Ramdas Pophale) SiO2 
 PCOD9512709
Probable space group: F M M M
;
_chemical_formula_sum "Si O2"
_cell_formula_units_Z 120
_cell_length_a 20.490264
_cell_length_b 10.024719
_cell_length_c 27.204513
_cell_angle_alpha 90.000000
_cell_angle_beta 90.000000
_cell_angle_gamma 90.000000
_cell_volume 5588.055588
_symmetry_space_group_name_H-M "F M M M"
_symmetry_group_IT_number 69
_symmetry_cell_setting 'orthorhombic'
loop_
_space_group_symop_operation_xyz
x,y,z
-x,-y,z
x,-y,-z
-x,y,-z
-x,-y,-z
x,y,-z
-x,y,z
x,-y,z
x,1/2+y,1/2+z
-x,1/2-y,1/2+z
x,1/2-y,1/2-z
-x,1/2+y,1/2-z
-x,1/2-y,1/2-z
x,1/2+y,1/2-z
-x,1/2+y,1/2+z
x,1/2-y,1/2+z
1/2+x,y,1/2+z
1/2-x,-y,1/2+z
1/2+x,-y,1/2-z
1/2-x,y,1/2-z
1/2-x,-y,1/2-z
1/2+x,y,1/2-z
1/2-x,y,1/2+z
1/2+x,-y,1/2+z
1/2+x,1/2+y,z
1/2-x,1/2-y,z
1/2+x,1/2-y,-z
1/2-x,1/2+y,-z
1/2-x,1/2-y,-z
1/2+x,1/2+y,-z
1/2-x,1/2+y,z
1/2+x,1/2-y,z
loop_
_atom_site_type_symbol
_atom_site_label
_atom_site_fract_x
_atom_site_fract_y
_atom_site_fract_z
Si Si1 0.854976 0.653046 0.443298
Si Si2 0.422574 0.000000 0.314796
Si Si3 0.326829 0.248252 0.341099
Si Si4 0.108892 0.000000 0.297327
Si Si5 0.500000 0.238939 0.555332
Si Si6 0.500000 0.500000 0.621322
O O1 0.838552 0.688491 0.500000
O O2 0.832497 0.500000 0.434386
O O3 0.831120 0.753213 0.400960
O O4 0.933765 0.656449 0.439262
O O5 0.377386 0.126370 0.330195
O O6 0.423614 0.000000 0.255636
O O7 0.500000 0.000000 0.331305
O O8 0.250000 0.250000 0.330579
O O9 0.350767 0.367702 0.307064
O O10 0.060156 0.000000 0.342601
O O11 0.500000 0.293131 0.500000
O O12 0.500000 0.365091 0.590607
#
# Coordination Sequence:
#
# PCOD9512709 Si02
#       6
#    32  16  32  16  16   8
#     4  10  21  39  66  99 136 182 235 286 347 426
#     4  12  29  49  78 104 138 191 254 295 352 429
#     4  12  27  47  73 104 146 189 233 297 367 428
#     4  12  27  45  72 104 139 178 234 300 362 412
#     4  10  20  36  62  98 136 179 230 293 358 416
#     4  12  21  38  62  98 138 170 215 294 356 416
#
# _framework density 21.474374000000001
#
# number of rings (size 3 to 8) (size 9 to 14) (size 15 to 20)
#    0.000    0.800    4.667    2.200    3.733    6.400 
#    0.000    0.667    0.000    0.000    0.000    0.000 
#    0.000    0.000    0.000    0.000    0.000    0.000 
#
# Total GULP energy -167337.686342 kJ/mol
# GULP energy per Si atom -5577.922878 kJ/mol
# Density = 2.142550 g / cm^3
# Si number density = 21.474374 Si / 1000 Ang^3
#
#
#
# Elastic Constant Matrix: (Units=GPa)
#
#
# Indices 1 2 3 4 5 6 
#
# 1 146.2556 30.3538 19.0762 0.0000 0.0000 0.0000
# 2 30.3538 67.3607 23.8760 0.0000 0.0000 0.0000
# 3 19.0762 23.8760 111.7576 0.0000 0.0000 0.0000
# 4 0.0000 0.0000 0.0000 28.8921 0.0000 0.0000
# 5 0.0000 0.0000 0.0000 0.0000 -34.3223 0.0000
# 6 0.0000 0.0000 0.0000 0.0000 0.0000 -64.9200
#
#
#
# Elastic Compliance Matrix: (Units=1/GPa)
#
#
# Indices 1 2 3 4 5 6 
#
# 1 0.007581 -0.003200 -0.000610 0.000000 0.000000 0.000000
# 2 -0.003200 0.017412 -0.003174 0.000000 0.000000 0.000000
# 3 -0.000610 -0.003174 0.009730 0.000000 0.000000 0.000000
# 4 0.000000 0.000000 0.000000 0.034611 0.000000 0.000000
# 5 0.000000 0.000000 0.000000 0.000000 -0.029136 0.000000
# 6 0.000000 0.000000 0.000000 0.000000 0.000000 -0.015404
#
#
# Mechanical properties :
#
#
# Convention : Reuss Voigt Hill
#
# Bulk Modulus (GPa) = 48.17999 52.44289 50.31144
# Shear Modulus (GPa) = 109.45155 2.73449 56.09302
#
# Velocity S-wave (km/s) = 7.14696 1.12966 5.11641
# Velocity P-wave (km/s) = 9.51789 5.11622 7.64087
#
# Compressibility (1/GPa) = 0.02075551
#
# Stress axis : x y z
#
# Youngs Moduli (GPa) = 131.90801 57.43078 102.77298
#
# Poissons Ratio (x) = 0.18377 0.06274
# Poissons Ratio (y) = 0.42207 0.32618
# Poissons Ratio (z) = 0.08052 0.18227
#
# Static dielectric constant tensor:
#      x y z
#    x 1.750950 0.000000 0.000000 
#    y 0.000000 1.787970 0.000000 
#    z 0.000000 0.000000 1.802400 
# 
# From -- ./inp_files/42444.got.cif
#   From: 2010.05.17/outbox.cif.g08.bks.cpg/sg69_22_cif.got.tgz:42444.got - 2010.06.03 19:29:58.
