data_PCOD9512567
_publ_section_title
;
Structure prediction by ZEFSAII (Michael W. Deem and Ramdas Pophale) SiO2 
 PCOD9512567
Probable space group: F M M M
;
_chemical_formula_sum "Si O2"
_cell_formula_units_Z 132
_cell_length_a 27.936280
_cell_length_b 15.246184
_cell_length_c 15.711177
_cell_angle_alpha 90.000000
_cell_angle_beta 90.000000
_cell_angle_gamma 90.000000
_cell_volume 6691.730669
_symmetry_space_group_name_H-M "F M M M"
_symmetry_group_IT_number 69
_symmetry_cell_setting 'orthorhombic'
loop_
_space_group_symop_operation_xyz
x,y,z
-x,-y,z
x,-y,-z
-x,y,-z
-x,-y,-z
x,y,-z
-x,y,z
x,-y,z
x,1/2+y,1/2+z
-x,1/2-y,1/2+z
x,1/2-y,1/2-z
-x,1/2+y,1/2-z
-x,1/2-y,1/2-z
x,1/2+y,1/2-z
-x,1/2+y,1/2+z
x,1/2-y,1/2+z
1/2+x,y,1/2+z
1/2-x,-y,1/2+z
1/2+x,-y,1/2-z
1/2-x,y,1/2-z
1/2-x,-y,1/2-z
1/2+x,y,1/2-z
1/2-x,y,1/2+z
1/2+x,-y,1/2+z
1/2+x,1/2+y,z
1/2-x,1/2-y,z
1/2+x,1/2-y,-z
1/2-x,1/2+y,-z
1/2-x,1/2-y,-z
1/2+x,1/2+y,-z
1/2-x,1/2+y,z
1/2+x,1/2-y,z
loop_
_atom_site_type_symbol
_atom_site_label
_atom_site_fract_x
_atom_site_fract_y
_atom_site_fract_z
Si Si1 0.425787 0.663662 0.500000
Si Si2 0.184631 0.106835 0.500000
Si Si3 0.639489 0.604942 0.097131
Si Si4 0.552717 0.291979 0.157063
Si Si5 0.500000 0.000000 0.000000
Si Si6 0.744746 0.892823 0.347891
O O1 0.369179 0.642253 0.500000
O O2 0.438508 0.719736 0.415939
O O3 0.458071 0.576970 0.500000
O O4 0.214722 0.134100 0.415722
O O5 0.182816 0.000000 0.500000
O O6 0.640288 0.500000 0.102073
O O7 0.596653 0.641582 0.152674
O O8 0.692364 0.636103 0.121386
O O9 0.629505 0.630560 0.000000
O O10 0.500000 0.332190 0.141584
O O11 0.552323 0.250000 0.250000
O O12 0.750000 0.865006 0.250000
O O13 0.745426 0.000000 0.348731
#
# Coordination Sequence:
#
# PCOD9512567 Si02
#       6
#    16  16  32  32   4  32
#     4  12  24  45  68  93 129 164 219 269 316 380
#     4  10  20  35  60  93 121 160 210 258 316 375
#     4  10  20  39  67  93 123 166 211 256 312 382
#     4  11  25  45  64  90 129 168 205 268 331 368
#     4  12  24  48  72 100 118 178 224 264 314 384
#     4   9  18  34  57  90 127 163 204 256 309 374
#
# _framework density 19.725838
#
# number of rings (size 3 to 8) (size 9 to 14) (size 15 to 20)
#    0.000    1.697    4.242    0.000    3.394    0.485 
#    2.182    3.636    0.000    0.000    0.000    0.000 
#    0.000    0.000    0.000    0.000    0.000    0.000 
#
# Total GULP energy -184033.649519 kJ/mol
# GULP energy per Si atom -5576.777258 kJ/mol
# Density = 1.968094 g / cm^3
# Si number density = 19.725838 Si / 1000 Ang^3
#
#
#
# Elastic Constant Matrix: (Units=GPa)
#
#
# Indices 1 2 3 4 5 6 
#
# 1 191.0638 17.4881 50.3302 0.0000 0.0000 0.0000
# 2 17.4881 32.7517 14.6699 0.0000 0.0000 0.0000
# 3 50.3302 14.6699 123.6726 0.0000 0.0000 0.0000
# 4 0.0000 0.0000 0.0000 10.7361 0.0000 0.0000
# 5 0.0000 0.0000 0.0000 0.0000 32.9953 0.0000
# 6 0.0000 0.0000 0.0000 0.0000 0.0000 20.1154
#
#
#
# Elastic Compliance Matrix: (Units=1/GPa)
#
#
# Indices 1 2 3 4 5 6 
#
# 1 0.006013 -0.002233 -0.002182 0.000000 0.000000 0.000000
# 2 -0.002233 0.033075 -0.003015 0.000000 0.000000 0.000000
# 3 -0.002182 -0.003015 0.009332 0.000000 0.000000 0.000000
# 4 0.000000 0.000000 0.000000 0.093144 0.000000 0.000000
# 5 0.000000 0.000000 0.000000 0.000000 0.030307 0.000000
# 6 0.000000 0.000000 0.000000 0.000000 0.000000 0.049713
#
#
# Mechanical properties :
#
#
# Convention : Reuss Voigt Hill
#
# Bulk Modulus (GPa) = 29.79733 56.94049 43.36891
# Shear Modulus (GPa) = 20.19132 30.43601 25.31367
#
# Velocity S-wave (km/s) = 3.20284 3.93230 3.58617
# Velocity P-wave (km/s) = 5.36807 7.03889 6.25948
#
# Compressibility (1/GPa) = 0.03356005
#
# Stress axis : x y z
#
# Youngs Moduli (GPa) = 166.30345 30.23389 107.16368
#
# Poissons Ratio (x) = 0.06752 0.23385
# Poissons Ratio (y) = 0.37141 0.32305
# Poissons Ratio (z) = 0.36291 0.09114
#
# Static dielectric constant tensor:
#      x y z
#    x 1.693140 0.000000 0.000000 
#    y 0.000000 1.699470 0.000000 
#    z 0.000000 0.000000 1.697900 
# 
# From -- ./inp_files/18678.got.cif
#   From: 2010.05.17/outbox.cif.g08.bks.cpg/sg69_10_cif.got.tgz:18678.got - 2010.06.03 19:29:58.
