data_PCOD9512693
_publ_section_title
;
Structure prediction by ZEFSAII (Michael W. Deem and Ramdas Pophale) SiO2 
 PCOD9512693
Probable space group: F M M M
;
_chemical_formula_sum "Si O2"
_cell_formula_units_Z 168
_cell_length_a 19.668577
_cell_length_b 16.647650
_cell_length_c 28.003024
_cell_angle_alpha 90.000000
_cell_angle_beta 90.000000
_cell_angle_gamma 90.000000
_cell_volume 9169.186570
_symmetry_space_group_name_H-M "F M M M"
_symmetry_group_IT_number 69
_symmetry_cell_setting 'orthorhombic'
loop_
_space_group_symop_operation_xyz
x,y,z
-x,-y,z
x,-y,-z
-x,y,-z
-x,-y,-z
x,y,-z
-x,y,z
x,-y,z
x,1/2+y,1/2+z
-x,1/2-y,1/2+z
x,1/2-y,1/2-z
-x,1/2+y,1/2-z
-x,1/2-y,1/2-z
x,1/2+y,1/2-z
-x,1/2+y,1/2+z
x,1/2-y,1/2+z
1/2+x,y,1/2+z
1/2-x,-y,1/2+z
1/2+x,-y,1/2-z
1/2-x,y,1/2-z
1/2-x,-y,1/2-z
1/2+x,y,1/2-z
1/2-x,y,1/2+z
1/2+x,-y,1/2+z
1/2+x,1/2+y,z
1/2-x,1/2-y,z
1/2+x,1/2-y,-z
1/2-x,1/2+y,-z
1/2-x,1/2-y,-z
1/2+x,1/2+y,-z
1/2-x,1/2+y,z
1/2+x,1/2-y,z
loop_
_atom_site_type_symbol
_atom_site_label
_atom_site_fract_x
_atom_site_fract_y
_atom_site_fract_z
Si Si1 0.500000 0.738185 0.447107
Si Si2 0.242873 0.903091 0.554724
Si Si3 0.168499 0.241908 0.805077
Si Si4 0.500000 0.500000 0.375106
Si Si5 0.855696 0.907997 0.131364
Si Si6 0.390863 0.853473 0.113384
Si Si7 0.500000 0.413105 0.918813
O O1 0.500000 0.701673 0.500000
O O2 0.434931 0.708497 0.417887
O O3 0.500000 0.833671 0.449694
O O4 0.246280 0.872875 0.500000
O O5 0.306965 0.880080 0.587762
O O6 0.174783 0.877349 0.582138
O O7 0.243412 0.000000 0.552268
O O8 0.147740 0.250000 0.750000
O O9 0.250000 0.250000 0.808026
O O10 0.151148 0.154606 0.826077
O O11 0.133951 0.308915 0.838682
O O12 0.440007 0.570865 0.376912
O O13 0.932599 0.909541 0.113127
O O14 0.836051 0.000000 0.143997
O O15 0.500000 0.500000 0.943656
#
# Coordination Sequence:
#
# PCOD9512693 Si02
#       7
#    16  32  32   8  32  32  16
#     4  11  23  36  58  92 126 165 207 250 317 384
#     4  10  20  36  61  92 125 167 212 252 307 381
#     4  11  23  42  68  98 126 165 217 276 331 377
#     4  10  24  40  67  94 130 176 198 266 329 388
#     4  10  21  41  63  90 125 166 208 265 319 382
#     4  11  21  42  62  91 133 164 211 262 321 378
#     4  10  21  39  61  81 121 162 207 256 316 370
#
# _framework density 18.322236
#
# number of rings (size 3 to 8) (size 9 to 14) (size 15 to 20)
#    0.000    1.524    4.762    0.571    0.000    0.952 
#    1.714    9.524    2.095    0.000    0.000    0.000 
#    0.000    0.000    0.000    0.000    0.000    0.000 
#
# Total GULP energy -233862.896913 kJ/mol
# GULP energy per Si atom -5568.164212 kJ/mol
# Density = 1.828053 g / cm^3
# Si number density = 18.322236 Si / 1000 Ang^3
#
#
#
# Elastic Constant Matrix: (Units=GPa)
#
#
# Indices 1 2 3 4 5 6 
#
# 1 134.1112 38.1077 67.4864 0.0000 0.0000 0.0000
# 2 38.1077 118.3905 68.7079 0.0000 0.0000 0.0000
# 3 67.4864 68.7079 169.3161 0.0000 0.0000 0.0000
# 4 0.0000 0.0000 0.0000 17.7061 0.0000 0.0000
# 5 0.0000 0.0000 0.0000 0.0000 65.4158 0.0000
# 6 0.0000 0.0000 0.0000 0.0000 0.0000 17.3985
#
#
#
# Elastic Compliance Matrix: (Units=1/GPa)
#
#
# Indices 1 2 3 4 5 6 
#
# 1 0.009439 -0.001118 -0.003309 0.000000 0.000000 0.000000
# 2 -0.001118 0.011181 -0.004092 0.000000 0.000000 0.000000
# 3 -0.003309 -0.004092 0.008885 0.000000 0.000000 0.000000
# 4 0.000000 0.000000 0.000000 0.056478 0.000000 0.000000
# 5 0.000000 0.000000 0.000000 0.000000 0.015287 0.000000
# 6 0.000000 0.000000 0.000000 0.000000 0.000000 0.057476
#
#
# Mechanical properties :
#
#
# Convention : Reuss Voigt Hill
#
# Bulk Modulus (GPa) = 80.19977 85.60242 82.90109
# Shear Modulus (GPa) = 27.78718 36.60512 32.19615
#
# Velocity S-wave (km/s) = 3.89856 4.47458 4.19647
# Velocity P-wave (km/s) = 8.00824 8.57425 8.29607
#
# Compressibility (1/GPa) = 0.01246886
#
# Stress axis : x y z
#
# Youngs Moduli (GPa) = 105.94218 89.43679 112.54711
#
# Poissons Ratio (x) = 0.10001 0.37236
# Poissons Ratio (y) = 0.11846 0.46049
# Poissons Ratio (z) = 0.35051 0.36594
#
# Static dielectric constant tensor:
#      x y z
#    x 1.617410 0.000000 0.000000 
#    y 0.000000 1.651540 0.000000 
#    z 0.000000 0.000000 1.603870 
# 
# From -- ./inp_files/42629.got.cif
#   From: 2010.05.17/outbox.cif.g08.bks.cpg/sg69_22_cif.got.tgz:42629.got - 2010.06.03 19:29:58.
