data_PCOD9512981
_publ_section_title
;
Structure prediction by ZEFSAII (Michael W. Deem and Ramdas Pophale) SiO2 
 PCOD9512981
Probable space group: F M M M
;
_chemical_formula_sum "Si O2"
_cell_formula_units_Z 144
_cell_length_a 32.450577
_cell_length_b 8.752343
_cell_length_c 27.426135
_cell_angle_alpha 90.000000
_cell_angle_beta 90.000000
_cell_angle_gamma 90.000000
_cell_volume 7789.531930
_symmetry_space_group_name_H-M "F M M M"
_symmetry_group_IT_number 69
_symmetry_cell_setting 'orthorhombic'
loop_
_space_group_symop_operation_xyz
x,y,z
-x,-y,z
x,-y,-z
-x,y,-z
-x,-y,-z
x,y,-z
-x,y,z
x,-y,z
x,1/2+y,1/2+z
-x,1/2-y,1/2+z
x,1/2-y,1/2-z
-x,1/2+y,1/2-z
-x,1/2-y,1/2-z
x,1/2+y,1/2-z
-x,1/2+y,1/2+z
x,1/2-y,1/2+z
1/2+x,y,1/2+z
1/2-x,-y,1/2+z
1/2+x,-y,1/2-z
1/2-x,y,1/2-z
1/2-x,-y,1/2-z
1/2+x,y,1/2-z
1/2-x,y,1/2+z
1/2+x,-y,1/2+z
1/2+x,1/2+y,z
1/2-x,1/2-y,z
1/2+x,1/2-y,-z
1/2-x,1/2+y,-z
1/2-x,1/2-y,-z
1/2+x,1/2+y,-z
1/2-x,1/2+y,z
1/2+x,1/2-y,z
loop_
_atom_site_type_symbol
_atom_site_label
_atom_site_fract_x
_atom_site_fract_y
_atom_site_fract_z
Si Si1 0.793930 0.183739 0.904880
Si Si2 0.331351 0.317102 0.801905
Si Si3 0.000000 0.182281 0.695784
Si Si4 0.122539 0.182582 0.555481
Si Si5 0.917562 0.683420 0.650038
O O1 0.750000 0.250000 0.919633
O O2 0.803488 0.226862 0.848302
O O3 0.831535 0.253434 0.935356
O O4 0.794674 0.000000 0.908564
O O5 0.330444 0.500000 0.798656
O O6 0.319167 0.250000 0.750000
O O7 0.378205 0.271877 0.816378
O O8 0.000000 0.250000 0.750000
O O9 0.959137 0.241470 0.668927
O O10 0.000000 0.000000 0.697796
O O11 0.109903 0.214902 0.500000
O O12 0.094066 0.261401 0.595912
O O13 0.122509 0.000000 0.562852
O O14 0.920866 0.500000 0.651193
#
# Coordination Sequence:
#
# PCOD9512981 Si02
#       5
#    32  32  16  32  32
#     4  10  21  36  53  77 108 142 184 231 278 330
#     4   9  19  33  51  75 104 141 181 221 268 324
#     4  12  24  38  59  88 121 154 188 227 271 321
#     4  10  21  38  60  84 110 143 182 226 280 337
#     4  10  21  38  58  83 114 147 186 229 275 327
#
# _framework density 18.486349000000001
#
# number of rings (size 3 to 8) (size 9 to 14) (size 15 to 20)
#    0.000    2.000    0.000    5.000    0.000    9.778 
#    0.000    2.778    0.000    3.333    0.000    0.000 
#    0.000    0.000    0.000    0.000    0.000    0.000 
#
# Total GULP energy -201107.620322 kJ/mol
# GULP energy per Si atom -5586.322787 kJ/mol
# Density = 1.844427 g / cm^3
# Si number density = 18.486349 Si / 1000 Ang^3
#
#
#
# Elastic Constant Matrix: (Units=GPa)
#
#
# Indices 1 2 3 4 5 6 
#
# 1 98.9695 31.4759 21.0473 0.0000 0.0000 -0.0001
# 2 31.4759 69.9293 30.3364 0.0000 0.0000 0.0000
# 3 21.0473 30.3364 84.4524 0.0000 0.0000 0.0000
# 4 0.0000 0.0000 0.0000 32.9001 0.0000 0.0000
# 5 0.0000 0.0000 0.0000 0.0000 2.7465 0.0000
# 6 -0.0001 0.0000 0.0000 0.0000 0.0000 27.8700
#
#
#
# Elastic Compliance Matrix: (Units=1/GPa)
#
#
# Indices 1 2 3 4 5 6 
#
# 1 0.011900 -0.004821 -0.001234 0.000000 0.000000 0.000000
# 2 -0.004821 0.018893 -0.005585 0.000000 0.000000 0.000000
# 3 -0.001234 -0.005585 0.014155 0.000000 0.000000 0.000000
# 4 0.000000 0.000000 0.000000 0.030395 0.000000 0.000000
# 5 0.000000 0.000000 0.000000 0.000000 0.364097 0.000000
# 6 0.000000 0.000000 0.000000 0.000000 0.000000 0.035881
#
#
# Mechanical properties :
#
#
# Convention : Reuss Voigt Hill
#
# Bulk Modulus (GPa) = 46.15191 46.56337 46.35764
# Shear Modulus (GPa) = 9.88489 24.06943 16.97716
#
# Velocity S-wave (km/s) = 2.31489 3.61225 3.03374
# Velocity P-wave (km/s) = 5.67138 6.52997 6.11576
#
# Compressibility (1/GPa) = 0.02166757
#
# Stress axis : x y z
#
# Youngs Moduli (GPa) = 84.03535 52.92957 70.64749
#
# Poissons Ratio (x) = 0.25517 0.08717
# Poissons Ratio (y) = 0.40513 0.39458
# Poissons Ratio (z) = 0.10369 0.29562
#
# Static dielectric constant tensor:
#      x y z
#    x 1.616440 0.000000 0.000000 
#    y 0.000000 1.617260 0.000000 
#    z 0.000000 0.000000 1.632130 
# 
# From -- ./inp_files/47381.got.cif
#   From: 2010.05.17/outbox.cif.g08.bks.cpg/sg69_24_cif.got.tgz:47381.got - 2010.06.03 19:29:58.
