data_PCOD9512869
_publ_section_title
;
Structure prediction by ZEFSAII (Michael W. Deem and Ramdas Pophale) SiO2 
 PCOD9512869
Probable space group: F M M M
;
_chemical_formula_sum "Si O2"
_cell_formula_units_Z 168
_cell_length_a 24.177584
_cell_length_b 16.184239
_cell_length_c 20.167354
_cell_angle_alpha 90.000000
_cell_angle_beta 90.000000
_cell_angle_gamma 90.000000
_cell_volume 7891.400875
_symmetry_space_group_name_H-M "F M M M"
_symmetry_group_IT_number 69
_symmetry_cell_setting 'orthorhombic'
loop_
_space_group_symop_operation_xyz
x,y,z
-x,-y,z
x,-y,-z
-x,y,-z
-x,-y,-z
x,y,-z
-x,y,z
x,-y,z
x,1/2+y,1/2+z
-x,1/2-y,1/2+z
x,1/2-y,1/2-z
-x,1/2+y,1/2-z
-x,1/2-y,1/2-z
x,1/2+y,1/2-z
-x,1/2+y,1/2+z
x,1/2-y,1/2+z
1/2+x,y,1/2+z
1/2-x,-y,1/2+z
1/2+x,-y,1/2-z
1/2-x,y,1/2-z
1/2-x,-y,1/2-z
1/2+x,y,1/2-z
1/2-x,y,1/2+z
1/2+x,-y,1/2+z
1/2+x,1/2+y,z
1/2-x,1/2-y,z
1/2+x,1/2-y,-z
1/2-x,1/2+y,-z
1/2-x,1/2-y,-z
1/2+x,1/2+y,-z
1/2-x,1/2+y,z
1/2+x,1/2-y,z
loop_
_atom_site_type_symbol
_atom_site_label
_atom_site_fract_x
_atom_site_fract_y
_atom_site_fract_z
Si Si1 0.870398 0.632084 0.879609
Si Si2 0.120523 0.500000 0.000000
Si Si3 0.063626 0.591420 0.250640
Si Si4 0.252860 0.899222 0.172475
Si Si5 0.160111 0.401373 0.571334
Si Si6 0.065051 0.697747 0.620760
O O1 0.878643 0.571662 0.941346
O O2 0.896412 0.596990 0.811479
O O3 0.805477 0.639877 0.863952
O O4 0.902931 0.717146 0.889917
O O5 0.070791 0.500000 0.282265
O O6 0.071252 0.663302 0.304073
O O7 0.000000 0.596858 0.226874
O O8 0.250000 0.877761 0.250000
O O9 0.197814 0.874274 0.132889
O O10 0.258831 0.000000 0.168146
O O11 0.183830 0.374563 0.500000
O O12 0.160356 0.500000 0.572535
O O13 0.098344 0.368591 0.578138
O O14 0.000000 0.704546 0.606722
#
# Coordination Sequence:
#
# PCOD9512869 Si02
#       6
#    32   8  32  32  32  32
#     4  12  24  43  67  99 141 183 233 277 340 414
#     4  12  28  44  67  98 138 206 227 272 338 426
#     4  10  20  40  68  97 131 176 230 289 347 404
#     4  10  21  40  70 100 131 172 224 285 341 411
#     4  10  23  42  67  97 131 173 221 280 354 419
#     4  11  25  44  68  99 136 179 231 291 344 401
#
# _framework density 21.288996000000001
#
# number of rings (size 3 to 8) (size 9 to 14) (size 15 to 20)
#    0.000    1.333    1.905    2.857    2.667    5.333 
#    0.000    6.190    0.000    0.000    0.000    0.000 
#    0.000    0.000    0.000    0.000    0.000    0.000 
#
# Total GULP energy -234213.286316 kJ/mol
# GULP energy per Si atom -5576.506817 kJ/mol
# Density = 2.124054 g / cm^3
# Si number density = 21.288996 Si / 1000 Ang^3
#
#
#
# Elastic Constant Matrix: (Units=GPa)
#
#
# Indices 1 2 3 4 5 6 
#
# 1 119.0351 35.0946 53.8242 0.0000 0.0000 0.0000
# 2 35.0946 44.0351 36.6649 0.0000 0.0000 0.0000
# 3 53.8242 36.6649 122.2161 0.0000 0.0000 0.0000
# 4 0.0000 0.0000 0.0000 18.6309 0.0000 0.0000
# 5 0.0000 0.0000 0.0000 0.0000 3.6852 0.0000
# 6 0.0000 0.0000 0.0000 0.0000 0.0000 28.4776
#
#
#
# Elastic Compliance Matrix: (Units=1/GPa)
#
#
# Indices 1 2 3 4 5 6 
#
# 1 0.011839 -0.006790 -0.003177 0.000000 0.000000 0.000000
# 2 -0.006790 0.034165 -0.007259 0.000000 0.000000 0.000000
# 3 -0.003177 -0.007259 0.011759 0.000000 0.000000 0.000000
# 4 0.000000 0.000000 0.000000 0.053674 0.000000 0.000000
# 5 0.000000 0.000000 0.000000 0.000000 0.271359 0.000000
# 6 0.000000 0.000000 0.000000 0.000000 0.000000 0.035115
#
#
# Mechanical properties :
#
#
# Convention : Reuss Voigt Hill
#
# Bulk Modulus (GPa) = 42.89882 59.60599 51.25240
# Shear Modulus (GPa) = 10.86637 20.80556 15.83597
#
# Velocity S-wave (km/s) = 2.26170 3.12956 2.73033
# Velocity P-wave (km/s) = 5.19758 6.41234 5.83665
#
# Compressibility (1/GPa) = 0.02331067
#
# Stress axis : x y z
#
# Youngs Moduli (GPa) = 84.46368 29.26981 85.04069
#
# Poissons Ratio (x) = 0.19875 0.27017
# Poissons Ratio (y) = 0.57354 0.61731
# Poissons Ratio (z) = 0.26834 0.21247
#
# Static dielectric constant tensor:
#      x y z
#    x 1.764000 0.000000 0.000000 
#    y 0.000000 1.797930 0.000000 
#    z 0.000000 0.000000 1.764300 
# 
# From -- ./inp_files/33421.got.cif
#   From: 2010.05.17/outbox.cif.g08.bks.cpg/sg69_17_cif.got.tgz:33421.got - 2010.06.03 19:29:58.
