data_PCOD9512350
_publ_section_title
;
Structure prediction by ZEFSAII (Michael W. Deem and Ramdas Pophale) SiO2 
 PCOD9512350
Probable space group: F M M M
;
_chemical_formula_sum "Si O2"
_cell_formula_units_Z 112
_cell_length_a 11.079000
_cell_length_b 20.183515
_cell_length_c 20.383340
_cell_angle_alpha 90.000000
_cell_angle_beta 90.000000
_cell_angle_gamma 90.000000
_cell_volume 4557.983123
_symmetry_space_group_name_H-M "F M M M"
_symmetry_group_IT_number 69
_symmetry_cell_setting 'orthorhombic'
loop_
_space_group_symop_operation_xyz
x,y,z
-x,-y,z
x,-y,-z
-x,y,-z
-x,-y,-z
x,y,-z
-x,y,z
x,-y,z
x,1/2+y,1/2+z
-x,1/2-y,1/2+z
x,1/2-y,1/2-z
-x,1/2+y,1/2-z
-x,1/2-y,1/2-z
x,1/2+y,1/2-z
-x,1/2+y,1/2+z
x,1/2-y,1/2+z
1/2+x,y,1/2+z
1/2-x,-y,1/2+z
1/2+x,-y,1/2-z
1/2-x,y,1/2-z
1/2-x,-y,1/2-z
1/2+x,y,1/2-z
1/2-x,y,1/2+z
1/2+x,-y,1/2+z
1/2+x,1/2+y,z
1/2-x,1/2-y,z
1/2+x,1/2-y,-z
1/2-x,1/2+y,-z
1/2-x,1/2-y,-z
1/2+x,1/2+y,-z
1/2-x,1/2+y,z
1/2+x,1/2-y,z
loop_
_atom_site_type_symbol
_atom_site_label
_atom_site_fract_x
_atom_site_fract_y
_atom_site_fract_z
Si Si1 0.000000 0.110755 0.924236
Si Si2 0.633894 0.422019 0.711715
Si Si3 0.500000 0.267396 0.825586
Si Si4 0.237263 0.399046 0.928835
Si Si5 0.250000 0.750000 0.891715
O O1 0.127040 0.073635 0.919570
O O2 0.000000 0.161545 0.863202
O O3 0.000000 0.138969 0.000000
O O4 0.500000 0.394939 0.726483
O O5 0.630319 0.500000 0.729064
O O6 0.750000 0.392090 0.750000
O O7 0.659412 0.416645 0.634225
O O8 0.500000 0.250000 0.750000
O O9 0.627647 0.239880 0.851113
O O10 0.258550 0.319390 0.929294
O O11 0.188541 0.418703 0.000000
#
# Coordination Sequence:
#
# PCOD9512350 Si02
#       5
#    16  32  16  32  16
#     4   8  18  36  55  82 124 163 199 251 312 369
#     4  10  24  45  68  95 128 167 210 263 325 383
#     4  10  20  34  54  79 114 159 210 259 295 361
#     4  10  21  39  64  93 126 168 213 263 316 377
#     4  10  22  38  56  88 128 166 208 252 318 376
#
# _framework density 24.572272000000002
#
# number of rings (size 3 to 8) (size 9 to 14) (size 15 to 20)
#    0.000    2.286    0.000    0.857    4.000    6.857 
#    0.000    1.429    0.000    2.571    0.000    0.000 
#    0.000    0.000    0.000    0.000    0.000    0.000 
#
# Total GULP energy -156313.881747 kJ/mol
# GULP energy per Si atom -5582.638634 kJ/mol
# Density = 2.451634 g / cm^3
# Si number density = 24.572272 Si / 1000 Ang^3
#
#
#
# Elastic Constant Matrix: (Units=GPa)
#
#
# Indices 1 2 3 4 5 6 
#
# 1 208.1130 16.5135 93.1576 0.0000 0.0000 0.0000
# 2 16.5135 96.6509 15.8007 0.0000 0.0000 0.0000
# 3 93.1576 15.8007 185.1461 0.0000 0.0000 0.0000
# 4 0.0000 0.0000 0.0000 79.2963 0.0000 0.0000
# 5 0.0000 0.0000 0.0000 0.0000 69.1263 0.0000
# 6 0.0000 0.0000 0.0000 0.0000 0.0000 6.8252
#
#
#
# Elastic Compliance Matrix: (Units=1/GPa)
#
#
# Indices 1 2 3 4 5 6 
#
# 1 0.006232 -0.000560 -0.003088 0.000000 0.000000 0.000000
# 2 -0.000560 0.010543 -0.000618 0.000000 0.000000 0.000000
# 3 -0.003088 -0.000618 0.007007 0.000000 0.000000 0.000000
# 4 0.000000 0.000000 0.000000 0.012611 0.000000 0.000000
# 5 0.000000 0.000000 0.000000 0.000000 0.014466 0.000000
# 6 0.000000 0.000000 0.000000 0.000000 0.000000 0.146517
#
#
# Mechanical properties :
#
#
# Convention : Reuss Voigt Hill
#
# Bulk Modulus (GPa) = 65.56955 82.31708 73.94331
# Shear Modulus (GPa) = 23.69765 55.34541 39.52153
#
# Velocity S-wave (km/s) = 3.10886 4.75104 4.01481
# Velocity P-wave (km/s) = 6.29515 7.97930 7.18673
#
# Compressibility (1/GPa) = 0.01525098
#
# Stress axis : x y z
#
# Youngs Moduli (GPa) = 160.47060 94.84765 142.70432
#
# Poissons Ratio (x) = 0.05311 0.44063
# Poissons Ratio (y) = 0.08985 0.08820
# Poissons Ratio (z) = 0.49549 0.05862
#
# Static dielectric constant tensor:
#      x y z
#    x 1.786380 0.000000 0.000000 
#    y 0.000000 2.034980 0.000000 
#    z 0.000000 0.000000 1.910390 
# 
# From -- ./inp_files/20853.got.cif
#   From: 2010.05.17/outbox.cif.g08.bks.cpg/sg69_11_cif.got.tgz:20853.got - 2010.06.03 19:29:58.
