data_PCOD9512032
_publ_section_title
;
Structure prediction by ZEFSAII (Michael W. Deem and Ramdas Pophale) SiO2 
 PCOD9512032
Probable space group: F M M M
;
_chemical_formula_sum "Si O2"
_cell_formula_units_Z 128
_cell_length_a 14.928807
_cell_length_b 17.797528
_cell_length_c 27.498151
_cell_angle_alpha 90.000000
_cell_angle_beta 90.000000
_cell_angle_gamma 90.000000
_cell_volume 7306.144895
_symmetry_space_group_name_H-M "F M M M"
_symmetry_group_IT_number 69
_symmetry_cell_setting 'orthorhombic'
loop_
_space_group_symop_operation_xyz
x,y,z
-x,-y,z
x,-y,-z
-x,y,-z
-x,-y,-z
x,y,-z
-x,y,z
x,-y,z
x,1/2+y,1/2+z
-x,1/2-y,1/2+z
x,1/2-y,1/2-z
-x,1/2+y,1/2-z
-x,1/2-y,1/2-z
x,1/2+y,1/2-z
-x,1/2+y,1/2+z
x,1/2-y,1/2+z
1/2+x,y,1/2+z
1/2-x,-y,1/2+z
1/2+x,-y,1/2-z
1/2-x,y,1/2-z
1/2-x,-y,1/2-z
1/2+x,y,1/2-z
1/2-x,y,1/2+z
1/2+x,-y,1/2+z
1/2+x,1/2+y,z
1/2-x,1/2-y,z
1/2+x,1/2-y,-z
1/2-x,1/2+y,-z
1/2-x,1/2-y,-z
1/2+x,1/2+y,-z
1/2-x,1/2+y,z
1/2+x,1/2-y,z
loop_
_atom_site_type_symbol
_atom_site_label
_atom_site_fract_x
_atom_site_fract_y
_atom_site_fract_z
Si Si1 0.813481 0.316836 0.893744
Si Si2 0.500000 0.876581 0.442784
Si Si3 0.000000 0.194949 0.444210
Si Si4 0.893168 0.771357 0.804871
Si Si5 0.845613 0.085694 0.132984
O O1 0.750000 0.250000 0.915939
O O2 0.843309 0.283827 0.841739
O O3 0.750945 0.388334 0.886473
O O4 0.906243 0.330419 0.921111
O O5 0.500000 0.898025 0.500000
O O6 0.500000 0.785936 0.440165
O O7 0.414823 0.903994 0.411769
O O8 0.000000 0.173434 0.500000
O O9 0.868278 0.750000 0.750000
O O10 0.871436 0.854989 0.824613
O O11 0.000000 0.761193 0.809855
O O12 0.847978 0.000000 0.149504
#
# Coordination Sequence:
#
# PCOD9512032 Si02
#       5
#    32  16  16  32  32
#     4  10  19  36  55  83 112 149 191 237 281 334
#     4  11  21  36  59  88 118 148 189 245 293 332
#     4  11  20  35  59  86 114 149 198 243 279 328
#     4  10  19  36  61  84 108 148 189 237 288 338
#     4  11  22  37  58  86 120 153 187 232 290 349
#
# _framework density 17.519500000000001
#
# number of rings (size 3 to 8) (size 9 to 14) (size 15 to 20)
#    0.000    1.500    7.500    0.375    0.000    7.000 
#    0.000    3.125    0.000    2.250    0.000    0.000 
#    0.000    0.000    0.000    0.000    0.000    0.000 
#
# Total GULP energy -178485.823566 kJ/mol
# GULP energy per Si atom -5577.681986 kJ/mol
# Density = 1.747963 g / cm^3
# Si number density = 17.519500 Si / 1000 Ang^3
#
#
#
# Elastic Constant Matrix: (Units=GPa)
#
#
# Indices 1 2 3 4 5 6 
#
# 1 153.6891 37.1489 68.6349 0.0000 0.0000 0.0000
# 2 37.1489 79.4878 52.7818 0.0000 0.0000 0.0000
# 3 68.6349 52.7818 125.0498 0.0000 0.0000 0.0000
# 4 0.0000 0.0000 0.0000 12.4528 0.0000 0.0000
# 5 0.0000 0.0000 0.0000 0.0000 -9.2895 0.0000
# 6 0.0000 0.0000 0.0000 0.0000 0.0000 6.4878
#
#
#
# Elastic Compliance Matrix: (Units=1/GPa)
#
#
# Indices 1 2 3 4 5 6 
#
# 1 0.008707 -0.001245 -0.004254 0.000000 0.000000 0.000000
# 2 -0.001245 0.017658 -0.006770 0.000000 0.000000 0.000000
# 3 -0.004254 -0.006770 0.013189 0.000000 0.000000 0.000000
# 4 0.000000 0.000000 0.000000 0.080303 0.000000 0.000000
# 5 0.000000 0.000000 0.000000 0.000000 -0.107648 0.000000
# 6 0.000000 0.000000 0.000000 0.000000 0.000000 0.154135
#
#
# Mechanical properties :
#
#
# Convention : Reuss Voigt Hill
#
# Bulk Modulus (GPa) = 66.59027 75.03978 70.81503
# Shear Modulus (GPa) = 25.52516 15.24096 20.38306
#
# Velocity S-wave (km/s) = 3.82115 2.95268 3.41464
# Velocity P-wave (km/s) = 7.58683 7.38577 7.48697
#
# Compressibility (1/GPa) = 0.01501721
#
# Stress axis : x y z
#
# Youngs Moduli (GPa) = 114.84874 56.63272 75.82148
#
# Poissons Ratio (x) = 0.07050 0.32251
# Poissons Ratio (y) = 0.14297 0.51330
# Poissons Ratio (z) = 0.48852 0.38339
#
# Static dielectric constant tensor:
#      x y z
#    x 1.636920 0.000000 0.000000 
#    y 0.000000 1.578550 0.000000 
#    z 0.000000 0.000000 1.597780 
# 
# From -- ./inp_files/18657.got.cif
#   From: 2010.05.17/outbox.cif.g08.bks.cpg/sg69_10_cif.got.tgz:18657.got - 2010.06.03 19:29:58.
