data_PCOD9512035
_publ_section_title
;
Structure prediction by ZEFSAII (Michael W. Deem and Ramdas Pophale) SiO2 
 PCOD9512035
Probable space group: F M M M
;
_chemical_formula_sum "Si O2"
_cell_formula_units_Z 116
_cell_length_a 32.207141
_cell_length_b 7.425311
_cell_length_c 24.577212
_cell_angle_alpha 90.000000
_cell_angle_beta 90.000000
_cell_angle_gamma 90.000000
_cell_volume 5877.592038
_symmetry_space_group_name_H-M "F M M M"
_symmetry_group_IT_number 69
_symmetry_cell_setting 'orthorhombic'
loop_
_space_group_symop_operation_xyz
x,y,z
-x,-y,z
x,-y,-z
-x,y,-z
-x,-y,-z
x,y,-z
-x,y,z
x,-y,z
x,1/2+y,1/2+z
-x,1/2-y,1/2+z
x,1/2-y,1/2-z
-x,1/2+y,1/2-z
-x,1/2-y,1/2-z
x,1/2+y,1/2-z
-x,1/2+y,1/2+z
x,1/2-y,1/2+z
1/2+x,y,1/2+z
1/2-x,-y,1/2+z
1/2+x,-y,1/2-z
1/2-x,y,1/2-z
1/2-x,-y,1/2-z
1/2+x,y,1/2-z
1/2-x,y,1/2+z
1/2+x,-y,1/2+z
1/2+x,1/2+y,z
1/2-x,1/2-y,z
1/2+x,1/2-y,-z
1/2-x,1/2+y,-z
1/2-x,1/2-y,-z
1/2+x,1/2+y,-z
1/2-x,1/2+y,z
1/2+x,1/2-y,z
loop_
_atom_site_type_symbol
_atom_site_label
_atom_site_fract_x
_atom_site_fract_y
_atom_site_fract_z
Si Si1 0.925900 0.710671 0.500000
Si Si2 0.620627 0.713688 0.387849
Si Si3 0.000000 0.000000 0.500000
Si Si4 0.702516 0.784443 0.937683
Si Si5 0.954052 0.215615 0.685718
O O1 0.936935 0.500000 0.500000
O O2 0.899363 0.755308 0.446713
O O3 0.964357 0.843173 0.500000
O O4 0.623688 0.500000 0.376268
O O5 0.667520 0.783907 0.395926
O O6 0.586428 0.786912 0.345479
O O7 0.750000 0.750000 0.921682
O O8 0.697170 0.000000 0.940664
O O9 0.696975 0.715335 0.000000
O O10 0.950846 0.250000 0.750000
O O11 0.000000 0.282804 0.667539
O O12 0.955037 0.000000 0.676886
#
# Coordination Sequence:
#
# PCOD9512035 Si02
#       5
#    16  32   4  32  32
#     4  12  25  37  58  85 110 158 197 225 283 344
#     4  10  19  36  57  78 113 151 183 234 289 336
#     4  12  26  44  52  70 136 152 186 240 280 336
#     4   9  17  30  50  76 108 144 180 223 282 338
#     4   9  19  34  55  77 103 143 185 230 286 334
#
# _framework density 19.735973999999999
#
# number of rings (size 3 to 8) (size 9 to 14) (size 15 to 20)
#    0.000    2.207    2.759    0.207    1.931    2.207 
#    0.000    0.000    0.000    0.828    0.000    5.793 
#    0.000    0.000    0.000    0.000    0.000    0.000 
#
# Total GULP energy -161435.591237 kJ/mol
# GULP energy per Si atom -5566.744525 kJ/mol
# Density = 1.969105 g / cm^3
# Si number density = 19.735974 Si / 1000 Ang^3
#
#
#
# Elastic Constant Matrix: (Units=GPa)
#
#
# Indices 1 2 3 4 5 6 
#
# 1 228.1748 7.4993 68.9574 0.0000 -0.0001 0.0004
# 2 7.4993 50.3681 -22.7831 -0.0005 0.0008 0.0006
# 3 68.9574 -22.7831 58.3433 -0.0002 0.0001 0.0002
# 4 0.0000 -0.0005 -0.0002 13.8059 0.0003 0.0000
# 5 -0.0001 0.0008 0.0001 0.0003 96.3281 0.0012
# 6 0.0004 0.0006 0.0002 0.0000 0.0012 39.6388
#
#
#
# Elastic Compliance Matrix: (Units=1/GPa)
#
#
# Indices 1 2 3 4 5 6 
#
# 1 0.008468 -0.007030 -0.012754 0.000000 0.000000 0.000000
# 2 -0.007030 0.029949 0.020003 0.000001 0.000000 0.000000
# 3 -0.012754 0.020003 0.040025 0.000001 0.000000 0.000000
# 4 0.000000 0.000001 0.000001 0.072433 0.000000 0.000000
# 5 0.000000 0.000000 0.000000 0.000000 0.010381 0.000000
# 6 0.000000 0.000000 0.000000 0.000000 0.000000 0.025228
#
#
# Mechanical properties :
#
#
# Convention : Reuss Voigt Hill
#
# Bulk Modulus (GPa) = 12.67711 49.35924 31.01817
# Shear Modulus (GPa) = 23.54748 48.83540 36.19144
#
# Velocity S-wave (km/s) = 3.45791 4.97977 4.28691
# Velocity P-wave (km/s) = 4.73077 7.62418 6.34462
#
# Compressibility (1/GPa) = 0.07888235
#
# Stress axis : x y z
#
# Youngs Moduli (GPa) = 118.09274 33.39042 24.98438
#
# Poissons Ratio (x) = 0.23472 0.31864
# Poissons Ratio (y) = 0.83015 -0.49977
# Poissons Ratio (z) = 1.50610 -0.66792
#
# Static dielectric constant tensor:
#      x y z
#    x 1.743740 0.000000 0.000000 
#    y 0.000000 1.790130 0.000000 
#    z 0.000000 0.000000 1.663660 
# 
# From -- ./inp_files/4619.got.cif
#   From: 2010.05.17/outbox.cif.g08.bks.cpg/sg69_3_cif.got.tgz:4619.got - 2010.06.03 19:29:58.
