data_PCOD9512885
_publ_section_title
;
Structure prediction by ZEFSAII (Michael W. Deem and Ramdas Pophale) SiO2 
 PCOD9512885
Probable space group: F M M M
;
_chemical_formula_sum "Si O2"
_cell_formula_units_Z 104
_cell_length_a 15.785068
_cell_length_b 27.447558
_cell_length_c 13.178962
_cell_angle_alpha 90.000000
_cell_angle_beta 90.000000
_cell_angle_gamma 90.000000
_cell_volume 5709.937760
_symmetry_space_group_name_H-M "F M M M"
_symmetry_group_IT_number 69
_symmetry_cell_setting 'orthorhombic'
loop_
_space_group_symop_operation_xyz
x,y,z
-x,-y,z
x,-y,-z
-x,y,-z
-x,-y,-z
x,y,-z
-x,y,z
x,-y,z
x,1/2+y,1/2+z
-x,1/2-y,1/2+z
x,1/2-y,1/2-z
-x,1/2+y,1/2-z
-x,1/2-y,1/2-z
x,1/2+y,1/2-z
-x,1/2+y,1/2+z
x,1/2-y,1/2+z
1/2+x,y,1/2+z
1/2-x,-y,1/2+z
1/2+x,-y,1/2-z
1/2-x,y,1/2-z
1/2-x,-y,1/2-z
1/2+x,y,1/2-z
1/2-x,y,1/2+z
1/2+x,-y,1/2+z
1/2+x,1/2+y,z
1/2-x,1/2-y,z
1/2+x,1/2-y,-z
1/2-x,1/2+y,-z
1/2-x,1/2-y,-z
1/2+x,1/2+y,-z
1/2-x,1/2+y,z
1/2+x,1/2-y,z
loop_
_atom_site_type_symbol
_atom_site_label
_atom_site_fract_x
_atom_site_fract_y
_atom_site_fract_z
Si Si1 0.000000 0.246612 0.000000
Si Si2 0.000000 0.697566 0.202065
Si Si3 0.403104 0.147859 0.500000
Si Si4 0.342435 0.634512 0.775790
Si Si5 0.398451 0.557994 0.384681
O O1 0.000000 0.285520 0.088474
O O2 0.921965 0.206991 0.000000
O O3 0.000000 0.750000 0.250000
O O4 0.082204 0.668554 0.236425
O O5 0.500000 0.127818 0.500000
O O6 0.357186 0.131260 0.396893
O O7 0.250000 0.654710 0.750000
O O8 0.353268 0.586032 0.706939
O O9 0.373610 0.573636 0.500000
O O10 0.500000 0.566477 0.375989
O O11 0.384729 0.500000 0.378089
#
# Coordination Sequence:
#
# PCOD9512885 Si02
#       5
#     8  16  16  32  32
#     4  10  22  40  70  80 122 174 204 258 324 362
#     4  12  22  44  59  89 125 167 206 258 313 376
#     4  10  20  45  61  86 132 165 201 268 319 361
#     4  12  25  38  66  94 125 166 215 259 319 377
#     4   9  19  39  64  91 124 162 206 260 316 373
#
# _framework density 18.213857999999998
#
# number of rings (size 3 to 8) (size 9 to 14) (size 15 to 20)
#    0.462    0.923    6.154    0.923    4.308    1.231 
#    0.000    2.308    0.000    2.769    0.000    0.000 
#    0.000    0.000    0.000    0.000    0.000    0.000 
#
# Total GULP energy -144795.052023 kJ/mol
# GULP energy per Si atom -5569.040462 kJ/mol
# Density = 1.817240 g / cm^3
# Si number density = 18.213858 Si / 1000 Ang^3
#
#
#
# Elastic Constant Matrix: (Units=GPa)
#
#
# Indices 1 2 3 4 5 6 
#
# 1 116.6861 27.3182 54.0609 0.0000 0.0000 0.0000
# 2 27.3182 57.9487 45.1388 0.0000 0.0000 0.0000
# 3 54.0609 45.1388 207.9937 0.0000 0.0000 0.0000
# 4 0.0000 0.0000 0.0000 40.4346 0.0000 0.0000
# 5 0.0000 0.0000 0.0000 0.0000 25.9276 0.0000
# 6 0.0000 0.0000 0.0000 0.0000 0.0000 -18.2169
#
#
#
# Elastic Compliance Matrix: (Units=1/GPa)
#
#
# Indices 1 2 3 4 5 6 
#
# 1 0.010247 -0.003317 -0.001944 0.000000 0.000000 0.000000
# 2 -0.003317 0.021841 -0.003878 0.000000 0.000000 0.000000
# 3 -0.001944 -0.003878 0.006155 0.000000 0.000000 0.000000
# 4 0.000000 0.000000 0.000000 0.024731 0.000000 0.000000
# 5 0.000000 0.000000 0.000000 0.000000 0.038569 0.000000
# 6 0.000000 0.000000 0.000000 0.000000 0.000000 -0.054894
#
#
# Mechanical properties :
#
#
# Convention : Reuss Voigt Hill
#
# Bulk Modulus (GPa) = 50.08476 70.62937 60.35707
# Shear Modulus (GPa) = 69.85186 26.70311 48.27748
#
# Velocity S-wave (km/s) = 6.19953 3.83311 5.15397
# Velocity P-wave (km/s) = 8.87713 7.64541 8.28419
#
# Compressibility (1/GPa) = 0.01996615
#
# Stress axis : x y z
#
# Youngs Moduli (GPa) = 97.59002 45.78585 162.48101
#
# Poissons Ratio (x) = 0.15186 0.31579
# Poissons Ratio (y) = 0.32368 0.63007
# Poissons Ratio (z) = 0.18967 0.17755
#
# Static dielectric constant tensor:
#      x y z
#    x 1.636660 0.000000 0.000000 
#    y 0.000000 1.611280 0.000000 
#    z 0.000000 0.000000 1.618350 
# 
# From -- ./inp_files/8231.got.cif
#   From: 2010.05.17/outbox.cif.g08.bks.cpg/sg69_5_cif.got.tgz:8231.got - 2010.06.03 19:29:58.
