data_PCOD9512314
_publ_section_title
;
Structure prediction by ZEFSAII (Michael W. Deem and Ramdas Pophale) SiO2 
 PCOD9512314
Probable space group: F M M M
;
_chemical_formula_sum "Si O2"
_cell_formula_units_Z 144
_cell_length_a 34.753829
_cell_length_b 7.951288
_cell_length_c 26.356308
_cell_angle_alpha 90.000000
_cell_angle_beta 90.000000
_cell_angle_gamma 90.000000
_cell_volume 7283.241625
_symmetry_space_group_name_H-M "F M M M"
_symmetry_group_IT_number 69
_symmetry_cell_setting 'orthorhombic'
loop_
_space_group_symop_operation_xyz
x,y,z
-x,-y,z
x,-y,-z
-x,y,-z
-x,-y,-z
x,y,-z
-x,y,z
x,-y,z
x,1/2+y,1/2+z
-x,1/2-y,1/2+z
x,1/2-y,1/2-z
-x,1/2+y,1/2-z
-x,1/2-y,1/2-z
x,1/2+y,1/2-z
-x,1/2+y,1/2+z
x,1/2-y,1/2+z
1/2+x,y,1/2+z
1/2-x,-y,1/2+z
1/2+x,-y,1/2-z
1/2-x,y,1/2-z
1/2-x,-y,1/2-z
1/2+x,y,1/2-z
1/2-x,y,1/2+z
1/2+x,-y,1/2+z
1/2+x,1/2+y,z
1/2-x,1/2-y,z
1/2+x,1/2-y,-z
1/2-x,1/2+y,-z
1/2-x,1/2-y,-z
1/2+x,1/2+y,-z
1/2-x,1/2+y,z
1/2+x,1/2-y,z
loop_
_atom_site_type_symbol
_atom_site_label
_atom_site_fract_x
_atom_site_fract_y
_atom_site_fract_z
Si Si1 0.705634 0.702379 0.000000
Si Si2 0.126176 0.301888 0.695080
Si Si3 0.147291 0.204628 0.914725
Si Si4 0.458752 0.203586 0.165948
Si Si5 0.061861 0.700998 0.945314
O O1 0.750000 0.750000 0.000000
O O2 0.682441 0.761325 0.949989
O O3 0.703381 0.500000 0.000000
O O4 0.129765 0.500000 0.692240
O O5 0.141266 0.250000 0.750000
O O6 0.145991 0.233379 0.643698
O O7 0.080725 0.259713 0.691505
O O8 0.107259 0.263668 0.939403
O O9 0.146954 0.000000 0.914625
O O10 0.500000 0.260247 0.187265
O O11 0.456229 0.262766 0.107192
O O12 0.458228 0.000000 0.166408
O O13 0.055541 0.500000 0.945878
O O14 0.048735 0.768109 0.000000
#
# Coordination Sequence:
#
# PCOD9512314 Si02
#       5
#    16  32  32  32  32
#     4  10  20  34  54  82 111 134 157 189 234 289
#     4  10  20  34  53  74  95 127 170 212 251 292
#     4   9  18  33  52  73 101 133 163 197 240 290
#     4   9  18  31  45  65  96 131 167 210 257 300
#     4   9  16  26  44  69  95 127 167 206 245 292
#
# _framework density 19.771415999999999
#
# number of rings (size 3 to 8) (size 9 to 14) (size 15 to 20)
#    0.000    2.667    1.111    0.667    0.000    3.111 
#    0.000    2.222    0.000    0.667    0.000   10.889 
#    0.000    0.000    0.000    0.000    0.000    0.000 
#
# Total GULP energy -200702.800595 kJ/mol
# GULP energy per Si atom -5575.077794 kJ/mol
# Density = 1.972641 g / cm^3
# Si number density = 19.771416 Si / 1000 Ang^3
#
#
#
# Elastic Constant Matrix: (Units=GPa)
#
#
# Indices 1 2 3 4 5 6 
#
# 1 99.2064 -2.1483 44.4147 0.0001 -0.0028 -0.0003
# 2 -2.1483 15.2716 11.1066 0.0003 0.0022 -0.0004
# 3 44.4147 11.1066 165.1705 0.0000 0.0003 0.0000
# 4 0.0001 0.0003 0.0000 16.1737 0.0009 -0.0001
# 5 -0.0028 0.0022 0.0003 0.0009 -146.0755 0.0010
# 6 -0.0003 -0.0004 0.0000 -0.0001 0.0010 11.7572
#
#
#
# Elastic Compliance Matrix: (Units=1/GPa)
#
#
# Indices 1 2 3 4 5 6 
#
# 1 0.011703 0.004137 -0.003425 0.000000 0.000000 0.000000
# 2 0.004137 0.070311 -0.005840 -0.000002 0.000001 0.000003
# 3 -0.003425 -0.005840 0.007368 0.000000 0.000000 0.000000
# 4 0.000000 -0.000002 0.000000 0.061829 0.000000 0.000001
# 5 0.000000 0.000001 0.000000 0.000000 -0.006846 0.000001
# 6 0.000000 0.000003 0.000000 0.000001 0.000001 0.085055
#
#
# Mechanical properties :
#
#
# Convention : Reuss Voigt Hill
#
# Bulk Modulus (GPa) = 12.63820 42.93272 27.78546
# Shear Modulus (GPa) = 18.79339 -8.54390 5.12474
#
# Velocity S-wave (km/s) = 3.08642 -2.08104 1.61171
# Velocity P-wave (km/s) = 4.37119 3.99842 4.18896
#
# Compressibility (1/GPa) = 0.07912517
#
# Stress axis : x y z
#
# Youngs Moduli (GPa) = 85.44782 14.22261 135.71974
#
# Poissons Ratio (x) = -0.05884 0.46487
# Poissons Ratio (y) = -0.35353 0.79267
# Poissons Ratio (z) = 0.29267 0.08307
#
# Static dielectric constant tensor:
#      x y z
#    x 1.665070 0.000000 0.000000 
#    y 0.000000 1.712330 0.000000 
#    z 0.000000 0.000000 1.795930 
# 
# From -- ./inp_files/5530.got.cif
#   From: 2010.05.17/outbox.cif.g08.bks.cpg/sg69_3_cif.got.tgz:5530.got - 2010.06.03 19:29:58.
