data_PCOD9512982
_publ_section_title
;
Structure prediction by ZEFSAII (Michael W. Deem and Ramdas Pophale) SiO2 
 PCOD9512982
Probable space group: F M M M
;
_chemical_formula_sum "Si O2"
_cell_formula_units_Z 144
_cell_length_a 8.712703
_cell_length_b 29.234969
_cell_length_c 31.504418
_cell_angle_alpha 90.000000
_cell_angle_beta 90.000000
_cell_angle_gamma 90.000000
_cell_volume 8024.666800
_symmetry_space_group_name_H-M "F M M M"
_symmetry_group_IT_number 69
_symmetry_cell_setting 'orthorhombic'
loop_
_space_group_symop_operation_xyz
x,y,z
-x,-y,z
x,-y,-z
-x,y,-z
-x,-y,-z
x,y,-z
-x,y,z
x,-y,z
x,1/2+y,1/2+z
-x,1/2-y,1/2+z
x,1/2-y,1/2-z
-x,1/2+y,1/2-z
-x,1/2-y,1/2-z
x,1/2+y,1/2-z
-x,1/2+y,1/2+z
x,1/2-y,1/2+z
1/2+x,y,1/2+z
1/2-x,-y,1/2+z
1/2+x,-y,1/2-z
1/2-x,y,1/2-z
1/2-x,-y,1/2-z
1/2+x,y,1/2-z
1/2-x,y,1/2+z
1/2+x,-y,1/2+z
1/2+x,1/2+y,z
1/2-x,1/2-y,z
1/2+x,1/2-y,-z
1/2-x,1/2+y,-z
1/2-x,1/2-y,-z
1/2+x,1/2+y,-z
1/2-x,1/2+y,z
1/2+x,1/2-y,z
loop_
_atom_site_type_symbol
_atom_site_label
_atom_site_fract_x
_atom_site_fract_y
_atom_site_fract_z
Si Si1 0.683498 0.799740 0.796725
Si Si2 0.683898 0.139522 0.370954
Si Si3 0.826343 0.555420 0.500000
Si Si4 0.685067 0.198940 0.452522
Si Si5 0.816919 0.446579 0.090245
O O1 0.500000 0.797377 0.794918
O O2 0.750000 0.809809 0.750000
O O3 0.750000 0.750000 0.809253
O O4 0.739403 0.836344 0.830869
O O5 0.500000 0.142134 0.367535
O O6 0.732835 0.166876 0.413668
O O7 0.737212 0.087579 0.377198
O O8 0.835062 0.500000 0.500000
O O9 0.740550 0.567280 0.543220
O O10 0.000000 0.574117 0.500000
O O11 0.731531 0.182964 0.500000
O O12 0.500000 0.201135 0.451877
O O13 0.750000 0.250000 0.446745
O O14 0.776277 0.500000 0.096643
O O15 0.000000 0.442459 0.092423
#
# Coordination Sequence:
#
# PCOD9512982 Si02
#       5
#    32  32  16  32  32
#     4  11  22  39  62  88 118 147 184 230 284 339
#     4  11  22  35  56  83 112 147 190 233 281 339
#     4   9  17  31  51  73 100 139 186 235 285 333
#     4   9  19  34  50  72 105 144 183 223 265 319
#     4  10  21  36  53  77 110 147 190 240 288 335
#
# _framework density 17.944669999999999
#
# number of rings (size 3 to 8) (size 9 to 14) (size 15 to 20)
#    0.000    1.889    0.000    5.000    1.556    6.222 
#    0.000    0.000    0.000    0.667    0.000    0.000 
#    0.000    0.000    0.000    0.000    0.000    0.000 
#
# Total GULP energy -201131.357138 kJ/mol
# GULP energy per Si atom -5586.982143 kJ/mol
# Density = 1.790383 g / cm^3
# Si number density = 17.944670 Si / 1000 Ang^3
#
#
#
# Elastic Constant Matrix: (Units=GPa)
#
#
# Indices 1 2 3 4 5 6 
#
# 1 96.2767 49.5521 50.2592 0.0000 0.0000 0.0000
# 2 49.5521 96.3300 70.5928 0.0000 0.0000 0.0000
# 3 50.2592 70.5928 84.9159 0.0000 0.0000 0.0000
# 4 0.0000 0.0000 0.0000 15.9982 0.0000 0.0000
# 5 0.0000 0.0000 0.0000 0.0000 -23.6044 0.0000
# 6 0.0000 0.0000 0.0000 0.0000 0.0000 28.6852
#
#
#
# Elastic Compliance Matrix: (Units=1/GPa)
#
#
# Indices 1 2 3 4 5 6 
#
# 1 0.015402 -0.003179 -0.006473 0.000000 0.000000 0.000000
# 2 -0.003179 0.027221 -0.020747 0.000000 0.000000 0.000000
# 3 -0.006473 -0.020747 0.032855 0.000000 0.000000 0.000000
# 4 0.000000 0.000000 0.000000 0.062507 0.000000 0.000000
# 5 0.000000 0.000000 0.000000 0.000000 -0.042365 0.000000
# 6 0.000000 0.000000 0.000000 0.000000 0.000000 0.034861
#
#
# Mechanical properties :
#
#
# Convention : Reuss Voigt Hill
#
# Bulk Modulus (GPa) = 68.12627 68.70342 68.41484
# Shear Modulus (GPa) = 25.48757 11.35704 18.42230
#
# Velocity S-wave (km/s) = 3.77283 2.51846 3.20756
# Velocity P-wave (km/s) = 7.55156 6.84297 7.20598
#
# Compressibility (1/GPa) = 0.01467863
#
# Stress axis : x y z
#
# Youngs Moduli (GPa) = 64.92586 36.73691 30.43631
#
# Poissons Ratio (x) = 0.11680 0.19702
# Poissons Ratio (y) = 0.20641 0.63148
# Poissons Ratio (z) = 0.42027 0.76220
#
# Static dielectric constant tensor:
#      x y z
#    x 1.602900 0.000000 0.000000 
#    y 0.000000 1.625010 0.000000 
#    z 0.000000 0.000000 1.599180 
# 
# From -- ./inp_files/5628.got.cif
#   From: 2010.05.17/outbox.cif.g08.bks.cpg/sg69_3_cif.got.tgz:5628.got - 2010.06.03 19:29:58.
