data_PCOD9512686
_publ_section_title
;
Structure prediction by ZEFSAII (Michael W. Deem and Ramdas Pophale) SiO2 
 PCOD9512686
Probable space group: F M M M
;
_chemical_formula_sum "Si O2"
_cell_formula_units_Z 192
_cell_length_a 27.499615
_cell_length_b 20.286847
_cell_length_c 17.363972
_cell_angle_alpha 90.000000
_cell_angle_beta 90.000000
_cell_angle_gamma 90.000000
_cell_volume 9687.021070
_symmetry_space_group_name_H-M "F M M M"
_symmetry_group_IT_number 69
_symmetry_cell_setting 'orthorhombic'
loop_
_space_group_symop_operation_xyz
x,y,z
-x,-y,z
x,-y,-z
-x,y,-z
-x,-y,-z
x,y,-z
-x,y,z
x,-y,z
x,1/2+y,1/2+z
-x,1/2-y,1/2+z
x,1/2-y,1/2-z
-x,1/2+y,1/2-z
-x,1/2-y,1/2-z
x,1/2+y,1/2-z
-x,1/2+y,1/2+z
x,1/2-y,1/2+z
1/2+x,y,1/2+z
1/2-x,-y,1/2+z
1/2+x,-y,1/2-z
1/2-x,y,1/2-z
1/2-x,-y,1/2-z
1/2+x,y,1/2-z
1/2-x,y,1/2+z
1/2+x,-y,1/2+z
1/2+x,1/2+y,z
1/2-x,1/2-y,z
1/2+x,1/2-y,-z
1/2-x,1/2+y,-z
1/2-x,1/2-y,-z
1/2+x,1/2+y,-z
1/2-x,1/2+y,z
1/2+x,1/2-y,z
loop_
_atom_site_type_symbol
_atom_site_label
_atom_site_fract_x
_atom_site_fract_y
_atom_site_fract_z
Si Si1 0.557586 0.425819 0.140340
Si Si2 0.126278 0.312977 0.411821
Si Si3 0.081650 0.426207 0.180205
Si Si4 0.317054 0.924016 0.090662
Si Si5 0.947951 0.279657 0.836551
Si Si6 0.234053 0.675961 0.406663
O O1 0.500000 0.410277 0.144231
O O2 0.562363 0.500000 0.109306
O O3 0.588446 0.372716 0.094777
O O4 0.578728 0.425596 0.227122
O O5 0.134778 0.295123 0.500000
O O6 0.099692 0.251452 0.373498
O O7 0.178763 0.332938 0.378426
O O8 0.063237 0.500000 0.157001
O O9 0.134928 0.419515 0.142835
O O10 0.054531 0.358654 0.159125
O O11 0.274510 0.875991 0.119112
O O12 0.300298 0.000000 0.092979
O O13 0.328678 0.909172 0.000000
O O14 0.948089 0.250000 0.750000
O O15 0.000000 0.258510 0.871804
O O16 0.233745 0.669365 0.500000
O O17 0.250000 0.750000 0.387659
#
# Coordination Sequence:
#
# PCOD9512686 Si02
#       6
#    32  32  32  32  32  32
#     4  10  21  38  59  83 115 156 196 235 288 350
#     4  11  23  38  60  88 117 151 194 243 289 341
#     4  10  20  36  61  87 114 153 196 237 286 347
#     4   9  18  34  58  87 118 153 193 237 286 342
#     4  11  22  37  58  83 114 154 196 238 286 344
#     4   9  18  34  56  81 111 148 187 232 288 342
#
# _framework density 19.820335
#
# number of rings (size 3 to 8) (size 9 to 14) (size 15 to 20)
#    0.000    2.000    1.667    2.000    0.000    5.333 
#    0.000    3.333    0.000    4.500    0.000   11.667 
#    0.000    0.000    0.000    0.000    0.000    0.000 
#
# Total GULP energy -267608.446053 kJ/mol
# GULP energy per Si atom -5575.175959 kJ/mol
# Density = 1.977522 g / cm^3
# Si number density = 19.820335 Si / 1000 Ang^3
#
#
#
# Elastic Constant Matrix: (Units=GPa)
#
#
# Indices 1 2 3 4 5 6 
#
# 1 125.0301 55.3282 23.6537 0.0000 0.0000 0.0000
# 2 55.3282 116.7499 3.4756 0.0000 0.0000 0.0000
# 3 23.6537 3.4756 11.6961 0.0000 0.0000 0.0000
# 4 0.0000 0.0000 0.0000 20.9271 0.0000 0.0000
# 5 0.0000 0.0000 0.0000 0.0000 -16.9018 0.0000
# 6 0.0000 0.0000 0.0000 0.0000 0.0000 169.8467
#
#
#
# Elastic Compliance Matrix: (Units=1/GPa)
#
#
# Indices 1 2 3 4 5 6 
#
# 1 0.017533 -0.007318 -0.033284 0.000000 0.000000 0.000000
# 2 -0.007318 0.011696 0.011324 0.000000 0.000000 0.000000
# 3 -0.033284 0.011324 0.149444 0.000000 0.000000 0.000000
# 4 0.000000 0.000000 0.000000 0.047785 0.000000 0.000000
# 5 0.000000 0.000000 0.000000 0.000000 -0.059165 0.000000
# 6 0.000000 0.000000 0.000000 0.000000 0.000000 0.005888
#
#
# Mechanical properties :
#
#
# Convention : Reuss Voigt Hill
#
# Bulk Modulus (GPa) = 8.32509 46.48791 27.40650
# Shear Modulus (GPa) = 18.39750 46.17564 32.28657
#
# Velocity S-wave (km/s) = 3.04996 4.83194 4.04042
# Velocity P-wave (km/s) = 4.07584 7.39160 5.96859
#
# Compressibility (1/GPa) = 0.12011883
#
# Stress axis : x y z
#
# Youngs Moduli (GPa) = 57.03449 85.49697 6.69145
#
# Poissons Ratio (x) = 0.62569 0.22272
# Poissons Ratio (y) = 0.41739 -0.07578
# Poissons Ratio (z) = 1.89832 -0.96819
#
# Static dielectric constant tensor:
#      x y z
#    x 1.690190 0.000000 0.000000 
#    y 0.000000 1.729060 0.000000 
#    z 0.000000 0.000000 1.691730 
# 
# From -- ./inp_files/32851.got.cif
#   From: 2010.05.17/outbox.cif.g08.bks.cpg/sg69_17_cif.got.tgz:32851.got - 2010.06.03 19:29:58.
