data_PCOD9512538
_publ_section_title
;
Structure prediction by ZEFSAII (Michael W. Deem and Ramdas Pophale) SiO2 
 PCOD9512538
Probable space group: F M M M
;
_chemical_formula_sum "Si O2"
_cell_formula_units_Z 144
_cell_length_a 27.383646
_cell_length_b 16.824125
_cell_length_c 15.063413
_cell_angle_alpha 90.000000
_cell_angle_beta 90.000000
_cell_angle_gamma 90.000000
_cell_volume 6939.802991
_symmetry_space_group_name_H-M "F M M M"
_symmetry_group_IT_number 69
_symmetry_cell_setting 'orthorhombic'
loop_
_space_group_symop_operation_xyz
x,y,z
-x,-y,z
x,-y,-z
-x,y,-z
-x,-y,-z
x,y,-z
-x,y,z
x,-y,z
x,1/2+y,1/2+z
-x,1/2-y,1/2+z
x,1/2-y,1/2-z
-x,1/2+y,1/2-z
-x,1/2-y,1/2-z
x,1/2+y,1/2-z
-x,1/2+y,1/2+z
x,1/2-y,1/2+z
1/2+x,y,1/2+z
1/2-x,-y,1/2+z
1/2+x,-y,1/2-z
1/2-x,y,1/2-z
1/2-x,-y,1/2-z
1/2+x,y,1/2-z
1/2-x,y,1/2+z
1/2+x,-y,1/2+z
1/2+x,1/2+y,z
1/2-x,1/2-y,z
1/2+x,1/2-y,-z
1/2-x,1/2+y,-z
1/2-x,1/2-y,-z
1/2+x,1/2+y,-z
1/2-x,1/2+y,z
1/2+x,1/2-y,z
loop_
_atom_site_type_symbol
_atom_site_label
_atom_site_fract_x
_atom_site_fract_y
_atom_site_fract_z
Si Si1 0.666319 0.816486 0.903540
Si Si2 0.913596 0.343612 0.230450
Si Si3 0.000000 0.904689 0.604292
Si Si4 0.862131 0.630216 0.599291
Si Si5 0.754277 0.913597 0.144229
O O1 0.637353 0.853463 0.821880
O O2 0.654217 0.723281 0.896977
O O3 0.722303 0.842672 0.896000
O O4 0.647847 0.843549 0.000000
O O5 0.923164 0.250000 0.250000
O O6 0.903068 0.383099 0.325871
O O7 0.954087 0.375347 0.162965
O O8 0.000000 0.877184 0.500000
O O9 0.000000 0.000000 0.602118
O O10 0.879291 0.612404 0.500000
O O11 0.810713 0.588495 0.617890
O O12 0.750000 0.906697 0.250000
O O13 0.733642 0.000000 0.117174
#
# Coordination Sequence:
#
# PCOD9512538 Si02
#       5
#    32  32  16  32  32
#     4  10  20  35  58  85 113 151 200 248 294 343
#     4  10  21  40  64  89 118 153 198 246 300 355
#     4  11  25  44  67  95 125 153 186 241 310 372
#     4  10  21  37  59  86 116 154 201 248 290 341
#     4  11  22  34  51  80 119 163 204 241 288 348
#
# _framework density 20.749867999999999
#
# number of rings (size 3 to 8) (size 9 to 14) (size 15 to 20)
#    0.000    1.667    2.222    2.333    0.000    7.111 
#    0.000    0.556    0.000    0.667    0.000    0.000 
#    0.000    0.000    0.000    0.000    0.000    0.000 
#
# Total GULP energy -200867.463828 kJ/mol
# GULP energy per Si atom -5579.651773 kJ/mol
# Density = 2.070264 g / cm^3
# Si number density = 20.749868 Si / 1000 Ang^3
#
#
#
# Elastic Constant Matrix: (Units=GPa)
#
#
# Indices 1 2 3 4 5 6 
#
# 1 80.3388 16.9814 51.8561 0.0000 0.0000 0.0000
# 2 16.9814 33.7919 36.3010 0.0000 0.0000 0.0000
# 3 51.8561 36.3010 186.5470 0.0000 0.0000 0.0000
# 4 0.0000 0.0000 0.0000 10.6362 0.0000 0.0000
# 5 0.0000 0.0000 0.0000 0.0000 125.1656 0.0000
# 6 0.0000 0.0000 0.0000 0.0000 0.0000 -8.9839
#
#
#
# Elastic Compliance Matrix: (Units=1/GPa)
#
#
# Indices 1 2 3 4 5 6 
#
# 1 0.015589 -0.004019 -0.003551 0.000000 0.000000 0.000000
# 2 -0.004019 0.038450 -0.006365 0.000000 0.000000 0.000000
# 3 -0.003551 -0.006365 0.007586 0.000000 0.000000 0.000000
# 4 0.000000 0.000000 0.000000 0.094018 0.000000 0.000000
# 5 0.000000 0.000000 0.000000 0.000000 0.007989 0.000000
# 6 0.000000 0.000000 0.000000 0.000000 0.000000 -0.111311
#
#
# Mechanical properties :
#
#
# Convention : Reuss Voigt Hill
#
# Bulk Modulus (GPa) = 29.62524 56.77276 43.19900
# Shear Modulus (GPa) = 54.67776 38.39954 46.53865
#
# Velocity S-wave (km/s) = 5.13888 4.30652 4.74100
# Velocity P-wave (km/s) = 7.03698 7.22136 7.12977
#
# Compressibility (1/GPa) = 0.03375501
#
# Stress axis : x y z
#
# Youngs Moduli (GPa) = 64.14751 26.00771 131.81509
#
# Poissons Ratio (x) = 0.10452 0.46812
# Poissons Ratio (y) = 0.25780 0.83901
# Poissons Ratio (z) = 0.22781 0.16554
#
# Static dielectric constant tensor:
#      x y z
#    x 1.728140 0.000000 0.000000 
#    y 0.000000 1.776990 0.000000 
#    z 0.000000 0.000000 1.772460 
# 
# From -- ./inp_files/19469.got.cif
#   From: 2010.05.17/outbox.cif.g08.bks.cpg/sg69_10_cif.got.tgz:19469.got - 2010.06.03 19:29:58.
