data_PCOD9512421
_publ_section_title
;
Structure prediction by ZEFSAII (Michael W. Deem and Ramdas Pophale) SiO2 
 PCOD9512421
Probable space group: F M M M
;
_chemical_formula_sum "Si O2"
_cell_formula_units_Z 176
_cell_length_a 15.583271
_cell_length_b 31.463073
_cell_length_c 18.533184
_cell_angle_alpha 90.000000
_cell_angle_beta 90.000000
_cell_angle_gamma 90.000000
_cell_volume 9086.775507
_symmetry_space_group_name_H-M "F M M M"
_symmetry_group_IT_number 69
_symmetry_cell_setting 'orthorhombic'
loop_
_space_group_symop_operation_xyz
x,y,z
-x,-y,z
x,-y,-z
-x,y,-z
-x,-y,-z
x,y,-z
-x,y,z
x,-y,z
x,1/2+y,1/2+z
-x,1/2-y,1/2+z
x,1/2-y,1/2-z
-x,1/2+y,1/2-z
-x,1/2-y,1/2-z
x,1/2+y,1/2-z
-x,1/2+y,1/2+z
x,1/2-y,1/2+z
1/2+x,y,1/2+z
1/2-x,-y,1/2+z
1/2+x,-y,1/2-z
1/2-x,y,1/2-z
1/2-x,-y,1/2-z
1/2+x,y,1/2-z
1/2-x,y,1/2+z
1/2+x,-y,1/2+z
1/2+x,1/2+y,z
1/2-x,1/2-y,z
1/2+x,1/2-y,-z
1/2-x,1/2+y,-z
1/2-x,1/2-y,-z
1/2+x,1/2+y,-z
1/2-x,1/2+y,z
1/2+x,1/2-y,z
loop_
_atom_site_type_symbol
_atom_site_label
_atom_site_fract_x
_atom_site_fract_y
_atom_site_fract_z
Si Si1 0.346271 0.207396 0.282131
Si Si2 0.103649 0.349327 0.082216
Si Si3 0.850023 0.381919 0.768425
Si Si4 0.102217 0.047851 0.843590
Si Si5 0.401038 0.051971 0.500000
Si Si6 0.397048 0.749154 0.416180
O O1 0.389336 0.250000 0.250000
O O2 0.250000 0.206384 0.250000
O O3 0.387585 0.162667 0.261991
O O4 0.347987 0.217544 0.366458
O O5 0.136350 0.379528 0.145841
O O6 0.126786 0.300075 0.099668
O O7 0.000000 0.350880 0.082400
O O8 0.131908 0.358687 0.000000
O O9 0.750000 0.381759 0.750000
O O10 0.884903 0.421446 0.723742
O O11 0.137163 0.064087 0.921695
O O12 0.000000 0.044508 0.854205
O O13 0.135551 0.000000 0.830355
O O14 0.500000 0.067172 0.500000
O O15 0.401962 0.000000 0.500000
O O16 0.379549 0.756372 0.500000
O O17 0.500000 0.753345 0.405215
#
# Coordination Sequence:
#
# PCOD9512421 Si02
#       6
#    32  32  32  32  16  32
#     4  10  20  35  50  70 109 147 179 213 260 319
#     4   9  18  34  55  75 101 143 188 224 264 320
#     4  11  22  35  52  80 110 140 180 223 269 318
#     4   9  18  35  59  82 106 139 176 216 266 325
#     4   7  12  28  54  80 104 131 163 199 253 328
#     4   9  18  33  53  76 101 135 182 231 273 310
#
# _framework density 19.368807
#
# number of rings (size 3 to 8) (size 9 to 14) (size 15 to 20)
#    0.000    2.636    1.818    2.727    0.000    2.182 
#    3.273    4.545    0.000    0.545    0.000    2.545 
#    0.000    0.000    0.000    0.000    0.000    0.000 
#
# Total GULP energy -245143.121461 kJ/mol
# GULP energy per Si atom -5571.434579 kJ/mol
# Density = 1.932472 g / cm^3
# Si number density = 19.368807 Si / 1000 Ang^3
#
#
#
# Elastic Constant Matrix: (Units=GPa)
#
#
# Indices 1 2 3 4 5 6 
#
# 1 31.0660 5.7332 26.8019 0.0000 0.0000 0.0000
# 2 5.7332 83.3760 66.8453 0.0000 0.0000 0.0000
# 3 26.8019 66.8453 179.1333 0.0000 0.0000 0.0000
# 4 0.0000 0.0000 0.0000 29.1897 0.0000 0.0000
# 5 0.0000 0.0000 0.0000 0.0000 15.6333 0.0000
# 6 0.0000 0.0000 0.0000 0.0000 0.0000 15.0021
#
#
#
# Elastic Compliance Matrix: (Units=1/GPa)
#
#
# Indices 1 2 3 4 5 6 
#
# 1 0.037391 0.002731 -0.006614 0.000000 0.000000 0.000000
# 2 0.002731 0.017313 -0.006869 0.000000 0.000000 0.000000
# 3 -0.006614 -0.006869 0.009135 0.000000 0.000000 0.000000
# 4 0.000000 0.000000 0.000000 0.034259 0.000000 0.000000
# 5 0.000000 0.000000 0.000000 0.000000 0.063966 0.000000
# 6 0.000000 0.000000 0.000000 0.000000 0.000000 0.066657
#
#
# Mechanical properties :
#
#
# Convention : Reuss Voigt Hill
#
# Bulk Modulus (GPa) = 23.62021 54.70402 39.16212
# Shear Modulus (GPa) = 18.91521 24.91136 21.91328
#
# Velocity S-wave (km/s) = 3.12842 3.59020 3.36723
# Velocity P-wave (km/s) = 5.02701 6.74468 5.94817
#
# Compressibility (1/GPa) = 0.04233662
#
# Stress axis : x y z
#
# Youngs Moduli (GPa) = 26.74416 57.75864 109.46506
#
# Poissons Ratio (x) = -0.15776 0.72397
# Poissons Ratio (y) = -0.07305 0.75195
# Poissons Ratio (z) = 0.17688 0.39676
#
# Static dielectric constant tensor:
#      x y z
#    x 1.648830 0.000000 0.000000 
#    y 0.000000 1.707660 0.000000 
#    z 0.000000 0.000000 1.764180 
# 
# From -- ./inp_files/23588.got.cif
#   From: 2010.05.17/outbox.cif.g08.bks.cpg/sg69_12_cif.got.tgz:23588.got - 2010.06.03 19:29:58.
