data_PCOD9512322
_publ_section_title
;
Structure prediction by ZEFSAII (Michael W. Deem and Ramdas Pophale) SiO2 
 PCOD9512322
Probable space group: F M M M
;
_chemical_formula_sum "Si O2"
_cell_formula_units_Z 160
_cell_length_a 31.096212
_cell_length_b 9.079618
_cell_length_c 30.294405
_cell_angle_alpha 90.000000
_cell_angle_beta 90.000000
_cell_angle_gamma 90.000000
_cell_volume 8553.374602
_symmetry_space_group_name_H-M "F M M M"
_symmetry_group_IT_number 69
_symmetry_cell_setting 'orthorhombic'
loop_
_space_group_symop_operation_xyz
x,y,z
-x,-y,z
x,-y,-z
-x,y,-z
-x,-y,-z
x,y,-z
-x,y,z
x,-y,z
x,1/2+y,1/2+z
-x,1/2-y,1/2+z
x,1/2-y,1/2-z
-x,1/2+y,1/2-z
-x,1/2-y,1/2-z
x,1/2+y,1/2-z
-x,1/2+y,1/2+z
x,1/2-y,1/2+z
1/2+x,y,1/2+z
1/2-x,-y,1/2+z
1/2+x,-y,1/2-z
1/2-x,y,1/2-z
1/2-x,-y,1/2-z
1/2+x,y,1/2-z
1/2-x,y,1/2+z
1/2+x,-y,1/2+z
1/2+x,1/2+y,z
1/2-x,1/2-y,z
1/2+x,1/2-y,-z
1/2-x,1/2+y,-z
1/2-x,1/2-y,-z
1/2+x,1/2+y,-z
1/2-x,1/2+y,z
1/2+x,1/2-y,z
loop_
_atom_site_type_symbol
_atom_site_label
_atom_site_fract_x
_atom_site_fract_y
_atom_site_fract_z
Si Si1 0.205011 0.173564 0.321097
Si Si2 0.668824 0.669495 0.417144
Si Si3 0.385110 0.825945 0.706093
Si Si4 0.500000 0.822100 0.551445
Si Si5 0.417181 0.824516 0.610646
Si Si6 0.295148 0.828294 0.500000
O O1 0.250000 0.250000 0.308125
O O2 0.199139 0.184141 0.374254
O O3 0.161870 0.252644 0.303160
O O4 0.205006 0.000000 0.309247
O O5 0.670177 0.500000 0.431536
O O6 0.621582 0.719872 0.403407
O O7 0.681472 0.775562 0.456312
O O8 0.402547 0.750000 0.750000
O O9 0.416512 0.807347 0.663846
O O10 0.378700 0.000000 0.712504
O O11 0.500000 0.768443 0.500000
O O12 0.458442 0.784208 0.581220
O O13 0.500000 0.000000 0.548526
O O14 0.408104 0.000000 0.602804
O O15 0.250000 0.750000 0.500000
O O16 0.289537 0.000000 0.500000
#
# Coordination Sequence:
#
# PCOD9512322 Si02
#       6
#    32  32  32  16  32  16
#     4  10  20  34  53  77 108 145 186 232 282 331
#     4  10  21  36  54  77 109 147 186 231 283 338
#     4  10  20  35  55  79 110 147 190 233 281 334
#     4   9  18  34  60  91 119 145 184 228 277 342
#     4   9  19  36  58  85 114 147 184 230 281 337
#     4  12  24  36  52  75 106 145 192 238 279 328
#
# _framework density 18.706067999999998
#
# number of rings (size 3 to 8) (size 9 to 14) (size 15 to 20)
#    0.000    2.100    0.000    3.300    1.400    5.200 
#    0.000    3.000    0.000    0.600    0.000    0.000 
#    0.000    0.000    0.000    0.000    0.000    0.000 
#
# Total GULP energy -223103.033513 kJ/mol
# GULP energy per Si atom -5577.575838 kJ/mol
# Density = 1.866349 g / cm^3
# Si number density = 18.706068 Si / 1000 Ang^3
#
#
#
# Elastic Constant Matrix: (Units=GPa)
#
#
# Indices 1 2 3 4 5 6 
#
# 1 72.7718 24.5368 38.8492 0.0000 0.0000 0.0000
# 2 24.5368 109.6268 57.5161 0.0000 0.0000 0.0000
# 3 38.8492 57.5161 114.9756 0.0000 0.0000 0.0000
# 4 0.0000 0.0000 0.0000 30.0694 0.0000 0.0000
# 5 0.0000 0.0000 0.0000 0.0000 -43.7585 0.0000
# 6 0.0000 0.0000 0.0000 0.0000 0.0000 19.7637
#
#
#
# Elastic Compliance Matrix: (Units=1/GPa)
#
#
# Indices 1 2 3 4 5 6 
#
# 1 0.016857 -0.001064 -0.005164 0.000000 0.000000 0.000000
# 2 -0.001064 0.012435 -0.005861 0.000000 0.000000 0.000000
# 3 -0.005164 -0.005861 0.013374 0.000000 0.000000 0.000000
# 4 0.000000 0.000000 0.000000 0.033256 0.000000 0.000000
# 5 0.000000 0.000000 0.000000 0.000000 -0.022853 0.000000
# 6 0.000000 0.000000 0.000000 0.000000 0.000000 0.050598
#
#
# Mechanical properties :
#
#
# Convention : Reuss Voigt Hill
#
# Bulk Modulus (GPa) = 54.08608 59.90869 56.99739
# Shear Modulus (GPa) = 37.31129 12.97973 25.14551
#
# Velocity S-wave (km/s) = 4.47095 2.63701 3.67037
# Velocity P-wave (km/s) = 7.45848 6.43177 6.96407
#
# Compressibility (1/GPa) = 0.01848904
#
# Stress axis : x y z
#
# Youngs Moduli (GPa) = 59.32299 80.41799 74.77056
#
# Poissons Ratio (x) = 0.08555 0.38609
# Poissons Ratio (y) = 0.06311 0.43824
# Poissons Ratio (z) = 0.30632 0.47134
#
# Static dielectric constant tensor:
#      x y z
#    x 1.576660 0.000000 0.000000 
#    y 0.000000 1.621700 0.000000 
#    z 0.000000 0.000000 1.665050 
# 
# From -- ./inp_files/5729.got.cif
#   From: 2010.05.17/outbox.cif.g08.bks.cpg/sg69_3_cif.got.tgz:5729.got - 2010.06.03 19:29:58.
