data_PCOD9512439
_publ_section_title
;
Structure prediction by ZEFSAII (Michael W. Deem and Ramdas Pophale) SiO2 
 PCOD9512439
Probable space group: F M M M
;
_chemical_formula_sum "Si O2"
_cell_formula_units_Z 208
_cell_length_a 18.362334
_cell_length_b 18.753696
_cell_length_c 24.504619
_cell_angle_alpha 90.000000
_cell_angle_beta 90.000000
_cell_angle_gamma 90.000000
_cell_volume 8438.450534
_symmetry_space_group_name_H-M "F M M M"
_symmetry_group_IT_number 69
_symmetry_cell_setting 'orthorhombic'
loop_
_space_group_symop_operation_xyz
x,y,z
-x,-y,z
x,-y,-z
-x,y,-z
-x,-y,-z
x,y,-z
-x,y,z
x,-y,z
x,1/2+y,1/2+z
-x,1/2-y,1/2+z
x,1/2-y,1/2-z
-x,1/2+y,1/2-z
-x,1/2-y,1/2-z
x,1/2+y,1/2-z
-x,1/2+y,1/2+z
x,1/2-y,1/2+z
1/2+x,y,1/2+z
1/2-x,-y,1/2+z
1/2+x,-y,1/2-z
1/2-x,y,1/2-z
1/2-x,-y,1/2-z
1/2+x,y,1/2-z
1/2-x,y,1/2+z
1/2+x,-y,1/2+z
1/2+x,1/2+y,z
1/2-x,1/2-y,z
1/2+x,1/2-y,-z
1/2-x,1/2+y,-z
1/2-x,1/2-y,-z
1/2+x,1/2+y,-z
1/2-x,1/2+y,z
1/2+x,1/2-y,z
loop_
_atom_site_type_symbol
_atom_site_label
_atom_site_fract_x
_atom_site_fract_y
_atom_site_fract_z
Si Si1 0.084980 0.743399 0.333416
Si Si2 0.579666 0.080350 0.086254
Si Si3 0.744751 0.083883 0.910372
Si Si4 0.000000 0.079861 0.934114
Si Si5 0.805089 0.623331 0.705840
Si Si6 0.627331 0.688053 0.937852
Si Si7 0.081178 0.601785 0.785626
O O1 0.140980 0.683065 0.316423
O O2 0.109626 0.752281 0.396533
O O3 0.091778 0.813585 0.297131
O O4 0.000000 0.723288 0.330878
O O5 0.500000 0.115204 0.073806
O O6 0.662205 0.102159 0.072772
O O7 0.582847 0.075059 0.152469
O O8 0.575081 0.000000 0.064671
O O9 0.761625 0.089818 0.844956
O O10 0.796586 0.145879 0.934114
O O11 0.760017 0.000000 0.925529
O O12 0.070361 0.125966 0.920198
O O13 0.000000 0.000000 0.911319
O O14 0.000000 0.074261 0.000000
O O15 0.750000 0.654688 0.750000
O O16 0.858358 0.576308 0.743602
O O17 0.613252 0.708861 0.000000
O O18 0.000000 0.589522 0.763790
#
# Coordination Sequence:
#
# PCOD9512439 Si02
#       7
#    32  32  32  16  32  32  32
#     4  10  21  36  55  80 115 155 199 244 284 342
#     4   9  18  35  58  81 107 143 189 240 294 351
#     4  10  21  36  56  85 119 155 195 242 295 354
#     4   9  16  28  52  82 113 152 191 221 264 339
#     4  11  21  34  50  82 112 155 191 241 288 341
#     4  10  20  36  58  87 121 155 193 237 292 353
#     4  10  20  35  54  77 108 152 201 240 286 345
#
# _framework density 24.649075
#
# number of rings (size 3 to 8) (size 9 to 14) (size 15 to 20)
#    0.000    2.077    2.308    1.385    0.000    4.308 
#    0.000    0.000    0.000    2.308    0.000    4.308 
#    0.000    0.000    0.000    0.000    0.000    0.000 
#
# Total GULP energy -290264.784591 kJ/mol
# GULP energy per Si atom -5582.015088 kJ/mol
# Density = 2.459297 g / cm^3
# Si number density = 24.649075 Si / 1000 Ang^3
#
#
#
# Elastic Constant Matrix: (Units=GPa)
#
#
# Indices 1 2 3 4 5 6 
#
# 1 198.0998 23.7852 11.4483 0.0000 0.0000 0.0000
# 2 23.7852 68.2685 -5.9003 0.0000 0.0000 0.0000
# 3 11.4483 -5.9003 88.9544 0.0000 0.0000 0.0000
# 4 0.0000 0.0000 0.0000 7.1057 0.0000 0.0000
# 5 0.0000 0.0000 0.0000 0.0000 18.6417 0.0000
# 6 0.0000 0.0000 0.0000 0.0000 0.0000 16.2145
#
#
#
# Elastic Compliance Matrix: (Units=1/GPa)
#
#
# Indices 1 2 3 4 5 6 
#
# 1 0.005326 -0.001926 -0.000813 0.000000 0.000000 0.000000
# 2 -0.001926 0.015429 0.001271 0.000000 0.000000 0.000000
# 3 -0.000813 0.001271 0.011431 0.000000 0.000000 0.000000
# 4 0.000000 0.000000 0.000000 0.140732 0.000000 0.000000
# 5 0.000000 0.000000 0.000000 0.000000 0.053643 0.000000
# 6 0.000000 0.000000 0.000000 0.000000 0.000000 0.061673
#
#
# Mechanical properties :
#
#
# Convention : Reuss Voigt Hill
#
# Bulk Modulus (GPa) = 34.18807 45.99881 40.09344
# Shear Modulus (GPa) = 16.61571 30.12501 23.37036
#
# Velocity S-wave (km/s) = 2.59914 3.49973 3.08250
# Velocity P-wave (km/s) = 4.78617 5.91885 5.38239
#
# Compressibility (1/GPa) = 0.02924997
#
# Stress axis : x y z
#
# Youngs Moduli (GPa) = 187.75101 64.81324 87.48371
#
# Poissons Ratio (x) = 0.12483 0.07114
# Poissons Ratio (y) = 0.36160 -0.11121
# Poissons Ratio (z) = 0.15268 -0.08239
#
# Static dielectric constant tensor:
#      x y z
#    x 1.971580 0.000000 0.000000 
#    y 0.000000 2.020860 0.000000 
#    z 0.000000 0.000000 2.005540 
# 
# From -- ./inp_files/42099.got.cif
#   From: 2010.05.17/outbox.cif.g08.bks.cpg/sg69_22_cif.got.tgz:42099.got - 2010.06.03 19:29:58.
