data_PCOD9512698
_publ_section_title
;
Structure prediction by ZEFSAII (Michael W. Deem and Ramdas Pophale) SiO2 
 PCOD9512698
Probable space group: F M M M
;
_chemical_formula_sum "Si O2"
_cell_formula_units_Z 112
_cell_length_a 9.411163
_cell_length_b 19.126548
_cell_length_c 29.441092
_cell_angle_alpha 90.000000
_cell_angle_beta 90.000000
_cell_angle_gamma 90.000000
_cell_volume 5299.486675
_symmetry_space_group_name_H-M "F M M M"
_symmetry_group_IT_number 69
_symmetry_cell_setting 'orthorhombic'
loop_
_space_group_symop_operation_xyz
x,y,z
-x,-y,z
x,-y,-z
-x,y,-z
-x,-y,-z
x,y,-z
-x,y,z
x,-y,z
x,1/2+y,1/2+z
-x,1/2-y,1/2+z
x,1/2-y,1/2-z
-x,1/2+y,1/2-z
-x,1/2-y,1/2-z
x,1/2+y,1/2-z
-x,1/2+y,1/2+z
x,1/2-y,1/2+z
1/2+x,y,1/2+z
1/2-x,-y,1/2+z
1/2+x,-y,1/2-z
1/2-x,y,1/2-z
1/2-x,-y,1/2-z
1/2+x,y,1/2-z
1/2-x,y,1/2+z
1/2+x,-y,1/2+z
1/2+x,1/2+y,z
1/2-x,1/2-y,z
1/2+x,1/2-y,-z
1/2-x,1/2+y,-z
1/2-x,1/2-y,-z
1/2+x,1/2+y,-z
1/2-x,1/2+y,z
1/2+x,1/2-y,z
loop_
_atom_site_type_symbol
_atom_site_label
_atom_site_fract_x
_atom_site_fract_y
_atom_site_fract_z
Si Si1 0.250000 0.750000 0.369202
Si Si2 0.831462 0.849965 0.450758
Si Si3 0.166075 0.500000 0.818880
Si Si4 0.835240 0.358186 0.706579
Si Si5 0.835046 0.000000 0.427460
O O1 0.184342 0.803590 0.405843
O O2 0.170011 0.697488 0.334699
O O3 0.777871 0.824147 0.500000
O O4 0.768678 0.927380 0.443341
O O5 0.000000 0.857016 0.454593
O O6 0.500000 0.500000 0.696897
O O7 0.251362 0.569771 0.804774
O O8 0.162325 0.500000 0.873275
O O9 0.750000 0.329586 0.750000
O O10 0.000000 0.372241 0.717314
O O11 0.000000 0.000000 0.443014
#
# Coordination Sequence:
#
# PCOD9512698 Si02
#       5
#    16  32  16  32  16
#     4  12  24  40  62  92 134 182 218 264 326 394
#     4  10  20  36  61  94 129 168 218 270 321 382
#     4  11  22  43  73  98 129 170 220 275 335 395
#     4  12  27  45  68  97 132 173 223 276 335 397
#     4   9  17  34  63  93 122 162 212 268 316 374
#
# _framework density 21.134124
#
# number of rings (size 3 to 8) (size 9 to 14) (size 15 to 20)
#    0.000    1.143    2.857    3.857    0.000    6.286 
#    0.000    0.000    0.000    0.000    0.000    2.000 
#    0.000    0.000    0.000    0.000    0.000    0.000 
#
# Total GULP energy -155988.207326 kJ/mol
# GULP energy per Si atom -5571.007404 kJ/mol
# Density = 2.108602 g / cm^3
# Si number density = 21.134124 Si / 1000 Ang^3
#
#
#
# Elastic Constant Matrix: (Units=GPa)
#
#
# Indices 1 2 3 4 5 6 
#
# 1 113.6436 50.6531 49.7002 0.0000 0.0000 0.0000
# 2 50.6531 169.4980 65.4754 0.0000 0.0000 0.0000
# 3 49.7002 65.4754 166.4519 0.0000 0.0000 0.0000
# 4 0.0000 0.0000 0.0000 72.4205 0.0000 0.0000
# 5 0.0000 0.0000 0.0000 0.0000 19.2532 0.0000
# 6 0.0000 0.0000 0.0000 0.0000 0.0000 32.1819
#
#
#
# Elastic Compliance Matrix: (Units=1/GPa)
#
#
# Indices 1 2 3 4 5 6 
#
# 1 0.010861 -0.002350 -0.002318 0.000000 0.000000 0.000000
# 2 -0.002350 0.007465 -0.002235 0.000000 0.000000 0.000000
# 3 -0.002318 -0.002235 0.007579 0.000000 0.000000 0.000000
# 4 0.000000 0.000000 0.000000 0.013808 0.000000 0.000000
# 5 0.000000 0.000000 0.000000 0.000000 0.051939 0.000000
# 6 0.000000 0.000000 0.000000 0.000000 0.000000 0.031073
#
#
# Mechanical properties :
#
#
# Convention : Reuss Voigt Hill
#
# Bulk Modulus (GPa) = 82.65487 86.80566 84.73026
# Shear Modulus (GPa) = 35.57045 43.68877 39.62961
#
# Velocity S-wave (km/s) = 4.10699 4.55160 4.33500
# Velocity P-wave (km/s) = 7.85394 8.29371 8.07682
#
# Compressibility (1/GPa) = 0.01209850
#
# Stress axis : x y z
#
# Youngs Moduli (GPa) = 92.07375 133.95149 131.94150
#
# Poissons Ratio (x) = 0.31480 0.30590
# Poissons Ratio (y) = 0.21638 0.29487
# Poissons Ratio (z) = 0.21347 0.29937
#
# Static dielectric constant tensor:
#      x y z
#    x 1.739080 0.000000 0.000000 
#    y 0.000000 1.826820 0.000000 
#    z 0.000000 0.000000 1.785730 
# 
# From -- ./inp_files/9909.got.cif
#   From: 2010.05.17/outbox.cif.g08.bks.cpg/sg69_5_cif.got.tgz:9909.got - 2010.06.03 19:29:58.
