data_PCOD9512232
_publ_section_title
;
Structure prediction by ZEFSAII (Michael W. Deem and Ramdas Pophale) SiO2 
 PCOD9512232
Probable space group: F M M M
;
_chemical_formula_sum "Si O2"
_cell_formula_units_Z 144
_cell_length_a 8.639062
_cell_length_b 29.633407
_cell_length_c 31.737358
_cell_angle_alpha 90.000000
_cell_angle_beta 90.000000
_cell_angle_gamma 90.000000
_cell_volume 8124.917268
_symmetry_space_group_name_H-M "F M M M"
_symmetry_group_IT_number 69
_symmetry_cell_setting 'orthorhombic'
loop_
_space_group_symop_operation_xyz
x,y,z
-x,-y,z
x,-y,-z
-x,y,-z
-x,-y,-z
x,y,-z
-x,y,z
x,-y,z
x,1/2+y,1/2+z
-x,1/2-y,1/2+z
x,1/2-y,1/2-z
-x,1/2+y,1/2-z
-x,1/2-y,1/2-z
x,1/2+y,1/2-z
-x,1/2+y,1/2+z
x,1/2-y,1/2+z
1/2+x,y,1/2+z
1/2-x,-y,1/2+z
1/2+x,-y,1/2-z
1/2-x,y,1/2-z
1/2-x,-y,1/2-z
1/2+x,y,1/2-z
1/2-x,y,1/2+z
1/2+x,-y,1/2+z
1/2+x,1/2+y,z
1/2-x,1/2-y,z
1/2+x,1/2-y,-z
1/2-x,1/2+y,-z
1/2-x,1/2-y,-z
1/2+x,1/2+y,-z
1/2-x,1/2+y,z
1/2+x,1/2-y,z
loop_
_atom_site_type_symbol
_atom_site_label
_atom_site_fract_x
_atom_site_fract_y
_atom_site_fract_z
Si Si1 0.684513 0.799524 0.796285
Si Si2 0.187576 0.141530 0.128594
Si Si3 0.176009 0.445162 0.000000
Si Si4 0.686154 0.948819 0.410552
Si Si5 0.686866 0.300658 0.952956
O O1 0.500000 0.797189 0.794451
O O2 0.750000 0.810617 0.750000
O O3 0.750000 0.750000 0.807629
O O4 0.739752 0.834710 0.831166
O O5 0.234355 0.089421 0.122306
O O6 0.234829 0.168307 0.086081
O O7 0.000000 0.143784 0.131632
O O8 0.261508 0.433087 0.043037
O O9 0.173554 0.500000 0.000000
O O10 0.000000 0.428831 0.000000
O O11 0.500000 0.950260 0.410678
O O12 0.743304 0.000000 0.403032
O O13 0.500000 0.299182 0.952624
O O14 0.750000 0.250000 0.947363
O O15 0.735290 0.316421 0.000000
#
# Coordination Sequence:
#
# PCOD9512232 Si02
#       5
#    32  32  16  32  32
#     4  11  22  38  60  84 111 137 171 213 265 320
#     4  10  20  33  53  78 106 138 178 222 266 316
#     4   9  17  29  45  67  98 135 178 229 275 311
#     4   9  18  32  51  74 102 140 183 225 269 318
#     4   9  18  31  46  66  97 136 173 209 251 301
#
# _framework density 17.723258000000001
#
# number of rings (size 3 to 8) (size 9 to 14) (size 15 to 20)
#    0.000    2.333    0.000    3.667    1.556    4.889 
#    0.000    0.000    0.000    0.667    0.000    0.000 
#    0.000    0.000    0.000    0.000    0.000    0.000 
#
# Total GULP energy -200885.023457 kJ/mol
# GULP energy per Si atom -5580.139540 kJ/mol
# Density = 1.768292 g / cm^3
# Si number density = 17.723258 Si / 1000 Ang^3
#
#
#
# Elastic Constant Matrix: (Units=GPa)
#
#
# Indices 1 2 3 4 5 6 
#
# 1 40.8311 37.3920 39.0574 0.0000 0.0000 0.0000
# 2 37.3920 118.4164 93.4886 0.0000 0.0000 0.0000
# 3 39.0574 93.4886 108.6638 0.0000 0.0000 0.0000
# 4 0.0000 0.0000 0.0000 25.8057 0.0000 0.0000
# 5 0.0000 0.0000 0.0000 0.0000 3.1306 0.0000
# 6 0.0000 0.0000 0.0000 0.0000 0.0000 14.8190
#
#
#
# Elastic Compliance Matrix: (Units=1/GPa)
#
#
# Indices 1 2 3 4 5 6 
#
# 1 0.037858 -0.003777 -0.010358 0.000000 0.000000 0.000000
# 2 -0.003777 0.026704 -0.021617 0.000000 0.000000 0.000000
# 3 -0.010358 -0.021617 0.031524 0.000000 0.000000 0.000000
# 4 0.000000 0.000000 0.000000 0.038751 0.000000 0.000000
# 5 0.000000 0.000000 0.000000 0.000000 0.319423 0.000000
# 6 0.000000 0.000000 0.000000 0.000000 0.000000 0.067481
#
#
# Mechanical properties :
#
#
# Convention : Reuss Voigt Hill
#
# Bulk Modulus (GPa) = 40.68038 67.53194 54.10616
# Shear Modulus (GPa) = 8.31340 15.28263 11.79802
#
# Velocity S-wave (km/s) = 2.16815 2.93967 2.58288
# Velocity P-wave (km/s) = 5.41024 7.05042 6.28408
#
# Compressibility (1/GPa) = 0.02458187
#
# Stress axis : x y z
#
# Youngs Moduli (GPa) = 26.41457 37.44790 31.72183
#
# Poissons Ratio (x) = 0.14142 0.32858
# Poissons Ratio (y) = 0.09976 0.68573
# Poissons Ratio (z) = 0.27361 0.80952
#
# Static dielectric constant tensor:
#      x y z
#    x 1.599930 0.000000 0.000000 
#    y 0.000000 1.626440 0.000000 
#    z 0.000000 0.000000 1.584000 
# 
# From -- ./inp_files/5524.got.cif
#   From: 2010.05.17/outbox.cif.g08.bks.cpg/sg69_3_cif.got.tgz:5524.got - 2010.06.03 19:29:58.
