data_PCOD9512300
_publ_section_title
;
Structure prediction by ZEFSAII (Michael W. Deem and Ramdas Pophale) SiO2 
 PCOD9512300
Probable space group: F M M M
;
_chemical_formula_sum "Si O2"
_cell_formula_units_Z 136
_cell_length_a 23.780680
_cell_length_b 13.551765
_cell_length_c 19.612061
_cell_angle_alpha 90.000000
_cell_angle_beta 90.000000
_cell_angle_gamma 90.000000
_cell_volume 6320.382564
_symmetry_space_group_name_H-M "F M M M"
_symmetry_group_IT_number 69
_symmetry_cell_setting 'orthorhombic'
loop_
_space_group_symop_operation_xyz
x,y,z
-x,-y,z
x,-y,-z
-x,y,-z
-x,-y,-z
x,y,-z
-x,y,z
x,-y,z
x,1/2+y,1/2+z
-x,1/2-y,1/2+z
x,1/2-y,1/2-z
-x,1/2+y,1/2-z
-x,1/2-y,1/2-z
x,1/2+y,1/2-z
-x,1/2+y,1/2+z
x,1/2-y,1/2+z
1/2+x,y,1/2+z
1/2-x,-y,1/2+z
1/2+x,-y,1/2-z
1/2-x,y,1/2-z
1/2-x,-y,1/2-z
1/2+x,y,1/2-z
1/2-x,y,1/2+z
1/2+x,-y,1/2+z
1/2+x,1/2+y,z
1/2-x,1/2-y,z
1/2+x,1/2-y,-z
1/2-x,1/2+y,-z
1/2-x,1/2-y,-z
1/2+x,1/2+y,-z
1/2-x,1/2+y,z
1/2+x,1/2-y,z
loop_
_atom_site_type_symbol
_atom_site_label
_atom_site_fract_x
_atom_site_fract_y
_atom_site_fract_z
Si Si1 0.250000 0.750000 0.750000
Si Si2 0.660628 0.117155 0.284741
Si Si3 0.849966 0.380403 0.922646
Si Si4 0.563574 0.120128 0.193608
Si Si5 0.219870 0.380112 0.575767
O O1 0.297342 0.831820 0.769074
O O2 0.597414 0.141420 0.263384
O O3 0.682724 0.148799 0.359039
O O4 0.667404 0.000000 0.279300
O O5 0.847260 0.500000 0.915953
O O6 0.895942 0.346400 0.868009
O O7 0.784775 0.347154 0.917167
O O8 0.868443 0.358718 0.000000
O O9 0.500000 0.157148 0.190796
O O10 0.560961 0.000000 0.189147
O O11 0.199531 0.351530 0.500000
O O12 0.220382 0.500000 0.576523
#
# Coordination Sequence:
#
# PCOD9512300 Si02
#       5
#     8  32  32  32  32
#     4  12  22  32  52  82 104 132 174 208 260 326
#     4  10  20  34  52  75 106 137 169 215 258 300
#     4   8  13  21  36  63  96 126 161 205 252 307
#     4   9  17  29  46  68  97 137 176 206 245 296
#     4   8  14  27  49  74  99 130 166 208 263 311
#
# _framework density 21.517683999999999
#
# number of rings (size 3 to 8) (size 9 to 14) (size 15 to 20)
#    0.000    3.059    0.000    3.176    0.000    4.235 
#    0.000    3.529    0.000    2.118    0.000    4.941 
#    0.000    0.000    0.000    0.000    0.000    0.000 
#
# Total GULP energy -189509.795606 kJ/mol
# GULP energy per Si atom -5573.817518 kJ/mol
# Density = 2.146871 g / cm^3
# Si number density = 21.517684 Si / 1000 Ang^3
#
#
#
# Elastic Constant Matrix: (Units=GPa)
#
#
# Indices 1 2 3 4 5 6 
#
# 1 189.5836 18.3267 93.9130 0.0000 0.0000 0.0000
# 2 18.3267 87.8674 14.6711 0.0000 0.0000 0.0000
# 3 93.9130 14.6711 187.7719 0.0000 0.0000 0.0000
# 4 0.0000 0.0000 0.0000 16.3479 0.0000 0.0000
# 5 0.0000 0.0000 0.0000 0.0000 19.2117 0.0000
# 6 0.0000 0.0000 0.0000 0.0000 0.0000 15.3477
#
#
#
# Elastic Compliance Matrix: (Units=1/GPa)
#
#
# Indices 1 2 3 4 5 6 
#
# 1 0.007081 -0.000897 -0.003471 0.000000 0.000000 0.000000
# 2 -0.000897 0.011645 -0.000461 0.000000 0.000000 0.000000
# 3 -0.003471 -0.000461 0.007098 0.000000 0.000000 0.000000
# 4 0.000000 0.000000 0.000000 0.061170 0.000000 0.000000
# 5 0.000000 0.000000 0.000000 0.000000 0.052052 0.000000
# 6 0.000000 0.000000 0.000000 0.000000 0.000000 0.065156
#
#
# Mechanical properties :
#
#
# Convention : Reuss Voigt Hill
#
# Bulk Modulus (GPa) = 61.86499 79.89383 70.87941
# Shear Modulus (GPa) = 22.80503 32.73558 27.77031
#
# Velocity S-wave (km/s) = 3.25903 3.90466 3.59636
# Velocity P-wave (km/s) = 6.55552 7.58541 7.08919
#
# Compressibility (1/GPa) = 0.01616423
#
# Stress axis : x y z
#
# Youngs Moduli (GPa) = 141.22106 85.87436 140.88736
#
# Poissons Ratio (x) = 0.07705 0.48909
# Poissons Ratio (y) = 0.12672 0.06496
# Poissons Ratio (z) = 0.49024 0.03959
#
# Static dielectric constant tensor:
#      x y z
#    x 1.734290 0.000000 0.000000 
#    y 0.000000 1.842230 0.000000 
#    z 0.000000 0.000000 1.879130 
# 
# From -- ./inp_files/29782.got.cif
#   From: 2010.05.17/outbox.cif.g08.bks.cpg/sg69_15_cif.got.tgz:29782.got - 2010.06.03 19:29:58.
