data_PCOD9512166
_publ_section_title
;
Structure prediction by ZEFSAII (Michael W. Deem and Ramdas Pophale) SiO2 
 PCOD9512166
Probable space group: F M M M
;
_chemical_formula_sum "Si O2"
_cell_formula_units_Z 96
_cell_length_a 21.314755
_cell_length_b 10.501582
_cell_length_c 19.182468
_cell_angle_alpha 90.000000
_cell_angle_beta 90.000000
_cell_angle_gamma 90.000000
_cell_volume 4293.777692
_symmetry_space_group_name_H-M "F M M M"
_symmetry_group_IT_number 69
_symmetry_cell_setting 'orthorhombic'
loop_
_space_group_symop_operation_xyz
x,y,z
-x,-y,z
x,-y,-z
-x,y,-z
-x,-y,-z
x,y,-z
-x,y,z
x,-y,z
x,1/2+y,1/2+z
-x,1/2-y,1/2+z
x,1/2-y,1/2-z
-x,1/2+y,1/2-z
-x,1/2-y,1/2-z
x,1/2+y,1/2-z
-x,1/2+y,1/2+z
x,1/2-y,1/2+z
1/2+x,y,1/2+z
1/2-x,-y,1/2+z
1/2+x,-y,1/2-z
1/2-x,y,1/2-z
1/2-x,-y,1/2-z
1/2+x,y,1/2-z
1/2-x,y,1/2+z
1/2+x,-y,1/2+z
1/2+x,1/2+y,z
1/2-x,1/2-y,z
1/2+x,1/2-y,-z
1/2-x,1/2+y,-z
1/2-x,1/2-y,-z
1/2+x,1/2+y,-z
1/2-x,1/2+y,z
1/2+x,1/2-y,z
loop_
_atom_site_type_symbol
_atom_site_label
_atom_site_fract_x
_atom_site_fract_y
_atom_site_fract_z
Si Si1 0.750000 0.250000 0.154750
Si Si2 0.092961 0.500000 0.080627
Si Si3 0.075276 0.000000 0.916431
Si Si4 0.105887 0.743576 0.171234
Si Si5 0.256036 0.500000 0.576448
O O1 0.819072 0.285598 0.183485
O O2 0.766384 0.125683 0.112449
O O3 0.078645 0.627049 0.124991
O O4 0.168792 0.500000 0.074851
O O5 0.070318 0.500000 0.000000
O O6 0.096249 0.873449 0.873082
O O7 0.000000 0.000000 0.915194
O O8 0.092480 0.000000 0.000000
O O9 0.079307 0.750000 0.250000
O O10 0.231216 0.500000 0.500000
#
# Coordination Sequence:
#
# PCOD9512166 Si02
#       5
#    16  16  16  32  16
#     4  10  20  32  54  88 125 162 199 246 309 374
#     4   9  19  35  55  83 119 157 200 252 307 362
#     4  11  26  47  68  91 123 167 217 264 310 365
#     4  11  22  39  63  93 128 165 207 257 313 374
#     4   9  17  28  45  75 116 160 203 242 288 356
#
# _framework density 22.357934
#
# number of rings (size 3 to 8) (size 9 to 14) (size 15 to 20)
#    0.000    1.833    0.000    4.000    0.000    6.000 
#    0.000    7.500    0.000    3.000    0.000    0.000 
#    0.000    0.000    0.000    0.000    0.000    0.000 
#
# Total GULP energy -133632.406759 kJ/mol
# GULP energy per Si atom -5568.016948 kJ/mol
# Density = 2.230705 g / cm^3
# Si number density = 22.357934 Si / 1000 Ang^3
#
#
#
# Elastic Constant Matrix: (Units=GPa)
#
#
# Indices 1 2 3 4 5 6 
#
# 1 116.1471 -5.4273 13.9593 0.0000 0.0000 0.0000
# 2 -5.4273 208.8561 115.6175 0.0000 0.0000 0.0000
# 3 13.9593 115.6175 225.9866 0.0000 0.0000 0.0000
# 4 0.0000 0.0000 0.0000 21.7989 0.0000 0.0000
# 5 0.0000 0.0000 0.0000 0.0000 -2.1976 0.0000
# 6 0.0000 0.0000 0.0000 0.0000 0.0000 -5.0333
#
#
#
# Elastic Compliance Matrix: (Units=1/GPa)
#
#
# Indices 1 2 3 4 5 6 
#
# 1 0.008754 0.000735 -0.000917 0.000000 0.000000 0.000000
# 2 0.000735 0.006742 -0.003494 0.000000 0.000000 0.000000
# 3 -0.000917 -0.003494 0.006269 0.000000 0.000000 0.000000
# 4 0.000000 0.000000 0.000000 0.045874 0.000000 0.000000
# 5 0.000000 0.000000 0.000000 0.000000 -0.455043 0.000000
# 6 0.000000 0.000000 0.000000 0.000000 0.000000 -0.198676
#
#
# Mechanical properties :
#
#
# Convention : Reuss Voigt Hill
#
# Bulk Modulus (GPa) = 69.38266 88.80986 79.09626
# Shear Modulus (GPa) = -8.71197 31.36962 11.32883
#
# Velocity S-wave (km/s) = -1.97612 3.74981 2.25345
# Velocity P-wave (km/s) = 5.08855 7.65220 6.49806
#
# Compressibility (1/GPa) = 0.01441282
#
# Stress axis : x y z
#
# Youngs Moduli (GPa) = 114.22955 148.33446 159.50309
#
# Poissons Ratio (x) = -0.10903 0.14623
# Poissons Ratio (y) = -0.08396 0.55737
# Poissons Ratio (z) = 0.10472 0.51835
#
# Static dielectric constant tensor:
#      x y z
#    x 1.839610 0.000000 0.000000 
#    y 0.000000 1.742070 0.000000 
#    z 0.000000 0.000000 1.841730 
# 
# From -- ./inp_files/25321.got.cif
#   From: 2010.05.17/outbox.cif.g08.bks.cpg/sg69_13_cif.got.tgz:25321.got - 2010.06.03 19:29:58.
