data_PCOD9512033
_publ_section_title
;
Structure prediction by ZEFSAII (Michael W. Deem and Ramdas Pophale) SiO2 
 PCOD9512033
Probable space group: F M M M
;
_chemical_formula_sum "Si O2"
_cell_formula_units_Z 160
_cell_length_a 16.274138
_cell_length_b 17.914239
_cell_length_c 31.015001
_cell_angle_alpha 90.000000
_cell_angle_beta 90.000000
_cell_angle_gamma 90.000000
_cell_volume 9042.076101
_symmetry_space_group_name_H-M "F M M M"
_symmetry_group_IT_number 69
_symmetry_cell_setting 'orthorhombic'
loop_
_space_group_symop_operation_xyz
x,y,z
-x,-y,z
x,-y,-z
-x,y,-z
-x,-y,-z
x,y,-z
-x,y,z
x,-y,z
x,1/2+y,1/2+z
-x,1/2-y,1/2+z
x,1/2-y,1/2-z
-x,1/2+y,1/2-z
-x,1/2-y,1/2-z
x,1/2+y,1/2-z
-x,1/2+y,1/2+z
x,1/2-y,1/2+z
1/2+x,y,1/2+z
1/2-x,-y,1/2+z
1/2+x,-y,1/2-z
1/2-x,y,1/2-z
1/2-x,-y,1/2-z
1/2+x,y,1/2-z
1/2-x,y,1/2+z
1/2+x,-y,1/2+z
1/2+x,1/2+y,z
1/2-x,1/2-y,z
1/2+x,1/2-y,-z
1/2-x,1/2+y,-z
1/2-x,1/2-y,-z
1/2+x,1/2+y,-z
1/2-x,1/2+y,z
1/2+x,1/2-y,z
loop_
_atom_site_type_symbol
_atom_site_label
_atom_site_fract_x
_atom_site_fract_y
_atom_site_fract_z
Si Si1 0.179947 0.414387 0.163705
Si Si2 0.342067 0.226793 0.106730
Si Si3 0.366754 0.128621 0.662567
Si Si4 0.500000 0.919006 0.405557
Si Si5 0.500000 0.764556 0.449650
Si Si6 0.594323 0.834070 0.757157
O O1 0.153938 0.500000 0.157367
O O2 0.156181 0.356153 0.126160
O O3 0.278262 0.408720 0.165287
O O4 0.144338 0.380985 0.208094
O O5 0.250000 0.250000 0.090634
O O6 0.357586 0.285850 0.145698
O O7 0.416637 0.235833 0.073363
O O8 0.422892 0.090907 0.626496
O O9 0.404027 0.128775 0.710126
O O10 0.500000 0.852990 0.439816
O O11 0.500000 0.000000 0.425781
O O12 0.500000 0.748029 0.500000
O O13 0.500000 0.827071 0.772431
O O14 0.627697 0.750000 0.750000
#
# Coordination Sequence:
#
# PCOD9512033 Si02
#       6
#    32  32  32  16  16  32
#     4  11  23  35  53  81 111 148 196 238 275 315
#     4   9  20  38  61  83 111 149 184 227 278 330
#     4  10  19  36  56  76 109 155 195 225 271 329
#     4  10  20  35  58  85 116 143 174 230 285 322
#     4  10  22  39  64  91 110 141 185 218 270 357
#     4  11  22  34  53  75 109 156 198 235 272 317
#
# _framework density 17.695052
#
# number of rings (size 3 to 8) (size 9 to 14) (size 15 to 20)
#    0.000    1.800    3.000    1.200    1.400    4.200 
#    0.000    0.000    0.000    1.200    0.000    0.000 
#    0.000    0.000    0.000    0.000    0.000    0.000 
#
# Total GULP energy -223206.182419 kJ/mol
# GULP energy per Si atom -5580.154560 kJ/mol
# Density = 1.765478 g / cm^3
# Si number density = 17.695052 Si / 1000 Ang^3
#
#
#
# Elastic Constant Matrix: (Units=GPa)
#
#
# Indices 1 2 3 4 5 6 
#
# 1 109.3351 36.5145 53.3690 0.0000 0.0000 0.0000
# 2 36.5145 138.6092 34.3004 0.0000 0.0000 0.0000
# 3 53.3690 34.3004 90.0647 0.0000 0.0000 0.0000
# 4 0.0000 0.0000 0.0000 6.5762 0.0000 0.0000
# 5 0.0000 0.0000 0.0000 0.0000 10.9464 0.0000
# 6 0.0000 0.0000 0.0000 0.0000 0.0000 5.7472
#
#
#
# Elastic Compliance Matrix: (Units=1/GPa)
#
#
# Indices 1 2 3 4 5 6 
#
# 1 0.013223 -0.001705 -0.007186 0.000000 0.000000 0.000000
# 2 -0.001705 0.008185 -0.002107 0.000000 0.000000 0.000000
# 3 -0.007186 -0.002107 0.016164 0.000000 0.000000 0.000000
# 4 0.000000 0.000000 0.000000 0.152063 0.000000 0.000000
# 5 0.000000 0.000000 0.000000 0.000000 0.091355 0.000000
# 6 0.000000 0.000000 0.000000 0.000000 0.000000 0.173998
#
#
# Mechanical properties :
#
#
# Convention : Reuss Voigt Hill
#
# Bulk Modulus (GPa) = 64.20224 65.15295 64.67760
# Shear Modulus (GPa) = 10.36966 18.90897 14.63931
#
# Velocity S-wave (km/s) = 2.42341 3.27249 2.87942
# Velocity P-wave (km/s) = 6.64770 7.15393 6.90546
#
# Compressibility (1/GPa) = 0.01557578
#
# Stress axis : x y z
#
# Youngs Moduli (GPa) = 75.62303 122.17347 61.86647
#
# Poissons Ratio (x) = 0.20833 0.44459
# Poissons Ratio (y) = 0.12895 0.13034
# Poissons Ratio (z) = 0.54345 0.25739
#
# Static dielectric constant tensor:
#      x y z
#    x 1.624450 0.000000 0.000000 
#    y 0.000000 1.632330 0.000000 
#    z 0.000000 0.000000 1.553890 
# 
# From -- ./inp_files/15665.got.cif
#   From: 2010.05.17/outbox.cif.g08.bks.cpg/sg69_8_cif.got.tgz:15665.got - 2010.06.03 19:29:58.
