data_PCOD9512732
_publ_section_title
;
Structure prediction by ZEFSAII (Michael W. Deem and Ramdas Pophale) SiO2 
 PCOD9512732
Probable space group: F M M M
;
_chemical_formula_sum "Si O2"
_cell_formula_units_Z 168
_cell_length_a 25.360381
_cell_length_b 16.248587
_cell_length_c 20.270715
_cell_angle_alpha 90.000000
_cell_angle_beta 90.000000
_cell_angle_gamma 90.000000
_cell_volume 8352.960767
_symmetry_space_group_name_H-M "F M M M"
_symmetry_group_IT_number 69
_symmetry_cell_setting 'orthorhombic'
loop_
_space_group_symop_operation_xyz
x,y,z
-x,-y,z
x,-y,-z
-x,y,-z
-x,-y,-z
x,y,-z
-x,y,z
x,-y,z
x,1/2+y,1/2+z
-x,1/2-y,1/2+z
x,1/2-y,1/2-z
-x,1/2+y,1/2-z
-x,1/2-y,1/2-z
x,1/2+y,1/2-z
-x,1/2+y,1/2+z
x,1/2-y,1/2+z
1/2+x,y,1/2+z
1/2-x,-y,1/2+z
1/2+x,-y,1/2-z
1/2-x,y,1/2-z
1/2-x,-y,1/2-z
1/2+x,y,1/2-z
1/2-x,y,1/2+z
1/2+x,-y,1/2+z
1/2+x,1/2+y,z
1/2-x,1/2-y,z
1/2+x,1/2-y,-z
1/2-x,1/2+y,-z
1/2-x,1/2-y,-z
1/2+x,1/2+y,-z
1/2-x,1/2+y,z
1/2+x,1/2-y,z
loop_
_atom_site_type_symbol
_atom_site_label
_atom_site_fract_x
_atom_site_fract_y
_atom_site_fract_z
Si Si1 0.789575 0.097104 0.883966
Si Si2 0.152573 0.000000 0.500000
Si Si3 0.333416 0.595477 0.256163
Si Si4 0.559167 0.835091 0.290870
Si Si5 0.678589 0.349522 0.596431
Si Si6 0.888140 0.314083 0.428143
O O1 0.799369 0.122430 0.807477
O O2 0.741398 0.146222 0.915870
O O3 0.844939 0.114060 0.918890
O O4 0.776680 0.000000 0.886393
O O5 0.154918 0.072739 0.442441
O O6 0.321073 0.500000 0.267203
O O7 0.394192 0.607075 0.235000
O O8 0.325531 0.641551 0.324473
O O9 0.500000 0.867651 0.282866
O O10 0.563105 0.750000 0.250000
O O11 0.572017 0.817058 0.367264
O O12 0.647358 0.268184 0.577039
O O13 0.913274 0.318186 0.500000
#
# Coordination Sequence:
#
# PCOD9512732 Si02
#       6
#    32   8  32  32  32  32
#     4  10  22  36  56  82 118 159 199 238 280 330
#     4  12  24  32  56  84 123 164 191 228 278 350
#     4  10  20  37  59  85 113 150 192 242 289 338
#     4  10  21  40  63  84 107 141 190 245 295 344
#     4  12  21  36  54  84 120 159 198 231 279 341
#     4  11  24  37  57  87 118 154 195 237 288 350
#
# _framework density 20.112628999999998
#
# number of rings (size 3 to 8) (size 9 to 14) (size 15 to 20)
#    0.000    1.333    4.762    1.143    1.333    3.429 
#    0.000    1.905    0.000    0.000    0.000    6.667 
#    0.000    0.000    0.000    0.000    0.000    0.000 
#
# Total GULP energy -234103.868597 kJ/mol
# GULP energy per Si atom -5573.901633 kJ/mol
# Density = 2.006685 g / cm^3
# Si number density = 20.112629 Si / 1000 Ang^3
#
#
#
# Elastic Constant Matrix: (Units=GPa)
#
#
# Indices 1 2 3 4 5 6 
#
# 1 64.3878 -1.0915 -1.7940 0.0000 0.0000 0.0000
# 2 -1.0915 37.3487 -3.1364 0.0000 0.0000 0.0000
# 3 -1.7940 -3.1364 116.1197 0.0000 0.0000 0.0000
# 4 0.0000 0.0000 0.0000 23.4188 0.0000 0.0000
# 5 0.0000 0.0000 0.0000 0.0000 -3.6138 0.0000
# 6 0.0000 0.0000 0.0000 0.0000 0.0000 15.1134
#
#
#
# Elastic Compliance Matrix: (Units=1/GPa)
#
#
# Indices 1 2 3 4 5 6 
#
# 1 0.015546 0.000476 0.000253 0.000000 0.000000 0.000000
# 2 0.000476 0.026850 0.000733 0.000000 0.000000 0.000000
# 3 0.000253 0.000733 0.008635 0.000000 0.000000 0.000000
# 4 0.000000 0.000000 0.000000 0.042701 0.000000 0.000000
# 5 0.000000 0.000000 0.000000 0.000000 -0.276718 0.000000
# 6 0.000000 0.000000 0.000000 0.000000 0.000000 0.066166
#
#
# Mechanical properties :
#
#
# Convention : Reuss Voigt Hill
#
# Bulk Modulus (GPa) = 18.53433 22.86805 20.70119
# Shear Modulus (GPa) = -49.13680 21.90889 -13.61395
#
# Velocity S-wave (km/s) = -4.94812 3.30405 -2.60453
# Velocity P-wave (km/s) = 4.83837 5.09415 1.12705
#
# Compressibility (1/GPa) = 0.05395394
#
# Stress axis : x y z
#
# Youngs Moduli (GPa) = 64.32520 37.24380 115.80109
#
# Poissons Ratio (x) = -0.01771 -0.02930
# Poissons Ratio (y) = -0.03059 -0.08483
# Poissons Ratio (z) = -0.01628 -0.02728
#
# Static dielectric constant tensor:
#      x y z
#    x 1.693620 0.000000 0.000000 
#    y 0.000000 1.702440 0.000000 
#    z 0.000000 0.000000 1.749920 
# 
# From -- ./inp_files/33400.got.cif
#   From: 2010.05.17/outbox.cif.g08.bks.cpg/sg69_17_cif.got.tgz:33400.got - 2010.06.03 19:29:58.
