data_PCOD9512900
_publ_section_title
;
Structure prediction by ZEFSAII (Michael W. Deem and Ramdas Pophale) SiO2 
 PCOD9512900
Probable space group: F M M M
;
_chemical_formula_sum "Si O2"
_cell_formula_units_Z 144
_cell_length_a 30.978755
_cell_length_b 9.150495
_cell_length_c 27.676904
_cell_angle_alpha 90.000000
_cell_angle_beta 90.000000
_cell_angle_gamma 90.000000
_cell_volume 7845.598069
_symmetry_space_group_name_H-M "F M M M"
_symmetry_group_IT_number 69
_symmetry_cell_setting 'orthorhombic'
loop_
_space_group_symop_operation_xyz
x,y,z
-x,-y,z
x,-y,-z
-x,y,-z
-x,-y,-z
x,y,-z
-x,y,z
x,-y,z
x,1/2+y,1/2+z
-x,1/2-y,1/2+z
x,1/2-y,1/2-z
-x,1/2+y,1/2-z
-x,1/2-y,1/2-z
x,1/2+y,1/2-z
-x,1/2+y,1/2+z
x,1/2-y,1/2+z
1/2+x,y,1/2+z
1/2-x,-y,1/2+z
1/2+x,-y,1/2-z
1/2-x,y,1/2-z
1/2-x,-y,1/2-z
1/2+x,y,1/2-z
1/2-x,y,1/2+z
1/2+x,-y,1/2+z
1/2+x,1/2+y,z
1/2-x,1/2-y,z
1/2+x,1/2-y,-z
1/2-x,1/2+y,-z
1/2-x,1/2-y,-z
1/2+x,1/2+y,-z
1/2-x,1/2+y,z
1/2+x,1/2-y,z
loop_
_atom_site_type_symbol
_atom_site_label
_atom_site_fract_x
_atom_site_fract_y
_atom_site_fract_z
Si Si1 0.138072 0.750000 0.750000
Si Si2 0.000000 0.827482 0.302564
Si Si3 0.337928 0.674845 0.093864
Si Si4 0.790650 0.836273 0.320575
Si Si5 0.298182 0.322670 0.500000
Si Si6 0.418744 0.165141 0.339601
O O1 0.170619 0.844017 0.717676
O O2 0.108637 0.829411 0.789598
O O3 0.000000 0.750000 0.250000
O O4 0.042242 0.775608 0.331561
O O5 0.000000 0.000000 0.295197
O O6 0.332610 0.500000 0.087385
O O7 0.306797 0.738117 0.135122
O O8 0.324608 0.762264 0.046169
O O9 0.385811 0.699033 0.116546
O O10 0.750000 0.750000 0.300562
O O11 0.779131 0.000000 0.335862
O O12 0.294865 0.500000 0.500000
O O13 0.250000 0.250000 0.500000
O O14 0.435136 0.000000 0.345978
#
# Coordination Sequence:
#
# PCOD9512900 Si02
#       6
#    16  16  32  32  16  32
#     4  10  21  33  54  76 108 148 192 235 281 338
#     4  12  24  36  58  87 120 157 196 240 287 343
#     4  10  22  40  61  85 114 148 189 241 295 348
#     4  11  22  35  51  75 108 149 194 237 284 340
#     4  12  24  40  64  91 120 155 196 244 293 346
#     4  10  21  38  59  84 115 150 190 237 291 346
#
# _framework density 18.354241999999999
#
# number of rings (size 3 to 8) (size 9 to 14) (size 15 to 20)
#    0.000    1.333    1.111    5.000    0.000    8.000 
#    0.000    0.000    0.000    0.667    0.000    4.667 
#    0.000    0.000    0.000    0.000    0.000    0.000 
#
# Total GULP energy -200925.826579 kJ/mol
# GULP energy per Si atom -5581.272961 kJ/mol
# Density = 1.831247 g / cm^3
# Si number density = 18.354242 Si / 1000 Ang^3
#
#
#
# Elastic Constant Matrix: (Units=GPa)
#
#
# Indices 1 2 3 4 5 6 
#
# 1 105.3792 75.0996 50.5666 0.0000 0.0000 0.0000
# 2 75.0996 170.2368 52.7273 -0.0001 0.0000 0.0000
# 3 50.5666 52.7273 122.6790 0.0000 0.0000 0.0000
# 4 0.0000 -0.0001 0.0000 -13.2225 0.0000 0.0000
# 5 0.0000 0.0000 0.0000 0.0000 15.7303 0.0000
# 6 0.0000 0.0000 0.0000 0.0000 0.0000 27.1167
#
#
#
# Elastic Compliance Matrix: (Units=1/GPa)
#
#
# Indices 1 2 3 4 5 6 
#
# 1 0.015328 -0.005543 -0.003936 0.000000 0.000000 0.000000
# 2 -0.005543 0.008781 -0.001489 0.000000 0.000000 0.000000
# 3 -0.003936 -0.001489 0.010414 0.000000 0.000000 0.000000
# 4 0.000000 0.000000 0.000000 -0.075629 0.000000 0.000000
# 5 0.000000 0.000000 0.000000 0.000000 0.063571 0.000000
# 6 0.000000 0.000000 0.000000 0.000000 0.000000 0.036878
#
#
# Mechanical properties :
#
#
# Convention : Reuss Voigt Hill
#
# Bulk Modulus (GPa) = 79.44821 83.89800 81.67311
# Shear Modulus (GPa) = 58.49680 20.58502 39.54091
#
# Velocity S-wave (km/s) = 5.65157 3.35257 4.64650
# Velocity P-wave (km/s) = 9.27183 7.79718 8.56630
#
# Compressibility (1/GPa) = 0.01258682
#
# Stress axis : x y z
#
# Youngs Moduli (GPa) = 65.23805 113.88567 96.02770
#
# Poissons Ratio (x) = 0.63128 0.37794
# Poissons Ratio (y) = 0.36162 0.14300
# Poissons Ratio (z) = 0.25676 0.16959
#
# Static dielectric constant tensor:
#      x y z
#    x 1.554900 0.000000 0.000000 
#    y 0.000000 1.635090 0.000000 
#    z 0.000000 0.000000 1.632660 
# 
# From -- ./inp_files/47440.got.cif
#   From: 2010.05.17/outbox.cif.g08.bks.cpg/sg69_24_cif.got.tgz:47440.got - 2010.06.03 19:29:58.
