data_PCOD9512581
_publ_section_title
;
Structure prediction by ZEFSAII (Michael W. Deem and Ramdas Pophale) SiO2 
 PCOD9512581
Probable space group: F M M M
;
_chemical_formula_sum "Si O2"
_cell_formula_units_Z 192
_cell_length_a 19.602230
_cell_length_b 32.668669
_cell_length_c 15.935028
_cell_angle_alpha 90.000000
_cell_angle_beta 90.000000
_cell_angle_gamma 90.000000
_cell_volume 10204.453527
_symmetry_space_group_name_H-M "F M M M"
_symmetry_group_IT_number 69
_symmetry_cell_setting 'orthorhombic'
loop_
_space_group_symop_operation_xyz
x,y,z
-x,-y,z
x,-y,-z
-x,y,-z
-x,-y,-z
x,y,-z
-x,y,z
x,-y,z
x,1/2+y,1/2+z
-x,1/2-y,1/2+z
x,1/2-y,1/2-z
-x,1/2+y,1/2-z
-x,1/2-y,1/2-z
x,1/2+y,1/2-z
-x,1/2+y,1/2+z
x,1/2-y,1/2+z
1/2+x,y,1/2+z
1/2-x,-y,1/2+z
1/2+x,-y,1/2-z
1/2-x,y,1/2-z
1/2-x,-y,1/2-z
1/2+x,y,1/2-z
1/2-x,y,1/2+z
1/2+x,-y,1/2+z
1/2+x,1/2+y,z
1/2-x,1/2-y,z
1/2+x,1/2-y,-z
1/2-x,1/2+y,-z
1/2-x,1/2-y,-z
1/2+x,1/2+y,-z
1/2-x,1/2+y,z
1/2+x,1/2-y,z
loop_
_atom_site_type_symbol
_atom_site_label
_atom_site_fract_x
_atom_site_fract_y
_atom_site_fract_z
Si Si1 0.329619 0.046659 0.000000
Si Si2 0.177612 0.643607 0.399688
Si Si3 0.290636 0.584574 0.670248
Si Si4 0.420689 0.309806 0.363601
Si Si5 0.080590 0.878390 0.762031
Si Si6 0.323493 0.237927 0.349277
Si Si7 0.918844 0.374524 0.000000
O O1 0.291235 0.056709 0.912750
O O2 0.388051 0.080950 0.000000
O O3 0.352509 0.000000 0.000000
O O4 0.180229 0.638836 0.500000
O O5 0.246163 0.624703 0.357165
O O6 0.113740 0.621157 0.354403
O O7 0.169424 0.690933 0.374036
O O8 0.250000 0.566755 0.750000
O O9 0.366557 0.595281 0.704893
O O10 0.500000 0.302344 0.379540
O O11 0.414814 0.331429 0.272818
O O12 0.380656 0.268751 0.381557
O O13 0.396939 0.346527 0.422883
O O14 0.000000 0.889610 0.756388
O O15 0.322875 0.250000 0.250000
O O16 0.250000 0.250000 0.383911
O O17 0.000000 0.377724 0.000000
#
# Coordination Sequence:
#
# PCOD9512581 Si02
#       7
#    16  32  32  32  32  32  16
#     4  12  24  39  67  99 125 150 197 264 321 381
#     4  11  23  38  59  86 122 169 209 270 313 359
#     4  10  22  41  65  88 128 169 207 247 316 395
#     4  10  20  36  55  76 112 165 206 241 295 366
#     4  10  20  37  62  85 115 167 214 254 306 364
#     4  11  23  34  52  80 113 152 212 262 306 347
#     4  10  22  39  58  84 121 156 193 238 304 386
#
# _framework density 18.815314000000001
#
# number of rings (size 3 to 8) (size 9 to 14) (size 15 to 20)
#    0.000    1.500    4.167    1.000    5.833    2.167 
#    0.000    0.000    0.000    0.000    0.000    0.000 
#    0.000    3.333    0.000    0.000    0.000    0.000 
#
# Total GULP energy -267442.236346 kJ/mol
# GULP energy per Si atom -5571.713257 kJ/mol
# Density = 1.877249 g / cm^3
# Si number density = 18.815314 Si / 1000 Ang^3
#
#
#
# Elastic Constant Matrix: (Units=GPa)
#
#
# Indices 1 2 3 4 5 6 
#
# 1 113.7462 26.9774 36.9210 0.0000 0.0000 0.0000
# 2 26.9774 81.9688 19.8597 0.0000 0.0000 0.0000
# 3 36.9210 19.8597 126.5791 0.0000 0.0000 0.0000
# 4 0.0000 0.0000 0.0000 4.9702 0.0000 0.0000
# 5 0.0000 0.0000 0.0000 0.0000 26.6955 0.0000
# 6 0.0000 0.0000 0.0000 0.0000 0.0000 -38.7947
#
#
#
# Elastic Compliance Matrix: (Units=1/GPa)
#
#
# Indices 1 2 3 4 5 6 
#
# 1 0.010279 -0.002762 -0.002565 0.000000 0.000000 0.000000
# 2 -0.002762 0.013424 -0.001301 0.000000 0.000000 0.000000
# 3 -0.002565 -0.001301 0.008852 0.000000 0.000000 0.000000
# 4 0.000000 0.000000 0.000000 0.201198 0.000000 0.000000
# 5 0.000000 0.000000 0.000000 0.000000 0.037459 0.000000
# 6 0.000000 0.000000 0.000000 0.000000 0.000000 -0.025777
#
#
# Mechanical properties :
#
#
# Convention : Reuss Voigt Hill
#
# Bulk Modulus (GPa) = 51.81095 54.42335 53.11715
# Shear Modulus (GPa) = 18.85912 14.47661 16.66787
#
# Velocity S-wave (km/s) = 3.16939 2.77683 2.97958
# Velocity P-wave (km/s) = 6.40232 6.26649 6.33477
#
# Compressibility (1/GPa) = 0.01930094
#
# Stress axis : x y z
#
# Youngs Moduli (GPa) = 97.28547 74.49472 112.96356
#
# Poissons Ratio (x) = 0.20572 0.28974
# Poissons Ratio (y) = 0.26866 0.14692
# Poissons Ratio (z) = 0.24953 0.09689
#
# Static dielectric constant tensor:
#      x y z
#    x 1.670830 0.000000 0.000000 
#    y 0.000000 1.637490 0.000000 
#    z 0.000000 0.000000 1.730250 
# 
# From -- ./inp_files/23728.got.cif
#   From: 2010.05.17/outbox.cif.g08.bks.cpg/sg69_12_cif.got.tgz:23728.got - 2010.06.03 19:29:58.
