data_PCOD9512691
_publ_section_title
;
Structure prediction by ZEFSAII (Michael W. Deem and Ramdas Pophale) SiO2 
 PCOD9512691
Probable space group: F M M M
;
_chemical_formula_sum "Si O2"
_cell_formula_units_Z 192
_cell_length_a 29.968672
_cell_length_b 17.668649
_cell_length_c 17.824658
_cell_angle_alpha 90.000000
_cell_angle_beta 90.000000
_cell_angle_gamma 90.000000
_cell_volume 9438.262406
_symmetry_space_group_name_H-M "F M M M"
_symmetry_group_IT_number 69
_symmetry_cell_setting 'orthorhombic'
loop_
_space_group_symop_operation_xyz
x,y,z
-x,-y,z
x,-y,-z
-x,y,-z
-x,-y,-z
x,y,-z
-x,y,z
x,-y,z
x,1/2+y,1/2+z
-x,1/2-y,1/2+z
x,1/2-y,1/2-z
-x,1/2+y,1/2-z
-x,1/2-y,1/2-z
x,1/2+y,1/2-z
-x,1/2+y,1/2+z
x,1/2-y,1/2+z
1/2+x,y,1/2+z
1/2-x,-y,1/2+z
1/2+x,-y,1/2-z
1/2-x,y,1/2-z
1/2-x,-y,1/2-z
1/2+x,y,1/2-z
1/2-x,y,1/2+z
1/2+x,-y,1/2+z
1/2+x,1/2+y,z
1/2-x,1/2-y,z
1/2+x,1/2-y,-z
1/2-x,1/2+y,-z
1/2-x,1/2-y,-z
1/2+x,1/2+y,-z
1/2-x,1/2+y,z
1/2+x,1/2-y,z
loop_
_atom_site_type_symbol
_atom_site_label
_atom_site_fract_x
_atom_site_fract_y
_atom_site_fract_z
Si Si1 0.500000 0.088544 0.751045
Si Si2 0.097314 0.355248 0.803276
Si Si3 0.248439 0.408122 0.334560
Si Si4 0.146163 0.590921 0.651570
Si Si5 0.335806 0.088603 0.917018
Si Si6 0.406412 0.219797 0.416100
Si Si7 0.500000 0.142357 0.416409
O O1 0.454113 0.126912 0.781602
O O2 0.500000 0.093692 0.659910
O O3 0.500000 0.000000 0.772351
O O4 0.127820 0.377682 0.731617
O O5 0.119332 0.404489 0.869347
O O6 0.102378 0.273347 0.843802
O O7 0.252230 0.500000 0.331546
O O8 0.250000 0.379360 0.250000
O O9 0.198467 0.393806 0.362047
O O10 0.291566 0.377809 0.377902
O O11 0.138674 0.500000 0.649470
O O12 0.119588 0.640921 0.592558
O O13 0.326553 0.000000 0.922819
O O14 0.340128 0.119636 0.000000
O O15 0.398258 0.251101 0.500000
O O16 0.457582 0.196316 0.412183
O O17 0.500000 0.105013 0.500000
#
# Coordination Sequence:
#
# PCOD9512691 Si02
#       7
#    16  32  32  32  32  32  16
#     4  12  25  40  68 103 133 170 219 275 323 375
#     4  12  23  40  64  93 132 170 215 265 321 390
#     4   9  17  33  58  90 123 160 210 267 323 381
#     4  11  22  38  66  97 126 162 214 276 326 375
#     4  10  20  36  61  91 126 172 219 266 326 390
#     4  11  25  43  63  90 130 176 215 259 321 390
#     4  10  23  42  63  90 128 173 216 257 321 390
#
# _framework density 20.342728000000001
#
# number of rings (size 3 to 8) (size 9 to 14) (size 15 to 20)
#    0.000    1.333    3.333    3.000    0.000    1.833 
#    0.000    5.417    0.000    5.000    0.000    0.000 
#    0.000    0.000    0.000    0.000    0.000    0.000 
#
# Total GULP energy -267408.308713 kJ/mol
# GULP energy per Si atom -5571.006432 kJ/mol
# Density = 2.029643 g / cm^3
# Si number density = 20.342728 Si / 1000 Ang^3
#
#
#
# Elastic Constant Matrix: (Units=GPa)
#
#
# Indices 1 2 3 4 5 6 
#
# 1 113.6732 31.3441 55.9047 0.0000 0.0000 0.0000
# 2 31.3441 77.0204 23.7758 0.0000 0.0000 0.0000
# 3 55.9047 23.7758 117.9264 0.0000 0.0000 0.0000
# 4 0.0000 0.0000 0.0000 11.1811 0.0000 0.0000
# 5 0.0000 0.0000 0.0000 0.0000 -25.8342 0.0000
# 6 0.0000 0.0000 0.0000 0.0000 0.0000 62.3008
#
#
#
# Elastic Compliance Matrix: (Units=1/GPa)
#
#
# Indices 1 2 3 4 5 6 
#
# 1 0.012256 -0.003406 -0.005123 0.000000 0.000000 0.000000
# 2 -0.003406 0.014792 -0.001368 0.000000 0.000000 0.000000
# 3 -0.005123 -0.001368 0.011184 0.000000 0.000000 0.000000
# 4 0.000000 0.000000 0.000000 0.089437 0.000000 0.000000
# 5 0.000000 0.000000 0.000000 0.000000 -0.038708 0.000000
# 6 0.000000 0.000000 0.000000 0.000000 0.000000 0.016051
#
#
# Mechanical properties :
#
#
# Convention : Reuss Voigt Hill
#
# Bulk Modulus (GPa) = 54.23541 58.96325 56.59933
# Shear Modulus (GPa) = 38.18189 22.70256 30.44223
#
# Velocity S-wave (km/s) = 4.33706 3.34429 3.87262
# Velocity P-wave (km/s) = 7.19714 6.63025 6.91950
#
# Compressibility (1/GPa) = 0.01843814
#
# Stress axis : x y z
#
# Youngs Moduli (GPa) = 81.59227 67.60460 89.41004
#
# Poissons Ratio (x) = 0.23027 0.45809
# Poissons Ratio (y) = 0.27791 0.12227
# Poissons Ratio (z) = 0.41803 0.09245
#
# Static dielectric constant tensor:
#      x y z
#    x 1.340700 0.000000 0.000000 
#    y 0.000000 1.795020 0.000000 
#    z 0.000000 0.000000 1.755570 
# 
# From -- ./inp_files/27800.got.cif
#   From: 2010.05.17/outbox.cif.g08.bks.cpg/sg69_14_cif.got.tgz:27800.got - 2010.06.03 19:29:58.
