data_PCOD9512935
_publ_section_title
;
Structure prediction by ZEFSAII (Michael W. Deem and Ramdas Pophale) SiO2 
 PCOD9512935
Probable space group: F M M M
;
_chemical_formula_sum "Si O2"
_cell_formula_units_Z 208
_cell_length_a 20.421923
_cell_length_b 29.293152
_cell_length_c 19.930981
_cell_angle_alpha 90.000000
_cell_angle_beta 90.000000
_cell_angle_gamma 90.000000
_cell_volume 11923.161173
_symmetry_space_group_name_H-M "F M M M"
_symmetry_group_IT_number 69
_symmetry_cell_setting 'orthorhombic'
loop_
_space_group_symop_operation_xyz
x,y,z
-x,-y,z
x,-y,-z
-x,y,-z
-x,-y,-z
x,y,-z
-x,y,z
x,-y,z
x,1/2+y,1/2+z
-x,1/2-y,1/2+z
x,1/2-y,1/2-z
-x,1/2+y,1/2-z
-x,1/2-y,1/2-z
x,1/2+y,1/2-z
-x,1/2+y,1/2+z
x,1/2-y,1/2+z
1/2+x,y,1/2+z
1/2-x,-y,1/2+z
1/2+x,-y,1/2-z
1/2-x,y,1/2-z
1/2-x,-y,1/2-z
1/2+x,y,1/2-z
1/2-x,y,1/2+z
1/2+x,-y,1/2+z
1/2+x,1/2+y,z
1/2-x,1/2-y,z
1/2+x,1/2-y,-z
1/2-x,1/2+y,-z
1/2-x,1/2-y,-z
1/2+x,1/2+y,-z
1/2-x,1/2+y,z
1/2+x,1/2-y,z
loop_
_atom_site_type_symbol
_atom_site_label
_atom_site_fract_x
_atom_site_fract_y
_atom_site_fract_z
Si Si1 0.426337 0.444445 0.500000
Si Si2 0.425826 0.704880 0.078697
Si Si3 0.182317 0.052539 0.922066
Si Si4 0.167844 0.051568 0.618435
Si Si5 0.673231 0.641360 0.683905
Si Si6 0.076466 0.185416 0.577114
Si Si7 0.325149 0.355597 0.160160
O O1 0.427366 0.500000 0.500000
O O2 0.500000 0.427450 0.500000
O O3 0.386237 0.431857 0.565776
O O4 0.500000 0.693113 0.101688
O O5 0.418884 0.759605 0.083326
O O6 0.369528 0.679007 0.118427
O O7 0.421340 0.693042 0.000000
O O8 0.261613 0.052002 0.917495
O O9 0.162683 0.093625 0.871689
O O10 0.161451 0.000000 0.905374
O O11 0.163838 0.061806 0.000000
O O12 0.170521 0.086551 0.678603
O O13 0.153392 0.000000 0.638948
O O14 0.622108 0.663329 0.632950
O O15 0.659639 0.651385 0.761260
O O16 0.746713 0.653487 0.658903
O O17 0.094919 0.173399 0.500000
O O18 0.000000 0.173279 0.586291
#
# Coordination Sequence:
#
# PCOD9512935 Si02
#       7
#    16  32  32  32  32  32  32
#     4   9  16  26  42  66  94 127 171 215 251 292
#     4   9  19  38  61  80  99 129 173 221 268 320
#     4   9  16  29  52  77 101 132 175 222 262 303
#     4   9  17  30  46  67 100 140 177 212 251 297
#     4  10  22  34  49  77 112 144 176 213 257 309
#     4   9  20  38  58  80 104 133 172 217 264 314
#     4  10  21  35  51  78 110 142 175 212 261 315
#
# _framework density 17.445038
#
# number of rings (size 3 to 8) (size 9 to 14) (size 15 to 20)
#    0.000    2.692    0.769    1.385    1.077    4.308 
#    0.000    7.692    0.000    0.462    0.000    4.308 
#    0.000    0.000    0.000    0.000    0.000    0.000 
#
# Total GULP energy -289686.919084 kJ/mol
# GULP energy per Si atom -5570.902290 kJ/mol
# Density = 1.740533 g / cm^3
# Si number density = 17.445038 Si / 1000 Ang^3
#
#
#
# Elastic Constant Matrix: (Units=GPa)
#
#
# Indices 1 2 3 4 5 6 
#
# 1 73.1511 47.2476 60.9960 0.0000 0.0000 0.0000
# 2 47.2476 67.2730 52.2762 0.0000 0.0000 0.0000
# 3 60.9960 52.2762 101.1135 0.0000 0.0000 0.0000
# 4 0.0000 0.0000 0.0000 12.0582 0.0000 0.0000
# 5 0.0000 0.0000 0.0000 0.0000 22.5844 0.0000
# 6 0.0000 0.0000 0.0000 0.0000 0.0000 15.6942
#
#
#
# Elastic Compliance Matrix: (Units=1/GPa)
#
#
# Indices 1 2 3 4 5 6 
#
# 1 0.033089 -0.012918 -0.013282 0.000000 0.000000 0.000000
# 2 -0.012918 0.029891 -0.007661 0.000000 0.000000 0.000000
# 3 -0.013282 -0.007661 0.021863 0.000000 0.000000 0.000000
# 4 0.000000 0.000000 0.000000 0.082931 0.000000 0.000000
# 5 0.000000 0.000000 0.000000 0.000000 0.044278 0.000000
# 6 0.000000 0.000000 0.000000 0.000000 0.000000 0.063718
#
#
# Mechanical properties :
#
#
# Convention : Reuss Voigt Hill
#
# Bulk Modulus (GPa) = 58.40936 62.50859 60.45898
# Shear Modulus (GPa) = 14.31850 15.46854 14.89352
#
# Velocity S-wave (km/s) = 2.86803 2.98098 2.92505
# Velocity P-wave (km/s) = 6.67249 6.91071 6.79264
#
# Compressibility (1/GPa) = 0.01712054
#
# Stress axis : x y z
#
# Youngs Moduli (GPa) = 30.22139 33.45527 45.73975
#
# Poissons Ratio (x) = 0.43218 0.60752
# Poissons Ratio (y) = 0.39041 0.35040
# Poissons Ratio (z) = 0.40140 0.25629
#
# Static dielectric constant tensor:
#      x y z
#    x 1.580380 0.000000 0.000000 
#    y 0.000000 1.617240 0.000000 
#    z 0.000000 0.000000 1.579120 
# 
# From -- ./inp_files/25207.got.cif
#   From: 2010.05.17/outbox.cif.g08.bks.cpg/sg69_13_cif.got.tgz:25207.got - 2010.06.03 19:29:58.
