data_PCOD9512690
_publ_section_title
;
Structure prediction by ZEFSAII (Michael W. Deem and Ramdas Pophale) SiO2 
 PCOD9512690
Probable space group: F M M M
;
_chemical_formula_sum "Si O2"
_cell_formula_units_Z 160
_cell_length_a 20.731971
_cell_length_b 16.317798
_cell_length_c 22.616167
_cell_angle_alpha 90.000000
_cell_angle_beta 90.000000
_cell_angle_gamma 90.000000
_cell_volume 7651.051895
_symmetry_space_group_name_H-M "F M M M"
_symmetry_group_IT_number 69
_symmetry_cell_setting 'orthorhombic'
loop_
_space_group_symop_operation_xyz
x,y,z
-x,-y,z
x,-y,-z
-x,y,-z
-x,-y,-z
x,y,-z
-x,y,z
x,-y,z
x,1/2+y,1/2+z
-x,1/2-y,1/2+z
x,1/2-y,1/2-z
-x,1/2+y,1/2-z
-x,1/2-y,1/2-z
x,1/2+y,1/2-z
-x,1/2+y,1/2+z
x,1/2-y,1/2+z
1/2+x,y,1/2+z
1/2-x,-y,1/2+z
1/2+x,-y,1/2-z
1/2-x,y,1/2-z
1/2-x,-y,1/2-z
1/2+x,y,1/2-z
1/2-x,y,1/2+z
1/2+x,-y,1/2+z
1/2+x,1/2+y,z
1/2-x,1/2-y,z
1/2+x,1/2-y,-z
1/2-x,1/2+y,-z
1/2-x,1/2-y,-z
1/2+x,1/2+y,-z
1/2-x,1/2+y,z
1/2+x,1/2-y,z
loop_
_atom_site_type_symbol
_atom_site_label
_atom_site_fract_x
_atom_site_fract_y
_atom_site_fract_z
Si Si1 0.926623 0.628145 0.429923
Si Si2 0.072341 0.904123 0.500000
Si Si3 0.925755 0.594241 0.218254
Si Si4 0.172806 0.908441 0.826272
Si Si5 0.750000 0.250000 0.147074
Si Si6 0.614749 0.304424 0.605936
O O1 0.914289 0.614017 0.500000
O O2 0.870706 0.595020 0.386341
O O3 0.923879 0.725231 0.416217
O O4 0.000000 0.599012 0.416976
O O5 0.106920 0.874063 0.558115
O O6 0.000000 0.869254 0.500000
O O7 0.068191 0.000000 0.500000
O O8 0.919722 0.500000 0.195506
O O9 0.877979 0.602269 0.273182
O O10 0.908857 0.660236 0.168352
O O11 0.000000 0.605170 0.236968
O O12 0.222711 0.832705 0.821888
O O13 0.202202 0.000000 0.822245
O O14 0.688748 0.221084 0.110348
#
# Coordination Sequence:
#
# PCOD9512690 Si02
#       6
#    32  16  32  32  16  32
#     4  10  20  36  61  91 123 162 209 263 322 383
#     4  11  22  37  62  94 125 160 208 268 335 389
#     4  10  21  38  64  98 132 165 210 270 331 388
#     4  10  23  43  64  91 128 169 212 266 322 378
#     4  10  26  44  64  90 128 171 227 258 310 382
#     4  11  22  39  61  88 128 170 214 263 316 378
#
# _framework density 20.912158000000002
#
# number of rings (size 3 to 8) (size 9 to 14) (size 15 to 20)
#    0.000    1.700    1.000    3.000    0.000   10.000 
#    1.800    8.000    0.000    0.000    0.000    0.000 
#    0.000    0.000    0.000    0.000    0.000    0.000 
#
# Total GULP energy -223399.505405 kJ/mol
# GULP energy per Si atom -5584.987635 kJ/mol
# Density = 2.086456 g / cm^3
# Si number density = 20.912158 Si / 1000 Ang^3
#
#
#
# Elastic Constant Matrix: (Units=GPa)
#
#
# Indices 1 2 3 4 5 6 
#
# 1 108.2402 49.9392 18.4294 0.0000 0.0000 0.0000
# 2 49.9392 130.7301 38.2927 0.0000 0.0000 0.0000
# 3 18.4294 38.2927 89.2577 0.0000 0.0000 0.0000
# 4 0.0000 0.0000 0.0000 23.2441 0.0000 0.0000
# 5 0.0000 0.0000 0.0000 0.0000 78.6146 0.0000
# 6 0.0000 0.0000 0.0000 0.0000 0.0000 29.6256
#
#
#
# Elastic Compliance Matrix: (Units=1/GPa)
#
#
# Indices 1 2 3 4 5 6 
#
# 1 0.011239 -0.004133 -0.000547 0.000000 0.000000 0.000000
# 2 -0.004133 0.010269 -0.003552 0.000000 0.000000 0.000000
# 3 -0.000547 -0.003552 0.012840 0.000000 0.000000 0.000000
# 4 0.000000 0.000000 0.000000 0.043022 0.000000 0.000000
# 5 0.000000 0.000000 0.000000 0.000000 0.012720 0.000000
# 6 0.000000 0.000000 0.000000 0.000000 0.000000 0.033755
#
#
# Mechanical properties :
#
#
# Convention : Reuss Voigt Hill
#
# Bulk Modulus (GPa) = 55.91895 60.17227 58.04561
# Shear Modulus (GPa) = 34.18341 41.06800 37.62571
#
# Velocity S-wave (km/s) = 4.04743 4.43632 4.24633
# Velocity P-wave (km/s) = 6.97425 7.42143 7.20131
#
# Compressibility (1/GPa) = 0.01788303
#
# Stress axis : x y z
#
# Youngs Moduli (GPa) = 88.97819 97.38485 77.87919
#
# Poissons Ratio (x) = 0.40248 0.04264
# Poissons Ratio (y) = 0.36773 0.27663
# Poissons Ratio (z) = 0.04871 0.34591
#
# Static dielectric constant tensor:
#      x y z
#    x 1.722700 0.000000 0.000000 
#    y 0.000000 1.789310 0.000000 
#    z 0.000000 0.000000 1.709910 
# 
# From -- ./inp_files/31755.got.cif
#   From: 2010.05.17/outbox.cif.g08.bks.cpg/sg69_16_cif.got.tgz:31755.got - 2010.06.03 19:29:58.
