data_PCOD9512945
_publ_section_title
;
Structure prediction by ZEFSAII (Michael W. Deem and Ramdas Pophale) SiO2 
 PCOD9512945
Probable space group: F M M M
;
_chemical_formula_sum "Si O2"
_cell_formula_units_Z 176
_cell_length_a 22.508231
_cell_length_b 17.484821
_cell_length_c 25.205056
_cell_angle_alpha 90.000000
_cell_angle_beta 90.000000
_cell_angle_gamma 90.000000
_cell_volume 9919.510030
_symmetry_space_group_name_H-M "F M M M"
_symmetry_group_IT_number 69
_symmetry_cell_setting 'orthorhombic'
loop_
_space_group_symop_operation_xyz
x,y,z
-x,-y,z
x,-y,-z
-x,y,-z
-x,-y,-z
x,y,-z
-x,y,z
x,-y,z
x,1/2+y,1/2+z
-x,1/2-y,1/2+z
x,1/2-y,1/2-z
-x,1/2+y,1/2-z
-x,1/2-y,1/2-z
x,1/2+y,1/2-z
-x,1/2+y,1/2+z
x,1/2-y,1/2+z
1/2+x,y,1/2+z
1/2-x,-y,1/2+z
1/2+x,-y,1/2-z
1/2-x,y,1/2-z
1/2-x,-y,1/2-z
1/2+x,y,1/2-z
1/2-x,y,1/2+z
1/2+x,-y,1/2+z
1/2+x,1/2+y,z
1/2-x,1/2-y,z
1/2+x,1/2-y,-z
1/2-x,1/2+y,-z
1/2-x,1/2-y,-z
1/2+x,1/2+y,-z
1/2-x,1/2+y,z
1/2+x,1/2-y,z
loop_
_atom_site_type_symbol
_atom_site_label
_atom_site_fract_x
_atom_site_fract_y
_atom_site_fract_z
Si Si1 0.431450 0.323014 0.937497
Si Si2 0.657294 0.408845 0.142070
Si Si3 0.622137 0.661827 0.437437
Si Si4 0.280119 0.828113 0.855407
Si Si5 0.568377 0.500000 0.564715
Si Si6 0.178427 0.087113 0.259968
O O1 0.500000 0.344645 0.927981
O O2 0.386577 0.365974 0.897980
O O3 0.423422 0.231708 0.929645
O O4 0.417790 0.338514 0.000000
O O5 0.650789 0.500000 0.137174
O O6 0.726001 0.385641 0.132477
O O7 0.648457 0.388696 0.204658
O O8 0.632763 0.655494 0.500000
O O9 0.681835 0.685062 0.407605
O O10 0.599659 0.578816 0.418544
O O11 0.250000 0.750000 0.836306
O O12 0.325023 0.859247 0.810727
O O13 0.500000 0.500000 0.581922
O O14 0.568280 0.500000 0.500000
O O15 0.250000 0.085971 0.250000
O O16 0.160472 0.000000 0.272042
#
# Coordination Sequence:
#
# PCOD9512945 Si02
#       6
#    32  32  32  32  16  32
#     4  10  21  39  60  81 110 150 195 237 278 331
#     4  10  21  37  55  83 115 146 186 232 280 334
#     4  10  21  35  53  83 117 149 185 232 287 340
#     4  11  20  33  55  85 113 148 185 231 281 348
#     4   9  18  34  56  78 103 146 195 231 273 336
#     4   8  17  33  53  76 107 142 181 225 272 328
#
# _framework density 17.742812000000001
#
# number of rings (size 3 to 8) (size 9 to 14) (size 15 to 20)
#    0.000    2.273    1.818    2.182    2.545    7.273 
#    0.000    0.909    0.000    3.273    0.000    0.000 
#    0.000    0.000    0.000    0.000    0.000    0.000 
#
# Total GULP energy -245167.838516 kJ/mol
# GULP energy per Si atom -5571.996330 kJ/mol
# Density = 1.770243 g / cm^3
# Si number density = 17.742812 Si / 1000 Ang^3
#
#
#
# Elastic Constant Matrix: (Units=GPa)
#
#
# Indices 1 2 3 4 5 6 
#
# 1 58.9469 21.7273 50.1771 0.0000 0.0000 0.0000
# 2 21.7273 79.3879 51.9554 0.0000 0.0000 0.0000
# 3 50.1771 51.9554 81.4809 0.0000 0.0000 0.0000
# 4 0.0000 0.0000 0.0000 19.4223 0.0000 0.0000
# 5 0.0000 0.0000 0.0000 0.0000 20.6566 0.0000
# 6 0.0000 0.0000 0.0000 0.0000 0.0000 15.0354
#
#
#
# Elastic Compliance Matrix: (Units=1/GPa)
#
#
# Indices 1 2 3 4 5 6 
#
# 1 0.038808 0.008614 -0.029391 0.000000 0.000000 0.000000
# 2 0.008614 0.023529 -0.020308 0.000000 0.000000 0.000000
# 3 -0.029391 -0.020308 0.043321 0.000000 0.000000 0.000000
# 4 0.000000 0.000000 0.000000 0.051487 0.000000 0.000000
# 5 0.000000 0.000000 0.000000 0.000000 0.048411 0.000000
# 6 0.000000 0.000000 0.000000 0.000000 0.000000 0.066510
#
#
# Mechanical properties :
#
#
# Convention : Reuss Voigt Hill
#
# Bulk Modulus (GPa) = 42.57393 51.94836 47.26115
# Shear Modulus (GPa) = 13.80971 17.41991 15.61481
#
# Velocity S-wave (km/s) = 2.79288 3.13677 2.96981
# Velocity P-wave (km/s) = 5.86919 6.51623 6.20115
#
# Compressibility (1/GPa) = 0.02348855
#
# Stress axis : x y z
#
# Youngs Moduli (GPa) = 25.76815 42.50041 23.08355
#
# Poissons Ratio (x) = -0.36608 0.67844
# Poissons Ratio (y) = -0.22196 0.46877
# Poissons Ratio (z) = 0.75734 0.86308
#
# Static dielectric constant tensor:
#      x y z
#    x 1.583560 0.000000 0.000000 
#    y 0.000000 1.642720 0.000000 
#    z 0.000000 0.000000 1.632450 
# 
# From -- ./inp_files/41848.got.cif
#   From: 2010.05.17/outbox.cif.g08.bks.cpg/sg69_21_cif.got.tgz:41848.got - 2010.06.03 19:29:58.
