data_PCOD9512678
_publ_section_title
;
Structure prediction by ZEFSAII (Michael W. Deem and Ramdas Pophale) SiO2 
 PCOD9512678
Probable space group: F M M M
;
_chemical_formula_sum "Si O2"
_cell_formula_units_Z 160
_cell_length_a 24.716794
_cell_length_b 15.824747
_cell_length_c 21.291539
_cell_angle_alpha 90.000000
_cell_angle_beta 90.000000
_cell_angle_gamma 90.000000
_cell_volume 8327.908939
_symmetry_space_group_name_H-M "F M M M"
_symmetry_group_IT_number 69
_symmetry_cell_setting 'orthorhombic'
loop_
_space_group_symop_operation_xyz
x,y,z
-x,-y,z
x,-y,-z
-x,y,-z
-x,-y,-z
x,y,-z
-x,y,z
x,-y,z
x,1/2+y,1/2+z
-x,1/2-y,1/2+z
x,1/2-y,1/2-z
-x,1/2+y,1/2-z
-x,1/2-y,1/2-z
x,1/2+y,1/2-z
-x,1/2+y,1/2+z
x,1/2-y,1/2+z
1/2+x,y,1/2+z
1/2-x,-y,1/2+z
1/2+x,-y,1/2-z
1/2-x,y,1/2-z
1/2-x,-y,1/2-z
1/2+x,y,1/2-z
1/2-x,y,1/2+z
1/2+x,-y,1/2+z
1/2+x,1/2+y,z
1/2-x,1/2-y,z
1/2+x,1/2-y,-z
1/2-x,1/2+y,-z
1/2-x,1/2-y,-z
1/2+x,1/2+y,-z
1/2-x,1/2+y,z
1/2+x,1/2-y,z
loop_
_atom_site_type_symbol
_atom_site_label
_atom_site_fract_x
_atom_site_fract_y
_atom_site_fract_z
Si Si1 0.889778 0.099674 0.266162
Si Si2 0.000000 0.680198 0.806190
Si Si3 0.778327 0.341385 0.810088
Si Si4 0.104057 0.101099 0.883593
Si Si5 0.500000 0.296122 0.072536
Si Si6 0.721287 0.100889 0.568875
O O1 0.946449 0.124988 0.296454
O O2 0.841481 0.154881 0.295312
O O3 0.894209 0.115256 0.191407
O O4 0.877808 0.000000 0.275096
O O5 0.000000 0.750000 0.750000
O O6 0.000000 0.724473 0.873906
O O7 0.750000 0.386350 0.750000
O O8 0.750000 0.250000 0.812581
O O9 0.763486 0.380528 0.876498
O O10 0.053345 0.147812 0.914005
O O11 0.161425 0.131341 0.911303
O O12 0.098914 0.000000 0.893710
O O13 0.500000 0.267781 0.000000
O O14 0.736154 0.133779 0.500000
O O15 0.716730 0.000000 0.565467
#
# Coordination Sequence:
#
# PCOD9512678 Si02
#       6
#    32  16  32  32  16  32
#     4  11  23  42  68  95 124 168 219 268 317 371
#     4  12  25  41  67  91 129 162 216 272 316 365
#     4  11  24  37  63  92 129 162 210 259 316 369
#     4  10  20  36  60  90 127 167 207 255 317 386
#     4  12  25  38  59  92 131 168 206 257 327 383
#     4  10  21  38  59  87 125 165 204 253 315 384
#
# _framework density 19.212505
#
# number of rings (size 3 to 8) (size 9 to 14) (size 15 to 20)
#    0.000    1.200    4.000    1.800    5.600    4.400 
#    0.000    1.000    0.000    2.400    0.000    0.000 
#    0.000    0.000    0.000    0.000    0.000    0.000 
#
# Total GULP energy -223498.770341 kJ/mol
# GULP energy per Si atom -5587.469259 kJ/mol
# Density = 1.916878 g / cm^3
# Si number density = 19.212505 Si / 1000 Ang^3
#
#
#
# Elastic Constant Matrix: (Units=GPa)
#
#
# Indices 1 2 3 4 5 6 
#
# 1 118.9600 19.4505 43.3119 0.0000 0.0000 0.0000
# 2 19.4505 47.3900 30.9285 0.0000 0.0000 0.0000
# 3 43.3119 30.9285 163.3441 0.0000 0.0000 0.0000
# 4 0.0000 0.0000 0.0000 25.0027 0.0000 0.0000
# 5 0.0000 0.0000 0.0000 0.000019374.4058 0.0000
# 6 0.0000 0.0000 0.0000 0.0000 0.0000 16.0498
#
#
#
# Elastic Compliance Matrix: (Units=1/GPa)
#
#
# Indices 1 2 3 4 5 6 
#
# 1 0.009576 -0.002594 -0.002048 0.000000 0.000000 0.000000
# 2 -0.002594 0.024779 -0.004004 0.000000 0.000000 0.000000
# 3 -0.002048 -0.004004 0.007423 0.000000 0.000000 0.000000
# 4 0.000000 0.000000 0.000000 0.039996 0.000000 0.000000
# 5 0.000000 0.000000 0.000000 0.000000 0.000052 0.000000
# 6 0.000000 0.000000 0.000000 0.000000 0.000000 0.062306
#
#
# Mechanical properties :
#
#
# Convention : Reuss Voigt Hill
#
# Bulk Modulus (GPa) = 40.83831 57.45287 49.14559
# Shear Modulus (GPa) = 29.48359 3898.82520 1964.15439
#
# Velocity S-wave (km/s) = 3.92165 45.09681 32.00860
# Velocity P-wave (km/s) = 6.46592 52.36027 37.30554
#
# Compressibility (1/GPa) = 0.02448681
#
# Stress axis : x y z
#
# Youngs Moduli (GPa) = 104.42854 40.35636 134.71185
#
# Poissons Ratio (x) = 0.10467 0.27589
# Poissons Ratio (y) = 0.27085 0.53940
# Poissons Ratio (z) = 0.21387 0.16159
#
# Static dielectric constant tensor:
#      x y z
#    x 1.653470 0.000000 0.000000 
#    y 0.000000 1.718100 0.000000 
#    z 0.000000 0.000000 1.686170 
# 
# From -- ./inp_files/24878.got.cif
#   From: 2010.05.17/outbox.cif.g08.bks.cpg/sg69_13_cif.got.tgz:24878.got - 2010.06.03 19:29:58.
