data_PCOD9512173
_publ_section_title
;
Structure prediction by ZEFSAII (Michael W. Deem and Ramdas Pophale) SiO2 
 PCOD9512173
Probable space group: F M M M
;
_chemical_formula_sum "Si O2"
_cell_formula_units_Z 176
_cell_length_a 7.465013
_cell_length_b 29.832989
_cell_length_c 37.201695
_cell_angle_alpha 90.000000
_cell_angle_beta 90.000000
_cell_angle_gamma 90.000000
_cell_volume 8284.953289
_symmetry_space_group_name_H-M "F M M M"
_symmetry_group_IT_number 69
_symmetry_cell_setting 'orthorhombic'
loop_
_space_group_symop_operation_xyz
x,y,z
-x,-y,z
x,-y,-z
-x,y,-z
-x,-y,-z
x,y,-z
-x,y,z
x,-y,z
x,1/2+y,1/2+z
-x,1/2-y,1/2+z
x,1/2-y,1/2-z
-x,1/2+y,1/2-z
-x,1/2-y,1/2-z
x,1/2+y,1/2-z
-x,1/2+y,1/2+z
x,1/2-y,1/2+z
1/2+x,y,1/2+z
1/2-x,-y,1/2+z
1/2+x,-y,1/2-z
1/2-x,y,1/2-z
1/2-x,-y,1/2-z
1/2+x,y,1/2-z
1/2-x,y,1/2+z
1/2+x,-y,1/2+z
1/2+x,1/2+y,z
1/2-x,1/2-y,z
1/2+x,1/2-y,-z
1/2-x,1/2+y,-z
1/2-x,1/2-y,-z
1/2+x,1/2+y,-z
1/2-x,1/2+y,z
1/2+x,1/2-y,z
loop_
_atom_site_type_symbol
_atom_site_label
_atom_site_fract_x
_atom_site_fract_y
_atom_site_fract_z
Si Si1 0.785898 0.892424 0.290447
Si Si2 0.285808 0.299696 0.679475
Si Si3 0.281278 0.894222 0.070551
Si Si4 0.781076 0.948668 0.358537
Si Si5 0.219157 0.448045 0.000000
Si Si6 0.714073 0.200082 0.903111
O O1 0.750000 0.907082 0.250000
O O2 0.717854 0.841892 0.297935
O O3 0.719894 0.924903 0.321935
O O4 0.000000 0.891223 0.294255
O O5 0.500000 0.303756 0.677488
O O6 0.250000 0.250000 0.693900
O O7 0.217298 0.302185 0.638192
O O8 0.500000 0.894338 0.069644
O O9 0.227211 0.920064 0.106778
O O10 0.221839 0.842576 0.074279
O O11 0.222718 0.921219 0.035465
O O12 0.000000 0.948725 0.358421
O O13 0.723065 0.000000 0.361004
O O14 0.275761 0.500000 0.000000
O O15 0.000000 0.448545 0.000000
O O16 0.500000 0.195652 0.900865
O O17 0.750000 0.250000 0.917219
#
# Coordination Sequence:
#
# PCOD9512173 Si02
#       6
#    32  32  32  32  16  32
#     4  10  20  33  47  67  94 122 155 196 237 279
#     4   9  17  30  47  66  90 120 156 193 231 277
#     4   9  15  26  44  67  97 128 156 191 235 280
#     4   9  16  28  47  66  86 120 161 193 229 283
#     4   9  16  24  39  70 105 129 153 193 242 281
#     4   9  16  28  47  69  94 125 159 192 228 274
#
# _framework density 21.243328999999999
#
# number of rings (size 3 to 8) (size 9 to 14) (size 15 to 20)
#    0.000    2.818    1.818    0.545    0.000    3.636 
#    0.000    2.273    0.000    0.000    0.000    0.000 
#    0.000    2.909    0.000    0.000    0.000    0.182 
#
# Total GULP energy -245594.363242 kJ/mol
# GULP energy per Si atom -5581.690074 kJ/mol
# Density = 2.119498 g / cm^3
# Si number density = 21.243329 Si / 1000 Ang^3
#
#
#
# Elastic Constant Matrix: (Units=GPa)
#
#
# Indices 1 2 3 4 5 6 
#
# 1 60.0373 2.2616 0.4202 0.0000 0.0000 0.0000
# 2 2.2616 193.0022 106.7029 0.0000 0.0000 0.0000
# 3 0.4202 106.7029 157.1505 0.0000 0.0000 0.0000
# 4 0.0000 0.0000 0.0000 11.8181 0.0000 0.0000
# 5 0.0000 0.0000 0.0000 0.0000 60.9996 0.0000
# 6 0.0000 0.0000 0.0000 0.0000 0.0000 8.3700
#
#
#
# Elastic Compliance Matrix: (Units=1/GPa)
#
#
# Indices 1 2 3 4 5 6 
#
# 1 0.016666 -0.000273 0.000141 0.000000 0.000000 0.000000
# 2 -0.000273 0.008300 -0.005635 0.000000 0.000000 0.000000
# 3 0.000141 -0.005635 0.010189 0.000000 0.000000 0.000000
# 4 0.000000 0.000000 0.000000 0.084616 0.000000 0.000000
# 5 0.000000 0.000000 0.000000 0.000000 0.016394 0.000000
# 6 0.000000 0.000000 0.000000 0.000000 0.000000 0.119474
#
#
# Mechanical properties :
#
#
# Convention : Reuss Voigt Hill
#
# Bulk Modulus (GPa) = 42.33654 69.88440 56.11047
# Shear Modulus (GPa) = 18.17886 36.29122 27.23504
#
# Velocity S-wave (km/s) = 2.92848 4.13771 3.58446
# Velocity P-wave (km/s) = 5.60422 7.46968 6.60316
#
# Compressibility (1/GPa) = 0.02362026
#
# Stress axis : x y z
#
# Youngs Moduli (GPa) = 60.00382 120.48742 98.14737
#
# Poissons Ratio (x) = 0.03292 -0.01383
# Poissons Ratio (y) = 0.01639 0.55302
# Poissons Ratio (z) = -0.00846 0.67890
#
# Static dielectric constant tensor:
#      x y z
#    x 1.833370 0.000000 0.000000 
#    y 0.000000 1.760100 0.000000 
#    z 0.000000 0.000000 1.731310 
# 
# From -- ./inp_files/45231.got.cif
#   From: 2010.05.17/outbox.cif.g08.bks.cpg/sg69_23_cif.got.tgz:45231.got - 2010.06.03 19:29:58.
