data_PCOD9512063
_publ_section_title
;
Structure prediction by ZEFSAII (Michael W. Deem and Ramdas Pophale) SiO2 
 PCOD9512063
Probable space group: F M M M
;
_chemical_formula_sum "Si O2"
_cell_formula_units_Z 160
_cell_length_a 18.381517
_cell_length_b 14.632495
_cell_length_c 30.090876
_cell_angle_alpha 90.000000
_cell_angle_beta 90.000000
_cell_angle_gamma 90.000000
_cell_volume 8093.466354
_symmetry_space_group_name_H-M "F M M M"
_symmetry_group_IT_number 69
_symmetry_cell_setting 'orthorhombic'
loop_
_space_group_symop_operation_xyz
x,y,z
-x,-y,z
x,-y,-z
-x,y,-z
-x,-y,-z
x,y,-z
-x,y,z
x,-y,z
x,1/2+y,1/2+z
-x,1/2-y,1/2+z
x,1/2-y,1/2-z
-x,1/2+y,1/2-z
-x,1/2-y,1/2-z
x,1/2+y,1/2-z
-x,1/2+y,1/2+z
x,1/2-y,1/2+z
1/2+x,y,1/2+z
1/2-x,-y,1/2+z
1/2+x,-y,1/2-z
1/2-x,y,1/2-z
1/2-x,-y,1/2-z
1/2+x,y,1/2-z
1/2-x,y,1/2+z
1/2+x,-y,1/2+z
1/2+x,1/2+y,z
1/2-x,1/2-y,z
1/2+x,1/2-y,-z
1/2-x,1/2+y,-z
1/2-x,1/2-y,-z
1/2+x,1/2+y,-z
1/2-x,1/2+y,z
1/2+x,1/2-y,z
loop_
_atom_site_type_symbol
_atom_site_label
_atom_site_fract_x
_atom_site_fract_y
_atom_site_fract_z
Si Si1 0.916552 0.834109 0.327390
Si Si2 0.788505 0.000000 0.818237
Si Si3 0.181990 0.186385 0.867129
Si Si4 0.913492 0.402341 0.072632
Si Si5 0.367034 0.500000 0.729628
Si Si6 0.912259 0.797772 0.951133
O O1 0.862945 0.747926 0.331413
O O2 0.905246 0.886917 0.374452
O O3 0.000000 0.802429 0.326642
O O4 0.904084 0.907715 0.288736
O O5 0.792052 0.907790 0.846331
O O6 0.712300 0.000000 0.792774
O O7 0.853399 0.000000 0.782054
O O8 0.250000 0.250000 0.880775
O O9 0.130215 0.164201 0.908920
O O10 0.881010 0.500000 0.059650
O O11 0.889475 0.309422 0.049766
O O12 0.000000 0.406793 0.063934
O O13 0.000000 0.802032 0.944404
O O14 0.896291 0.836306 0.000000
#
# Coordination Sequence:
#
# PCOD9512063 Si02
#       6
#    32  16  32  32  16  32
#     4  10  19  36  62  93 122 160 203 254 314 364
#     4  11  26  42  59  91 122 163 212 250 304 367
#     4  11  22  41  64  87 124 165 207 254 307 374
#     4   8  13  23  47  80 116 150 184 233 296 356
#     4  11  21  40  64  90 123 160 206 258 302 373
#     4   9  19  36  58  86 120 160 205 253 306 364
#
# _framework density 19.769034000000001
#
# number of rings (size 3 to 8) (size 9 to 14) (size 15 to 20)
#    0.000    2.200    3.000    2.100    0.000    1.600 
#    0.000    9.500    0.000    1.200    0.000    0.000 
#    0.000    0.000    0.000    0.000    0.000    0.000 
#
# Total GULP energy -223062.742579 kJ/mol
# GULP energy per Si atom -5576.568564 kJ/mol
# Density = 1.972404 g / cm^3
# Si number density = 19.769034 Si / 1000 Ang^3
#
#
#
# Elastic Constant Matrix: (Units=GPa)
#
#
# Indices 1 2 3 4 5 6 
#
# 1 60.9167 16.8846 13.0718 0.0000 0.0000 0.0000
# 2 16.8846 63.8696 10.6606 0.0000 0.0000 0.0000
# 3 13.0718 10.6606 67.6401 0.0000 0.0000 0.0000
# 4 0.0000 0.0000 0.0000 -392.1607 0.0000 0.0000
# 5 0.0000 0.0000 0.0000 0.0000 25.3419 0.0000
# 6 0.0000 0.0000 0.0000 0.0000 0.0000 22.9762
#
#
#
# Elastic Compliance Matrix: (Units=1/GPa)
#
#
# Indices 1 2 3 4 5 6 
#
# 1 0.018229 -0.004345 -0.002838 0.000000 0.000000 0.000000
# 2 -0.004345 0.017116 -0.001858 0.000000 0.000000 0.000000
# 3 -0.002838 -0.001858 0.015625 0.000000 0.000000 0.000000
# 4 0.000000 0.000000 0.000000 -0.002550 0.000000 0.000000
# 5 0.000000 0.000000 0.000000 0.000000 0.039460 0.000000
# 6 0.000000 0.000000 0.000000 0.000000 0.000000 0.043523
#
#
# Mechanical properties :
#
#
# Convention : Reuss Voigt Hill
#
# Bulk Modulus (GPa) = 30.40630 30.40674 30.40652
# Shear Modulus (GPa) = 31.16251 -58.64789 -13.74269
#
# Velocity S-wave (km/s) = 3.97461 -5.45261 -2.63945
# Velocity P-wave (km/s) = 6.03966 4.92208 2.47494
#
# Compressibility (1/GPa) = 0.03288792
#
# Stress axis : x y z
#
# Youngs Moduli (GPa) = 54.85677 58.42574 63.99838
#
# Poissons Ratio (x) = 0.25388 0.18163
# Poissons Ratio (y) = 0.23838 0.11890
# Poissons Ratio (z) = 0.15569 0.10854
#
# Static dielectric constant tensor:
#      x y z
#    x 1.705970 0.000000 0.000000 
#    y 0.000000 1.707390 0.000000 
#    z 0.000000 0.000000 1.725970 
# 
# From -- ./inp_files/46259.got.cif
#   From: 2010.05.17/outbox.cif.g08.bks.cpg/sg69_24_cif.got.tgz:46259.got - 2010.06.03 19:29:58.
