data_PCOD9512652
_publ_section_title
;
Structure prediction by ZEFSAII (Michael W. Deem and Ramdas Pophale) SiO2 
 PCOD9512652
Probable space group: F M M M
;
_chemical_formula_sum "Si O2"
_cell_formula_units_Z 208
_cell_length_a 17.380446
_cell_length_b 21.793479
_cell_length_c 28.711065
_cell_angle_alpha 90.000000
_cell_angle_beta 90.000000
_cell_angle_gamma 90.000000
_cell_volume 10875.188252
_symmetry_space_group_name_H-M "F M M M"
_symmetry_group_IT_number 69
_symmetry_cell_setting 'orthorhombic'
loop_
_space_group_symop_operation_xyz
x,y,z
-x,-y,z
x,-y,-z
-x,y,-z
-x,-y,-z
x,y,-z
-x,y,z
x,-y,z
x,1/2+y,1/2+z
-x,1/2-y,1/2+z
x,1/2-y,1/2-z
-x,1/2+y,1/2-z
-x,1/2-y,1/2-z
x,1/2+y,1/2-z
-x,1/2+y,1/2+z
x,1/2-y,1/2+z
1/2+x,y,1/2+z
1/2-x,-y,1/2+z
1/2+x,-y,1/2-z
1/2-x,y,1/2-z
1/2-x,-y,1/2-z
1/2+x,y,1/2-z
1/2-x,y,1/2+z
1/2+x,-y,1/2+z
1/2+x,1/2+y,z
1/2-x,1/2-y,z
1/2+x,1/2-y,-z
1/2-x,1/2+y,-z
1/2-x,1/2-y,-z
1/2+x,1/2+y,-z
1/2-x,1/2+y,z
1/2+x,1/2-y,z
loop_
_atom_site_type_symbol
_atom_site_label
_atom_site_fract_x
_atom_site_fract_y
_atom_site_fract_z
Si Si1 0.589937 0.723679 0.553019
Si Si2 0.346496 0.144963 0.444416
Si Si3 0.243722 0.568046 0.881928
Si Si4 0.411662 0.127710 0.863668
Si Si5 0.675055 0.068049 0.717134
Si Si6 0.000000 0.929104 0.056631
Si Si7 0.908811 0.682163 0.761982
O O1 0.608431 0.703544 0.500000
O O2 0.500000 0.743692 0.552488
O O3 0.639293 0.783472 0.564908
O O4 0.596075 0.671593 0.591539
O O5 0.339036 0.137826 0.500000
O O6 0.273733 0.118023 0.418018
O O7 0.422558 0.106647 0.429200
O O8 0.254829 0.500000 0.901726
O O9 0.155248 0.578032 0.867961
O O10 0.294711 0.573533 0.835414
O O11 0.500000 0.104740 0.861900
O O12 0.397484 0.165920 0.816347
O O13 0.750000 0.068556 0.750000
O O14 0.625852 0.126474 0.732235
O O15 0.638173 0.000000 0.722830
O O16 0.000000 0.000000 0.072289
O O17 0.000000 0.929152 0.000000
O O18 0.877526 0.750000 0.750000
O O19 0.000000 0.683424 0.753182
#
# Coordination Sequence:
#
# PCOD9512652 Si02
#       7
#    32  32  32  32  32  16  32
#     4   9  18  36  60  86 118 152 191 239 289 346
#     4  10  20  36  59  85 118 158 193 236 290 347
#     4  11  24  40  58  86 120 153 195 246 294 345
#     4  10  22  40  62  86 112 152 199 242 295 353
#     4  10  21  41  62  84 119 158 195 240 292 348
#     4   9  16  30  54  82 112 153 197 227 271 344
#     4  10  22  40  62  89 119 152 195 247 296 346
#
# _framework density 19.126104999999999
#
# number of rings (size 3 to 8) (size 9 to 14) (size 15 to 20)
#    0.000    2.077    2.308    0.462    2.154    3.077 
#    1.385    3.077    0.000    0.000    0.000    3.231 
#    0.000    0.000    0.000    0.000    0.000    0.000 
#
# Total GULP energy -290195.691306 kJ/mol
# GULP energy per Si atom -5580.686371 kJ/mol
# Density = 1.908257 g / cm^3
# Si number density = 19.126105 Si / 1000 Ang^3
#
#
#
# Elastic Constant Matrix: (Units=GPa)
#
#
# Indices 1 2 3 4 5 6 
#
# 1 51.4610 23.9835 16.7137 0.0000 0.0000 0.0000
# 2 23.9835 87.8959 26.9567 0.0000 0.0000 0.0000
# 3 16.7137 26.9567 36.6042 0.0000 0.0000 0.0000
# 4 0.0000 0.0000 0.0000 20.2078 0.0000 0.0000
# 5 0.0000 0.0000 0.0000 0.0000 27.5280 0.0000
# 6 0.0000 0.0000 0.0000 0.0000 0.0000 96.4765
#
#
#
# Elastic Compliance Matrix: (Units=1/GPa)
#
#
# Indices 1 2 3 4 5 6 
#
# 1 0.023908 -0.004102 -0.007896 0.000000 0.000000 0.000000
# 2 -0.004102 0.015400 -0.009468 0.000000 0.000000 0.000000
# 3 -0.007896 -0.009468 0.037897 0.000000 0.000000 0.000000
# 4 0.000000 0.000000 0.000000 0.049486 0.000000 0.000000
# 5 0.000000 0.000000 0.000000 0.000000 0.036327 0.000000
# 6 0.000000 0.000000 0.000000 0.000000 0.000000 0.010365
#
#
# Mechanical properties :
#
#
# Convention : Reuss Voigt Hill
#
# Bulk Modulus (GPa) = 29.17694 34.58543 31.88118
# Shear Modulus (GPa) = 21.95480 36.06293 29.00886
#
# Velocity S-wave (km/s) = 3.39174 4.34698 3.89873
# Velocity P-wave (km/s) = 5.53414 6.58158 6.08045
#
# Compressibility (1/GPa) = 0.03427364
#
# Stress axis : x y z
#
# Youngs Moduli (GPa) = 41.82626 64.93417 26.38709
#
# Poissons Ratio (x) = 0.26637 0.20835
# Poissons Ratio (y) = 0.17158 0.24984
# Poissons Ratio (z) = 0.33025 0.61481
#
# Static dielectric constant tensor:
#      x y z
#    x 1.681670 0.000000 0.000000 
#    y 0.000000 1.658590 0.000000 
#    z 0.000000 0.000000 1.644910 
# 
# From -- ./inp_files/42035.got.cif
#   From: 2010.05.17/outbox.cif.g08.bks.cpg/sg69_22_cif.got.tgz:42035.got - 2010.06.03 19:29:58.
