data_PCOD9512296
_publ_section_title
;
Structure prediction by ZEFSAII (Michael W. Deem and Ramdas Pophale) SiO2 
 PCOD9512296
Probable space group: F M M M
;
_chemical_formula_sum "Si O2"
_cell_formula_units_Z 160
_cell_length_a 25.821151
_cell_length_b 22.715300
_cell_length_c 14.047851
_cell_angle_alpha 90.000000
_cell_angle_beta 90.000000
_cell_angle_gamma 90.000000
_cell_volume 8239.558974
_symmetry_space_group_name_H-M "F M M M"
_symmetry_group_IT_number 69
_symmetry_cell_setting 'orthorhombic'
loop_
_space_group_symop_operation_xyz
x,y,z
-x,-y,z
x,-y,-z
-x,y,-z
-x,-y,-z
x,y,-z
-x,y,z
x,-y,z
x,1/2+y,1/2+z
-x,1/2-y,1/2+z
x,1/2-y,1/2-z
-x,1/2+y,1/2-z
-x,1/2-y,1/2-z
x,1/2+y,1/2-z
-x,1/2+y,1/2+z
x,1/2-y,1/2+z
1/2+x,y,1/2+z
1/2-x,-y,1/2+z
1/2+x,-y,1/2-z
1/2-x,y,1/2-z
1/2-x,-y,1/2-z
1/2+x,y,1/2-z
1/2-x,y,1/2+z
1/2+x,-y,1/2+z
1/2+x,1/2+y,z
1/2-x,1/2-y,z
1/2+x,1/2-y,-z
1/2-x,1/2+y,-z
1/2-x,1/2-y,-z
1/2+x,1/2+y,-z
1/2-x,1/2+y,z
1/2+x,1/2-y,z
loop_
_atom_site_type_symbol
_atom_site_label
_atom_site_fract_x
_atom_site_fract_y
_atom_site_fract_z
Si Si1 0.787463 0.379959 0.114232
Si Si2 0.339817 0.760370 0.885576
Si Si3 0.941458 0.168752 0.386072
Si Si4 0.830017 0.874411 0.114051
Si Si5 0.884767 0.068004 0.720077
O O1 0.799709 0.311832 0.141668
O O2 0.728382 0.395584 0.135878
O O3 0.831184 0.419016 0.163216
O O4 0.793891 0.383655 0.000000
O O5 0.396972 0.784206 0.861590
O O6 0.332288 0.693866 0.853285
O O7 0.335800 0.757101 0.000000
O O8 0.936917 0.157737 0.500000
O O9 0.926798 0.110052 0.329040
O O10 0.000000 0.188052 0.366457
O O11 0.871612 0.910813 0.173328
O O12 0.837563 0.877379 0.000000
O O13 0.898395 0.000000 0.715611
#
# Coordination Sequence:
#
# PCOD9512296 Si02
#       5
#    32  32  32  32  32
#     4   9  18  32  52  78 106 137 173 216 266 316
#     4   8  15  31  54  80 108 133 164 212 266 318
#     4   9  19  37  61  86 107 127 157 208 277 338
#     4  10  20  34  52  74 105 146 182 210 250 305
#     4  11  23  36  50  74 108 142 182 226 258 293
#
# _framework density 19.418513999999998
#
# number of rings (size 3 to 8) (size 9 to 14) (size 15 to 20)
#    0.000    2.600    0.000    3.000    0.000    9.600 
#    0.000    9.000    0.000    1.800    0.000    1.400 
#    0.000    0.000    0.000    0.000    0.000    0.000 
#
# Total GULP energy -223310.029458 kJ/mol
# GULP energy per Si atom -5582.750736 kJ/mol
# Density = 1.937432 g / cm^3
# Si number density = 19.418514 Si / 1000 Ang^3
#
#
#
# Elastic Constant Matrix: (Units=GPa)
#
#
# Indices 1 2 3 4 5 6 
#
# 1 54.3747 -16.1283 12.8279 0.0000 0.0000 0.0000
# 2 -16.1283 19.5377 0.6108 0.0000 0.0000 0.0000
# 3 12.8279 0.6108 73.9647 0.0000 0.0000 0.0000
# 4 0.0000 0.0000 0.0000 25.0593 0.0000 0.0000
# 5 0.0000 0.0000 0.0000 0.0000 25.5027 0.0000
# 6 0.0000 0.0000 0.0000 0.0000 0.0000 3.7085
#
#
#
# Elastic Compliance Matrix: (Units=1/GPa)
#
#
# Indices 1 2 3 4 5 6 
#
# 1 0.025868 0.021500 -0.004664 0.000000 0.000000 0.000000
# 2 0.021500 0.069066 -0.004299 0.000000 0.000000 0.000000
# 3 -0.004664 -0.004299 0.014364 0.000000 0.000000 0.000000
# 4 0.000000 0.000000 0.000000 0.039905 0.000000 0.000000
# 5 0.000000 0.000000 0.000000 0.000000 0.039211 0.000000
# 6 0.000000 0.000000 0.000000 0.000000 0.000000 0.269647
#
#
# Mechanical properties :
#
#
# Convention : Reuss Voigt Hill
#
# Bulk Modulus (GPa) = 7.44199 15.83310 11.63754
# Shear Modulus (GPa) = 10.46507 20.89189 15.67848
#
# Velocity S-wave (km/s) = 2.32399 3.28361 2.84456
# Velocity P-wave (km/s) = 3.32295 4.74842 4.09814
#
# Compressibility (1/GPa) = 0.13437265
#
# Stress axis : x y z
#
# Youngs Moduli (GPa) = 38.65707 14.47894 69.61681
#
# Poissons Ratio (x) = -0.31130 0.32469
# Poissons Ratio (y) = -0.83113 0.29930
# Poissons Ratio (z) = 0.18030 0.06225
#
# Static dielectric constant tensor:
#      x y z
#    x 1.652220 0.000000 0.000000 
#    y 0.000000 1.661650 0.000000 
#    z 0.000000 0.000000 1.737600 
# 
# From -- ./inp_files/17676.got.cif
#   From: 2010.05.17/outbox.cif.g08.bks.cpg/sg69_9_cif.got.tgz:17676.got - 2010.06.03 19:29:58.
