data_PCOD9512766
_publ_section_title
;
Structure prediction by ZEFSAII (Michael W. Deem and Ramdas Pophale) SiO2 
 PCOD9512766
Probable space group: F M M M
;
_chemical_formula_sum "Si O2"
_cell_formula_units_Z 160
_cell_length_a 8.619377
_cell_length_b 31.106856
_cell_length_c 30.863511
_cell_angle_alpha 90.000000
_cell_angle_beta 90.000000
_cell_angle_gamma 90.000000
_cell_volume 8275.177628
_symmetry_space_group_name_H-M "F M M M"
_symmetry_group_IT_number 69
_symmetry_cell_setting 'orthorhombic'
loop_
_space_group_symop_operation_xyz
x,y,z
-x,-y,z
x,-y,-z
-x,y,-z
-x,-y,-z
x,y,-z
-x,y,z
x,-y,z
x,1/2+y,1/2+z
-x,1/2-y,1/2+z
x,1/2-y,1/2-z
-x,1/2+y,1/2-z
-x,1/2-y,1/2-z
x,1/2+y,1/2-z
-x,1/2+y,1/2+z
x,1/2-y,1/2+z
1/2+x,y,1/2+z
1/2-x,-y,1/2+z
1/2+x,-y,1/2-z
1/2-x,y,1/2-z
1/2-x,-y,1/2-z
1/2+x,y,1/2-z
1/2-x,y,1/2+z
1/2+x,-y,1/2+z
1/2+x,1/2+y,z
1/2-x,1/2-y,z
1/2+x,1/2-y,-z
1/2-x,1/2+y,-z
1/2-x,1/2-y,-z
1/2+x,1/2+y,-z
1/2-x,1/2+y,z
1/2+x,1/2-y,z
loop_
_atom_site_type_symbol
_atom_site_label
_atom_site_fract_x
_atom_site_fract_y
_atom_site_fract_z
Si Si1 0.314986 0.665363 0.588117
Si Si2 0.316107 0.424862 0.116619
Si Si3 0.815687 0.795755 0.678567
Si Si4 0.685967 0.892333 0.203932
Si Si5 0.314276 0.202351 0.500000
Si Si6 0.310733 0.000000 0.550825
O O1 0.500000 0.657559 0.587961
O O2 0.226007 0.621795 0.598626
O O3 0.284551 0.698700 0.627142
O O4 0.254288 0.681086 0.542667
O O5 0.500000 0.430547 0.121749
O O6 0.241339 0.422561 0.164462
O O7 0.262751 0.459320 0.080544
O O8 0.750000 0.750000 0.694096
O O9 0.759787 0.842116 0.697159
O O10 0.000000 0.794416 0.685474
O O11 0.500000 0.891397 0.203490
O O12 0.750000 0.906974 0.250000
O O13 0.500000 0.200999 0.500000
O O14 0.250000 0.250000 0.500000
O O15 0.500000 0.000000 0.548927
O O16 0.258890 0.000000 0.500000
#
# Coordination Sequence:
#
# PCOD9512766 Si02
#       6
#    32  32  32  32  16  16
#     4  10  21  37  54  77 112 151 193 242 291 344
#     4  10  20  37  62  89 118 154 191 234 292 353
#     4   9  19  33  51  75 108 147 188 237 286 335
#     4  10  21  38  58  83 116 153 196 245 295 349
#     4  12  24  36  52  77 108 149 198 246 293 346
#     4   9  20  38  62  93 126 153 187 236 285 350
#
# _framework density 19.334931000000001
#
# number of rings (size 3 to 8) (size 9 to 14) (size 15 to 20)
#    0.000    2.100    0.000    4.500    1.400    6.800 
#    0.000    4.500    0.000    2.400    0.000    0.000 
#    0.000    0.000    0.000    0.000    0.000    0.000 
#
# Total GULP energy -223081.158953 kJ/mol
# GULP energy per Si atom -5577.028974 kJ/mol
# Density = 1.929092 g / cm^3
# Si number density = 19.334931 Si / 1000 Ang^3
#
#
#
# Elastic Constant Matrix: (Units=GPa)
#
#
# Indices 1 2 3 4 5 6 
#
# 1 31.8432 10.0152 25.6317 0.0000 0.0000 0.0000
# 2 10.0152 73.5367 40.8030 0.0000 0.0000 0.0000
# 3 25.6317 40.8030 163.2729 0.0000 0.0000 0.0000
# 4 0.0000 0.0000 0.0000 6.4720 0.0000 0.0000
# 5 0.0000 0.0000 0.0000 0.0000 24.7175 0.0000
# 6 0.0000 0.0000 0.0000 0.0000 0.0000 19.2902
#
#
#
# Elastic Compliance Matrix: (Units=1/GPa)
#
#
# Indices 1 2 3 4 5 6 
#
# 1 0.036214 -0.002064 -0.005169 0.000000 0.000000 0.000000
# 2 -0.002064 0.015905 -0.003651 0.000000 0.000000 0.000000
# 3 -0.005169 -0.003651 0.007849 0.000000 0.000000 0.000000
# 4 0.000000 0.000000 0.000000 0.154512 0.000000 0.000000
# 5 0.000000 0.000000 0.000000 0.000000 0.040457 0.000000
# 6 0.000000 0.000000 0.000000 0.000000 0.000000 0.051840
#
#
# Mechanical properties :
#
#
# Convention : Reuss Voigt Hill
#
# Bulk Modulus (GPa) = 26.17802 46.83919 36.50860
# Shear Modulus (GPa) = 14.65080 22.90947 18.78013
#
# Velocity S-wave (km/s) = 2.75569 3.44594 3.11996
# Velocity P-wave (km/s) = 4.86762 6.33328 5.64819
#
# Compressibility (1/GPa) = 0.03819999
#
# Stress axis : x y z
#
# Youngs Moduli (GPa) = 27.61361 62.87137 127.41078
#
# Poissons Ratio (x) = 0.12975 0.65863
# Poissons Ratio (y) = 0.05699 0.46516
# Poissons Ratio (z) = 0.14275 0.22954
#
# Static dielectric constant tensor:
#      x y z
#    x 1.687490 0.000000 0.000000 
#    y 0.000000 1.665910 0.000000 
#    z 0.000000 0.000000 1.642880 
# 
# From -- ./inp_files/5728.got.cif
#   From: 2010.05.17/outbox.cif.g08.bks.cpg/sg69_3_cif.got.tgz:5728.got - 2010.06.03 19:29:58.
