data_PCOD9512770
_publ_section_title
;
Structure prediction by ZEFSAII (Michael W. Deem and Ramdas Pophale) SiO2 
 PCOD9512770
Probable space group: F M M M
;
_chemical_formula_sum "Si O2"
_cell_formula_units_Z 176
_cell_length_a 17.620417
_cell_length_b 19.040367
_cell_length_c 26.959670
_cell_angle_alpha 90.000000
_cell_angle_beta 90.000000
_cell_angle_gamma 90.000000
_cell_volume 9044.947889
_symmetry_space_group_name_H-M "F M M M"
_symmetry_group_IT_number 69
_symmetry_cell_setting 'orthorhombic'
loop_
_space_group_symop_operation_xyz
x,y,z
-x,-y,z
x,-y,-z
-x,y,-z
-x,-y,-z
x,y,-z
-x,y,z
x,-y,z
x,1/2+y,1/2+z
-x,1/2-y,1/2+z
x,1/2-y,1/2-z
-x,1/2+y,1/2-z
-x,1/2-y,1/2-z
x,1/2+y,1/2-z
-x,1/2+y,1/2+z
x,1/2-y,1/2+z
1/2+x,y,1/2+z
1/2-x,-y,1/2+z
1/2+x,-y,1/2-z
1/2-x,y,1/2-z
1/2-x,-y,1/2-z
1/2+x,y,1/2-z
1/2-x,y,1/2+z
1/2+x,-y,1/2+z
1/2+x,1/2+y,z
1/2-x,1/2-y,z
1/2+x,1/2-y,-z
1/2-x,1/2+y,-z
1/2-x,1/2-y,-z
1/2+x,1/2+y,-z
1/2-x,1/2+y,z
1/2+x,1/2-y,z
loop_
_atom_site_type_symbol
_atom_site_label
_atom_site_fract_x
_atom_site_fract_y
_atom_site_fract_z
Si Si1 0.361108 0.649841 0.619232
Si Si2 0.915628 0.919598 0.183473
Si Si3 0.337763 0.774546 0.552603
Si Si4 0.164135 0.668084 0.235905
Si Si5 0.500000 0.415921 0.441410
Si Si6 0.800941 0.418418 0.407812
O O1 0.367104 0.729930 0.598835
O O2 0.356717 0.653849 0.678726
O O3 0.428021 0.610428 0.590374
O O4 0.283391 0.610633 0.602909
O O5 0.894572 0.870653 0.228771
O O6 0.851356 0.914462 0.141792
O O7 0.000000 0.904151 0.163432
O O8 0.915372 0.000000 0.201018
O O9 0.373678 0.753601 0.500000
O O10 0.250000 0.750000 0.550683
O O11 0.337943 0.858244 0.558063
O O12 0.162205 0.750000 0.250000
O O13 0.250000 0.643562 0.250000
O O14 0.500000 0.500000 0.442100
O O15 0.500000 0.393406 0.500000
O O16 0.799830 0.500000 0.424593
#
# Coordination Sequence:
#
# PCOD9512770 Si02
#       6
#    32  32  32  32  16  32
#     4  11  22  40  65  90 125 172 211 260 321 391
#     4  10  22  39  58  86 127 167 205 256 314 373
#     4   9  19  36  60  87 116 153 204 260 312 375
#     4  11  23  39  63  93 127 166 213 266 315 379
#     4  11  26  46  67  98 137 169 210 273 331 388
#     4  10  20  37  62  91 123 166 212 257 318 382
#
# _framework density 19.458376000000001
#
# number of rings (size 3 to 8) (size 9 to 14) (size 15 to 20)
#    0.000    1.727    1.818    2.182    6.364    3.273 
#    4.909    0.000    0.000    0.000    0.000    2.545 
#    0.000    0.000    0.000    0.000    0.000    0.000 
#
# Total GULP energy -245263.394311 kJ/mol
# GULP energy per Si atom -5574.168053 kJ/mol
# Density = 1.941409 g / cm^3
# Si number density = 19.458376 Si / 1000 Ang^3
#
#
#
# Elastic Constant Matrix: (Units=GPa)
#
#
# Indices 1 2 3 4 5 6 
#
# 1 110.8051 31.0350 39.1657 0.0000 0.0000 0.0000
# 2 31.0350 111.9727 43.7532 0.0000 0.0000 0.0000
# 3 39.1657 43.7532 112.5311 0.0000 0.0000 0.0000
# 4 0.0000 0.0000 0.0000 22.9496 0.0000 0.0000
# 5 0.0000 0.0000 0.0000 0.0000 -9.4714 0.0000
# 6 0.0000 0.0000 0.0000 0.0000 0.0000 27.4151
#
#
#
# Elastic Compliance Matrix: (Units=1/GPa)
#
#
# Indices 1 2 3 4 5 6 
#
# 1 0.010577 -0.001761 -0.002997 0.000000 0.000000 0.000000
# 2 -0.001761 0.010824 -0.003596 0.000000 0.000000 0.000000
# 3 -0.002997 -0.003596 0.011327 0.000000 0.000000 0.000000
# 4 0.000000 0.000000 0.000000 0.043574 0.000000 0.000000
# 5 0.000000 0.000000 0.000000 0.000000 -0.105581 0.000000
# 6 0.000000 0.000000 0.000000 0.000000 0.000000 0.036476
#
#
# Mechanical properties :
#
#
# Convention : Reuss Voigt Hill
#
# Bulk Modulus (GPa) = 62.41277 62.57962 62.49620
# Shear Modulus (GPa) = 170.97544 22.93566 96.95555
#
# Velocity S-wave (km/s) = 9.38392 3.43695 7.06649
# Velocity P-wave (km/s) = 12.22928 6.92681 9.93821
#
# Compressibility (1/GPa) = 0.01602236
#
# Stress axis : x y z
#
# Youngs Moduli (GPa) = 94.54252 92.38975 88.28122
#
# Poissons Ratio (x) = 0.16267 0.26456
# Poissons Ratio (y) = 0.16646 0.31742
# Poissons Ratio (z) = 0.28332 0.33219
#
# Static dielectric constant tensor:
#      x y z
#    x 1.683810 0.000000 0.000000 
#    y 0.000000 1.706320 0.000000 
#    z 0.000000 0.000000 1.686350 
# 
# From -- ./inp_files/26743.got.cif
#   From: 2010.05.17/outbox.cif.g08.bks.cpg/sg69_14_cif.got.tgz:26743.got - 2010.06.03 19:29:58.
