data_PCOD9512827
_publ_section_title
;
Structure prediction by ZEFSAII (Michael W. Deem and Ramdas Pophale) SiO2 
 PCOD9512827
Probable space group: F M M M
;
_chemical_formula_sum "Si O2"
_cell_formula_units_Z 176
_cell_length_a 10.817750
_cell_length_b 30.583321
_cell_length_c 29.926592
_cell_angle_alpha 90.000000
_cell_angle_beta 90.000000
_cell_angle_gamma 90.000000
_cell_volume 9900.995120
_symmetry_space_group_name_H-M "F M M M"
_symmetry_group_IT_number 69
_symmetry_cell_setting 'orthorhombic'
loop_
_space_group_symop_operation_xyz
x,y,z
-x,-y,z
x,-y,-z
-x,y,-z
-x,-y,-z
x,y,-z
-x,y,z
x,-y,z
x,1/2+y,1/2+z
-x,1/2-y,1/2+z
x,1/2-y,1/2-z
-x,1/2+y,1/2-z
-x,1/2-y,1/2-z
x,1/2+y,1/2-z
-x,1/2+y,1/2+z
x,1/2-y,1/2+z
1/2+x,y,1/2+z
1/2-x,-y,1/2+z
1/2+x,-y,1/2-z
1/2-x,y,1/2-z
1/2-x,-y,1/2-z
1/2+x,y,1/2-z
1/2-x,y,1/2+z
1/2+x,-y,1/2+z
1/2+x,1/2+y,z
1/2-x,1/2-y,z
1/2+x,1/2-y,-z
1/2-x,1/2+y,-z
1/2-x,1/2-y,-z
1/2+x,1/2+y,-z
1/2-x,1/2+y,z
1/2+x,1/2-y,z
loop_
_atom_site_type_symbol
_atom_site_label
_atom_site_fract_x
_atom_site_fract_y
_atom_site_fract_z
Si Si1 0.691853 0.708395 0.582772
Si Si2 0.255607 0.132194 0.646931
Si Si3 0.870615 0.849847 0.500000
Si Si4 0.645193 0.950105 0.598249
Si Si5 0.000000 0.245815 0.653646
Si Si6 0.000000 0.657699 0.302501
Si Si7 0.000000 0.655410 0.803339
Si Si8 0.640748 0.414870 0.000000
O O1 0.750000 0.750000 0.558404
O O2 0.765788 0.671754 0.610874
O O3 0.630108 0.679810 0.544263
O O4 0.612766 0.734057 0.620532
O O5 0.271034 0.086123 0.621983
O O6 0.373247 0.137286 0.678959
O O7 0.124178 0.137653 0.672194
O O8 0.747030 0.878525 0.500000
O O9 0.000000 0.875989 0.500000
O O10 0.500000 0.942547 0.609973
O O11 0.653590 0.942799 0.545007
O O12 0.676468 0.000000 0.609675
O O13 0.000000 0.292264 0.678170
O O14 0.000000 0.207643 0.689917
O O15 0.000000 0.649997 0.249556
O O16 0.500000 0.396203 0.000000
#
# Coordination Sequence:
#
# PCOD9512827 Si02
#       8
#    32  32  16  32  16  16  16  16
#     4  11  21  37  53  84 121 163 203 241 287 349
#     4  11  22  38  63  87 119 158 195 248 306 364
#     4  12  23  36  58  80 127 170 197 234 291 348
#     4  10  20  38  65  94 122 155 201 251 299 351
#     4  10  21  37  58  84 119 159 207 244 300 347
#     4  12  21  40  64  85 116 153 209 253 298 362
#     4  10  25  38  58  91 123 153 191 253 314 362
#     4  10  21  37  61  93 120 156 203 253 293 339
#
# _framework density 17.77599
#
# number of rings (size 3 to 8) (size 9 to 14) (size 15 to 20)
#    0.000    1.273    5.455    1.364    0.000    1.091 
#    1.636    2.273    0.000    3.818    0.000    0.000 
#    0.000    0.000    0.000    0.000    0.000    0.000 
#
# Total GULP energy -245063.823811 kJ/mol
# GULP energy per Si atom -5569.632359 kJ/mol
# Density = 1.773553 g / cm^3
# Si number density = 17.775990 Si / 1000 Ang^3
#
#
#
# Elastic Constant Matrix: (Units=GPa)
#
#
# Indices 1 2 3 4 5 6 
#
# 1 101.3891 46.7864 32.2641 0.0000 0.0000 0.0000
# 2 46.7864 117.9701 33.0127 0.0000 0.0000 0.0000
# 3 32.2641 33.0127 94.3632 0.0000 0.0000 0.0000
# 4 0.0000 0.0000 0.0000 5.5450 0.0000 0.0000
# 5 0.0000 0.0000 0.0000 0.0000 41.0083 0.0000
# 6 0.0000 0.0000 0.0000 0.0000 0.0000 21.4344
#
#
#
# Elastic Compliance Matrix: (Units=1/GPa)
#
#
# Indices 1 2 3 4 5 6 
#
# 1 0.012736 -0.004248 -0.002868 0.000000 0.000000 0.000000
# 2 -0.004248 0.010814 -0.002331 0.000000 0.000000 0.000000
# 3 -0.002868 -0.002331 0.012393 0.000000 0.000000 0.000000
# 4 0.000000 0.000000 0.000000 0.180342 0.000000 0.000000
# 5 0.000000 0.000000 0.000000 0.000000 0.024385 0.000000
# 6 0.000000 0.000000 0.000000 0.000000 0.000000 0.046654
#
#
# Mechanical properties :
#
#
# Convention : Reuss Voigt Hill
#
# Bulk Modulus (GPa) = 58.65563 59.76100 59.20831
# Shear Modulus (GPa) = 16.03066 27.04148 21.53607
#
# Velocity S-wave (km/s) = 3.00628 3.90453 3.48447
# Velocity P-wave (km/s) = 6.71707 7.34977 7.04053
#
# Compressibility (1/GPa) = 0.01704866
#
# Stress axis : x y z
#
# Youngs Moduli (GPa) = 78.51613 92.47414 80.68776
#
# Poissons Ratio (x) = 0.39287 0.23144
# Poissons Ratio (y) = 0.33357 0.18805
# Poissons Ratio (z) = 0.22522 0.21552
#
# Static dielectric constant tensor:
#      x y z
#    x 1.683240 0.000000 0.000000 
#    y 0.000000 1.591720 0.000000 
#    z 0.000000 0.000000 1.603510 
# 
# From -- ./inp_files/40521.got.cif
#   From: 2010.05.17/outbox.cif.g08.bks.cpg/sg69_21_cif.got.tgz:40521.got - 2010.06.03 19:29:58.
