data_PCOD9512001
_publ_section_title
;
Structure prediction by ZEFSAII (Michael W. Deem and Ramdas Pophale) SiO2 
 PCOD9512001
Probable space group: F M M M
;
_chemical_formula_sum "Si O2"
_cell_formula_units_Z 160
_cell_length_a 19.623209
_cell_length_b 14.714411
_cell_length_c 31.294530
_cell_angle_alpha 90.000000
_cell_angle_beta 90.000000
_cell_angle_gamma 90.000000
_cell_volume 9036.106593
_symmetry_space_group_name_H-M "F M M M"
_symmetry_group_IT_number 69
_symmetry_cell_setting 'orthorhombic'
loop_
_space_group_symop_operation_xyz
x,y,z
-x,-y,z
x,-y,-z
-x,y,-z
-x,-y,-z
x,y,-z
-x,y,z
x,-y,z
x,1/2+y,1/2+z
-x,1/2-y,1/2+z
x,1/2-y,1/2-z
-x,1/2+y,1/2-z
-x,1/2-y,1/2-z
x,1/2+y,1/2-z
-x,1/2+y,1/2+z
x,1/2-y,1/2+z
1/2+x,y,1/2+z
1/2-x,-y,1/2+z
1/2+x,-y,1/2-z
1/2-x,y,1/2-z
1/2-x,-y,1/2-z
1/2+x,y,1/2-z
1/2-x,y,1/2+z
1/2+x,-y,1/2+z
1/2+x,1/2+y,z
1/2-x,1/2-y,z
1/2+x,1/2-y,-z
1/2-x,1/2+y,-z
1/2-x,1/2-y,-z
1/2+x,1/2+y,-z
1/2-x,1/2+y,z
1/2+x,1/2-y,z
loop_
_atom_site_type_symbol
_atom_site_label
_atom_site_fract_x
_atom_site_fract_y
_atom_site_fract_z
Si Si1 0.680581 0.810324 0.359833
Si Si2 0.830429 0.270902 0.545838
Si Si3 0.703103 0.000000 0.686553
Si Si4 0.420504 0.603216 0.428990
Si Si5 0.857068 0.500000 0.778124
Si Si6 0.920794 0.161678 0.669513
O O1 0.750000 0.750000 0.359398
O O2 0.656955 0.820391 0.409187
O O3 0.625430 0.751292 0.333783
O O4 0.692566 0.908246 0.339936
O O5 0.847954 0.314644 0.500000
O O6 0.750000 0.250000 0.545220
O O7 0.872112 0.177116 0.549926
O O8 0.780953 0.000000 0.702619
O O9 0.653330 0.000000 0.727443
O O10 0.500000 0.618593 0.439932
O O11 0.402591 0.500000 0.440313
O O12 0.414409 0.615673 0.377635
O O13 0.894586 0.410711 0.796037
O O14 0.000000 0.182800 0.676422
#
# Coordination Sequence:
#
# PCOD9512001 Si02
#       6
#    32  32  16  32  16  32
#     4  10  20  39  60  79 115 154 190 234 284 340
#     4   9  19  34  51  77 114 151 188 228 275 337
#     4  11  24  38  57  86 110 149 199 234 275 334
#     4   9  17  30  55  86 115 146 181 227 289 350
#     4  11  21  36  58  88 117 142 188 244 280 336
#     4  10  19  35  59  87 116 152 188 230 292 342
#
# _framework density 17.706741000000001
#
# number of rings (size 3 to 8) (size 9 to 14) (size 15 to 20)
#    0.000    2.200    3.000    0.300    0.000    1.600 
#    0.000    5.000    0.000    0.000    0.000    0.000 
#    0.000    6.400    0.000    0.000    0.000    0.000 
#
# Total GULP energy -223076.999971 kJ/mol
# GULP energy per Si atom -5576.924999 kJ/mol
# Density = 1.766644 g / cm^3
# Si number density = 17.706741 Si / 1000 Ang^3
#
#
#
# Elastic Constant Matrix: (Units=GPa)
#
#
# Indices 1 2 3 4 5 6 
#
# 1 80.5796 44.7280 31.6504 0.0000 0.0000 0.0000
# 2 44.7280 114.7910 66.6475 0.0000 0.0000 0.0000
# 3 31.6504 66.6475 104.9521 0.0000 0.0000 0.0000
# 4 0.0000 0.0000 0.0000 -10.6068 0.0000 0.0000
# 5 0.0000 0.0000 0.0000 0.0000 48.5798 0.0000
# 6 0.0000 0.0000 0.0000 0.0000 0.0000 32.4082
#
#
#
# Elastic Compliance Matrix: (Units=1/GPa)
#
#
# Indices 1 2 3 4 5 6 
#
# 1 0.015958 -0.005424 -0.001368 0.000000 0.000000 0.000000
# 2 -0.005424 0.015642 -0.008298 0.000000 0.000000 0.000000
# 3 -0.001368 -0.008298 0.015210 0.000000 0.000000 0.000000
# 4 0.000000 0.000000 0.000000 -0.094279 0.000000 0.000000
# 5 0.000000 0.000000 0.000000 0.000000 0.020585 0.000000
# 6 0.000000 0.000000 0.000000 0.000000 0.000000 0.030856
#
#
# Mechanical properties :
#
#
# Convention : Reuss Voigt Hill
#
# Bulk Modulus (GPa) = 60.12792 65.15274 62.64033
# Shear Modulus (GPa) = 125.95697 24.56271 75.25984
#
# Velocity S-wave (km/s) = 8.44331 3.72855 6.52654
# Velocity P-wave (km/s) = 11.36151 7.44388 9.60457
#
# Compressibility (1/GPa) = 0.01663121
#
# Stress axis : x y z
#
# Youngs Moduli (GPa) = 62.66431 63.92865 65.74560
#
# Poissons Ratio (x) = 0.34672 0.08996
# Poissons Ratio (y) = 0.33986 0.54554
# Poissons Ratio (z) = 0.08575 0.53047
#
# Static dielectric constant tensor:
#      x y z
#    x 1.594310 0.000000 0.000000 
#    y 0.000000 1.557690 0.000000 
#    z 0.000000 0.000000 1.637950 
# 
# From -- ./inp_files/27482.got.cif
#   From: 2010.05.17/outbox.cif.g08.bks.cpg/sg69_14_cif.got.tgz:27482.got - 2010.06.03 19:29:58.
