data_PCOD9512332
_publ_section_title
;
Structure prediction by ZEFSAII (Michael W. Deem and Ramdas Pophale) SiO2 
 PCOD9512332
Probable space group: F M M M
;
_chemical_formula_sum "Si O2"
_cell_formula_units_Z 160
_cell_length_a 14.396835
_cell_length_b 24.263720
_cell_length_c 20.885997
_cell_angle_alpha 90.000000
_cell_angle_beta 90.000000
_cell_angle_gamma 90.000000
_cell_volume 7295.912624
_symmetry_space_group_name_H-M "F M M M"
_symmetry_group_IT_number 69
_symmetry_cell_setting 'orthorhombic'
loop_
_space_group_symop_operation_xyz
x,y,z
-x,-y,z
x,-y,-z
-x,y,-z
-x,-y,-z
x,y,-z
-x,y,z
x,-y,z
x,1/2+y,1/2+z
-x,1/2-y,1/2+z
x,1/2-y,1/2-z
-x,1/2+y,1/2-z
-x,1/2-y,1/2-z
x,1/2+y,1/2-z
-x,1/2+y,1/2+z
x,1/2-y,1/2+z
1/2+x,y,1/2+z
1/2-x,-y,1/2+z
1/2+x,-y,1/2-z
1/2-x,y,1/2-z
1/2-x,-y,1/2-z
1/2+x,y,1/2-z
1/2-x,y,1/2+z
1/2+x,-y,1/2+z
1/2+x,1/2+y,z
1/2-x,1/2-y,z
1/2+x,1/2-y,-z
1/2-x,1/2+y,-z
1/2-x,1/2-y,-z
1/2+x,1/2+y,-z
1/2-x,1/2+y,z
1/2+x,1/2-y,z
loop_
_atom_site_type_symbol
_atom_site_label
_atom_site_fract_x
_atom_site_fract_y
_atom_site_fract_z
Si Si1 0.718889 0.563499 0.395740
Si Si2 0.604474 0.938146 0.231653
Si Si3 0.888557 0.832213 0.568901
Si Si4 0.387309 0.248528 0.676208
Si Si5 0.392973 0.373059 0.138945
O O1 0.714299 0.500000 0.416138
O O2 0.682226 0.565754 0.322115
O O3 0.651351 0.606458 0.429481
O O4 0.821456 0.588998 0.398970
O O5 0.500000 0.932994 0.202644
O O6 0.610843 0.894156 0.287544
O O7 0.610030 0.000000 0.260194
O O8 0.863081 0.806366 0.500000
O O9 0.855446 0.798284 0.630919
O O10 0.000000 0.833869 0.572188
O O11 0.500000 0.251122 0.678759
O O12 0.355596 0.250000 0.750000
O O13 0.365351 0.190766 0.642027
O O14 0.500000 0.378104 0.117658
#
# Coordination Sequence:
#
# PCOD9512332 Si02
#       5
#    32  32  32  32  32
#     4  11  22  35  54  82 116 155 201 248 296 355
#     4   9  17  30  50  79 117 157 196 244 302 357
#     4  10  22  41  64  89 117 149 189 243 306 366
#     4   9  18  35  60  88 119 156 198 246 300 358
#     4  10  20  34  53  80 116 157 200 246 297 354
#
# _framework density 21.930088000000001
#
# number of rings (size 3 to 8) (size 9 to 14) (size 15 to 20)
#    0.000    2.200    0.000    3.000    0.000    8.400 
#    0.000    4.000    0.000    1.800    0.000    1.400 
#    0.000    0.000    0.000    0.000    0.000    4.200 
#
# Total GULP energy -223470.369913 kJ/mol
# GULP energy per Si atom -5586.759248 kJ/mol
# Density = 2.188017 g / cm^3
# Si number density = 21.930088 Si / 1000 Ang^3
#
#
#
# Elastic Constant Matrix: (Units=GPa)
#
#
# Indices 1 2 3 4 5 6 
#
# 1 89.1343 24.5313 10.4485 0.0000 0.0000 0.0000
# 2 24.5313 138.0058 44.7172 0.0000 0.0000 0.0000
# 3 10.4485 44.7172 78.6863 0.0000 0.0000 0.0000
# 4 0.0000 0.0000 0.0000 0.5075 0.0000 0.0000
# 5 0.0000 0.0000 0.0000 0.0000 3.0154 0.0000
# 6 0.0000 0.0000 0.0000 0.0000 0.0000 7.9779
#
#
#
# Elastic Compliance Matrix: (Units=1/GPa)
#
#
# Indices 1 2 3 4 5 6 
#
# 1 0.011810 -0.001950 -0.000460 0.000000 0.000000 0.000000
# 2 -0.001950 0.009204 -0.004971 0.000000 0.000000 0.000000
# 3 -0.000460 -0.004971 0.015595 0.000000 0.000000 0.000000
# 4 0.000000 0.000000 0.000000 1.970429 0.000000 0.000000
# 5 0.000000 0.000000 0.000000 0.000000 0.331635 0.000000
# 6 0.000000 0.000000 0.000000 0.000000 0.000000 0.125347
#
#
# Mechanical properties :
#
#
# Convention : Reuss Voigt Hill
#
# Bulk Modulus (GPa) = 45.77651 51.69116 48.73383
# Shear Modulus (GPa) = 2.01121 17.37544 9.69333
#
# Velocity S-wave (km/s) = 0.95869 2.81785 2.10469
# Velocity P-wave (km/s) = 4.70581 5.84886 5.30819
#
# Compressibility (1/GPa) = 0.02184526
#
# Stress axis : x y z
#
# Youngs Moduli (GPa) = 84.67639 108.65320 64.12312
#
# Poissons Ratio (x) = 0.21190 0.02949
# Poissons Ratio (y) = 0.16514 0.31878
# Poissons Ratio (z) = 0.03894 0.54016
#
# Static dielectric constant tensor:
#      x y z
#    x 1.827070 0.000000 0.000000 
#    y 0.000000 1.783870 0.000000 
#    z 0.000000 0.000000 1.798510 
# 
# From -- ./inp_files/35835.got.cif
#   From: 2010.05.17/outbox.cif.g08.bks.cpg/sg69_18_cif.got.tgz:35835.got - 2010.06.03 19:29:58.
