data_PCOD9512147
_publ_section_title
;
Structure prediction by ZEFSAII (Michael W. Deem and Ramdas Pophale) SiO2 
 PCOD9512147
Probable space group: F M M M
;
_chemical_formula_sum "Si O2"
_cell_formula_units_Z 96
_cell_length_a 13.884395
_cell_length_b 9.779960
_cell_length_c 29.394413
_cell_angle_alpha 90.000000
_cell_angle_beta 90.000000
_cell_angle_gamma 90.000000
_cell_volume 3991.432883
_symmetry_space_group_name_H-M "F M M M"
_symmetry_group_IT_number 69
_symmetry_cell_setting 'orthorhombic'
loop_
_space_group_symop_operation_xyz
x,y,z
-x,-y,z
x,-y,-z
-x,y,-z
-x,-y,-z
x,y,-z
-x,y,z
x,-y,z
x,1/2+y,1/2+z
-x,1/2-y,1/2+z
x,1/2-y,1/2-z
-x,1/2+y,1/2-z
-x,1/2-y,1/2-z
x,1/2+y,1/2-z
-x,1/2+y,1/2+z
x,1/2-y,1/2+z
1/2+x,y,1/2+z
1/2-x,-y,1/2+z
1/2+x,-y,1/2-z
1/2-x,y,1/2-z
1/2-x,-y,1/2-z
1/2+x,y,1/2-z
1/2-x,y,1/2+z
1/2+x,-y,1/2+z
1/2+x,1/2+y,z
1/2-x,1/2-y,z
1/2+x,1/2-y,-z
1/2-x,1/2+y,-z
1/2-x,1/2-y,-z
1/2+x,1/2+y,-z
1/2-x,1/2+y,z
1/2+x,1/2-y,z
loop_
_atom_site_type_symbol
_atom_site_label
_atom_site_fract_x
_atom_site_fract_y
_atom_site_fract_z
Si Si1 0.116787 0.842751 0.633920
Si Si2 0.653714 0.150494 0.282388
Si Si3 0.382811 0.653473 0.947648
O O1 0.154183 0.734857 0.671000
O O2 0.143895 0.777892 0.585314
O O3 0.000000 0.845022 0.636854
O O4 0.150254 0.000000 0.641292
O O5 0.595144 0.250000 0.250000
O O6 0.750000 0.130401 0.250000
O O7 0.616363 0.000000 0.291044
O O8 0.500000 0.651026 0.947302
O O9 0.351973 0.500000 0.932558
O O10 0.353157 0.672581 0.000000
#
# Coordination Sequence:
#
# PCOD9512147 Si02
#       3
#    32  32  32
#     4  10  20  32  49  77 111 145 181 222 268 317
#     4  10  21  37  56  76  99 133 178 225 274 327
#     4   8  14  26  45  70 103 143 182 219 262 311
#
# _framework density 24.051514000000001
#
# number of rings (size 3 to 8) (size 9 to 14) (size 15 to 20)
#    0.000    2.667    0.000    3.000    0.000    5.333 
#    0.000    3.333    0.000    0.000    0.000    4.667 
#    0.000    2.667    0.000    0.000    0.000    0.333 
#
# Total GULP energy -133722.607798 kJ/mol
# GULP energy per Si atom -5571.775325 kJ/mol
# Density = 2.399677 g / cm^3
# Si number density = 24.051514 Si / 1000 Ang^3
#
#
#
# Elastic Constant Matrix: (Units=GPa)
#
#
# Indices 1 2 3 4 5 6 
#
# 1 100.5927 21.0370 -3.5553 0.0000 0.0000 0.0000
# 2 21.0370 296.4771 106.4774 0.0000 0.0000 0.0000
# 3 -3.5553 106.4774 142.2775 0.0000 0.0000 0.0000
# 4 0.0000 0.0000 0.0000 44.8470 0.0000 0.0000
# 5 0.0000 0.0000 0.0000 0.0000 17.6097 0.0000
# 6 0.0000 0.0000 0.0000 0.0000 0.0000 -35.1710
#
#
#
# Elastic Compliance Matrix: (Units=1/GPa)
#
#
# Indices 1 2 3 4 5 6 
#
# 1 0.010213 -0.001116 0.001091 0.000000 0.000000 0.000000
# 2 -0.001116 0.004735 -0.003571 0.000000 0.000000 0.000000
# 3 0.001091 -0.003571 0.009728 0.000000 0.000000 0.000000
# 4 0.000000 0.000000 0.000000 0.022298 0.000000 0.000000
# 5 0.000000 0.000000 0.000000 0.000000 0.056787 0.000000
# 6 0.000000 0.000000 0.000000 0.000000 0.000000 -0.028432
#
#
# Mechanical properties :
#
#
# Convention : Reuss Voigt Hill
#
# Bulk Modulus (GPa) = 57.20060 87.47395 72.33727
# Shear Modulus (GPa) = 56.59292 33.14967 44.87129
#
# Velocity S-wave (km/s) = 4.85602 3.71654 4.32398
# Velocity P-wave (km/s) = 7.43475 7.40711 7.42094
#
# Compressibility (1/GPa) = 0.01748233
#
# Stress axis : x y z
#
# Youngs Moduli (GPa) = 97.91339 211.20400 102.79132
#
# Poissons Ratio (x) = 0.23579 -0.11211
# Poissons Ratio (y) = 0.10931 0.36710
# Poissons Ratio (z) = -0.10679 0.75427
#
# Static dielectric constant tensor:
#      x y z
#    x 2.101920 0.000000 0.000000 
#    y 0.000000 1.994770 0.000000 
#    z 0.000000 0.000000 1.981700 
# 
# From -- ./inp_files/41447.got.cif
#   From: 2010.05.17/outbox.cif.g08.bks.cpg/sg69_21_cif.got.tgz:41447.got - 2010.06.03 19:29:58.
