data_PCOD9512381
_publ_section_title
;
Structure prediction by ZEFSAII (Michael W. Deem and Ramdas Pophale) SiO2 
 PCOD9512381
Probable space group: F M M M
;
_chemical_formula_sum "Si O2"
_cell_formula_units_Z 160
_cell_length_a 18.951106
_cell_length_b 29.965882
_cell_length_c 15.019515
_cell_angle_alpha 90.000000
_cell_angle_beta 90.000000
_cell_angle_gamma 90.000000
_cell_volume 8529.381400
_symmetry_space_group_name_H-M "F M M M"
_symmetry_group_IT_number 69
_symmetry_cell_setting 'orthorhombic'
loop_
_space_group_symop_operation_xyz
x,y,z
-x,-y,z
x,-y,-z
-x,y,-z
-x,-y,-z
x,y,-z
-x,y,z
x,-y,z
x,1/2+y,1/2+z
-x,1/2-y,1/2+z
x,1/2-y,1/2-z
-x,1/2+y,1/2-z
-x,1/2-y,1/2-z
x,1/2+y,1/2-z
-x,1/2+y,1/2+z
x,1/2-y,1/2+z
1/2+x,y,1/2+z
1/2-x,-y,1/2+z
1/2+x,-y,1/2-z
1/2-x,y,1/2-z
1/2-x,-y,1/2-z
1/2+x,y,1/2-z
1/2-x,y,1/2+z
1/2+x,-y,1/2+z
1/2+x,1/2+y,z
1/2-x,1/2-y,z
1/2+x,1/2-y,-z
1/2-x,1/2+y,-z
1/2-x,1/2-y,-z
1/2+x,1/2+y,-z
1/2-x,1/2+y,z
1/2+x,1/2-y,z
loop_
_atom_site_type_symbol
_atom_site_label
_atom_site_fract_x
_atom_site_fract_y
_atom_site_fract_z
Si Si1 0.228368 0.142514 0.500000
Si Si2 0.847227 0.949399 0.824203
Si Si3 0.418740 0.220617 0.339130
Si Si4 0.749058 0.047441 0.000000
Si Si5 0.690896 0.146292 0.312841
Si Si6 0.167582 0.764571 0.500000
Si Si7 0.500000 0.053376 0.598807
O O1 0.201910 0.091482 0.500000
O O2 0.276769 0.146381 0.587864
O O3 0.171486 0.181691 0.500000
O O4 0.821829 0.904189 0.777106
O O5 0.927428 0.938202 0.850949
O O6 0.842961 0.000000 0.784383
O O7 0.800489 0.951546 0.914292
O O8 0.500000 0.214693 0.367805
O O9 0.417993 0.250000 0.250000
O O10 0.380477 0.174155 0.316892
O O11 0.372545 0.245043 0.414555
O O12 0.710710 0.000000 0.000000
O O13 0.750000 0.168126 0.250000
O O14 0.250000 0.750000 0.500000
O O15 0.500000 0.074049 0.500000
O O16 0.500000 0.000000 0.588020
#
# Coordination Sequence:
#
# PCOD9512381 Si02
#       7
#    16  32  32  16  32  16  16
#     4  10  20  34  55  86 104 147 193 218 282 337
#     4   9  17  28  45  73 109 146 185 225 271 331
#     4  11  25  41  59  85 116 149 187 240 293 342
#     4   8  14  27  44  70 110 141 174 225 267 321
#     4  11  22  36  56  81 111 150 191 232 283 342
#     4  12  21  38  63  86 115 152 191 237 283 345
#     4   9  14  24  44  72 105 149 185 215 274 342
#
# _framework density 18.758686999999998
#
# number of rings (size 3 to 8) (size 9 to 14) (size 15 to 20)
#    0.000    1.900    3.000    1.500    1.400    0.400 
#    0.000    0.000    0.000    0.000    0.000    0.000 
#    0.000    1.600    0.000    1.200    0.000    0.000 
#
# Total GULP energy -222927.842256 kJ/mol
# GULP energy per Si atom -5573.196056 kJ/mol
# Density = 1.871599 g / cm^3
# Si number density = 18.758687 Si / 1000 Ang^3
#
#
#
# Elastic Constant Matrix: (Units=GPa)
#
#
# Indices 1 2 3 4 5 6 
#
# 1 122.5814 54.0128 31.0561 0.0000 0.0000 0.0000
# 2 54.0128 146.0196 9.4447 0.0000 0.0000 0.0000
# 3 31.0561 9.4447 50.2101 0.0000 0.0000 0.0000
# 4 0.0000 0.0000 0.0000 7.0094 0.0000 0.0000
# 5 0.0000 0.0000 0.0000 0.0000 65.2137 0.0000
# 6 0.0000 0.0000 0.0000 0.0000 0.0000 26.5237
#
#
#
# Elastic Compliance Matrix: (Units=1/GPa)
#
#
# Indices 1 2 3 4 5 6 
#
# 1 0.011457 -0.003826 -0.006367 0.000000 0.000000 0.000000
# 2 -0.003826 0.008210 0.000822 0.000000 0.000000 0.000000
# 3 -0.006367 0.000822 0.023700 0.000000 0.000000 0.000000
# 4 0.000000 0.000000 0.000000 0.142665 0.000000 0.000000
# 5 0.000000 0.000000 0.000000 0.000000 0.015334 0.000000
# 6 0.000000 0.000000 0.000000 0.000000 0.000000 0.037702
#
#
# Mechanical properties :
#
#
# Convention : Reuss Voigt Hill
#
# Bulk Modulus (GPa) = 40.60798 56.42648 48.51723
# Shear Modulus (GPa) = 18.79577 34.70253 26.74915
#
# Velocity S-wave (km/s) = 3.16884 4.30576 3.78029
# Velocity P-wave (km/s) = 5.92311 7.40709 6.70627
#
# Compressibility (1/GPa) = 0.02462570
#
# Stress axis : x y z
#
# Youngs Moduli (GPa) = 87.28531 121.79558 42.19488
#
# Poissons Ratio (x) = 0.46600 0.26864
# Poissons Ratio (y) = 0.33396 -0.03469
# Poissons Ratio (z) = 0.55571 -0.10013
#
# Static dielectric constant tensor:
#      x y z
#    x 1.543700 0.000000 0.000000 
#    y 0.000000 1.728710 0.000000 
#    z 0.000000 0.000000 1.639710 
# 
# From -- ./inp_files/15744.got.cif
#   From: 2010.05.17/outbox.cif.g08.bks.cpg/sg69_8_cif.got.tgz:15744.got - 2010.06.03 19:29:58.
