data_PCOD9512304
_publ_section_title
;
Structure prediction by ZEFSAII (Michael W. Deem and Ramdas Pophale) SiO2 
 PCOD9512304
Probable space group: F M M M
;
_chemical_formula_sum "Si O2"
_cell_formula_units_Z 160
_cell_length_a 30.626238
_cell_length_b 8.958343
_cell_length_c 30.286245
_cell_angle_alpha 90.000000
_cell_angle_beta 90.000000
_cell_angle_gamma 90.000000
_cell_volume 8309.344621
_symmetry_space_group_name_H-M "F M M M"
_symmetry_group_IT_number 69
_symmetry_cell_setting 'orthorhombic'
loop_
_space_group_symop_operation_xyz
x,y,z
-x,-y,z
x,-y,-z
-x,y,-z
-x,-y,-z
x,y,-z
-x,y,z
x,-y,z
x,1/2+y,1/2+z
-x,1/2-y,1/2+z
x,1/2-y,1/2-z
-x,1/2+y,1/2-z
-x,1/2-y,1/2-z
x,1/2+y,1/2-z
-x,1/2+y,1/2+z
x,1/2-y,1/2+z
1/2+x,y,1/2+z
1/2-x,-y,1/2+z
1/2+x,-y,1/2-z
1/2-x,y,1/2-z
1/2-x,-y,1/2-z
1/2+x,y,1/2-z
1/2-x,y,1/2+z
1/2+x,-y,1/2+z
1/2+x,1/2+y,z
1/2-x,1/2-y,z
1/2+x,1/2-y,-z
1/2-x,1/2+y,-z
1/2-x,1/2-y,-z
1/2+x,1/2+y,-z
1/2-x,1/2+y,z
1/2+x,1/2-y,z
loop_
_atom_site_type_symbol
_atom_site_label
_atom_site_fract_x
_atom_site_fract_y
_atom_site_fract_z
Si Si1 0.050635 0.818058 0.000000
Si Si2 0.000000 0.177542 0.298100
Si Si3 0.412259 0.171304 0.325226
Si Si4 0.381025 0.329009 0.926012
Si Si5 0.675249 0.678766 0.705324
Si Si6 0.704688 0.322133 0.393978
O O1 0.080438 0.773743 0.041921
O O2 0.000000 0.765785 0.000000
O O3 0.048247 0.000000 0.000000
O O4 0.000000 0.250000 0.250000
O O5 0.956766 0.239585 0.320834
O O6 0.000000 0.000000 0.296042
O O7 0.399289 0.167582 0.376423
O O8 0.373451 0.254843 0.299906
O O9 0.416714 0.000000 0.309308
O O10 0.370513 0.500000 0.939114
O O11 0.336485 0.236118 0.922146
O O12 0.674561 0.500000 0.709347
O O13 0.694550 0.750000 0.750000
O O14 0.697333 0.718102 0.658184
O O15 0.706709 0.500000 0.396379
O O16 0.750000 0.250000 0.408540
#
# Coordination Sequence:
#
# PCOD9512304 Si02
#       6
#    16  16  32  32  32  32
#     4   9  18  34  62  95 122 147 182 229 276 333
#     4  12  24  36  50  71 102 141 187 236 279 328
#     4  10  20  34  53  76 105 143 185 229 278 333
#     4   9  19  36  60  87 116 148 184 228 278 336
#     4  10  20  34  52  76 108 146 186 233 282 331
#     4  10  21  37  58  82 113 150 191 236 284 337
#
# _framework density 19.25543
#
# number of rings (size 3 to 8) (size 9 to 14) (size 15 to 20)
#    0.000    2.100    0.000    3.300    1.400    3.600 
#    0.000    3.000    0.000    0.600    0.000    0.000 
#    0.000    0.000    0.000    0.000    0.000    0.000 
#
# Total GULP energy -223244.889238 kJ/mol
# GULP energy per Si atom -5581.122231 kJ/mol
# Density = 1.921160 g / cm^3
# Si number density = 19.255430 Si / 1000 Ang^3
#
#
#
# Elastic Constant Matrix: (Units=GPa)
#
#
# Indices 1 2 3 4 5 6 
#
# 1 163.3248 53.1054 36.2047 0.0000 0.0000 -0.0002
# 2 53.1054 71.1654 14.3644 0.0000 0.0000 -0.0003
# 3 36.2047 14.3644 68.5934 0.0000 0.0000 0.0000
# 4 0.0000 0.0000 0.0000 13.9991 0.0000 0.0000
# 5 0.0000 0.0000 0.0000 0.0000 6.2830 0.0000
# 6 -0.0002 -0.0003 0.0000 0.0000 0.0000 26.8681
#
#
#
# Elastic Compliance Matrix: (Units=1/GPa)
#
#
# Indices 1 2 3 4 5 6 
#
# 1 0.008787 -0.005869 -0.003409 0.000000 0.000000 0.000000
# 2 -0.005869 0.018592 -0.000796 0.000000 0.000000 0.000000
# 3 -0.003409 -0.000796 0.016544 0.000000 0.000000 0.000000
# 4 0.000000 0.000000 0.000000 0.071433 0.000000 0.000000
# 5 0.000000 0.000000 0.000000 0.000000 0.159159 0.000000
# 6 0.000000 0.000000 0.000000 0.000000 0.000000 0.037219
#
#
# Mechanical properties :
#
#
# Convention : Reuss Voigt Hill
#
# Bulk Modulus (GPa) = 42.05848 56.71475 49.38661
# Shear Modulus (GPa) = 14.71430 22.72399 18.71915
#
# Velocity S-wave (km/s) = 2.76735 3.43904 3.12131
# Velocity P-wave (km/s) = 5.66576 6.72957 6.22045
#
# Compressibility (1/GPa) = 0.02377642
#
# Stress axis : x y z
#
# Youngs Moduli (GPa) = 113.80929 53.78715 60.44313
#
# Poissons Ratio (x) = 0.31566 0.20603
# Poissons Ratio (y) = 0.66792 0.04810
# Poissons Ratio (z) = 0.38794 0.04280
#
# Static dielectric constant tensor:
#      x y z
#    x 1.654170 0.000000 0.000000 
#    y 0.000000 1.654360 0.000000 
#    z 0.000000 0.000000 1.671090 
# 
# From -- ./inp_files/5753.got.cif
#   From: 2010.05.17/outbox.cif.g08.bks.cpg/sg69_3_cif.got.tgz:5753.got - 2010.06.03 19:29:58.
