data_PCOD9512504
_publ_section_title
;
Structure prediction by ZEFSAII (Michael W. Deem and Ramdas Pophale) SiO2 
 PCOD9512504
Probable space group: F M M M
;
_chemical_formula_sum "Si O2"
_cell_formula_units_Z 160
_cell_length_a 24.607825
_cell_length_b 24.104346
_cell_length_c 14.869002
_cell_angle_alpha 90.000000
_cell_angle_beta 90.000000
_cell_angle_gamma 90.000000
_cell_volume 8819.630734
_symmetry_space_group_name_H-M "F M M M"
_symmetry_group_IT_number 69
_symmetry_cell_setting 'orthorhombic'
loop_
_space_group_symop_operation_xyz
x,y,z
-x,-y,z
x,-y,-z
-x,y,-z
-x,-y,-z
x,y,-z
-x,y,z
x,-y,z
x,1/2+y,1/2+z
-x,1/2-y,1/2+z
x,1/2-y,1/2-z
-x,1/2+y,1/2-z
-x,1/2-y,1/2-z
x,1/2+y,1/2-z
-x,1/2+y,1/2+z
x,1/2-y,1/2+z
1/2+x,y,1/2+z
1/2-x,-y,1/2+z
1/2+x,-y,1/2-z
1/2-x,y,1/2-z
1/2-x,-y,1/2-z
1/2+x,y,1/2-z
1/2-x,y,1/2+z
1/2+x,-y,1/2+z
1/2+x,1/2+y,z
1/2-x,1/2-y,z
1/2+x,1/2-y,-z
1/2-x,1/2+y,-z
1/2-x,1/2-y,-z
1/2+x,1/2+y,-z
1/2-x,1/2+y,z
1/2+x,1/2-y,z
loop_
_atom_site_type_symbol
_atom_site_label
_atom_site_fract_x
_atom_site_fract_y
_atom_site_fract_z
Si Si1 0.883284 0.564748 0.598134
Si Si2 0.500000 0.432733 0.185252
Si Si3 0.809260 0.776605 0.100734
Si Si4 0.114066 0.329045 0.102842
Si Si5 0.500000 0.186384 0.203986
Si Si6 0.685959 0.372853 0.241371
O O1 0.874159 0.590792 0.500000
O O2 0.874009 0.500000 0.590266
O O3 0.945522 0.572219 0.627329
O O4 0.844401 0.585243 0.676223
O O5 0.500000 0.500000 0.219769
O O6 0.500000 0.374095 0.242504
O O7 0.750000 0.750000 0.112726
O O8 0.854221 0.729169 0.100529
O O9 0.819027 0.816151 0.184472
O O10 0.808539 0.802352 0.000000
O O11 0.055261 0.318510 0.146219
O O12 0.152454 0.366961 0.166241
O O13 0.109622 0.349606 0.000000
O O14 0.500000 0.250000 0.250000
O O15 0.750000 0.384585 0.250000
#
# Coordination Sequence:
#
# PCOD9512504 Si02
#       6
#    32  16  32  32  16  32
#     4  10  22  41  64  91 121 154 201 260 316 371
#     4  10  21  41  69  94 120 160 206 257 316 386
#     4  10  20  35  56  85 120 158 202 247 300 365
#     4  11  24  39  57  87 128 167 202 253 308 370
#     4  12  23  42  67  91 127 166 207 264 319 373
#     4  12  22  35  61  87 121 161 208 251 300 370
#
# _framework density 18.141349000000002
#
# number of rings (size 3 to 8) (size 9 to 14) (size 15 to 20)
#    0.000    1.200    4.000    3.000    0.000    2.400 
#    0.000    1.000    0.000    3.000    0.000    0.000 
#    0.000    0.000    0.000    0.000    0.000    0.000 
#
# Total GULP energy -222770.238220 kJ/mol
# GULP energy per Si atom -5569.255956 kJ/mol
# Density = 1.810006 g / cm^3
# Si number density = 18.141349 Si / 1000 Ang^3
#
#
#
# Elastic Constant Matrix: (Units=GPa)
#
#
# Indices 1 2 3 4 5 6 
#
# 1 146.4860 40.0279 74.1427 0.0000 0.0000 0.0000
# 2 40.0279 76.1850 52.1152 0.0000 0.0000 0.0000
# 3 74.1427 52.1152 152.5262 0.0000 0.0000 0.0000
# 4 0.0000 0.0000 0.0000 27.4904 0.0000 0.0000
# 5 0.0000 0.0000 0.0000 0.0000 19.4183 0.0000
# 6 0.0000 0.0000 0.0000 0.0000 0.0000 25.0029
#
#
#
# Elastic Compliance Matrix: (Units=1/GPa)
#
#
# Indices 1 2 3 4 5 6 
#
# 1 0.009368 -0.002358 -0.003748 0.000000 0.000000 0.000000
# 2 -0.002358 0.017723 -0.004909 0.000000 0.000000 0.000000
# 3 -0.003748 -0.004909 0.010056 0.000000 0.000000 0.000000
# 4 0.000000 0.000000 0.000000 0.036376 0.000000 0.000000
# 5 0.000000 0.000000 0.000000 0.000000 0.051498 0.000000
# 6 0.000000 0.000000 0.000000 0.000000 0.000000 0.039995
#
#
# Mechanical properties :
#
#
# Convention : Reuss Voigt Hill
#
# Bulk Modulus (GPa) = 66.15623 78.64098 72.39861
# Shear Modulus (GPa) = 26.03001 28.30976 27.16988
#
# Velocity S-wave (km/s) = 3.79204 3.95461 3.87418
# Velocity P-wave (km/s) = 7.46452 8.01842 7.74642
#
# Compressibility (1/GPa) = 0.01511573
#
# Stress axis : x y z
#
# Youngs Moduli (GPa) = 106.74647 56.42311 99.44687
#
# Poissons Ratio (x) = 0.13305 0.37273
# Poissons Ratio (y) = 0.25172 0.48823
# Poissons Ratio (z) = 0.40009 0.27700
#
# Static dielectric constant tensor:
#      x y z
#    x 1.601820 0.000000 0.000000 
#    y 0.000000 1.687610 0.000000 
#    z 0.000000 0.000000 1.665970 
# 
# From -- ./inp_files/17784.got.cif
#   From: 2010.05.17/outbox.cif.g08.bks.cpg/sg69_9_cif.got.tgz:17784.got - 2010.06.03 19:29:58.
