data_PCOD9512854
_publ_section_title
;
Structure prediction by ZEFSAII (Michael W. Deem and Ramdas Pophale) SiO2 
 PCOD9512854
Probable space group: F M M M
;
_chemical_formula_sum "Si O2"
_cell_formula_units_Z 176
_cell_length_a 11.566556
_cell_length_b 26.045904
_cell_length_c 28.320604
_cell_angle_alpha 90.000000
_cell_angle_beta 90.000000
_cell_angle_gamma 90.000000
_cell_volume 8531.905013
_symmetry_space_group_name_H-M "F M M M"
_symmetry_group_IT_number 69
_symmetry_cell_setting 'orthorhombic'
loop_
_space_group_symop_operation_xyz
x,y,z
-x,-y,z
x,-y,-z
-x,y,-z
-x,-y,-z
x,y,-z
-x,y,z
x,-y,z
x,1/2+y,1/2+z
-x,1/2-y,1/2+z
x,1/2-y,1/2-z
-x,1/2+y,1/2-z
-x,1/2-y,1/2-z
x,1/2+y,1/2-z
-x,1/2+y,1/2+z
x,1/2-y,1/2+z
1/2+x,y,1/2+z
1/2-x,-y,1/2+z
1/2+x,-y,1/2-z
1/2-x,y,1/2-z
1/2-x,-y,1/2-z
1/2+x,y,1/2-z
1/2-x,y,1/2+z
1/2+x,-y,1/2+z
1/2+x,1/2+y,z
1/2-x,1/2-y,z
1/2+x,1/2-y,-z
1/2-x,1/2+y,-z
1/2-x,1/2-y,-z
1/2+x,1/2+y,-z
1/2-x,1/2+y,z
1/2+x,1/2-y,z
loop_
_atom_site_type_symbol
_atom_site_label
_atom_site_fract_x
_atom_site_fract_y
_atom_site_fract_z
Si Si1 0.000000 0.364524 0.554607
Si Si2 0.136519 0.101910 0.610499
Si Si3 0.705213 0.608208 0.801686
Si Si4 0.358613 0.000000 0.054785
Si Si5 0.743570 0.808921 0.555276
Si Si6 0.500000 0.941349 0.642698
Si Si7 0.129904 0.273320 0.696942
O O1 0.886044 0.330179 0.560850
O O2 0.000000 0.406511 0.595762
O O3 0.000000 0.383964 0.500000
O O4 0.188755 0.105985 0.662271
O O5 0.174935 0.152818 0.583361
O O6 0.000000 0.098126 0.612540
O O7 0.180027 0.051411 0.582081
O O8 0.750000 0.594509 0.750000
O O9 0.609591 0.572018 0.824836
O O10 0.651586 0.665680 0.800602
O O11 0.500000 0.000000 0.054543
O O12 0.321468 0.000000 0.000000
O O13 0.774541 0.811555 0.500000
O O14 0.750000 0.750000 0.569722
O O15 0.500000 0.000000 0.628429
O O16 0.125061 0.250000 0.750000
O O17 0.250000 0.250000 0.676112
O O18 0.000000 0.263768 0.676071
#
# Coordination Sequence:
#
# PCOD9512854 Si02
#       7
#    16  32  32  16  32  16  32
#     4  10  22  47  74 103 142 182 234 299 353 428
#     4  11  25  42  67 105 139 178 237 292 349 424
#     4  12  26  46  69  98 141 186 236 291 347 421
#     4   9  20  44  73 101 137 177 223 290 355 416
#     4  10  22  41  68 102 143 187 225 280 357 435
#     4  12  28  51  73 101 138 185 247 296 360 425
#     4  10  20  39  68  99 131 180 232 290 351 409
#
# _framework density 20.628454000000001
#
# number of rings (size 3 to 8) (size 9 to 14) (size 15 to 20)
#    0.000    1.364    4.545    0.545    3.818    3.091 
#    0.000    0.000    0.000    0.000    0.000    0.000 
#    0.000    0.000    0.000    0.000    0.000    0.000 
#
# Total GULP energy -245970.629329 kJ/mol
# GULP energy per Si atom -5590.241576 kJ/mol
# Density = 2.058150 g / cm^3
# Si number density = 20.628454 Si / 1000 Ang^3
#
#
#
# Elastic Constant Matrix: (Units=GPa)
#
#
# Indices 1 2 3 4 5 6 
#
# 1 119.7799 31.9222 59.5591 0.0000 0.0000 0.0000
# 2 31.9222 143.3796 86.5696 0.0000 0.0000 0.0000
# 3 59.5591 86.5696 164.3311 0.0000 0.0000 0.0000
# 4 0.0000 0.0000 0.0000 4086.5632 0.0000 0.0000
# 5 0.0000 0.0000 0.0000 0.0000 -8.6016 0.0000
# 6 0.0000 0.0000 0.0000 0.0000 0.0000 19.7663
#
#
#
# Elastic Compliance Matrix: (Units=1/GPa)
#
#
# Indices 1 2 3 4 5 6 
#
# 1 0.010184 -0.000057 -0.003661 0.000000 0.000000 0.000000
# 2 -0.000057 0.010228 -0.005367 0.000000 0.000000 0.000000
# 3 -0.003661 -0.005367 0.010240 0.000000 0.000000 0.000000
# 4 0.000000 0.000000 0.000000 0.000245 0.000000 0.000000
# 5 0.000000 0.000000 0.000000 0.000000 -0.116258 0.000000
# 6 0.000000 0.000000 0.000000 0.000000 0.000000 0.050591
#
#
# Mechanical properties :
#
#
# Convention : Reuss Voigt Hill
#
# Bulk Modulus (GPa) = 80.12205 87.06583 83.59394
# Shear Modulus (GPa) = -401.96437 836.17490 217.10527
#
# Velocity S-wave (km/s) = -13.97434 20.15515 10.27005
# Velocity P-wave (km/s) = 14.88124 24.16482 13.46267
#
# Compressibility (1/GPa) = 0.01248096
#
# Stress axis : x y z
#
# Youngs Moduli (GPa) = 98.19070 97.77166 97.65860
#
# Poissons Ratio (x) = 0.00557 0.35754
# Poissons Ratio (y) = 0.00559 0.52418
# Poissons Ratio (z) = 0.35949 0.52478
#
# Static dielectric constant tensor:
#      x y z
#    x 1.748840 0.000000 0.000000 
#    y 0.000000 1.640160 0.000000 
#    z 0.000000 0.000000 1.731130 
# 
# From -- ./inp_files/40356.got.cif
#   From: 2010.05.17/outbox.cif.g08.bks.cpg/sg69_21_cif.got.tgz:40356.got - 2010.06.03 19:29:58.
