data_PCOD9512852
_publ_section_title
;
Structure prediction by ZEFSAII (Michael W. Deem and Ramdas Pophale) SiO2 
 PCOD9512852
Probable space group: F M M M
;
_chemical_formula_sum "Si O2"
_cell_formula_units_Z 160
_cell_length_a 11.949859
_cell_length_b 27.774168
_cell_length_c 26.851262
_cell_angle_alpha 90.000000
_cell_angle_beta 90.000000
_cell_angle_gamma 90.000000
_cell_volume 8911.863815
_symmetry_space_group_name_H-M "F M M M"
_symmetry_group_IT_number 69
_symmetry_cell_setting 'orthorhombic'
loop_
_space_group_symop_operation_xyz
x,y,z
-x,-y,z
x,-y,-z
-x,y,-z
-x,-y,-z
x,y,-z
-x,y,z
x,-y,z
x,1/2+y,1/2+z
-x,1/2-y,1/2+z
x,1/2-y,1/2-z
-x,1/2+y,1/2-z
-x,1/2-y,1/2-z
x,1/2+y,1/2-z
-x,1/2+y,1/2+z
x,1/2-y,1/2+z
1/2+x,y,1/2+z
1/2-x,-y,1/2+z
1/2+x,-y,1/2-z
1/2-x,y,1/2-z
1/2-x,-y,1/2-z
1/2+x,y,1/2-z
1/2-x,y,1/2+z
1/2+x,-y,1/2+z
1/2+x,1/2+y,z
1/2-x,1/2-y,z
1/2+x,1/2-y,-z
1/2-x,1/2+y,-z
1/2-x,1/2-y,-z
1/2+x,1/2+y,-z
1/2-x,1/2+y,z
1/2+x,1/2-y,z
loop_
_atom_site_type_symbol
_atom_site_label
_atom_site_fract_x
_atom_site_fract_y
_atom_site_fract_z
Si Si1 0.265351 0.056174 0.692205
Si Si2 0.000000 0.944267 0.861858
Si Si3 0.127000 0.636946 0.140587
Si Si4 0.625862 0.766398 0.192764
Si Si5 0.500000 0.357654 0.058980
Si Si6 0.735796 0.192697 0.557742
O O1 0.250000 0.069500 0.750000
O O2 0.391633 0.061829 0.672843
O O3 0.191447 0.090130 0.657917
O O4 0.234292 0.000000 0.687462
O O5 0.000000 0.904549 0.905613
O O6 0.000000 0.000000 0.880559
O O7 0.128542 0.676378 0.184956
O O8 0.184118 0.663926 0.094533
O O9 0.000000 0.625344 0.128448
O O10 0.500000 0.751360 0.172032
O O11 0.624148 0.750000 0.250000
O O12 0.750000 0.750000 0.173308
O O13 0.390001 0.325462 0.068291
O O14 0.500000 0.370861 0.000000
O O15 0.760540 0.181317 0.500000
O O16 0.750000 0.250000 0.563232
#
# Coordination Sequence:
#
# PCOD9512852 Si02
#       6
#    32  16  32  32  16  32
#     4  10  23  41  61  86 118 158 203 249 300 361
#     4  10  20  41  66  91 121 155 202 260 314 366
#     4  11  23  38  59  86 116 153 198 246 299 355
#     4   9  19  36  52  77 114 151 191 235 288 350
#     4  10  20  39  66  95 121 155 202 254 314 370
#     4  10  22  40  62  88 121 160 201 244 294 359
#
# _framework density 17.953596000000001
#
# number of rings (size 3 to 8) (size 9 to 14) (size 15 to 20)
#    0.000    2.000    2.000    0.600    5.600    1.000 
#    3.600    0.000    0.000    0.600    0.000    1.400 
#    0.000    0.000    0.000    0.000    0.000    0.000 
#
# Total GULP energy -222980.576817 kJ/mol
# GULP energy per Si atom -5574.514420 kJ/mol
# Density = 1.791273 g / cm^3
# Si number density = 17.953596 Si / 1000 Ang^3
#
#
#
# Elastic Constant Matrix: (Units=GPa)
#
#
# Indices 1 2 3 4 5 6 
#
# 1 165.6865 80.1016 53.1255 0.0000 0.0000 0.0000
# 2 80.1016 101.9684 68.8727 0.0000 0.0000 0.0000
# 3 53.1255 68.8727 98.0515 0.0000 0.0000 0.0000
# 4 0.0000 0.0000 0.0000 12.8591 0.0000 0.0000
# 5 0.0000 0.0000 0.0000 0.0000 0.0288 0.0000
# 6 0.0000 0.0000 0.0000 0.0000 0.0000 32.0314
#
#
#
# Elastic Compliance Matrix: (Units=1/GPa)
#
#
# Indices 1 2 3 4 5 6 
#
# 1 0.009733 -0.007770 0.000185 0.000000 0.000000 0.000000
# 2 -0.007770 0.024863 -0.013254 0.000000 0.000000 0.000000
# 3 0.000185 -0.013254 0.019409 0.000000 0.000000 0.000000
# 4 0.000000 0.000000 0.000000 0.077766 0.000000 0.000000
# 5 0.000000 0.000000 0.000000 0.000000 34.776643 0.000000
# 6 0.000000 0.000000 0.000000 0.000000 0.000000 0.031219
#
#
# Mechanical properties :
#
#
# Convention : Reuss Voigt Hill
#
# Bulk Modulus (GPa) = 81.13687 85.54510 83.34098
# Shear Modulus (GPa) = 0.14292 19.89097 10.01694
#
# Velocity S-wave (km/s) = 0.28245 3.33214 2.36463
# Velocity P-wave (km/s) = 6.73773 7.90921 7.34685
#
# Compressibility (1/GPa) = 0.01232485
#
# Stress axis : x y z
#
# Youngs Moduli (GPa) = 102.74385 40.21967 51.52337
#
# Poissons Ratio (x) = 0.31253 -0.00951
# Poissons Ratio (y) = 0.79837 0.68291
# Poissons Ratio (z) = -0.01897 0.53308
#
# Static dielectric constant tensor:
#      x y z
#    x 1.647490 0.000000 0.000000 
#    y 0.000000 1.591410 0.000000 
#    z 0.000000 0.000000 1.605190 
# 
# From -- ./inp_files/11512.got.cif
#   From: 2010.05.17/outbox.cif.g08.bks.cpg/sg69_6_cif.got.tgz:11512.got - 2010.06.03 19:29:58.
