data_PCOD9512863
_publ_section_title
;
Structure prediction by ZEFSAII (Michael W. Deem and Ramdas Pophale) SiO2 
 PCOD9512863
Probable space group: F M M M
;
_chemical_formula_sum "Si O2"
_cell_formula_units_Z 128
_cell_length_a 14.369710
_cell_length_b 18.426155
_cell_length_c 24.798772
_cell_angle_alpha 90.000000
_cell_angle_beta 90.000000
_cell_angle_gamma 90.000000
_cell_volume 6566.181745
_symmetry_space_group_name_H-M "F M M M"
_symmetry_group_IT_number 69
_symmetry_cell_setting 'orthorhombic'
loop_
_space_group_symop_operation_xyz
x,y,z
-x,-y,z
x,-y,-z
-x,y,-z
-x,-y,-z
x,y,-z
-x,y,z
x,-y,z
x,1/2+y,1/2+z
-x,1/2-y,1/2+z
x,1/2-y,1/2-z
-x,1/2+y,1/2-z
-x,1/2-y,1/2-z
x,1/2+y,1/2-z
-x,1/2+y,1/2+z
x,1/2-y,1/2+z
1/2+x,y,1/2+z
1/2-x,-y,1/2+z
1/2+x,-y,1/2-z
1/2-x,y,1/2-z
1/2-x,-y,1/2-z
1/2+x,y,1/2-z
1/2-x,y,1/2+z
1/2+x,-y,1/2+z
1/2+x,1/2+y,z
1/2-x,1/2-y,z
1/2+x,1/2-y,-z
1/2-x,1/2+y,-z
1/2-x,1/2-y,-z
1/2+x,1/2+y,-z
1/2-x,1/2+y,z
1/2+x,1/2-y,z
loop_
_atom_site_type_symbol
_atom_site_label
_atom_site_fract_x
_atom_site_fract_y
_atom_site_fract_z
Si Si1 0.809427 0.918595 0.346469
Si Si2 0.000000 0.248779 0.438033
Si Si3 0.000000 0.080182 0.412103
Si Si4 0.672942 0.187336 0.629939
Si Si5 0.393112 0.336878 0.753302
O O1 0.738602 0.879089 0.387506
O O2 0.828443 0.874771 0.290941
O O3 0.908483 0.919834 0.375479
O O4 0.778945 0.000000 0.333855
O O5 0.000000 0.160560 0.438385
O O6 0.908684 0.279249 0.406554
O O7 0.000000 0.273594 0.500000
O O8 0.000000 0.000000 0.440126
O O9 0.750000 0.250000 0.640982
O O10 0.629059 0.152685 0.684054
O O11 0.500000 0.357301 0.741613
O O12 0.384909 0.250000 0.750000
#
# Coordination Sequence:
#
# PCOD9512863 Si02
#       5
#    32  16  16  32  32
#     4  11  23  39  63  98 138 176 214 257 319 397
#     4  12  26  46  70  97 123 164 231 289 337 389
#     4  10  20  40  65  96 136 165 204 283 345 379
#     4  12  23  40  63  93 130 173 218 268 326 387
#     4  11  20  33  58  92 134 175 206 245 312 391
#
# _framework density 19.493825999999999
#
# number of rings (size 3 to 8) (size 9 to 14) (size 15 to 20)
#    0.000    0.750    7.500    0.750    0.000    2.750 
#    0.000    0.625    0.000    1.500    0.000    0.000 
#    0.000    0.000    0.000    0.000    0.000    0.000 
#
# Total GULP energy -178284.193277 kJ/mol
# GULP energy per Si atom -5571.381040 kJ/mol
# Density = 1.944946 g / cm^3
# Si number density = 19.493826 Si / 1000 Ang^3
#
#
#
# Elastic Constant Matrix: (Units=GPa)
#
#
# Indices 1 2 3 4 5 6 
#
# 1 118.4481 64.4562 42.9502 0.0000 0.0000 0.0000
# 2 64.4562 110.5306 38.1162 0.0000 0.0000 0.0000
# 3 42.9502 38.1162 85.6456 0.0000 0.0000 0.0000
# 4 0.0000 0.0000 0.0000 5.7260 0.0000 0.0000
# 5 0.0000 0.0000 0.0000 0.0000 5.1653 0.0000
# 6 0.0000 0.0000 0.0000 0.0000 0.0000-2398.9484
#
#
#
# Elastic Compliance Matrix: (Units=1/GPa)
#
#
# Indices 1 2 3 4 5 6 
#
# 1 0.013344 -0.006467 -0.003814 0.000000 0.000000 0.000000
# 2 -0.006467 0.013821 -0.002908 0.000000 0.000000 0.000000
# 3 -0.003814 -0.002908 0.014883 0.000000 0.000000 0.000000
# 4 0.000000 0.000000 0.000000 0.174641 0.000000 0.000000
# 5 0.000000 0.000000 0.000000 0.000000 0.193598 0.000000
# 6 0.000000 0.000000 0.000000 0.000000 0.000000 -0.000417
#
#
# Mechanical properties :
#
#
# Convention : Reuss Voigt Hill
#
# Bulk Modulus (GPa) = 63.81254 67.29662 65.55458
# Shear Modulus (GPa) = 11.32573 -466.33795 -227.50611
#
# Velocity S-wave (km/s) = 2.41299 -15.48363 -10.81481
# Velocity P-wave (km/s) = 6.36939 16.88372 11.05647
#
# Compressibility (1/GPa) = 0.01567090
#
# Stress axis : x y z
#
# Youngs Moduli (GPa) = 74.93732 72.35305 67.19063
#
# Poissons Ratio (x) = 0.46788 0.25628
# Poissons Ratio (y) = 0.48459 0.19540
# Poissons Ratio (z) = 0.28582 0.21041
#
# Static dielectric constant tensor:
#      x y z
#    x 1.745750 0.000000 0.000000 
#    y 0.000000 1.757970 0.000000 
#    z 0.000000 0.000000 1.727060 
# 
# From -- ./inp_files/15360.got.cif
#   From: 2010.05.17/outbox.cif.g08.bks.cpg/sg69_8_cif.got.tgz:15360.got - 2010.06.03 19:29:58.
