data_PCOD9512807
_publ_section_title
;
Structure prediction by ZEFSAII (Michael W. Deem and Ramdas Pophale) SiO2 
 PCOD9512807
Probable space group: F M M M
;
_chemical_formula_sum "Si O2"
_cell_formula_units_Z 160
_cell_length_a 9.111143
_cell_length_b 35.977845
_cell_length_c 26.179825
_cell_angle_alpha 90.000000
_cell_angle_beta 90.000000
_cell_angle_gamma 90.000000
_cell_volume 8581.728064
_symmetry_space_group_name_H-M "F M M M"
_symmetry_group_IT_number 69
_symmetry_cell_setting 'orthorhombic'
loop_
_space_group_symop_operation_xyz
x,y,z
-x,-y,z
x,-y,-z
-x,y,-z
-x,-y,-z
x,y,-z
-x,y,z
x,-y,z
x,1/2+y,1/2+z
-x,1/2-y,1/2+z
x,1/2-y,1/2-z
-x,1/2+y,1/2-z
-x,1/2-y,1/2-z
x,1/2+y,1/2-z
-x,1/2+y,1/2+z
x,1/2-y,1/2+z
1/2+x,y,1/2+z
1/2-x,-y,1/2+z
1/2+x,-y,1/2-z
1/2-x,y,1/2-z
1/2-x,-y,1/2-z
1/2+x,y,1/2-z
1/2-x,y,1/2+z
1/2+x,-y,1/2+z
1/2+x,1/2+y,z
1/2-x,1/2-y,z
1/2+x,1/2-y,-z
1/2-x,1/2+y,-z
1/2-x,1/2-y,-z
1/2+x,1/2+y,-z
1/2-x,1/2+y,z
1/2+x,1/2-y,z
loop_
_atom_site_type_symbol
_atom_site_label
_atom_site_fract_x
_atom_site_fract_y
_atom_site_fract_z
Si Si1 0.323426 0.459212 0.805762
Si Si2 0.321463 0.209669 0.500000
Si Si3 0.323355 0.124541 0.305159
Si Si4 0.178519 0.655110 0.590871
Si Si5 0.334149 0.000000 0.062722
Si Si6 0.165824 0.926322 0.060965
O O1 0.500000 0.459529 0.801419
O O2 0.281439 0.500000 0.827677
O O3 0.250000 0.458943 0.750000
O O4 0.286071 0.417492 0.825212
O O5 0.500000 0.212131 0.500000
O O6 0.250000 0.250000 0.500000
O O7 0.275815 0.186691 0.449030
O O8 0.500000 0.126087 0.299313
O O9 0.250000 0.130146 0.250000
O O10 0.279749 0.153917 0.349314
O O11 0.226107 0.614686 0.570560
O O12 0.000000 0.655108 0.589145
O O13 0.255571 0.038065 0.078144
O O14 0.500000 0.000000 0.080954
O O15 0.335490 0.000000 0.000000
O O16 0.000000 0.928931 0.082244
O O17 0.154508 0.929727 0.000000
#
# Coordination Sequence:
#
# PCOD9512807 Si02
#       6
#    32  16  32  32  16  32
#     4   8  13  22  37  58  86 121 164 211 250 284
#     4  10  20  38  62  87 112 133 161 206 263 324
#     4   9  17  30  48  72 101 136 175 213 259 304
#     4   9  17  32  55  79 104 134 171 217 263 307
#     4   9  17  27  39  61  98 139 172 211 262 304
#     4   9  15  27  47  69  92 128 177 218 250 298
#
# _framework density 18.644264
#
# number of rings (size 3 to 8) (size 9 to 14) (size 15 to 20)
#    0.000    3.100    1.000    0.300    0.000    1.200 
#    1.800    3.000    0.000    0.600    0.000    4.200 
#    0.000    0.000    0.000    0.000    0.000    0.000 
#
# Total GULP energy -222704.614392 kJ/mol
# GULP energy per Si atom -5567.615360 kJ/mol
# Density = 1.860183 g / cm^3
# Si number density = 18.644264 Si / 1000 Ang^3
#
#
#
# Elastic Constant Matrix: (Units=GPa)
#
#
# Indices 1 2 3 4 5 6 
#
# 1 20.5842 38.8558 25.8923 0.0000 0.0000 0.0000
# 2 38.8558 143.5398 76.3358 0.0000 0.0000 0.0000
# 3 25.8923 76.3358 132.3178 0.0000 0.0000 0.0000
# 4 0.0000 0.0000 0.0000 24.1804 0.0000 0.0000
# 5 0.0000 0.0000 0.0000 0.0000 12.5967 0.0000
# 6 0.0000 0.0000 0.0000 0.0000 0.0000 22.4069
#
#
#
# Elastic Compliance Matrix: (Units=1/GPa)
#
#
# Indices 1 2 3 4 5 6 
#
# 1 0.102374 -0.024609 -0.005836 0.000000 0.000000 0.000000
# 2 -0.024609 0.015966 -0.004395 0.000000 0.000000 0.000000
# 3 -0.005836 -0.004395 0.011235 0.000000 0.000000 0.000000
# 4 0.000000 0.000000 0.000000 0.041356 0.000000 0.000000
# 5 0.000000 0.000000 0.000000 0.000000 0.079386 0.000000
# 6 0.000000 0.000000 0.000000 0.000000 0.000000 0.044629
#
#
# Mechanical properties :
#
#
# Convention : Reuss Voigt Hill
#
# Bulk Modulus (GPa) = 16.69574 64.28996 40.49285
# Shear Modulus (GPa) = 13.00081 22.19399 17.59740
#
# Velocity S-wave (km/s) = 2.64353 3.45395 3.07555
# Velocity P-wave (km/s) = 4.27691 7.10378 5.86326
#
# Compressibility (1/GPa) = 0.05989552
#
# Stress axis : x y z
#
# Youngs Moduli (GPa) = 9.76806 62.63411 89.00600
#
# Poissons Ratio (x) = 1.54136 0.51941
# Poissons Ratio (y) = 0.24038 0.39121
# Poissons Ratio (z) = 0.05700 0.27529
#
# Static dielectric constant tensor:
#      x y z
#    x 1.629220 0.000000 0.000000 
#    y 0.000000 1.634930 0.000000 
#    z 0.000000 0.000000 1.729940 
# 
# From -- ./inp_files/35231.got.cif
#   From: 2010.05.17/outbox.cif.g08.bks.cpg/sg69_18_cif.got.tgz:35231.got - 2010.06.03 19:29:58.
