data_PCOD9512577
_publ_section_title
;
Structure prediction by ZEFSAII (Michael W. Deem and Ramdas Pophale) SiO2 
 PCOD9512577
Probable space group: F M M M
;
_chemical_formula_sum "Si O2"
_cell_formula_units_Z 200
_cell_length_a 19.458226
_cell_length_b 31.632001
_cell_length_c 17.635213
_cell_angle_alpha 90.000000
_cell_angle_beta 90.000000
_cell_angle_gamma 90.000000
_cell_volume 10854.519881
_symmetry_space_group_name_H-M "F M M M"
_symmetry_group_IT_number 69
_symmetry_cell_setting 'orthorhombic'
loop_
_space_group_symop_operation_xyz
x,y,z
-x,-y,z
x,-y,-z
-x,y,-z
-x,-y,-z
x,y,-z
-x,y,z
x,-y,z
x,1/2+y,1/2+z
-x,1/2-y,1/2+z
x,1/2-y,1/2-z
-x,1/2+y,1/2-z
-x,1/2-y,1/2-z
x,1/2+y,1/2-z
-x,1/2+y,1/2+z
x,1/2-y,1/2+z
1/2+x,y,1/2+z
1/2-x,-y,1/2+z
1/2+x,-y,1/2-z
1/2-x,y,1/2-z
1/2-x,-y,1/2-z
1/2+x,y,1/2-z
1/2-x,y,1/2+z
1/2+x,-y,1/2+z
1/2+x,1/2+y,z
1/2-x,1/2-y,z
1/2+x,1/2-y,-z
1/2-x,1/2+y,-z
1/2-x,1/2-y,-z
1/2+x,1/2+y,-z
1/2-x,1/2+y,z
1/2+x,1/2-y,z
loop_
_atom_site_type_symbol
_atom_site_label
_atom_site_fract_x
_atom_site_fract_y
_atom_site_fract_z
Si Si1 0.751806 0.165868 0.087111
Si Si2 0.896995 0.200995 0.585558
Si Si3 0.397813 0.297449 0.124525
Si Si4 0.073956 0.848494 0.733794
Si Si5 0.578949 0.449028 0.412530
Si Si6 0.692337 0.093511 0.805318
Si Si7 0.500000 0.829526 0.500000
O O1 0.685262 0.195960 0.089091
O O2 0.818167 0.191500 0.113170
O O3 0.732900 0.126448 0.140652
O O4 0.761042 0.151880 0.000000
O O5 0.918883 0.190836 0.500000
O O6 0.914672 0.249198 0.604145
O O7 0.924062 0.168835 0.648219
O O8 0.417304 0.309230 0.209826
O O9 0.440651 0.326008 0.066486
O O10 0.138300 0.879202 0.744305
O O11 0.000000 0.868640 0.749240
O O12 0.590675 0.435001 0.500000
O O13 0.500000 0.436019 0.391701
O O14 0.579380 0.500000 0.411954
O O15 0.640145 0.433221 0.358210
O O16 0.750000 0.073248 0.750000
#
# Coordination Sequence:
#
# PCOD9512577 Si02
#       7
#    32  32  32  32  32  32   8
#     4  10  20  36  53  73 102 141 183 231 278 329
#     4  10  22  35  53  73  96 134 186 242 298 347
#     4  12  21  36  51  71  98 138 187 239 285 334
#     4  11  24  36  51  75 108 144 182 234 290 334
#     4   9  19  38  65  94 122 149 178 214 263 327
#     4  11  21  36  56  84 116 148 182 220 266 327
#     4  12  24  32  56  72  98 136 195 232 291 344
#
# _framework density 18.425504
#
# number of rings (size 3 to 8) (size 9 to 14) (size 15 to 20)
#    0.000    1.440    4.000    2.400    1.120    3.200 
#    0.000    1.600    0.000    0.000    0.000    0.000 
#    0.000    0.000    0.000    9.120    0.000    0.000 
#
# Total GULP energy -278471.691528 kJ/mol
# GULP energy per Si atom -5569.433831 kJ/mol
# Density = 1.838357 g / cm^3
# Si number density = 18.425504 Si / 1000 Ang^3
#
#
#
# Elastic Constant Matrix: (Units=GPa)
#
#
# Indices 1 2 3 4 5 6 
#
# 1 141.9455 15.9607 37.9524 0.0000 0.0000 0.0000
# 2 15.9607 24.4089 14.7655 0.0000 0.0000 0.0000
# 3 37.9524 14.7655 89.9876 0.0000 0.0000 0.0000
# 4 0.0000 0.0000 0.0000 24.3375 0.0000 0.0000
# 5 0.0000 0.0000 0.0000 0.0000-4165.8156 0.0000
# 6 0.0000 0.0000 0.0000 0.0000 0.0000 103.8685
#
#
#
# Elastic Compliance Matrix: (Units=1/GPa)
#
#
# Indices 1 2 3 4 5 6 
#
# 1 0.008222 -0.003640 -0.002870 0.000000 0.000000 0.000000
# 2 -0.003640 0.047095 -0.006192 0.000000 0.000000 0.000000
# 3 -0.002870 -0.006192 0.013339 0.000000 0.000000 0.000000
# 4 0.000000 0.000000 0.000000 0.041089 0.000000 0.000000
# 5 0.000000 0.000000 0.000000 0.000000 -0.000240 0.000000
# 6 0.000000 0.000000 0.000000 0.000000 0.000000 0.009628
#
#
# Mechanical properties :
#
#
# Convention : Reuss Voigt Hill
#
# Bulk Modulus (GPa) = 23.12104 43.74435 33.43269
# Shear Modulus (GPa) = 31.45576 -795.01102 -381.77763
#
# Velocity S-wave (km/s) = 4.13629 -20.79447 -14.41008
# Velocity P-wave (km/s) = 5.94874 23.51071 16.08363
#
# Compressibility (1/GPa) = 0.04325065
#
# Stress axis : x y z
#
# Youngs Moduli (GPa) = 121.63006 21.23389 74.96675
#
# Poissons Ratio (x) = 0.07729 0.21517
# Poissons Ratio (y) = 0.44270 0.46422
# Poissons Ratio (z) = 0.34911 0.13149
#
# Static dielectric constant tensor:
#      x y z
#    x 1.685810 0.000000 0.000000 
#    y 0.000000 1.620170 0.000000 
#    z 0.000000 0.000000 1.661140 
# 
# From -- ./inp_files/25183.got.cif
#   From: 2010.05.17/outbox.cif.g08.bks.cpg/sg69_13_cif.got.tgz:25183.got - 2010.06.03 19:29:58.
