data_PCOD9512423
_publ_section_title
;
Structure prediction by ZEFSAII (Michael W. Deem and Ramdas Pophale) SiO2 
 PCOD9512423
Probable space group: F M M M
;
_chemical_formula_sum "Si O2"
_cell_formula_units_Z 160
_cell_length_a 22.186606
_cell_length_b 27.540720
_cell_length_c 13.966886
_cell_angle_alpha 90.000000
_cell_angle_beta 90.000000
_cell_angle_gamma 90.000000
_cell_volume 8534.257634
_symmetry_space_group_name_H-M "F M M M"
_symmetry_group_IT_number 69
_symmetry_cell_setting 'orthorhombic'
loop_
_space_group_symop_operation_xyz
x,y,z
-x,-y,z
x,-y,-z
-x,y,-z
-x,-y,-z
x,y,-z
-x,y,z
x,-y,z
x,1/2+y,1/2+z
-x,1/2-y,1/2+z
x,1/2-y,1/2-z
-x,1/2+y,1/2-z
-x,1/2-y,1/2-z
x,1/2+y,1/2-z
-x,1/2+y,1/2+z
x,1/2-y,1/2+z
1/2+x,y,1/2+z
1/2-x,-y,1/2+z
1/2+x,-y,1/2-z
1/2-x,y,1/2-z
1/2-x,-y,1/2-z
1/2+x,y,1/2-z
1/2-x,y,1/2+z
1/2+x,-y,1/2+z
1/2+x,1/2+y,z
1/2-x,1/2-y,z
1/2+x,1/2-y,-z
1/2-x,1/2+y,-z
1/2-x,1/2-y,-z
1/2+x,1/2+y,-z
1/2-x,1/2+y,z
1/2+x,1/2-y,z
loop_
_atom_site_type_symbol
_atom_site_label
_atom_site_fract_x
_atom_site_fract_y
_atom_site_fract_z
Si Si1 0.165737 0.054640 0.248580
Si Si2 0.430681 0.917144 0.605321
Si Si3 0.742770 0.604847 0.386374
Si Si4 0.566925 0.299816 0.112280
Si Si5 0.200809 0.289822 0.383872
O O1 0.102979 0.061347 0.195425
O O2 0.212845 0.066037 0.162862
O O3 0.180661 0.093405 0.331406
O O4 0.172363 0.000000 0.284549
O O5 0.404356 0.929712 0.500000
O O6 0.500000 0.931883 0.604865
O O7 0.428568 0.858551 0.612934
O O8 0.738081 0.600548 0.500000
O O9 0.772069 0.657026 0.362406
O O10 0.500000 0.286971 0.152367
O O11 0.631979 0.282846 0.152015
O O12 0.565357 0.285295 0.000000
O O13 0.196681 0.287884 0.500000
O O14 0.250000 0.250000 0.354960
#
# Coordination Sequence:
#
# PCOD9512423 Si02
#       5
#    32  32  32  32  32
#     4  11  22  33  50  76 104 137 177 216 261 320
#     4   9  17  31  53  79 107 137 167 210 273 331
#     4  10  20  35  51  71 104 139 174 218 264 312
#     4   8  13  24  45  72 102 135 165 202 262 325
#     4   9  16  28  50  77 103 135 176 218 265 321
#
# _framework density 18.747969999999999
#
# number of rings (size 3 to 8) (size 9 to 14) (size 15 to 20)
#    0.000    2.600    2.000    3.000    0.000    3.200 
#    0.000    3.000    0.000    1.800    0.000    7.000 
#    0.000    0.000    0.000    0.000    0.000    0.000 
#
# Total GULP energy -222759.654387 kJ/mol
# GULP energy per Si atom -5568.991360 kJ/mol
# Density = 1.870530 g / cm^3
# Si number density = 18.747970 Si / 1000 Ang^3
#
#
#
# Elastic Constant Matrix: (Units=GPa)
#
#
# Indices 1 2 3 4 5 6 
#
# 1 134.6493 50.2248 35.3406 0.0000 0.0000 0.0000
# 2 50.2248 50.2318 18.5749 0.0000 0.0000 0.0000
# 3 35.3406 18.5749 87.2046 0.0000 0.0000 0.0000
# 4 0.0000 0.0000 0.0000 18.0115 0.0000 0.0000
# 5 0.0000 0.0000 0.0000 0.0000 26.1943 0.0000
# 6 0.0000 0.0000 0.0000 0.0000 0.0000 19.3962
#
#
#
# Elastic Compliance Matrix: (Units=1/GPa)
#
#
# Indices 1 2 3 4 5 6 
#
# 1 0.012356 -0.011401 -0.002579 0.000000 0.000000 0.000000
# 2 -0.011401 0.032129 -0.002223 0.000000 0.000000 0.000000
# 3 -0.002579 -0.002223 0.012986 0.000000 0.000000 0.000000
# 4 0.000000 0.000000 0.000000 0.055520 0.000000 0.000000
# 5 0.000000 0.000000 0.000000 0.000000 0.038176 0.000000
# 6 0.000000 0.000000 0.000000 0.000000 0.000000 0.051556
#
#
# Mechanical properties :
#
#
# Convention : Reuss Voigt Hill
#
# Bulk Modulus (GPa) = 39.89632 53.37404 46.63518
# Shear Modulus (GPa) = 20.53512 23.91675 22.22593
#
# Velocity S-wave (km/s) = 3.31316 3.57557 3.44686
# Velocity P-wave (km/s) = 5.99688 6.75109 6.38513
#
# Compressibility (1/GPa) = 0.02506497
#
# Stress axis : x y z
#
# Youngs Moduli (GPa) = 80.93139 31.12450 77.00563
#
# Poissons Ratio (x) = 0.35484 0.19860
# Poissons Ratio (y) = 0.92268 0.17121
# Poissons Ratio (z) = 0.20873 0.06920
#
# Static dielectric constant tensor:
#      x y z
#    x 1.741410 0.000000 0.000000 
#    y 0.000000 1.658770 0.000000 
#    z 0.000000 0.000000 1.648570 
# 
# From -- ./inp_files/17694.got.cif
#   From: 2010.05.17/outbox.cif.g08.bks.cpg/sg69_9_cif.got.tgz:17694.got - 2010.06.03 19:29:58.
