data_PCOD9512009
_publ_section_title
;
Structure prediction by ZEFSAII (Michael W. Deem and Ramdas Pophale) SiO2 
 PCOD9512009
Probable space group: F M M M
;
_chemical_formula_sum "Si O2"
_cell_formula_units_Z 128
_cell_length_a 18.256268
_cell_length_b 13.105682
_cell_length_c 30.055582
_cell_angle_alpha 90.000000
_cell_angle_beta 90.000000
_cell_angle_gamma 90.000000
_cell_volume 7191.123884
_symmetry_space_group_name_H-M "F M M M"
_symmetry_group_IT_number 69
_symmetry_cell_setting 'orthorhombic'
loop_
_space_group_symop_operation_xyz
x,y,z
-x,-y,z
x,-y,-z
-x,y,-z
-x,-y,-z
x,y,-z
-x,y,z
x,-y,z
x,1/2+y,1/2+z
-x,1/2-y,1/2+z
x,1/2-y,1/2-z
-x,1/2+y,1/2-z
-x,1/2-y,1/2-z
x,1/2+y,1/2-z
-x,1/2+y,1/2+z
x,1/2-y,1/2+z
1/2+x,y,1/2+z
1/2-x,-y,1/2+z
1/2+x,-y,1/2-z
1/2-x,y,1/2-z
1/2-x,-y,1/2-z
1/2+x,y,1/2-z
1/2-x,y,1/2+z
1/2+x,-y,1/2+z
1/2+x,1/2+y,z
1/2-x,1/2-y,z
1/2+x,1/2-y,-z
1/2-x,1/2+y,-z
1/2-x,1/2-y,-z
1/2+x,1/2+y,-z
1/2-x,1/2+y,z
1/2+x,1/2-y,z
loop_
_atom_site_type_symbol
_atom_site_label
_atom_site_fract_x
_atom_site_fract_y
_atom_site_fract_z
Si Si1 0.415271 0.793827 0.652312
Si Si2 0.203417 0.881024 0.793664
Si Si3 0.737402 0.000000 0.448310
Si Si4 0.683543 0.613003 0.624897
Si Si5 0.082257 0.000000 0.093580
O O1 0.500000 0.771216 0.660717
O O2 0.367771 0.814363 0.696528
O O3 0.375068 0.702198 0.626516
O O4 0.411091 0.898957 0.624147
O O5 0.250000 0.858286 0.750000
O O6 0.256303 0.869811 0.836559
O O7 0.181837 0.000000 0.790834
O O8 0.773244 0.904700 0.421341
O O9 0.754581 0.000000 0.500000
O O10 0.650613 0.000000 0.439574
O O11 0.650357 0.500000 0.634126
O O12 0.000000 0.000000 0.074014
#
# Coordination Sequence:
#
# PCOD9512009 Si02
#       5
#    32  32  16  32  16
#     4  11  20  35  60  85 121 156 188 241 302 354
#     4  10  19  35  60  86 114 154 196 240 286 352
#     4  10  20  39  63  86 114 157 204 247 292 354
#     4   9  20  37  56  83 115 151 200 245 288 348
#     4  10  20  35  56  89 119 148 188 242 307 356
#
# _framework density 17.799721000000002
#
# number of rings (size 3 to 8) (size 9 to 14) (size 15 to 20)
#    0.750    1.250    3.750    0.750    0.000    2.750 
#    0.000    5.000    0.000    7.500    0.000    0.000 
#    0.000    0.000    0.000    0.000    0.000    0.000 
#
# Total GULP energy -178368.967455 kJ/mol
# GULP energy per Si atom -5574.030233 kJ/mol
# Density = 1.775921 g / cm^3
# Si number density = 17.799721 Si / 1000 Ang^3
#
#
#
# Elastic Constant Matrix: (Units=GPa)
#
#
# Indices 1 2 3 4 5 6 
#
# 1 147.7755 63.8694 67.0012 0.0000 0.0000 0.0000
# 2 63.8694 110.9418 21.9278 0.0000 0.0000 0.0000
# 3 67.0012 21.9278 135.1778 0.0000 0.0000 0.0000
# 4 0.0000 0.0000 0.0000 0.9470 0.0000 0.0000
# 5 0.0000 0.0000 0.0000 0.0000 20.6995 0.0000
# 6 0.0000 0.0000 0.0000 0.0000 0.0000 28.7506
#
#
#
# Elastic Compliance Matrix: (Units=1/GPa)
#
#
# Indices 1 2 3 4 5 6 
#
# 1 0.011311 -0.005583 -0.004701 0.000000 0.000000 0.000000
# 2 -0.005583 0.012068 0.000810 0.000000 0.000000 0.000000
# 3 -0.004701 0.000810 0.009596 0.000000 0.000000 0.000000
# 4 0.000000 0.000000 0.000000 1.055999 0.000000 0.000000
# 5 0.000000 0.000000 0.000000 0.000000 0.048310 0.000000
# 6 0.000000 0.000000 0.000000 0.000000 0.000000 0.034782
#
#
# Mechanical properties :
#
#
# Convention : Reuss Voigt Hill
#
# Bulk Modulus (GPa) = 71.29014 77.72133 74.50573
# Shear Modulus (GPa) = 4.18168 26.15254 15.16711
#
# Velocity S-wave (km/s) = 1.53440 3.83726 2.92224
# Velocity P-wave (km/s) = 6.57856 7.96190 7.30306
#
# Compressibility (1/GPa) = 0.01402718
#
# Stress axis : x y z
#
# Youngs Moduli (GPa) = 88.40714 82.86544 104.20649
#
# Poissons Ratio (x) = 0.46262 0.48986
# Poissons Ratio (y) = 0.49356 -0.08436
# Poissons Ratio (z) = 0.41559 -0.06708
#
# Static dielectric constant tensor:
#      x y z
#    x 1.609350 0.000000 0.000000 
#    y 0.000000 1.663020 0.000000 
#    z 0.000000 0.000000 1.596900 
# 
# From -- ./inp_files/46150.got.cif
#   From: 2010.05.17/outbox.cif.g08.bks.cpg/sg69_24_cif.got.tgz:46150.got - 2010.06.03 19:29:58.
