data_PCOD9512784
_publ_section_title
;
Structure prediction by ZEFSAII (Michael W. Deem and Ramdas Pophale) SiO2 
 PCOD9512784
Probable space group: F M M M
;
_chemical_formula_sum "Si O2"
_cell_formula_units_Z 144
_cell_length_a 15.999407
_cell_length_b 17.716417
_cell_length_c 23.683697
_cell_angle_alpha 90.000000
_cell_angle_beta 90.000000
_cell_angle_gamma 90.000000
_cell_volume 6713.195217
_symmetry_space_group_name_H-M "F M M M"
_symmetry_group_IT_number 69
_symmetry_cell_setting 'orthorhombic'
loop_
_space_group_symop_operation_xyz
x,y,z
-x,-y,z
x,-y,-z
-x,y,-z
-x,-y,-z
x,y,-z
-x,y,z
x,-y,z
x,1/2+y,1/2+z
-x,1/2-y,1/2+z
x,1/2-y,1/2-z
-x,1/2+y,1/2-z
-x,1/2-y,1/2-z
x,1/2+y,1/2-z
-x,1/2+y,1/2+z
x,1/2-y,1/2+z
1/2+x,y,1/2+z
1/2-x,-y,1/2+z
1/2+x,-y,1/2-z
1/2-x,y,1/2-z
1/2-x,-y,1/2-z
1/2+x,y,1/2-z
1/2-x,y,1/2+z
1/2+x,-y,1/2+z
1/2+x,1/2+y,z
1/2-x,1/2-y,z
1/2+x,1/2-y,-z
1/2-x,1/2+y,-z
1/2-x,1/2-y,-z
1/2+x,1/2+y,-z
1/2-x,1/2+y,z
1/2+x,1/2-y,z
loop_
_atom_site_type_symbol
_atom_site_label
_atom_site_fract_x
_atom_site_fract_y
_atom_site_fract_z
Si Si1 0.595739 0.695647 0.651720
Si Si2 0.400002 0.085516 0.254119
Si Si3 0.000000 0.587621 0.432701
Si Si4 0.829473 0.589410 0.932929
Si Si5 0.162769 0.355850 0.629903
O O1 0.500000 0.721807 0.659817
O O2 0.620062 0.646282 0.706161
O O3 0.601804 0.639915 0.598368
O O4 0.654554 0.767190 0.642758
O O5 0.500000 0.092156 0.266483
O O6 0.349269 0.101579 0.310775
O O7 0.385103 0.000000 0.234086
O O8 0.082623 0.624821 0.408147
O O9 0.000000 0.500000 0.415224
O O10 0.000000 0.591751 0.500000
O O11 0.841594 0.500000 0.923847
O O12 0.743858 0.616472 0.903229
O O13 0.826498 0.602821 0.000000
#
# Coordination Sequence:
#
# PCOD9512784 Si02
#       5
#    32  32  16  32  32
#     4  11  24  43  65  97 131 171 215 268 322 381
#     4  10  20  37  65  96 132 172 214 262 317 388
#     4  11  22  36  59  92 129 169 209 252 312 386
#     4  11  26  46  66  91 128 172 221 272 320 380
#     4  12  22  40  66  97 131 166 210 268 328 385
#
# _framework density 21.450292999999999
#
# number of rings (size 3 to 8) (size 9 to 14) (size 15 to 20)
#    0.000    1.000    2.222    4.667    0.000    8.889 
#    0.000    5.556    0.000    0.000    0.000    0.000 
#    0.000    0.000    0.000    0.000    0.000    0.000 
#
# Total GULP energy -201554.580607 kJ/mol
# GULP energy per Si atom -5598.738350 kJ/mol
# Density = 2.140147 g / cm^3
# Si number density = 21.450293 Si / 1000 Ang^3
#
#
#
# Elastic Constant Matrix: (Units=GPa)
#
#
# Indices 1 2 3 4 5 6 
#
# 1 44.9816 -2.9124 -6.4958 0.0000 0.0000 0.0000
# 2 -2.9124 99.8148 20.5572 0.0000 0.0000 0.0000
# 3 -6.4958 20.5572 77.8032 0.0000 0.0000 0.0000
# 4 0.0000 0.0000 0.0000 384.9072 0.0000 0.0000
# 5 0.0000 0.0000 0.0000 0.0000 31.9737 0.0000
# 6 0.0000 0.0000 0.0000 0.0000 0.0000 25.7709
#
#
#
# Elastic Compliance Matrix: (Units=1/GPa)
#
#
# Indices 1 2 3 4 5 6 
#
# 1 0.022510 0.000285 0.001804 0.000000 0.000000 0.000000
# 2 0.000285 0.010599 -0.002777 0.000000 0.000000 0.000000
# 3 0.001804 -0.002777 0.013737 0.000000 0.000000 0.000000
# 4 0.000000 0.000000 0.000000 0.002598 0.000000 0.000000
# 5 0.000000 0.000000 0.000000 0.000000 0.031276 0.000000
# 6 0.000000 0.000000 0.000000 0.000000 0.000000 0.038803
#
#
# Mechanical properties :
#
#
# Convention : Reuss Voigt Hill
#
# Bulk Modulus (GPa) = 21.99174 27.21084 24.60129
# Shear Modulus (GPa) = 36.74978 102.62707 69.68842
#
# Velocity S-wave (km/s) = 4.14364 6.92445 5.70604
# Velocity P-wave (km/s) = 5.75914 8.75464 7.40984
#
# Compressibility (1/GPa) = 0.04547163
#
# Stress axis : x y z
#
# Youngs Moduli (GPa) = 44.42409 94.35098 72.79511
#
# Poissons Ratio (x) = -0.02691 -0.13132
# Poissons Ratio (y) = -0.01267 0.20212
# Poissons Ratio (z) = -0.08014 0.26197
#
# Static dielectric constant tensor:
#      x y z
#    x 1.773420 0.000000 0.000000 
#    y 0.000000 1.771880 0.000000 
#    z 0.000000 0.000000 1.732670 
# 
# From -- ./inp_files/22873.got.cif
#   From: 2010.05.17/outbox.cif.g08.bks.cpg/sg69_12_cif.got.tgz:22873.got - 2010.06.03 19:29:58.
