data_PCOD9512315
_publ_section_title
;
Structure prediction by ZEFSAII (Michael W. Deem and Ramdas Pophale) SiO2 
 PCOD9512315
Probable space group: F M M M
;
_chemical_formula_sum "Si O2"
_cell_formula_units_Z 160
_cell_length_a 8.637657
_cell_length_b 34.277014
_cell_length_c 29.547706
_cell_angle_alpha 90.000000
_cell_angle_beta 90.000000
_cell_angle_gamma 90.000000
_cell_volume 8748.280615
_symmetry_space_group_name_H-M "F M M M"
_symmetry_group_IT_number 69
_symmetry_cell_setting 'orthorhombic'
loop_
_space_group_symop_operation_xyz
x,y,z
-x,-y,z
x,-y,-z
-x,y,-z
-x,-y,-z
x,y,-z
-x,y,z
x,-y,z
x,1/2+y,1/2+z
-x,1/2-y,1/2+z
x,1/2-y,1/2-z
-x,1/2+y,1/2-z
-x,1/2-y,1/2-z
x,1/2+y,1/2-z
-x,1/2+y,1/2+z
x,1/2-y,1/2+z
1/2+x,y,1/2+z
1/2-x,-y,1/2+z
1/2+x,-y,1/2-z
1/2-x,y,1/2-z
1/2-x,-y,1/2-z
1/2+x,y,1/2-z
1/2-x,y,1/2+z
1/2+x,-y,1/2+z
1/2+x,1/2+y,z
1/2-x,1/2-y,z
1/2+x,1/2-y,-z
1/2-x,1/2+y,-z
1/2-x,1/2-y,-z
1/2+x,1/2+y,-z
1/2-x,1/2+y,z
1/2+x,1/2-y,z
loop_
_atom_site_type_symbol
_atom_site_label
_atom_site_fract_x
_atom_site_fract_y
_atom_site_fract_z
Si Si1 0.687016 0.354512 0.125179
Si Si2 0.186451 0.500000 0.446950
Si Si3 0.185082 0.708674 0.699695
Si Si4 0.186385 0.791519 0.052074
Si Si5 0.685440 0.000000 0.698986
Si Si6 0.315509 0.441156 0.625818
O O1 0.500000 0.359718 0.124271
O O2 0.726741 0.327664 0.168239
O O3 0.733495 0.328075 0.082316
O O4 0.766211 0.396269 0.125794
O O5 0.230850 0.500000 0.500000
O O6 0.249916 0.536926 0.418691
O O7 0.000000 0.500000 0.444459
O O8 0.250000 0.703405 0.750000
O O9 0.250000 0.750000 0.682241
O O10 0.000000 0.711630 0.701174
O O11 0.250000 0.750000 0.068637
O O12 0.000000 0.789540 0.053497
O O13 0.236057 0.796249 0.000000
O O14 0.750000 0.000000 0.750000
O O15 0.744854 0.963187 0.669529
O O16 0.500000 0.000000 0.700042
O O17 0.500000 0.445493 0.626778
#
# Coordination Sequence:
#
# PCOD9512315 Si02
#       6
#    32  16  32  32  16  32
#     4  10  21  36  53  77 110 146 182 224 274 326
#     4  10  21  40  65  86 110 148 185 222 275 335
#     4  10  20  34  53  75 104 141 183 229 273 323
#     4   9  18  33  53  76 104 140 182 226 273 327
#     4  11  22  41  66  87 113 147 182 222 273 333
#     4  11  23  38  58  87 118 146 183 230 276 328
#
# _framework density 18.289308999999999
#
# number of rings (size 3 to 8) (size 9 to 14) (size 15 to 20)
#    0.000    1.900    0.000    6.000    0.000    4.800 
#    0.000    4.000    0.000    0.000    0.000    0.000 
#    0.000    0.000    0.000    0.000    0.000    0.000 
#
# Total GULP energy -223401.721137 kJ/mol
# GULP energy per Si atom -5585.043028 kJ/mol
# Density = 1.824768 g / cm^3
# Si number density = 18.289309 Si / 1000 Ang^3
#
#
#
# Elastic Constant Matrix: (Units=GPa)
#
#
# Indices 1 2 3 4 5 6 
#
# 1 89.5435 65.1476 59.9968 0.0000 0.0000 0.0000
# 2 65.1476 188.8716 96.3272 0.0000 0.0000 0.0000
# 3 59.9968 96.3272 152.9710 0.0000 0.0000 0.0000
# 4 0.0000 0.0000 0.0000 -32.8005 0.0000 0.0000
# 5 0.0000 0.0000 0.0000 0.0000 21.1544 0.0000
# 6 0.0000 0.0000 0.0000 0.0000 0.0000 32.3623
#
#
#
# Elastic Compliance Matrix: (Units=1/GPa)
#
#
# Indices 1 2 3 4 5 6 
#
# 1 0.016619 -0.003547 -0.004284 0.000000 0.000000 0.000000
# 2 -0.003547 0.008557 -0.003997 0.000000 0.000000 0.000000
# 3 -0.004284 -0.003997 0.010734 0.000000 0.000000 0.000000
# 4 0.000000 0.000000 0.000000 -0.030487 0.000000 0.000000
# 5 0.000000 0.000000 0.000000 0.000000 0.047271 0.000000
# 6 0.000000 0.000000 0.000000 0.000000 0.000000 0.030900
#
#
# Mechanical properties :
#
#
# Convention : Reuss Voigt Hill
#
# Bulk Modulus (GPa) = 81.61246 97.14772 89.38009
# Shear Modulus (GPa) = 44.90881 18.13753 31.52317
#
# Velocity S-wave (km/s) = 4.96064 3.15255 4.15611
# Velocity P-wave (km/s) = 8.80514 8.15377 8.48571
#
# Compressibility (1/GPa) = 0.01225303
#
# Stress axis : x y z
#
# Youngs Moduli (GPa) = 60.17069 116.86777 93.15777
#
# Poissons Ratio (x) = 0.41458 0.39913
# Poissons Ratio (y) = 0.21345 0.37234
# Poissons Ratio (z) = 0.25780 0.46711
#
# Static dielectric constant tensor:
#      x y z
#    x 1.618390 0.000000 0.000000 
#    y 0.000000 1.598300 0.000000 
#    z 0.000000 0.000000 1.630760 
# 
# From -- ./inp_files/44618.got.cif
#   From: 2010.05.17/outbox.cif.g08.bks.cpg/sg69_23_cif.got.tgz:44618.got - 2010.06.03 19:29:58.
