data_PCOD9512643
_publ_section_title
;
Structure prediction by ZEFSAII (Michael W. Deem and Ramdas Pophale) SiO2 
 PCOD9512643
Probable space group: F M M M
;
_chemical_formula_sum "Si O2"
_cell_formula_units_Z 176
_cell_length_a 14.902594
_cell_length_b 21.926942
_cell_length_c 27.560928
_cell_angle_alpha 90.000000
_cell_angle_beta 90.000000
_cell_angle_gamma 90.000000
_cell_volume 9006.037983
_symmetry_space_group_name_H-M "F M M M"
_symmetry_group_IT_number 69
_symmetry_cell_setting 'orthorhombic'
loop_
_space_group_symop_operation_xyz
x,y,z
-x,-y,z
x,-y,-z
-x,y,-z
-x,-y,-z
x,y,-z
-x,y,z
x,-y,z
x,1/2+y,1/2+z
-x,1/2-y,1/2+z
x,1/2-y,1/2-z
-x,1/2+y,1/2-z
-x,1/2-y,1/2-z
x,1/2+y,1/2-z
-x,1/2+y,1/2+z
x,1/2-y,1/2+z
1/2+x,y,1/2+z
1/2-x,-y,1/2+z
1/2+x,-y,1/2-z
1/2-x,y,1/2-z
1/2-x,-y,1/2-z
1/2+x,y,1/2-z
1/2-x,y,1/2+z
1/2+x,-y,1/2+z
1/2+x,1/2+y,z
1/2-x,1/2-y,z
1/2+x,1/2-y,-z
1/2-x,1/2+y,-z
1/2-x,1/2-y,-z
1/2+x,1/2+y,-z
1/2-x,1/2+y,z
1/2+x,1/2-y,z
loop_
_atom_site_type_symbol
_atom_site_label
_atom_site_fract_x
_atom_site_fract_y
_atom_site_fract_z
Si Si1 0.721941 0.927147 0.092031
Si Si2 0.400282 0.361388 0.057730
Si Si3 0.851909 0.765341 0.130291
Si Si4 0.896598 0.866220 0.328110
Si Si5 0.602574 0.425758 0.500000
Si Si6 0.108142 0.315304 0.271653
O O1 0.819346 0.899442 0.081134
O O2 0.673241 0.904116 0.140445
O O3 0.656808 0.907054 0.047769
O O4 0.727653 0.000000 0.091864
O O5 0.500000 0.387733 0.066082
O O6 0.396840 0.295906 0.084078
O O7 0.386532 0.356981 0.000000
O O8 0.750000 0.750000 0.118255
O O9 0.894939 0.703237 0.150836
O O10 0.853774 0.814724 0.174347
O O11 0.870113 0.862246 0.271198
O O12 0.000000 0.888115 0.331990
O O13 0.600452 0.500000 0.500000
O O14 0.500000 0.404126 0.500000
O O15 0.136800 0.250000 0.250000
O O16 0.000000 0.315259 0.276199
#
# Coordination Sequence:
#
# PCOD9512643 Si02
#       6
#    32  32  32  32  16  32
#     4  11  22  39  60  88 119 154 207 255 297 359
#     4  11  24  42  62  85 118 159 203 257 312 361
#     4  11  20  36  61  90 122 158 197 247 301 360
#     4  10  20  36  58  90 126 160 193 237 299 364
#     4   9  18  34  57  82 113 151 193 245 296 349
#     4   8  16  31  54  84 117 152 193 231 275 347
#
# _framework density 19.542445000000001
#
# number of rings (size 3 to 8) (size 9 to 14) (size 15 to 20)
#    0.000    1.909    2.727    3.273    0.000    5.091 
#    1.636    0.909    0.000    2.182    0.000    2.545 
#    0.000    0.000    0.000    0.000    0.000    0.000 
#
# Total GULP energy -245515.846240 kJ/mol
# GULP energy per Si atom -5579.905596 kJ/mol
# Density = 1.949797 g / cm^3
# Si number density = 19.542445 Si / 1000 Ang^3
#
#
#
# Elastic Constant Matrix: (Units=GPa)
#
#
# Indices 1 2 3 4 5 6 
#
# 1 137.7337 24.8540 55.1663 0.0000 0.0000 0.0000
# 2 24.8540 36.1172 28.3361 0.0000 0.0000 0.0000
# 3 55.1663 28.3361 91.4329 0.0000 0.0000 0.0000
# 4 0.0000 0.0000 0.0000 21.4870 0.0000 0.0000
# 5 0.0000 0.0000 0.0000 0.0000 25.3773 0.0000
# 6 0.0000 0.0000 0.0000 0.0000 0.0000 15.4388
#
#
#
# Elastic Compliance Matrix: (Units=1/GPa)
#
#
# Indices 1 2 3 4 5 6 
#
# 1 0.009780 -0.002775 -0.005041 0.000000 0.000000 0.000000
# 2 -0.002775 0.037370 -0.009907 0.000000 0.000000 0.000000
# 3 -0.005041 -0.009907 0.017049 0.000000 0.000000 0.000000
# 4 0.000000 0.000000 0.000000 0.046540 0.000000 0.000000
# 5 0.000000 0.000000 0.000000 0.000000 0.039405 0.000000
# 6 0.000000 0.000000 0.000000 0.000000 0.000000 0.064772
#
#
# Mechanical properties :
#
#
# Convention : Reuss Voigt Hill
#
# Bulk Modulus (GPa) = 34.77930 53.55519 44.16724
# Shear Modulus (GPa) = 19.23476 22.92245 21.07860
#
# Velocity S-wave (km/s) = 3.14069 3.42856 3.28778
# Velocity P-wave (km/s) = 5.56663 6.56791 6.08789
#
# Compressibility (1/GPa) = 0.02875274
#
# Stress axis : x y z
#
# Youngs Moduli (GPa) = 102.24761 26.75939 58.65597
#
# Poissons Ratio (x) = 0.07427 0.29567
# Poissons Ratio (y) = 0.28378 0.58109
# Poissons Ratio (z) = 0.51540 0.26510
#
# Static dielectric constant tensor:
#      x y z
#    x 1.699440 0.000000 0.000000 
#    y 0.000000 1.674470 0.000000 
#    z 0.000000 0.000000 1.700330 
# 
# From -- ./inp_files/17913.got.cif
#   From: 2010.05.17/outbox.cif.g08.bks.cpg/sg69_9_cif.got.tgz:17913.got - 2010.06.03 19:29:58.
