data_PCOD9512282
_publ_section_title
;
Structure prediction by ZEFSAII (Michael W. Deem and Ramdas Pophale) SiO2 
 PCOD9512282
Probable space group: F M M M
;
_chemical_formula_sum "Si O2"
_cell_formula_units_Z 176
_cell_length_a 30.610844
_cell_length_b 11.068789
_cell_length_c 28.967550
_cell_angle_alpha 90.000000
_cell_angle_beta 90.000000
_cell_angle_gamma 90.000000
_cell_volume 9814.929357
_symmetry_space_group_name_H-M "F M M M"
_symmetry_group_IT_number 69
_symmetry_cell_setting 'orthorhombic'
loop_
_space_group_symop_operation_xyz
x,y,z
-x,-y,z
x,-y,-z
-x,y,-z
-x,-y,-z
x,y,-z
-x,y,z
x,-y,z
x,1/2+y,1/2+z
-x,1/2-y,1/2+z
x,1/2-y,1/2-z
-x,1/2+y,1/2-z
-x,1/2-y,1/2-z
x,1/2+y,1/2-z
-x,1/2+y,1/2+z
x,1/2-y,1/2+z
1/2+x,y,1/2+z
1/2-x,-y,1/2+z
1/2+x,-y,1/2-z
1/2-x,y,1/2-z
1/2-x,-y,1/2-z
1/2+x,y,1/2-z
1/2-x,y,1/2+z
1/2+x,-y,1/2+z
1/2+x,1/2+y,z
1/2-x,1/2-y,z
1/2+x,1/2-y,-z
1/2-x,1/2+y,-z
1/2-x,1/2-y,-z
1/2+x,1/2+y,-z
1/2-x,1/2+y,z
1/2+x,1/2-y,z
loop_
_atom_site_type_symbol
_atom_site_label
_atom_site_fract_x
_atom_site_fract_y
_atom_site_fract_z
Si Si1 0.932483 0.000000 0.555716
Si Si2 0.949191 0.640909 0.286469
Si Si3 0.283150 0.136552 0.500000
Si Si4 0.800480 0.748746 0.407056
Si Si5 0.116371 0.359808 0.371292
Si Si6 0.951608 0.270471 0.444656
Si Si7 0.831931 0.500000 0.944866
O O1 0.951942 0.871407 0.569416
O O2 0.934999 0.000000 0.500000
O O3 0.882200 0.000000 0.570555
O O4 0.942964 0.500000 0.269910
O O5 0.943297 0.750000 0.250000
O O6 0.915581 0.661932 0.328092
O O7 0.000000 0.647567 0.302097
O O8 0.250000 0.250000 0.500000
O O9 0.306744 0.158795 0.451189
O O10 0.265645 0.000000 0.500000
O O11 0.750000 0.750000 0.391158
O O12 0.838797 0.715397 0.371905
O O13 0.809083 0.881326 0.426631
O O14 0.128253 0.500000 0.371222
O O15 0.087251 0.330263 0.416370
O O16 0.944152 0.277103 0.500000
O O17 0.000000 0.321763 0.435202
O O18 0.832999 0.500000 0.000000
#
# Coordination Sequence:
#
# PCOD9512282 Si02
#       7
#    16  32  16  32  32  32  16
#     4   9  17  32  49  68 100 145 192 233 282 319
#     4   9  19  40  68  93 119 147 180 230 291 351
#     4  10  22  34  52  76 105 150 205 251 293 338
#     4  11  24  35  55  77 113 152 203 247 295 339
#     4  11  23  38  56  83 116 151 188 234 288 347
#     4  10  20  34  51  75 110 153 192 229 272 335
#     4  11  20  35  52  75 106 154 202 261 298 325
#
# _framework density 17.931865999999999
#
# number of rings (size 3 to 8) (size 9 to 14) (size 15 to 20)
#    0.000    1.818    2.727    1.364    7.636    2.545 
#    3.273    0.909    0.000    0.545    0.000    2.545 
#    0.000    0.000    0.000    0.000    0.000    0.000 
#
# Total GULP energy -245304.190558 kJ/mol
# GULP energy per Si atom -5575.095240 kJ/mol
# Density = 1.789105 g / cm^3
# Si number density = 17.931866 Si / 1000 Ang^3
#
#
#
# Elastic Constant Matrix: (Units=GPa)
#
#
# Indices 1 2 3 4 5 6 
#
# 1 140.0064 50.9139 44.4361 0.0000 0.0000 0.0000
# 2 50.9139 105.8458 37.2772 0.0000 0.0000 0.0000
# 3 44.4361 37.2772 48.1112 0.0000 0.0000 0.0000
# 4 0.0000 0.0000 0.0000 19.4243 0.0000 0.0000
# 5 0.0000 0.0000 0.0000 0.0000 20.8017 0.0000
# 6 0.0000 0.0000 0.0000 0.0000 0.0000 9.1447
#
#
#
# Elastic Compliance Matrix: (Units=1/GPa)
#
#
# Indices 1 2 3 4 5 6 
#
# 1 0.010478 -0.002244 -0.007939 0.000000 0.000000 0.000000
# 2 -0.002244 0.013474 -0.008367 0.000000 0.000000 0.000000
# 3 -0.007939 -0.008367 0.034601 0.000000 0.000000 0.000000
# 4 0.000000 0.000000 0.000000 0.051482 0.000000 0.000000
# 5 0.000000 0.000000 0.000000 0.000000 0.048073 0.000000
# 6 0.000000 0.000000 0.000000 0.000000 0.000000 0.109352
#
#
# Mechanical properties :
#
#
# Convention : Reuss Voigt Hill
#
# Bulk Modulus (GPa) = 46.61490 62.13530 54.37510
# Shear Modulus (GPa) = 16.04045 20.62988 18.33517
#
# Velocity S-wave (km/s) = 2.99410 3.39552 3.20111
# Velocity P-wave (km/s) = 6.16481 7.07805 6.63715
#
# Compressibility (1/GPa) = 0.02145237
#
# Stress axis : x y z
#
# Youngs Moduli (GPa) = 95.43393 74.21719 28.90119
#
# Poissons Ratio (x) = 0.16657 0.22945
# Poissons Ratio (y) = 0.21418 0.24181
# Poissons Ratio (z) = 0.75766 0.62097
#
# Static dielectric constant tensor:
#      x y z
#    x 1.658480 0.000000 0.000000 
#    y 0.000000 1.639660 0.000000 
#    z 0.000000 0.000000 1.611710 
# 
# From -- ./inp_files/43911.got.cif
#   From: 2010.05.17/outbox.cif.g08.bks.cpg/sg69_22_cif.got.tgz:43911.got - 2010.06.03 19:29:58.
