data_PCOD9512303
_publ_section_title
;
Structure prediction by ZEFSAII (Michael W. Deem and Ramdas Pophale) SiO2 
 PCOD9512303
Probable space group: F M M M
;
_chemical_formula_sum "Si O2"
_cell_formula_units_Z 144
_cell_length_a 8.936674
_cell_length_b 27.478613
_cell_length_c 32.149961
_cell_angle_alpha 90.000000
_cell_angle_beta 90.000000
_cell_angle_gamma 90.000000
_cell_volume 7894.982537
_symmetry_space_group_name_H-M "F M M M"
_symmetry_group_IT_number 69
_symmetry_cell_setting 'orthorhombic'
loop_
_space_group_symop_operation_xyz
x,y,z
-x,-y,z
x,-y,-z
-x,y,-z
-x,-y,-z
x,y,-z
-x,y,z
x,-y,z
x,1/2+y,1/2+z
-x,1/2-y,1/2+z
x,1/2-y,1/2-z
-x,1/2+y,1/2-z
-x,1/2-y,1/2-z
x,1/2+y,1/2-z
-x,1/2+y,1/2+z
x,1/2-y,1/2+z
1/2+x,y,1/2+z
1/2-x,-y,1/2+z
1/2+x,-y,1/2-z
1/2-x,y,1/2-z
1/2-x,-y,1/2-z
1/2+x,y,1/2-z
1/2-x,y,1/2+z
1/2+x,-y,1/2+z
1/2+x,1/2+y,z
1/2-x,1/2-y,z
1/2+x,1/2-y,-z
1/2-x,1/2+y,-z
1/2-x,1/2-y,-z
1/2+x,1/2+y,-z
1/2-x,1/2+y,z
1/2+x,1/2-y,z
loop_
_atom_site_type_symbol
_atom_site_label
_atom_site_fract_x
_atom_site_fract_y
_atom_site_fract_z
Si Si1 0.678859 0.555764 0.880724
Si Si2 0.821756 0.197679 0.330444
Si Si3 0.321790 0.303333 0.000000
Si Si4 0.677270 0.851023 0.919556
Si Si5 0.322063 0.602516 0.792378
O O1 0.500000 0.562025 0.887193
O O2 0.718148 0.500000 0.889506
O O3 0.767053 0.595131 0.907687
O O4 0.708473 0.568785 0.832390
O O5 0.750000 0.250000 0.322230
O O6 0.794209 0.181974 0.378535
O O7 0.748452 0.155093 0.303100
O O8 0.000000 0.198844 0.323781
O O9 0.250000 0.250000 0.000000
O O10 0.264983 0.330781 0.958938
O O11 0.500000 0.299764 0.000000
O O12 0.500000 0.850511 0.927594
O O13 0.500000 0.607076 0.787782
O O14 0.250000 0.583735 0.750000
#
# Coordination Sequence:
#
# PCOD9512303 Si02
#       5
#    32  32  16  32  32
#     4   9  19  37  59  81 108 144 182 222 273 327
#     4  10  20  34  53  76 104 140 179 219 267 322
#     4  12  24  38  59  86 117 150 182 219 263 315
#     4  10  21  37  57  83 113 143 180 225 270 319
#     4  10  20  34  52  76 107 140 178 224 270 320
#
# _framework density 18.239432000000001
#
# number of rings (size 3 to 8) (size 9 to 14) (size 15 to 20)
#    0.000    2.000    0.000    3.667    0.000    6.667 
#    0.000    2.778    0.000    3.333    0.000    0.000 
#    0.000    0.000    0.000    0.000    0.000    0.000 
#
# Total GULP energy -201140.256846 kJ/mol
# GULP energy per Si atom -5587.229357 kJ/mol
# Density = 1.819792 g / cm^3
# Si number density = 18.239432 Si / 1000 Ang^3
#
#
#
# Elastic Constant Matrix: (Units=GPa)
#
#
# Indices 1 2 3 4 5 6 
#
# 1 80.6487 32.9802 53.1306 0.0000 0.0000 0.0000
# 2 32.9802 85.1027 17.1442 0.0000 0.0000 0.0000
# 3 53.1306 17.1442 85.4724 0.0000 0.0000 0.0000
# 4 0.0000 0.0000 0.0000 5.3044 0.0000 0.0000
# 5 0.0000 0.0000 0.0000 0.0000 33.6565 0.0000
# 6 0.0000 0.0000 0.0000 0.0000 0.0000 29.2111
#
#
#
# Elastic Compliance Matrix: (Units=1/GPa)
#
#
# Indices 1 2 3 4 5 6 
#
# 1 0.024085 -0.006584 -0.013651 0.000000 0.000000 0.000000
# 2 -0.006584 0.014045 0.001275 0.000000 0.000000 0.000000
# 3 -0.013651 0.001275 0.019929 0.000000 0.000000 0.000000
# 4 0.000000 0.000000 0.000000 0.188522 0.000000 0.000000
# 5 0.000000 0.000000 0.000000 0.000000 0.029712 0.000000
# 6 0.000000 0.000000 0.000000 0.000000 0.000000 0.034234
#
#
# Mechanical properties :
#
#
# Convention : Reuss Voigt Hill
#
# Bulk Modulus (GPa) = 49.65041 50.85930 50.25485
# Shear Modulus (GPa) = 14.07823 23.49901 18.78862
#
# Velocity S-wave (km/s) = 2.78125 3.59327 3.21301
# Velocity P-wave (km/s) = 6.13142 6.72014 6.43252
#
# Compressibility (1/GPa) = 0.02014082
#
# Stress axis : x y z
#
# Youngs Moduli (GPa) = 41.51999 71.19981 50.17719
#
# Poissons Ratio (x) = 0.46876 0.68496
# Poissons Ratio (y) = 0.27335 -0.06399
# Poissons Ratio (z) = 0.56678 -0.09080
#
# Static dielectric constant tensor:
#      x y z
#    x 1.604840 0.000000 0.000000 
#    y 0.000000 1.594120 0.000000 
#    z 0.000000 0.000000 1.619520 
# 
# From -- ./inp_files/5537.got.cif
#   From: 2010.05.17/outbox.cif.g08.bks.cpg/sg69_3_cif.got.tgz:5537.got - 2010.06.03 19:29:58.
