data_PCOD9512712
_publ_section_title
;
Structure prediction by ZEFSAII (Michael W. Deem and Ramdas Pophale) SiO2 
 PCOD9512712
Probable space group: F M M M
;
_chemical_formula_sum "Si O2"
_cell_formula_units_Z 80
_cell_length_a 19.808142
_cell_length_b 9.494255
_cell_length_c 19.097375
_cell_angle_alpha 90.000000
_cell_angle_beta 90.000000
_cell_angle_gamma 90.000000
_cell_volume 3591.520162
_symmetry_space_group_name_H-M "F M M M"
_symmetry_group_IT_number 69
_symmetry_cell_setting 'orthorhombic'
loop_
_space_group_symop_operation_xyz
x,y,z
-x,-y,z
x,-y,-z
-x,y,-z
-x,-y,-z
x,y,-z
-x,y,z
x,-y,z
x,1/2+y,1/2+z
-x,1/2-y,1/2+z
x,1/2-y,1/2-z
-x,1/2+y,1/2-z
-x,1/2-y,1/2-z
x,1/2+y,1/2-z
-x,1/2+y,1/2+z
x,1/2-y,1/2+z
1/2+x,y,1/2+z
1/2-x,-y,1/2+z
1/2+x,-y,1/2-z
1/2-x,y,1/2-z
1/2-x,-y,1/2-z
1/2+x,y,1/2-z
1/2-x,y,1/2+z
1/2+x,-y,1/2+z
1/2+x,1/2+y,z
1/2-x,1/2-y,z
1/2+x,1/2-y,-z
1/2-x,1/2+y,-z
1/2-x,1/2-y,-z
1/2+x,1/2+y,-z
1/2-x,1/2+y,z
1/2+x,1/2-y,z
loop_
_atom_site_type_symbol
_atom_site_label
_atom_site_fract_x
_atom_site_fract_y
_atom_site_fract_z
Si Si1 0.000000 0.748276 0.500000
Si Si2 0.150434 0.159906 0.000000
Si Si3 0.250000 0.750000 0.250000
Si Si4 0.000000 0.656960 0.153639
Si Si5 0.353826 0.662594 0.362401
O O1 0.931518 0.659744 0.500000
O O2 0.000000 0.841560 0.430845
O O3 0.167796 0.245010 0.070634
O O4 0.176442 0.000000 0.000000
O O5 0.298770 0.665850 0.301864
O O6 0.926002 0.720257 0.167359
O O7 0.000000 0.500000 0.184277
O O8 0.364906 0.500000 0.384422
#
# Coordination Sequence:
#
# PCOD9512712 Si02
#       5
#     8  16   8  16  32
#     4   8  14  28  54  92 127 148 181 242 307 358
#     4  10  20  36  63  95 123 154 196 248 303 359
#     4  12  26  40  60  86 122 164 208 254 298 348
#     4   8  15  32  60  89 116 152 198 244 294 355
#     4  10  22  41  64  90 122 160 201 247 301 360
#
# _framework density 22.27469
#
# number of rings (size 3 to 8) (size 9 to 14) (size 15 to 20)
#    0.000    2.400    0.000    1.800    0.000    9.600 
#    0.000    0.000    0.000    4.800    0.000    0.000 
#    0.000    0.000    0.000    0.000    0.000    0.000 
#
# Total GULP energy -111503.916747 kJ/mol
# GULP energy per Si atom -5575.195837 kJ/mol
# Density = 2.222399 g / cm^3
# Si number density = 22.274690 Si / 1000 Ang^3
#
#
#
# Elastic Constant Matrix: (Units=GPa)
#
#
# Indices 1 2 3 4 5 6 
#
# 1 140.0862 17.2041 50.4639 0.0000 0.0000 0.0000
# 2 17.2041 109.9816 49.8577 0.0000 0.0000 0.0000
# 3 50.4639 49.8577 136.5151 0.0000 0.0000 0.0000
# 4 0.0000 0.0000 0.0000 -2.8644 0.0000 0.0000
# 5 0.0000 0.0000 0.0000 0.0000 46.5917 0.0000
# 6 0.0000 0.0000 0.0000 0.0000 0.0000 -4.3562
#
#
#
# Elastic Compliance Matrix: (Units=1/GPa)
#
#
# Indices 1 2 3 4 5 6 
#
# 1 0.008236 0.000110 -0.003085 0.000000 0.000000 0.000000
# 2 0.000110 0.010898 -0.004021 0.000000 0.000000 0.000000
# 3 -0.003085 -0.004021 0.009934 0.000000 0.000000 0.000000
# 4 0.000000 0.000000 0.000000 -0.349111 0.000000 0.000000
# 5 0.000000 0.000000 0.000000 0.000000 0.021463 0.000000
# 6 0.000000 0.000000 0.000000 0.000000 0.000000 -0.229558
#
#
# Mechanical properties :
#
#
# Convention : Reuss Voigt Hill
#
# Bulk Modulus (GPa) = 66.32586 69.07047 67.69817
# Shear Modulus (GPa) = -9.82084 25.81137 7.99527
#
# Velocity S-wave (km/s) = -2.10203 3.40777 1.89663
# Velocity P-wave (km/s) = 4.89383 6.82347 5.93756
#
# Compressibility (1/GPa) = 0.01507708
#
# Stress axis : x y z
#
# Youngs Moduli (GPa) = 121.41545 91.76032 100.66471
#
# Poissons Ratio (x) = -0.01010 0.31053
# Poissons Ratio (y) = -0.01336 0.40475
# Poissons Ratio (z) = 0.37454 0.36895
#
# Static dielectric constant tensor:
#      x y z
#    x 1.929690 0.000000 0.000000 
#    y 0.000000 1.824360 0.000000 
#    z 0.000000 0.000000 1.783310 
# 
# From -- ./inp_files/23885.got.cif
#   From: 2010.05.17/outbox.cif.g08.bks.cpg/sg69_12_cif.got.tgz:23885.got - 2010.06.03 19:29:58.
