data_PCOD9512999
_publ_section_title
;
Structure prediction by ZEFSAII (Michael W. Deem and Ramdas Pophale) SiO2 
 PCOD9512999
Probable space group: F M M M
;
_chemical_formula_sum "Si O2"
_cell_formula_units_Z 128
_cell_length_a 9.721028
_cell_length_b 26.190531
_cell_length_c 27.282191
_cell_angle_alpha 90.000000
_cell_angle_beta 90.000000
_cell_angle_gamma 90.000000
_cell_volume 6946.015414
_symmetry_space_group_name_H-M "F M M M"
_symmetry_group_IT_number 69
_symmetry_cell_setting 'orthorhombic'
loop_
_space_group_symop_operation_xyz
x,y,z
-x,-y,z
x,-y,-z
-x,y,-z
-x,-y,-z
x,y,-z
-x,y,z
x,-y,z
x,1/2+y,1/2+z
-x,1/2-y,1/2+z
x,1/2-y,1/2-z
-x,1/2+y,1/2-z
-x,1/2-y,1/2-z
x,1/2+y,1/2-z
-x,1/2+y,1/2+z
x,1/2-y,1/2+z
1/2+x,y,1/2+z
1/2-x,-y,1/2+z
1/2+x,-y,1/2-z
1/2-x,y,1/2-z
1/2-x,-y,1/2-z
1/2+x,y,1/2-z
1/2-x,y,1/2+z
1/2+x,-y,1/2+z
1/2+x,1/2+y,z
1/2-x,1/2-y,z
1/2+x,1/2-y,-z
1/2-x,1/2+y,-z
1/2-x,1/2-y,-z
1/2+x,1/2+y,-z
1/2-x,1/2+y,z
1/2+x,1/2-y,z
loop_
_atom_site_type_symbol
_atom_site_label
_atom_site_fract_x
_atom_site_fract_y
_atom_site_fract_z
Si Si1 0.665644 0.886495 0.801225
Si Si2 0.655455 0.500000 0.703041
Si Si3 0.216776 0.638806 0.399652
Si Si4 0.500000 0.560836 0.940822
Si Si5 0.000000 0.217330 0.940720
Si Si6 0.000000 0.834865 0.557854
O O1 0.500000 0.874908 0.796576
O O2 0.750000 0.883711 0.750000
O O3 0.748982 0.855554 0.842182
O O4 0.674557 0.945195 0.821408
O O5 0.500000 0.500000 0.721816
O O6 0.750000 0.500000 0.750000
O O7 0.128563 0.589556 0.415639
O O8 0.131391 0.686800 0.420426
O O9 0.364710 0.637272 0.424310
O O10 0.500000 0.500000 0.933023
O O11 0.500000 0.570332 0.000000
O O12 0.000000 0.276013 0.924458
O O13 0.000000 0.214856 0.000000
O O14 0.000000 0.832335 0.500000
#
# Coordination Sequence:
#
# PCOD9512999 Si02
#       6
#    32  16  32  16  16  16
#     4  10  21  36  56  84 117 157 200 247 292 345
#     4   8  16  32  50  74 105 140 190 240 277 322
#     4  11  21  37  60  90 118 155 199 246 296 359
#     4  10  23  41  58  84 126 170 202 228 284 369
#     4  10  22  39  62  89 116 153 196 251 312 363
#     4  11  21  38  64  91 116 144 196 263 312 347
#
# _framework density 18.427831999999999
#
# number of rings (size 3 to 8) (size 9 to 14) (size 15 to 20)
#    0.000    1.875    1.250    3.750    5.250    2.000 
#    0.000    0.625    0.000    6.750    0.000    0.000 
#    0.000    0.000    0.000    0.000    0.000    0.000 
#
# Total GULP energy -178288.822201 kJ/mol
# GULP energy per Si atom -5571.525694 kJ/mol
# Density = 1.838589 g / cm^3
# Si number density = 18.427832 Si / 1000 Ang^3
#
#
#
# Elastic Constant Matrix: (Units=GPa)
#
#
# Indices 1 2 3 4 5 6 
#
# 1 155.1927 48.8698 55.5219 0.0000 0.0000 0.0000
# 2 48.8698 65.7722 29.2845 0.0000 0.0000 0.0000
# 3 55.5219 29.2845 103.5388 0.0000 0.0000 0.0000
# 4 0.0000 0.0000 0.0000 -2.6384 0.0000 0.0000
# 5 0.0000 0.0000 0.0000 0.0000 36.7245 0.0000
# 6 0.0000 0.0000 0.0000 0.0000 0.0000 3.5035
#
#
#
# Elastic Compliance Matrix: (Units=1/GPa)
#
#
# Indices 1 2 3 4 5 6 
#
# 1 0.009409 -0.005428 -0.003510 0.000000 0.000000 0.000000
# 2 -0.005428 0.020526 -0.002895 0.000000 0.000000 0.000000
# 3 -0.003510 -0.002895 0.012359 0.000000 0.000000 0.000000
# 4 0.000000 0.000000 0.000000 -0.379021 0.000000 0.000000
# 5 0.000000 0.000000 0.000000 0.000000 0.027230 0.000000
# 6 0.000000 0.000000 0.000000 0.000000 0.000000 0.285429
#
#
# Mechanical properties :
#
#
# Convention : Reuss Voigt Hill
#
# Bulk Modulus (GPa) = 53.68217 65.76179 59.72198
# Shear Modulus (GPa) = 861.13579 20.23976 440.68777
#
# Velocity S-wave (km/s) = 21.64062 3.31769 15.48101
# Velocity P-wave (km/s) = 25.56591 7.10209 18.76240
#
# Compressibility (1/GPa) = 0.01862816
#
# Stress axis : x y z
#
# Youngs Moduli (GPa) = 106.28568 48.71894 80.91121
#
# Poissons Ratio (x) = 0.26444 0.28401
# Poissons Ratio (y) = 0.57691 0.23422
# Poissons Ratio (z) = 0.37307 0.14103
#
# Static dielectric constant tensor:
#      x y z
#    x 1.666790 0.000000 0.000000 
#    y 0.000000 1.672480 0.000000 
#    z 0.000000 0.000000 1.671050 
# 
# From -- ./inp_files/44404.got.cif
#   From: 2010.05.17/outbox.cif.g08.bks.cpg/sg69_23_cif.got.tgz:44404.got - 2010.06.03 19:29:58.
