data_PCOD9512146
_publ_section_title
;
Structure prediction by ZEFSAII (Michael W. Deem and Ramdas Pophale) SiO2 
 PCOD9512146
Probable space group: F M M M
;
_chemical_formula_sum "Si O2"
_cell_formula_units_Z 144
_cell_length_a 9.582665
_cell_length_b 28.060956
_cell_length_c 32.903587
_cell_angle_alpha 90.000000
_cell_angle_beta 90.000000
_cell_angle_gamma 90.000000
_cell_volume 8847.733116
_symmetry_space_group_name_H-M "F M M M"
_symmetry_group_IT_number 69
_symmetry_cell_setting 'orthorhombic'
loop_
_space_group_symop_operation_xyz
x,y,z
-x,-y,z
x,-y,-z
-x,y,-z
-x,-y,-z
x,y,-z
-x,y,z
x,-y,z
x,1/2+y,1/2+z
-x,1/2-y,1/2+z
x,1/2-y,1/2-z
-x,1/2+y,1/2-z
-x,1/2-y,1/2-z
x,1/2+y,1/2-z
-x,1/2+y,1/2+z
x,1/2-y,1/2+z
1/2+x,y,1/2+z
1/2-x,-y,1/2+z
1/2+x,-y,1/2-z
1/2-x,y,1/2-z
1/2-x,-y,1/2-z
1/2+x,y,1/2-z
1/2-x,y,1/2+z
1/2+x,-y,1/2+z
1/2+x,1/2+y,z
1/2-x,1/2-y,z
1/2+x,1/2-y,-z
1/2-x,1/2+y,-z
1/2-x,1/2-y,-z
1/2+x,1/2+y,-z
1/2-x,1/2+y,z
1/2+x,1/2-y,z
loop_
_atom_site_type_symbol
_atom_site_label
_atom_site_fract_x
_atom_site_fract_y
_atom_site_fract_z
Si Si1 0.160974 0.109798 0.431230
Si Si2 0.500000 0.442527 0.277318
Si Si3 0.706546 0.942674 0.151863
Si Si4 0.165131 0.298646 0.548887
Si Si5 0.000000 0.942319 0.185146
Si Si6 0.836289 0.442915 0.500000
O O1 0.155218 0.084819 0.387427
O O2 0.248331 0.158728 0.430629
O O3 0.250587 0.076457 0.461421
O O4 0.000000 0.117003 0.445239
O O5 0.500000 0.500000 0.273854
O O6 0.370320 0.430207 0.305998
O O7 0.500000 0.423831 0.231503
O O8 0.865339 0.929630 0.159774
O O9 0.690517 0.000000 0.146010
O O10 0.170273 0.307052 0.500000
O O11 0.250000 0.250000 0.556817
O O12 0.000000 0.296410 0.559944
O O13 0.000000 0.000000 0.188347
O O14 0.836723 0.500000 0.500000
O O15 0.000000 0.426924 0.500000
#
# Coordination Sequence:
#
# PCOD9512146 Si02
#       6
#    32  16  32  32  16  16
#     4  12  23  36  54  77 108 143 182 219 265 316
#     4   9  16  32  50  71 102 139 182 223 266 313
#     4  10  20  32  49  75 108 145 183 223 261 308
#     4  10  21  38  60  81 104 132 171 221 273 321
#     4   9  18  30  50  73 100 141 182 223 270 313
#     4  11  25  39  52  71 102 147 191 227 257 305
#
# _framework density 16.275355999999999
#
# number of rings (size 3 to 8) (size 9 to 14) (size 15 to 20)
#    0.000    1.667    2.222    3.000    3.111    5.333 
#    0.000    0.000    0.000    0.000    0.000    0.000 
#    0.000    5.333    0.000    0.000    0.000    0.000 
#
# Total GULP energy -200712.192458 kJ/mol
# GULP energy per Si atom -5575.338679 kJ/mol
# Density = 1.623831 g / cm^3
# Si number density = 16.275356 Si / 1000 Ang^3
#
#
#
# Elastic Constant Matrix: (Units=GPa)
#
#
# Indices 1 2 3 4 5 6 
#
# 1 162.7571 40.2863 31.9086 0.0000 0.0000 0.0000
# 2 40.2863 73.1767 28.1181 0.0000 0.0000 0.0000
# 3 31.9086 28.1181 69.4764 0.0000 0.0000 0.0000
# 4 0.0000 0.0000 0.0000 -1.7805 0.0000 0.0000
# 5 0.0000 0.0000 0.0000 0.0000 28.5853 0.0000
# 6 0.0000 0.0000 0.0000 0.0000 0.0000 22.4540
#
#
#
# Elastic Compliance Matrix: (Units=1/GPa)
#
#
# Indices 1 2 3 4 5 6 
#
# 1 0.007354 -0.003257 -0.002059 0.000000 0.000000 0.000000
# 2 -0.003257 0.017625 -0.005637 0.000000 0.000000 0.000000
# 3 -0.002059 -0.005637 0.017620 0.000000 0.000000 0.000000
# 4 0.000000 0.000000 0.000000 -0.561626 0.000000 0.000000
# 5 0.000000 0.000000 0.000000 0.000000 0.034983 0.000000
# 6 0.000000 0.000000 0.000000 0.000000 0.000000 0.044535
#
#
# Mechanical properties :
#
#
# Convention : Reuss Voigt Hill
#
# Bulk Modulus (GPa) = 48.32737 56.22624 52.27681
# Shear Modulus (GPa) = -12.17424 23.52491 5.67533
#
# Velocity S-wave (km/s) = -2.73796 3.80601 1.86940
# Velocity P-wave (km/s) = 4.44554 7.34412 6.07038
#
# Compressibility (1/GPa) = 0.02069221
#
# Stress axis : x y z
#
# Youngs Moduli (GPa) = 135.97790 56.73791 56.75215
#
# Poissons Ratio (x) = 0.18482 0.11686
# Poissons Ratio (y) = 0.44294 0.31991
# Poissons Ratio (z) = 0.28001 0.31983
#
# Static dielectric constant tensor:
#      x y z
#    x 1.618470 0.000000 0.000000 
#    y 0.000000 1.529490 0.000000 
#    z 0.000000 0.000000 1.528390 
# 
# From -- ./inp_files/5640.got.cif
#   From: 2010.05.17/outbox.cif.g08.bks.cpg/sg69_3_cif.got.tgz:5640.got - 2010.06.03 19:29:58.
