data_PCOD9512478
_publ_section_title
;
Structure prediction by ZEFSAII (Michael W. Deem and Ramdas Pophale) SiO2 
 PCOD9512478
Probable space group: F M M M
;
_chemical_formula_sum "Si O2"
_cell_formula_units_Z 112
_cell_length_a 19.172768
_cell_length_b 11.425873
_cell_length_c 24.845609
_cell_angle_alpha 90.000000
_cell_angle_beta 90.000000
_cell_angle_gamma 90.000000
_cell_volume 5442.818547
_symmetry_space_group_name_H-M "F M M M"
_symmetry_group_IT_number 69
_symmetry_cell_setting 'orthorhombic'
loop_
_space_group_symop_operation_xyz
x,y,z
-x,-y,z
x,-y,-z
-x,y,-z
-x,-y,-z
x,y,-z
-x,y,z
x,-y,z
x,1/2+y,1/2+z
-x,1/2-y,1/2+z
x,1/2-y,1/2-z
-x,1/2+y,1/2-z
-x,1/2-y,1/2-z
x,1/2+y,1/2-z
-x,1/2+y,1/2+z
x,1/2-y,1/2+z
1/2+x,y,1/2+z
1/2-x,-y,1/2+z
1/2+x,-y,1/2-z
1/2-x,y,1/2-z
1/2-x,-y,1/2-z
1/2+x,y,1/2-z
1/2-x,y,1/2+z
1/2+x,-y,1/2+z
1/2+x,1/2+y,z
1/2-x,1/2-y,z
1/2+x,1/2-y,-z
1/2-x,1/2+y,-z
1/2-x,1/2-y,-z
1/2+x,1/2+y,-z
1/2-x,1/2+y,z
1/2+x,1/2-y,z
loop_
_atom_site_type_symbol
_atom_site_label
_atom_site_fract_x
_atom_site_fract_y
_atom_site_fract_z
Si Si1 0.693217 0.643070 0.500000
Si Si2 0.423549 0.693899 0.190914
Si Si3 0.271186 0.123155 0.313190
Si Si4 0.422578 0.637416 0.409770
O O1 0.714140 0.500000 0.500000
O O2 0.750000 0.750000 0.500000
O O3 0.641717 0.661521 0.550899
O O4 0.500000 0.637900 0.185410
O O5 0.419921 0.750000 0.250000
O O6 0.354384 0.620020 0.183989
O O7 0.418302 0.793599 0.145800
O O8 0.250000 0.125199 0.250000
O O9 0.250000 0.250000 0.336224
O O10 0.242623 0.000000 0.336323
O O11 0.500000 0.664910 0.433452
O O12 0.421876 0.500000 0.398825
#
# Coordination Sequence:
#
# PCOD9512478 Si02
#       4
#    16  32  32  32
#     4  10  21  41  67  95 127 160 206 262 318 374
#     4  10  20  35  55  85 122 159 200 249 303 362
#     4  10  20  36  53  74 109 153 201 243 290 350
#     4   9  19  37  64  93 121 160 210 262 312 367
#
# _framework density 20.577573999999998
#
# number of rings (size 3 to 8) (size 9 to 14) (size 15 to 20)
#    0.000    2.286    2.857    0.429    0.000    5.714 
#    0.000    7.143    0.000    3.429    0.000    0.000 
#    0.000    0.000    0.000    0.000    0.000    0.000 
#
# Total GULP energy -155973.321082 kJ/mol
# GULP energy per Si atom -5570.475753 kJ/mol
# Density = 2.053074 g / cm^3
# Si number density = 20.577574 Si / 1000 Ang^3
#
#
#
# Elastic Constant Matrix: (Units=GPa)
#
#
# Indices 1 2 3 4 5 6 
#
# 1 154.9210 79.4104 35.4663 0.0000 0.0000 0.0000
# 2 79.4104 166.5543 48.3561 0.0000 0.0000 0.0000
# 3 35.4663 48.3561 97.9931 0.0000 0.0000 0.0000
# 4 0.0000 0.0000 0.0000 74.1691 0.0000 0.0000
# 5 0.0000 0.0000 0.0000 0.0000 69.4914 0.0000
# 6 0.0000 0.0000 0.0000 0.0000 0.0000 37.0163
#
#
#
# Elastic Compliance Matrix: (Units=1/GPa)
#
#
# Indices 1 2 3 4 5 6 
#
# 1 0.008679 -0.003765 -0.001283 0.000000 0.000000 0.000000
# 2 -0.003765 0.008642 -0.002902 0.000000 0.000000 0.000000
# 3 -0.001283 -0.002902 0.012101 0.000000 0.000000 0.000000
# 4 0.000000 0.000000 0.000000 0.013483 0.000000 0.000000
# 5 0.000000 0.000000 0.000000 0.000000 0.014390 0.000000
# 6 0.000000 0.000000 0.000000 0.000000 0.000000 0.027015
#
#
# Mechanical properties :
#
#
# Convention : Reuss Voigt Hill
#
# Bulk Modulus (GPa) = 73.95618 82.88157 78.41888
# Shear Modulus (GPa) = 47.74792 53.21773 50.48283
#
# Velocity S-wave (km/s) = 4.82226 5.09099 4.95845
# Velocity P-wave (km/s) = 8.18681 8.65578 8.42456
#
# Compressibility (1/GPa) = 0.01352152
#
# Stress axis : x y z
#
# Youngs Moduli (GPa) = 115.22472 115.71731 82.63794
#
# Poissons Ratio (x) = 0.43572 0.10602
# Poissons Ratio (y) = 0.43386 0.23978
# Poissons Ratio (z) = 0.14783 0.33577
#
# Static dielectric constant tensor:
#      x y z
#    x 1.803390 0.000000 0.000000 
#    y 0.000000 1.946740 0.000000 
#    z 0.000000 0.000000 1.694630 
# 
# From -- ./inp_files/41523.got.cif
#   From: 2010.05.17/outbox.cif.g08.bks.cpg/sg69_21_cif.got.tgz:41523.got - 2010.06.03 19:29:58.
