data_PCOD9512384
_publ_section_title
;
Structure prediction by ZEFSAII (Michael W. Deem and Ramdas Pophale) SiO2 
 PCOD9512384
Probable space group: F M M M
;
_chemical_formula_sum "Si O2"
_cell_formula_units_Z 208
_cell_length_a 27.063214
_cell_length_b 25.762516
_cell_length_c 17.244680
_cell_angle_alpha 90.000000
_cell_angle_beta 90.000000
_cell_angle_gamma 90.000000
_cell_volume 12023.275152
_symmetry_space_group_name_H-M "F M M M"
_symmetry_group_IT_number 69
_symmetry_cell_setting 'orthorhombic'
loop_
_space_group_symop_operation_xyz
x,y,z
-x,-y,z
x,-y,-z
-x,y,-z
-x,-y,-z
x,y,-z
-x,y,z
x,-y,z
x,1/2+y,1/2+z
-x,1/2-y,1/2+z
x,1/2-y,1/2-z
-x,1/2+y,1/2-z
-x,1/2-y,1/2-z
x,1/2+y,1/2-z
-x,1/2+y,1/2+z
x,1/2-y,1/2+z
1/2+x,y,1/2+z
1/2-x,-y,1/2+z
1/2+x,-y,1/2-z
1/2-x,y,1/2-z
1/2-x,-y,1/2-z
1/2+x,y,1/2-z
1/2-x,y,1/2+z
1/2+x,-y,1/2+z
1/2+x,1/2+y,z
1/2-x,1/2-y,z
1/2+x,1/2-y,-z
1/2-x,1/2+y,-z
1/2-x,1/2-y,-z
1/2+x,1/2+y,-z
1/2-x,1/2+y,z
1/2+x,1/2-y,z
loop_
_atom_site_type_symbol
_atom_site_label
_atom_site_fract_x
_atom_site_fract_y
_atom_site_fract_z
Si Si1 0.059394 0.500000 0.407652
Si Si2 0.304349 0.059311 0.788926
Si Si3 0.827766 0.177459 0.909320
Si Si4 0.222150 0.856791 0.411215
Si Si5 0.628399 0.783494 0.910689
Si Si6 0.109447 0.900907 0.825823
Si Si7 0.557936 0.810794 0.223543
O O1 0.073655 0.500000 0.500000
O O2 0.079603 0.449009 0.362393
O O3 0.000000 0.500000 0.404883
O O4 0.250000 0.061008 0.750000
O O5 0.298894 0.096058 0.862436
O O6 0.347801 0.078966 0.732518
O O7 0.314847 0.000000 0.809947
O O8 0.773230 0.166054 0.877048
O O9 0.857036 0.226985 0.877659
O O10 0.861294 0.127816 0.894704
O O11 0.821041 0.189087 0.000000
O O12 0.232339 0.872762 0.500000
O O13 0.180153 0.813521 0.411778
O O14 0.589940 0.811852 0.855112
O O15 0.610327 0.779437 0.000000
O O16 0.078310 0.855646 0.781627
O O17 0.500000 0.820746 0.210544
O O18 0.561752 0.750000 0.250000
#
# Coordination Sequence:
#
# PCOD9512384 Si02
#       7
#    16  32  32  32  32  32  32
#     4  11  26  46  65  88 115 151 202 251 302 358
#     4  11  22  36  55  83 113 147 189 235 282 344
#     4  10  20  34  55  86 118 149 187 227 279 348
#     4  10  20  35  56  83 116 153 188 226 279 343
#     4  10  20  36  57  82 116 153 189 232 285 345
#     4  12  21  39  62  84 114 154 191 241 293 348
#     4  11  23  38  58  84 112 147 197 248 297 352
#
# _framework density 17.299778
#
# number of rings (size 3 to 8) (size 9 to 14) (size 15 to 20)
#    0.000    1.308    5.385    1.385    0.000    2.462 
#    0.000    0.000    0.000    0.000    0.000    0.000 
#    0.000    4.923    0.000    0.000    0.000    0.000 
#
# Total GULP energy -289837.782402 kJ/mol
# GULP energy per Si atom -5573.803508 kJ/mol
# Density = 1.726040 g / cm^3
# Si number density = 17.299778 Si / 1000 Ang^3
#
#
#
# Elastic Constant Matrix: (Units=GPa)
#
#
# Indices 1 2 3 4 5 6 
#
# 1 111.6251 42.4814 36.8314 0.0000 0.0000 0.0000
# 2 42.4814 113.3944 39.4621 0.0000 0.0000 0.0000
# 3 36.8314 39.4621 57.1919 0.0000 0.0000 0.0000
# 4 0.0000 0.0000 0.0000 29.7770 0.0000 0.0000
# 5 0.0000 0.0000 0.0000 0.0000 24.8707 0.0000
# 6 0.0000 0.0000 0.0000 0.0000 0.0000 31.1497
#
#
#
# Elastic Compliance Matrix: (Units=1/GPa)
#
#
# Indices 1 2 3 4 5 6 
#
# 1 0.011831 -0.002343 -0.006002 0.000000 0.000000 0.000000
# 2 -0.002343 0.012070 -0.006819 0.000000 0.000000 0.000000
# 3 -0.006002 -0.006819 0.026055 0.000000 0.000000 0.000000
# 4 0.000000 0.000000 0.000000 0.033583 0.000000 0.000000
# 5 0.000000 0.000000 0.000000 0.000000 0.040208 0.000000
# 6 0.000000 0.000000 0.000000 0.000000 0.000000 0.032103
#
#
# Mechanical properties :
#
#
# Convention : Reuss Voigt Hill
#
# Bulk Modulus (GPa) = 50.94997 57.75124 54.35060
# Shear Modulus (GPa) = 25.94426 28.05525 26.99975
#
# Velocity S-wave (km/s) = 3.87678 4.03142 3.95485
# Velocity P-wave (km/s) = 7.03949 7.42461 7.23461
#
# Compressibility (1/GPa) = 0.01962710
#
# Stress axis : x y z
#
# Youngs Moduli (GPa) = 84.52495 82.85179 38.37995
#
# Poissons Ratio (x) = 0.19416 0.23036
# Poissons Ratio (y) = 0.19808 0.26171
# Poissons Ratio (z) = 0.50732 0.56495
#
# Static dielectric constant tensor:
#      x y z
#    x 1.578410 0.000000 0.000000 
#    y 0.000000 1.591340 0.000000 
#    z 0.000000 0.000000 1.598140 
# 
# From -- ./inp_files/26086.got.cif
#   From: 2010.05.17/outbox.cif.g08.bks.cpg/sg69_14_cif.got.tgz:26086.got - 2010.06.03 19:29:58.
