data_PCOD9512902
_publ_section_title
;
Structure prediction by ZEFSAII (Michael W. Deem and Ramdas Pophale) SiO2 
 PCOD9512902
Probable space group: F M M M
;
_chemical_formula_sum "Si O2"
_cell_formula_units_Z 144
_cell_length_a 16.502776
_cell_length_b 14.324910
_cell_length_c 32.776126
_cell_angle_alpha 90.000000
_cell_angle_beta 90.000000
_cell_angle_gamma 90.000000
_cell_volume 7748.301783
_symmetry_space_group_name_H-M "F M M M"
_symmetry_group_IT_number 69
_symmetry_cell_setting 'orthorhombic'
loop_
_space_group_symop_operation_xyz
x,y,z
-x,-y,z
x,-y,-z
-x,y,-z
-x,-y,-z
x,y,-z
-x,y,z
x,-y,z
x,1/2+y,1/2+z
-x,1/2-y,1/2+z
x,1/2-y,1/2-z
-x,1/2+y,1/2-z
-x,1/2-y,1/2-z
x,1/2+y,1/2-z
-x,1/2+y,1/2+z
x,1/2-y,1/2+z
1/2+x,y,1/2+z
1/2-x,-y,1/2+z
1/2+x,-y,1/2-z
1/2-x,y,1/2-z
1/2-x,-y,1/2-z
1/2+x,y,1/2-z
1/2-x,y,1/2+z
1/2+x,-y,1/2+z
1/2+x,1/2+y,z
1/2-x,1/2-y,z
1/2+x,1/2-y,-z
1/2-x,1/2+y,-z
1/2-x,1/2-y,-z
1/2+x,1/2+y,-z
1/2-x,1/2+y,z
1/2+x,1/2-y,z
loop_
_atom_site_type_symbol
_atom_site_label
_atom_site_fract_x
_atom_site_fract_y
_atom_site_fract_z
Si Si1 0.158922 0.291228 0.455396
Si Si2 0.717420 0.500000 0.956428
Si Si3 0.904402 0.686704 0.369423
Si Si4 0.689527 0.000000 0.788175
Si Si5 0.296408 0.000000 0.368412
Si Si6 0.097465 0.693410 0.209690
O O1 0.126443 0.261080 0.500000
O O2 0.250000 0.250000 0.452166
O O3 0.166399 0.404197 0.456816
O O4 0.112236 0.268200 0.413924
O O5 0.754265 0.500000 0.911067
O O6 0.764151 0.500000 0.000000
O O7 0.852752 0.591766 0.367396
O O8 0.879265 0.752946 0.331908
O O9 0.000000 0.666588 0.365493
O O10 0.750000 0.000000 0.750000
O O11 0.740222 0.000000 0.829583
O O12 0.635431 0.092067 0.787704
O O13 0.122939 0.750000 0.250000
O O14 0.000000 0.687227 0.209927
#
# Coordination Sequence:
#
# PCOD9512902 Si02
#       6
#    32  16  32  16  16  32
#     4   9  18  32  53  80 111 147 186 234 284 328
#     4   8  16  31  48  74 106 142 181 217 279 329
#     4  10  21  36  56  81 113 154 189 228 283 338
#     4  12  25  38  59  90 110 143 188 234 279 327
#     4  10  21  33  56  84 114 145 182 243 276 325
#     4  10  23  42  61  81 114 152 184 227 282 338
#
# _framework density 18.584717000000001
#
# number of rings (size 3 to 8) (size 9 to 14) (size 15 to 20)
#    0.000    2.222    0.000    2.000    6.222    2.667 
#    0.000    4.444    0.000    6.667    0.000    0.000 
#    0.000    8.889    0.000    0.000    0.000    0.000 
#
# Total GULP energy -200652.720135 kJ/mol
# GULP energy per Si atom -5573.686670 kJ/mol
# Density = 1.854242 g / cm^3
# Si number density = 18.584717 Si / 1000 Ang^3
#
#
#
# Elastic Constant Matrix: (Units=GPa)
#
#
# Indices 1 2 3 4 5 6 
#
# 1 26.0335 36.5426 35.4712 0.0000 0.0000 0.0000
# 2 36.5426 114.4010 69.7984 0.0000 0.0000 0.0000
# 3 35.4712 69.7984 211.2930 0.0000 0.0000 0.0000
# 4 0.0000 0.0000 0.0000 28.3745 0.0000 0.0000
# 5 0.0000 0.0000 0.0000 0.0000 30.7577 0.0000
# 6 0.0000 0.0000 0.0000 0.0000 0.0000 64.1912
#
#
#
# Elastic Compliance Matrix: (Units=1/GPa)
#
#
# Indices 1 2 3 4 5 6 
#
# 1 0.075008 -0.020385 -0.005858 0.000000 0.000000 0.000000
# 2 -0.020385 0.016488 -0.002024 0.000000 0.000000 0.000000
# 3 -0.005858 -0.002024 0.006385 0.000000 0.000000 0.000000
# 4 0.000000 0.000000 0.000000 0.035243 0.000000 0.000000
# 5 0.000000 0.000000 0.000000 0.000000 0.032512 0.000000
# 6 0.000000 0.000000 0.000000 0.000000 0.000000 0.015578
#
#
# Mechanical properties :
#
#
# Convention : Reuss Voigt Hill
#
# Bulk Modulus (GPa) = 24.18649 70.59466 47.39058
# Shear Modulus (GPa) = 19.87818 38.65906 29.26862
#
# Velocity S-wave (km/s) = 3.27402 4.56582 3.97278
# Velocity P-wave (km/s) = 5.22826 8.11563 6.82635
#
# Compressibility (1/GPa) = 0.04134540
#
# Stress axis : x y z
#
# Youngs Moduli (GPa) = 13.33187 60.65049 156.61909
#
# Poissons Ratio (x) = 1.23639 0.91748
# Poissons Ratio (y) = 0.27178 0.31705
# Poissons Ratio (z) = 0.07810 0.12278
#
# Static dielectric constant tensor:
#      x y z
#    x 1.619200 0.000000 0.000000 
#    y 0.000000 1.615760 0.000000 
#    z 0.000000 0.000000 1.697490 
# 
# From -- ./inp_files/21804.got.cif
#   From: 2010.05.17/outbox.cif.g08.bks.cpg/sg69_11_cif.got.tgz:21804.got - 2010.06.03 19:29:58.
