data_PCOD9512210
_publ_section_title
;
Structure prediction by ZEFSAII (Michael W. Deem and Ramdas Pophale) SiO2 
 PCOD9512210
Probable space group: F M M M
;
_chemical_formula_sum "Si O2"
_cell_formula_units_Z 112
_cell_length_a 24.737347
_cell_length_b 8.737598
_cell_length_c 26.999854
_cell_angle_alpha 90.000000
_cell_angle_beta 90.000000
_cell_angle_gamma 90.000000
_cell_volume 5835.883272
_symmetry_space_group_name_H-M "F M M M"
_symmetry_group_IT_number 69
_symmetry_cell_setting 'orthorhombic'
loop_
_space_group_symop_operation_xyz
x,y,z
-x,-y,z
x,-y,-z
-x,y,-z
-x,-y,-z
x,y,-z
-x,y,z
x,-y,z
x,1/2+y,1/2+z
-x,1/2-y,1/2+z
x,1/2-y,1/2-z
-x,1/2+y,1/2-z
-x,1/2-y,1/2-z
x,1/2+y,1/2-z
-x,1/2+y,1/2+z
x,1/2-y,1/2+z
1/2+x,y,1/2+z
1/2-x,-y,1/2+z
1/2+x,-y,1/2-z
1/2-x,y,1/2-z
1/2-x,-y,1/2-z
1/2+x,y,1/2-z
1/2-x,y,1/2+z
1/2+x,-y,1/2+z
1/2+x,1/2+y,z
1/2-x,1/2-y,z
1/2+x,1/2-y,-z
1/2-x,1/2+y,-z
1/2-x,1/2-y,-z
1/2+x,1/2+y,-z
1/2-x,1/2+y,z
1/2+x,1/2-y,z
loop_
_atom_site_type_symbol
_atom_site_label
_atom_site_fract_x
_atom_site_fract_y
_atom_site_fract_z
Si Si1 0.696758 0.170787 0.558215
Si Si2 0.605289 0.821130 0.109459
Si Si3 0.689627 0.685003 0.304204
Si Si4 0.500000 0.182980 0.558757
O O1 0.704624 0.153083 0.500000
O O2 0.750000 0.250000 0.579070
O O3 0.647842 0.284759 0.566436
O O4 0.687086 0.000000 0.578943
O O5 0.641596 0.771848 0.157273
O O6 0.551628 0.737302 0.090738
O O7 0.593471 0.000000 0.115084
O O8 0.693099 0.500000 0.303863
O O9 0.675736 0.750000 0.250000
O O10 0.750000 0.750000 0.314955
O O11 0.500000 0.236535 0.500000
O O12 0.500000 0.000000 0.556267
#
# Coordination Sequence:
#
# PCOD9512210 Si02
#       4
#    32  32  32  16
#     4  10  20  33  51  78 111 146 185 230 283 344
#     4  11  23  38  58  84 113 149 193 239 289 345
#     4  10  21  37  60  90 121 153 190 234 288 348
#     4  11  25  43  62  85 114 153 200 245 290 343
#
# _framework density 19.191610000000001
#
# number of rings (size 3 to 8) (size 9 to 14) (size 15 to 20)
#    0.000    1.571    0.000    5.571    0.000   13.143 
#    0.000    0.714    0.000    0.000    0.000    0.000 
#    0.000    0.000    0.000    0.000    0.000    0.000 
#
# Total GULP energy -156025.892017 kJ/mol
# GULP energy per Si atom -5572.353286 kJ/mol
# Density = 1.914793 g / cm^3
# Si number density = 19.191610 Si / 1000 Ang^3
#
#
#
# Elastic Constant Matrix: (Units=GPa)
#
#
# Indices 1 2 3 4 5 6 
#
# 1 162.2706 36.4133 58.4815 0.0000 0.0000 0.0000
# 2 36.4133 54.9980 53.6486 0.0000 0.0000 0.0000
# 3 58.4815 53.6486 126.8415 0.0000 0.0000 0.0000
# 4 0.0000 0.0000 0.0000 17.8673 0.0000 0.0000
# 5 0.0000 0.0000 0.0000 0.0000 52.6927 0.0000
# 6 0.0000 0.0000 0.0000 0.0000 0.0000 33.1178
#
#
#
# Elastic Compliance Matrix: (Units=1/GPa)
#
#
# Indices 1 2 3 4 5 6 
#
# 1 0.007629 -0.002758 -0.002351 0.000000 0.000000 0.000000
# 2 -0.002758 0.031950 -0.012242 0.000000 0.000000 0.000000
# 3 -0.002351 -0.012242 0.014146 0.000000 0.000000 0.000000
# 4 0.000000 0.000000 0.000000 0.055968 0.000000 0.000000
# 5 0.000000 0.000000 0.000000 0.000000 0.018978 0.000000
# 6 0.000000 0.000000 0.000000 0.000000 0.000000 0.030195
#
#
# Mechanical properties :
#
#
# Convention : Reuss Voigt Hill
#
# Bulk Modulus (GPa) = 52.56764 71.24410 61.90587
# Shear Modulus (GPa) = 25.01153 33.77334 29.39244
#
# Velocity S-wave (km/s) = 3.61398 4.19954 3.91772
# Velocity P-wave (km/s) = 6.69812 7.79218 7.26577
#
# Compressibility (1/GPa) = 0.01902311
#
# Stress axis : x y z
#
# Youngs Moduli (GPa) = 131.08580 31.29894 70.69300
#
# Poissons Ratio (x) = 0.08631 0.16619
# Poissons Ratio (y) = 0.36147 0.86543
# Poissons Ratio (z) = 0.30817 0.38317
#
# Static dielectric constant tensor:
#      x y z
#    x 1.652990 0.000000 0.000000 
#    y 0.000000 1.683640 0.000000 
#    z 0.000000 0.000000 1.718840 
# 
# From -- ./inp_files/4469.got.cif
#   From: 2010.05.17/outbox.cif.g08.bks.cpg/sg69_3_cif.got.tgz:4469.got - 2010.06.03 19:29:58.
