data_PCOD9512068
_publ_section_title
;
Structure prediction by ZEFSAII (Michael W. Deem and Ramdas Pophale) SiO2 
 PCOD9512068
Probable space group: F M M M
;
_chemical_formula_sum "Si O2"
_cell_formula_units_Z 144
_cell_length_a 13.967268
_cell_length_b 30.193627
_cell_length_c 18.378645
_cell_angle_alpha 90.000000
_cell_angle_beta 90.000000
_cell_angle_gamma 90.000000
_cell_volume 7750.687752
_symmetry_space_group_name_H-M "F M M M"
_symmetry_group_IT_number 69
_symmetry_cell_setting 'orthorhombic'
loop_
_space_group_symop_operation_xyz
x,y,z
-x,-y,z
x,-y,-z
-x,y,-z
-x,-y,-z
x,y,-z
-x,y,z
x,-y,z
x,1/2+y,1/2+z
-x,1/2-y,1/2+z
x,1/2-y,1/2-z
-x,1/2+y,1/2-z
-x,1/2-y,1/2-z
x,1/2+y,1/2-z
-x,1/2+y,1/2+z
x,1/2-y,1/2+z
1/2+x,y,1/2+z
1/2-x,-y,1/2+z
1/2+x,-y,1/2-z
1/2-x,y,1/2-z
1/2-x,-y,1/2-z
1/2+x,y,1/2-z
1/2-x,y,1/2+z
1/2+x,-y,1/2+z
1/2+x,1/2+y,z
1/2-x,1/2-y,z
1/2+x,1/2-y,-z
1/2-x,1/2+y,-z
1/2-x,1/2-y,-z
1/2+x,1/2+y,-z
1/2-x,1/2+y,z
1/2+x,1/2-y,z
loop_
_atom_site_type_symbol
_atom_site_label
_atom_site_fract_x
_atom_site_fract_y
_atom_site_fract_z
Si Si1 0.812655 0.371280 0.415120
Si Si2 0.000000 0.146835 0.823110
Si Si3 0.790945 0.948290 0.668188
Si Si4 0.500000 0.806740 0.822217
Si Si5 0.000000 0.408151 0.815881
Si Si6 0.672937 0.288845 0.417411
O O1 0.836422 0.375304 0.500000
O O2 0.771489 0.416790 0.383178
O O3 0.729589 0.334684 0.407259
O O4 0.905113 0.354964 0.370993
O O5 0.000000 0.187021 0.764680
O O6 0.000000 0.103683 0.770223
O O7 0.750000 0.942065 0.750000
O O8 0.902089 0.933231 0.665737
O O9 0.783137 0.000000 0.649665
O O10 0.500000 0.858506 0.849641
O O11 0.592869 0.784722 0.856379
O O12 0.632483 0.287960 0.500000
O O13 0.750000 0.250000 0.412362
#
# Coordination Sequence:
#
# PCOD9512068 Si02
#       6
#    32  16  32  16  16  32
#     4  11  22  40  61  86 125 166 203 259 319 371
#     4  10  21  37  63  87 120 160 212 257 308 377
#     4  11  21  37  63  91 123 163 208 258 311 373
#     4  10  19  37  67  86 123 161 203 264 311 360
#     4  10  19  36  64  88 125 153 202 260 307 364
#     4  10  22  39  62  90 121 162 207 252 313 379
#
# _framework density 18.578996
#
# number of rings (size 3 to 8) (size 9 to 14) (size 15 to 20)
#    0.667    0.889    4.444    1.000    0.000    1.333 
#    0.000    7.778    0.000    2.667    0.000    0.000 
#    0.000    0.000    0.000    0.000    0.000    0.000 
#
# Total GULP energy -200933.492893 kJ/mol
# GULP energy per Si atom -5581.485914 kJ/mol
# Density = 1.853671 g / cm^3
# Si number density = 18.578996 Si / 1000 Ang^3
#
#
#
# Elastic Constant Matrix: (Units=GPa)
#
#
# Indices 1 2 3 4 5 6 
#
# 1 106.7661 -0.8197 60.8200 0.0000 0.0000 0.0000
# 2 -0.8197 48.0765 18.1196 0.0000 0.0000 0.0000
# 3 60.8200 18.1196 113.4609 0.0000 0.0000 0.0000
# 4 0.0000 0.0000 0.0000 27.1813 0.0000 0.0000
# 5 0.0000 0.0000 0.0000 0.0000 22.8556 0.0000
# 6 0.0000 0.0000 0.0000 0.0000 0.0000 23.7004
#
#
#
# Elastic Compliance Matrix: (Units=1/GPa)
#
#
# Indices 1 2 3 4 5 6 
#
# 1 0.013945 0.003251 -0.007994 0.000000 0.000000 0.000000
# 2 0.003251 0.022890 -0.005398 0.000000 0.000000 0.000000
# 3 -0.007994 -0.005398 0.013961 0.000000 0.000000 0.000000
# 4 0.000000 0.000000 0.000000 0.036790 0.000000 0.000000
# 5 0.000000 0.000000 0.000000 0.000000 0.043753 0.000000
# 6 0.000000 0.000000 0.000000 0.000000 0.000000 0.042193
#
#
# Mechanical properties :
#
#
# Convention : Reuss Voigt Hill
#
# Bulk Modulus (GPa) = 32.77293 47.17146 39.97220
# Shear Modulus (GPa) = 24.51134 27.42638 25.96886
#
# Velocity S-wave (km/s) = 3.63616 3.84631 3.74271
# Velocity P-wave (km/s) = 5.94197 6.72088 6.34339
#
# Compressibility (1/GPa) = 0.03051298
#
# Stress axis : x y z
#
# Youngs Moduli (GPa) = 71.70873 43.68704 71.62794
#
# Poissons Ratio (x) = -0.14202 0.57262
# Poissons Ratio (y) = -0.23311 0.38665
# Poissons Ratio (z) = 0.57327 0.23583
#
# Static dielectric constant tensor:
#      x y z
#    x 1.612180 0.000000 0.000000 
#    y 0.000000 1.639610 0.000000 
#    z 0.000000 0.000000 1.631550 
# 
# From -- ./inp_files/21833.got.cif
#   From: 2010.05.17/outbox.cif.g08.bks.cpg/sg69_11_cif.got.tgz:21833.got - 2010.06.03 19:29:58.
