data_PCOD9512222
_publ_section_title
;
Structure prediction by ZEFSAII (Michael W. Deem and Ramdas Pophale) SiO2 
 PCOD9512222
Probable space group: F M M M
;
_chemical_formula_sum "Si O2"
_cell_formula_units_Z 192
_cell_length_a 20.379971
_cell_length_b 28.064116
_cell_length_c 14.785869
_cell_angle_alpha 90.000000
_cell_angle_beta 90.000000
_cell_angle_gamma 90.000000
_cell_volume 8456.716712
_symmetry_space_group_name_H-M "F M M M"
_symmetry_group_IT_number 69
_symmetry_cell_setting 'orthorhombic'
loop_
_space_group_symop_operation_xyz
x,y,z
-x,-y,z
x,-y,-z
-x,y,-z
-x,-y,-z
x,y,-z
-x,y,z
x,-y,z
x,1/2+y,1/2+z
-x,1/2-y,1/2+z
x,1/2-y,1/2-z
-x,1/2+y,1/2-z
-x,1/2-y,1/2-z
x,1/2+y,1/2-z
-x,1/2+y,1/2+z
x,1/2-y,1/2+z
1/2+x,y,1/2+z
1/2-x,-y,1/2+z
1/2+x,-y,1/2-z
1/2-x,y,1/2-z
1/2-x,-y,1/2-z
1/2+x,y,1/2-z
1/2-x,y,1/2+z
1/2+x,-y,1/2+z
1/2+x,1/2+y,z
1/2-x,1/2-y,z
1/2+x,1/2-y,-z
1/2-x,1/2+y,-z
1/2-x,1/2-y,-z
1/2+x,1/2+y,-z
1/2-x,1/2+y,z
1/2+x,1/2-y,z
loop_
_atom_site_type_symbol
_atom_site_label
_atom_site_fract_x
_atom_site_fract_y
_atom_site_fract_z
Si Si1 0.926978 0.079002 0.343039
Si Si2 0.688122 0.871946 0.603114
Si Si3 0.214729 0.051452 0.605413
Si Si4 0.176382 0.766844 0.890431
Si Si5 0.075026 0.445915 0.633108
Si Si6 0.075223 0.687405 0.108007
O O1 0.863160 0.058270 0.390562
O O2 0.925306 0.059168 0.241614
O O3 0.918850 0.136213 0.344711
O O4 0.000000 0.068780 0.381156
O O5 0.709602 0.860464 0.500000
O O6 0.746407 0.903544 0.645154
O O7 0.670260 0.820922 0.644387
O O8 0.625755 0.906623 0.600414
O O9 0.234094 0.050011 0.500000
O O10 0.232264 0.000000 0.645686
O O11 0.250000 0.750000 0.871926
O O12 0.124801 0.727540 0.857952
O O13 0.166745 0.767416 0.000000
O O14 0.094110 0.500000 0.608779
O O15 0.000000 0.437919 0.603330
O O16 0.000000 0.703810 0.117601
O O17 0.086815 0.678707 0.000000
#
# Coordination Sequence:
#
# PCOD9512222 Si02
#       6
#    32  32  32  32  32  32
#     4  10  20  35  54  77 108 144 178 214 262 320
#     4  10  21  37  57  80 107 140 180 226 271 316
#     4  10  20  33  52  79 108 138 175 219 265 316
#     4   9  17  31  53  79 106 136 171 214 264 316
#     4  10  22  39  57  78 106 142 184 227 270 316
#     4   9  17  30  51  79 108 137 170 210 258 314
#
# _framework density 22.703845999999999
#
# number of rings (size 3 to 8) (size 9 to 14) (size 15 to 20)
#    0.000    2.333    0.000    2.500    0.000    7.333 
#    0.000    5.833    0.000    4.000    0.000    0.000 
#    0.000    0.000    0.000    0.000    0.000    0.000 
#
# Total GULP energy -268150.865077 kJ/mol
# GULP energy per Si atom -5586.476356 kJ/mol
# Density = 2.265217 g / cm^3
# Si number density = 22.703846 Si / 1000 Ang^3
#
#
#
# Elastic Constant Matrix: (Units=GPa)
#
#
# Indices 1 2 3 4 5 6 
#
# 1 76.9438 53.6218 6.7243 0.0000 0.0000 0.0000
# 2 53.6218 156.1410 15.4006 0.0000 0.0000 0.0000
# 3 6.7243 15.4006 55.9887 0.0000 0.0000 0.0000
# 4 0.0000 0.0000 0.0000 36.9789 0.0000 0.0000
# 5 0.0000 0.0000 0.0000 0.0000 16.1774 0.0000
# 6 0.0000 0.0000 0.0000 0.0000 0.0000 36.6619
#
#
#
# Elastic Compliance Matrix: (Units=1/GPa)
#
#
# Indices 1 2 3 4 5 6 
#
# 1 0.017097 -0.005827 -0.000451 0.000000 0.000000 0.000000
# 2 -0.005827 0.008569 -0.001657 0.000000 0.000000 0.000000
# 3 -0.000451 -0.001657 0.018371 0.000000 0.000000 0.000000
# 4 0.000000 0.000000 0.000000 0.027042 0.000000 0.000000
# 5 0.000000 0.000000 0.000000 0.000000 0.061815 0.000000
# 6 0.000000 0.000000 0.000000 0.000000 0.000000 0.027276
#
#
# Mechanical properties :
#
#
# Convention : Reuss Voigt Hill
#
# Bulk Modulus (GPa) = 35.50253 48.95189 42.22721
# Shear Modulus (GPa) = 26.96467 32.18543 29.57505
#
# Velocity S-wave (km/s) = 3.45000 3.76921 3.61313
# Velocity P-wave (km/s) = 5.61615 6.36793 6.00382
#
# Compressibility (1/GPa) = 0.02816700
#
# Stress axis : x y z
#
# Youngs Moduli (GPa) = 58.49119 116.70005 54.43452
#
# Poissons Ratio (x) = 0.67999 0.02453
# Poissons Ratio (y) = 0.34082 0.09021
# Poissons Ratio (z) = 0.02635 0.19340
#
# Static dielectric constant tensor:
#      x y z
#    x 1.820020 0.000000 0.000000 
#    y 0.000000 1.849340 0.000000 
#    z 0.000000 0.000000 1.866570 
# 
# From -- ./inp_files/32038.got.cif
#   From: 2010.05.17/outbox.cif.g08.bks.cpg/sg69_17_cif.got.tgz:32038.got - 2010.06.03 19:29:58.
