data_PCOD9512834
_publ_section_title
;
Structure prediction by ZEFSAII (Michael W. Deem and Ramdas Pophale) SiO2 
 PCOD9512834
Probable space group: F M M M
;
_chemical_formula_sum "Si O2"
_cell_formula_units_Z 176
_cell_length_a 28.868573
_cell_length_b 27.009689
_cell_length_c 10.706489
_cell_angle_alpha 90.000000
_cell_angle_beta 90.000000
_cell_angle_gamma 90.000000
_cell_volume 8348.183287
_symmetry_space_group_name_H-M "F M M M"
_symmetry_group_IT_number 69
_symmetry_cell_setting 'orthorhombic'
loop_
_space_group_symop_operation_xyz
x,y,z
-x,-y,z
x,-y,-z
-x,y,-z
-x,-y,-z
x,y,-z
-x,y,z
x,-y,z
x,1/2+y,1/2+z
-x,1/2-y,1/2+z
x,1/2-y,1/2-z
-x,1/2+y,1/2-z
-x,1/2-y,1/2-z
x,1/2+y,1/2-z
-x,1/2+y,1/2+z
x,1/2-y,1/2+z
1/2+x,y,1/2+z
1/2-x,-y,1/2+z
1/2+x,-y,1/2-z
1/2-x,y,1/2-z
1/2-x,-y,1/2-z
1/2+x,y,1/2-z
1/2-x,y,1/2+z
1/2+x,-y,1/2+z
1/2+x,1/2+y,z
1/2-x,1/2-y,z
1/2+x,1/2-y,-z
1/2-x,1/2+y,-z
1/2-x,1/2-y,-z
1/2+x,1/2+y,-z
1/2-x,1/2+y,z
1/2+x,1/2-y,z
loop_
_atom_site_type_symbol
_atom_site_label
_atom_site_fract_x
_atom_site_fract_y
_atom_site_fract_z
Si Si1 0.947490 0.926725 0.500000
Si Si2 0.277579 0.697267 0.861984
Si Si3 0.777238 0.557587 0.132364
Si Si4 0.619546 0.555158 0.728632
Si Si5 0.379701 0.667582 0.216396
Si Si6 0.913120 0.818713 0.500000
Si Si7 0.445819 0.292034 0.000000
O O1 0.920328 0.943196 0.623965
O O2 0.944952 0.867133 0.500000
O O3 0.000000 0.943367 0.500000
O O4 0.250000 0.672661 0.750000
O O5 0.250000 0.750000 0.871132
O O6 0.331660 0.693766 0.824852
O O7 0.274815 0.676311 0.000000
O O8 0.763704 0.500000 0.123398
O O9 0.750000 0.576337 0.250000
O O10 0.831676 0.558483 0.156894
O O11 0.767052 0.581204 0.000000
O O12 0.618182 0.500000 0.790494
O O13 0.619109 0.607499 0.802088
O O14 0.386105 0.677490 0.366056
O O15 0.419545 0.688638 0.124972
O O16 0.939735 0.767145 0.500000
O O17 0.500000 0.305603 0.000000
#
# Coordination Sequence:
#
# PCOD9512834 Si02
#       7
#    16  32  32  32  32  16  16
#     4  10  20  38  66 105 139 171 226 291 356 416
#     4  10  23  40  67  99 138 182 226 278 343 419
#     4   9  17  33  59  88 123 167 216 272 332 393
#     4  10  21  40  64  96 138 183 231 287 342 402
#     4  11  25  45  69 104 144 185 232 286 345 420
#     4  10  25  41  76 105 140 170 228 289 355 419
#     4  12  27  48  72  96 139 189 228 287 357 422
#
# _framework density 21.082432000000001
#
# number of rings (size 3 to 8) (size 9 to 14) (size 15 to 20)
#    0.000    1.818    1.818    1.091    6.364    5.818 
#    1.636    2.273    0.000    0.545    0.000    0.000 
#    0.000    0.000    0.000    0.000    0.000    0.000 
#
# Total GULP energy -245183.869252 kJ/mol
# GULP energy per Si atom -5572.360665 kJ/mol
# Density = 2.103445 g / cm^3
# Si number density = 21.082432 Si / 1000 Ang^3
#
#
#
# Elastic Constant Matrix: (Units=GPa)
#
#
# Indices 1 2 3 4 5 6 
#
# 1 165.3458 48.7491 75.9402 -0.0049 0.0011 0.0016
# 2 48.7491 169.6316 25.8075 -0.0064 0.0017 0.0020
# 3 75.9402 25.8075 150.3958 -0.0202 0.0064 0.0060
# 4 -0.0049 -0.0064 -0.0202 -33.7047 0.0036 0.0040
# 5 0.0011 0.0017 0.0064 0.0036 27.4631 -0.0011
# 6 0.0016 0.0020 0.0060 0.0040 -0.0011 10.8323
#
#
#
# Elastic Compliance Matrix: (Units=1/GPa)
#
#
# Indices 1 2 3 4 5 6 
#
# 1 0.008384 -0.001813 -0.003922 0.000001 0.000001 0.000001
# 2 -0.001813 0.006445 -0.000191 -0.000001 0.000000 -0.000001
# 3 -0.003922 -0.000191 0.008662 -0.000005 -0.000002 -0.000004
# 4 0.000001 -0.000001 -0.000005 -0.029669 0.000004 0.000011
# 5 0.000001 0.000000 -0.000002 0.000004 0.036413 0.000004
# 6 0.000001 -0.000001 -0.000004 0.000011 0.000004 0.092316
#
#
# Mechanical properties :
#
#
# Convention : Reuss Voigt Hill
#
# Bulk Modulus (GPa) = 85.91026 87.37409 86.64218
# Shear Modulus (GPa) = 36.15813 23.24324 29.70069
#
# Velocity S-wave (km/s) = 4.14585 3.32398 3.75746
# Velocity P-wave (km/s) = 7.98471 7.50105 7.74666
#
# Compressibility (1/GPa) = 0.01164005
#
# Stress axis : x y z
#
# Youngs Moduli (GPa) = 119.27843 155.15772 115.44258
#
# Poissons Ratio (x) = 0.28124 0.45279
# Poissons Ratio (y) = 0.21621 0.02201
# Poissons Ratio (z) = 0.46784 0.02959
#
# Static dielectric constant tensor:
#      x y z
#    x 1.722760 0.000000 0.000000 
#    y 0.000000 1.829830 -0.000010 
#    z 0.000000 -0.000010 1.625200 
# 
# From -- ./inp_files/11583.got.cif
#   From: 2010.05.17/outbox.cif.g08.bks.cpg/sg69_6_cif.got.tgz:11583.got - 2010.06.03 19:29:58.
