data_PCOD9512908
_publ_section_title
;
Structure prediction by ZEFSAII (Michael W. Deem and Ramdas Pophale) SiO2 
 PCOD9512908
Probable space group: F M M M
;
_chemical_formula_sum "Si O2"
_cell_formula_units_Z 112
_cell_length_a 22.224231
_cell_length_b 29.228693
_cell_length_c 7.492040
_cell_angle_alpha 90.000000
_cell_angle_beta 90.000000
_cell_angle_gamma 90.000000
_cell_volume 4866.718490
_symmetry_space_group_name_H-M "F M M M"
_symmetry_group_IT_number 69
_symmetry_cell_setting 'orthorhombic'
loop_
_space_group_symop_operation_xyz
x,y,z
-x,-y,z
x,-y,-z
-x,y,-z
-x,-y,-z
x,y,-z
-x,y,z
x,-y,z
x,1/2+y,1/2+z
-x,1/2-y,1/2+z
x,1/2-y,1/2-z
-x,1/2+y,1/2-z
-x,1/2-y,1/2-z
x,1/2+y,1/2-z
-x,1/2+y,1/2+z
x,1/2-y,1/2+z
1/2+x,y,1/2+z
1/2-x,-y,1/2+z
1/2+x,-y,1/2-z
1/2-x,y,1/2-z
1/2-x,-y,1/2-z
1/2+x,y,1/2-z
1/2-x,y,1/2+z
1/2+x,-y,1/2+z
1/2+x,1/2+y,z
1/2-x,1/2-y,z
1/2+x,1/2-y,-z
1/2-x,1/2+y,-z
1/2-x,1/2-y,-z
1/2+x,1/2+y,-z
1/2-x,1/2+y,z
1/2+x,1/2-y,z
loop_
_atom_site_type_symbol
_atom_site_label
_atom_site_fract_x
_atom_site_fract_y
_atom_site_fract_z
Si Si1 0.132344 0.696712 0.714022
Si Si2 0.500000 0.695658 0.787210
Si Si3 0.184112 0.894108 0.213476
Si Si4 0.065901 0.053606 0.782583
O O1 0.129686 0.694135 0.500000
O O2 0.144551 0.750000 0.750000
O O3 0.065658 0.681802 0.781043
O O4 0.178453 0.658422 0.778971
O O5 0.500000 0.750000 0.750000
O O6 0.500000 0.686478 0.000000
O O7 0.250000 0.913471 0.250000
O O8 0.125880 0.921316 0.281529
O O9 0.178700 0.893697 0.000000
O O10 0.000000 0.071876 0.725592
O O11 0.068566 0.000000 0.735924
O O12 0.065963 0.056223 0.000000
#
# Coordination Sequence:
#
# PCOD9512908 Si02
#       4
#    32  16  32  32
#     4   9  18  31  48  70  97 131 168 208 250 293
#     4   8  14  26  44  66  89 115 155 203 248 286
#     4  10  21  34  50  75 105 136 169 206 251 300
#     4   8  15  30  54  81 103 126 164 212 254 295
#
# _framework density 23.013453999999999
#
# number of rings (size 3 to 8) (size 9 to 14) (size 15 to 20)
#    0.000    3.143    0.000    0.857    2.000    2.286 
#    0.000    2.857    0.000    0.857    0.000    2.000 
#    0.000    0.000    0.000    0.000    0.000    0.000 
#
# Total GULP energy -156108.973916 kJ/mol
# GULP energy per Si atom -5575.320497 kJ/mol
# Density = 2.296107 g / cm^3
# Si number density = 23.013454 Si / 1000 Ang^3
#
#
#
# Elastic Constant Matrix: (Units=GPa)
#
#
# Indices 1 2 3 4 5 6 
#
# 1 202.4432 83.3463 2.0678 0.0010 0.0030 0.0030
# 2 83.3463 79.1807 3.0864 0.0003 -0.0004 -0.0001
# 3 2.0678 3.0864 62.2080 -0.0001 0.0028 0.0020
# 4 0.0010 0.0003 -0.0001 1.8890 -0.0005 -0.0008
# 5 0.0030 -0.0004 0.0028 -0.0005 14.0871 -0.0010
# 6 0.0030 -0.0001 0.0020 -0.0008 -0.0010 24.2897
#
#
#
# Elastic Compliance Matrix: (Units=1/GPa)
#
#
# Indices 1 2 3 4 5 6 
#
# 1 0.008719 -0.009184 0.000166 -0.000003 -0.000002 -0.000001
# 2 -0.009184 0.022328 -0.000802 0.000001 0.000003 0.000001
# 3 0.000166 -0.000802 0.016109 0.000001 -0.000003 -0.000001
# 4 -0.000003 0.000001 0.000001 0.529382 0.000018 0.000018
# 5 -0.000002 0.000003 -0.000003 0.000018 0.070987 0.000003
# 6 -0.000001 0.000001 -0.000001 0.000018 0.000003 0.041170
#
#
# Mechanical properties :
#
#
# Convention : Reuss Voigt Hill
#
# Bulk Modulus (GPa) = 36.34418 57.87032 47.10725
# Shear Modulus (GPa) = 6.96855 25.07524 16.02189
#
# Velocity S-wave (km/s) = 1.74201 3.30448 2.64142
# Velocity P-wave (km/s) = 4.45792 6.30558 5.46046
#
# Compressibility (1/GPa) = 0.02751472
#
# Stress axis : x y z
#
# Youngs Moduli (GPa) = 114.68967 44.78652 62.07557
#
# Poissons Ratio (x) = 0.41134 -0.01029
# Poissons Ratio (y) = 1.05335 0.04982
# Poissons Ratio (z) = -0.01902 0.03594
#
# Static dielectric constant tensor:
#      x y z
#    x 1.895980 0.000000 0.000000 
#    y 0.000000 1.854810 0.000000 
#    z 0.000000 0.000000 1.842750 
# 
# From -- ./inp_files/3701.got.cif
#   From: 2010.05.17/outbox.cif.g08.bks.cpg/sg69_2_cif.got.tgz:3701.got - 2010.06.03 19:29:58.
