data_PCOD9512838
_publ_section_title
;
Structure prediction by ZEFSAII (Michael W. Deem and Ramdas Pophale) SiO2 
 PCOD9512838
Probable space group: F M M M
;
_chemical_formula_sum "Si O2"
_cell_formula_units_Z 192
_cell_length_a 25.329985
_cell_length_b 16.268064
_cell_length_c 25.082647
_cell_angle_alpha 90.000000
_cell_angle_beta 90.000000
_cell_angle_gamma 90.000000
_cell_volume 10335.801762
_symmetry_space_group_name_H-M "F M M M"
_symmetry_group_IT_number 69
_symmetry_cell_setting 'orthorhombic'
loop_
_space_group_symop_operation_xyz
x,y,z
-x,-y,z
x,-y,-z
-x,y,-z
-x,-y,-z
x,y,-z
-x,y,z
x,-y,z
x,1/2+y,1/2+z
-x,1/2-y,1/2+z
x,1/2-y,1/2-z
-x,1/2+y,1/2-z
-x,1/2-y,1/2-z
x,1/2+y,1/2-z
-x,1/2+y,1/2+z
x,1/2-y,1/2+z
1/2+x,y,1/2+z
1/2-x,-y,1/2+z
1/2+x,-y,1/2-z
1/2-x,y,1/2-z
1/2-x,-y,1/2-z
1/2+x,y,1/2-z
1/2-x,y,1/2+z
1/2+x,-y,1/2+z
1/2+x,1/2+y,z
1/2-x,1/2-y,z
1/2+x,1/2-y,-z
1/2-x,1/2+y,-z
1/2-x,1/2-y,-z
1/2+x,1/2+y,-z
1/2-x,1/2+y,z
1/2+x,1/2-y,z
loop_
_atom_site_type_symbol
_atom_site_label
_atom_site_fract_x
_atom_site_fract_y
_atom_site_fract_z
Si Si1 0.881358 0.000000 0.142253
Si Si2 0.120835 0.684720 0.093757
Si Si3 0.240276 0.843328 0.620633
Si Si4 0.935902 0.176794 0.292168
Si Si5 0.268039 0.000000 0.690049
Si Si6 0.939963 0.597860 0.000000
Si Si7 0.651888 0.363624 0.060650
Si Si8 0.938174 0.500000 0.253979
O O1 0.875344 0.922809 0.103398
O O2 0.830877 0.000000 0.181555
O O3 0.929643 0.000000 0.182492
O O4 0.180815 0.653335 0.099752
O O5 0.092838 0.689874 0.151360
O O6 0.088768 0.629138 0.052954
O O7 0.126489 0.774660 0.068224
O O8 0.250000 0.750000 0.641840
O O9 0.286132 0.856765 0.576569
O O10 0.247836 0.916965 0.661979
O O11 0.923386 0.250000 0.250000
O O12 0.918402 0.086967 0.269851
O O13 0.000000 0.177044 0.298842
O O14 0.250000 0.000000 0.750000
O O15 0.940252 0.500000 0.000000
O O16 0.000000 0.628660 0.000000
O O17 0.646683 0.392115 0.000000
O O18 0.000000 0.500000 0.241915
#
# Coordination Sequence:
#
# PCOD9512838 Si02
#       8
#    16  32  32  32  16  16  32  16
#     4  10  21  38  62  86 123 153 193 245 297 351
#     4  11  22  39  63  87 119 157 199 246 299 358
#     4   9  22  37  56  88 119 151 198 242 291 353
#     4  10  22  39  60  86 114 150 198 246 293 354
#     4  10  22  37  55  85 119 156 192 238 298 362
#     4  11  26  42  59  89 123 159 200 254 307 351
#     4  10  20  39  61  89 119 158 195 241 296 361
#     4  10  22  39  63  86 111 155 197 242 298 346
#
# _framework density 18.576208000000001
#
# number of rings (size 3 to 8) (size 9 to 14) (size 15 to 20)
#    0.000    1.917    0.833    1.750    5.833    1.333 
#    0.000    0.833    0.000    0.500    0.000    0.000 
#    0.000    0.000    0.000    0.000    0.000    0.000 
#
# Total GULP energy -267864.601175 kJ/mol
# GULP energy per Si atom -5580.512524 kJ/mol
# Density = 1.853393 g / cm^3
# Si number density = 18.576208 Si / 1000 Ang^3
#
#
#
# Elastic Constant Matrix: (Units=GPa)
#
#
# Indices 1 2 3 4 5 6 
#
# 1 57.8317 33.7846 32.8300 0.0000 0.0000 0.0000
# 2 33.7846 93.5678 45.1756 0.0000 0.0000 0.0000
# 3 32.8300 45.1756 133.3630 0.0000 0.0000 0.0000
# 4 0.0000 0.0000 0.0000 24.3422 0.0000 0.0000
# 5 0.0000 0.0000 0.0000 0.0000 13.5040 0.0000
# 6 0.0000 0.0000 0.0000 0.0000 0.0000 16.7754
#
#
#
# Elastic Compliance Matrix: (Units=1/GPa)
#
#
# Indices 1 2 3 4 5 6 
#
# 1 0.023155 -0.006705 -0.003429 0.000000 0.000000 0.000000
# 2 -0.006705 0.014719 -0.003335 0.000000 0.000000 0.000000
# 3 -0.003429 -0.003335 0.009472 0.000000 0.000000 0.000000
# 4 0.000000 0.000000 0.000000 0.041081 0.000000 0.000000
# 5 0.000000 0.000000 0.000000 0.000000 0.074052 0.000000
# 6 0.000000 0.000000 0.000000 0.000000 0.000000 0.059611
#
#
# Mechanical properties :
#
#
# Convention : Reuss Voigt Hill
#
# Bulk Modulus (GPa) = 49.00121 56.48254 52.74187
# Shear Modulus (GPa) = 19.54413 22.45580 20.99996
#
# Velocity S-wave (km/s) = 3.24714 3.48062 3.36590
# Velocity P-wave (km/s) = 6.36351 6.82824 6.59997
#
# Compressibility (1/GPa) = 0.02040766
#
# Stress axis : x y z
#
# Youngs Moduli (GPa) = 43.18707 67.94040 105.57237
#
# Poissons Ratio (x) = 0.45555 0.36198
# Poissons Ratio (y) = 0.28958 0.35211
# Poissons Ratio (z) = 0.14808 0.22660
#
# Static dielectric constant tensor:
#      x y z
#    x 1.643520 0.000000 0.000000 
#    y 0.000000 1.685990 0.000000 
#    z 0.000000 0.000000 1.604610 
# 
# From -- ./inp_files/38428.got.cif
#   From: 2010.05.17/outbox.cif.g08.bks.cpg/sg69_20_cif.got.tgz:38428.got - 2010.06.03 19:29:58.
