data_PCOD9512485
_publ_section_title
;
Structure prediction by ZEFSAII (Michael W. Deem and Ramdas Pophale) SiO2 
 PCOD9512485
Probable space group: F M M M
;
_chemical_formula_sum "Si O2"
_cell_formula_units_Z 128
_cell_length_a 24.155043
_cell_length_b 17.905297
_cell_length_c 15.187344
_cell_angle_alpha 90.000000
_cell_angle_beta 90.000000
_cell_angle_gamma 90.000000
_cell_volume 6568.575167
_symmetry_space_group_name_H-M "F M M M"
_symmetry_group_IT_number 69
_symmetry_cell_setting 'orthorhombic'
loop_
_space_group_symop_operation_xyz
x,y,z
-x,-y,z
x,-y,-z
-x,y,-z
-x,-y,-z
x,y,-z
-x,y,z
x,-y,z
x,1/2+y,1/2+z
-x,1/2-y,1/2+z
x,1/2-y,1/2-z
-x,1/2+y,1/2-z
-x,1/2-y,1/2-z
x,1/2+y,1/2-z
-x,1/2+y,1/2+z
x,1/2-y,1/2+z
1/2+x,y,1/2+z
1/2-x,-y,1/2+z
1/2+x,-y,1/2-z
1/2-x,y,1/2-z
1/2-x,-y,1/2-z
1/2+x,y,1/2-z
1/2-x,y,1/2+z
1/2+x,-y,1/2+z
1/2+x,1/2+y,z
1/2-x,1/2-y,z
1/2+x,1/2-y,-z
1/2-x,1/2+y,-z
1/2-x,1/2-y,-z
1/2+x,1/2+y,-z
1/2-x,1/2+y,z
1/2+x,1/2-y,z
loop_
_atom_site_type_symbol
_atom_site_label
_atom_site_fract_x
_atom_site_fract_y
_atom_site_fract_z
Si Si1 0.313715 0.000000 0.723907
Si Si2 0.322182 0.282063 0.654673
Si Si3 0.610033 0.500000 0.399294
Si Si4 0.438920 0.838389 0.102955
Si Si5 0.718292 0.871265 0.598292
O O1 0.250000 0.000000 0.750000
O O2 0.316160 0.074273 0.662557
O O3 0.350388 0.000000 0.812663
O O4 0.309010 0.250000 0.750000
O O5 0.385775 0.303860 0.649318
O O6 0.309562 0.210375 0.595040
O O7 0.280756 0.350192 0.631104
O O8 0.635791 0.500000 0.500000
O O9 0.572281 0.426771 0.394315
O O10 0.500000 0.820183 0.137652
O O11 0.436734 0.816169 0.000000
O O12 0.721707 0.902978 0.500000
#
# Coordination Sequence:
#
# PCOD9512485 Si02
#       5
#    16  32  16  32  32
#     4  12  23  36  53  81 110 141 187 231 273 334
#     4  11  21  36  55  81 115 148 184 230 284 340
#     4  10  21  37  56  80 114 150 182 229 291 344
#     4  10  20  35  56  81 109 144 188 234 282 339
#     4  11  22  37  57  80 113 152 187 228 281 340
#
# _framework density 19.486723000000001
#
# number of rings (size 3 to 8) (size 9 to 14) (size 15 to 20)
#    0.000    1.250    0.000    9.750    0.000    5.000 
#    0.000    0.000    0.000    0.000    0.000    0.000 
#    0.000   10.000    0.000    0.000    0.000    0.000 
#
# Total GULP energy -178560.181383 kJ/mol
# GULP energy per Si atom -5580.005668 kJ/mol
# Density = 1.944237 g / cm^3
# Si number density = 19.486723 Si / 1000 Ang^3
#
#
#
# Elastic Constant Matrix: (Units=GPa)
#
#
# Indices 1 2 3 4 5 6 
#
# 1 144.7801 28.0945 38.1739 0.0000 0.0000 0.0000
# 2 28.0945 73.9637 20.2510 0.0000 0.0000 0.0000
# 3 38.1739 20.2510 128.9274 0.0000 0.0000 0.0000
# 4 0.0000 0.0000 0.0000 -2.9766 0.0000 0.0000
# 5 0.0000 0.0000 0.0000 0.0000 19.7762 0.0000
# 6 0.0000 0.0000 0.0000 0.0000 0.0000 12.2295
#
#
#
# Elastic Compliance Matrix: (Units=1/GPa)
#
#
# Indices 1 2 3 4 5 6 
#
# 1 0.007900 -0.002466 -0.001952 0.000000 0.000000 0.000000
# 2 -0.002466 0.014898 -0.001610 0.000000 0.000000 0.000000
# 3 -0.001952 -0.001610 0.008587 0.000000 0.000000 0.000000
# 4 0.000000 0.000000 0.000000 -0.335954 0.000000 0.000000
# 5 0.000000 0.000000 0.000000 0.000000 0.050566 0.000000
# 6 0.000000 0.000000 0.000000 0.000000 0.000000 0.081769
#
#
# Mechanical properties :
#
#
# Convention : Reuss Voigt Hill
#
# Bulk Modulus (GPa) = 51.73539 57.85665 54.79602
# Shear Modulus (GPa) = -32.52350 23.21595 -4.65378
#
# Velocity S-wave (km/s) = -4.08978 3.45537 -1.54705
# Velocity P-wave (km/s) = 2.07483 6.75827 4.99896
#
# Compressibility (1/GPa) = 0.01932913
#
# Stress axis : x y z
#
# Youngs Moduli (GPa) = 126.57811 67.12424 116.45451
#
# Poissons Ratio (x) = 0.16556 0.22729
# Poissons Ratio (y) = 0.31220 0.18746
# Poissons Ratio (z) = 0.24705 0.10805
#
# Static dielectric constant tensor:
#      x y z
#    x 1.670710 0.000000 0.000000 
#    y 0.000000 1.732200 0.000000 
#    z 0.000000 0.000000 1.873930 
# 
# From -- ./inp_files/18650.got.cif
#   From: 2010.05.17/outbox.cif.g08.bks.cpg/sg69_10_cif.got.tgz:18650.got - 2010.06.03 19:29:58.
