data_PCOD9512218
_publ_section_title
;
Structure prediction by ZEFSAII (Michael W. Deem and Ramdas Pophale) SiO2 
 PCOD9512218
Probable space group: F M M M
;
_chemical_formula_sum "Si O2"
_cell_formula_units_Z 240
_cell_length_a 24.844170
_cell_length_b 27.848182
_cell_length_c 20.736267
_cell_angle_alpha 90.000000
_cell_angle_beta 90.000000
_cell_angle_gamma 90.000000
_cell_volume 14346.696700
_symmetry_space_group_name_H-M "F M M M"
_symmetry_group_IT_number 69
_symmetry_cell_setting 'orthorhombic'
loop_
_space_group_symop_operation_xyz
x,y,z
-x,-y,z
x,-y,-z
-x,y,-z
-x,-y,-z
x,y,-z
-x,y,z
x,-y,z
x,1/2+y,1/2+z
-x,1/2-y,1/2+z
x,1/2-y,1/2-z
-x,1/2+y,1/2-z
-x,1/2-y,1/2-z
x,1/2+y,1/2-z
-x,1/2+y,1/2+z
x,1/2-y,1/2+z
1/2+x,y,1/2+z
1/2-x,-y,1/2+z
1/2+x,-y,1/2-z
1/2-x,y,1/2-z
1/2-x,-y,1/2-z
1/2+x,y,1/2-z
1/2-x,y,1/2+z
1/2+x,-y,1/2+z
1/2+x,1/2+y,z
1/2-x,1/2-y,z
1/2+x,1/2-y,-z
1/2-x,1/2+y,-z
1/2-x,1/2-y,-z
1/2+x,1/2+y,-z
1/2-x,1/2+y,z
1/2+x,1/2-y,z
loop_
_atom_site_type_symbol
_atom_site_label
_atom_site_fract_x
_atom_site_fract_y
_atom_site_fract_z
Si Si1 0.112272 0.442254 0.148507
Si Si2 0.207264 0.288757 0.150579
Si Si3 0.128421 0.281516 0.574901
Si Si4 0.062748 0.291313 0.698406
Si Si5 0.794817 0.137606 0.880313
Si Si6 0.000000 0.441833 0.924515
Si Si7 0.647270 0.138578 0.752839
Si Si8 0.223402 0.553369 0.923750
O O1 0.109652 0.500000 0.162351
O O2 0.127192 0.408265 0.208912
O O3 0.164394 0.433626 0.103278
O O4 0.055477 0.428625 0.113490
O O5 0.250000 0.250000 0.178984
O O6 0.169633 0.258331 0.102973
O O7 0.244355 0.326578 0.113836
O O8 0.173665 0.320771 0.200835
O O9 0.116124 0.274111 0.500000
O O10 0.079748 0.278608 0.625669
O O11 0.157112 0.333555 0.585010
O O12 0.077652 0.250000 0.750000
O O13 0.095941 0.337390 0.719673
O O14 0.000000 0.299267 0.703054
O O15 0.810810 0.130486 0.805378
O O16 0.772183 0.088152 0.906388
O O17 0.000000 0.500000 0.926738
O O18 0.000000 0.425460 0.000000
O O19 0.235234 0.500000 0.898719
O O20 0.218468 0.552354 0.000000
#
# Coordination Sequence:
#
# PCOD9512218 Si02
#       8
#    32  32  32  32  32  16  32  32
#     4  10  21  35  54  80 108 142 183 229 273 322
#     4  10  20  33  52  77 108 139 176 216 259 315
#     4  10  21  36  55  80 106 137 180 225 266 318
#     4  10  21  37  57  76 103 141 176 220 275 327
#     4  10  21  33  52  76 108 141 176 214 267 318
#     4   9  18  36  58  76 101 142 187 229 276 327
#     4  11  21  35  54  81 107 142 180 225 268 330
#     4  10  20  34  51  75 108 143 177 216 268 327
#
# _framework density 16.728588999999999
#
# number of rings (size 3 to 8) (size 9 to 14) (size 15 to 20)
#    0.000    1.933    2.667    1.200    0.933    8.000 
#    0.000    1.333    0.000    0.000    0.000    0.000 
#    0.000    0.000    0.000   14.133    0.000    0.000 
#
# Total GULP energy -334208.882589 kJ/mol
# GULP energy per Si atom -5570.148043 kJ/mol
# Density = 1.669051 g / cm^3
# Si number density = 16.728589 Si / 1000 Ang^3
#
#
#
# Elastic Constant Matrix: (Units=GPa)
#
#
# Indices 1 2 3 4 5 6 
#
# 1 36.5240 21.9733 8.9417 0.0000 0.0000 0.0000
# 2 21.9733 54.6353 29.5432 0.0000 0.0000 0.0000
# 3 8.9417 29.5432 87.8270 0.0000 0.0000 0.0000
# 4 0.0000 0.0000 0.0000 -11.8579 0.0000 0.0000
# 5 0.0000 0.0000 0.0000 0.0000 3.9490 0.0000
# 6 0.0000 0.0000 0.0000 0.0000 0.0000 12.1216
#
#
#
# Elastic Compliance Matrix: (Units=1/GPa)
#
#
# Indices 1 2 3 4 5 6 
#
# 1 0.036276 -0.015392 0.001484 0.000000 0.000000 0.000000
# 2 -0.015392 0.028904 -0.008155 0.000000 0.000000 0.000000
# 3 0.001484 -0.008155 0.013978 0.000000 0.000000 0.000000
# 4 0.000000 0.000000 0.000000 -0.084332 0.000000 0.000000
# 5 0.000000 0.000000 0.000000 0.000000 0.253230 0.000000
# 6 0.000000 0.000000 0.000000 0.000000 0.000000 0.082497
#
#
# Mechanical properties :
#
#
# Convention : Reuss Voigt Hill
#
# Bulk Modulus (GPa) = 28.54601 33.32253 30.93427
# Shear Modulus (GPa) = 12.94139 8.74441 10.84290
#
# Velocity S-wave (km/s) = 2.78440 2.28879 2.54867
# Velocity P-wave (km/s) = 5.23817 5.19110 5.21469
#
# Compressibility (1/GPa) = 0.03503117
#
# Stress axis : x y z
#
# Youngs Moduli (GPa) = 27.56642 34.59777 71.53982
#
# Poissons Ratio (x) = 0.53254 -0.10619
# Poissons Ratio (y) = 0.42431 0.58344
# Poissons Ratio (z) = -0.04092 0.28216
#
# Static dielectric constant tensor:
#      x y z
#    x 1.557340 0.000000 0.000000 
#    y 0.000000 1.596600 0.000000 
#    z 0.000000 0.000000 1.568660 
# 
# From -- ./inp_files/33028.got.cif
#   From: 2010.05.17/outbox.cif.g08.bks.cpg/sg69_17_cif.got.tgz:33028.got - 2010.06.03 19:29:58.
