data_PCOD9512819
_publ_section_title
;
Structure prediction by ZEFSAII (Michael W. Deem and Ramdas Pophale) SiO2 
 PCOD9512819
Probable space group: F M M M
;
_chemical_formula_sum "Si O2"
_cell_formula_units_Z 144
_cell_length_a 7.791727
_cell_length_b 27.866986
_cell_length_c 28.217219
_cell_angle_alpha 90.000000
_cell_angle_beta 90.000000
_cell_angle_gamma 90.000000
_cell_volume 6126.859707
_symmetry_space_group_name_H-M "F M M M"
_symmetry_group_IT_number 69
_symmetry_cell_setting 'orthorhombic'
loop_
_space_group_symop_operation_xyz
x,y,z
-x,-y,z
x,-y,-z
-x,y,-z
-x,-y,-z
x,y,-z
-x,y,z
x,-y,z
x,1/2+y,1/2+z
-x,1/2-y,1/2+z
x,1/2-y,1/2-z
-x,1/2+y,1/2-z
-x,1/2-y,1/2-z
x,1/2+y,1/2-z
-x,1/2+y,1/2+z
x,1/2-y,1/2+z
1/2+x,y,1/2+z
1/2-x,-y,1/2+z
1/2+x,-y,1/2-z
1/2-x,y,1/2-z
1/2-x,-y,1/2-z
1/2+x,y,1/2-z
1/2-x,y,1/2+z
1/2+x,-y,1/2+z
1/2+x,1/2+y,z
1/2-x,1/2-y,z
1/2+x,1/2-y,-z
1/2-x,1/2+y,-z
1/2-x,1/2-y,-z
1/2+x,1/2+y,-z
1/2-x,1/2+y,z
1/2+x,1/2-y,z
loop_
_atom_site_type_symbol
_atom_site_label
_atom_site_fract_x
_atom_site_fract_y
_atom_site_fract_z
Si Si1 0.703629 0.441662 0.550563
Si Si2 0.704194 0.306083 0.898056
Si Si3 0.206909 0.307168 0.500000
Si Si4 0.211237 0.554681 0.845228
Si Si5 0.199883 0.853598 0.299535
O O1 0.779131 0.425019 0.500000
O O2 0.500000 0.431224 0.549864
O O3 0.717728 0.500000 0.550801
O O4 0.770520 0.427807 0.602336
O O5 0.500000 0.311585 0.898354
O O6 0.750000 0.250000 0.898257
O O7 0.768564 0.326609 0.848586
O O8 0.771730 0.326141 0.948942
O O9 0.250000 0.250000 0.500000
O O10 0.000000 0.311348 0.500000
O O11 0.265456 0.500000 0.837113
O O12 0.275962 0.593163 0.807460
O O13 0.000000 0.554151 0.846638
O O14 0.250000 0.829958 0.250000
O O15 0.000000 0.860392 0.295286
#
# Coordination Sequence:
#
# PCOD9512819 Si02
#       5
#    32  32  16  32  32
#     4   7   9  16  34  60  91 127 164 206 261 320
#     4  10  20  38  63  90 119 150 184 225 277 338
#     4   8  16  32  58  88 117 148 179 217 270 333
#     4   8  15  29  48  71 103 143 187 235 283 331
#     4  11  23  38  55  80 113 151 195 243 289 338
#
# _framework density 23.503067999999999
#
# number of rings (size 3 to 8) (size 9 to 14) (size 15 to 20)
#    0.000    3.111    0.000    3.333    0.000    1.778 
#    2.000    2.222    0.000    2.000    0.000    0.000 
#    0.000    2.667    0.000    0.000    0.000    0.000 
#
# Total GULP energy -200753.540375 kJ/mol
# GULP energy per Si atom -5576.487233 kJ/mol
# Density = 2.344957 g / cm^3
# Si number density = 23.503068 Si / 1000 Ang^3
#
#
#
# Elastic Constant Matrix: (Units=GPa)
#
#
# Indices 1 2 3 4 5 6 
#
# 1 33.5552 -6.9058 7.4613 0.0000 0.0000 0.0000
# 2 -6.9058 50.2170 42.4844 0.0000 0.0000 0.0000
# 3 7.4613 42.4844 200.2790 0.0000 0.0000 0.0000
# 4 0.0000 0.0000 0.0000 21.3315 0.0000 0.0000
# 5 0.0000 0.0000 0.0000 0.0000 10.2563 0.0000
# 6 0.0000 0.0000 0.0000 0.0000 0.0000 -0.1889
#
#
#
# Elastic Compliance Matrix: (Units=1/GPa)
#
#
# Indices 1 2 3 4 5 6 
#
# 1 0.031717 0.006534 -0.002568 0.000000 0.000000 0.000000
# 2 0.006534 0.025615 -0.005677 0.000000 0.000000 0.000000
# 3 -0.002568 -0.005677 0.006293 0.000000 0.000000 0.000000
# 4 0.000000 0.000000 0.000000 0.046879 0.000000 0.000000
# 5 0.000000 0.000000 0.000000 0.000000 0.097501 0.000000
# 6 0.000000 0.000000 0.000000 0.000000 0.000000 -5.292486
#
#
# Mechanical properties :
#
#
# Convention : Reuss Voigt Hill
#
# Bulk Modulus (GPa) = 16.61019 41.12566 28.86793
# Shear Modulus (GPa) = -0.98795 22.34719 10.67962
#
# Velocity S-wave (km/s) = -0.64905 3.08688 2.13396
# Velocity P-wave (km/s) = 2.55361 5.49919 4.28731
#
# Compressibility (1/GPa) = 0.06020399
#
# Stress axis : x y z
#
# Youngs Moduli (GPa) = 31.52848 39.03964 158.90834
#
# Poissons Ratio (x) = -0.25509 0.40802
# Poissons Ratio (y) = -0.20601 0.90213
# Poissons Ratio (z) = 0.08095 0.22163
#
# Static dielectric constant tensor:
#      x y z
#    x 1.831560 0.000000 0.000000 
#    y 0.000000 1.921310 0.000000 
#    z 0.000000 0.000000 2.064700 
# 
# From -- ./inp_files/44530.got.cif
#   From: 2010.05.17/outbox.cif.g08.bks.cpg/sg69_23_cif.got.tgz:44530.got - 2010.06.03 19:29:58.
