data_PCOD9512109
_publ_section_title
;
Structure prediction by ZEFSAII (Michael W. Deem and Ramdas Pophale) SiO2 
 PCOD9512109
Probable space group: F M M M
;
_chemical_formula_sum "Si O2"
_cell_formula_units_Z 176
_cell_length_a 13.826284
_cell_length_b 24.182479
_cell_length_c 31.710527
_cell_angle_alpha 90.000000
_cell_angle_beta 90.000000
_cell_angle_gamma 90.000000
_cell_volume 10602.535915
_symmetry_space_group_name_H-M "F M M M"
_symmetry_group_IT_number 69
_symmetry_cell_setting 'orthorhombic'
loop_
_space_group_symop_operation_xyz
x,y,z
-x,-y,z
x,-y,-z
-x,y,-z
-x,-y,-z
x,y,-z
-x,y,z
x,-y,z
x,1/2+y,1/2+z
-x,1/2-y,1/2+z
x,1/2-y,1/2-z
-x,1/2+y,1/2-z
-x,1/2-y,1/2-z
x,1/2+y,1/2-z
-x,1/2+y,1/2+z
x,1/2-y,1/2+z
1/2+x,y,1/2+z
1/2-x,-y,1/2+z
1/2+x,-y,1/2-z
1/2-x,y,1/2-z
1/2-x,-y,1/2-z
1/2+x,y,1/2-z
1/2-x,y,1/2+z
1/2+x,-y,1/2+z
1/2+x,1/2+y,z
1/2-x,1/2-y,z
1/2+x,1/2-y,-z
1/2-x,1/2+y,-z
1/2-x,1/2-y,-z
1/2+x,1/2+y,-z
1/2-x,1/2+y,z
1/2+x,1/2-y,z
loop_
_atom_site_type_symbol
_atom_site_label
_atom_site_fract_x
_atom_site_fract_y
_atom_site_fract_z
Si Si1 0.883628 0.199049 0.781319
Si Si2 0.885899 0.276726 0.624711
Si Si3 0.386608 0.351040 0.400072
Si Si4 0.113090 0.436275 0.824122
Si Si5 0.250000 0.897526 0.250000
Si Si6 0.276244 0.815409 0.546360
O O1 0.861024 0.250000 0.750000
O O2 0.849345 0.210756 0.828727
O O3 0.831999 0.143368 0.767667
O O4 0.000000 0.193334 0.780672
O O5 0.869786 0.211614 0.616446
O O6 0.844645 0.314205 0.587198
O O7 0.000000 0.284810 0.625151
O O8 0.500000 0.356365 0.411050
O O9 0.365860 0.394230 0.362616
O O10 0.316000 0.352113 0.440239
O O11 0.115673 0.500000 0.838444
O O12 0.192159 0.429256 0.786985
O O13 0.000000 0.424891 0.810639
O O14 0.314104 0.831303 0.500000
O O15 0.250000 0.750000 0.543070
#
# Coordination Sequence:
#
# PCOD9512109 Si02
#       6
#    32  32  32  32  16  32
#     4  10  20  31  45  70 101 130 160 192 229 281
#     4   9  17  29  44  65  95 126 154 183 219 273
#     4   9  17  30  47  64  87 121 154 185 228 279
#     4  10  21  35  49  66  89 120 163 211 252 289
#     4  12  20  30  48  68  92 126 160 198 244 288
#     4   9  17  28  44  69  96 119 147 183 225 280
#
# _framework density 16.599803000000001
#
# number of rings (size 3 to 8) (size 9 to 14) (size 15 to 20)
#    0.000    2.364    0.000    3.273    0.000    6.545 
#    0.000    3.636    0.000    0.545    0.000    2.545 
#    0.000    0.000    0.000    6.545    0.000    2.182 
#
# Total GULP energy -244998.374863 kJ/mol
# GULP energy per Si atom -5568.144883 kJ/mol
# Density = 1.656202 g / cm^3
# Si number density = 16.599803 Si / 1000 Ang^3
#
#
#
# Elastic Constant Matrix: (Units=GPa)
#
#
# Indices 1 2 3 4 5 6 
#
# 1 58.0668 29.2561 36.2328 0.0000 0.0000 0.0000
# 2 29.2561 53.6468 36.7727 0.0000 0.0000 0.0000
# 3 36.2328 36.7727 124.7854 0.0000 0.0000 0.0000
# 4 0.0000 0.0000 0.0000 7.0137 0.0000 0.0000
# 5 0.0000 0.0000 0.0000 0.0000 15.4916 0.0000
# 6 0.0000 0.0000 0.0000 0.0000 0.0000 19.8116
#
#
#
# Elastic Compliance Matrix: (Units=1/GPa)
#
#
# Indices 1 2 3 4 5 6 
#
# 1 0.025327 -0.010991 -0.004115 0.000000 0.000000 0.000000
# 2 -0.010991 0.028129 -0.005098 0.000000 0.000000 0.000000
# 3 -0.004115 -0.005098 0.010711 0.000000 0.000000 0.000000
# 4 0.000000 0.000000 0.000000 0.142579 0.000000 0.000000
# 5 0.000000 0.000000 0.000000 0.000000 0.064551 0.000000
# 6 0.000000 0.000000 0.000000 0.000000 0.000000 0.050476
#
#
# Mechanical properties :
#
#
# Convention : Reuss Voigt Hill
#
# Bulk Modulus (GPa) = 42.09014 49.00247 45.54630
# Shear Modulus (GPa) = 13.50986 17.41253 15.46119
#
# Velocity S-wave (km/s) = 2.85591 3.24228 3.05521
# Velocity P-wave (km/s) = 6.02377 6.60307 6.32006
#
# Compressibility (1/GPa) = 0.02375854
#
# Stress axis : x y z
#
# Youngs Moduli (GPa) = 39.48349 35.55063 93.36344
#
# Poissons Ratio (x) = 0.39075 0.38419
# Poissons Ratio (y) = 0.43398 0.47595
# Poissons Ratio (z) = 0.16247 0.18123
#
# Static dielectric constant tensor:
#      x y z
#    x 1.609690 0.000000 0.000000 
#    y 0.000000 1.528460 0.000000 
#    z 0.000000 0.000000 1.601920 
# 
# From -- ./inp_files/18280.got.cif
#   From: 2010.05.17/outbox.cif.g08.bks.cpg/sg69_10_cif.got.tgz:18280.got - 2010.06.03 19:29:58.
