data_PCOD9512151
_publ_section_title
;
Structure prediction by ZEFSAII (Michael W. Deem and Ramdas Pophale) SiO2 
 PCOD9512151
Probable space group: F M M M
;
_chemical_formula_sum "Si O2"
_cell_formula_units_Z 180
_cell_length_a 25.902524
_cell_length_b 18.690891
_cell_length_c 17.704345
_cell_angle_alpha 90.000000
_cell_angle_beta 90.000000
_cell_angle_gamma 90.000000
_cell_volume 8571.403767
_symmetry_space_group_name_H-M "F M M M"
_symmetry_group_IT_number 69
_symmetry_cell_setting 'orthorhombic'
loop_
_space_group_symop_operation_xyz
x,y,z
-x,-y,z
x,-y,-z
-x,y,-z
-x,-y,-z
x,y,-z
-x,y,z
x,-y,z
x,1/2+y,1/2+z
-x,1/2-y,1/2+z
x,1/2-y,1/2-z
-x,1/2+y,1/2-z
-x,1/2-y,1/2-z
x,1/2+y,1/2-z
-x,1/2+y,1/2+z
x,1/2-y,1/2+z
1/2+x,y,1/2+z
1/2-x,-y,1/2+z
1/2+x,-y,1/2-z
1/2-x,y,1/2-z
1/2-x,-y,1/2-z
1/2+x,y,1/2-z
1/2-x,y,1/2+z
1/2+x,-y,1/2+z
1/2+x,1/2+y,z
1/2-x,1/2-y,z
1/2+x,1/2-y,-z
1/2-x,1/2+y,-z
1/2-x,1/2-y,-z
1/2+x,1/2+y,-z
1/2-x,1/2+y,z
1/2+x,1/2-y,z
loop_
_atom_site_type_symbol
_atom_site_label
_atom_site_fract_x
_atom_site_fract_y
_atom_site_fract_z
Si Si1 0.103743 0.500000 0.416648
Si Si2 0.437513 0.922831 0.088436
Si Si3 0.749734 0.830666 0.411196
Si Si4 0.194401 0.083739 0.292215
Si Si5 0.561972 0.737489 0.592023
Si Si6 0.638857 0.856050 0.656062
Si Si7 0.500000 0.500000 0.000000
O O1 0.130978 0.500000 0.500000
O O2 0.115062 0.569677 0.369797
O O3 0.044476 0.500000 0.436525
O O4 0.500000 0.922958 0.090914
O O5 0.423426 0.843706 0.116171
O O6 0.420695 0.000000 0.121398
O O7 0.422889 0.923623 0.000000
O O8 0.759142 0.829092 0.500000
O O9 0.750000 0.750000 0.379710
O O10 0.792001 0.880727 0.371910
O O11 0.691501 0.853041 0.392621
O O12 0.250000 0.085836 0.250000
O O13 0.156510 0.132742 0.242424
O O14 0.179909 0.000000 0.295472
O O15 0.568530 0.744070 0.500000
O O16 0.500000 0.748874 0.605899
O O17 0.599338 0.793234 0.633983
#
# Coordination Sequence:
#
# PCOD9512151 Si02
#       7
#    16  32  32  32  32  32   4
#     4  10  20  32  49  81 129 193 227 267 314 382
#     4   7  10  19  35  59  96 149 211 268 317 365
#     4  10  22  39  62  93 122 154 208 282 352 404
#     4   9  19  36  56  84 121 164 218 267 317 390
#     4   9  17  26  44  78 124 176 226 275 328 395
#     4  11  20  33  54  83 130 179 221 263 322 405
#     4   8  24  32  48  84 140 192 240 264 320 376
#
# _framework density 21.000060000000001
#
# number of rings (size 3 to 8) (size 9 to 14) (size 15 to 20)
#    0.267    2.489    0.889    3.200    2.489    3.556 
#    0.000    0.000    0.000    1.067    0.000    6.222 
#    0.000    2.844    0.000    2.400    0.000    0.000 
#
# Total GULP energy -250569.992225 kJ/mol
# GULP energy per Si atom -5568.222049 kJ/mol
# Density = 2.095226 g / cm^3
# Si number density = 21.000060 Si / 1000 Ang^3
#
#
#
# Elastic Constant Matrix: (Units=GPa)
#
#
# Indices 1 2 3 4 5 6 
#
# 1 95.5835 61.7616 42.8179 0.0000 0.0000 0.0000
# 2 61.7616 193.4859 48.3204 0.0000 0.0000 0.0000
# 3 42.8179 48.3204 68.0245 0.0000 0.0000 0.0000
# 4 0.0000 0.0000 0.0000 71.4992 0.0000 0.0000
# 5 0.0000 0.0000 0.0000 0.0000 38.8349 0.0000
# 6 0.0000 0.0000 0.0000 0.0000 0.0000 -66.1872
#
#
#
# Elastic Compliance Matrix: (Units=1/GPa)
#
#
# Indices 1 2 3 4 5 6 
#
# 1 0.016011 -0.003153 -0.007838 0.000000 0.000000 0.000000
# 2 -0.003153 0.006904 -0.002919 0.000000 0.000000 0.000000
# 3 -0.007838 -0.002919 0.021708 0.000000 0.000000 0.000000
# 4 0.000000 0.000000 0.000000 0.013986 0.000000 0.000000
# 5 0.000000 0.000000 0.000000 0.000000 0.025750 0.000000
# 6 0.000000 0.000000 0.000000 0.000000 0.000000 -0.015109
#
#
# Mechanical properties :
#
#
# Convention : Reuss Voigt Hill
#
# Bulk Modulus (GPa) = 59.51906 73.65489 66.58697
# Shear Modulus (GPa) = 48.69890 22.44231 35.57060
#
# Velocity S-wave (km/s) = 4.82081 3.27261 4.12009
# Velocity P-wave (km/s) = 7.70654 7.03063 7.37633
#
# Compressibility (1/GPa) = 0.01680134
#
# Stress axis : x y z
#
# Youngs Moduli (GPa) = 62.45828 144.84513 46.06615
#
# Poissons Ratio (x) = 0.45673 0.36107
# Poissons Ratio (y) = 0.19695 0.13448
# Poissons Ratio (z) = 0.48955 0.42285
#
# Static dielectric constant tensor:
#      x y z
#    x 1.719440 0.000000 0.000000 
#    y 0.000000 1.730230 0.000000 
#    z 0.000000 0.000000 1.775790 
# 
# From -- ./inp_files/27878.got.cif
#   From: 2010.05.17/outbox.cif.g08.bks.cpg/sg69_14_cif.got.tgz:27878.got - 2010.06.03 19:29:58.
