data_PCOD9512461
_publ_section_title
;
Structure prediction by ZEFSAII (Michael W. Deem and Ramdas Pophale) SiO2 
 PCOD9512461
Probable space group: F M M M
;
_chemical_formula_sum "Si O2"
_cell_formula_units_Z 144
_cell_length_a 27.606435
_cell_length_b 8.901469
_cell_length_c 32.301706
_cell_angle_alpha 90.000000
_cell_angle_beta 90.000000
_cell_angle_gamma 90.000000
_cell_volume 7937.750988
_symmetry_space_group_name_H-M "F M M M"
_symmetry_group_IT_number 69
_symmetry_cell_setting 'orthorhombic'
loop_
_space_group_symop_operation_xyz
x,y,z
-x,-y,z
x,-y,-z
-x,y,-z
-x,-y,-z
x,y,-z
-x,y,z
x,-y,z
x,1/2+y,1/2+z
-x,1/2-y,1/2+z
x,1/2-y,1/2-z
-x,1/2+y,1/2-z
-x,1/2-y,1/2-z
x,1/2+y,1/2-z
-x,1/2+y,1/2+z
x,1/2-y,1/2+z
1/2+x,y,1/2+z
1/2-x,-y,1/2+z
1/2+x,-y,1/2-z
1/2-x,y,1/2-z
1/2-x,-y,1/2-z
1/2+x,y,1/2-z
1/2-x,y,1/2+z
1/2+x,-y,1/2+z
1/2+x,1/2+y,z
1/2-x,1/2-y,z
1/2+x,1/2-y,-z
1/2-x,1/2+y,-z
1/2-x,1/2-y,-z
1/2+x,1/2+y,-z
1/2-x,1/2+y,z
1/2+x,1/2-y,z
loop_
_atom_site_type_symbol
_atom_site_label
_atom_site_fract_x
_atom_site_fract_y
_atom_site_fract_z
Si Si1 0.849172 0.321893 0.080217
Si Si2 0.444959 0.320665 0.372586
Si Si3 0.303045 0.322282 0.000000
Si Si4 0.397885 0.320933 0.793219
Si Si5 0.697835 0.679295 0.669466
O O1 0.846883 0.500000 0.071160
O O2 0.903980 0.283042 0.093749
O O3 0.830574 0.232113 0.041045
O O4 0.816789 0.294773 0.121282
O O5 0.500000 0.291651 0.385531
O O6 0.439694 0.500000 0.364310
O O7 0.431721 0.233348 0.330800
O O8 0.250000 0.250000 0.000000
O O9 0.298407 0.500000 0.000000
O O10 0.396386 0.500000 0.790823
O O11 0.414172 0.250000 0.750000
O O12 0.344615 0.255649 0.804005
O O13 0.697842 0.500000 0.676454
O O14 0.750000 0.750000 0.678037
#
# Coordination Sequence:
#
# PCOD9512461 Si02
#       5
#    32  32  16  32  32
#     4   9  19  36  57  81 110 141 177 221 266 317
#     4   9  19  38  62  84 107 139 179 223 272 324
#     4  12  24  36  55  82 113 147 182 221 263 312
#     4  11  22  36  54  78 109 143 181 226 272 320
#     4  10  20  35  55  79 107 142 182 223 271 327
#
# _framework density 18.141158000000001
#
# number of rings (size 3 to 8) (size 9 to 14) (size 15 to 20)
#    0.000    2.000    0.000    5.667    0.000    7.556 
#    0.000    2.778    0.000    3.333    0.000    0.000 
#    0.000    0.000    0.000    0.000    0.000    0.000 
#
# Total GULP energy -201115.321353 kJ/mol
# GULP energy per Si atom -5586.536704 kJ/mol
# Density = 1.809987 g / cm^3
# Si number density = 18.141158 Si / 1000 Ang^3
#
#
#
# Elastic Constant Matrix: (Units=GPa)
#
#
# Indices 1 2 3 4 5 6 
#
# 1 102.2244 39.1141 28.6153 0.0000 0.0000 -0.0003
# 2 39.1141 91.1374 59.3615 0.0000 0.0000 -0.0003
# 3 28.6153 59.3615 92.9920 0.0000 0.0000 -0.0001
# 4 0.0000 0.0000 0.0000 31.4312 0.0000 0.0000
# 5 0.0000 0.0000 0.0000 0.0000 4.1171 0.0000
# 6 -0.0003 -0.0003 -0.0001 0.0000 0.0000 26.4952
#
#
#
# Elastic Compliance Matrix: (Units=1/GPa)
#
#
# Indices 1 2 3 4 5 6 
#
# 1 0.011729 -0.004593 -0.000678 0.000000 0.000000 0.000000
# 2 -0.004593 0.020580 -0.011724 0.000000 0.000000 0.000000
# 3 -0.000678 -0.011724 0.018446 0.000000 0.000000 0.000000
# 4 0.000000 0.000000 0.000000 0.031816 0.000000 0.000000
# 5 0.000000 0.000000 0.000000 0.000000 0.242889 0.000000
# 6 0.000000 0.000000 0.000000 0.000000 0.000000 0.037743
#
#
# Mechanical properties :
#
#
# Convention : Reuss Voigt Hill
#
# Bulk Modulus (GPa) = 59.64115 60.05951 59.85033
# Shear Modulus (GPa) = 12.41375 23.02622 17.71999
#
# Velocity S-wave (km/s) = 2.61873 3.56656 3.12874
# Velocity P-wave (km/s) = 6.48777 7.08090 6.79081
#
# Compressibility (1/GPa) = 0.01676695
#
# Stress axis : x y z
#
# Youngs Moduli (GPa) = 85.25617 48.59160 54.21214
#
# Poissons Ratio (x) = 0.22316 0.03674
# Poissons Ratio (y) = 0.39155 0.63557
# Poissons Ratio (z) = 0.05777 0.56968
#
# Static dielectric constant tensor:
#      x y z
#    x 1.615640 0.000000 0.000000 
#    y 0.000000 1.600650 0.000000 
#    z 0.000000 0.000000 1.603150 
# 
# From -- ./inp_files/44504.got.cif
#   From: 2010.05.17/outbox.cif.g08.bks.cpg/sg69_23_cif.got.tgz:44504.got - 2010.06.03 19:29:58.
