data_PCOD9512773
_publ_section_title
;
Structure prediction by ZEFSAII (Michael W. Deem and Ramdas Pophale) SiO2 
 PCOD9512773
Probable space group: F M M M
;
_chemical_formula_sum "Si O2"
_cell_formula_units_Z 112
_cell_length_a 13.588237
_cell_length_b 17.474704
_cell_length_c 21.297336
_cell_angle_alpha 90.000000
_cell_angle_beta 90.000000
_cell_angle_gamma 90.000000
_cell_volume 5057.061367
_symmetry_space_group_name_H-M "F M M M"
_symmetry_group_IT_number 69
_symmetry_cell_setting 'orthorhombic'
loop_
_space_group_symop_operation_xyz
x,y,z
-x,-y,z
x,-y,-z
-x,y,-z
-x,-y,-z
x,y,-z
-x,y,z
x,-y,z
x,1/2+y,1/2+z
-x,1/2-y,1/2+z
x,1/2-y,1/2-z
-x,1/2+y,1/2-z
-x,1/2-y,1/2-z
x,1/2+y,1/2-z
-x,1/2+y,1/2+z
x,1/2-y,1/2+z
1/2+x,y,1/2+z
1/2-x,-y,1/2+z
1/2+x,-y,1/2-z
1/2-x,y,1/2-z
1/2-x,-y,1/2-z
1/2+x,y,1/2-z
1/2-x,y,1/2+z
1/2+x,-y,1/2+z
1/2+x,1/2+y,z
1/2-x,1/2-y,z
1/2+x,1/2-y,-z
1/2-x,1/2+y,-z
1/2-x,1/2-y,-z
1/2+x,1/2+y,-z
1/2-x,1/2+y,z
1/2+x,1/2-y,z
loop_
_atom_site_type_symbol
_atom_site_label
_atom_site_fract_x
_atom_site_fract_y
_atom_site_fract_z
Si Si1 0.616777 0.199744 0.110279
Si Si2 0.227722 0.417738 0.176640
Si Si3 0.118149 0.125615 0.926771
Si Si4 0.619126 0.414419 0.500000
O O1 0.500000 0.197736 0.118956
O O2 0.669552 0.162217 0.169132
O O3 0.639125 0.283887 0.085000
O O4 0.646373 0.136310 0.059097
O O5 0.175616 0.500000 0.161015
O O6 0.250000 0.421730 0.250000
O O7 0.321221 0.413742 0.129284
O O8 0.000000 0.113701 0.920298
O O9 0.142323 0.106377 0.000000
O O10 0.658000 0.500000 0.500000
O O11 0.500000 0.418435 0.500000
#
# Coordination Sequence:
#
# PCOD9512773 Si02
#       4
#    32  32  32  16
#     4  10  20  37  63  92 121 155 197 254 316 370
#     4  11  26  43  59  87 127 170 213 257 311 375
#     4  10  22  42  67  94 125 162 209 262 313 372
#     4   9  16  28  51  86 120 148 183 233 298 362
#
# _framework density 22.147251000000001
#
# number of rings (size 3 to 8) (size 9 to 14) (size 15 to 20)
#    0.000    1.857    1.429    1.714    2.000    7.429 
#    0.000    7.143    0.000    0.000    0.000    0.000 
#    0.000    0.000    0.000    0.000    0.000    0.000 
#
# Total GULP energy -156226.695633 kJ/mol
# GULP energy per Si atom -5579.524844 kJ/mol
# Density = 2.209684 g / cm^3
# Si number density = 22.147251 Si / 1000 Ang^3
#
#
#
# Elastic Constant Matrix: (Units=GPa)
#
#
# Indices 1 2 3 4 5 6 
#
# 1 77.2396 22.5177 38.2348 0.0000 0.0000 0.0000
# 2 22.5177 109.5049 40.1396 0.0000 0.0000 0.0000
# 3 38.2348 40.1396 130.0042 0.0000 0.0000 0.0000
# 4 0.0000 0.0000 0.0000 58.2683 0.0000 0.0000
# 5 0.0000 0.0000 0.0000 0.0000 20.2402 0.0000
# 6 0.0000 0.0000 0.0000 0.0000 0.0000 25.1781
#
#
#
# Elastic Compliance Matrix: (Units=1/GPa)
#
#
# Indices 1 2 3 4 5 6 
#
# 1 0.015429 -0.001702 -0.004012 0.000000 0.000000 0.000000
# 2 -0.001702 0.010485 -0.002737 0.000000 0.000000 0.000000
# 3 -0.004012 -0.002737 0.009717 0.000000 0.000000 0.000000
# 4 0.000000 0.000000 0.000000 0.017162 0.000000 0.000000
# 5 0.000000 0.000000 0.000000 0.000000 0.049407 0.000000
# 6 0.000000 0.000000 0.000000 0.000000 0.000000 0.039717
#
#
# Mechanical properties :
#
#
# Convention : Reuss Voigt Hill
#
# Bulk Modulus (GPa) = 53.39249 57.61476 55.50363
# Shear Modulus (GPa) = 30.29160 35.12775 32.70968
#
# Velocity S-wave (km/s) = 3.70230 3.98691 3.84724
# Velocity P-wave (km/s) = 6.51432 6.87494 6.69706
#
# Compressibility (1/GPa) = 0.01872922
#
# Stress axis : x y z
#
# Youngs Moduli (GPa) = 64.81286 95.37265 102.91147
#
# Poissons Ratio (x) = 0.16232 0.41291
# Poissons Ratio (y) = 0.11031 0.28165
# Poissons Ratio (z) = 0.26005 0.26102
#
# Static dielectric constant tensor:
#      x y z
#    x 1.868820 0.000000 0.000000 
#    y 0.000000 1.807170 0.000000 
#    z 0.000000 0.000000 1.894350 
# 
# From -- ./inp_files/35500.got.cif
#   From: 2010.05.17/outbox.cif.g08.bks.cpg/sg69_18_cif.got.tgz:35500.got - 2010.06.03 19:29:58.
