data_PCOD9512925
_publ_section_title
;
Structure prediction by ZEFSAII (Michael W. Deem and Ramdas Pophale) SiO2 
 PCOD9512925
Probable space group: F M M M
;
_chemical_formula_sum "Si O2"
_cell_formula_units_Z 160
_cell_length_a 7.396615
_cell_length_b 29.942424
_cell_length_c 31.861141
_cell_angle_alpha 90.000000
_cell_angle_beta 90.000000
_cell_angle_gamma 90.000000
_cell_volume 7056.369178
_symmetry_space_group_name_H-M "F M M M"
_symmetry_group_IT_number 69
_symmetry_cell_setting 'orthorhombic'
loop_
_space_group_symop_operation_xyz
x,y,z
-x,-y,z
x,-y,-z
-x,y,-z
-x,-y,-z
x,y,-z
-x,y,z
x,-y,z
x,1/2+y,1/2+z
-x,1/2-y,1/2+z
x,1/2-y,1/2-z
-x,1/2+y,1/2-z
-x,1/2-y,1/2-z
x,1/2+y,1/2-z
-x,1/2+y,1/2+z
x,1/2-y,1/2+z
1/2+x,y,1/2+z
1/2-x,-y,1/2+z
1/2+x,-y,1/2-z
1/2-x,y,1/2-z
1/2-x,-y,1/2-z
1/2+x,y,1/2-z
1/2-x,y,1/2+z
1/2+x,-y,1/2+z
1/2+x,1/2+y,z
1/2-x,1/2-y,z
1/2+x,1/2-y,-z
1/2-x,1/2+y,-z
1/2-x,1/2-y,-z
1/2+x,1/2+y,-z
1/2-x,1/2+y,z
1/2+x,1/2-y,z
loop_
_atom_site_type_symbol
_atom_site_label
_atom_site_fract_x
_atom_site_fract_y
_atom_site_fract_z
Si Si1 0.786287 0.945732 0.954775
Si Si2 0.216501 0.197427 0.136319
Si Si3 0.216027 0.125377 0.200745
Si Si4 0.221370 0.948575 0.136819
Si Si5 0.716094 0.696512 0.045005
O O1 0.717653 0.931394 0.909177
O O2 0.000000 0.934601 0.955497
O O3 0.773481 0.000000 0.954065
O O4 0.711161 0.931016 0.000000
O O5 0.250000 0.250000 0.141301
O O6 0.284496 0.168440 0.175163
O O7 0.285533 0.181616 0.090482
O O8 0.000000 0.192124 0.134566
O O9 0.250000 0.125365 0.250000
O O10 0.281481 0.082310 0.174935
O O11 0.000000 0.125182 0.196645
O O12 0.000000 0.948384 0.135600
O O13 0.276346 0.000000 0.141968
O O14 0.500000 0.689136 0.044733
O O15 0.750000 0.750000 0.044943
O O16 0.785921 0.679383 0.000000
#
# Coordination Sequence:
#
# PCOD9512925 Si02
#       5
#    32  32  32  32  32
#     4   7   9  15  31  57  88 119 146 171 207 260
#     4   9  18  32  49  69  93 120 150 185 225 269
#     4  10  21  35  49  67  91 118 152 194 234 270
#     4   8  14  26  44  65  91 122 151 181 222 270
#     4   8  13  23  41  64  89 116 144 174 212 260
#
# _framework density 22.67455
#
# number of rings (size 3 to 8) (size 9 to 14) (size 15 to 20)
#    0.000    3.600    0.000    1.800    0.000    1.600 
#    0.000    3.000    0.000    6.000    0.000    0.000 
#    0.000    2.400    0.000    5.000    0.000    4.000 
#
# Total GULP energy -222971.641391 kJ/mol
# GULP energy per Si atom -5574.291035 kJ/mol
# Density = 2.262294 g / cm^3
# Si number density = 22.674550 Si / 1000 Ang^3
#
#
#
# Elastic Constant Matrix: (Units=GPa)
#
#
# Indices 1 2 3 4 5 6 
#
# 1 76.6234 2.3109 10.0616 0.0000 0.0000 0.0000
# 2 2.3109 105.5225 104.8910 0.0000 0.0000 0.0000
# 3 10.0616 104.8910 303.0690 0.0000 0.0000 0.0000
# 4 0.0000 0.0000 0.0000 48.7695 0.0000 0.0000
# 5 0.0000 0.0000 0.0000 0.0000 -16.6714 0.0000
# 6 0.0000 0.0000 0.0000 0.0000 0.0000 -1.1200
#
#
#
# Elastic Compliance Matrix: (Units=1/GPa)
#
#
# Indices 1 2 3 4 5 6 
#
# 1 0.013111 0.000222 -0.000512 0.000000 0.000000 0.000000
# 2 0.000222 0.014450 -0.005009 0.000000 0.000000 0.000000
# 3 -0.000512 -0.005009 0.005050 0.000000 0.000000 0.000000
# 4 0.000000 0.000000 0.000000 0.020505 0.000000 0.000000
# 5 0.000000 0.000000 0.000000 0.000000 -0.059983 0.000000
# 6 0.000000 0.000000 0.000000 0.000000 0.000000 -0.892835
#
#
# Mechanical properties :
#
#
# Convention : Reuss Voigt Hill
#
# Bulk Modulus (GPa) = 45.42511 79.97133 62.69822
# Shear Modulus (GPa) = -5.67044 30.72571 12.52764
#
# Velocity S-wave (km/s) = -1.58311 3.68513 2.35308
# Velocity P-wave (km/s) = 4.09089 7.31113 5.92402
#
# Compressibility (1/GPa) = 0.02201426
#
# Stress axis : x y z
#
# Youngs Moduli (GPa) = 76.26955 69.20221 198.01852
#
# Poissons Ratio (x) = -0.01536 0.10140
# Poissons Ratio (y) = -0.01692 0.99179
# Poissons Ratio (z) = 0.03906 0.34661
#
# Static dielectric constant tensor:
#      x y z
#    x 1.965840 0.000000 0.000000 
#    y 0.000000 1.649100 0.000000 
#    z 0.000000 0.000000 1.871440 
# 
# From -- ./inp_files/11658.got.cif
#   From: 2010.05.17/outbox.cif.g08.bks.cpg/sg69_6_cif.got.tgz:11658.got - 2010.06.03 19:29:58.
