data_PCOD9512661
_publ_section_title
;
Structure prediction by ZEFSAII (Michael W. Deem and Ramdas Pophale) SiO2 
 PCOD9512661
Probable space group: F M M M
;
_chemical_formula_sum "Si O2"
_cell_formula_units_Z 176
_cell_length_a 17.813272
_cell_length_b 18.508015
_cell_length_c 24.669911
_cell_angle_alpha 90.000000
_cell_angle_beta 90.000000
_cell_angle_gamma 90.000000
_cell_volume 8133.381151
_symmetry_space_group_name_H-M "F M M M"
_symmetry_group_IT_number 69
_symmetry_cell_setting 'orthorhombic'
loop_
_space_group_symop_operation_xyz
x,y,z
-x,-y,z
x,-y,-z
-x,y,-z
-x,-y,-z
x,y,-z
-x,y,z
x,-y,z
x,1/2+y,1/2+z
-x,1/2-y,1/2+z
x,1/2-y,1/2-z
-x,1/2+y,1/2-z
-x,1/2-y,1/2-z
x,1/2+y,1/2-z
-x,1/2+y,1/2+z
x,1/2-y,1/2+z
1/2+x,y,1/2+z
1/2-x,-y,1/2+z
1/2+x,-y,1/2-z
1/2-x,y,1/2-z
1/2-x,-y,1/2-z
1/2+x,y,1/2-z
1/2-x,y,1/2+z
1/2+x,-y,1/2+z
1/2+x,1/2+y,z
1/2-x,1/2-y,z
1/2+x,1/2-y,-z
1/2-x,1/2+y,-z
1/2-x,1/2-y,-z
1/2+x,1/2+y,-z
1/2-x,1/2+y,z
1/2+x,1/2-y,z
loop_
_atom_site_type_symbol
_atom_site_label
_atom_site_fract_x
_atom_site_fract_y
_atom_site_fract_z
Si Si1 0.621616 0.916609 0.165594
Si Si2 0.847475 0.164366 0.936311
Si Si3 0.084205 0.669366 0.268734
Si Si4 0.794255 0.915192 0.159650
Si Si5 0.500000 0.419016 0.934609
Si Si6 0.911089 0.320110 0.062713
O O1 0.580496 0.876366 0.213842
O O2 0.709808 0.912529 0.181509
O O3 0.605739 0.878531 0.108406
O O4 0.600486 0.000000 0.162273
O O5 0.789063 0.123409 0.898882
O O6 0.861389 0.248793 0.926180
O O7 0.925335 0.124306 0.921689
O O8 0.832251 0.155233 0.000000
O O9 0.106235 0.750000 0.250000
O O10 0.145370 0.631022 0.306729
O O11 0.000000 0.672831 0.293433
O O12 0.816084 0.000000 0.156046
O O13 0.500000 0.500000 0.911685
O O14 0.500000 0.424493 0.000000
O O15 0.000000 0.300295 0.065727
O O16 0.897339 0.342466 0.000000
#
# Coordination Sequence:
#
# PCOD9512661 Si02
#       6
#    32  32  32  32  16  32
#     4  11  25  44  63  88 126 167 205 254 314 368
#     4  10  20  36  59  88 126 166 203 250 306 364
#     4  11  25  44  68  95 121 154 202 258 312 372
#     4  11  25  41  61  92 128 164 206 254 304 371
#     4   9  16  28  50  80 114 155 195 235 291 351
#     4  10  21  39  64  93 124 161 212 266 308 360
#
# _framework density 21.639216000000001
#
# number of rings (size 3 to 8) (size 9 to 14) (size 15 to 20)
#    0.000    1.545    0.909    3.273    1.273   11.273 
#    0.000    4.545    0.000    0.000    0.000    0.000 
#    0.000    0.000    0.000    0.000    0.000    0.000 
#
# Total GULP energy -246034.491111 kJ/mol
# GULP energy per Si atom -5591.692980 kJ/mol
# Density = 2.158996 g / cm^3
# Si number density = 21.639216 Si / 1000 Ang^3
#
#
#
# Elastic Constant Matrix: (Units=GPa)
#
#
# Indices 1 2 3 4 5 6 
#
# 1 59.6859 29.3663 20.7478 0.0000 0.0000 0.0000
# 2 29.3663 146.1258 67.8288 0.0000 0.0000 0.0000
# 3 20.7478 67.8288 86.9944 0.0000 0.0000 0.0000
# 4 0.0000 0.0000 0.0000 30.8348 0.0000 0.0000
# 5 0.0000 0.0000 0.0000 0.0000 51.1501 0.0000
# 6 0.0000 0.0000 0.0000 0.0000 0.0000 20.7393
#
#
#
# Elastic Compliance Matrix: (Units=1/GPa)
#
#
# Indices 1 2 3 4 5 6 
#
# 1 0.018914 -0.002675 -0.002425 0.000000 0.000000 0.000000
# 2 -0.002675 0.011103 -0.008019 0.000000 0.000000 0.000000
# 3 -0.002425 -0.008019 0.018326 0.000000 0.000000 0.000000
# 4 0.000000 0.000000 0.000000 0.032431 0.000000 0.000000
# 5 0.000000 0.000000 0.000000 0.000000 0.019550 0.000000
# 6 0.000000 0.000000 0.000000 0.000000 0.000000 0.048218
#
#
# Mechanical properties :
#
#
# Convention : Reuss Voigt Hill
#
# Bulk Modulus (GPa) = 45.24066 58.74354 51.99210
# Shear Modulus (GPa) = 27.45014 32.20239 29.82626
#
# Velocity S-wave (km/s) = 3.56552 3.86184 3.71663
# Velocity P-wave (km/s) = 6.15652 6.86227 6.51895
#
# Compressibility (1/GPa) = 0.02210401
#
# Stress axis : x y z
#
# Youngs Moduli (GPa) = 52.87196 90.06218 54.56799
#
# Poissons Ratio (x) = 0.24096 0.13231
# Poissons Ratio (y) = 0.14146 0.43759
# Poissons Ratio (z) = 0.12820 0.72222
#
# Static dielectric constant tensor:
#      x y z
#    x 1.815590 0.000000 0.000000 
#    y 0.000000 1.735270 0.000000 
#    z 0.000000 0.000000 1.779200 
# 
# From -- ./inp_files/41846.got.cif
#   From: 2010.05.17/outbox.cif.g08.bks.cpg/sg69_21_cif.got.tgz:41846.got - 2010.06.03 19:29:58.
