data_PCOD9512241
_publ_section_title
;
Structure prediction by ZEFSAII (Michael W. Deem and Ramdas Pophale) SiO2 
 PCOD9512241
Probable space group: F M M M
;
_chemical_formula_sum "Si O2"
_cell_formula_units_Z 160
_cell_length_a 15.203356
_cell_length_b 16.388119
_cell_length_c 30.112068
_cell_angle_alpha 90.000000
_cell_angle_beta 90.000000
_cell_angle_gamma 90.000000
_cell_volume 7502.554456
_symmetry_space_group_name_H-M "F M M M"
_symmetry_group_IT_number 69
_symmetry_cell_setting 'orthorhombic'
loop_
_space_group_symop_operation_xyz
x,y,z
-x,-y,z
x,-y,-z
-x,y,-z
-x,-y,-z
x,y,-z
-x,y,z
x,-y,z
x,1/2+y,1/2+z
-x,1/2-y,1/2+z
x,1/2-y,1/2-z
-x,1/2+y,1/2-z
-x,1/2-y,1/2-z
x,1/2+y,1/2-z
-x,1/2+y,1/2+z
x,1/2-y,1/2+z
1/2+x,y,1/2+z
1/2-x,-y,1/2+z
1/2+x,-y,1/2-z
1/2-x,y,1/2-z
1/2-x,-y,1/2-z
1/2+x,y,1/2-z
1/2-x,y,1/2+z
1/2+x,-y,1/2+z
1/2+x,1/2+y,z
1/2-x,1/2-y,z
1/2+x,1/2-y,-z
1/2-x,1/2+y,-z
1/2-x,1/2-y,-z
1/2+x,1/2+y,-z
1/2-x,1/2+y,z
1/2+x,1/2-y,z
loop_
_atom_site_type_symbol
_atom_site_label
_atom_site_fract_x
_atom_site_fract_y
_atom_site_fract_z
Si Si1 0.864337 0.670413 0.549235
Si Si2 0.154404 0.356310 0.049467
Si Si3 0.107646 0.835905 0.769644
Si Si4 0.102889 0.589843 0.641755
Si Si5 0.107386 0.000000 0.282857
Si Si6 0.105164 0.500000 0.884859
O O1 0.896178 0.645989 0.500000
O O2 0.885316 0.766090 0.555952
O O3 0.759055 0.658458 0.548471
O O4 0.893915 0.620658 0.591668
O O5 0.133493 0.420552 0.087408
O O6 0.127934 0.385793 0.000000
O O7 0.138751 0.750000 0.750000
O O8 0.137899 0.849661 0.820508
O O9 0.134220 0.916908 0.742288
O O10 0.000000 0.832843 0.767897
O O11 0.143785 0.500000 0.645246
O O12 0.000000 0.581971 0.652813
O O13 0.136685 0.000000 0.334047
O O14 0.000000 0.000000 0.282327
O O15 0.000000 0.500000 0.883356
#
# Coordination Sequence:
#
# PCOD9512241 Si02
#       6
#    32  32  32  32  16  16
#     4   9  20  38  58  78 105 148 194 226 264 330
#     4   9  20  39  57  77 108 147 186 221 270 339
#     4   9  17  31  52  75 106 147 182 219 273 333
#     4  10  20  33  53  83 113 140 179 232 278 314
#     4   9  18  33  49  77 112 136 173 223 270 336
#     4  11  23  34  56  90 116 140 178 235 295 338
#
# _framework density 21.326070000000001
#
# number of rings (size 3 to 8) (size 9 to 14) (size 15 to 20)
#    0.000    2.600    1.000    1.500    4.200    2.400 
#    0.000    3.000    0.000    2.400    0.000    0.000 
#    0.000    0.000    0.000    0.000    0.000    0.000 
#
# Total GULP energy -223206.982807 kJ/mol
# GULP energy per Si atom -5580.174570 kJ/mol
# Density = 2.127753 g / cm^3
# Si number density = 21.326070 Si / 1000 Ang^3
#
#
#
# Elastic Constant Matrix: (Units=GPa)
#
#
# Indices 1 2 3 4 5 6 
#
# 1 33.9410 5.7916 3.7375 0.0000 0.0000 0.0000
# 2 5.7916 147.2667 103.6246 0.0000 0.0000 0.0000
# 3 3.7375 103.6246 182.7228 0.0000 0.0000 0.0000
# 4 0.0000 0.0000 0.0000 36.2901 0.0000 0.0000
# 5 0.0000 0.0000 0.0000 0.0000 35.9367 0.0000
# 6 0.0000 0.0000 0.0000 0.0000 0.0000 36.1395
#
#
#
# Elastic Compliance Matrix: (Units=1/GPa)
#
#
# Indices 1 2 3 4 5 6 
#
# 1 0.029663 -0.001231 0.000091 0.000000 0.000000 0.000000
# 2 -0.001231 0.011351 -0.006412 0.000000 0.000000 0.000000
# 3 0.000091 -0.006412 0.009107 0.000000 0.000000 0.000000
# 4 0.000000 0.000000 0.000000 0.027556 0.000000 0.000000
# 5 0.000000 0.000000 0.000000 0.000000 0.027827 0.000000
# 6 0.000000 0.000000 0.000000 0.000000 0.000000 0.027671
#
#
# Mechanical properties :
#
#
# Convention : Reuss Voigt Hill
#
# Bulk Modulus (GPa) = 28.55690 65.58198 47.06944
# Shear Modulus (GPa) = 31.25999 38.39173 34.82586
#
# Velocity S-wave (km/s) = 3.83274 4.24751 4.04545
# Velocity P-wave (km/s) = 5.74511 7.40769 6.62873
#
# Compressibility (1/GPa) = 0.03501781
#
# Stress axis : x y z
#
# Youngs Moduli (GPa) = 33.71217 88.10162 109.80373
#
# Poissons Ratio (x) = 0.10843 -0.01002
# Poissons Ratio (y) = 0.04149 0.70405
# Poissons Ratio (z) = -0.00308 0.56490
#
# Static dielectric constant tensor:
#      x y z
#    x 1.810120 0.000000 0.000000 
#    y 0.000000 1.765220 0.000000 
#    z 0.000000 0.000000 1.763030 
# 
# From -- ./inp_files/15699.got.cif
#   From: 2010.05.17/outbox.cif.g08.bks.cpg/sg69_8_cif.got.tgz:15699.got - 2010.06.03 19:29:58.
