data_PCOD9512561
_publ_section_title
;
Structure prediction by ZEFSAII (Michael W. Deem and Ramdas Pophale) SiO2 
 PCOD9512561
Probable space group: F M M M
;
_chemical_formula_sum "Si O2"
_cell_formula_units_Z 176
_cell_length_a 17.834922
_cell_length_b 26.389713
_cell_length_c 16.384732
_cell_angle_alpha 90.000000
_cell_angle_beta 90.000000
_cell_angle_gamma 90.000000
_cell_volume 7711.612943
_symmetry_space_group_name_H-M "F M M M"
_symmetry_group_IT_number 69
_symmetry_cell_setting 'orthorhombic'
loop_
_space_group_symop_operation_xyz
x,y,z
-x,-y,z
x,-y,-z
-x,y,-z
-x,-y,-z
x,y,-z
-x,y,z
x,-y,z
x,1/2+y,1/2+z
-x,1/2-y,1/2+z
x,1/2-y,1/2-z
-x,1/2+y,1/2-z
-x,1/2-y,1/2-z
x,1/2+y,1/2-z
-x,1/2+y,1/2+z
x,1/2-y,1/2+z
1/2+x,y,1/2+z
1/2-x,-y,1/2+z
1/2+x,-y,1/2-z
1/2-x,y,1/2-z
1/2-x,-y,1/2-z
1/2+x,y,1/2-z
1/2-x,y,1/2+z
1/2+x,-y,1/2+z
1/2+x,1/2+y,z
1/2-x,1/2-y,z
1/2+x,1/2-y,-z
1/2-x,1/2+y,-z
1/2-x,1/2-y,-z
1/2+x,1/2+y,-z
1/2-x,1/2+y,z
1/2+x,1/2-y,z
loop_
_atom_site_type_symbol
_atom_site_label
_atom_site_fract_x
_atom_site_fract_y
_atom_site_fract_z
Si Si1 0.798731 0.057747 0.852824
Si Si2 0.318955 0.211642 0.906505
Si Si3 0.414286 0.195528 0.370973
Si Si4 0.123261 0.941780 0.404504
Si Si5 0.642640 0.883674 0.500000
Si Si6 0.637170 0.634454 0.720416
O O1 0.713418 0.061400 0.887204
O O2 0.849968 0.073526 0.928379
O O3 0.821849 0.094822 0.779760
O O4 0.810185 0.000000 0.825921
O O5 0.250000 0.250000 0.900373
O O6 0.389994 0.246627 0.884089
O O7 0.311630 0.167935 0.840051
O O8 0.323030 0.192478 0.000000
O O9 0.500000 0.187611 0.396066
O O10 0.364113 0.160885 0.429693
O O11 0.403470 0.174251 0.279823
O O12 0.109741 0.930941 0.500000
O O13 0.090427 0.900483 0.342525
O O14 0.100507 0.000000 0.388809
#
# Coordination Sequence:
#
# PCOD9512561 Si02
#       6
#    32  32  32  32  16  32
#     4  10  20  35  59  96 136 169 210 266 331 401
#     4  11  26  42  63  95 133 169 217 278 339 394
#     4  11  25  45  66  92 127 174 224 272 326 400
#     4  10  20  35  59  92 132 172 213 262 330 404
#     4  10  20  36  69  95 125 174 209 270 325 400
#     4  11  24  36  61  90 127 167 215 270 326 394
#
# _framework density 22.822721999999999
#
# number of rings (size 3 to 8) (size 9 to 14) (size 15 to 20)
#    0.000    1.455    1.818    2.727    7.636    3.636 
#    0.000    0.000    0.000   30.000    0.000    1.273 
#    0.000    0.000    0.000    0.000    0.000    0.000 
#
# Total GULP energy -244960.066901 kJ/mol
# GULP energy per Si atom -5567.274248 kJ/mol
# Density = 2.277078 g / cm^3
# Si number density = 22.822722 Si / 1000 Ang^3
#
#
#
# Elastic Constant Matrix: (Units=GPa)
#
#
# Indices 1 2 3 4 5 6 
#
# 1 24.8338 13.4051 15.4649 0.0000 0.0000 0.0000
# 2 13.4051 116.0869 66.6417 0.0000 0.0000 0.0000
# 3 15.4649 66.6417 206.7330 0.0000 0.0000 0.0000
# 4 0.0000 0.0000 0.0000 49.7875 0.0000 0.0000
# 5 0.0000 0.0000 0.0000 0.0000 -1.9149 0.0000
# 6 0.0000 0.0000 0.0000 0.0000 0.0000 -7.2597
#
#
#
# Elastic Compliance Matrix: (Units=1/GPa)
#
#
# Indices 1 2 3 4 5 6 
#
# 1 0.043616 -0.003882 -0.002011 0.000000 0.000000 0.000000
# 2 -0.003882 0.010916 -0.003228 0.000000 0.000000 0.000000
# 3 -0.002011 -0.003228 0.006028 0.000000 0.000000 0.000000
# 4 0.000000 0.000000 0.000000 0.020085 0.000000 0.000000
# 5 0.000000 0.000000 0.000000 0.000000 -0.522230 0.000000
# 6 0.000000 0.000000 0.000000 0.000000 0.000000 -0.137747
#
#
# Mechanical properties :
#
#
# Convention : Reuss Voigt Hill
#
# Bulk Modulus (GPa) = 23.63142 59.85301 41.74221
# Shear Modulus (GPa) = -9.14105 24.93206 7.89551
#
# Velocity S-wave (km/s) = -2.00348 3.30877 1.86199
# Velocity P-wave (km/s) = 2.24163 6.39370 4.79084
#
# Compressibility (1/GPa) = 0.04231655
#
# Stress axis : x y z
#
# Youngs Moduli (GPa) = 22.92754 91.61031 165.88385
#
# Poissons Ratio (x) = 0.35562 0.33366
# Poissons Ratio (y) = 0.08900 0.53554
# Poissons Ratio (z) = 0.04612 0.29575
#
# Static dielectric constant tensor:
#      x y z
#    x 1.918920 0.000000 0.000000 
#    y 0.000000 1.869580 0.000000 
#    z 0.000000 0.000000 1.844390 
# 
# From -- ./inp_files/17898.got.cif
#   From: 2010.05.17/outbox.cif.g08.bks.cpg/sg69_9_cif.got.tgz:17898.got - 2010.06.03 19:29:58.
