data_PCOD9512447
_publ_section_title
;
Structure prediction by ZEFSAII (Michael W. Deem and Ramdas Pophale) SiO2 
 PCOD9512447
Probable space group: F M M M
;
_chemical_formula_sum "Si O2"
_cell_formula_units_Z 208
_cell_length_a 20.608506
_cell_length_b 19.200669
_cell_length_c 26.329007
_cell_angle_alpha 90.000000
_cell_angle_beta 90.000000
_cell_angle_gamma 90.000000
_cell_volume 10418.311776
_symmetry_space_group_name_H-M "F M M M"
_symmetry_group_IT_number 69
_symmetry_cell_setting 'orthorhombic'
loop_
_space_group_symop_operation_xyz
x,y,z
-x,-y,z
x,-y,-z
-x,y,-z
-x,-y,-z
x,y,-z
-x,y,z
x,-y,z
x,1/2+y,1/2+z
-x,1/2-y,1/2+z
x,1/2-y,1/2-z
-x,1/2+y,1/2-z
-x,1/2-y,1/2-z
x,1/2+y,1/2-z
-x,1/2+y,1/2+z
x,1/2-y,1/2+z
1/2+x,y,1/2+z
1/2-x,-y,1/2+z
1/2+x,-y,1/2-z
1/2-x,y,1/2-z
1/2-x,-y,1/2-z
1/2+x,y,1/2-z
1/2-x,y,1/2+z
1/2+x,-y,1/2+z
1/2+x,1/2+y,z
1/2-x,1/2-y,z
1/2+x,1/2-y,-z
1/2-x,1/2+y,-z
1/2-x,1/2-y,-z
1/2+x,1/2+y,-z
1/2-x,1/2+y,z
1/2+x,1/2-y,z
loop_
_atom_site_type_symbol
_atom_site_label
_atom_site_fract_x
_atom_site_fract_y
_atom_site_fract_z
Si Si1 0.230174 0.083735 0.341730
Si Si2 0.708680 0.821975 0.939212
Si Si3 0.371141 0.682576 0.717646
Si Si4 0.926907 0.418186 0.500000
Si Si5 0.426692 0.115374 0.396940
Si Si6 0.370192 0.575232 0.794029
Si Si7 0.927446 0.280807 0.111245
O O1 0.233188 0.120304 0.397738
O O2 0.181107 0.131524 0.309060
O O3 0.295979 0.090051 0.309088
O O4 0.215629 0.000000 0.345507
O O5 0.750000 0.750000 0.931446
O O6 0.633310 0.808324 0.922075
O O7 0.712068 0.838853 0.000000
O O8 0.347183 0.750000 0.750000
O O9 0.402547 0.633834 0.760099
O O10 0.415803 0.702470 0.670486
O O11 0.934565 0.500000 0.500000
O O12 0.890263 0.398258 0.550744
O O13 0.000000 0.383741 0.500000
O O14 0.500000 0.090291 0.404265
O O15 0.401596 0.076363 0.348813
O O16 0.425625 0.197506 0.390346
O O17 0.374787 0.500000 0.769080
O O18 0.000000 0.303911 0.095099
#
# Coordination Sequence:
#
# PCOD9512447 Si02
#       7
#    32  32  32  16  32  32  32
#     4  10  23  41  61  89 124 158 201 255 311 368
#     4  10  22  40  66  96 126 164 209 260 312 372
#     4  11  22  38  61  88 115 159 200 250 302 363
#     4   9  18  32  50  72 103 148 191 231 287 356
#     4  10  20  35  54  79 115 155 196 242 295 359
#     4  11  22  37  57  87 120 155 199 249 306 370
#     4  10  22  39  60  91 126 160 204 259 312 365
#
# _framework density 19.964846999999999
#
# number of rings (size 3 to 8) (size 9 to 14) (size 15 to 20)
#    0.000    1.769    1.538    2.308    3.231    4.308 
#    1.385    0.000    0.000   11.077    0.000    4.308 
#    0.000    0.000    0.000    0.000    0.000    0.000 
#
# Total GULP energy -289674.484469 kJ/mol
# GULP energy per Si atom -5570.663163 kJ/mol
# Density = 1.991941 g / cm^3
# Si number density = 19.964847 Si / 1000 Ang^3
#
#
#
# Elastic Constant Matrix: (Units=GPa)
#
#
# Indices 1 2 3 4 5 6 
#
# 1 48.1299 10.0452 13.4928 0.0000 0.0000 0.0000
# 2 10.0452 98.9011 49.3294 0.0000 0.0000 0.0000
# 3 13.4928 49.3294 135.0959 0.0000 0.0000 0.0000
# 4 0.0000 0.0000 0.0000 352.0279 0.0000 0.0000
# 5 0.0000 0.0000 0.0000 0.0000 49.7257 0.0000
# 6 0.0000 0.0000 0.0000 0.0000 0.0000 5.6451
#
#
#
# Elastic Compliance Matrix: (Units=1/GPa)
#
#
# Indices 1 2 3 4 5 6 
#
# 1 0.021525 -0.001362 -0.001652 0.000000 0.000000 0.000000
# 2 -0.001362 0.012449 -0.004410 0.000000 0.000000 0.000000
# 3 -0.001652 -0.004410 0.009177 0.000000 0.000000 0.000000
# 4 0.000000 0.000000 0.000000 0.002841 0.000000 0.000000
# 5 0.000000 0.000000 0.000000 0.000000 0.020110 0.000000
# 6 0.000000 0.000000 0.000000 0.000000 0.000000 0.177145
#
#
# Mechanical properties :
#
#
# Convention : Reuss Voigt Hill
#
# Bulk Modulus (GPa) = 35.33233 47.54019 41.43626
# Shear Modulus (GPa) = 18.68953 95.43037 57.05995
#
# Velocity S-wave (km/s) = 3.06293 6.92120 5.35185
# Velocity P-wave (km/s) = 5.49949 9.36666 7.68045
#
# Compressibility (1/GPa) = 0.02830269
#
# Stress axis : x y z
#
# Youngs Moduli (GPa) = 46.45840 80.32877 108.96426
#
# Poissons Ratio (x) = 0.10941 0.18006
# Poissons Ratio (y) = 0.06328 0.48049
# Poissons Ratio (z) = 0.07677 0.35422
#
# Static dielectric constant tensor:
#      x y z
#    x 1.778340 0.000000 0.000000 
#    y 0.000000 1.701700 0.000000 
#    z 0.000000 0.000000 1.824530 
# 
# From -- ./inp_files/42704.got.cif
#   From: 2010.05.17/outbox.cif.g08.bks.cpg/sg69_22_cif.got.tgz:42704.got - 2010.06.03 19:29:58.
