data_PCOD9512907
_publ_section_title
;
Structure prediction by ZEFSAII (Michael W. Deem and Ramdas Pophale) SiO2 
 PCOD9512907
Probable space group: F M M M
;
_chemical_formula_sum "Si O2"
_cell_formula_units_Z 116
_cell_length_a 28.624245
_cell_length_b 9.567959
_cell_length_c 25.965995
_cell_angle_alpha 90.000000
_cell_angle_beta 90.000000
_cell_angle_gamma 90.000000
_cell_volume 7111.452527
_symmetry_space_group_name_H-M "F M M M"
_symmetry_group_IT_number 69
_symmetry_cell_setting 'orthorhombic'
loop_
_space_group_symop_operation_xyz
x,y,z
-x,-y,z
x,-y,-z
-x,y,-z
-x,-y,-z
x,y,-z
-x,y,z
x,-y,z
x,1/2+y,1/2+z
-x,1/2-y,1/2+z
x,1/2-y,1/2-z
-x,1/2+y,1/2-z
-x,1/2-y,1/2-z
x,1/2+y,1/2-z
-x,1/2+y,1/2+z
x,1/2-y,1/2+z
1/2+x,y,1/2+z
1/2-x,-y,1/2+z
1/2+x,-y,1/2-z
1/2-x,y,1/2-z
1/2-x,-y,1/2-z
1/2+x,y,1/2-z
1/2-x,y,1/2+z
1/2+x,-y,1/2+z
1/2+x,1/2+y,z
1/2-x,1/2-y,z
1/2+x,1/2-y,-z
1/2-x,1/2+y,-z
1/2-x,1/2-y,-z
1/2+x,1/2+y,-z
1/2-x,1/2+y,z
1/2+x,1/2-y,z
loop_
_atom_site_type_symbol
_atom_site_label
_atom_site_fract_x
_atom_site_fract_y
_atom_site_fract_z
Si Si1 0.054286 0.666472 0.198433
Si Si2 0.551886 0.212082 0.000000
Si Si3 0.000000 0.000000 0.000000
Si Si4 0.884156 0.837918 0.598954
Si Si5 0.796974 0.664204 0.438150
O O1 0.057063 0.500000 0.207840
O O2 0.066640 0.750000 0.250000
O O3 0.087178 0.699531 0.150294
O O4 0.000000 0.699274 0.185702
O O5 0.540282 0.376700 0.000000
O O6 0.580989 0.173170 0.949582
O O7 0.500000 0.147844 0.000000
O O8 0.840754 0.736737 0.589135
O O9 0.868697 0.000000 0.602718
O O10 0.804278 0.675484 0.500000
O O11 0.792490 0.500000 0.425724
O O12 0.750000 0.750000 0.425922
#
# Coordination Sequence:
#
# PCOD9512907 Si02
#       5
#    32  16   4  32  32
#     4   9  19  36  53  77 106 141 183 223 260 310
#     4  10  21  34  49  72 112 142 175 212 265 313
#     4   8  24  36  42  72 120 140 178 216 256 322
#     4  11  21  33  55  79 108 140 178 218 268 322
#     4  10  21  35  54  77 109 141 178 219 263 320
#
# _framework density 16.311716000000001
#
# number of rings (size 3 to 8) (size 9 to 14) (size 15 to 20)
#    0.414    1.655    1.379    2.069    1.931    4.414 
#    0.000    0.000    0.000    0.828    0.000    5.793 
#    0.000    0.000    0.000    0.000    0.000    0.000 
#
# Total GULP energy -161484.546403 kJ/mol
# GULP energy per Si atom -5568.432635 kJ/mol
# Density = 1.627459 g / cm^3
# Si number density = 16.311716 Si / 1000 Ang^3
#
#
#
# Elastic Constant Matrix: (Units=GPa)
#
#
# Indices 1 2 3 4 5 6 
#
# 1 130.9881 76.4971 83.5073 0.0000 0.0000 0.0000
# 2 76.4971 120.4408 59.8792 0.0000 0.0000 0.0000
# 3 83.5073 59.8792 114.2158 0.0000 0.0000 0.0000
# 4 0.0000 0.0000 0.0000 25.6363 0.0000 0.0000
# 5 0.0000 0.0000 0.0000 0.0000 15.6105 0.0000
# 6 0.0000 0.0000 0.0000 0.0000 0.0000 30.7521
#
#
#
# Elastic Compliance Matrix: (Units=1/GPa)
#
#
# Indices 1 2 3 4 5 6 
#
# 1 0.017268 -0.006344 -0.009299 0.000000 0.000000 0.000000
# 2 -0.006344 0.013561 -0.002471 0.000000 0.000000 0.000000
# 3 -0.009299 -0.002471 0.016850 0.000000 0.000000 0.000000
# 4 0.000000 0.000000 0.000000 0.039007 0.000000 0.000000
# 5 0.000000 0.000000 0.000000 0.000000 0.064059 0.000000
# 6 0.000000 0.000000 0.000000 0.000000 0.000000 0.032518
#
#
# Mechanical properties :
#
#
# Convention : Reuss Voigt Hill
#
# Bulk Modulus (GPa) = 87.33803 89.49023 88.41413
# Shear Modulus (GPa) = 22.39068 24.11718 23.25393
#
# Velocity S-wave (km/s) = 3.70898 3.84932 3.77980
# Velocity P-wave (km/s) = 8.48537 8.64512 8.56561
#
# Compressibility (1/GPa) = 0.01144977
#
# Stress axis : x y z
#
# Youngs Moduli (GPa) = 57.91217 73.74188 59.34894
#
# Poissons Ratio (x) = 0.46784 0.55188
# Poissons Ratio (y) = 0.36741 0.14665
# Poissons Ratio (z) = 0.53852 0.18221
#
# Static dielectric constant tensor:
#      x y z
#    x 1.539610 0.000000 0.000000 
#    y 0.000000 1.549860 0.000000 
#    z 0.000000 0.000000 1.515950 
# 
# From -- ./inp_files/3779.got.cif
#   From: 2010.05.17/outbox.cif.g08.bks.cpg/sg69_2_cif.got.tgz:3779.got - 2010.06.03 19:29:58.
