data_PCOD9512619
_publ_section_title
;
Structure prediction by ZEFSAII (Michael W. Deem and Ramdas Pophale) SiO2 
 PCOD9512619
Probable space group: F M M M
;
_chemical_formula_sum "Si O2"
_cell_formula_units_Z 168
_cell_length_a 15.351042
_cell_length_b 31.415520
_cell_length_c 20.571110
_cell_angle_alpha 90.000000
_cell_angle_beta 90.000000
_cell_angle_gamma 90.000000
_cell_volume 9920.643400
_symmetry_space_group_name_H-M "F M M M"
_symmetry_group_IT_number 69
_symmetry_cell_setting 'orthorhombic'
loop_
_space_group_symop_operation_xyz
x,y,z
-x,-y,z
x,-y,-z
-x,y,-z
-x,-y,-z
x,y,-z
-x,y,z
x,-y,z
x,1/2+y,1/2+z
-x,1/2-y,1/2+z
x,1/2-y,1/2-z
-x,1/2+y,1/2-z
-x,1/2-y,1/2-z
x,1/2+y,1/2-z
-x,1/2+y,1/2+z
x,1/2-y,1/2+z
1/2+x,y,1/2+z
1/2-x,-y,1/2+z
1/2+x,-y,1/2-z
1/2-x,y,1/2-z
1/2-x,-y,1/2-z
1/2+x,y,1/2-z
1/2-x,y,1/2+z
1/2+x,-y,1/2+z
1/2+x,1/2+y,z
1/2-x,1/2-y,z
1/2+x,1/2-y,-z
1/2-x,1/2+y,-z
1/2-x,1/2-y,-z
1/2+x,1/2+y,-z
1/2-x,1/2+y,z
1/2+x,1/2-y,z
loop_
_atom_site_type_symbol
_atom_site_label
_atom_site_fract_x
_atom_site_fract_y
_atom_site_fract_z
Si Si1 0.000000 0.355534 0.500000
Si Si2 0.639693 0.654975 0.116909
Si Si3 0.603978 0.748380 0.174482
Si Si4 0.650513 0.104097 0.747787
Si Si5 0.661123 0.836755 0.873024
Si Si6 0.000000 0.449665 0.192469
Si Si7 0.000000 0.613348 0.072510
O O1 0.923705 0.354226 0.557387
O O2 0.622102 0.702581 0.143740
O O3 0.626090 0.623330 0.177993
O O4 0.742778 0.652561 0.101642
O O5 0.500000 0.756356 0.172905
O O6 0.631892 0.750000 0.250000
O O7 0.649391 0.786441 0.135661
O O8 0.750000 0.088592 0.750000
O O9 0.648556 0.142144 0.801296
O O10 0.584003 0.068063 0.769612
O O11 0.584607 0.857482 0.914946
O O12 0.000000 0.424815 0.124046
O O13 0.000000 0.500000 0.185875
O O14 0.000000 0.596699 0.000000
#
# Coordination Sequence:
#
# PCOD9512619 Si02
#       7
#     8  32  32  32  32  16  16
#     4  12  26  38  46  76 117 158 190 234 273 340
#     4  11  22  37  55  77 113 153 196 230 278 334
#     4  11  20  32  56  81 108 146 189 250 289 318
#     4   9  19  36  61  87 108 139 186 234 275 327
#     4  10  20  36  58  81 104 145 196 243 278 314
#     4  10  21  36  60  90 115 137 169 225 294 342
#     4  10  22  39  56  79 113 146 184 226 272 348
#
# _framework density 16.934384999999999
#
# number of rings (size 3 to 8) (size 9 to 14) (size 15 to 20)
#    0.000    1.714    3.810    1.143    1.333    1.333 
#    3.429    0.952    0.000    0.000    0.000    5.333 
#    0.000    0.000    0.000    0.000    0.000    0.000 
#
# Total GULP energy -233942.840751 kJ/mol
# GULP energy per Si atom -5570.067637 kJ/mol
# Density = 1.689584 g / cm^3
# Si number density = 16.934385 Si / 1000 Ang^3
#
#
#
# Elastic Constant Matrix: (Units=GPa)
#
#
# Indices 1 2 3 4 5 6 
#
# 1 121.6508 42.3259 75.2206 0.0000 0.0000 0.0000
# 2 42.3259 92.0188 44.2650 0.0000 0.0000 0.0000
# 3 75.2206 44.2650 118.0887 0.0000 0.0000 0.0000
# 4 0.0000 0.0000 0.0000 3.1532 0.0000 0.0000
# 5 0.0000 0.0000 0.0000 0.0000 26.1248 0.0000
# 6 0.0000 0.0000 0.0000 0.0000 0.0000 12.7491
#
#
#
# Elastic Compliance Matrix: (Units=1/GPa)
#
#
# Indices 1 2 3 4 5 6 
#
# 1 0.014067 -0.002635 -0.007973 0.000000 0.000000 0.000000
# 2 -0.002635 0.013752 -0.003476 0.000000 0.000000 0.000000
# 3 -0.007973 -0.003476 0.014850 0.000000 0.000000 0.000000
# 4 0.000000 0.000000 0.000000 0.317134 0.000000 0.000000
# 5 0.000000 0.000000 0.000000 0.000000 0.038278 0.000000
# 6 0.000000 0.000000 0.000000 0.000000 0.000000 0.078437
#
#
# Mechanical properties :
#
#
# Convention : Reuss Voigt Hill
#
# Bulk Modulus (GPa) = 68.96421 72.82013 70.89217
# Shear Modulus (GPa) = 9.81320 19.73522 14.77421
#
# Velocity S-wave (km/s) = 2.40986 3.41749 2.95691
# Velocity P-wave (km/s) = 6.96821 7.65944 7.32199
#
# Compressibility (1/GPa) = 0.01450028
#
# Stress axis : x y z
#
# Youngs Moduli (GPa) = 71.08952 72.71868 67.34192
#
# Poissons Ratio (x) = 0.19163 0.53688
# Poissons Ratio (y) = 0.18733 0.23409
# Poissons Ratio (z) = 0.56676 0.25278
#
# Static dielectric constant tensor:
#      x y z
#    x 1.604110 0.000000 0.000000 
#    y 0.000000 1.527700 0.000000 
#    z 0.000000 0.000000 1.563560 
# 
# From -- ./inp_files/30159.got.cif
#   From: 2010.05.17/outbox.cif.g08.bks.cpg/sg69_16_cif.got.tgz:30159.got - 2010.06.03 19:29:58.
