data_PCOD9512801
_publ_section_title
;
Structure prediction by ZEFSAII (Michael W. Deem and Ramdas Pophale) SiO2 
 PCOD9512801
Probable space group: F M M M
;
_chemical_formula_sum "Si O2"
_cell_formula_units_Z 160
_cell_length_a 18.117373
_cell_length_b 26.495633
_cell_length_c 18.570097
_cell_angle_alpha 90.000000
_cell_angle_beta 90.000000
_cell_angle_gamma 90.000000
_cell_volume 8914.227171
_symmetry_space_group_name_H-M "F M M M"
_symmetry_group_IT_number 69
_symmetry_cell_setting 'orthorhombic'
loop_
_space_group_symop_operation_xyz
x,y,z
-x,-y,z
x,-y,-z
-x,y,-z
-x,-y,-z
x,y,-z
-x,y,z
x,-y,z
x,1/2+y,1/2+z
-x,1/2-y,1/2+z
x,1/2-y,1/2-z
-x,1/2+y,1/2-z
-x,1/2-y,1/2-z
x,1/2+y,1/2-z
-x,1/2+y,1/2+z
x,1/2-y,1/2+z
1/2+x,y,1/2+z
1/2-x,-y,1/2+z
1/2+x,-y,1/2-z
1/2-x,y,1/2-z
1/2-x,-y,1/2-z
1/2+x,y,1/2-z
1/2-x,y,1/2+z
1/2+x,-y,1/2+z
1/2+x,1/2+y,z
1/2-x,1/2-y,z
1/2+x,1/2-y,-z
1/2-x,1/2+y,-z
1/2-x,1/2-y,-z
1/2+x,1/2+y,-z
1/2-x,1/2+y,z
1/2+x,1/2-y,z
loop_
_atom_site_type_symbol
_atom_site_label
_atom_site_fract_x
_atom_site_fract_y
_atom_site_fract_z
Si Si1 0.912573 0.857359 0.787722
Si Si2 0.681221 0.863419 0.082999
Si Si3 0.673836 0.557530 0.705996
Si Si4 0.164680 0.190394 0.086128
Si Si5 0.587252 0.787094 0.155697
O O1 0.882302 0.907634 0.750644
O O2 0.879342 0.850698 0.866913
O O3 0.892109 0.809942 0.734522
O O4 0.000000 0.857564 0.790757
O O5 0.688146 0.912206 0.132584
O O6 0.749651 0.824723 0.096558
O O7 0.606682 0.834108 0.104059
O O8 0.683105 0.876709 0.000000
O O9 0.649139 0.500000 0.695472
O O10 0.750000 0.557064 0.750000
O O11 0.135394 0.241668 0.123086
O O12 0.150745 0.191704 0.000000
O O13 0.500000 0.774245 0.155881
#
# Coordination Sequence:
#
# PCOD9512801 Si02
#       5
#    32  32  32  32  32
#     4  10  21  37  56  82 112 143 184 230 274 324
#     4  10  21  36  55  83 114 142 180 229 277 326
#     4  10  20  38  61  80 102 139 184 227 276 331
#     4  11  21  34  53  80 113 152 189 222 268 327
#     4  10  21  35  54  79 112 152 188 223 267 323
#
# _framework density 17.948834999999999
#
# number of rings (size 3 to 8) (size 9 to 14) (size 15 to 20)
#    0.000    1.800    2.000    2.400    0.000    6.800 
#    0.000    2.000    0.000    0.600    0.000    7.000 
#    0.000    0.000    0.000    0.000    0.000    0.000 
#
# Total GULP energy -223051.778952 kJ/mol
# GULP energy per Si atom -5576.294474 kJ/mol
# Density = 1.790798 g / cm^3
# Si number density = 17.948835 Si / 1000 Ang^3
#
#
#
# Elastic Constant Matrix: (Units=GPa)
#
#
# Indices 1 2 3 4 5 6 
#
# 1 48.4798 26.4818 43.4905 0.0000 0.0000 0.0000
# 2 26.4818 114.7674 55.9878 0.0000 0.0000 0.0000
# 3 43.4905 55.9878 110.4234 0.0000 0.0000 0.0000
# 4 0.0000 0.0000 0.0000 7.2092 0.0000 0.0000
# 5 0.0000 0.0000 0.0000 0.0000 14.1079 0.0000
# 6 0.0000 0.0000 0.0000 0.0000 0.0000 -43.9303
#
#
#
# Elastic Compliance Matrix: (Units=1/GPa)
#
#
# Indices 1 2 3 4 5 6 
#
# 1 0.032130 -0.001648 -0.011819 0.000000 0.000000 0.000000
# 2 -0.001648 0.011661 -0.005264 0.000000 0.000000 0.000000
# 3 -0.011819 -0.005264 0.016380 0.000000 0.000000 0.000000
# 4 0.000000 0.000000 0.000000 0.138712 0.000000 0.000000
# 5 0.000000 0.000000 0.000000 0.000000 0.070882 0.000000
# 6 0.000000 0.000000 0.000000 0.000000 0.000000 -0.022763
#
#
# Mechanical properties :
#
#
# Convention : Reuss Voigt Hill
#
# Bulk Modulus (GPa) = 44.03342 58.39899 51.21620
# Shear Modulus (GPa) = 17.12141 5.32473 11.22307
#
# Velocity S-wave (km/s) = 3.09188 1.72425 2.50327
# Velocity P-wave (km/s) = 6.11002 6.04740 6.07879
#
# Compressibility (1/GPa) = 0.02271002
#
# Stress axis : x y z
#
# Youngs Moduli (GPa) = 31.12371 85.75375 61.05134
#
# Poissons Ratio (x) = 0.14133 0.72155
# Poissons Ratio (y) = 0.05130 0.32134
# Poissons Ratio (z) = 0.36784 0.45137
#
# Static dielectric constant tensor:
#      x y z
#    x 1.603600 0.000000 0.000000 
#    y 0.000000 1.628520 0.000000 
#    z 0.000000 0.000000 1.621750 
# 
# From -- ./inp_files/23095.got.cif
#   From: 2010.05.17/outbox.cif.g08.bks.cpg/sg69_12_cif.got.tgz:23095.got - 2010.06.03 19:29:58.
