data_PCOD9512124
_publ_section_title
;
Structure prediction by ZEFSAII (Michael W. Deem and Ramdas Pophale) SiO2 
 PCOD9512124
Probable space group: F M M M
;
_chemical_formula_sum "Si O2"
_cell_formula_units_Z 144
_cell_length_a 29.937539
_cell_length_b 13.792248
_cell_length_c 18.955081
_cell_angle_alpha 90.000000
_cell_angle_beta 90.000000
_cell_angle_gamma 90.000000
_cell_volume 7826.665963
_symmetry_space_group_name_H-M "F M M M"
_symmetry_group_IT_number 69
_symmetry_cell_setting 'orthorhombic'
loop_
_space_group_symop_operation_xyz
x,y,z
-x,-y,z
x,-y,-z
-x,y,-z
-x,-y,-z
x,y,-z
-x,y,z
x,-y,z
x,1/2+y,1/2+z
-x,1/2-y,1/2+z
x,1/2-y,1/2-z
-x,1/2+y,1/2-z
-x,1/2-y,1/2-z
x,1/2+y,1/2-z
-x,1/2+y,1/2+z
x,1/2-y,1/2+z
1/2+x,y,1/2+z
1/2-x,-y,1/2+z
1/2+x,-y,1/2-z
1/2-x,y,1/2-z
1/2-x,-y,1/2-z
1/2+x,y,1/2-z
1/2-x,y,1/2+z
1/2+x,-y,1/2+z
1/2+x,1/2+y,z
1/2-x,1/2-y,z
1/2+x,1/2-y,-z
1/2-x,1/2+y,-z
1/2-x,1/2-y,-z
1/2+x,1/2+y,-z
1/2-x,1/2+y,z
1/2+x,1/2-y,z
loop_
_atom_site_type_symbol
_atom_site_label
_atom_site_fract_x
_atom_site_fract_y
_atom_site_fract_z
Si Si1 0.774747 0.883824 0.643475
Si Si2 0.144638 0.398210 0.500000
Si Si3 0.682631 0.118879 0.292787
Si Si4 0.298748 0.794068 0.000000
Si Si5 0.500000 0.619260 0.916198
Si Si6 0.408084 0.390801 0.145279
O O1 0.722637 0.851173 0.653284
O O2 0.800577 0.854807 0.714843
O O3 0.799816 0.853135 0.572748
O O4 0.772669 0.000000 0.644347
O O5 0.172380 0.500000 0.500000
O O6 0.169474 0.297601 0.500000
O O7 0.114319 0.400575 0.431390
O O8 0.632779 0.154263 0.310316
O O9 0.680740 0.000000 0.296961
O O10 0.250000 0.750000 0.000000
O O11 0.500000 0.500000 0.916629
O O12 0.456178 0.653109 0.873176
O O13 0.500000 0.646633 0.000000
O O14 0.416203 0.500000 0.173887
#
# Coordination Sequence:
#
# PCOD9512124 Si02
#       6
#    32  16  32  16  16  32
#     4   9  18  34  51  69  97 129 165 205 243 285
#     4  10  20  32  44  63  97 134 164 194 232 293
#     4   8  15  29  50  71  95 131 160 188 242 304
#     4  12  23  31  45  72  93 121 166 209 249 287
#     4   9  14  22  40  72 103 126 158 202 246 294
#     4   9  15  26  45  68  97 129 159 193 239 294
#
# _framework density 18.398637999999998
#
# number of rings (size 3 to 8) (size 9 to 14) (size 15 to 20)
#    0.000    2.778    1.111    3.000    0.000    2.667 
#    0.000    7.778    0.000    0.000    0.000    7.778 
#    0.000    0.000    0.000   14.222    0.000    4.889 
#
# Total GULP energy -200579.166510 kJ/mol
# GULP energy per Si atom -5571.643514 kJ/mol
# Density = 1.835676 g / cm^3
# Si number density = 18.398638 Si / 1000 Ang^3
#
#
#
# Elastic Constant Matrix: (Units=GPa)
#
#
# Indices 1 2 3 4 5 6 
#
# 1 154.6819 27.7854 50.6413 0.0000 0.0000 0.0000
# 2 27.7854 41.0047 23.0226 0.0000 0.0000 0.0000
# 3 50.6413 23.0226 98.7180 0.0000 0.0000 0.0000
# 4 0.0000 0.0000 0.0000 16.6560 0.0000 0.0000
# 5 0.0000 0.0000 0.0000 0.0000 3.0700 0.0000
# 6 0.0000 0.0000 0.0000 0.0000 0.0000 11.0441
#
#
#
# Elastic Compliance Matrix: (Units=1/GPa)
#
#
# Indices 1 2 3 4 5 6 
#
# 1 0.008228 -0.003688 -0.003360 0.000000 0.000000 0.000000
# 2 -0.003688 0.029715 -0.005038 0.000000 0.000000 0.000000
# 3 -0.003360 -0.005038 0.013029 0.000000 0.000000 0.000000
# 4 0.000000 0.000000 0.000000 0.060039 0.000000 0.000000
# 5 0.000000 0.000000 0.000000 0.000000 0.325733 0.000000
# 6 0.000000 0.000000 0.000000 0.000000 0.000000 0.090546
#
#
# Mechanical properties :
#
#
# Convention : Reuss Voigt Hill
#
# Bulk Modulus (GPa) = 37.31623 55.25591 46.28607
# Shear Modulus (GPa) = 8.92226 19.01769 13.96997
#
# Velocity S-wave (km/s) = 2.20453 3.21853 2.75852
# Velocity P-wave (km/s) = 5.17745 6.62644 5.94625
#
# Compressibility (1/GPa) = 0.02679799
#
# Stress axis : x y z
#
# Youngs Moduli (GPa) = 121.54198 33.65259 76.75356
#
# Poissons Ratio (x) = 0.12412 0.25793
# Poissons Ratio (y) = 0.44829 0.38668
# Poissons Ratio (z) = 0.40844 0.16954
#
# Static dielectric constant tensor:
#      x y z
#    x 1.561070 0.000000 0.000000 
#    y 0.000000 1.611840 0.000000 
#    z 0.000000 0.000000 1.680060 
# 
# From -- ./inp_files/27427.got.cif
#   From: 2010.05.17/outbox.cif.g08.bks.cpg/sg69_14_cif.got.tgz:27427.got - 2010.06.03 19:29:58.
