data_PCOD9512403
_publ_section_title
;
Structure prediction by ZEFSAII (Michael W. Deem and Ramdas Pophale) SiO2 
 PCOD9512403
Probable space group: F M M M
;
_chemical_formula_sum "Si O2"
_cell_formula_units_Z 116
_cell_length_a 14.260195
_cell_length_b 31.487924
_cell_length_c 10.717411
_cell_angle_alpha 90.000000
_cell_angle_beta 90.000000
_cell_angle_gamma 90.000000
_cell_volume 4812.374075
_symmetry_space_group_name_H-M "F M M M"
_symmetry_group_IT_number 69
_symmetry_cell_setting 'orthorhombic'
loop_
_space_group_symop_operation_xyz
x,y,z
-x,-y,z
x,-y,-z
-x,y,-z
-x,-y,-z
x,y,-z
-x,y,z
x,-y,z
x,1/2+y,1/2+z
-x,1/2-y,1/2+z
x,1/2-y,1/2-z
-x,1/2+y,1/2-z
-x,1/2-y,1/2-z
x,1/2+y,1/2-z
-x,1/2+y,1/2+z
x,1/2-y,1/2+z
1/2+x,y,1/2+z
1/2-x,-y,1/2+z
1/2+x,-y,1/2-z
1/2-x,y,1/2-z
1/2-x,-y,1/2-z
1/2+x,y,1/2-z
1/2-x,y,1/2+z
1/2+x,-y,1/2+z
1/2+x,1/2+y,z
1/2-x,1/2-y,z
1/2+x,1/2-y,-z
1/2-x,1/2+y,-z
1/2-x,1/2-y,-z
1/2+x,1/2+y,-z
1/2-x,1/2+y,z
1/2+x,1/2-y,z
loop_
_atom_site_type_symbol
_atom_site_label
_atom_site_fract_x
_atom_site_fract_y
_atom_site_fract_z
Si Si1 0.107750 0.089637 0.000000
Si Si2 0.824515 0.454566 0.861381
Si Si3 0.000000 0.000000 0.000000
Si Si4 0.114629 0.782703 0.358642
Si Si5 0.391100 0.871820 0.244537
O O1 0.150217 0.110809 0.875526
O O2 0.000000 0.106334 0.000000
O O3 0.081760 0.038814 0.000000
O O4 0.623296 0.500000 0.647743
O O5 0.750000 0.455646 0.750000
O O6 0.885056 0.413009 0.842614
O O7 0.781856 0.452663 0.000000
O O8 0.145379 0.772526 0.500000
O O9 0.141564 0.750000 0.250000
O O10 0.148388 0.829601 0.317841
O O11 0.000000 0.782563 0.362498
O O12 0.500000 0.862058 0.264172
#
# Coordination Sequence:
#
# PCOD9512403 Si02
#       5
#    16  32   4  32  32
#     4   8  18  28  48  80 114 141 176 225 279 336
#     4  10  23  40  57  80 112 151 188 227 280 340
#     4   8  16  32  40  80 122 144 172 216 308 312
#     4   9  18  31  50  77 112 146 179 227 283 340
#     4  10  20  34  57  85 113 145 189 237 284 329
#
# _framework density 24.104527000000001
#
# number of rings (size 3 to 8) (size 9 to 14) (size 15 to 20)
#    0.414    2.207    0.000    0.828    5.793    2.207 
#    0.000    1.379    0.000    0.828    0.000    3.862 
#    0.000    0.000    0.000    0.000    0.000    0.000 
#
# Total GULP energy -161448.746582 kJ/mol
# GULP energy per Si atom -5567.198158 kJ/mol
# Density = 2.404966 g / cm^3
# Si number density = 24.104527 Si / 1000 Ang^3
#
#
#
# Elastic Constant Matrix: (Units=GPa)
#
#
# Indices 1 2 3 4 5 6 
#
# 1 37.9187 4.9129 8.7050 0.0000 0.0000 0.0000
# 2 4.9129 202.2229 102.7563 0.0000 0.0000 0.0000
# 3 8.7050 102.7563 220.1078 0.0000 0.0000 0.0000
# 4 0.0000 0.0000 0.0000 30.8095 0.0000 0.0000
# 5 0.0000 0.0000 0.0000 0.0000 11.1960 0.0000
# 6 0.0000 0.0000 0.0000 0.0000 0.0000 -252.9199
#
#
#
# Elastic Compliance Matrix: (Units=1/GPa)
#
#
# Indices 1 2 3 4 5 6 
#
# 1 0.026617 -0.000147 -0.000984 0.000000 0.000000 0.000000
# 2 -0.000147 0.006484 -0.003021 0.000000 0.000000 0.000000
# 3 -0.000984 -0.003021 0.005993 0.000000 0.000000 0.000000
# 4 0.000000 0.000000 0.000000 0.032458 0.000000 0.000000
# 5 0.000000 0.000000 0.000000 0.000000 0.089318 0.000000
# 6 0.000000 0.000000 0.000000 0.000000 0.000000 -0.003954
#
#
# Mechanical properties :
#
#
# Convention : Reuss Voigt Hill
#
# Bulk Modulus (GPa) = 32.47844 76.99973 54.73908
# Shear Modulus (GPa) = 28.49296 -19.25789 4.61754
#
# Velocity S-wave (km/s) = 3.44184 -2.82961 1.38556
# Velocity P-wave (km/s) = 5.41279 4.61929 5.03171
#
# Compressibility (1/GPa) = 0.03078966
#
# Stress axis : x y z
#
# Youngs Moduli (GPa) = 37.56975 154.23239 166.87406
#
# Poissons Ratio (x) = 0.02260 0.16425
# Poissons Ratio (y) = 0.00550 0.50414
# Poissons Ratio (z) = 0.03698 0.46595
#
# Static dielectric constant tensor:
#      x y z
#    x 2.024700 0.000000 0.000000 
#    y 0.000000 1.914830 0.000000 
#    z 0.000000 0.000000 1.961150 
# 
# From -- ./inp_files/8348.got.cif
#   From: 2010.05.17/outbox.cif.g08.bks.cpg/sg69_5_cif.got.tgz:8348.got - 2010.06.03 19:29:58.
