data_PCOD9512169
_publ_section_title
;
Structure prediction by ZEFSAII (Michael W. Deem and Ramdas Pophale) SiO2 
 PCOD9512169
Probable space group: F M M M
;
_chemical_formula_sum "Si O2"
_cell_formula_units_Z 80
_cell_length_a 7.198946
_cell_length_b 22.237994
_cell_length_c 22.567156
_cell_angle_alpha 90.000000
_cell_angle_beta 90.000000
_cell_angle_gamma 90.000000
_cell_volume 3612.778666
_symmetry_space_group_name_H-M "F M M M"
_symmetry_group_IT_number 69
_symmetry_cell_setting 'orthorhombic'
loop_
_space_group_symop_operation_xyz
x,y,z
-x,-y,z
x,-y,-z
-x,y,-z
-x,-y,-z
x,y,-z
-x,y,z
x,-y,z
x,1/2+y,1/2+z
-x,1/2-y,1/2+z
x,1/2-y,1/2-z
-x,1/2+y,1/2-z
-x,1/2-y,1/2-z
x,1/2+y,1/2-z
-x,1/2+y,1/2+z
x,1/2-y,1/2+z
1/2+x,y,1/2+z
1/2-x,-y,1/2+z
1/2+x,-y,1/2-z
1/2-x,y,1/2-z
1/2-x,-y,1/2-z
1/2+x,y,1/2-z
1/2-x,y,1/2+z
1/2+x,-y,1/2+z
1/2+x,1/2+y,z
1/2-x,1/2-y,z
1/2+x,1/2-y,-z
1/2-x,1/2+y,-z
1/2-x,1/2-y,-z
1/2+x,1/2+y,-z
1/2-x,1/2+y,z
1/2+x,1/2-y,z
loop_
_atom_site_type_symbol
_atom_site_label
_atom_site_fract_x
_atom_site_fract_y
_atom_site_fract_z
Si Si1 0.000000 0.434555 0.801234
Si Si2 0.719809 0.678191 0.000000
Si Si3 0.278387 0.635217 0.871794
Si Si4 0.500000 0.807513 0.209967
O O1 0.179117 0.423193 0.843254
O O2 0.000000 0.374763 0.759868
O O3 0.000000 0.500000 0.773820
O O4 0.750000 0.750000 0.000000
O O5 0.784955 0.648306 0.061025
O O6 0.500000 0.669591 0.000000
O O7 0.500000 0.635412 0.870272
O O8 0.180810 0.686542 0.831564
O O9 0.500000 0.750000 0.250000
#
# Coordination Sequence:
#
# PCOD9512169 Si02
#       4
#    16  16  32  16
#     4   8  18  32  55  82 126 174 221 264 324 390
#     4  10  20  32  56  87 119 176 204 262 329 391
#     4   8  18  33  51  84 128 169 219 265 327 384
#     4   8  18  32  56  82 124 168 218 274 330 384
#
# _framework density 22.143622000000001
#
# number of rings (size 3 to 8) (size 9 to 14) (size 15 to 20)
#    2.400    0.800    0.000    0.000    5.600    1.600 
#    0.000    2.000    0.000    4.800    0.000    0.000 
#    0.000    9.600    0.000    1.200    0.000    4.000 
#
# Total GULP energy -111407.078172 kJ/mol
# GULP energy per Si atom -5570.353909 kJ/mol
# Density = 2.209322 g / cm^3
# Si number density = 22.143622 Si / 1000 Ang^3
#
#
#
# Elastic Constant Matrix: (Units=GPa)
#
#
# Indices 1 2 3 4 5 6 
#
# 1 178.6574 20.1533 32.6790 0.0000 0.0000 0.0000
# 2 20.1533 139.3064 49.1616 0.0000 0.0000 0.0000
# 3 32.6790 49.1616 119.3537 0.0000 0.0000 0.0000
# 4 0.0000 0.0000 0.0000 23.3159 0.0000 0.0000
# 5 0.0000 0.0000 0.0000 0.0000 45.1934 0.0000
# 6 0.0000 0.0000 0.0000 0.0000 0.0000 16.7126
#
#
#
# Elastic Compliance Matrix: (Units=1/GPa)
#
#
# Indices 1 2 3 4 5 6 
#
# 1 0.005905 -0.000332 -0.001480 0.000000 0.000000 0.000000
# 2 -0.000332 0.008418 -0.003376 0.000000 0.000000 0.000000
# 3 -0.001480 -0.003376 0.010174 0.000000 0.000000 0.000000
# 4 0.000000 0.000000 0.000000 0.042889 0.000000 0.000000
# 5 0.000000 0.000000 0.000000 0.000000 0.022127 0.000000
# 6 0.000000 0.000000 0.000000 0.000000 0.000000 0.059835
#
#
# Mechanical properties :
#
#
# Convention : Reuss Voigt Hill
#
# Bulk Modulus (GPa) = 70.81780 71.25613 71.03697
# Shear Modulus (GPa) = 30.40739 39.39929 34.90334
#
# Velocity S-wave (km/s) = 3.70968 4.22271 3.97448
# Velocity P-wave (km/s) = 7.09926 7.48491 7.29464
#
# Compressibility (1/GPa) = 0.01412074
#
# Stress axis : x y z
#
# Youngs Moduli (GPa) = 169.33371 118.79287 98.28506
#
# Poissons Ratio (x) = 0.03944 0.14548
# Poissons Ratio (y) = 0.05622 0.33186
# Poissons Ratio (z) = 0.25064 0.40110
#
# Static dielectric constant tensor:
#      x y z
#    x 1.852400 0.000000 0.000000 
#    y 0.000000 1.790660 0.000000 
#    z 0.000000 0.000000 1.862840 
# 
# From -- ./inp_files/28424.got.cif
#   From: 2010.05.17/outbox.cif.g08.bks.cpg/sg69_15_cif.got.tgz:28424.got - 2010.06.03 19:29:58.
