data_PCOD9512557
_publ_section_title
;
Structure prediction by ZEFSAII (Michael W. Deem and Ramdas Pophale) SiO2 
 PCOD9512557
Probable space group: F M M M
;
_chemical_formula_sum "Si O2"
_cell_formula_units_Z 144
_cell_length_a 14.044310
_cell_length_b 31.077509
_cell_length_c 17.898707
_cell_angle_alpha 90.000000
_cell_angle_beta 90.000000
_cell_angle_gamma 90.000000
_cell_volume 7812.108505
_symmetry_space_group_name_H-M "F M M M"
_symmetry_group_IT_number 69
_symmetry_cell_setting 'orthorhombic'
loop_
_space_group_symop_operation_xyz
x,y,z
-x,-y,z
x,-y,-z
-x,y,-z
-x,-y,-z
x,y,-z
-x,y,z
x,-y,z
x,1/2+y,1/2+z
-x,1/2-y,1/2+z
x,1/2-y,1/2-z
-x,1/2+y,1/2-z
-x,1/2-y,1/2-z
x,1/2+y,1/2-z
-x,1/2+y,1/2+z
x,1/2-y,1/2+z
1/2+x,y,1/2+z
1/2-x,-y,1/2+z
1/2+x,-y,1/2-z
1/2-x,y,1/2-z
1/2-x,-y,1/2-z
1/2+x,y,1/2-z
1/2-x,y,1/2+z
1/2+x,-y,1/2+z
1/2+x,1/2+y,z
1/2-x,1/2-y,z
1/2+x,1/2-y,-z
1/2-x,1/2+y,-z
1/2-x,1/2-y,-z
1/2+x,1/2+y,-z
1/2-x,1/2+y,z
1/2+x,1/2-y,z
loop_
_atom_site_type_symbol
_atom_site_label
_atom_site_fract_x
_atom_site_fract_y
_atom_site_fract_z
Si Si1 0.212355 0.049642 0.335132
Si Si2 0.000000 0.209009 0.695661
Si Si3 0.179760 0.790008 0.413095
Si Si4 0.500000 0.450038 0.289005
Si Si5 0.000000 0.631657 0.687340
Si Si6 0.685240 0.372241 0.086952
O O1 0.250000 0.055396 0.250000
O O2 0.265521 0.083776 0.386243
O O3 0.098253 0.056515 0.333831
O O4 0.231146 0.000000 0.356066
O O5 0.000000 0.250000 0.750000
O O6 0.092149 0.210429 0.642965
O O7 0.000000 0.166066 0.745839
O O8 0.148455 0.787165 0.500000
O O9 0.250000 0.750000 0.398904
O O10 0.239649 0.833649 0.403709
O O11 0.500000 0.500000 0.263397
O O12 0.500000 0.416143 0.222072
O O13 0.906414 0.636993 0.637340
O O14 0.658527 0.374580 0.000000
#
# Coordination Sequence:
#
# PCOD9512557 Si02
#       6
#    32  16  32  16  16  32
#     4  10  20  37  61  87 120 158 199 249 302 357
#     4  12  25  38  63  96 118 153 205 250 298 356
#     4  10  23  43  63  86 123 163 198 246 304 359
#     4  10  20  35  59  89 115 152 200 242 302 356
#     4  12  23  37  60  88 122 156 196 258 296 355
#     4  11  24  40  60  87 120 162 202 246 306 363
#
# _framework density 18.432922999999999
#
# number of rings (size 3 to 8) (size 9 to 14) (size 15 to 20)
#    0.000    1.333    2.222    3.333    0.000    2.667 
#    0.000    6.111    0.000    4.000    0.000    0.000 
#    0.000    0.000    0.000    0.000    0.000    0.000 
#
# Total GULP energy -201235.692989 kJ/mol
# GULP energy per Si atom -5589.880361 kJ/mol
# Density = 1.839097 g / cm^3
# Si number density = 18.432923 Si / 1000 Ang^3
#
#
#
# Elastic Constant Matrix: (Units=GPa)
#
#
# Indices 1 2 3 4 5 6 
#
# 1 141.1858 56.0830 96.7204 0.0000 0.0000 0.0000
# 2 56.0830 102.7429 78.3130 0.0000 0.0000 0.0000
# 3 96.7204 78.3130 130.7724 0.0000 0.0000 0.0000
# 4 0.0000 0.0000 0.0000 33.8196 0.0000 0.0000
# 5 0.0000 0.0000 0.0000 0.0000 34.2722 0.0000
# 6 0.0000 0.0000 0.0000 0.0000 0.0000 19.5249
#
#
#
# Elastic Compliance Matrix: (Units=1/GPa)
#
#
# Indices 1 2 3 4 5 6 
#
# 1 0.014370 0.000473 -0.010911 0.000000 0.000000 0.000000
# 2 0.000473 0.017922 -0.011082 0.000000 0.000000 0.000000
# 3 -0.010911 -0.011082 0.022354 0.000000 0.000000 0.000000
# 4 0.000000 0.000000 0.000000 0.029569 0.000000 0.000000
# 5 0.000000 0.000000 0.000000 0.000000 0.029178 0.000000
# 6 0.000000 0.000000 0.000000 0.000000 0.000000 0.051217
#
#
# Mechanical properties :
#
#
# Convention : Reuss Voigt Hill
#
# Bulk Modulus (GPa) = 86.17658 92.99265 89.58461
# Shear Modulus (GPa) = 23.63852 27.09564 25.36708
#
# Velocity S-wave (km/s) = 3.58496 3.83816 3.71372
# Velocity P-wave (km/s) = 7.99930 8.37859 8.19114
#
# Compressibility (1/GPa) = 0.01160408
#
# Stress axis : x y z
#
# Youngs Moduli (GPa) = 69.58998 55.79671 44.73529
#
# Poissons Ratio (x) = -0.02639 0.48812
# Poissons Ratio (y) = -0.03291 0.49578
# Poissons Ratio (z) = 0.75932 0.61837
#
# Static dielectric constant tensor:
#      x y z
#    x 1.621110 0.000000 0.000000 
#    y 0.000000 1.620590 0.000000 
#    z 0.000000 0.000000 1.605090 
# 
# From -- ./inp_files/21817.got.cif
#   From: 2010.05.17/outbox.cif.g08.bks.cpg/sg69_11_cif.got.tgz:21817.got - 2010.06.03 19:29:58.
