data_PCOD9512841
_publ_section_title
;
Structure prediction by ZEFSAII (Michael W. Deem and Ramdas Pophale) SiO2 
 PCOD9512841
Probable space group: F M M M
;
_chemical_formula_sum "Si O2"
_cell_formula_units_Z 144
_cell_length_a 29.564533
_cell_length_b 25.366853
_cell_length_c 10.446723
_cell_angle_alpha 90.000000
_cell_angle_beta 90.000000
_cell_angle_gamma 90.000000
_cell_volume 7834.615633
_symmetry_space_group_name_H-M "F M M M"
_symmetry_group_IT_number 69
_symmetry_cell_setting 'orthorhombic'
loop_
_space_group_symop_operation_xyz
x,y,z
-x,-y,z
x,-y,-z
-x,y,-z
-x,-y,-z
x,y,-z
-x,y,z
x,-y,z
x,1/2+y,1/2+z
-x,1/2-y,1/2+z
x,1/2-y,1/2-z
-x,1/2+y,1/2-z
-x,1/2-y,1/2-z
x,1/2+y,1/2-z
-x,1/2+y,1/2+z
x,1/2-y,1/2+z
1/2+x,y,1/2+z
1/2-x,-y,1/2+z
1/2+x,-y,1/2-z
1/2-x,y,1/2-z
1/2-x,-y,1/2-z
1/2+x,y,1/2-z
1/2-x,y,1/2+z
1/2+x,-y,1/2+z
1/2+x,1/2+y,z
1/2-x,1/2-y,z
1/2+x,1/2-y,-z
1/2-x,1/2+y,-z
1/2-x,1/2-y,-z
1/2+x,1/2+y,-z
1/2-x,1/2+y,z
1/2+x,1/2-y,z
loop_
_atom_site_type_symbol
_atom_site_label
_atom_site_fract_x
_atom_site_fract_y
_atom_site_fract_z
Si Si1 0.551949 0.876993 0.000000
Si Si2 0.853050 0.435933 0.000000
Si Si3 0.143604 0.296165 0.644263
Si Si4 0.195719 0.895865 0.242463
Si Si5 0.713611 0.000000 0.636640
Si Si6 0.548992 0.813208 0.735369
O O1 0.555575 0.840415 0.873609
O O2 0.500000 0.898894 0.000000
O O3 0.594283 0.917056 0.000000
O O4 0.827666 0.411074 0.876816
O O5 0.850328 0.500000 0.000000
O O6 0.151636 0.276565 0.500000
O O7 0.146376 0.250000 0.750000
O O8 0.177135 0.342407 0.684001
O O9 0.093493 0.321460 0.652818
O O10 0.250000 0.891082 0.250000
O O11 0.186110 0.946591 0.153499
O O12 0.750000 0.000000 0.750000
O O13 0.737431 0.000000 0.500000
O O14 0.500000 0.830747 0.684193
O O15 0.546728 0.750000 0.750000
#
# Coordination Sequence:
#
# PCOD9512841 Si02
#       6
#    16  16  32  32  16  32
#     4  10  20  39  62  91 129 162 203 262 314 374
#     4  12  24  41  66  98 120 165 212 260 322 380
#     4  11  25  41  60  88 123 164 206 254 311 377
#     4  11  25  39  63  88 125 158 209 260 311 369
#     4  10  22  38  62  88 116 151 203 265 319 364
#     4   9  19  33  57  87 118 155 197 247 305 361
#
# _framework density 18.379968999999999
#
# number of rings (size 3 to 8) (size 9 to 14) (size 15 to 20)
#    0.000    1.556    3.333    0.667   15.556    1.111 
#    0.000    1.111    0.000    0.000    0.000    0.000 
#    0.000    7.111    0.000    0.000    0.000    0.000 
#
# Total GULP energy -200695.308073 kJ/mol
# GULP energy per Si atom -5574.869669 kJ/mol
# Density = 1.833814 g / cm^3
# Si number density = 18.379969 Si / 1000 Ang^3
#
#
#
# Elastic Constant Matrix: (Units=GPa)
#
#
# Indices 1 2 3 4 5 6 
#
# 1 129.4162 51.4152 38.8393 -0.0003 0.0002 0.0002
# 2 51.4152 85.5403 46.8381 -0.0004 0.0003 0.0002
# 3 38.8393 46.8381 143.3133 -0.0012 0.0008 0.0006
# 4 -0.0003 -0.0004 -0.0012 20.8441 0.0005 0.0004
# 5 0.0002 0.0003 0.0008 0.0005 16.9429 -0.0003
# 6 0.0002 0.0002 0.0006 0.0004 -0.0003 20.7269
#
#
#
# Elastic Compliance Matrix: (Units=1/GPa)
#
#
# Indices 1 2 3 4 5 6 
#
# 1 0.010252 -0.005652 -0.000931 0.000000 0.000000 0.000000
# 2 -0.005652 0.017355 -0.004140 0.000000 0.000000 0.000000
# 3 -0.000931 -0.004140 0.008583 0.000000 0.000000 0.000000
# 4 0.000000 0.000000 0.000000 0.047975 -0.000002 -0.000001
# 5 0.000000 0.000000 0.000000 -0.000002 0.059022 0.000001
# 6 0.000000 0.000000 0.000000 -0.000001 0.000001 0.048246
#
#
# Mechanical properties :
#
#
# Convention : Reuss Voigt Hill
#
# Bulk Modulus (GPa) = 67.82923 70.27276 69.05100
# Shear Modulus (GPa) = 22.95743 26.44794 24.70269
#
# Velocity S-wave (km/s) = 3.53802 3.79747 3.67004
# Velocity P-wave (km/s) = 7.32626 7.58578 7.45715
#
# Compressibility (1/GPa) = 0.01474291
#
# Stress axis : x y z
#
# Youngs Moduli (GPa) = 97.54179 57.62121 116.50759
#
# Poissons Ratio (x) = 0.32569 0.10848
# Poissons Ratio (y) = 0.55133 0.48235
# Poissons Ratio (z) = 0.09082 0.23856
#
# Static dielectric constant tensor:
#      x y z
#    x 1.685040 0.000000 0.000000 
#    y 0.000000 1.638370 0.000000 
#    z 0.000000 0.000000 1.666920 
# 
# From -- ./inp_files/5646.got.cif
#   From: 2010.05.17/outbox.cif.g08.bks.cpg/sg69_3_cif.got.tgz:5646.got - 2010.06.03 19:29:58.
