data_PCOD9512965
_publ_section_title
;
Structure prediction by ZEFSAII (Michael W. Deem and Ramdas Pophale) SiO2 
 PCOD9512965
Probable space group: F M M M
;
_chemical_formula_sum "Si O2"
_cell_formula_units_Z 192
_cell_length_a 22.421196
_cell_length_b 14.324469
_cell_length_c 27.362768
_cell_angle_alpha 90.000000
_cell_angle_beta 90.000000
_cell_angle_gamma 90.000000
_cell_volume 8788.147455
_symmetry_space_group_name_H-M "F M M M"
_symmetry_group_IT_number 69
_symmetry_cell_setting 'orthorhombic'
loop_
_space_group_symop_operation_xyz
x,y,z
-x,-y,z
x,-y,-z
-x,y,-z
-x,-y,-z
x,y,-z
-x,y,z
x,-y,z
x,1/2+y,1/2+z
-x,1/2-y,1/2+z
x,1/2-y,1/2-z
-x,1/2+y,1/2-z
-x,1/2-y,1/2-z
x,1/2+y,1/2-z
-x,1/2+y,1/2+z
x,1/2-y,1/2+z
1/2+x,y,1/2+z
1/2-x,-y,1/2+z
1/2+x,-y,1/2-z
1/2-x,y,1/2-z
1/2-x,-y,1/2-z
1/2+x,y,1/2-z
1/2-x,y,1/2+z
1/2+x,-y,1/2+z
1/2+x,1/2+y,z
1/2-x,1/2-y,z
1/2+x,1/2-y,-z
1/2-x,1/2+y,-z
1/2-x,1/2-y,-z
1/2+x,1/2+y,-z
1/2-x,1/2+y,z
1/2+x,1/2-y,z
loop_
_atom_site_type_symbol
_atom_site_label
_atom_site_fract_x
_atom_site_fract_y
_atom_site_fract_z
Si Si1 0.870673 0.390929 0.183897
Si Si2 0.853341 0.607759 0.295418
Si Si3 0.244392 0.650851 0.366372
Si Si4 0.375718 0.000000 0.054594
Si Si5 0.570014 0.190554 0.902021
Si Si6 0.428363 0.103963 0.608903
Si Si7 0.768600 0.500000 0.443553
O O1 0.889321 0.500000 0.181229
O O2 0.866645 0.364055 0.240482
O O3 0.806488 0.383876 0.156680
O O4 0.916042 0.324881 0.155252
O O5 0.831438 0.500000 0.292441
O O6 0.800539 0.663196 0.321277
O O7 0.906324 0.607695 0.334847
O O8 0.250000 0.750000 0.391028
O O9 0.216746 0.585423 0.407707
O O10 0.397815 0.098656 0.076461
O O11 0.304001 0.000000 0.054558
O O12 0.399028 0.000000 0.000000
O O13 0.500000 0.183591 0.912705
O O14 0.590873 0.296304 0.914859
O O15 0.500000 0.105986 0.607361
O O16 0.410295 0.000000 0.589532
O O17 0.789509 0.500000 0.500000
#
# Coordination Sequence:
#
# PCOD9512965 Si02
#       7
#    32  32  32  16  32  32  16
#     4  11  21  37  55  87 128 159 196 245 295 356
#     4  10  21  35  59  85 118 164 204 237 287 350
#     4  12  22  37  62  86 115 152 196 244 294 357
#     4  11  23  42  66  92 121 152 195 252 316 368
#     4  11  21  36  61  88 120 164 204 247 298 352
#     4   9  20  38  57  83 120 162 204 242 286 344
#     4  11  24  45  64  84 119 154 187 247 318 362
#
# _framework density 21.847608000000001
#
# number of rings (size 3 to 8) (size 9 to 14) (size 15 to 20)
#    0.000    1.333    4.167    1.750    0.000    6.333 
#    0.000    3.333    0.000    0.500    0.000    2.333 
#    0.000    0.000    0.000    0.000    0.000    0.000 
#
# Total GULP energy -267807.549210 kJ/mol
# GULP energy per Si atom -5579.323942 kJ/mol
# Density = 2.179788 g / cm^3
# Si number density = 21.847608 Si / 1000 Ang^3
#
#
#
# Elastic Constant Matrix: (Units=GPa)
#
#
# Indices 1 2 3 4 5 6 
#
# 1 36.8211 9.5382 -20.1060 0.0000 0.0000 0.0000
# 2 9.5382 174.3618 27.6158 0.0000 0.0000 0.0000
# 3 -20.1060 27.6158 65.0545 0.0000 0.0000 0.0000
# 4 0.0000 0.0000 0.0000 -2.2919 0.0000 0.0000
# 5 0.0000 0.0000 0.0000 0.0000 13.2031 0.0000
# 6 0.0000 0.0000 0.0000 0.0000 0.0000 22.8789
#
#
#
# Elastic Compliance Matrix: (Units=1/GPa)
#
#
# Indices 1 2 3 4 5 6 
#
# 1 0.034967 -0.003886 0.012456 0.000000 0.000000 0.000000
# 2 -0.003886 0.006580 -0.003994 0.000000 0.000000 0.000000
# 3 0.012456 -0.003994 0.020917 0.000000 0.000000 0.000000
# 4 0.000000 0.000000 0.000000 -0.436323 0.000000 0.000000
# 5 0.000000 0.000000 0.000000 0.000000 0.075740 0.000000
# 6 0.000000 0.000000 0.000000 0.000000 0.000000 0.043708
#
#
# Mechanical properties :
#
#
# Convention : Reuss Voigt Hill
#
# Bulk Modulus (GPa) = 13.96317 34.48150 24.22234
# Shear Modulus (GPa) = -20.86022 24.03731 1.58854
#
# Velocity S-wave (km/s) = -3.09335 3.32056 0.85363
# Velocity P-wave (km/s) = 2.52058 5.52436 3.47600
#
# Compressibility (1/GPa) = 0.07161696
#
# Stress axis : x y z
#
# Youngs Moduli (GPa) = 28.59870 151.96674 47.80772
#
# Poissons Ratio (x) = 0.59049 -0.59551
# Poissons Ratio (y) = 0.11112 0.19096
# Poissons Ratio (z) = -0.35624 0.60700
#
# Static dielectric constant tensor:
#      x y z
#    x 1.804090 0.000000 0.000000 
#    y 0.000000 1.901170 0.000000 
#    z 0.000000 0.000000 1.789650 
# 
# From -- ./inp_files/43210.got.cif
#   From: 2010.05.17/outbox.cif.g08.bks.cpg/sg69_22_cif.got.tgz:43210.got - 2010.06.03 19:29:58.
