data_PCOD9512186
_publ_section_title
;
Structure prediction by ZEFSAII (Michael W. Deem and Ramdas Pophale) SiO2 
 PCOD9512186
Probable space group: F M M M
;
_chemical_formula_sum "Si O2"
_cell_formula_units_Z 160
_cell_length_a 19.828416
_cell_length_b 14.363659
_cell_length_c 27.105717
_cell_angle_alpha 90.000000
_cell_angle_beta 90.000000
_cell_angle_gamma 90.000000
_cell_volume 7719.941472
_symmetry_space_group_name_H-M "F M M M"
_symmetry_group_IT_number 69
_symmetry_cell_setting 'orthorhombic'
loop_
_space_group_symop_operation_xyz
x,y,z
-x,-y,z
x,-y,-z
-x,y,-z
-x,-y,-z
x,y,-z
-x,y,z
x,-y,z
x,1/2+y,1/2+z
-x,1/2-y,1/2+z
x,1/2-y,1/2-z
-x,1/2+y,1/2-z
-x,1/2-y,1/2-z
x,1/2+y,1/2-z
-x,1/2+y,1/2+z
x,1/2-y,1/2+z
1/2+x,y,1/2+z
1/2-x,-y,1/2+z
1/2+x,-y,1/2-z
1/2-x,y,1/2-z
1/2-x,-y,1/2-z
1/2+x,y,1/2-z
1/2-x,y,1/2+z
1/2+x,-y,1/2+z
1/2+x,1/2+y,z
1/2-x,1/2-y,z
1/2+x,1/2-y,-z
1/2-x,1/2+y,-z
1/2-x,1/2-y,-z
1/2+x,1/2+y,-z
1/2-x,1/2+y,z
1/2+x,1/2-y,z
loop_
_atom_site_type_symbol
_atom_site_label
_atom_site_fract_x
_atom_site_fract_y
_atom_site_fract_z
Si Si1 0.422626 0.199365 0.904212
Si Si2 0.236313 0.888096 0.160662
Si Si3 0.639792 0.767657 0.195060
Si Si4 0.292026 0.610518 0.445499
Si Si5 0.081752 0.901169 0.056854
O O1 0.500000 0.182437 0.918291
O O2 0.412686 0.195913 0.845406
O O3 0.369115 0.135143 0.931907
O O4 0.402186 0.304483 0.918571
O O5 0.298595 0.842282 0.191265
O O6 0.171487 0.831236 0.178226
O O7 0.250160 0.861848 0.103110
O O8 0.234004 0.000000 0.166036
O O9 0.614540 0.750000 0.250000
O O10 0.274599 0.647746 0.500000
O O11 0.284860 0.500000 0.447866
O O12 0.000000 0.904733 0.056825
O O13 0.106356 0.000000 0.078584
O O14 0.104034 0.898382 0.000000
#
# Coordination Sequence:
#
# PCOD9512186 Si02
#       5
#    32  32  32  32  32
#     4  10  20  33  49  72 105 142 176 209 246 292
#     4   9  18  35  57  78 101 128 162 211 265 311
#     4  10  21  35  52  76 100 129 175 219 259 306
#     4   9  18  33  54  80 107 133 163 202 250 306
#     4   8  14  26  44  65  92 128 166 200 235 281
#
# _framework density 20.725546000000001
#
# number of rings (size 3 to 8) (size 9 to 14) (size 15 to 20)
#    0.000    2.800    0.000    2.400    0.000    4.400 
#    0.000   10.000    0.000    2.400    0.000    5.600 
#    0.000    0.000    0.000    0.000    0.000    0.000 
#
# Total GULP energy -223148.066692 kJ/mol
# GULP energy per Si atom -5578.701667 kJ/mol
# Density = 2.067837 g / cm^3
# Si number density = 20.725546 Si / 1000 Ang^3
#
#
#
# Elastic Constant Matrix: (Units=GPa)
#
#
# Indices 1 2 3 4 5 6 
#
# 1 46.5986 5.9736 -11.7159 0.0000 0.0000 0.0000
# 2 5.9736 70.5505 9.5973 0.0000 0.0000 0.0000
# 3 -11.7159 9.5973 86.9030 0.0000 0.0000 0.0000
# 4 0.0000 0.0000 0.0000 24.6204 0.0000 0.0000
# 5 0.0000 0.0000 0.0000 0.0000 0.8635 0.0000
# 6 0.0000 0.0000 0.0000 0.0000 0.0000 16.7113
#
#
#
# Elastic Compliance Matrix: (Units=1/GPa)
#
#
# Indices 1 2 3 4 5 6 
#
# 1 0.022594 -0.002363 0.003307 0.000000 0.000000 0.000000
# 2 -0.002363 0.014638 -0.001935 0.000000 0.000000 0.000000
# 3 0.003307 -0.001935 0.012167 0.000000 0.000000 0.000000
# 4 0.000000 0.000000 0.000000 0.040617 0.000000 0.000000
# 5 0.000000 0.000000 0.000000 0.000000 1.158129 0.000000
# 6 0.000000 0.000000 0.000000 0.000000 0.000000 0.059840
#
#
# Mechanical properties :
#
#
# Convention : Reuss Voigt Hill
#
# Bulk Modulus (GPa) = 21.08975 23.52912 22.30943
# Shear Modulus (GPa) = 3.77139 21.78552 12.77845
#
# Velocity S-wave (km/s) = 1.35042 3.24565 2.48575
# Velocity P-wave (km/s) = 3.55378 5.04213 4.36190
#
# Compressibility (1/GPa) = 0.04741640
#
# Stress axis : x y z
#
# Youngs Moduli (GPa) = 44.25904 68.31745 82.19206
#
# Poissons Ratio (x) = 0.16143 -0.27181
# Poissons Ratio (y) = 0.10458 0.15905
# Poissons Ratio (z) = -0.14637 0.13220
#
# Static dielectric constant tensor:
#      x y z
#    x 1.751370 0.000000 0.000000 
#    y 0.000000 1.739130 0.000000 
#    z 0.000000 0.000000 1.779420 
# 
# From -- ./inp_files/17741.got.cif
#   From: 2010.05.17/outbox.cif.g08.bks.cpg/sg69_9_cif.got.tgz:17741.got - 2010.06.03 19:29:58.
