data_PCOD9512051
_publ_section_title
;
Structure prediction by ZEFSAII (Michael W. Deem and Ramdas Pophale) SiO2 
 PCOD9512051
Probable space group: F M M M
;
_chemical_formula_sum "Si O2"
_cell_formula_units_Z 160
_cell_length_a 23.184819
_cell_length_b 15.917067
_cell_length_c 21.434937
_cell_angle_alpha 90.000000
_cell_angle_beta 90.000000
_cell_angle_gamma 90.000000
_cell_volume 7910.227344
_symmetry_space_group_name_H-M "F M M M"
_symmetry_group_IT_number 69
_symmetry_cell_setting 'orthorhombic'
loop_
_space_group_symop_operation_xyz
x,y,z
-x,-y,z
x,-y,-z
-x,y,-z
-x,-y,-z
x,y,-z
-x,y,z
x,-y,z
x,1/2+y,1/2+z
-x,1/2-y,1/2+z
x,1/2-y,1/2-z
-x,1/2+y,1/2-z
-x,1/2-y,1/2-z
x,1/2+y,1/2-z
-x,1/2+y,1/2+z
x,1/2-y,1/2+z
1/2+x,y,1/2+z
1/2-x,-y,1/2+z
1/2+x,-y,1/2-z
1/2-x,y,1/2-z
1/2-x,-y,1/2-z
1/2+x,y,1/2-z
1/2-x,y,1/2+z
1/2+x,-y,1/2+z
1/2+x,1/2+y,z
1/2-x,1/2-y,z
1/2+x,1/2-y,-z
1/2-x,1/2+y,-z
1/2-x,1/2-y,-z
1/2+x,1/2+y,-z
1/2-x,1/2+y,z
1/2+x,1/2-y,z
loop_
_atom_site_type_symbol
_atom_site_label
_atom_site_fract_x
_atom_site_fract_y
_atom_site_fract_z
Si Si1 0.153160 0.183488 0.807586
Si Si2 0.586233 0.598663 0.500000
Si Si3 0.263728 0.899387 0.861331
Si Si4 0.109972 0.906766 0.701509
Si Si5 0.724091 0.596000 0.500000
Si Si6 0.437285 0.279083 0.617027
O O1 0.154838 0.250000 0.750000
O O2 0.216884 0.153584 0.824264
O O3 0.121408 0.105681 0.774329
O O4 0.116086 0.217446 0.866306
O O5 0.565971 0.500000 0.500000
O O6 0.655095 0.592531 0.500000
O O7 0.570063 0.655921 0.559590
O O8 0.328532 0.891561 0.834382
O O9 0.259709 0.868407 0.932861
O O10 0.251300 0.000000 0.858151
O O11 0.065155 0.839597 0.676958
O O12 0.091637 0.000000 0.685287
O O13 0.746010 0.500000 0.500000
O O14 0.500000 0.237546 0.611138
#
# Coordination Sequence:
#
# PCOD9512051 Si02
#       6
#    32  16  32  32  16  32
#     4  10  23  37  54  80 119 157 189 225 280 338
#     4  11  21  41  63  85 114 146 188 236 289 344
#     4  10  19  36  60  86 115 148 189 234 284 342
#     4  10  20  36  59  84 112 149 193 237 280 334
#     4   9  18  34  58  86 114 139 171 230 289 333
#     4  11  24  39  56  82 115 150 189 238 286 333
#
# _framework density 20.226979
#
# number of rings (size 3 to 8) (size 9 to 14) (size 15 to 20)
#    0.000    1.800    2.000    2.100    0.000   13.600 
#    0.000    1.000    0.000    1.800    0.000    0.000 
#    0.000    8.800    0.000    0.000    0.000    0.000 
#
# Total GULP energy -222936.660674 kJ/mol
# GULP energy per Si atom -5573.416517 kJ/mol
# Density = 2.018094 g / cm^3
# Si number density = 20.226979 Si / 1000 Ang^3
#
#
#
# Elastic Constant Matrix: (Units=GPa)
#
#
# Indices 1 2 3 4 5 6 
#
# 1 70.2231 21.8008 15.9005 0.0000 0.0000 0.0000
# 2 21.8008 43.3453 19.6918 0.0000 0.0000 0.0000
# 3 15.9005 19.6918 90.6699 0.0000 0.0000 0.0000
# 4 0.0000 0.0000 0.0000 29.4275 0.0000 0.0000
# 5 0.0000 0.0000 0.0000 0.0000 -15.8378 0.0000
# 6 0.0000 0.0000 0.0000 0.0000 0.0000 11.8849
#
#
#
# Elastic Compliance Matrix: (Units=1/GPa)
#
#
# Indices 1 2 3 4 5 6 
#
# 1 0.017002 -0.007984 -0.001247 0.000000 0.000000 0.000000
# 2 -0.007984 0.029346 -0.004973 0.000000 0.000000 0.000000
# 3 -0.001247 -0.004973 0.012328 0.000000 0.000000 0.000000
# 4 0.000000 0.000000 0.000000 0.033982 0.000000 0.000000
# 5 0.000000 0.000000 0.000000 0.000000 -0.063140 0.000000
# 6 0.000000 0.000000 0.000000 0.000000 0.000000 0.084141
#
#
# Mechanical properties :
#
#
# Convention : Reuss Voigt Hill
#
# Bulk Modulus (GPa) = 33.04126 35.44716 34.24421
# Shear Modulus (GPa) = 32.86107 14.88459 23.87283
#
# Velocity S-wave (km/s) = 4.03502 2.71565 3.43920
# Velocity P-wave (km/s) = 6.17084 5.23409 5.72167
#
# Compressibility (1/GPa) = 0.03026519
#
# Stress axis : x y z
#
# Youngs Moduli (GPa) = 58.81825 34.07666 81.11710
#
# Poissons Ratio (x) = 0.27208 0.10119
# Poissons Ratio (y) = 0.46962 0.40341
# Poissons Ratio (z) = 0.07337 0.16947
#
# Static dielectric constant tensor:
#      x y z
#    x 1.712440 0.000000 0.000000 
#    y 0.000000 1.783830 0.000000 
#    z 0.000000 0.000000 1.770430 
# 
# From -- ./inp_files/24915.got.cif
#   From: 2010.05.17/outbox.cif.g08.bks.cpg/sg69_13_cif.got.tgz:24915.got - 2010.06.03 19:29:58.
