data_PCOD9512781
_publ_section_title
;
Structure prediction by ZEFSAII (Michael W. Deem and Ramdas Pophale) SiO2 
 PCOD9512781
Probable space group: F M M M
;
_chemical_formula_sum "Si O2"
_cell_formula_units_Z 192
_cell_length_a 26.999940
_cell_length_b 11.604519
_cell_length_c 28.529197
_cell_angle_alpha 90.000000
_cell_angle_beta 90.000000
_cell_angle_gamma 90.000000
_cell_volume 8938.805569
_symmetry_space_group_name_H-M "F M M M"
_symmetry_group_IT_number 69
_symmetry_cell_setting 'orthorhombic'
loop_
_space_group_symop_operation_xyz
x,y,z
-x,-y,z
x,-y,-z
-x,y,-z
-x,-y,-z
x,y,-z
-x,y,z
x,-y,z
x,1/2+y,1/2+z
-x,1/2-y,1/2+z
x,1/2-y,1/2-z
-x,1/2+y,1/2-z
-x,1/2-y,1/2-z
x,1/2+y,1/2-z
-x,1/2+y,1/2+z
x,1/2-y,1/2+z
1/2+x,y,1/2+z
1/2-x,-y,1/2+z
1/2+x,-y,1/2-z
1/2-x,y,1/2-z
1/2-x,-y,1/2-z
1/2+x,y,1/2-z
1/2-x,y,1/2+z
1/2+x,-y,1/2+z
1/2+x,1/2+y,z
1/2-x,1/2-y,z
1/2+x,1/2-y,-z
1/2-x,1/2+y,-z
1/2-x,1/2-y,-z
1/2+x,1/2+y,-z
1/2-x,1/2+y,z
1/2+x,1/2-y,z
loop_
_atom_site_type_symbol
_atom_site_label
_atom_site_fract_x
_atom_site_fract_y
_atom_site_fract_z
Si Si1 0.589829 0.124923 0.552666
Si Si2 0.000000 0.301699 0.947446
Si Si3 0.168875 0.802235 0.874728
Si Si4 0.098447 0.208051 0.299493
Si Si5 0.170909 0.000000 0.726461
Si Si6 0.774090 0.500000 0.327107
Si Si7 0.287548 0.137832 0.053737
Si Si8 0.500000 0.125222 0.153172
O O1 0.609700 0.132117 0.500000
O O2 0.548532 0.221848 0.557568
O O3 0.635536 0.134272 0.587063
O O4 0.565434 0.000000 0.558598
O O5 0.000000 0.381256 0.902719
O O6 0.000000 0.351277 0.000000
O O7 0.134009 0.788817 0.829719
O O8 0.213183 0.885134 0.857286
O O9 0.180466 0.680714 0.901253
O O10 0.078376 0.250000 0.250000
O O11 0.050967 0.182116 0.330947
O O12 0.135755 0.106557 0.285087
O O13 0.192023 0.000000 0.779638
O O14 0.218559 0.000000 0.692434
O O15 0.250000 0.250000 0.052817
O O16 0.272957 0.000000 0.059411
O O17 0.309209 0.140327 0.000000
O O18 0.500000 0.000000 0.175783
#
# Coordination Sequence:
#
# PCOD9512781 Si02
#       8
#    32  16  32  32  16  16  32  16
#     4  10  20  37  64  97 137 182 227 289 357 430
#     4  10  21  40  64 100 137 176 236 290 353 434
#     4  12  24  40  70 101 139 185 240 293 355 433
#     4  12  26  46  71  99 137 181 237 293 366 429
#     4  11  26  49  68  98 145 187 232 301 355 439
#     4  11  26  46  71 108 143 186 245 296 369 422
#     4  10  25  46  67  98 141 188 240 298 361 431
#     4  12  25  45  73  99 132 185 229 292 366 442
#
# _framework density 21.479381
#
# number of rings (size 3 to 8) (size 9 to 14) (size 15 to 20)
#    0.000    1.000    5.000    1.000    4.667    1.167 
#    0.000    0.000    0.000    0.000    0.000    0.000 
#    0.000    0.000    0.000    0.000    0.000    0.000 
#
# Total GULP energy -267571.836483 kJ/mol
# GULP energy per Si atom -5574.413260 kJ/mol
# Density = 2.143049 g / cm^3
# Si number density = 21.479381 Si / 1000 Ang^3
#
#
#
# Elastic Constant Matrix: (Units=GPa)
#
#
# Indices 1 2 3 4 5 6 
#
# 1 80.9942 29.6530 40.5993 0.0000 0.0000 0.0000
# 2 29.6530 106.2168 45.9486 0.0000 0.0000 0.0000
# 3 40.5993 45.9486 147.4601 0.0000 0.0000 0.0000
# 4 0.0000 0.0000 0.0000 26.8744 0.0000 0.0000
# 5 0.0000 0.0000 0.0000 0.0000 32.7209 0.0000
# 6 0.0000 0.0000 0.0000 0.0000 0.0000 15.1135
#
#
#
# Elastic Compliance Matrix: (Units=1/GPa)
#
#
# Indices 1 2 3 4 5 6 
#
# 1 0.014999 -0.002775 -0.003265 0.000000 0.000000 0.000000
# 2 -0.002775 0.011395 -0.002787 0.000000 0.000000 0.000000
# 3 -0.003265 -0.002787 0.008549 0.000000 0.000000 0.000000
# 4 0.000000 0.000000 0.000000 0.037210 0.000000 0.000000
# 5 0.000000 0.000000 0.000000 0.000000 0.030561 0.000000
# 6 0.000000 0.000000 0.000000 0.000000 0.000000 0.066166
#
#
# Mechanical properties :
#
#
# Convention : Reuss Voigt Hill
#
# Bulk Modulus (GPa) = 57.83814 63.00811 60.42312
# Shear Modulus (GPa) = 26.00148 29.50644 27.75396
#
# Velocity S-wave (km/s) = 3.48305 3.71038 3.59851
# Velocity P-wave (km/s) = 6.56972 6.91041 6.74222
#
# Compressibility (1/GPa) = 0.01728963
#
# Stress axis : x y z
#
# Youngs Moduli (GPa) = 66.67068 87.75864 116.97653
#
# Poissons Ratio (x) = 0.24353 0.38192
# Poissons Ratio (y) = 0.18501 0.32597
# Poissons Ratio (z) = 0.21767 0.24455
#
# Static dielectric constant tensor:
#      x y z
#    x 1.925160 0.000000 0.000000 
#    y 0.000000 1.727890 0.000000 
#    z 0.000000 0.000000 1.793880 
# 
# From -- ./inp_files/43966.got.cif
#   From: 2010.05.17/outbox.cif.g08.bks.cpg/sg69_22_cif.got.tgz:43966.got - 2010.06.03 19:29:58.
