data_PCOD9512933
_publ_section_title
;
Structure prediction by ZEFSAII (Michael W. Deem and Ramdas Pophale) SiO2 
 PCOD9512933
Probable space group: F M M M
;
_chemical_formula_sum "Si O2"
_cell_formula_units_Z 116
_cell_length_a 8.662702
_cell_length_b 28.971100
_cell_length_c 25.363393
_cell_angle_alpha 90.000000
_cell_angle_beta 90.000000
_cell_angle_gamma 90.000000
_cell_volume 6365.400164
_symmetry_space_group_name_H-M "F M M M"
_symmetry_group_IT_number 69
_symmetry_cell_setting 'orthorhombic'
loop_
_space_group_symop_operation_xyz
x,y,z
-x,-y,z
x,-y,-z
-x,y,-z
-x,-y,-z
x,y,-z
-x,y,z
x,-y,z
x,1/2+y,1/2+z
-x,1/2-y,1/2+z
x,1/2-y,1/2-z
-x,1/2+y,1/2-z
-x,1/2-y,1/2-z
x,1/2+y,1/2-z
-x,1/2+y,1/2+z
x,1/2-y,1/2+z
1/2+x,y,1/2+z
1/2-x,-y,1/2+z
1/2+x,-y,1/2-z
1/2-x,y,1/2-z
1/2-x,-y,1/2-z
1/2+x,y,1/2-z
1/2-x,y,1/2+z
1/2+x,-y,1/2+z
1/2+x,1/2+y,z
1/2-x,1/2-y,z
1/2+x,1/2-y,-z
1/2-x,1/2+y,-z
1/2-x,1/2-y,-z
1/2+x,1/2+y,-z
1/2-x,1/2+y,z
1/2+x,1/2-y,z
loop_
_atom_site_type_symbol
_atom_site_label
_atom_site_fract_x
_atom_site_fract_y
_atom_site_fract_z
Si Si1 0.000000 0.000000 0.000000
Si Si2 0.315356 0.376103 0.885972
Si Si3 0.327459 0.402858 0.000000
Si Si4 0.178129 0.055207 0.306465
Si Si5 0.315677 0.301524 0.693326
O O1 0.133285 0.957899 0.000000
O O2 0.500000 0.369927 0.886613
O O3 0.256062 0.385627 0.945257
O O4 0.275319 0.421295 0.852068
O O5 0.239083 0.334303 0.853924
O O6 0.500000 0.381353 0.000000
O O7 0.250000 0.067245 0.250000
O O8 0.000000 0.070681 0.308935
O O9 0.181968 0.000000 0.311396
O O10 0.500000 0.300158 0.696312
O O11 0.250000 0.318173 0.750000
O O12 0.250000 0.250000 0.685779
#
# Coordination Sequence:
#
# PCOD9512933 Si02
#       5
#     4  32  16  32  32
#     4   8  16  40  56  88 114 152 204 252 278 330
#     4  11  21  36  58  84 112 149 191 241 286 347
#     4   8  20  34  58  83 115 148 199 236 288 335
#     4  10  21  35  51  77 110 146 185 231 288 347
#     4  11  22  39  62  89 119 153 193 238 293 353
#
# _framework density 18.223521000000002
#
# number of rings (size 3 to 8) (size 9 to 14) (size 15 to 20)
#    0.414    1.379    0.000    5.793    1.931    1.655 
#    0.000    3.448    0.000    1.655    0.000    0.000 
#    0.000    0.000    0.000    0.000    0.000    0.000 
#
# Total GULP energy -161505.585142 kJ/mol
# GULP energy per Si atom -5569.158108 kJ/mol
# Density = 1.818204 g / cm^3
# Si number density = 18.223521 Si / 1000 Ang^3
#
#
#
# Elastic Constant Matrix: (Units=GPa)
#
#
# Indices 1 2 3 4 5 6 
#
# 1 111.0899 35.4720 44.2319 0.0000 0.0000 0.0000
# 2 35.4720 86.3187 67.1189 0.0000 0.0000 0.0000
# 3 44.2319 67.1189 178.2088 0.0000 0.0000 0.0000
# 4 0.0000 0.0000 0.0000 21.0701 0.0000 0.0000
# 5 0.0000 0.0000 0.0000 0.0000 20.3186 0.0000
# 6 0.0000 0.0000 0.0000 0.0000 0.0000 28.5963
#
#
#
# Elastic Compliance Matrix: (Units=1/GPa)
#
#
# Indices 1 2 3 4 5 6 
#
# 1 0.010603 -0.003268 -0.001401 0.000000 0.000000 0.000000
# 2 -0.003268 0.017390 -0.005738 0.000000 0.000000 0.000000
# 3 -0.001401 -0.005738 0.008120 0.000000 0.000000 0.000000
# 4 0.000000 0.000000 0.000000 0.047461 0.000000 0.000000
# 5 0.000000 0.000000 0.000000 0.000000 0.049216 0.000000
# 6 0.000000 0.000000 0.000000 0.000000 0.000000 0.034970
#
#
# Mechanical properties :
#
#
# Convention : Reuss Voigt Hill
#
# Bulk Modulus (GPa) = 65.36483 74.36256 69.86370
# Shear Modulus (GPa) = 25.81662 29.24998 27.53330
#
# Velocity S-wave (km/s) = 3.76794 4.01068 3.89120
# Velocity P-wave (km/s) = 7.40784 7.89568 7.65565
#
# Compressibility (1/GPa) = 0.01529875
#
# Stress axis : x y z
#
# Youngs Moduli (GPa) = 94.31314 57.50434 123.14675
#
# Poissons Ratio (x) = 0.18792 0.17251
# Poissons Ratio (y) = 0.30821 0.70668
# Poissons Ratio (z) = 0.13212 0.32999
#
# Static dielectric constant tensor:
#      x y z
#    x 1.624700 0.000000 0.000000 
#    y 0.000000 1.634070 0.000000 
#    z 0.000000 0.000000 1.651070 
# 
# From -- ./inp_files/34504.got.cif
#   From: 2010.05.17/outbox.cif.g08.bks.cpg/sg69_18_cif.got.tgz:34504.got - 2010.06.03 19:29:58.
