data_PCOD9512974
_publ_section_title
;
Structure prediction by ZEFSAII (Michael W. Deem and Ramdas Pophale) SiO2 
 PCOD9512974
Probable space group: F M M M
;
_chemical_formula_sum "Si O2"
_cell_formula_units_Z 160
_cell_length_a 28.853401
_cell_length_b 13.805570
_cell_length_c 20.330777
_cell_angle_alpha 90.000000
_cell_angle_beta 90.000000
_cell_angle_gamma 90.000000
_cell_volume 8098.513877
_symmetry_space_group_name_H-M "F M M M"
_symmetry_group_IT_number 69
_symmetry_cell_setting 'orthorhombic'
loop_
_space_group_symop_operation_xyz
x,y,z
-x,-y,z
x,-y,-z
-x,y,-z
-x,-y,-z
x,y,-z
-x,y,z
x,-y,z
x,1/2+y,1/2+z
-x,1/2-y,1/2+z
x,1/2-y,1/2-z
-x,1/2+y,1/2-z
-x,1/2-y,1/2-z
x,1/2+y,1/2-z
-x,1/2+y,1/2+z
x,1/2-y,1/2+z
1/2+x,y,1/2+z
1/2-x,-y,1/2+z
1/2+x,-y,1/2-z
1/2-x,y,1/2-z
1/2-x,-y,1/2-z
1/2+x,y,1/2-z
1/2-x,y,1/2+z
1/2+x,-y,1/2+z
1/2+x,1/2+y,z
1/2-x,1/2-y,z
1/2+x,1/2-y,-z
1/2-x,1/2+y,-z
1/2-x,1/2-y,-z
1/2+x,1/2+y,-z
1/2-x,1/2+y,z
1/2+x,1/2-y,z
loop_
_atom_site_type_symbol
_atom_site_label
_atom_site_fract_x
_atom_site_fract_y
_atom_site_fract_z
Si Si1 0.205757 0.883117 0.296728
Si Si2 0.446081 0.883804 0.926482
Si Si3 0.111331 0.273733 0.182190
Si Si4 0.749341 0.383975 0.430383
Si Si5 0.140519 0.884653 0.924191
O O1 0.250000 0.862005 0.250000
O O2 0.156873 0.830262 0.289847
O O3 0.221817 0.848874 0.368430
O O4 0.199362 0.000000 0.293284
O O5 0.500000 0.854659 0.919970
O O6 0.415852 0.842691 0.867765
O O7 0.444369 0.000000 0.924956
O O8 0.430023 0.853698 0.000000
O O9 0.084823 0.250000 0.250000
O O10 0.121865 0.180890 0.135419
O O11 0.731308 0.347156 0.500000
O O12 0.743556 0.500000 0.430173
O O13 0.803992 0.368906 0.424415
O O14 0.132578 0.000000 0.913087
O O15 0.124747 0.863197 0.000000
#
# Coordination Sequence:
#
# PCOD9512974 Si02
#       5
#    32  32  32  32  32
#     4  10  21  36  51  73 114 159 193 232 285 345
#     4   9  20  42  69  92 115 143 179 235 306 364
#     4  12  24  34  55  88 118 150 192 235 281 346
#     4   8  15  29  48  68  94 136 189 240 283 319
#     4   9  19  36  54  73 106 154 201 241 283 333
#
# _framework density 19.756710999999999
#
# number of rings (size 3 to 8) (size 9 to 14) (size 15 to 20)
#    0.000    2.400    0.000    4.200    0.000    8.000 
#    0.000    4.000    0.000    1.200    0.000    2.800 
#    0.000    0.000    0.000    0.000    0.000    0.000 
#
# Total GULP energy -223071.349157 kJ/mol
# GULP energy per Si atom -5576.783729 kJ/mol
# Density = 1.971174 g / cm^3
# Si number density = 19.756711 Si / 1000 Ang^3
#
#
#
# Elastic Constant Matrix: (Units=GPa)
#
#
# Indices 1 2 3 4 5 6 
#
# 1 43.0581 24.7431 36.4067 0.0000 0.0000 0.0000
# 2 24.7431 100.2575 38.7622 0.0000 0.0000 0.0000
# 3 36.4067 38.7622 143.0425 0.0000 0.0000 0.0000
# 4 0.0000 0.0000 0.0000 20.8830 0.0000 0.0000
# 5 0.0000 0.0000 0.0000 0.0000 22.9933 0.0000
# 6 0.0000 0.0000 0.0000 0.0000 0.0000 83.1401
#
#
#
# Elastic Compliance Matrix: (Units=1/GPa)
#
#
# Indices 1 2 3 4 5 6 
#
# 1 0.031922 -0.005291 -0.006691 0.000000 0.000000 0.000000
# 2 -0.005291 0.012019 -0.001910 0.000000 0.000000 0.000000
# 3 -0.006691 -0.001910 0.009211 0.000000 0.000000 0.000000
# 4 0.000000 0.000000 0.000000 0.047886 0.000000 0.000000
# 5 0.000000 0.000000 0.000000 0.000000 0.043491 0.000000
# 6 0.000000 0.000000 0.000000 0.000000 0.000000 0.012028
#
#
# Mechanical properties :
#
#
# Convention : Reuss Voigt Hill
#
# Bulk Modulus (GPa) = 39.42011 54.02023 46.72017
# Shear Modulus (GPa) = 25.93387 37.83304 31.88345
#
# Velocity S-wave (km/s) = 3.62700 4.38076 4.02158
# Velocity P-wave (km/s) = 6.12668 7.27943 6.72779
#
# Compressibility (1/GPa) = 0.02536776
#
# Stress axis : x y z
#
# Youngs Moduli (GPa) = 31.32588 83.20354 108.56010
#
# Poissons Ratio (x) = 0.44027 0.72637
# Poissons Ratio (y) = 0.16576 0.20736
# Poissons Ratio (z) = 0.20960 0.15893
#
# Static dielectric constant tensor:
#      x y z
#    x 1.696050 0.000000 0.000000 
#    y 0.000000 1.721120 0.000000 
#    z 0.000000 0.000000 1.747990 
# 
# From -- ./inp_files/37762.got.cif
#   From: 2010.05.17/outbox.cif.g08.bks.cpg/sg69_19_cif.got.tgz:37762.got - 2010.06.03 19:29:58.
