data_PCOD9512118
_publ_section_title
;
Structure prediction by ZEFSAII (Michael W. Deem and Ramdas Pophale) SiO2 
 PCOD9512118
Probable space group: F M M M
;
_chemical_formula_sum "Si O2"
_cell_formula_units_Z 80
_cell_length_a 14.818777
_cell_length_b 23.817763
_cell_length_c 10.304952
_cell_angle_alpha 90.000000
_cell_angle_beta 90.000000
_cell_angle_gamma 90.000000
_cell_volume 3637.134030
_symmetry_space_group_name_H-M "F M M M"
_symmetry_group_IT_number 69
_symmetry_cell_setting 'orthorhombic'
loop_
_space_group_symop_operation_xyz
x,y,z
-x,-y,z
x,-y,-z
-x,y,-z
-x,-y,-z
x,y,-z
-x,y,z
x,-y,z
x,1/2+y,1/2+z
-x,1/2-y,1/2+z
x,1/2-y,1/2-z
-x,1/2+y,1/2-z
-x,1/2-y,1/2-z
x,1/2+y,1/2-z
-x,1/2+y,1/2+z
x,1/2-y,1/2+z
1/2+x,y,1/2+z
1/2-x,-y,1/2+z
1/2+x,-y,1/2-z
1/2-x,y,1/2-z
1/2-x,-y,1/2-z
1/2+x,y,1/2-z
1/2-x,y,1/2+z
1/2+x,-y,1/2+z
1/2+x,1/2+y,z
1/2-x,1/2-y,z
1/2+x,1/2-y,-z
1/2-x,1/2+y,-z
1/2-x,1/2-y,-z
1/2+x,1/2+y,-z
1/2-x,1/2+y,z
1/2+x,1/2-y,z
loop_
_atom_site_type_symbol
_atom_site_label
_atom_site_fract_x
_atom_site_fract_y
_atom_site_fract_z
Si Si1 0.356721 0.355559 0.218156
Si Si2 0.103376 0.735027 0.500000
Si Si3 0.643198 0.355885 0.500000
Si Si4 0.179134 0.433906 0.500000
O O1 0.250000 0.349008 0.250000
O O2 0.400835 0.361877 0.358731
O O3 0.369164 0.410121 0.128204
O O4 0.384116 0.303567 0.127242
O O5 0.167280 0.789313 0.500000
O O6 0.000000 0.755786 0.500000
O O7 0.725590 0.400250 0.500000
O O8 0.190084 0.500000 0.500000
#
# Coordination Sequence:
#
# PCOD9512118 Si02
#       4
#    32  16  16  16
#     4   9  20  35  56  84 116 153 196 242 289 343
#     4  11  23  38  56  84 126 165 191 227 295 369
#     4  10  20  31  52  83 112 146 193 242 285 332
#     4   9  19  36  56  82 117 155 196 244 298 353
#
# _framework density 21.995339000000001
#
# number of rings (size 3 to 8) (size 9 to 14) (size 15 to 20)
#    0.000    2.400    0.000    2.400    0.000   28.000 
#    0.000    0.000    0.000   10.200    0.000   22.400 
#    0.000    0.000    0.000    0.000    0.000    0.000 
#
# Total GULP energy -111541.021437 kJ/mol
# GULP energy per Si atom -5577.051072 kJ/mol
# Density = 2.194528 g / cm^3
# Si number density = 21.995339 Si / 1000 Ang^3
#
#
#
# Elastic Constant Matrix: (Units=GPa)
#
#
# Indices 1 2 3 4 5 6 
#
# 1 60.1101 14.1002 24.1407 0.0000 0.0000 0.0000
# 2 14.1002 199.6272 85.7931 0.0000 0.0000 0.0000
# 3 24.1407 85.7931 263.8897 0.0000 0.0000 0.0000
# 4 0.0000 0.0000 0.0000 12.0266 0.0000 0.0000
# 5 0.0000 0.0000 0.0000 0.0000 -11.3147 0.0000
# 6 0.0000 0.0000 0.0000 0.0000 0.0000 -2.5258
#
#
#
# Elastic Compliance Matrix: (Units=1/GPa)
#
#
# Indices 1 2 3 4 5 6 
#
# 1 0.017339 -0.000631 -0.001381 0.000000 0.000000 0.000000
# 2 -0.000631 0.005846 -0.001843 0.000000 0.000000 0.000000
# 3 -0.001381 -0.001843 0.004515 0.000000 0.000000 0.000000
# 4 0.000000 0.000000 0.000000 0.083149 0.000000 0.000000
# 5 0.000000 0.000000 0.000000 0.000000 -0.088381 0.000000
# 6 0.000000 0.000000 0.000000 0.000000 0.000000 -0.395918
#
#
# Mechanical properties :
#
#
# Convention : Reuss Voigt Hill
#
# Bulk Modulus (GPa) = 50.02579 85.74390 67.88484
# Shear Modulus (GPa) = -13.92460 26.27675 6.17608
#
# Velocity S-wave (km/s) = -2.51882 3.46012 1.67750
# Velocity P-wave (km/s) = 3.78602 7.41826 5.88917
#
# Compressibility (1/GPa) = 0.01998969
#
# Stress axis : x y z
#
# Youngs Moduli (GPa) = 57.67408 171.06001 221.48835
#
# Poissons Ratio (x) = 0.10797 0.30587
# Poissons Ratio (y) = 0.03640 0.40816
# Poissons Ratio (z) = 0.07965 0.31523
#
# Static dielectric constant tensor:
#      x y z
#    x 1.831020 0.000000 0.000000 
#    y 0.000000 1.739210 0.000000 
#    z 0.000000 0.000000 1.880150 
# 
# From -- ./inp_files/2638.got.cif
#   From: 2010.05.17/outbox.cif.g08.bks.cpg/sg69_2_cif.got.tgz:2638.got - 2010.06.03 19:29:58.
