data_PCOD9512091
_publ_section_title
;
Structure prediction by ZEFSAII (Michael W. Deem and Ramdas Pophale) SiO2 
 PCOD9512091
Probable space group: F M M M
;
_chemical_formula_sum "Si O2"
_cell_formula_units_Z 160
_cell_length_a 16.671370
_cell_length_b 22.778998
_cell_length_c 22.146278
_cell_angle_alpha 90.000000
_cell_angle_beta 90.000000
_cell_angle_gamma 90.000000
_cell_volume 8410.206395
_symmetry_space_group_name_H-M "F M M M"
_symmetry_group_IT_number 69
_symmetry_cell_setting 'orthorhombic'
loop_
_space_group_symop_operation_xyz
x,y,z
-x,-y,z
x,-y,-z
-x,y,-z
-x,-y,-z
x,y,-z
-x,y,z
x,-y,z
x,1/2+y,1/2+z
-x,1/2-y,1/2+z
x,1/2-y,1/2-z
-x,1/2+y,1/2-z
-x,1/2-y,1/2-z
x,1/2+y,1/2-z
-x,1/2+y,1/2+z
x,1/2-y,1/2+z
1/2+x,y,1/2+z
1/2-x,-y,1/2+z
1/2+x,-y,1/2-z
1/2-x,y,1/2-z
1/2-x,-y,1/2-z
1/2+x,y,1/2-z
1/2-x,y,1/2+z
1/2+x,-y,1/2+z
1/2+x,1/2+y,z
1/2-x,1/2-y,z
1/2+x,1/2-y,-z
1/2-x,1/2+y,-z
1/2-x,1/2-y,-z
1/2+x,1/2+y,-z
1/2-x,1/2+y,z
1/2+x,1/2-y,z
loop_
_atom_site_type_symbol
_atom_site_label
_atom_site_fract_x
_atom_site_fract_y
_atom_site_fract_z
Si Si1 0.183162 0.615763 0.886387
Si Si2 0.732966 0.500000 0.069246
Si Si3 0.345330 0.602217 0.252953
Si Si4 0.095291 0.273129 0.066570
Si Si5 0.908072 0.000000 0.830761
Si Si6 0.685028 0.200849 0.667423
O O1 0.212363 0.556980 0.918093
O O2 0.136459 0.602022 0.823831
O O3 0.132594 0.662402 0.924185
O O4 0.263668 0.650697 0.866508
O O5 0.658255 0.500000 0.116078
O O6 0.705263 0.500000 0.000000
O O7 0.250000 0.586584 0.250000
O O8 0.392150 0.556272 0.211982
O O9 0.353476 0.667069 0.223917
O O10 0.126565 0.231687 0.120110
O O11 0.000000 0.276307 0.068746
O O12 0.120164 0.250868 0.000000
O O13 0.000000 0.000000 0.852468
O O14 0.750000 0.250000 0.684668
#
# Coordination Sequence:
#
# PCOD9512091 Si02
#       6
#    32  16  32  32  16  32
#     4  10  21  38  65  87 113 153 205 251 292 351
#     4  12  23  40  63  90 117 159 207 245 288 357
#     4  10  19  38  63  85 118 151 198 243 301 349
#     4  10  22  39  56  82 125 164 195 243 302 352
#     4  12  24  39  59  92 126 158 193 244 306 362
#     4   9  19  34  58  88 109 148 198 243 286 354
#
# _framework density 19.024504
#
# number of rings (size 3 to 8) (size 9 to 14) (size 15 to 20)
#    0.000    1.800    4.000    1.500    0.000   15.400 
#    0.000    1.500    0.000    1.800    0.000    0.000 
#    0.000    0.000    0.000    0.000    0.000    0.000 
#
# Total GULP energy -223256.458646 kJ/mol
# GULP energy per Si atom -5581.411466 kJ/mol
# Density = 1.898120 g / cm^3
# Si number density = 19.024504 Si / 1000 Ang^3
#
#
#
# Elastic Constant Matrix: (Units=GPa)
#
#
# Indices 1 2 3 4 5 6 
#
# 1 54.0729 24.2497 39.1036 0.0000 0.0000 0.0000
# 2 24.2497 101.0994 24.5651 0.0000 0.0000 0.0000
# 3 39.1036 24.5651 112.4251 0.0000 0.0000 0.0000
# 4 0.0000 0.0000 0.0000 17.1874 0.0000 0.0000
# 5 0.0000 0.0000 0.0000 0.0000 21.7298 0.0000
# 6 0.0000 0.0000 0.0000 0.0000 0.0000 12.0547
#
#
#
# Elastic Compliance Matrix: (Units=1/GPa)
#
#
# Indices 1 2 3 4 5 6 
#
# 1 0.026388 -0.004329 -0.008232 0.000000 0.000000 0.000000
# 2 -0.004329 0.011156 -0.000932 0.000000 0.000000 0.000000
# 3 -0.008232 -0.000932 0.011962 0.000000 0.000000 0.000000
# 4 0.000000 0.000000 0.000000 0.058182 0.000000 0.000000
# 5 0.000000 0.000000 0.000000 0.000000 0.046020 0.000000
# 6 0.000000 0.000000 0.000000 0.000000 0.000000 0.082955
#
#
# Mechanical properties :
#
#
# Convention : Reuss Voigt Hill
#
# Bulk Modulus (GPa) = 44.40630 49.27046 46.83838
# Shear Modulus (GPa) = 18.43948 22.17297 20.30623
#
# Velocity S-wave (km/s) = 3.11665 3.41764 3.27061
# Velocity P-wave (km/s) = 6.02857 6.44425 6.23987
#
# Compressibility (1/GPa) = 0.02251933
#
# Stress axis : x y z
#
# Youngs Moduli (GPa) = 37.89539 89.63723 83.59932
#
# Poissons Ratio (x) = 0.38806 0.68823
# Poissons Ratio (y) = 0.16406 0.07790
# Poissons Ratio (z) = 0.31197 0.08353
#
# Static dielectric constant tensor:
#      x y z
#    x 1.639890 0.000000 0.000000 
#    y 0.000000 1.680650 0.000000 
#    z 0.000000 0.000000 1.716910 
# 
# From -- ./inp_files/31013.got.cif
#   From: 2010.05.17/outbox.cif.g08.bks.cpg/sg69_16_cif.got.tgz:31013.got - 2010.06.03 19:29:58.
