data_PCOD9512837
_publ_section_title
;
Structure prediction by ZEFSAII (Michael W. Deem and Ramdas Pophale) SiO2 
 PCOD9512837
Probable space group: F M M M
;
_chemical_formula_sum "Si O2"
_cell_formula_units_Z 128
_cell_length_a 27.949644
_cell_length_b 18.375159
_cell_length_c 13.669609
_cell_angle_alpha 90.000000
_cell_angle_beta 90.000000
_cell_angle_gamma 90.000000
_cell_volume 7020.426205
_symmetry_space_group_name_H-M "F M M M"
_symmetry_group_IT_number 69
_symmetry_cell_setting 'orthorhombic'
loop_
_space_group_symop_operation_xyz
x,y,z
-x,-y,z
x,-y,-z
-x,y,-z
-x,-y,-z
x,y,-z
-x,y,z
x,-y,z
x,1/2+y,1/2+z
-x,1/2-y,1/2+z
x,1/2-y,1/2-z
-x,1/2+y,1/2-z
-x,1/2-y,1/2-z
x,1/2+y,1/2-z
-x,1/2+y,1/2+z
x,1/2-y,1/2+z
1/2+x,y,1/2+z
1/2-x,-y,1/2+z
1/2+x,-y,1/2-z
1/2-x,y,1/2-z
1/2-x,-y,1/2-z
1/2+x,y,1/2-z
1/2-x,y,1/2+z
1/2+x,-y,1/2+z
1/2+x,1/2+y,z
1/2-x,1/2-y,z
1/2+x,1/2-y,-z
1/2-x,1/2+y,-z
1/2-x,1/2-y,-z
1/2+x,1/2+y,-z
1/2-x,1/2+y,z
1/2+x,1/2-y,z
loop_
_atom_site_type_symbol
_atom_site_label
_atom_site_fract_x
_atom_site_fract_y
_atom_site_fract_z
Si Si1 0.054909 0.000000 0.882024
Si Si2 0.196231 0.500000 0.711371
Si Si3 0.623482 0.500000 0.610934
Si Si4 0.365346 0.120377 0.382831
Si Si5 0.946030 0.136798 0.613546
Si Si6 0.895601 0.250000 0.250000
O O1 0.087312 0.929108 0.857818
O O2 0.000000 0.000000 0.845034
O O3 0.052124 0.000000 0.000000
O O4 0.250000 0.500000 0.750000
O O5 0.163759 0.500000 0.808281
O O6 0.179393 0.569991 0.648507
O O7 0.642599 0.500000 0.500000
O O8 0.589919 0.430137 0.623217
O O9 0.365463 0.133150 0.500000
O O10 0.366768 0.193534 0.318686
O O11 0.945181 0.159637 0.500000
O O12 0.928472 0.201955 0.679877
O O13 0.000000 0.114115 0.637571
#
# Coordination Sequence:
#
# PCOD9512837 Si02
#       6
#    16  16  16  32  32  16
#     4   8  16  33  56  81 114 157 201 242 286 340
#     4  11  22  43  69  90 110 143 202 256 308 359
#     4  10  20  39  61  85 116 153 199 252 295 344
#     4  10  22  40  61  88 124 158 195 248 300 351
#     4  10  21  36  56  85 122 163 202 240 287 347
#     4  12  21  36  57  86 126 166 197 230 289 362
#
# _framework density 18.232513000000001
#
# number of rings (size 3 to 8) (size 9 to 14) (size 15 to 20)
#    0.000    1.875    2.500    2.625    0.000    4.500 
#    0.000    3.125    0.000    1.500    0.000    0.000 
#    0.000    0.000    0.000    0.000    0.000    0.000 
#
# Total GULP energy -178648.994663 kJ/mol
# GULP energy per Si atom -5582.781083 kJ/mol
# Density = 1.819101 g / cm^3
# Si number density = 18.232513 Si / 1000 Ang^3
#
#
#
# Elastic Constant Matrix: (Units=GPa)
#
#
# Indices 1 2 3 4 5 6 
#
# 1 99.7928 35.2575 48.3079 0.0000 0.0000 0.0000
# 2 35.2575 101.4932 65.6629 0.0000 0.0000 0.0000
# 3 48.3079 65.6629 131.5512 0.0000 0.0000 0.0000
# 4 0.0000 0.0000 0.0000 46.6885 0.0000 0.0000
# 5 0.0000 0.0000 0.0000 0.0000 28.8923 0.0000
# 6 0.0000 0.0000 0.0000 0.0000 0.0000 11.8944
#
#
#
# Elastic Compliance Matrix: (Units=1/GPa)
#
#
# Indices 1 2 3 4 5 6 
#
# 1 0.012462 -0.002021 -0.003567 0.000000 0.000000 0.000000
# 2 -0.002021 0.014880 -0.006685 0.000000 0.000000 0.000000
# 3 -0.003567 -0.006685 0.012248 0.000000 0.000000 0.000000
# 4 0.000000 0.000000 0.000000 0.021419 0.000000 0.000000
# 5 0.000000 0.000000 0.000000 0.000000 0.034611 0.000000
# 6 0.000000 0.000000 0.000000 0.000000 0.000000 0.084073
#
#
# Mechanical properties :
#
#
# Convention : Reuss Voigt Hill
#
# Bulk Modulus (GPa) = 66.47565 70.14377 68.30971
# Shear Modulus (GPa) = 23.89437 29.73565 26.81501
#
# Velocity S-wave (km/s) = 3.62406 4.04284 3.83916
# Velocity P-wave (km/s) = 7.35193 7.76840 7.56303
#
# Compressibility (1/GPa) = 0.01504310
#
# Stress axis : x y z
#
# Youngs Moduli (GPa) = 80.24580 67.20422 81.64318
#
# Poissons Ratio (x) = 0.13583 0.29125
# Poissons Ratio (y) = 0.16218 0.54579
# Poissons Ratio (z) = 0.28626 0.44927
#
# Static dielectric constant tensor:
#      x y z
#    x 1.597370 0.000000 0.000000 
#    y 0.000000 1.608590 0.000000 
#    z 0.000000 0.000000 1.659730 
# 
# From -- ./inp_files/18663.got.cif
#   From: 2010.05.17/outbox.cif.g08.bks.cpg/sg69_10_cif.got.tgz:18663.got - 2010.06.03 19:29:58.
