data_PCOD9512442
_publ_section_title
;
Structure prediction by ZEFSAII (Michael W. Deem and Ramdas Pophale) SiO2 
 PCOD9512442
Probable space group: F M M M
;
_chemical_formula_sum "Si O2"
_cell_formula_units_Z 160
_cell_length_a 24.622743
_cell_length_b 21.509408
_cell_length_c 15.108453
_cell_angle_alpha 90.000000
_cell_angle_beta 90.000000
_cell_angle_gamma 90.000000
_cell_volume 8001.748325
_symmetry_space_group_name_H-M "F M M M"
_symmetry_group_IT_number 69
_symmetry_cell_setting 'orthorhombic'
loop_
_space_group_symop_operation_xyz
x,y,z
-x,-y,z
x,-y,-z
-x,y,-z
-x,-y,-z
x,y,-z
-x,y,z
x,-y,z
x,1/2+y,1/2+z
-x,1/2-y,1/2+z
x,1/2-y,1/2-z
-x,1/2+y,1/2-z
-x,1/2-y,1/2-z
x,1/2+y,1/2-z
-x,1/2+y,1/2+z
x,1/2-y,1/2+z
1/2+x,y,1/2+z
1/2-x,-y,1/2+z
1/2+x,-y,1/2-z
1/2-x,y,1/2-z
1/2-x,-y,1/2-z
1/2+x,y,1/2-z
1/2-x,y,1/2+z
1/2+x,-y,1/2+z
1/2+x,1/2+y,z
1/2-x,1/2-y,z
1/2+x,1/2-y,-z
1/2-x,1/2+y,-z
1/2-x,1/2-y,-z
1/2+x,1/2+y,-z
1/2-x,1/2+y,z
1/2+x,1/2-y,z
loop_
_atom_site_type_symbol
_atom_site_label
_atom_site_fract_x
_atom_site_fract_y
_atom_site_fract_z
Si Si1 0.595049 0.929461 0.213862
Si Si2 0.500000 0.160049 0.828548
Si Si3 0.780527 0.309411 0.602070
Si Si4 0.891594 0.868331 0.100685
Si Si5 0.500000 0.294545 0.873966
Si Si6 0.780815 0.430750 0.155812
O O1 0.553517 0.882196 0.168113
O O2 0.597633 0.916808 0.320067
O O3 0.655475 0.922914 0.174815
O O4 0.576767 0.000000 0.199828
O O5 0.500000 0.220908 0.888851
O O6 0.500000 0.187875 0.729583
O O7 0.790887 0.292965 0.500000
O O8 0.750000 0.250000 0.643163
O O9 0.840043 0.328473 0.635603
O O10 0.743779 0.371204 0.607066
O O11 0.944918 0.826153 0.093382
O O12 0.879595 0.892224 0.000000
O O13 0.771867 0.500000 0.116013
O O14 0.750000 0.431078 0.250000
#
# Coordination Sequence:
#
# PCOD9512442 Si02
#       6
#    32  16  32  32  16  32
#     4  10  20  35  55  81 111 142 183 228 268 325
#     4   9  19  34  53  75 103 139 179 225 269 314
#     4  10  22  37  54  81 112 143 186 234 276 327
#     4  10  20  35  54  78 110 145 180 225 278 330
#     4   9  19  34  51  77 105 137 183 219 266 329
#     4  10  20  36  55  81 113 147 185 223 271 331
#
# _framework density 19.995629999999998
#
# number of rings (size 3 to 8) (size 9 to 14) (size 15 to 20)
#    0.000    2.200    2.000    0.600    2.800    1.200 
#    0.000    2.000    0.000    3.600    0.000    0.000 
#    0.000    6.400    0.000    0.000    0.000    0.000 
#
# Total GULP energy -222904.984531 kJ/mol
# GULP energy per Si atom -5572.624613 kJ/mol
# Density = 1.995012 g / cm^3
# Si number density = 19.995630 Si / 1000 Ang^3
#
#
#
# Elastic Constant Matrix: (Units=GPa)
#
#
# Indices 1 2 3 4 5 6 
#
# 1 118.2727 57.6769 -7.1537 0.0000 0.0000 0.0000
# 2 57.6769 110.7370 -10.2845 0.0000 0.0000 0.0000
# 3 -7.1537 -10.2845 16.4798 0.0000 0.0000 0.0000
# 4 0.0000 0.0000 0.0000 18.1719 0.0000 0.0000
# 5 0.0000 0.0000 0.0000 0.0000 177.7857 0.0000
# 6 0.0000 0.0000 0.0000 0.0000 0.0000 25.2426
#
#
#
# Elastic Compliance Matrix: (Units=1/GPa)
#
#
# Indices 1 2 3 4 5 6 
#
# 1 0.011361 -0.005795 0.001315 0.000000 0.000000 0.000000
# 2 -0.005795 0.012542 0.005311 0.000000 0.000000 0.000000
# 3 0.001315 0.005311 0.064566 0.000000 0.000000 0.000000
# 4 0.000000 0.000000 0.000000 0.055030 0.000000 0.000000
# 5 0.000000 0.000000 0.000000 0.000000 0.005625 0.000000
# 6 0.000000 0.000000 0.000000 0.000000 0.000000 0.039616
#
#
# Mechanical properties :
#
#
# Convention : Reuss Voigt Hill
#
# Bulk Modulus (GPa) = 11.09490 36.21855 23.65673
# Shear Modulus (GPa) = 23.02880 57.92342 40.47611
#
# Velocity S-wave (km/s) = 3.39734 5.38804 4.50405
# Velocity P-wave (km/s) = 4.57711 7.54059 6.23740
#
# Compressibility (1/GPa) = 0.09013148
#
# Stress axis : x y z
#
# Youngs Moduli (GPa) = 88.02392 79.73218 15.48808
#
# Poissons Ratio (x) = 0.46205 -0.02037
# Poissons Ratio (y) = 0.51010 -0.08226
# Poissons Ratio (z) = -0.11576 -0.42350
#
# Static dielectric constant tensor:
#      x y z
#    x 1.694260 0.000000 0.000000 
#    y 0.000000 1.733670 0.000000 
#    z 0.000000 0.000000 1.725140 
# 
# From -- ./inp_files/25821.got.cif
#   From: 2010.05.17/outbox.cif.g08.bks.cpg/sg69_13_cif.got.tgz:25821.got - 2010.06.03 19:29:58.
