data_PCOD9512675
_publ_section_title
;
Structure prediction by ZEFSAII (Michael W. Deem and Ramdas Pophale) SiO2 
 PCOD9512675
Probable space group: F M M M
;
_chemical_formula_sum "Si O2"
_cell_formula_units_Z 160
_cell_length_a 30.108706
_cell_length_b 15.263992
_cell_length_c 16.152145
_cell_angle_alpha 90.000000
_cell_angle_beta 90.000000
_cell_angle_gamma 90.000000
_cell_volume 7423.187414
_symmetry_space_group_name_H-M "F M M M"
_symmetry_group_IT_number 69
_symmetry_cell_setting 'orthorhombic'
loop_
_space_group_symop_operation_xyz
x,y,z
-x,-y,z
x,-y,-z
-x,y,-z
-x,-y,-z
x,y,-z
-x,y,z
x,-y,z
x,1/2+y,1/2+z
-x,1/2-y,1/2+z
x,1/2-y,1/2-z
-x,1/2+y,1/2-z
-x,1/2-y,1/2-z
x,1/2+y,1/2-z
-x,1/2+y,1/2+z
x,1/2-y,1/2+z
1/2+x,y,1/2+z
1/2-x,-y,1/2+z
1/2+x,-y,1/2-z
1/2-x,y,1/2-z
1/2-x,-y,1/2-z
1/2+x,y,1/2-z
1/2-x,y,1/2+z
1/2+x,-y,1/2+z
1/2+x,1/2+y,z
1/2-x,1/2-y,z
1/2+x,1/2-y,-z
1/2-x,1/2+y,-z
1/2-x,1/2-y,-z
1/2+x,1/2+y,-z
1/2-x,1/2+y,z
1/2+x,1/2-y,z
loop_
_atom_site_type_symbol
_atom_site_label
_atom_site_fract_x
_atom_site_fract_y
_atom_site_fract_z
Si Si1 0.449885 0.660237 0.302097
Si Si2 0.880170 0.892629 0.000000
Si Si3 0.548765 0.599262 0.127222
Si Si4 0.720810 0.892649 0.500000
Si Si5 0.866931 0.106131 0.596434
Si Si6 0.773151 0.107066 0.335009
O O1 0.500000 0.651312 0.335230
O O2 0.446593 0.750000 0.250000
O O3 0.444008 0.595030 0.224974
O O4 0.411950 0.647007 0.368497
O O5 0.909509 0.862896 0.921534
O O6 0.829908 0.861187 0.000000
O O7 0.876314 0.000000 0.000000
O O8 0.500000 0.641135 0.112196
O O9 0.545532 0.500000 0.096574
O O10 0.745720 0.865552 0.583701
O O11 0.721272 0.000000 0.500000
O O12 0.859396 0.127561 0.500000
O O13 0.824244 0.133381 0.650751
O O14 0.870638 0.000000 0.601681
O O15 0.750000 0.136356 0.250000
O O16 0.772906 0.000000 0.333857
#
# Coordination Sequence:
#
# PCOD9512675 Si02
#       6
#    32  16  32  16  32  32
#     4  10  22  39  55  77 109 145 186 227 275 340
#     4   9  17  26  45  77 108 134 166 213 273 332
#     4   9  17  31  51  76 105 134 171 223 276 326
#     4   9  16  27  42  74 113 137 174 227 276 339
#     4  10  20  36  60  88 116 146 188 241 290 337
#     4   9  17  29  49  79 115 149 180 228 290 339
#
# _framework density 21.554084
#
# number of rings (size 3 to 8) (size 9 to 14) (size 15 to 20)
#    0.000    2.600    1.000    0.900    2.800    2.800 
#    1.800    1.000    0.000    0.600    0.000    2.800 
#    0.000    0.000    0.000    0.000    0.000    0.000 
#
# Total GULP energy -223163.090094 kJ/mol
# GULP energy per Si atom -5579.077252 kJ/mol
# Density = 2.150503 g / cm^3
# Si number density = 21.554084 Si / 1000 Ang^3
#
#
#
# Elastic Constant Matrix: (Units=GPa)
#
#
# Indices 1 2 3 4 5 6 
#
# 1 196.6092 16.8995 88.0065 0.0000 0.0000 0.0000
# 2 16.8995 35.2833 16.1114 0.0000 0.0000 0.0000
# 3 88.0065 16.1114 128.4189 0.0000 0.0000 0.0000
# 4 0.0000 0.0000 0.0000 3.2325 0.0000 0.0000
# 5 0.0000 0.0000 0.0000 0.0000 44.1475 0.0000
# 6 0.0000 0.0000 0.0000 0.0000 0.0000 0.4285
#
#
#
# Elastic Compliance Matrix: (Units=1/GPa)
#
#
# Indices 1 2 3 4 5 6 
#
# 1 0.007393 -0.001302 -0.004903 0.000000 0.000000 0.000000
# 2 -0.001302 0.030294 -0.002908 0.000000 0.000000 0.000000
# 3 -0.004903 -0.002908 0.011512 0.000000 0.000000 0.000000
# 4 0.000000 0.000000 0.000000 0.309359 0.000000 0.000000
# 5 0.000000 0.000000 0.000000 0.000000 0.022651 0.000000
# 6 0.000000 0.000000 0.000000 0.000000 0.000000 2.333510
#
#
# Mechanical properties :
#
#
# Convention : Reuss Voigt Hill
#
# Bulk Modulus (GPa) = 32.28754 66.92735 49.60745
# Shear Modulus (GPa) = 1.82264 25.51465 13.66865
#
# Velocity S-wave (km/s) = 0.92057 3.44430 2.52098
# Velocity P-wave (km/s) = 4.01774 6.85098 5.61597
#
# Compressibility (1/GPa) = 0.03097170
#
# Stress axis : x y z
#
# Youngs Moduli (GPa) = 135.26595 33.01017 86.86611
#
# Poissons Ratio (x) = 0.04298 0.42591
# Poissons Ratio (y) = 0.17612 0.25264
# Poissons Ratio (z) = 0.66321 0.09600
#
# Static dielectric constant tensor:
#      x y z
#    x 1.775930 0.000000 0.000000 
#    y 0.000000 2.085960 0.000000 
#    z 0.000000 0.000000 1.759830 
# 
# From -- ./inp_files/15693.got.cif
#   From: 2010.05.17/outbox.cif.g08.bks.cpg/sg69_8_cif.got.tgz:15693.got - 2010.06.03 19:29:58.
