data_PCOD9512756
_publ_section_title
;
Structure prediction by ZEFSAII (Michael W. Deem and Ramdas Pophale) SiO2 
 PCOD9512756
Probable space group: F M M M
;
_chemical_formula_sum "Si O2"
_cell_formula_units_Z 192
_cell_length_a 18.216623
_cell_length_b 18.125456
_cell_length_c 31.180864
_cell_angle_alpha 90.000000
_cell_angle_beta 90.000000
_cell_angle_gamma 90.000000
_cell_volume 10295.441066
_symmetry_space_group_name_H-M "F M M M"
_symmetry_group_IT_number 69
_symmetry_cell_setting 'orthorhombic'
loop_
_space_group_symop_operation_xyz
x,y,z
-x,-y,z
x,-y,-z
-x,y,-z
-x,-y,-z
x,y,-z
-x,y,z
x,-y,z
x,1/2+y,1/2+z
-x,1/2-y,1/2+z
x,1/2-y,1/2-z
-x,1/2+y,1/2-z
-x,1/2-y,1/2-z
x,1/2+y,1/2-z
-x,1/2+y,1/2+z
x,1/2-y,1/2+z
1/2+x,y,1/2+z
1/2-x,-y,1/2+z
1/2+x,-y,1/2-z
1/2-x,y,1/2-z
1/2-x,-y,1/2-z
1/2+x,y,1/2-z
1/2-x,y,1/2+z
1/2+x,-y,1/2+z
1/2+x,1/2+y,z
1/2-x,1/2-y,z
1/2+x,1/2-y,-z
1/2-x,1/2+y,-z
1/2-x,1/2-y,-z
1/2+x,1/2+y,-z
1/2-x,1/2+y,z
1/2+x,1/2-y,z
loop_
_atom_site_type_symbol
_atom_site_label
_atom_site_fract_x
_atom_site_fract_y
_atom_site_fract_z
Si Si1 0.146720 0.413962 0.584903
Si Si2 0.913094 0.588305 0.834929
Si Si3 0.413190 0.085488 0.674216
Si Si4 0.680655 0.914277 0.079835
Si Si5 0.664335 0.337998 0.253356
Si Si6 0.322802 0.303544 0.500000
Si Si7 0.413113 0.163449 0.500000
O O1 0.126281 0.500000 0.578962
O O2 0.107106 0.384615 0.627312
O O3 0.233743 0.410401 0.592912
O O4 0.123337 0.372033 0.542183
O O5 0.906783 0.500000 0.826878
O O6 0.872044 0.602886 0.880037
O O7 0.872972 0.631333 0.796570
O O8 0.000000 0.606101 0.836818
O O9 0.500000 0.087040 0.679832
O O10 0.375782 0.127806 0.712564
O O11 0.388386 0.000000 0.675066
O O12 0.666661 0.000000 0.066621
O O13 0.674196 0.856591 0.041223
O O14 0.658414 0.250000 0.250000
O O15 0.750000 0.358389 0.250000
O O16 0.250000 0.250000 0.500000
O O17 0.391615 0.248905 0.500000
O O18 0.500000 0.150751 0.500000
#
# Coordination Sequence:
#
# PCOD9512756 Si02
#       7
#    32  32  32  32  32  16  16
#     4  10  20  37  61  89 119 157 201 244 296 369
#     4  10  22  41  65  92 121 157 207 264 313 361
#     4  10  21  37  59  86 116 151 193 242 296 355
#     4  10  21  40  67  91 116 159 209 250 302 364
#     4  11  24  40  58  86 120 159 202 250 307 374
#     4  12  23  41  61  89 125 164 196 253 299 361
#     4  12  25  38  57  88 125 163 199 243 309 372
#
# _framework density 18.649031000000001
#
# number of rings (size 3 to 8) (size 9 to 14) (size 15 to 20)
#    0.000    1.500    1.667    3.000    0.000   10.000 
#    3.000    0.000    0.000    2.500    0.000    0.000 
#    0.000    0.000    0.000    0.000    0.000    0.000 
#
# Total GULP energy -268147.145359 kJ/mol
# GULP energy per Si atom -5586.398862 kJ/mol
# Density = 1.860658 g / cm^3
# Si number density = 18.649031 Si / 1000 Ang^3
#
#
#
# Elastic Constant Matrix: (Units=GPa)
#
#
# Indices 1 2 3 4 5 6 
#
# 1 117.2908 51.9258 78.8767 0.0000 0.0000 0.0000
# 2 51.9258 70.8170 77.8821 0.0000 0.0000 0.0000
# 3 78.8767 77.8821 166.7461 0.0000 0.0000 0.0000
# 4 0.0000 0.0000 0.0000 -82.7115 0.0000 0.0000
# 5 0.0000 0.0000 0.0000 0.0000 -60.1637 0.0000
# 6 0.0000 0.0000 0.0000 0.0000 0.0000 26.7533
#
#
#
# Elastic Compliance Matrix: (Units=1/GPa)
#
#
# Indices 1 2 3 4 5 6 
#
# 1 0.013629 -0.005970 -0.003659 0.000000 0.000000 0.000000
# 2 -0.005970 0.031650 -0.011959 0.000000 0.000000 0.000000
# 3 -0.003659 -0.011959 0.013314 0.000000 0.000000 0.000000
# 4 0.000000 0.000000 0.000000 -0.012090 0.000000 0.000000
# 5 0.000000 0.000000 0.000000 0.000000 -0.016621 0.000000
# 6 0.000000 0.000000 0.000000 0.000000 0.000000 0.037379
#
#
# Mechanical properties :
#
#
# Convention : Reuss Voigt Hill
#
# Bulk Modulus (GPa) = 64.85912 85.80257 75.33084
# Shear Modulus (GPa) = 43.26224 -13.47978 14.89123
#
# Velocity S-wave (km/s) = 4.82167 -2.69144 2.82884
# Velocity P-wave (km/s) = 8.11494 6.03743 7.15202
#
# Compressibility (1/GPa) = 0.01541803
#
# Stress axis : x y z
#
# Youngs Moduli (GPa) = 73.37222 31.59542 75.11110
#
# Poissons Ratio (x) = 0.18861 0.27482
# Poissons Ratio (y) = 0.43800 0.89826
# Poissons Ratio (z) = 0.26846 0.37785
#
# Static dielectric constant tensor:
#      x y z
#    x 1.637170 0.000000 0.000000 
#    y 0.000000 1.727560 0.000000 
#    z 0.000000 0.000000 1.615330 
# 
# From -- ./inp_files/46392.got.cif
#   From: 2010.05.17/outbox.cif.g08.bks.cpg/sg69_24_cif.got.tgz:46392.got - 2010.06.03 19:29:58.
