data_PCOD9512019
_publ_section_title
;
Structure prediction by ZEFSAII (Michael W. Deem and Ramdas Pophale) SiO2 
 PCOD9512019
Probable space group: F M M M
;
_chemical_formula_sum "Si O2"
_cell_formula_units_Z 136
_cell_length_a 20.163239
_cell_length_b 15.236598
_cell_length_c 19.870802
_cell_angle_alpha 90.000000
_cell_angle_beta 90.000000
_cell_angle_gamma 90.000000
_cell_volume 6104.691238
_symmetry_space_group_name_H-M "F M M M"
_symmetry_group_IT_number 69
_symmetry_cell_setting 'orthorhombic'
loop_
_space_group_symop_operation_xyz
x,y,z
-x,-y,z
x,-y,-z
-x,y,-z
-x,-y,-z
x,y,-z
-x,y,z
x,-y,z
x,1/2+y,1/2+z
-x,1/2-y,1/2+z
x,1/2-y,1/2-z
-x,1/2+y,1/2-z
-x,1/2-y,1/2-z
x,1/2+y,1/2-z
-x,1/2+y,1/2+z
x,1/2-y,1/2+z
1/2+x,y,1/2+z
1/2-x,-y,1/2+z
1/2+x,-y,1/2-z
1/2-x,y,1/2-z
1/2-x,-y,1/2-z
1/2+x,y,1/2-z
1/2-x,y,1/2+z
1/2+x,-y,1/2+z
1/2+x,1/2+y,z
1/2-x,1/2-y,z
1/2+x,1/2-y,-z
1/2-x,1/2+y,-z
1/2-x,1/2-y,-z
1/2+x,1/2+y,-z
1/2-x,1/2+y,z
1/2+x,1/2-y,z
loop_
_atom_site_type_symbol
_atom_site_label
_atom_site_fract_x
_atom_site_fract_y
_atom_site_fract_z
Si Si1 0.618447 0.392223 0.500000
Si Si2 0.231010 0.393544 0.500000
Si Si3 0.000000 0.157152 0.000000
Si Si4 0.174855 0.354057 0.745840
Si Si5 0.429381 0.104714 0.857545
Si Si6 0.381228 0.104999 0.600586
O O1 0.617885 0.500000 0.500000
O O2 0.694217 0.361267 0.500000
O O3 0.582626 0.361304 0.432761
O O4 0.235202 0.500000 0.500000
O O5 0.187616 0.368344 0.564342
O O6 0.058635 0.148748 0.059705
O O7 0.180271 0.250000 0.750000
O O8 0.250000 0.390913 0.750000
O O9 0.132369 0.379474 0.810430
O O10 0.132846 0.378619 0.679240
O O11 0.500000 0.138572 0.830846
O O12 0.434051 0.000000 0.863324
O O13 0.391051 0.000000 0.590880
#
# Coordination Sequence:
#
# PCOD9512019 Si02
#       6
#    16  16   8  32  32  32
#     4   9  16  31  56  83 116 147 188 244 294 353
#     4   8  15  28  53  87 112 145 190 243 304 350
#     4  10  21  38  64  98 124 154 197 256 321 364
#     4  11  25  42  59  84 123 168 208 249 299 359
#     4  10  21  37  60  89 116 152 198 247 306 362
#     4  10  19  35  61  91 122 152 199 256 307 363
#
# _framework density 22.277950000000001
#
# number of rings (size 3 to 8) (size 9 to 14) (size 15 to 20)
#    0.000    2.118    0.000    4.235    1.647    5.647 
#    0.000    2.353    0.000    8.471    0.000    0.000 
#    0.000    0.000    0.000    0.000    0.000    0.000 
#
# Total GULP energy -189382.501744 kJ/mol
# GULP energy per Si atom -5570.073581 kJ/mol
# Density = 2.222724 g / cm^3
# Si number density = 22.277950 Si / 1000 Ang^3
#
#
#
# Elastic Constant Matrix: (Units=GPa)
#
#
# Indices 1 2 3 4 5 6 
#
# 1 189.6375 17.1344 60.5082 0.0000 0.0000 0.0000
# 2 17.1344 46.3584 4.6947 0.0000 0.0000 0.0000
# 3 60.5082 4.6947 145.1565 0.0000 0.0000 0.0000
# 4 0.0000 0.0000 0.0000 30.3837 0.0000 0.0000
# 5 0.0000 0.0000 0.0000 0.0000 24.9654 0.0000
# 6 0.0000 0.0000 0.0000 0.0000 0.0000 4.8279
#
#
#
# Elastic Compliance Matrix: (Units=1/GPa)
#
#
# Indices 1 2 3 4 5 6 
#
# 1 0.006272 -0.002060 -0.002548 0.000000 0.000000 0.000000
# 2 -0.002060 0.022319 0.000137 0.000000 0.000000 0.000000
# 3 -0.002548 0.000137 0.007947 0.000000 0.000000 0.000000
# 4 0.000000 0.000000 0.000000 0.032912 0.000000 0.000000
# 5 0.000000 0.000000 0.000000 0.000000 0.040055 0.000000
# 6 0.000000 0.000000 0.000000 0.000000 0.000000 0.207131
#
#
# Mechanical properties :
#
#
# Convention : Reuss Voigt Hill
#
# Bulk Modulus (GPa) = 36.23808 60.64745 48.44277
# Shear Modulus (GPa) = 14.93528 31.95639 23.44583
#
# Velocity S-wave (km/s) = 2.59203 3.79151 3.24763
# Velocity P-wave (km/s) = 5.02591 6.81539 5.98788
#
# Compressibility (1/GPa) = 0.02759528
#
# Stress axis : x y z
#
# Youngs Moduli (GPa) = 159.42944 44.80552 125.83669
#
# Poissons Ratio (x) = 0.09231 0.32063
# Poissons Ratio (y) = 0.32847 -0.01724
# Poissons Ratio (z) = 0.40622 -0.00614
#
# Static dielectric constant tensor:
#      x y z
#    x 1.828980 0.000000 0.000000 
#    y 0.000000 1.836840 0.000000 
#    z 0.000000 0.000000 1.818630 
# 
# From -- ./inp_files/24237.got.cif
#   From: 2010.05.17/outbox.cif.g08.bks.cpg/sg69_13_cif.got.tgz:24237.got - 2010.06.03 19:29:58.
