data_PCOD9512120
_publ_section_title
;
Structure prediction by ZEFSAII (Michael W. Deem and Ramdas Pophale) SiO2 
 PCOD9512120
Probable space group: F M M M
;
_chemical_formula_sum "Si O2"
_cell_formula_units_Z 116
_cell_length_a 9.838580
_cell_length_b 22.356150
_cell_length_c 27.809520
_cell_angle_alpha 90.000000
_cell_angle_beta 90.000000
_cell_angle_gamma 90.000000
_cell_volume 6116.780964
_symmetry_space_group_name_H-M "F M M M"
_symmetry_group_IT_number 69
_symmetry_cell_setting 'orthorhombic'
loop_
_space_group_symop_operation_xyz
x,y,z
-x,-y,z
x,-y,-z
-x,y,-z
-x,-y,-z
x,y,-z
-x,y,z
x,-y,z
x,1/2+y,1/2+z
-x,1/2-y,1/2+z
x,1/2-y,1/2-z
-x,1/2+y,1/2-z
-x,1/2-y,1/2-z
x,1/2+y,1/2-z
-x,1/2+y,1/2+z
x,1/2-y,1/2+z
1/2+x,y,1/2+z
1/2-x,-y,1/2+z
1/2+x,-y,1/2-z
1/2-x,y,1/2-z
1/2-x,-y,1/2-z
1/2+x,y,1/2-z
1/2-x,y,1/2+z
1/2+x,-y,1/2+z
1/2+x,1/2+y,z
1/2-x,1/2-y,z
1/2+x,1/2-y,-z
1/2-x,1/2+y,-z
1/2-x,1/2-y,-z
1/2+x,1/2+y,-z
1/2-x,1/2+y,z
1/2+x,1/2-y,z
loop_
_atom_site_type_symbol
_atom_site_label
_atom_site_fract_x
_atom_site_fract_y
_atom_site_fract_z
Si Si1 0.772632 0.620672 0.895052
Si Si2 0.785815 0.500000 0.946872
Si Si3 0.500000 0.302900 0.556579
Si Si4 0.662296 0.429245 0.798594
Si Si5 0.500000 0.159475 0.554340
Si Si6 0.000000 0.500000 0.500000
O O1 0.824067 0.558675 0.917565
O O2 0.873062 0.672091 0.913366
O O3 0.737014 0.609540 0.839528
O O4 0.631234 0.635747 0.919869
O O5 0.847620 0.500000 0.000000
O O6 0.622918 0.500000 0.958443
O O7 0.500000 0.323235 0.500000
O O8 0.500000 0.231239 0.554345
O O9 0.500000 0.414786 0.793662
O O10 0.668079 0.500000 0.812192
O O11 0.750000 0.422500 0.750000
O O12 0.500000 0.135124 0.500000
#
# Coordination Sequence:
#
# PCOD9512120 Si02
#       6
#    32  16  16  32  16   4
#     4  12  22  39  64  91 126 164 206 259 312 373
#     4  10  20  31  55  93 123 157 192 249 313 371
#     4  11  26  42  58  90 133 174 211 252 305 363
#     4  10  22  40  64  94 125 160 206 255 317 384
#     4  11  23  41  66  89 119 172 224 255 291 367
#     4   8  20  28  52  82 124 156 192 230 304 362
#
# _framework density 18.964221999999999
#
# number of rings (size 3 to 8) (size 9 to 14) (size 15 to 20)
#    0.414    0.828    2.759    4.138    3.862    2.759 
#    0.000    1.379    0.000    4.966    0.000    0.000 
#    0.000    0.000    0.000    0.000    0.000    0.000 
#
# Total GULP energy -161664.836859 kJ/mol
# GULP energy per Si atom -5574.649547 kJ/mol
# Density = 1.892106 g / cm^3
# Si number density = 18.964222 Si / 1000 Ang^3
#
#
#
# Elastic Constant Matrix: (Units=GPa)
#
#
# Indices 1 2 3 4 5 6 
#
# 1 93.0951 4.3317 40.2524 0.0000 0.0000 0.0000
# 2 4.3317 48.6209 25.2605 0.0000 0.0000 0.0000
# 3 40.2524 25.2605 133.0651 0.0000 0.0000 0.0000
# 4 0.0000 0.0000 0.0000 7.5564 0.0000 0.0000
# 5 0.0000 0.0000 0.0000 0.0000 21.8742 0.0000
# 6 0.0000 0.0000 0.0000 0.0000 0.0000 41.0231
#
#
#
# Elastic Compliance Matrix: (Units=1/GPa)
#
#
# Indices 1 2 3 4 5 6 
#
# 1 0.012396 0.000936 -0.003928 0.000000 0.000000 0.000000
# 2 0.000936 0.022888 -0.004628 0.000000 0.000000 0.000000
# 3 -0.003928 -0.004628 0.009582 0.000000 0.000000 0.000000
# 4 0.000000 0.000000 0.000000 0.132338 0.000000 0.000000
# 5 0.000000 0.000000 0.000000 0.000000 0.045716 0.000000
# 6 0.000000 0.000000 0.000000 0.000000 0.000000 0.024376
#
#
# Mechanical properties :
#
#
# Convention : Reuss Voigt Hill
#
# Bulk Modulus (GPa) = 33.75272 46.05225 39.90248
# Shear Modulus (GPa) = 18.35454 27.75317 23.05385
#
# Velocity S-wave (km/s) = 3.11440 3.82966 3.49040
# Velocity P-wave (km/s) = 5.54702 6.62506 6.10987
#
# Compressibility (1/GPa) = 0.02962725
#
# Stress axis : x y z
#
# Youngs Moduli (GPa) = 80.66877 43.69014 104.36407
#
# Poissons Ratio (x) = -0.04090 0.40990
# Poissons Ratio (y) = -0.07552 0.48302
# Poissons Ratio (z) = 0.31684 0.20221
#
# Static dielectric constant tensor:
#      x y z
#    x 4.260080 0.000000 0.000000 
#    y 0.000000 1.664300 0.000000 
#    z 0.000000 0.000000 1.650230 
# 
# From -- ./inp_files/39511.got.cif
#   From: 2010.05.17/outbox.cif.g08.bks.cpg/sg69_20_cif.got.tgz:39511.got - 2010.06.03 19:29:58.
