data_PCOD9512892
_publ_section_title
;
Structure prediction by ZEFSAII (Michael W. Deem and Ramdas Pophale) SiO2 
 PCOD9512892
Probable space group: F M M M
;
_chemical_formula_sum "Si O2"
_cell_formula_units_Z 136
_cell_length_a 23.718487
_cell_length_b 13.668672
_cell_length_c 23.174404
_cell_angle_alpha 90.000000
_cell_angle_beta 90.000000
_cell_angle_gamma 90.000000
_cell_volume 7513.146855
_symmetry_space_group_name_H-M "F M M M"
_symmetry_group_IT_number 69
_symmetry_cell_setting 'orthorhombic'
loop_
_space_group_symop_operation_xyz
x,y,z
-x,-y,z
x,-y,-z
-x,y,-z
-x,-y,-z
x,y,-z
-x,y,z
x,-y,z
x,1/2+y,1/2+z
-x,1/2-y,1/2+z
x,1/2-y,1/2-z
-x,1/2+y,1/2-z
-x,1/2-y,1/2-z
x,1/2+y,1/2-z
-x,1/2+y,1/2+z
x,1/2-y,1/2+z
1/2+x,y,1/2+z
1/2-x,-y,1/2+z
1/2+x,-y,1/2-z
1/2-x,y,1/2-z
1/2-x,-y,1/2-z
1/2+x,y,1/2-z
1/2-x,y,1/2+z
1/2+x,-y,1/2+z
1/2+x,1/2+y,z
1/2-x,1/2-y,z
1/2+x,1/2-y,-z
1/2-x,1/2+y,-z
1/2-x,1/2-y,-z
1/2+x,1/2+y,-z
1/2-x,1/2+y,z
1/2+x,1/2-y,z
loop_
_atom_site_type_symbol
_atom_site_label
_atom_site_fract_x
_atom_site_fract_y
_atom_site_fract_z
Si Si1 0.000000 0.364199 0.252941
Si Si2 0.115076 0.500000 0.568524
Si Si3 0.375486 0.607097 0.245180
Si Si4 0.330407 0.819611 0.366831
Si Si5 0.797061 0.387606 0.855383
Si Si6 0.500000 0.500000 0.138246
O O1 0.000000 0.250000 0.250000
O O2 0.061492 0.392288 0.228657
O O3 0.000000 0.408995 0.317326
O O4 0.111054 0.500000 0.500000
O O5 0.145404 0.400035 0.589607
O O6 0.054557 0.500000 0.598977
O O7 0.368710 0.500000 0.217020
O O8 0.367433 0.680416 0.192058
O O9 0.328069 0.614609 0.293560
O O10 0.268578 0.860284 0.349555
O O11 0.323514 0.707295 0.387919
O O12 0.802933 0.500000 0.877507
#
# Coordination Sequence:
#
# PCOD9512892 Si02
#       6
#    16  16  32  32  32   8
#     4  12  20  31  53  82 117 155 187 223 284 355
#     4  12  25  42  64  85 107 155 215 259 296 328
#     4  11  19  32  51  81 118 157 191 227 287 364
#     4  11  19  37  56  79 120 152 193 251 289 344
#     4  10  21  32  55  86 118 154 190 224 301 377
#     4  12  23  44  58  86 128 156 191 252 294 336
#
# _framework density 18.101603000000001
#
# number of rings (size 3 to 8) (size 9 to 14) (size 15 to 20)
#    0.000    0.941    5.882    3.000    0.000    3.765 
#    0.000    2.353    0.000    0.000    0.000    0.000 
#    0.000    1.882    0.000    0.000    0.000    0.000 
#
# Total GULP energy -189414.349123 kJ/mol
# GULP energy per Si atom -5571.010268 kJ/mol
# Density = 1.806040 g / cm^3
# Si number density = 18.101603 Si / 1000 Ang^3
#
#
#
# Elastic Constant Matrix: (Units=GPa)
#
#
# Indices 1 2 3 4 5 6 
#
# 1 113.4053 31.5024 37.8021 0.0000 0.0000 0.0000
# 2 31.5024 176.9762 25.0453 0.0000 0.0000 0.0000
# 3 37.8021 25.0453 63.1484 0.0000 0.0000 0.0000
# 4 0.0000 0.0000 0.0000 9.4190 0.0000 0.0000
# 5 0.0000 0.0000 0.0000 0.0000 2.5946 0.0000
# 6 0.0000 0.0000 0.0000 0.0000 0.0000 28.1334
#
#
#
# Elastic Compliance Matrix: (Units=1/GPa)
#
#
# Indices 1 2 3 4 5 6 
#
# 1 0.011218 -0.001109 -0.006275 0.000000 0.000000 0.000000
# 2 -0.001109 0.006096 -0.001754 0.000000 0.000000 0.000000
# 3 -0.006275 -0.001754 0.020288 0.000000 0.000000 0.000000
# 4 0.000000 0.000000 0.000000 0.106169 0.000000 0.000000
# 5 0.000000 0.000000 0.000000 0.000000 0.385410 0.000000
# 6 0.000000 0.000000 0.000000 0.000000 0.000000 0.035545
#
#
# Mechanical properties :
#
#
# Convention : Reuss Voigt Hill
#
# Bulk Modulus (GPa) = 51.74549 60.24773 55.99661
# Shear Modulus (GPa) = 8.48257 25.30808 16.89533
#
# Velocity S-wave (km/s) = 2.16709 3.74319 3.05841
# Velocity P-wave (km/s) = 5.90846 7.21369 6.59345
#
# Compressibility (1/GPa) = 0.01932536
#
# Stress axis : x y z
#
# Youngs Moduli (GPa) = 89.14434 164.04029 49.29007
#
# Poissons Ratio (x) = 0.18187 0.30932
# Poissons Ratio (y) = 0.09884 0.08646
# Poissons Ratio (z) = 0.55942 0.28774
#
# Static dielectric constant tensor:
#      x y z
#    x 1.653690 0.000000 0.000000 
#    y 0.000000 1.703210 0.000000 
#    z 0.000000 0.000000 1.570290 
# 
# From -- ./inp_files/29811.got.cif
#   From: 2010.05.17/outbox.cif.g08.bks.cpg/sg69_15_cif.got.tgz:29811.got - 2010.06.03 19:29:58.
