data_PCOD9512549
_publ_section_title
;
Structure prediction by ZEFSAII (Michael W. Deem and Ramdas Pophale) SiO2 
 PCOD9512549
Probable space group: F M M M
;
_chemical_formula_sum "Si O2"
_cell_formula_units_Z 136
_cell_length_a 27.838523
_cell_length_b 13.180474
_cell_length_c 19.884783
_cell_angle_alpha 90.000000
_cell_angle_beta 90.000000
_cell_angle_gamma 90.000000
_cell_volume 7296.222582
_symmetry_space_group_name_H-M "F M M M"
_symmetry_group_IT_number 69
_symmetry_cell_setting 'orthorhombic'
loop_
_space_group_symop_operation_xyz
x,y,z
-x,-y,z
x,-y,-z
-x,y,-z
-x,-y,-z
x,y,-z
-x,y,z
x,-y,z
x,1/2+y,1/2+z
-x,1/2-y,1/2+z
x,1/2-y,1/2-z
-x,1/2+y,1/2-z
-x,1/2-y,1/2-z
x,1/2+y,1/2-z
-x,1/2+y,1/2+z
x,1/2-y,1/2+z
1/2+x,y,1/2+z
1/2-x,-y,1/2+z
1/2+x,-y,1/2-z
1/2-x,y,1/2-z
1/2-x,-y,1/2-z
1/2+x,y,1/2-z
1/2-x,y,1/2+z
1/2+x,-y,1/2+z
1/2+x,1/2+y,z
1/2-x,1/2-y,z
1/2+x,1/2-y,-z
1/2-x,1/2+y,-z
1/2-x,1/2-y,-z
1/2+x,1/2+y,-z
1/2-x,1/2+y,z
1/2+x,1/2-y,z
loop_
_atom_site_type_symbol
_atom_site_label
_atom_site_fract_x
_atom_site_fract_y
_atom_site_fract_z
Si Si1 0.652503 0.214162 0.359715
Si Si2 0.193635 0.887089 0.738217
Si Si3 0.055996 0.500000 0.114608
Si Si4 0.806356 0.778195 0.500000
Si Si5 0.860694 0.000000 0.500000
Si Si6 0.446594 0.277951 0.328298
O O1 0.669004 0.123866 0.311100
O O2 0.670659 0.309803 0.314487
O O3 0.674577 0.225809 0.432393
O O4 0.595574 0.220498 0.365741
O O5 0.250000 0.866134 0.750000
O O6 0.188506 0.000000 0.711422
O O7 0.059548 0.397833 0.158463
O O8 0.000000 0.500000 0.086657
O O9 0.100715 0.500000 0.062267
O O10 0.750000 0.750000 0.500000
O O11 0.827324 0.896429 0.500000
O O12 0.500000 0.249955 0.350672
O O13 0.441842 0.250000 0.250000
#
# Coordination Sequence:
#
# PCOD9512549 Si02
#       6
#    32  32  16  16   8  32
#     4  11  21  39  58  83 122 153 198 251 299 363
#     4  10  21  37  60  83 109 153 204 253 303 353
#     4  10  21  38  62  95 122 152 203 252 307 376
#     4  12  26  41  59  88 123 162 205 246 308 368
#     4  12  23  40  68  84 120 166 197 256 322 354
#     4  10  20  35  58  88 123 156 190 243 304 363
#
# _framework density 18.639782
#
# number of rings (size 3 to 8) (size 9 to 14) (size 15 to 20)
#    0.000    1.412    4.706    3.000    3.294    0.000 
#    2.118    0.588    0.000    0.000    0.000    0.000 
#    0.000    1.882    0.000    0.000    0.000    0.000 
#
# Total GULP energy -189556.394490 kJ/mol
# GULP energy per Si atom -5575.188073 kJ/mol
# Density = 1.859736 g / cm^3
# Si number density = 18.639782 Si / 1000 Ang^3
#
#
#
# Elastic Constant Matrix: (Units=GPa)
#
#
# Indices 1 2 3 4 5 6 
#
# 1 163.8952 16.7089 47.6066 0.0000 0.0000 0.0000
# 2 16.7089 54.4168 7.3086 0.0000 0.0000 0.0000
# 3 47.6066 7.3086 111.9757 0.0000 0.0000 0.0000
# 4 0.0000 0.0000 0.0000 45.0606 0.0000 0.0000
# 5 0.0000 0.0000 0.0000 0.0000 50.1527 0.0000
# 6 0.0000 0.0000 0.0000 0.0000 0.0000 22.1093
#
#
#
# Elastic Compliance Matrix: (Units=1/GPa)
#
#
# Indices 1 2 3 4 5 6 
#
# 1 0.007131 -0.001798 -0.002915 0.000000 0.000000 0.000000
# 2 -0.001798 0.018993 -0.000475 0.000000 0.000000 0.000000
# 3 -0.002915 -0.000475 0.010201 0.000000 0.000000 0.000000
# 4 0.000000 0.000000 0.000000 0.022192 0.000000 0.000000
# 5 0.000000 0.000000 0.000000 0.000000 0.019939 0.000000
# 6 0.000000 0.000000 0.000000 0.000000 0.000000 0.045230
#
#
# Mechanical properties :
#
#
# Convention : Reuss Voigt Hill
#
# Bulk Modulus (GPa) = 38.53737 52.61510 45.57624
# Shear Modulus (GPa) = 35.03572 40.70874 37.87223
#
# Velocity S-wave (km/s) = 4.34016 4.67837 4.51243
# Velocity P-wave (km/s) = 6.77021 7.58099 7.18704
#
# Compressibility (1/GPa) = 0.02594884
#
# Stress axis : x y z
#
# Youngs Moduli (GPa) = 140.22534 52.65189 98.03306
#
# Poissons Ratio (x) = 0.09468 0.28572
# Poissons Ratio (y) = 0.25216 0.04658
# Poissons Ratio (z) = 0.40869 0.02502
#
# Static dielectric constant tensor:
#      x y z
#    x 1.696280 0.000000 0.000000 
#    y 0.000000 1.662110 0.000000 
#    z 0.000000 0.000000 1.609950 
# 
# From -- ./inp_files/33317.got.cif
#   From: 2010.05.17/outbox.cif.g08.bks.cpg/sg69_17_cif.got.tgz:33317.got - 2010.06.03 19:29:58.
