data_PCOD9512817
_publ_section_title
;
Structure prediction by ZEFSAII (Michael W. Deem and Ramdas Pophale) SiO2 
 PCOD9512817
Probable space group: F M M M
;
_chemical_formula_sum "Si O2"
_cell_formula_units_Z 144
_cell_length_a 27.771727
_cell_length_b 14.583641
_cell_length_c 16.620178
_cell_angle_alpha 90.000000
_cell_angle_beta 90.000000
_cell_angle_gamma 90.000000
_cell_volume 6731.386432
_symmetry_space_group_name_H-M "F M M M"
_symmetry_group_IT_number 69
_symmetry_cell_setting 'orthorhombic'
loop_
_space_group_symop_operation_xyz
x,y,z
-x,-y,z
x,-y,-z
-x,y,-z
-x,-y,-z
x,y,-z
-x,y,z
x,-y,z
x,1/2+y,1/2+z
-x,1/2-y,1/2+z
x,1/2-y,1/2-z
-x,1/2+y,1/2-z
-x,1/2-y,1/2-z
x,1/2+y,1/2-z
-x,1/2+y,1/2+z
x,1/2-y,1/2+z
1/2+x,y,1/2+z
1/2-x,-y,1/2+z
1/2+x,-y,1/2-z
1/2-x,y,1/2-z
1/2-x,-y,1/2-z
1/2+x,y,1/2-z
1/2-x,y,1/2+z
1/2+x,-y,1/2+z
1/2+x,1/2+y,z
1/2-x,1/2-y,z
1/2+x,1/2-y,-z
1/2-x,1/2+y,-z
1/2-x,1/2-y,-z
1/2+x,1/2+y,-z
1/2-x,1/2+y,z
1/2+x,1/2-y,z
loop_
_atom_site_type_symbol
_atom_site_label
_atom_site_fract_x
_atom_site_fract_y
_atom_site_fract_z
Si Si1 0.558630 0.890323 0.500000
Si Si2 0.306667 0.265251 0.917536
Si Si3 0.130416 0.102746 0.376837
Si Si4 0.557639 0.245411 0.652341
Si Si5 0.304817 0.898801 0.719847
O O1 0.500000 0.891427 0.500000
O O2 0.572011 0.833595 0.415979
O O3 0.573492 0.000000 0.500000
O O4 0.250000 0.250000 0.912796
O O5 0.331324 0.167533 0.919463
O O6 0.321338 0.321394 0.840533
O O7 0.318018 0.316804 0.000000
O O8 0.081703 0.160584 0.377883
O O9 0.155870 0.097206 0.289502
O O10 0.125073 0.000000 0.406655
O O11 0.500000 0.245925 0.649900
O O12 0.570061 0.250000 0.750000
O O13 0.250000 0.878692 0.750000
O O14 0.301561 0.000000 0.681729
#
# Coordination Sequence:
#
# PCOD9512817 Si02
#       5
#    16  32  32  32  32
#     4   9  20  42  73 105 136 175 225 284 346 401
#     4  11  23  37  59  88 120 161 207 267 328 384
#     4  11  24  41  64  92 127 173 219 263 323 394
#     4  10  22  42  69 102 140 179 223 276 335 402
#     4  10  20  38  63  88 117 160 212 266 325 391
#
# _framework density 21.392323999999999
#
# number of rings (size 3 to 8) (size 9 to 14) (size 15 to 20)
#    0.000    1.667    2.222    2.000    1.556    2.222 
#    0.000    5.556    0.000    2.000    0.000    0.000 
#    0.000    0.000    0.000    0.000    0.000    0.000 
#
# Total GULP energy -200463.854551 kJ/mol
# GULP energy per Si atom -5568.440404 kJ/mol
# Density = 2.134363 g / cm^3
# Si number density = 21.392324 Si / 1000 Ang^3
#
#
#
# Elastic Constant Matrix: (Units=GPa)
#
#
# Indices 1 2 3 4 5 6 
#
# 1 50.9005 30.0249 19.7408 0.0000 0.0000 0.0000
# 2 30.0249 172.2217 87.6817 0.0000 0.0000 0.0000
# 3 19.7408 87.6817 141.3542 0.0000 0.0000 0.0000
# 4 0.0000 0.0000 0.0000 -19.8804 0.0000 0.0000
# 5 0.0000 0.0000 0.0000 0.0000 39.7758 0.0000
# 6 0.0000 0.0000 0.0000 0.0000 0.0000 32.2497
#
#
#
# Elastic Compliance Matrix: (Units=1/GPa)
#
#
# Indices 1 2 3 4 5 6 
#
# 1 0.021997 -0.003319 -0.001013 0.000000 0.000000 0.000000
# 2 -0.003319 0.008987 -0.005111 0.000000 0.000000 0.000000
# 3 -0.001013 -0.005111 0.010386 0.000000 0.000000 0.000000
# 4 0.000000 0.000000 0.000000 -0.050301 0.000000 0.000000
# 5 0.000000 0.000000 0.000000 0.000000 0.025141 0.000000
# 6 0.000000 0.000000 0.000000 0.000000 0.000000 0.031008
#
#
# Mechanical properties :
#
#
# Convention : Reuss Voigt Hill
#
# Bulk Modulus (GPa) = 44.47676 71.04124 57.75900
# Shear Modulus (GPa) = 67.93394 25.56426 46.74910
#
# Velocity S-wave (km/s) = 5.64138 3.46066 4.67981
# Velocity P-wave (km/s) = 7.95422 7.01777 7.50062
#
# Compressibility (1/GPa) = 0.02248365
#
# Stress axis : x y z
#
# Youngs Moduli (GPa) = 45.46081 111.26683 96.27909
#
# Poissons Ratio (x) = 0.36931 0.09755
# Poissons Ratio (y) = 0.15089 0.49211
# Poissons Ratio (z) = 0.04606 0.56872
#
# Static dielectric constant tensor:
#      x y z
#    x 1.770850 0.000000 0.000000 
#    y 0.000000 1.760800 0.000000 
#    z 0.000000 0.000000 2.149000 
# 
# From -- ./inp_files/19456.got.cif
#   From: 2010.05.17/outbox.cif.g08.bks.cpg/sg69_10_cif.got.tgz:19456.got - 2010.06.03 19:29:58.
