data_PCOD9512631
_publ_section_title
;
Structure prediction by ZEFSAII (Michael W. Deem and Ramdas Pophale) SiO2 
 PCOD9512631
Probable space group: F M M M
;
_chemical_formula_sum "Si O2"
_cell_formula_units_Z 160
_cell_length_a 28.285107
_cell_length_b 19.647479
_cell_length_c 15.235193
_cell_angle_alpha 90.000000
_cell_angle_beta 90.000000
_cell_angle_gamma 90.000000
_cell_volume 8466.669739
_symmetry_space_group_name_H-M "F M M M"
_symmetry_group_IT_number 69
_symmetry_cell_setting 'orthorhombic'
loop_
_space_group_symop_operation_xyz
x,y,z
-x,-y,z
x,-y,-z
-x,y,-z
-x,-y,-z
x,y,-z
-x,y,z
x,-y,z
x,1/2+y,1/2+z
-x,1/2-y,1/2+z
x,1/2-y,1/2-z
-x,1/2+y,1/2-z
-x,1/2-y,1/2-z
x,1/2+y,1/2-z
-x,1/2+y,1/2+z
x,1/2-y,1/2+z
1/2+x,y,1/2+z
1/2-x,-y,1/2+z
1/2+x,-y,1/2-z
1/2-x,y,1/2-z
1/2-x,-y,1/2-z
1/2+x,y,1/2-z
1/2-x,y,1/2+z
1/2+x,-y,1/2+z
1/2+x,1/2+y,z
1/2-x,1/2-y,z
1/2+x,1/2-y,-z
1/2-x,1/2+y,-z
1/2-x,1/2-y,-z
1/2+x,1/2+y,-z
1/2-x,1/2+y,z
1/2+x,1/2-y,z
loop_
_atom_site_type_symbol
_atom_site_label
_atom_site_fract_x
_atom_site_fract_y
_atom_site_fract_z
Si Si1 0.177470 0.628446 0.396814
Si Si2 0.114137 0.500000 0.393608
Si Si3 0.726089 0.175005 0.897792
Si Si4 0.555753 0.876592 0.900611
Si Si5 0.056423 0.500000 0.776363
Si Si6 0.630619 0.270169 0.346754
O O1 0.186141 0.619587 0.500000
O O2 0.144989 0.566215 0.370133
O O3 0.230743 0.631135 0.359263
O O4 0.149651 0.699628 0.387143
O O5 0.104086 0.500000 0.500000
O O6 0.071308 0.500000 0.325057
O O7 0.750000 0.250000 0.899273
O O8 0.677203 0.181457 0.846047
O O9 0.714643 0.158026 0.000000
O O10 0.500000 0.861174 0.886045
O O11 0.572024 0.932626 0.829698
O O12 0.588503 0.810177 0.892882
O O13 0.559809 0.904031 0.000000
O O14 0.000000 0.500000 0.782719
O O15 0.615117 0.250000 0.250000
#
# Coordination Sequence:
#
# PCOD9512631 Si02
#       6
#    32  16  32  32  16  32
#     4   9  18  33  52  75 107 147 185 218 260 321
#     4  10  20  36  58  83 115 152 183 220 279 339
#     4   8  15  29  48  69  98 139 180 214 252 304
#     4  10  21  38  60  82 105 140 186 236 287 332
#     4  10  21  39  59  80 108 141 184 232 277 336
#     4  11  20  31  52  81 112 141 176 224 277 331
#
# _framework density 18.897631000000001
#
# number of rings (size 3 to 8) (size 9 to 14) (size 15 to 20)
#    0.000    2.400    0.000    4.500    0.000    5.400 
#    0.000    2.000    0.000    6.000    0.000    0.000 
#    0.000    0.000    0.000    0.000    0.000    0.000 
#
# Total GULP energy -222798.314468 kJ/mol
# GULP energy per Si atom -5569.957862 kJ/mol
# Density = 1.885462 g / cm^3
# Si number density = 18.897631 Si / 1000 Ang^3
#
#
#
# Elastic Constant Matrix: (Units=GPa)
#
#
# Indices 1 2 3 4 5 6 
#
# 1 66.7978 38.1342 18.9393 0.0000 0.0000 0.0000
# 2 38.1342 68.5420 8.2161 0.0000 0.0000 0.0000
# 3 18.9393 8.2161 60.9161 0.0000 0.0000 0.0000
# 4 0.0000 0.0000 0.0000 5.5187 0.0000 0.0000
# 5 0.0000 0.0000 0.0000 0.0000 26.8330 0.0000
# 6 0.0000 0.0000 0.0000 0.0000 0.0000 12.4142
#
#
#
# Elastic Compliance Matrix: (Units=1/GPa)
#
#
# Indices 1 2 3 4 5 6 
#
# 1 0.023732 -0.012522 -0.005690 0.000000 0.000000 0.000000
# 2 -0.012522 0.021436 0.001002 0.000000 0.000000 0.000000
# 3 -0.005690 0.001002 0.018050 0.000000 0.000000 0.000000
# 4 0.000000 0.000000 0.000000 0.181203 0.000000 0.000000
# 5 0.000000 0.000000 0.000000 0.000000 0.037268 0.000000
# 6 0.000000 0.000000 0.000000 0.000000 0.000000 0.080553
#
#
# Mechanical properties :
#
#
# Convention : Reuss Voigt Hill
#
# Bulk Modulus (GPa) = 34.72316 36.31502 35.51909
# Shear Modulus (GPa) = 12.30739 17.68427 14.99583
#
# Velocity S-wave (km/s) = 2.55476 3.06239 2.82002
# Velocity P-wave (km/s) = 5.20736 5.63584 5.42584
#
# Compressibility (1/GPa) = 0.02879922
#
# Stress axis : x y z
#
# Youngs Moduli (GPa) = 42.13667 46.65025 55.40210
#
# Poissons Ratio (x) = 0.58414 0.31522
# Poissons Ratio (y) = 0.52762 -0.05551
# Poissons Ratio (z) = 0.23974 -0.04674
#
# Static dielectric constant tensor:
#      x y z
#    x 1.675840 0.000000 0.000000 
#    y 0.000000 1.751880 0.000000 
#    z 0.000000 0.000000 1.673600 
# 
# From -- ./inp_files/19598.got.cif
#   From: 2010.05.17/outbox.cif.g08.bks.cpg/sg69_10_cif.got.tgz:19598.got - 2010.06.03 19:29:58.
