data_PCOD9512943
_publ_section_title
;
Structure prediction by ZEFSAII (Michael W. Deem and Ramdas Pophale) SiO2 
 PCOD9512943
Probable space group: F M M M
;
_chemical_formula_sum "Si O2"
_cell_formula_units_Z 144
_cell_length_a 28.019097
_cell_length_b 8.351585
_cell_length_c 29.061825
_cell_angle_alpha 90.000000
_cell_angle_beta 90.000000
_cell_angle_gamma 90.000000
_cell_volume 6800.579526
_symmetry_space_group_name_H-M "F M M M"
_symmetry_group_IT_number 69
_symmetry_cell_setting 'orthorhombic'
loop_
_space_group_symop_operation_xyz
x,y,z
-x,-y,z
x,-y,-z
-x,y,-z
-x,-y,-z
x,y,-z
-x,y,z
x,-y,z
x,1/2+y,1/2+z
-x,1/2-y,1/2+z
x,1/2-y,1/2-z
-x,1/2+y,1/2-z
-x,1/2-y,1/2-z
x,1/2+y,1/2-z
-x,1/2+y,1/2+z
x,1/2-y,1/2+z
1/2+x,y,1/2+z
1/2-x,-y,1/2+z
1/2+x,-y,1/2-z
1/2-x,y,1/2-z
1/2-x,-y,1/2-z
1/2+x,y,1/2-z
1/2-x,y,1/2+z
1/2+x,-y,1/2+z
1/2+x,1/2+y,z
1/2-x,1/2-y,z
1/2+x,1/2-y,-z
1/2-x,1/2+y,-z
1/2-x,1/2-y,-z
1/2+x,1/2+y,-z
1/2-x,1/2+y,z
1/2+x,1/2-y,z
loop_
_atom_site_type_symbol
_atom_site_label
_atom_site_fract_x
_atom_site_fract_y
_atom_site_fract_z
Si Si1 0.904975 0.191860 0.147004
Si Si2 0.195929 0.807532 0.549866
Si Si3 0.555696 0.807314 0.948077
Si Si4 0.803737 0.186309 0.849337
Si Si5 0.000000 0.190378 0.697976
O O1 0.913480 0.244089 0.093985
O O2 0.854605 0.252632 0.169270
O O3 0.951902 0.249485 0.173449
O O4 0.903281 0.000000 0.148263
O O5 0.172065 0.776347 0.500000
O O6 0.306837 0.500000 0.557896
O O7 0.250000 0.750000 0.543893
O O8 0.185225 0.714096 0.596479
O O9 0.500000 0.770343 0.938790
O O10 0.560609 0.000000 0.948584
O O11 0.565862 0.749274 0.000000
O O12 0.750000 0.250000 0.839777
O O13 0.800944 0.000000 0.838393
O O14 0.000000 0.250000 0.750000
O O15 0.000000 0.000000 0.695818
#
# Coordination Sequence:
#
# PCOD9512943 Si02
#       5
#    32  32  32  32  16
#     4  11  23  39  61  92 127 161 203 254 305 359
#     4   9  16  26  42  65  97 142 196 250 297 341
#     4   9  18  33  54  83 120 163 210 255 304 363
#     4  10  21  35  53  79 114 156 200 246 294 349
#     4  12  26  46  73 100 125 154 190 239 301 365
#
# _framework density 21.174665999999998
#
# number of rings (size 3 to 8) (size 9 to 14) (size 15 to 20)
#    0.000    2.000    1.111    5.000    0.000    6.222 
#    0.000    5.556    0.000    0.667    0.000    4.667 
#    0.000    0.000    0.000    0.000    0.000    0.000 
#
# Total GULP energy -200502.664013 kJ/mol
# GULP energy per Si atom -5569.518445 kJ/mol
# Density = 2.112647 g / cm^3
# Si number density = 21.174666 Si / 1000 Ang^3
#
#
#
# Elastic Constant Matrix: (Units=GPa)
#
#
# Indices 1 2 3 4 5 6 
#
# 1 232.1498 39.7629 39.3330 0.0000 0.0000 -0.0003
# 2 39.7629 27.4348 -2.3191 0.0001 0.0000 -0.0003
# 3 39.3330 -2.3191 41.0528 0.0000 0.0000 0.0000
# 4 0.0000 0.0001 0.0000 24.0312 0.0000 0.0000
# 5 0.0000 0.0000 0.0000 0.0000 -3.9530 0.0000
# 6 -0.0003 -0.0003 0.0000 0.0000 0.0000 5.3457
#
#
#
# Elastic Compliance Matrix: (Units=1/GPa)
#
#
# Indices 1 2 3 4 5 6 
#
# 1 0.007698 -0.011837 -0.008044 0.000000 0.000000 0.000000
# 2 -0.011837 0.054827 0.014438 0.000000 0.000000 0.000003
# 3 -0.008044 0.014438 0.032882 0.000000 0.000000 0.000000
# 4 0.000000 0.000000 0.000000 0.041613 0.000000 0.000000
# 5 0.000000 0.000000 0.000000 0.000000 -0.252974 0.000002
# 6 0.000000 0.000003 0.000000 0.000000 0.000002 0.187068
#
#
# Mechanical properties :
#
#
# Convention : Reuss Voigt Hill
#
# Bulk Modulus (GPa) = 11.83143 50.46567 31.14855
# Shear Modulus (GPa) = 45.38376 20.00881 32.69628
#
# Velocity S-wave (km/s) = 4.63461 3.07732 3.93380
# Velocity P-wave (km/s) = 5.85142 6.04246 5.94771
#
# Compressibility (1/GPa) = 0.08452061
#
# Stress axis : x y z
#
# Youngs Moduli (GPa) = 129.90476 18.23927 30.41209
#
# Poissons Ratio (x) = 0.21590 0.24464
# Poissons Ratio (y) = 1.53769 -0.43910
# Poissons Ratio (z) = 1.04497 -0.26334
#
# Static dielectric constant tensor:
#      x y z
#    x 1.758680 0.000000 0.000000 
#    y 0.000000 1.723070 0.000000 
#    z 0.000000 0.000000 1.844940 
# 
# From -- ./inp_files/47409.got.cif
#   From: 2010.05.17/outbox.cif.g08.bks.cpg/sg69_24_cif.got.tgz:47409.got - 2010.06.03 19:29:58.
