data_PCOD9512099
_publ_section_title
;
Structure prediction by ZEFSAII (Michael W. Deem and Ramdas Pophale) SiO2 
 PCOD9512099
Probable space group: F M M M
;
_chemical_formula_sum "Si O2"
_cell_formula_units_Z 192
_cell_length_a 29.487600
_cell_length_b 16.513761
_cell_length_c 23.615238
_cell_angle_alpha 90.000000
_cell_angle_beta 90.000000
_cell_angle_gamma 90.000000
_cell_volume 11499.467983
_symmetry_space_group_name_H-M "F M M M"
_symmetry_group_IT_number 69
_symmetry_cell_setting 'orthorhombic'
loop_
_space_group_symop_operation_xyz
x,y,z
-x,-y,z
x,-y,-z
-x,y,-z
-x,-y,-z
x,y,-z
-x,y,z
x,-y,z
x,1/2+y,1/2+z
-x,1/2-y,1/2+z
x,1/2-y,1/2-z
-x,1/2+y,1/2-z
-x,1/2-y,1/2-z
x,1/2+y,1/2-z
-x,1/2+y,1/2+z
x,1/2-y,1/2+z
1/2+x,y,1/2+z
1/2-x,-y,1/2+z
1/2+x,-y,1/2-z
1/2-x,y,1/2-z
1/2-x,-y,1/2-z
1/2+x,y,1/2-z
1/2-x,y,1/2+z
1/2+x,-y,1/2+z
1/2+x,1/2+y,z
1/2-x,1/2-y,z
1/2+x,1/2-y,-z
1/2-x,1/2+y,-z
1/2-x,1/2-y,-z
1/2+x,1/2+y,-z
1/2-x,1/2+y,z
1/2+x,1/2-y,z
loop_
_atom_site_type_symbol
_atom_site_label
_atom_site_fract_x
_atom_site_fract_y
_atom_site_fract_z
Si Si1 0.387415 0.000000 0.433261
Si Si2 0.052820 0.342146 0.746167
Si Si3 0.326416 0.842246 0.568060
Si Si4 0.449550 0.096806 0.125042
Si Si5 0.767721 0.092804 0.431109
Si Si6 0.362090 0.671873 0.568379
Si Si7 0.445173 0.000000 0.323974
O O1 0.355952 0.078051 0.422734
O O2 0.400697 0.000000 0.500000
O O3 0.427871 0.000000 0.388360
O O4 0.072353 0.250000 0.750000
O O5 0.053426 0.377476 0.809506
O O6 0.070833 0.415973 0.706651
O O7 0.000000 0.331352 0.728200
O O8 0.322467 0.832341 0.500000
O O9 0.274943 0.854145 0.588991
O O10 0.352118 0.762932 0.588659
O O11 0.500000 0.120748 0.104371
O O12 0.408487 0.137304 0.092122
O O13 0.446036 0.000000 0.120845
O O14 0.767331 0.096031 0.500000
O O15 0.817446 0.121695 0.413784
O O16 0.759845 0.000000 0.414832
O O17 0.364326 0.669871 0.500000
O O18 0.500000 0.000000 0.320275
#
# Coordination Sequence:
#
# PCOD9512099 Si02
#       7
#    16  32  32  32  32  32  16
#     4  10  20  33  50  75 109 140 165 199 257 329
#     4   9  18  34  55  75  95 125 172 224 260 292
#     4   9  17  31  47  68 102 138 169 206 253 306
#     4  10  20  35  52  71 102 136 167 210 260 303
#     4   9  15  27  47  69  97 132 170 212 255 301
#     4  10  20  30  46  75 104 134 175 215 255 309
#     4  10  20  35  56  79 102 133 175 219 263 311
#
# _framework density 16.696424
#
# number of rings (size 3 to 8) (size 9 to 14) (size 15 to 20)
#    0.000    2.500    1.667    1.000    2.333    3.500 
#    0.000    0.833    0.000    3.000    0.000    2.333 
#    0.000    0.000    0.000    0.000    0.000    0.000 
#
# Total GULP energy -267218.856338 kJ/mol
# GULP energy per Si atom -5567.059507 kJ/mol
# Density = 1.665842 g / cm^3
# Si number density = 16.696424 Si / 1000 Ang^3
#
#
#
# Elastic Constant Matrix: (Units=GPa)
#
#
# Indices 1 2 3 4 5 6 
#
# 1 97.8013 67.6147 27.7622 0.0000 0.0000 0.0000
# 2 67.6147 118.3663 27.7099 0.0000 0.0000 0.0000
# 3 27.7622 27.7099 33.0633 0.0000 0.0000 0.0000
# 4 0.0000 0.0000 0.0000 17.2102 0.0000 0.0000
# 5 0.0000 0.0000 0.0000 0.0000 -5.2586 0.0000
# 6 0.0000 0.0000 0.0000 0.0000 0.0000 -3.9312
#
#
#
# Elastic Compliance Matrix: (Units=1/GPa)
#
#
# Indices 1 2 3 4 5 6 
#
# 1 0.018581 -0.008661 -0.008343 0.000000 0.000000 0.000000
# 2 -0.008661 0.014547 -0.004920 0.000000 0.000000 0.000000
# 3 -0.008343 -0.004920 0.041374 0.000000 0.000000 0.000000
# 4 0.000000 0.000000 0.000000 0.058105 0.000000 0.000000
# 5 0.000000 0.000000 0.000000 0.000000 -0.190164 0.000000
# 6 0.000000 0.000000 0.000000 0.000000 0.000000 -0.254376
#
#
# Mechanical properties :
#
#
# Convention : Reuss Voigt Hill
#
# Bulk Modulus (GPa) = 32.62176 55.04493 43.83335
# Shear Modulus (GPa) = -19.38981 10.01368 -4.68807
#
# Velocity S-wave (km/s) = -3.41150 2.45164 -1.67747
# Velocity P-wave (km/s) = 2.01563 6.40732 4.74955
#
# Compressibility (1/GPa) = 0.03065438
#
# Stress axis : x y z
#
# Youngs Moduli (GPa) = 53.81913 68.74076 24.16990
#
# Poissons Ratio (x) = 0.59535 0.20165
# Poissons Ratio (y) = 0.46612 0.11891
# Poissons Ratio (z) = 0.44902 0.33819
#
# Static dielectric constant tensor:
#      x y z
#    x 1.558690 0.000000 0.000000 
#    y 0.000000 1.603450 0.000000 
#    z 0.000000 0.000000 1.541630 
# 
# From -- ./inp_files/19906.got.cif
#   From: 2010.05.17/outbox.cif.g08.bks.cpg/sg69_10_cif.got.tgz:19906.got - 2010.06.03 19:29:58.
