data_PCOD9512875
_publ_section_title
;
Structure prediction by ZEFSAII (Michael W. Deem and Ramdas Pophale) SiO2 
 PCOD9512875
Probable space group: F M M M
;
_chemical_formula_sum "Si O2"
_cell_formula_units_Z 168
_cell_length_a 15.010307
_cell_length_b 19.544269
_cell_length_c 28.129456
_cell_angle_alpha 90.000000
_cell_angle_beta 90.000000
_cell_angle_gamma 90.000000
_cell_volume 8252.211299
_symmetry_space_group_name_H-M "F M M M"
_symmetry_group_IT_number 69
_symmetry_cell_setting 'orthorhombic'
loop_
_space_group_symop_operation_xyz
x,y,z
-x,-y,z
x,-y,-z
-x,y,-z
-x,-y,-z
x,y,-z
-x,y,z
x,-y,z
x,1/2+y,1/2+z
-x,1/2-y,1/2+z
x,1/2-y,1/2-z
-x,1/2+y,1/2-z
-x,1/2-y,1/2-z
x,1/2+y,1/2-z
-x,1/2+y,1/2+z
x,1/2-y,1/2+z
1/2+x,y,1/2+z
1/2-x,-y,1/2+z
1/2+x,-y,1/2-z
1/2-x,y,1/2-z
1/2-x,-y,1/2-z
1/2+x,y,1/2-z
1/2-x,y,1/2+z
1/2+x,-y,1/2+z
1/2+x,1/2+y,z
1/2-x,1/2-y,z
1/2+x,1/2-y,-z
1/2-x,1/2+y,-z
1/2-x,1/2-y,-z
1/2+x,1/2+y,-z
1/2-x,1/2+y,z
1/2+x,1/2-y,z
loop_
_atom_site_type_symbol
_atom_site_label
_atom_site_fract_x
_atom_site_fract_y
_atom_site_fract_z
Si Si1 0.322797 0.421530 0.609908
Si Si2 0.891803 0.668443 0.195864
Si Si3 0.362322 0.122516 0.404531
Si Si4 0.500000 0.611611 0.443605
Si Si5 0.892538 0.327575 0.696550
Si Si6 0.500000 0.227903 0.556749
Si Si7 0.500000 0.000000 0.423439
O O1 0.298574 0.500000 0.620742
O O2 0.346407 0.379395 0.657371
O O3 0.240303 0.386689 0.582525
O O4 0.411554 0.419636 0.578642
O O5 0.866157 0.651326 0.250281
O O6 0.866924 0.748218 0.188686
O O7 0.000000 0.663154 0.191940
O O8 0.362500 0.126056 0.346971
O O9 0.413173 0.190257 0.422156
O O10 0.422580 0.059989 0.421998
O O11 0.500000 0.604518 0.500000
O O12 0.500000 0.692490 0.431053
O O13 0.000000 0.328460 0.695818
O O14 0.500000 0.219872 0.500000
#
# Coordination Sequence:
#
# PCOD9512875 Si02
#       7
#    32  32  32  16  32  16   8
#     4  12  25  41  62  95 134 173 216 251 309 390
#     4   9  19  35  58  90 124 168 217 263 306 369
#     4  11  22  40  66  93 124 168 209 262 315 377
#     4  11  26  47  68  92 127 166 206 264 326 381
#     4   9  17  35  61  88 123 167 217 262 317 364
#     4  10  23  44  71  99 121 152 210 278 333 369
#     4  10  20  42  59  84 128 158 206 248 305 374
#
# _framework density 20.358180000000001
#
# number of rings (size 3 to 8) (size 9 to 14) (size 15 to 20)
#    0.000    1.714    3.810    2.571    0.000    5.333 
#    1.714    8.571    0.000    0.000    0.000    0.000 
#    0.000    0.000    0.000    0.000    0.000    0.000 
#
# Total GULP energy -234176.375858 kJ/mol
# GULP energy per Si atom -5575.627997 kJ/mol
# Density = 2.031184 g / cm^3
# Si number density = 20.358180 Si / 1000 Ang^3
#
#
#
# Elastic Constant Matrix: (Units=GPa)
#
#
# Indices 1 2 3 4 5 6 
#
# 1 127.4594 15.5073 16.8527 0.0000 0.0000 0.0000
# 2 15.5073 57.7783 17.3824 0.0000 0.0000 0.0000
# 3 16.8527 17.3824 44.9172 0.0000 0.0000 0.0000
# 4 0.0000 0.0000 0.0000 -8.3052 0.0000 0.0000
# 5 0.0000 0.0000 0.0000 0.0000 -20.1336 0.0000
# 6 0.0000 0.0000 0.0000 0.0000 0.0000 -21.7821
#
#
#
# Elastic Compliance Matrix: (Units=1/GPa)
#
#
# Indices 1 2 3 4 5 6 
#
# 1 0.008364 -0.001472 -0.002569 0.000000 0.000000 0.000000
# 2 -0.001472 0.019847 -0.007128 0.000000 0.000000 0.000000
# 3 -0.002569 -0.007128 0.025985 0.000000 0.000000 0.000000
# 4 0.000000 0.000000 0.000000 -0.120407 0.000000 0.000000
# 5 0.000000 0.000000 0.000000 0.000000 -0.049668 0.000000
# 6 0.000000 0.000000 0.000000 0.000000 0.000000 -0.045909
#
#
# Mechanical properties :
#
#
# Convention : Reuss Voigt Hill
#
# Bulk Modulus (GPa) = 31.38831 36.62662 34.00746
# Shear Modulus (GPa) = -38.81104 1.98332 -18.41386
#
# Velocity S-wave (km/s) = -4.37098 0.98809 -3.01074
# Velocity P-wave (km/s) = 3.16583 4.39681 2.15748
#
# Compressibility (1/GPa) = 0.03185900
#
# Stress axis : x y z
#
# Youngs Moduli (GPa) = 119.55482 50.38495 38.48306
#
# Poissons Ratio (x) = 0.07418 0.09885
# Poissons Ratio (y) = 0.17601 0.27432
# Poissons Ratio (z) = 0.30708 0.35916
#
# Static dielectric constant tensor:
#      x y z
#    x 1.754030 0.000000 0.000000 
#    y 0.000000 1.691900 0.000000 
#    z 0.000000 0.000000 1.744120 
# 
# From -- ./inp_files/41000.got.cif
#   From: 2010.05.17/outbox.cif.g08.bks.cpg/sg69_21_cif.got.tgz:41000.got - 2010.06.03 19:29:58.
