data_PCOD9512046
_publ_section_title
;
Structure prediction by ZEFSAII (Michael W. Deem and Ramdas Pophale) SiO2 
 PCOD9512046
Probable space group: F M M M
;
_chemical_formula_sum "Si O2"
_cell_formula_units_Z 168
_cell_length_a 21.782616
_cell_length_b 16.840138
_cell_length_c 24.878998
_cell_angle_alpha 90.000000
_cell_angle_beta 90.000000
_cell_angle_gamma 90.000000
_cell_volume 9126.170259
_symmetry_space_group_name_H-M "F M M M"
_symmetry_group_IT_number 69
_symmetry_cell_setting 'orthorhombic'
loop_
_space_group_symop_operation_xyz
x,y,z
-x,-y,z
x,-y,-z
-x,y,-z
-x,-y,-z
x,y,-z
-x,y,z
x,-y,z
x,1/2+y,1/2+z
-x,1/2-y,1/2+z
x,1/2-y,1/2-z
-x,1/2+y,1/2-z
-x,1/2-y,1/2-z
x,1/2+y,1/2-z
-x,1/2+y,1/2+z
x,1/2-y,1/2+z
1/2+x,y,1/2+z
1/2-x,-y,1/2+z
1/2+x,-y,1/2-z
1/2-x,y,1/2-z
1/2-x,-y,1/2-z
1/2+x,y,1/2-z
1/2-x,y,1/2+z
1/2+x,-y,1/2+z
1/2+x,1/2+y,z
1/2-x,1/2-y,z
1/2+x,1/2-y,-z
1/2-x,1/2+y,-z
1/2-x,1/2-y,-z
1/2+x,1/2+y,-z
1/2-x,1/2+y,z
1/2+x,1/2-y,z
loop_
_atom_site_type_symbol
_atom_site_label
_atom_site_fract_x
_atom_site_fract_y
_atom_site_fract_z
Si Si1 0.101722 0.629970 0.866408
Si Si2 0.570385 0.187264 0.354057
Si Si3 0.779188 0.663473 0.062963
Si Si4 0.500000 0.000000 0.896824
Si Si5 0.149658 0.091492 0.938185
Si Si6 0.926965 0.589684 0.750010
O O1 0.075125 0.718573 0.859339
O O2 0.164080 0.639412 0.900041
O O3 0.053906 0.569696 0.893607
O O4 0.109568 0.599612 0.805196
O O5 0.500000 0.161999 0.362783
O O6 0.613687 0.146941 0.397600
O O7 0.587458 0.154490 0.294982
O O8 0.750000 0.750000 0.076148
O O9 0.722438 0.603400 0.068609
O O10 0.798019 0.666283 0.000000
O O11 0.132886 0.000000 0.929793
O O12 0.135675 0.113637 0.000000
O O13 0.918266 0.500000 0.728684
O O14 0.000000 0.596558 0.764232
#
# Coordination Sequence:
#
# PCOD9512046 Si02
#       6
#    32  32  32   8  32  32
#     4  12  21  39  63  89 127 164 202 257 314 376
#     4  11  22  36  62  92 119 164 210 256 311 378
#     4  10  22  42  67  89 116 165 215 253 303 378
#     4  12  24  40  63 100 136 166 211 266 342 384
#     4  10  22  41  62  89 122 156 206 265 318 372
#     4  10  19  36  59  88 126 164 205 253 313 384
#
# _framework density 18.408598999999999
#
# number of rings (size 3 to 8) (size 9 to 14) (size 15 to 20)
#    0.000    1.333    4.762    1.143    1.333    3.048 
#    0.000    2.857    0.000    2.286    0.000    0.000 
#    0.000    0.000    0.000    0.000    0.000    0.000 
#
# Total GULP energy -233933.439074 kJ/mol
# GULP energy per Si atom -5569.843787 kJ/mol
# Density = 1.836670 g / cm^3
# Si number density = 18.408599 Si / 1000 Ang^3
#
#
#
# Elastic Constant Matrix: (Units=GPa)
#
#
# Indices 1 2 3 4 5 6 
#
# 1 77.9983 39.2931 51.5732 0.0000 0.0000 0.0000
# 2 39.2931 96.4121 43.8642 0.0000 0.0000 0.0000
# 3 51.5732 43.8642 69.2172 0.0000 0.0000 0.0000
# 4 0.0000 0.0000 0.0000 11.5232 0.0000 0.0000
# 5 0.0000 0.0000 0.0000 0.0000 31.5779 0.0000
# 6 0.0000 0.0000 0.0000 0.0000 0.0000 31.9224
#
#
#
# Elastic Compliance Matrix: (Units=1/GPa)
#
#
# Indices 1 2 3 4 5 6 
#
# 1 0.025684 -0.002474 -0.017569 0.000000 0.000000 0.000000
# 2 -0.002474 0.014813 -0.007543 0.000000 0.000000 0.000000
# 3 -0.017569 -0.007543 0.032318 0.000000 0.000000 0.000000
# 4 0.000000 0.000000 0.000000 0.086781 0.000000 0.000000
# 5 0.000000 0.000000 0.000000 0.000000 0.031668 0.000000
# 6 0.000000 0.000000 0.000000 0.000000 0.000000 0.031326
#
#
# Mechanical properties :
#
#
# Convention : Reuss Voigt Hill
#
# Bulk Modulus (GPa) = 56.68483 57.00985 56.84734
# Shear Modulus (GPa) = 17.62779 22.26452 19.94616
#
# Velocity S-wave (km/s) = 3.09784 3.48151 3.29526
# Velocity P-wave (km/s) = 6.60719 6.87005 6.73990
#
# Compressibility (1/GPa) = 0.01764140
#
# Stress axis : x y z
#
# Youngs Moduli (GPa) = 38.93477 67.51039 30.94248
#
# Poissons Ratio (x) = 0.16705 0.54362
# Poissons Ratio (y) = 0.09634 0.23341
# Poissons Ratio (z) = 0.68404 0.50925
#
# Static dielectric constant tensor:
#      x y z
#    x 1.609120 0.000000 0.000000 
#    y 0.000000 1.659110 0.000000 
#    z 0.000000 0.000000 1.635180 
# 
# From -- ./inp_files/42612.got.cif
#   From: 2010.05.17/outbox.cif.g08.bks.cpg/sg69_22_cif.got.tgz:42612.got - 2010.06.03 19:29:58.
