data_PCOD9512786
_publ_section_title
;
Structure prediction by ZEFSAII (Michael W. Deem and Ramdas Pophale) SiO2 
 PCOD9512786
Probable space group: F M M M
;
_chemical_formula_sum "Si O2"
_cell_formula_units_Z 104
_cell_length_a 13.616769
_cell_length_b 16.365289
_cell_length_c 19.543315
_cell_angle_alpha 90.000000
_cell_angle_beta 90.000000
_cell_angle_gamma 90.000000
_cell_volume 4355.078435
_symmetry_space_group_name_H-M "F M M M"
_symmetry_group_IT_number 69
_symmetry_cell_setting 'orthorhombic'
loop_
_space_group_symop_operation_xyz
x,y,z
-x,-y,z
x,-y,-z
-x,y,-z
-x,-y,-z
x,y,-z
-x,y,z
x,-y,z
x,1/2+y,1/2+z
-x,1/2-y,1/2+z
x,1/2-y,1/2-z
-x,1/2+y,1/2-z
-x,1/2-y,1/2-z
x,1/2+y,1/2-z
-x,1/2+y,1/2+z
x,1/2-y,1/2+z
1/2+x,y,1/2+z
1/2-x,-y,1/2+z
1/2+x,-y,1/2-z
1/2-x,y,1/2-z
1/2-x,-y,1/2-z
1/2+x,y,1/2-z
1/2-x,y,1/2+z
1/2+x,-y,1/2+z
1/2+x,1/2+y,z
1/2-x,1/2-y,z
1/2+x,1/2-y,-z
1/2-x,1/2+y,-z
1/2-x,1/2-y,-z
1/2+x,1/2+y,-z
1/2-x,1/2+y,z
1/2+x,1/2-y,z
loop_
_atom_site_type_symbol
_atom_site_label
_atom_site_fract_x
_atom_site_fract_y
_atom_site_fract_z
Si Si1 0.180027 0.134258 0.104017
Si Si2 0.110554 0.319332 0.108737
Si Si3 0.888247 0.907056 0.750714
Si Si4 0.117829 0.500000 0.500000
O O1 0.133973 0.224227 0.098183
O O2 0.293864 0.134770 0.079814
O O3 0.178227 0.111440 0.184238
O O4 0.121853 0.070491 0.059351
O O5 0.114311 0.342662 0.189215
O O6 0.000000 0.339628 0.085023
O O7 0.000000 0.904174 0.777889
O O8 0.871850 0.000000 0.724983
#
# Coordination Sequence:
#
# PCOD9512786 Si02
#       4
#    32  32  32   8
#     4  11  23  44  67  94 138 179 218 272 324 388
#     4  10  23  42  69 100 130 169 218 276 342 396
#     4  10  20  37  67 106 138 166 212 276 341 398
#     4  12  28  46  68  96 130 184 234 262 312 394
#
# _framework density 23.880167
#
# number of rings (size 3 to 8) (size 9 to 14) (size 15 to 20)
#    0.000    1.538    1.538    2.769    2.154    8.615 
#    0.000    9.231    0.000    0.000    0.000    0.000 
#    0.000    0.000    0.000    0.000    0.000    0.000 
#
# Total GULP energy -144910.456333 kJ/mol
# GULP energy per Si atom -5573.479090 kJ/mol
# Density = 2.382581 g / cm^3
# Si number density = 23.880167 Si / 1000 Ang^3
#
#
#
# Elastic Constant Matrix: (Units=GPa)
#
#
# Indices 1 2 3 4 5 6 
#
# 1 172.1190 24.2091 9.8029 0.0000 0.0000 0.0000
# 2 24.2091 98.2914 28.0066 0.0000 0.0000 0.0000
# 3 9.8029 28.0066 109.0068 0.0000 0.0000 0.0000
# 4 0.0000 0.0000 0.0000 5444.8171 0.0000 0.0000
# 5 0.0000 0.0000 0.0000 0.0000 -98.5702 0.0000
# 6 0.0000 0.0000 0.0000 0.0000 0.0000 -5.9636
#
#
#
# Elastic Compliance Matrix: (Units=1/GPa)
#
#
# Indices 1 2 3 4 5 6 
#
# 1 0.006021 -0.001434 -0.000173 0.000000 0.000000 0.000000
# 2 -0.001434 0.011319 -0.002779 0.000000 0.000000 0.000000
# 3 -0.000173 -0.002779 0.009903 0.000000 0.000000 0.000000
# 4 0.000000 0.000000 0.000000 0.000184 0.000000 0.000000
# 5 0.000000 0.000000 0.000000 0.000000 -0.010145 0.000000
# 6 0.000000 0.000000 0.000000 0.000000 0.000000 -0.167683
#
#
# Mechanical properties :
#
#
# Convention : Reuss Voigt Hill
#
# Bulk Modulus (GPa) = 54.13733 55.93939 55.03836
# Shear Modulus (GPa) = -36.90822 1089.21655 526.15417
#
# Velocity S-wave (km/s) = -3.93563 21.38008 14.85965
# Velocity P-wave (km/s) = 1.43786 25.15856 17.81882
#
# Compressibility (1/GPa) = 0.01847154
#
# Stress axis : x y z
#
# Youngs Moduli (GPa) = 166.07277 88.34831 100.97594
#
# Poissons Ratio (x) = 0.12667 0.01748
# Poissons Ratio (y) = 0.23811 0.28063
# Poissons Ratio (z) = 0.02875 0.24553
#
# Static dielectric constant tensor:
#      x y z
#    x 2.020220 0.000000 0.000000 
#    y 0.000000 1.822990 0.000000 
#    z 0.000000 0.000000 1.833000 
# 
# From -- ./inp_files/17222.got.cif
#   From: 2010.05.17/outbox.cif.g08.bks.cpg/sg69_9_cif.got.tgz:17222.got - 2010.06.03 19:29:58.
