data_PCOD9512989
_publ_section_title
;
Structure prediction by ZEFSAII (Michael W. Deem and Ramdas Pophale) SiO2 
 PCOD9512989
Probable space group: F M M M
;
_chemical_formula_sum "Si O2"
_cell_formula_units_Z 192
_cell_length_a 26.286664
_cell_length_b 16.324033
_cell_length_c 25.501009
_cell_angle_alpha 90.000000
_cell_angle_beta 90.000000
_cell_angle_gamma 90.000000
_cell_volume 10942.594417
_symmetry_space_group_name_H-M "F M M M"
_symmetry_group_IT_number 69
_symmetry_cell_setting 'orthorhombic'
loop_
_space_group_symop_operation_xyz
x,y,z
-x,-y,z
x,-y,-z
-x,y,-z
-x,-y,-z
x,y,-z
-x,y,z
x,-y,z
x,1/2+y,1/2+z
-x,1/2-y,1/2+z
x,1/2-y,1/2-z
-x,1/2+y,1/2-z
-x,1/2-y,1/2-z
x,1/2+y,1/2-z
-x,1/2+y,1/2+z
x,1/2-y,1/2+z
1/2+x,y,1/2+z
1/2-x,-y,1/2+z
1/2+x,-y,1/2-z
1/2-x,y,1/2-z
1/2-x,-y,1/2-z
1/2+x,y,1/2-z
1/2-x,y,1/2+z
1/2+x,-y,1/2+z
1/2+x,1/2+y,z
1/2-x,1/2-y,z
1/2+x,1/2-y,-z
1/2-x,1/2+y,-z
1/2-x,1/2-y,-z
1/2+x,1/2+y,-z
1/2-x,1/2+y,z
1/2+x,1/2-y,z
loop_
_atom_site_type_symbol
_atom_site_label
_atom_site_fract_x
_atom_site_fract_y
_atom_site_fract_z
Si Si1 0.058867 0.500000 0.212694
Si Si2 0.194569 0.791114 0.940318
Si Si3 0.185842 0.402950 0.342334
Si Si4 0.647560 0.379470 0.441021
Si Si5 0.119794 0.841027 0.252741
Si Si6 0.196625 0.908010 0.669329
Si Si7 0.939997 0.500000 0.086394
O O1 0.083072 0.583440 0.234418
O O2 0.064399 0.500000 0.149474
O O3 0.000000 0.500000 0.225641
O O4 0.250000 0.750000 0.928821
O O5 0.182677 0.860015 0.898484
O O6 0.152929 0.718475 0.937721
O O7 0.197259 0.821572 0.000000
O O8 0.176681 0.500000 0.345059
O O9 0.148512 0.361914 0.300950
O O10 0.244174 0.391122 0.323939
O O11 0.665875 0.401145 0.500000
O O12 0.681711 0.408618 0.392079
O O13 0.592545 0.421648 0.433635
O O14 0.097178 0.750000 0.250000
O O15 0.161790 0.845162 0.299294
O O16 0.186061 0.000000 0.690398
O O17 0.000000 0.500000 0.072345
#
# Coordination Sequence:
#
# PCOD9512989 Si02
#       7
#    16  32  32  32  32  32  16
#     4  11  24  45  62  84 119 148 189 251 312 362
#     4  10  21  36  54  82 123 160 193 237 287 347
#     4  11  23  35  57  84 117 159 203 236 281 346
#     4  11  20  33  56  82 116 159 195 233 289 349
#     4  12  23  38  62  85 114 154 194 243 298 357
#     4  11  20  35  52  82 122 154 192 235 285 348
#     4  11  23  40  62  84 115 156 197 250 304 360
#
# _framework density 17.546112999999998
#
# number of rings (size 3 to 8) (size 9 to 14) (size 15 to 20)
#    0.000    1.000    5.833    1.750    0.000    3.333 
#    0.000    1.667    0.000    0.000    0.000    0.000 
#    0.000    0.667    0.000    0.000    0.000    0.000 
#
# Total GULP energy -267951.734716 kJ/mol
# GULP energy per Si atom -5582.327807 kJ/mol
# Density = 1.750618 g / cm^3
# Si number density = 17.546113 Si / 1000 Ang^3
#
#
#
# Elastic Constant Matrix: (Units=GPa)
#
#
# Indices 1 2 3 4 5 6 
#
# 1 78.5520 47.0237 23.3408 0.0000 0.0000 0.0000
# 2 47.0237 116.8093 43.1372 0.0000 0.0000 0.0000
# 3 23.3408 43.1372 97.9181 0.0000 0.0000 0.0000
# 4 0.0000 0.0000 0.0000 30.3514 0.0000 0.0000
# 5 0.0000 0.0000 0.0000 0.0000 15.5416 0.0000
# 6 0.0000 0.0000 0.0000 0.0000 0.0000 9.9749
#
#
#
# Elastic Compliance Matrix: (Units=1/GPa)
#
#
# Indices 1 2 3 4 5 6 
#
# 1 0.016896 -0.006347 -0.001231 0.000000 0.000000 0.000000
# 2 -0.006347 0.012609 -0.004042 0.000000 0.000000 0.000000
# 3 -0.001231 -0.004042 0.012287 0.000000 0.000000 0.000000
# 4 0.000000 0.000000 0.000000 0.032947 0.000000 0.000000
# 5 0.000000 0.000000 0.000000 0.000000 0.064343 0.000000
# 6 0.000000 0.000000 0.000000 0.000000 0.000000 0.100252
#
#
# Mechanical properties :
#
#
# Convention : Reuss Voigt Hill
#
# Bulk Modulus (GPa) = 53.90532 57.80920 55.85726
# Shear Modulus (GPa) = 18.60411 23.15875 20.88143
#
# Velocity S-wave (km/s) = 3.25975 3.63696 3.45351
# Velocity P-wave (km/s) = 6.70498 7.11724 6.91419
#
# Compressibility (1/GPa) = 0.01855104
#
# Stress axis : x y z
#
# Youngs Moduli (GPa) = 59.18627 79.31064 81.38886
#
# Poissons Ratio (x) = 0.50338 0.10022
# Poissons Ratio (y) = 0.37565 0.32895
# Poissons Ratio (z) = 0.07288 0.32055
#
# Static dielectric constant tensor:
#      x y z
#    x 1.588590 0.000000 0.000000 
#    y 0.000000 1.621290 0.000000 
#    z 0.000000 0.000000 1.616510 
# 
# From -- ./inp_files/38393.got.cif
#   From: 2010.05.17/outbox.cif.g08.bks.cpg/sg69_20_cif.got.tgz:38393.got - 2010.06.03 19:29:58.
