data_PCOD9512931
_publ_section_title
;
Structure prediction by ZEFSAII (Michael W. Deem and Ramdas Pophale) SiO2 
 PCOD9512931
Probable space group: F M M M
;
_chemical_formula_sum "Si O2"
_cell_formula_units_Z 176
_cell_length_a 13.245834
_cell_length_b 24.712146
_cell_length_c 31.748713
_cell_angle_alpha 90.000000
_cell_angle_beta 90.000000
_cell_angle_gamma 90.000000
_cell_volume 10392.400955
_symmetry_space_group_name_H-M "F M M M"
_symmetry_group_IT_number 69
_symmetry_cell_setting 'orthorhombic'
loop_
_space_group_symop_operation_xyz
x,y,z
-x,-y,z
x,-y,-z
-x,y,-z
-x,-y,-z
x,y,-z
-x,y,z
x,-y,z
x,1/2+y,1/2+z
-x,1/2-y,1/2+z
x,1/2-y,1/2-z
-x,1/2+y,1/2-z
-x,1/2-y,1/2-z
x,1/2+y,1/2-z
-x,1/2+y,1/2+z
x,1/2-y,1/2+z
1/2+x,y,1/2+z
1/2-x,-y,1/2+z
1/2+x,-y,1/2-z
1/2-x,y,1/2-z
1/2-x,-y,1/2-z
1/2+x,y,1/2-z
1/2-x,y,1/2+z
1/2+x,-y,1/2+z
1/2+x,1/2+y,z
1/2-x,1/2-y,z
1/2+x,1/2-y,-z
1/2-x,1/2+y,-z
1/2-x,1/2-y,-z
1/2+x,1/2+y,-z
1/2-x,1/2+y,z
1/2+x,1/2-y,z
loop_
_atom_site_type_symbol
_atom_site_label
_atom_site_fract_x
_atom_site_fract_y
_atom_site_fract_z
Si Si1 0.877595 0.059870 0.584501
Si Si2 0.379096 0.673929 0.548687
Si Si3 0.122827 0.439708 0.817427
Si Si4 0.122103 0.333438 0.769580
Si Si5 0.750000 0.250000 0.109077
Si Si6 0.120337 0.219764 0.816252
O O1 0.847594 0.111809 0.557686
O O2 0.848978 0.067908 0.633516
O O3 0.000000 0.058491 0.583318
O O4 0.842578 0.000000 0.570845
O O5 0.360253 0.687651 0.500000
O O6 0.500000 0.677818 0.556311
O O7 0.319974 0.712622 0.580243
O O8 0.155740 0.500000 0.804059
O O9 0.157726 0.389584 0.789420
O O10 0.000000 0.439589 0.816594
O O11 0.138483 0.280907 0.798957
O O12 0.154519 0.318773 0.722124
O O13 0.000000 0.337210 0.766983
O O14 0.820499 0.214913 0.140350
O O15 0.000000 0.213556 0.822142
#
# Coordination Sequence:
#
# PCOD9512931 Si02
#       6
#    32  32  32  32  16  32
#     4   8  14  26  46  71  95 120 150 183 227 283
#     4  10  21  35  50  70  96 122 149 188 237 289
#     4   8  12  19  36  62  89 116 145 179 220 266
#     4   8  14  26  41  61  90 119 153 192 225 259
#     4  12  21  31  48  68  92 124 158 191 233 282
#     4   9  18  30  45  64  87 119 157 196 227 257
#
# _framework density 16.935451
#
# number of rings (size 3 to 8) (size 9 to 14) (size 15 to 20)
#    0.000    3.091    0.000    4.091    0.000    4.727 
#    0.000    1.818    0.000    1.091    0.000    3.818 
#    0.000    2.182    0.000    8.909    0.000    1.455 
#
# Total GULP energy -245274.434955 kJ/mol
# GULP energy per Si atom -5574.418976 kJ/mol
# Density = 1.689691 g / cm^3
# Si number density = 16.935451 Si / 1000 Ang^3
#
#
#
# Elastic Constant Matrix: (Units=GPa)
#
#
# Indices 1 2 3 4 5 6 
#
# 1 43.8332 11.9827 35.2750 0.0000 0.0000 0.0000
# 2 11.9827 66.3181 48.0954 0.0000 0.0000 0.0000
# 3 35.2750 48.0954 102.3135 0.0000 0.0000 0.0000
# 4 0.0000 0.0000 0.0000 25.5016 0.0000 0.0000
# 5 0.0000 0.0000 0.0000 0.0000 27.2346 0.0000
# 6 0.0000 0.0000 0.0000 0.0000 0.0000 10.3818
#
#
#
# Elastic Compliance Matrix: (Units=1/GPa)
#
#
# Indices 1 2 3 4 5 6 
#
# 1 0.032064 0.003374 -0.012641 0.000000 0.000000 0.000000
# 2 0.003374 0.023233 -0.012085 0.000000 0.000000 0.000000
# 3 -0.012641 -0.012085 0.019813 0.000000 0.000000 0.000000
# 4 0.000000 0.000000 0.000000 0.039213 0.000000 0.000000
# 5 0.000000 0.000000 0.000000 0.000000 0.036718 0.000000
# 6 0.000000 0.000000 0.000000 0.000000 0.000000 0.096323
#
#
# Mechanical properties :
#
#
# Convention : Reuss Voigt Hill
#
# Bulk Modulus (GPa) = 30.85744 44.79679 37.82712
# Shear Modulus (GPa) = 16.61845 20.43104 18.52474
#
# Velocity S-wave (km/s) = 3.13594 3.47710 3.31092
# Velocity P-wave (km/s) = 5.60110 6.52911 6.08283
#
# Compressibility (1/GPa) = 0.03240709
#
# Stress axis : x y z
#
# Youngs Moduli (GPa) = 31.18734 43.04153 50.47207
#
# Poissons Ratio (x) = -0.14522 0.63802
# Poissons Ratio (y) = -0.10523 0.60994
# Poissons Ratio (z) = 0.39424 0.52015
#
# Static dielectric constant tensor:
#      x y z
#    x 1.601280 0.000000 0.000000 
#    y 0.000000 1.582320 0.000000 
#    z 0.000000 0.000000 1.572300 
# 
# From -- ./inp_files/45834.got.cif
#   From: 2010.05.17/outbox.cif.g08.bks.cpg/sg69_23_cif.got.tgz:45834.got - 2010.06.03 19:29:58.
