data_PCOD9512007
_publ_section_title
;
Structure prediction by ZEFSAII (Michael W. Deem and Ramdas Pophale) SiO2 
 PCOD9512007
Probable space group: F M M M
;
_chemical_formula_sum "Si O2"
_cell_formula_units_Z 176
_cell_length_a 19.028020
_cell_length_b 18.039462
_cell_length_c 27.267918
_cell_angle_alpha 90.000000
_cell_angle_beta 90.000000
_cell_angle_gamma 90.000000
_cell_volume 9359.855839
_symmetry_space_group_name_H-M "F M M M"
_symmetry_group_IT_number 69
_symmetry_cell_setting 'orthorhombic'
loop_
_space_group_symop_operation_xyz
x,y,z
-x,-y,z
x,-y,-z
-x,y,-z
-x,-y,-z
x,y,-z
-x,y,z
x,-y,z
x,1/2+y,1/2+z
-x,1/2-y,1/2+z
x,1/2-y,1/2-z
-x,1/2+y,1/2-z
-x,1/2-y,1/2-z
x,1/2+y,1/2-z
-x,1/2+y,1/2+z
x,1/2-y,1/2+z
1/2+x,y,1/2+z
1/2-x,-y,1/2+z
1/2+x,-y,1/2-z
1/2-x,y,1/2-z
1/2-x,-y,1/2-z
1/2+x,y,1/2-z
1/2-x,y,1/2+z
1/2+x,-y,1/2+z
1/2+x,1/2+y,z
1/2-x,1/2-y,z
1/2+x,1/2-y,-z
1/2-x,1/2+y,-z
1/2-x,1/2-y,-z
1/2+x,1/2+y,-z
1/2-x,1/2+y,z
1/2+x,1/2-y,z
loop_
_atom_site_type_symbol
_atom_site_label
_atom_site_fract_x
_atom_site_fract_y
_atom_site_fract_z
Si Si1 0.341148 0.630615 0.619655
Si Si2 0.921289 0.913146 0.186379
Si Si3 0.334206 0.762159 0.552051
Si Si4 0.171791 0.663233 0.234760
Si Si5 0.584332 0.500000 0.441384
Si Si6 0.819159 0.414675 0.406276
O O1 0.358585 0.710574 0.596082
O O2 0.343271 0.642590 0.678206
O O3 0.387446 0.570326 0.590220
O O4 0.260934 0.605534 0.607819
O O5 0.887796 0.872780 0.232227
O O6 0.868257 0.906217 0.141113
O O7 0.000000 0.886848 0.174481
O O8 0.924869 0.000000 0.197812
O O9 0.363240 0.735594 0.500000
O O10 0.250000 0.750000 0.551183
O O11 0.344702 0.849523 0.558151
O O12 0.171820 0.750000 0.250000
O O13 0.250000 0.635305 0.250000
O O14 0.500000 0.500000 0.441737
O O15 0.607250 0.500000 0.500000
O O16 0.822401 0.500000 0.423589
#
# Coordination Sequence:
#
# PCOD9512007 Si02
#       6
#    32  32  32  32  16  32
#     4  11  21  38  65  88 122 171 214 259 317 387
#     4  10  22  38  57  84 122 160 198 248 309 372
#     4   9  19  34  56  88 121 154 204 263 313 369
#     4  11  23  37  62  91 126 166 210 264 313 377
#     4  11  26  46  67  98 137 171 214 275 330 382
#     4  10  19  35  59  90 122 158 209 259 314 375
#
# _framework density 18.803708
#
# number of rings (size 3 to 8) (size 9 to 14) (size 15 to 20)
#    0.000    1.727    2.727    1.636    6.364    2.545 
#    0.000    2.727    0.000    1.636    0.000    2.545 
#    0.000    0.000    0.000    0.000    0.000    0.000 
#
# Total GULP energy -245167.139555 kJ/mol
# GULP energy per Si atom -5571.980444 kJ/mol
# Density = 1.876091 g / cm^3
# Si number density = 18.803708 Si / 1000 Ang^3
#
#
#
# Elastic Constant Matrix: (Units=GPa)
#
#
# Indices 1 2 3 4 5 6 
#
# 1 86.1235 23.9059 32.7612 0.0000 0.0000 0.0000
# 2 23.9059 99.1054 64.4450 0.0000 0.0000 0.0000
# 3 32.7612 64.4450 111.7907 0.0000 0.0000 0.0000
# 4 0.0000 0.0000 0.0000 26.8113 0.0000 0.0000
# 5 0.0000 0.0000 0.0000 0.0000 -55.0379 0.0000
# 6 0.0000 0.0000 0.0000 0.0000 0.0000 15.0370
#
#
#
# Elastic Compliance Matrix: (Units=1/GPa)
#
#
# Indices 1 2 3 4 5 6 
#
# 1 0.013138 -0.001064 -0.003237 0.000000 0.000000 0.000000
# 2 -0.001064 0.016227 -0.009043 0.000000 0.000000 0.000000
# 3 -0.003237 -0.009043 0.015107 0.000000 0.000000 0.000000
# 4 0.000000 0.000000 0.000000 0.037298 0.000000 0.000000
# 5 0.000000 0.000000 0.000000 0.000000 -0.018169 0.000000
# 6 0.000000 0.000000 0.000000 0.000000 0.000000 0.066503
#
#
# Mechanical properties :
#
#
# Convention : Reuss Voigt Hill
#
# Bulk Modulus (GPa) = 56.22903 59.91597 58.07250
# Shear Modulus (GPa) = 30.72795 9.08925 19.90860
#
# Velocity S-wave (km/s) = 4.04684 2.20097 3.25739
# Velocity P-wave (km/s) = 7.19750 6.19613 6.71551
#
# Compressibility (1/GPa) = 0.01778441
#
# Stress axis : x y z
#
# Youngs Moduli (GPa) = 76.11587 61.62495 66.19581
#
# Poissons Ratio (x) = 0.06560 0.21424
# Poissons Ratio (y) = 0.08102 0.59859
# Poissons Ratio (z) = 0.24635 0.55725
#
# Static dielectric constant tensor:
#      x y z
#    x 1.642540 0.000000 0.000000 
#    y 0.000000 1.741400 0.000000 
#    z 0.000000 0.000000 1.680330 
# 
# From -- ./inp_files/26771.got.cif
#   From: 2010.05.17/outbox.cif.g08.bks.cpg/sg69_14_cif.got.tgz:26771.got - 2010.06.03 19:29:58.
