data_PCOD9512215
_publ_section_title
;
Structure prediction by ZEFSAII (Michael W. Deem and Ramdas Pophale) SiO2 
 PCOD9512215
Probable space group: F M M M
;
_chemical_formula_sum "Si O2"
_cell_formula_units_Z 136
_cell_length_a 18.312382
_cell_length_b 15.484556
_cell_length_c 20.438354
_cell_angle_alpha 90.000000
_cell_angle_beta 90.000000
_cell_angle_gamma 90.000000
_cell_volume 5795.481359
_symmetry_space_group_name_H-M "F M M M"
_symmetry_group_IT_number 69
_symmetry_cell_setting 'orthorhombic'
loop_
_space_group_symop_operation_xyz
x,y,z
-x,-y,z
x,-y,-z
-x,y,-z
-x,-y,-z
x,y,-z
-x,y,z
x,-y,z
x,1/2+y,1/2+z
-x,1/2-y,1/2+z
x,1/2-y,1/2-z
-x,1/2+y,1/2-z
-x,1/2-y,1/2-z
x,1/2+y,1/2-z
-x,1/2+y,1/2+z
x,1/2-y,1/2+z
1/2+x,y,1/2+z
1/2-x,-y,1/2+z
1/2+x,-y,1/2-z
1/2-x,y,1/2-z
1/2-x,-y,1/2-z
1/2+x,y,1/2-z
1/2-x,y,1/2+z
1/2+x,-y,1/2+z
1/2+x,1/2+y,z
1/2-x,1/2-y,z
1/2+x,1/2-y,-z
1/2-x,1/2+y,-z
1/2-x,1/2-y,-z
1/2+x,1/2+y,-z
1/2-x,1/2+y,z
1/2+x,1/2-y,z
loop_
_atom_site_type_symbol
_atom_site_label
_atom_site_fract_x
_atom_site_fract_y
_atom_site_fract_z
Si Si1 0.391405 0.167238 0.789626
Si Si2 0.618703 0.104818 0.927191
Si Si3 0.750000 0.250000 0.750000
Si Si4 0.710482 0.395531 0.926845
Si Si5 0.420448 0.401618 0.157672
O O1 0.421381 0.250000 0.750000
O O2 0.415454 0.146092 0.862298
O O3 0.304757 0.188155 0.789341
O O4 0.408397 0.095811 0.735576
O O5 0.704812 0.130193 0.924778
O O6 0.613676 0.000000 0.921849
O O7 0.591506 0.128140 0.000000
O O8 0.714122 0.500000 0.919162
O O9 0.651238 0.360084 0.875355
O O10 0.682980 0.376281 0.000000
O O11 0.500000 0.362764 0.142459
O O12 0.422952 0.500000 0.133515
#
# Coordination Sequence:
#
# PCOD9512215 Si02
#       5
#    32  32   8  32  32
#     4  10  20  34  51  73 113 138 176 220 269 330
#     4   9  17  32  57  84 107 138 180 229 284 327
#     4   8  20  32  50  76 108 140 180 210 272 352
#     4   8  15  28  47  74 104 131 166 218 275 322
#     4  10  20  33  52  76 101 141 189 227 269 317
#
# _framework density 23.466557999999999
#
# number of rings (size 3 to 8) (size 9 to 14) (size 15 to 20)
#    0.706    2.118    0.000    3.529    0.000    0.941 
#    0.000    8.824    0.000    0.706    0.000    3.294 
#    0.000    0.000    0.000    0.000    0.000    0.000 
#
# Total GULP energy -189361.696748 kJ/mol
# GULP energy per Si atom -5569.461669 kJ/mol
# Density = 2.341315 g / cm^3
# Si number density = 23.466558 Si / 1000 Ang^3
#
#
#
# Elastic Constant Matrix: (Units=GPa)
#
#
# Indices 1 2 3 4 5 6 
#
# 1 120.0514 10.5179 37.0774 0.0000 0.0000 0.0000
# 2 10.5179 35.4248 17.3514 0.0000 0.0000 0.0000
# 3 37.0774 17.3514 188.0868 0.0000 0.0000 0.0000
# 4 0.0000 0.0000 0.0000 26.3582 0.0000 0.0000
# 5 0.0000 0.0000 0.0000 0.0000 -23.9144 0.0000
# 6 0.0000 0.0000 0.0000 0.0000 0.0000 -118.2240
#
#
#
# Elastic Compliance Matrix: (Units=1/GPa)
#
#
# Indices 1 2 3 4 5 6 
#
# 1 0.008989 -0.001886 -0.001598 0.000000 0.000000 0.000000
# 2 -0.001886 0.029960 -0.002392 0.000000 0.000000 0.000000
# 3 -0.001598 -0.002392 0.005852 0.000000 0.000000 0.000000
# 4 0.000000 0.000000 0.000000 0.037939 0.000000 0.000000
# 5 0.000000 0.000000 0.000000 0.000000 -0.041816 0.000000
# 6 0.000000 0.000000 0.000000 0.000000 0.000000 -0.008459
#
#
# Mechanical properties :
#
#
# Convention : Reuss Voigt Hill
#
# Bulk Modulus (GPa) = 30.25798 52.60628 41.43213
# Shear Modulus (GPa) = 90.52324 -4.58162 42.97081
#
# Velocity S-wave (km/s) = 6.21765 -1.39880 4.28384
# Velocity P-wave (km/s) = 8.02917 4.45616 6.49327
#
# Compressibility (1/GPa) = 0.03304913
#
# Stress axis : x y z
#
# Youngs Moduli (GPa) = 111.25303 33.37731 170.87112
#
# Poissons Ratio (x) = 0.06295 0.27304
# Poissons Ratio (y) = 0.20983 0.40874
# Poissons Ratio (z) = 0.17777 0.07984
#
# Static dielectric constant tensor:
#      x y z
#    x 1.912760 0.000000 0.000000 
#    y 0.000000 2.006690 0.000000 
#    z 0.000000 0.000000 1.885000 
# 
# From -- ./inp_files/25599.got.cif
#   From: 2010.05.17/outbox.cif.g08.bks.cpg/sg69_13_cif.got.tgz:25599.got - 2010.06.03 19:29:58.
