data_PCOD9512543
_publ_section_title
;
Structure prediction by ZEFSAII (Michael W. Deem and Ramdas Pophale) SiO2 
 PCOD9512543
Probable space group: F M M M
;
_chemical_formula_sum "Si O2"
_cell_formula_units_Z 132
_cell_length_a 25.464239
_cell_length_b 8.851495
_cell_length_c 34.108547
_cell_angle_alpha 90.000000
_cell_angle_beta 90.000000
_cell_angle_gamma 90.000000
_cell_volume 7687.949985
_symmetry_space_group_name_H-M "F M M M"
_symmetry_group_IT_number 69
_symmetry_cell_setting 'orthorhombic'
loop_
_space_group_symop_operation_xyz
x,y,z
-x,-y,z
x,-y,-z
-x,y,-z
-x,-y,-z
x,y,-z
-x,y,z
x,-y,z
x,1/2+y,1/2+z
-x,1/2-y,1/2+z
x,1/2-y,1/2-z
-x,1/2+y,1/2-z
-x,1/2-y,1/2-z
x,1/2+y,1/2-z
-x,1/2+y,1/2+z
x,1/2-y,1/2+z
1/2+x,y,1/2+z
1/2-x,-y,1/2+z
1/2+x,-y,1/2-z
1/2-x,y,1/2-z
1/2-x,-y,1/2-z
1/2+x,y,1/2-z
1/2-x,y,1/2+z
1/2+x,-y,1/2+z
1/2+x,1/2+y,z
1/2-x,1/2-y,z
1/2+x,1/2-y,-z
1/2-x,1/2+y,-z
1/2-x,1/2-y,-z
1/2+x,1/2+y,-z
1/2-x,1/2+y,z
1/2+x,1/2-y,z
loop_
_atom_site_type_symbol
_atom_site_label
_atom_site_fract_x
_atom_site_fract_y
_atom_site_fract_z
Si Si1 0.500000 0.000000 0.500000
Si Si2 0.563422 0.174084 0.290669
Si Si3 0.405111 0.320086 0.627696
Si Si4 0.500000 0.832432 0.417844
Si Si5 0.692133 0.680692 0.000000
Si Si6 0.691407 0.318021 0.914089
O O1 0.500000 0.129595 0.464261
O O2 0.500000 0.174659 0.290472
O O3 0.581066 0.250000 0.250000
O O4 0.580937 0.265902 0.328683
O O5 0.580900 0.000000 0.293132
O O6 0.405289 0.500000 0.625243
O O7 0.448703 0.252560 0.597995
O O8 0.348687 0.253230 0.616174
O O9 0.500000 0.000000 0.398412
O O10 0.750000 0.750000 0.000000
O O11 0.668984 0.721553 0.957845
O O12 0.696314 0.500000 0.000000
O O13 0.693548 0.500000 0.910744
O O14 0.750000 0.250000 0.911050
#
# Coordination Sequence:
#
# PCOD9512543 Si02
#       6
#     4  32  32  16  16  32
#     4   8  24  40  62  76 120 156 210 236 296 362
#     4  10  20  35  58  87 118 151 186 236 294 350
#     4  12  23  36  58  87 119 155 195 243 292 353
#     4  10  21  41  58  80 108 155 199 240 289 344
#     4   8  16  31  52  75 101 136 182 239 289 331
#     4  10  20  36  56  82 112 151 197 246 297 346
#
# _framework density 17.169727000000002
#
# number of rings (size 3 to 8) (size 9 to 14) (size 15 to 20)
#    0.364    1.455    1.212    4.000    0.000    2.909 
#    2.182    2.424    0.000    0.727    0.000    5.091 
#    0.000    0.000    0.000    0.000    0.000    0.000 
#
# Total GULP energy -183727.714191 kJ/mol
# GULP energy per Si atom -5567.506491 kJ/mol
# Density = 1.713065 g / cm^3
# Si number density = 17.169727 Si / 1000 Ang^3
#
#
#
# Elastic Constant Matrix: (Units=GPa)
#
#
# Indices 1 2 3 4 5 6 
#
# 1 70.2882 46.8188 42.9385 0.0000 0.0000 0.0009
# 2 46.8188 133.3665 58.2744 0.0002 0.0001 0.0019
# 3 42.9385 58.2744 137.9128 0.0000 0.0000 0.0000
# 4 0.0000 0.0002 0.0000 26.5441 0.0000 -0.0001
# 5 0.0000 0.0001 0.0000 0.0000 17.4028 -0.0001
# 6 0.0009 0.0019 0.0000 -0.0001 -0.0001 23.6909
#
#
#
# Elastic Compliance Matrix: (Units=1/GPa)
#
#
# Indices 1 2 3 4 5 6 
#
# 1 0.020260 -0.005343 -0.004050 0.000000 0.000000 0.000000
# 2 -0.005343 0.010605 -0.002818 0.000000 0.000000 -0.000001
# 3 -0.004050 -0.002818 0.009703 0.000000 0.000000 0.000000
# 4 0.000000 0.000000 0.000000 0.037673 0.000000 0.000000
# 5 0.000000 0.000000 0.000000 0.000000 0.057462 0.000000
# 6 0.000000 -0.000001 0.000000 0.000000 0.000000 0.042210
#
#
# Mechanical properties :
#
#
# Convention : Reuss Voigt Hill
#
# Bulk Modulus (GPa) = 61.93349 70.84785 66.39067
# Shear Modulus (GPa) = 24.07126 26.42994 25.25060
#
# Velocity S-wave (km/s) = 3.74834 3.92769 3.83906
# Velocity P-wave (km/s) = 7.40831 7.86904 7.64215
#
# Compressibility (1/GPa) = 0.01614635
#
# Stress axis : x y z
#
# Youngs Moduli (GPa) = 49.35788 94.29663 103.06493
#
# Poissons Ratio (x) = 0.50379 0.41746
# Poissons Ratio (y) = 0.26370 0.29040
# Poissons Ratio (z) = 0.19992 0.26569
#
# Static dielectric constant tensor:
#      x y z
#    x 1.563670 0.000000 0.000000 
#    y 0.000000 1.580730 0.000000 
#    z 0.000000 0.000000 1.598970 
# 
# From -- ./inp_files/47177.got.cif
#   From: 2010.05.17/outbox.cif.g08.bks.cpg/sg69_24_cif.got.tgz:47177.got - 2010.06.03 19:29:58.
