data_PCOD9512311
_publ_section_title
;
Structure prediction by ZEFSAII (Michael W. Deem and Ramdas Pophale) SiO2 
 PCOD9512311
Probable space group: F M M M
;
_chemical_formula_sum "Si O2"
_cell_formula_units_Z 80
_cell_length_a 14.322221
_cell_length_b 12.533794
_cell_length_c 20.826523
_cell_angle_alpha 90.000000
_cell_angle_beta 90.000000
_cell_angle_gamma 90.000000
_cell_volume 3738.605957
_symmetry_space_group_name_H-M "F M M M"
_symmetry_group_IT_number 69
_symmetry_cell_setting 'orthorhombic'
loop_
_space_group_symop_operation_xyz
x,y,z
-x,-y,z
x,-y,-z
-x,y,-z
-x,-y,-z
x,y,-z
-x,y,z
x,-y,z
x,1/2+y,1/2+z
-x,1/2-y,1/2+z
x,1/2-y,1/2-z
-x,1/2+y,1/2-z
-x,1/2-y,1/2-z
x,1/2+y,1/2-z
-x,1/2+y,1/2+z
x,1/2-y,1/2+z
1/2+x,y,1/2+z
1/2-x,-y,1/2+z
1/2+x,-y,1/2-z
1/2-x,y,1/2-z
1/2-x,-y,1/2-z
1/2+x,y,1/2-z
1/2-x,y,1/2+z
1/2+x,-y,1/2+z
1/2+x,1/2+y,z
1/2-x,1/2-y,z
1/2+x,1/2-y,-z
1/2-x,1/2+y,-z
1/2-x,1/2-y,-z
1/2+x,1/2+y,-z
1/2-x,1/2+y,z
1/2+x,1/2-y,z
loop_
_atom_site_type_symbol
_atom_site_label
_atom_site_fract_x
_atom_site_fract_y
_atom_site_fract_z
Si Si1 0.000000 0.874738 0.719728
Si Si2 0.348813 0.782191 0.132063
Si Si3 0.000000 0.623606 0.578502
Si Si4 0.111250 0.124884 0.500000
O O1 0.000000 0.750000 0.750000
O O2 0.091664 0.862163 0.675678
O O3 0.000000 0.000000 0.746282
O O4 0.250000 0.750000 0.160675
O O5 0.412239 0.680595 0.112564
O O6 0.336894 0.836158 0.062983
O O7 0.000000 0.500000 0.592904
O O8 0.000000 0.632026 0.500000
O O9 0.000000 0.156197 0.500000
O O10 0.110105 0.000000 0.500000
#
# Coordination Sequence:
#
# PCOD9512311 Si02
#       4
#    16  32  16  16
#     4  11  26  49  72  94 127 173 229 285 340 396
#     4  11  22  40  64  96 128 169 215 267 326 396
#     4  10  20  34  52  86 134 172 203 251 309 375
#     4  11  19  34  62  95 133 173 212 260 323 397
#
# _framework density 21.398351999999999
#
# number of rings (size 3 to 8) (size 9 to 14) (size 15 to 20)
#    0.000    1.200    6.000    1.800    0.000    7.200 
#    0.000    2.000    0.000    0.000    0.000    0.000 
#    0.000    0.000    0.000    0.000    0.000    0.000 
#
# Total GULP energy -111383.137246 kJ/mol
# GULP energy per Si atom -5569.156862 kJ/mol
# Density = 2.134965 g / cm^3
# Si number density = 21.398352 Si / 1000 Ang^3
#
#
#
# Elastic Constant Matrix: (Units=GPa)
#
#
# Indices 1 2 3 4 5 6 
#
# 1 122.8828 23.2291 2.0234 0.0000 0.0000 0.0000
# 2 23.2291 183.6503 23.1427 0.0000 0.0000 0.0000
# 3 2.0234 23.1427 51.1558 0.0000 0.0000 0.0000
# 4 0.0000 0.0000 0.0000 72.1785 0.0000 0.0000
# 5 0.0000 0.0000 0.0000 0.0000 -10.5614 0.0000
# 6 0.0000 0.0000 0.0000 0.0000 0.0000 2.3157
#
#
#
# Elastic Compliance Matrix: (Units=1/GPa)
#
#
# Indices 1 2 3 4 5 6 
#
# 1 0.008338 -0.001074 0.000156 0.000000 0.000000 0.000000
# 2 -0.001074 0.005913 -0.002632 0.000000 0.000000 0.000000
# 3 0.000156 -0.002632 0.020733 0.000000 0.000000 0.000000
# 4 0.000000 0.000000 0.000000 0.013855 0.000000 0.000000
# 5 0.000000 0.000000 0.000000 0.000000 -0.094684 0.000000
# 6 0.000000 0.000000 0.000000 0.000000 0.000000 0.431836
#
#
# Mechanical properties :
#
#
# Convention : Reuss Voigt Hill
#
# Bulk Modulus (GPa) = 35.86433 50.49767 43.18100
# Shear Modulus (GPa) = 12.42589 33.40613 22.91601
#
# Velocity S-wave (km/s) = 2.41237 3.95543 3.27605
# Velocity P-wave (km/s) = 4.95541 6.67163 5.87651
#
# Compressibility (1/GPa) = 0.02788286
#
# Stress axis : x y z
#
# Youngs Moduli (GPa) = 119.92772 169.12613 48.23263
#
# Poissons Ratio (x) = 0.18170 -0.00754
# Poissons Ratio (y) = 0.12885 0.12697
# Poissons Ratio (z) = -0.01874 0.44521
#
# Static dielectric constant tensor:
#      x y z
#    x 1.686190 0.000000 0.000000 
#    y 0.000000 1.793790 0.000000 
#    z 0.000000 0.000000 1.919570 
# 
# From -- ./inp_files/9660.got.cif
#   From: 2010.05.17/outbox.cif.g08.bks.cpg/sg69_5_cif.got.tgz:9660.got - 2010.06.03 19:29:58.
