data_PCOD9512160
_publ_section_title
;
Structure prediction by ZEFSAII (Michael W. Deem and Ramdas Pophale) SiO2 
 PCOD9512160
Probable space group: F M M M
;
_chemical_formula_sum "Si O2"
_cell_formula_units_Z 120
_cell_length_a 14.748443
_cell_length_b 24.464903
_cell_length_c 14.596628
_cell_angle_alpha 90.000000
_cell_angle_beta 90.000000
_cell_angle_gamma 90.000000
_cell_volume 5266.744038
_symmetry_space_group_name_H-M "F M M M"
_symmetry_group_IT_number 69
_symmetry_cell_setting 'orthorhombic'
loop_
_space_group_symop_operation_xyz
x,y,z
-x,-y,z
x,-y,-z
-x,y,-z
-x,-y,-z
x,y,-z
-x,y,z
x,-y,z
x,1/2+y,1/2+z
-x,1/2-y,1/2+z
x,1/2-y,1/2-z
-x,1/2+y,1/2-z
-x,1/2-y,1/2-z
x,1/2+y,1/2-z
-x,1/2+y,1/2+z
x,1/2-y,1/2+z
1/2+x,y,1/2+z
1/2-x,-y,1/2+z
1/2+x,-y,1/2-z
1/2-x,y,1/2-z
1/2-x,-y,1/2-z
1/2+x,y,1/2-z
1/2-x,y,1/2+z
1/2+x,-y,1/2+z
1/2+x,1/2+y,z
1/2-x,1/2-y,z
1/2+x,1/2-y,-z
1/2-x,1/2+y,-z
1/2-x,1/2-y,-z
1/2+x,1/2+y,-z
1/2-x,1/2+y,z
1/2+x,1/2-y,z
loop_
_atom_site_type_symbol
_atom_site_label
_atom_site_fract_x
_atom_site_fract_y
_atom_site_fract_z
Si Si1 0.750000 0.750000 0.250000
Si Si2 0.898792 0.934174 0.000000
Si Si3 0.748212 0.061283 0.142412
Si Si4 0.094674 0.146907 0.392396
Si Si5 0.894249 0.277677 0.608291
O O1 0.815267 0.712113 0.316045
O O2 0.839639 0.920681 0.910277
O O3 0.000000 0.910863 0.000000
O O4 0.907028 0.000000 0.000000
O O5 0.750000 0.055072 0.250000
O O6 0.675522 0.108084 0.131032
O O7 0.725068 0.000000 0.105613
O O8 0.086122 0.138559 0.500000
O O9 0.105913 0.211602 0.383177
O O10 0.000000 0.131092 0.345117
O O11 0.873737 0.291121 0.500000
O O12 0.000000 0.294622 0.627130
#
# Coordination Sequence:
#
# PCOD9512160 Si02
#       5
#     8  16  32  32  32
#     4  12  20  32  64  88  98 140 184 220 252 316
#     4   9  18  34  51  69 101 142 176 215 269 312
#     4  10  20  32  51  77 104 138 183 224 257 307
#     4   9  18  34  54  75 105 140 171 214 269 316
#     4   9  20  37  55  81 114 142 171 214 270 322
#
# _framework density 22.784476000000002
#
# number of rings (size 3 to 8) (size 9 to 14) (size 15 to 20)
#    0.000    2.533    1.333    2.400    1.867    1.600 
#    0.000    4.000    0.000    0.000    0.000    0.000 
#    0.000    0.000    0.000    0.000    0.000    0.000 
#
# Total GULP energy -167201.962641 kJ/mol
# GULP energy per Si atom -5573.398755 kJ/mol
# Density = 2.273262 g / cm^3
# Si number density = 22.784476 Si / 1000 Ang^3
#
#
#
# Elastic Constant Matrix: (Units=GPa)
#
#
# Indices 1 2 3 4 5 6 
#
# 1 161.6069 38.5630 81.2754 0.0000 0.0000 0.0000
# 2 38.5630 48.5557 14.5589 0.0000 0.0000 0.0000
# 3 81.2754 14.5589 140.4489 0.0000 0.0000 0.0000
# 4 0.0000 0.0000 0.0000 20.4644 0.0000 0.0000
# 5 0.0000 0.0000 0.0000 0.0000 -47.0693 0.0000
# 6 0.0000 0.0000 0.0000 0.0000 0.0000 18.8559
#
#
#
# Elastic Compliance Matrix: (Units=1/GPa)
#
#
# Indices 1 2 3 4 5 6 
#
# 1 0.010497 -0.006724 -0.005377 0.000000 0.000000 0.000000
# 2 -0.006724 0.025563 0.001241 0.000000 0.000000 0.000000
# 3 -0.005377 0.001241 0.010103 0.000000 0.000000 0.000000
# 4 0.000000 0.000000 0.000000 0.048865 0.000000 0.000000
# 5 0.000000 0.000000 0.000000 0.000000 -0.021245 0.000000
# 6 0.000000 0.000000 0.000000 0.000000 0.000000 0.053034
#
#
# Mechanical properties :
#
#
# Convention : Reuss Voigt Hill
#
# Bulk Modulus (GPa) = 40.91217 68.82289 54.86753
# Shear Modulus (GPa) = 31.91130 12.86451 22.38790
#
# Velocity S-wave (km/s) = 3.74648 2.37875 3.13804
# Velocity P-wave (km/s) = 6.05888 6.14949 6.10435
#
# Compressibility (1/GPa) = 0.02444261
#
# Stress axis : x y z
#
# Youngs Moduli (GPa) = 95.26778 39.11896 98.97974
#
# Poissons Ratio (x) = 0.26304 0.53224
# Poissons Ratio (y) = 0.64060 -0.12287
# Poissons Ratio (z) = 0.51228 -0.04856
#
# Static dielectric constant tensor:
#      x y z
#    x 2.002460 0.000000 0.000000 
#    y 0.000000 1.906910 0.000000 
#    z 0.000000 0.000000 1.827800 
# 
# From -- ./inp_files/14434.got.cif
#   From: 2010.05.17/outbox.cif.g08.bks.cpg/sg69_8_cif.got.tgz:14434.got - 2010.06.03 19:29:58.
