data_PCOD9512145
_publ_section_title
;
Structure prediction by ZEFSAII (Michael W. Deem and Ramdas Pophale) SiO2 
 PCOD9512145
Probable space group: F M M M
;
_chemical_formula_sum "Si O2"
_cell_formula_units_Z 144
_cell_length_a 27.937510
_cell_length_b 8.520092
_cell_length_c 33.008073
_cell_angle_alpha 90.000000
_cell_angle_beta 90.000000
_cell_angle_gamma 90.000000
_cell_volume 7856.916747
_symmetry_space_group_name_H-M "F M M M"
_symmetry_group_IT_number 69
_symmetry_cell_setting 'orthorhombic'
loop_
_space_group_symop_operation_xyz
x,y,z
-x,-y,z
x,-y,-z
-x,y,-z
-x,-y,-z
x,y,-z
-x,y,z
x,-y,z
x,1/2+y,1/2+z
-x,1/2-y,1/2+z
x,1/2-y,1/2-z
-x,1/2+y,1/2-z
-x,1/2-y,1/2-z
x,1/2+y,1/2-z
-x,1/2+y,1/2+z
x,1/2-y,1/2+z
1/2+x,y,1/2+z
1/2-x,-y,1/2+z
1/2+x,-y,1/2-z
1/2-x,y,1/2-z
1/2-x,-y,1/2-z
1/2+x,y,1/2-z
1/2-x,y,1/2+z
1/2+x,-y,1/2+z
1/2+x,1/2+y,z
1/2-x,1/2-y,z
1/2+x,1/2-y,-z
1/2-x,1/2+y,-z
1/2-x,1/2-y,-z
1/2+x,1/2+y,-z
1/2-x,1/2+y,z
1/2+x,1/2-y,z
loop_
_atom_site_type_symbol
_atom_site_label
_atom_site_fract_x
_atom_site_fract_y
_atom_site_fract_z
Si Si1 0.697771 0.813210 0.166790
Si Si2 0.397391 0.312252 0.206482
Si Si3 0.196019 0.810297 0.000000
Si Si4 0.446818 0.691001 0.123712
Si Si5 0.651600 0.309617 0.914847
O O1 0.750000 0.750000 0.177822
O O2 0.655601 0.748496 0.195324
O O3 0.684128 0.756142 0.121438
O O4 0.697681 0.000000 0.168078
O O5 0.396305 0.500000 0.207049
O O6 0.412688 0.250000 0.250000
O O7 0.431461 0.262655 0.169260
O O8 0.250000 0.750000 0.000000
O O9 0.169733 0.759371 0.958809
O O10 0.196422 0.000000 0.000000
O O11 0.500000 0.747137 0.113437
O O12 0.447726 0.500000 0.122914
O O13 0.403024 0.738981 0.094847
O O14 0.653775 0.500000 0.912580
#
# Coordination Sequence:
#
# PCOD9512145 Si02
#       5
#    32  32  16  32  32
#     4  11  21  34  52  73  99 133 171 208 253 304
#     4  10  20  34  51  74 103 132 167 209 251 298
#     4  10  20  32  49  75 105 137 170 208 251 298
#     4   8  15  30  52  74  99 133 168 205 251 299
#     4   9  18  33  51  74 104 134 169 210 251 298
#
# _framework density 18.327798999999999
#
# number of rings (size 3 to 8) (size 9 to 14) (size 15 to 20)
#    0.000    2.444    0.000    4.667    0.000    3.556 
#    0.000    2.778    0.000   19.333    0.000    0.000 
#    0.000    8.000    0.000    0.000    0.000    0.000 
#
# Total GULP energy -200887.174126 kJ/mol
# GULP energy per Si atom -5580.199281 kJ/mol
# Density = 1.828608 g / cm^3
# Si number density = 18.327799 Si / 1000 Ang^3
#
#
#
# Elastic Constant Matrix: (Units=GPa)
#
#
# Indices 1 2 3 4 5 6 
#
# 1 112.4308 10.2855 31.3852 0.0000 0.0000 -0.0004
# 2 10.2855 41.4522 13.3888 0.0001 0.0000 0.0000
# 3 31.3852 13.3888 101.3616 0.0000 0.0000 -0.0001
# 4 0.0000 0.0001 0.0000 24.6712 0.0000 0.0000
# 5 0.0000 0.0000 0.0000 0.0000 7.8253 0.0000
# 6 -0.0004 0.0000 -0.0001 0.0000 0.0000 14.2201
#
#
#
# Elastic Compliance Matrix: (Units=1/GPa)
#
#
# Indices 1 2 3 4 5 6 
#
# 1 0.009827 -0.001520 -0.002842 0.000000 0.000000 0.000000
# 2 -0.001520 0.025434 -0.002889 0.000000 0.000000 0.000000
# 3 -0.002842 -0.002889 0.011127 0.000000 0.000000 0.000000
# 4 0.000000 0.000000 0.000000 0.040533 0.000000 0.000000
# 5 0.000000 0.000000 0.000000 0.000000 0.127790 0.000000
# 6 0.000000 0.000000 0.000000 0.000000 0.000000 0.070323
#
#
# Mechanical properties :
#
#
# Convention : Reuss Voigt Hill
#
# Bulk Modulus (GPa) = 31.36155 40.59596 35.97876
# Shear Modulus (GPa) = 16.12040 22.68900 19.40470
#
# Velocity S-wave (km/s) = 2.96895 3.52228 3.25739
# Velocity P-wave (km/s) = 5.37602 6.22414 5.81556
#
# Compressibility (1/GPa) = 0.03188618
#
# Stress axis : x y z
#
# Youngs Moduli (GPa) = 101.76286 39.31672 89.86986
#
# Poissons Ratio (x) = 0.05978 0.25540
# Poissons Ratio (y) = 0.15472 0.25962
# Poissons Ratio (z) = 0.28920 0.11358
#
# Static dielectric constant tensor:
#      x y z
#    x 1.623480 0.000000 0.000000 
#    y 0.000000 1.628530 0.000000 
#    z 0.000000 0.000000 1.620190 
# 
# From -- ./inp_files/5579.got.cif
#   From: 2010.05.17/outbox.cif.g08.bks.cpg/sg69_3_cif.got.tgz:5579.got - 2010.06.03 19:29:58.
