data_PCOD9512197
_publ_section_title
;
Structure prediction by ZEFSAII (Michael W. Deem and Ramdas Pophale) SiO2 
 PCOD9512197
Probable space group: F M M M
;
_chemical_formula_sum "Si O2"
_cell_formula_units_Z 160
_cell_length_a 17.054983
_cell_length_b 24.691709
_cell_length_c 20.511000
_cell_angle_alpha 90.000000
_cell_angle_beta 90.000000
_cell_angle_gamma 90.000000
_cell_volume 8637.524167
_symmetry_space_group_name_H-M "F M M M"
_symmetry_group_IT_number 69
_symmetry_cell_setting 'orthorhombic'
loop_
_space_group_symop_operation_xyz
x,y,z
-x,-y,z
x,-y,-z
-x,y,-z
-x,-y,-z
x,y,-z
-x,y,z
x,-y,z
x,1/2+y,1/2+z
-x,1/2-y,1/2+z
x,1/2-y,1/2-z
-x,1/2+y,1/2-z
-x,1/2-y,1/2-z
x,1/2+y,1/2-z
-x,1/2+y,1/2+z
x,1/2-y,1/2+z
1/2+x,y,1/2+z
1/2-x,-y,1/2+z
1/2+x,-y,1/2-z
1/2-x,y,1/2-z
1/2-x,-y,1/2-z
1/2+x,y,1/2-z
1/2-x,y,1/2+z
1/2+x,-y,1/2+z
1/2+x,1/2+y,z
1/2-x,1/2-y,z
1/2+x,1/2-y,-z
1/2-x,1/2+y,-z
1/2-x,1/2-y,-z
1/2+x,1/2+y,-z
1/2-x,1/2+y,z
1/2+x,1/2-y,z
loop_
_atom_site_type_symbol
_atom_site_label
_atom_site_fract_x
_atom_site_fract_y
_atom_site_fract_z
Si Si1 0.658498 0.262214 0.150679
Si Si2 0.587415 0.144797 0.422863
Si Si3 0.091565 0.670382 0.230308
Si Si4 0.776976 0.436486 0.576404
Si Si5 0.324619 0.438034 0.298595
O O1 0.750000 0.250000 0.142867
O O2 0.620945 0.295954 0.092339
O O3 0.642554 0.302649 0.211834
O O4 0.614426 0.206773 0.167922
O O5 0.581942 0.137378 0.500000
O O6 0.500000 0.138356 0.394608
O O7 0.650560 0.100452 0.400744
O O8 0.114867 0.608510 0.220098
O O9 0.000000 0.677486 0.244503
O O10 0.758583 0.424234 0.500000
O O11 0.798493 0.500000 0.579629
O O12 0.707260 0.428405 0.627910
O O13 0.353633 0.500000 0.293861
O O14 0.250000 0.433571 0.250000
#
# Coordination Sequence:
#
# PCOD9512197 Si02
#       5
#    32  32  32  32  32
#     4  11  21  35  54  74 101 136 175 210 251 313
#     4  10  20  33  50  75 107 137 169 215 264 307
#     4  11  21  34  54  77 102 132 167 211 262 312
#     4   9  18  33  53  76 104 141 180 214 255 312
#     4  10  20  35  55  78 104 134 171 216 261 307
#
# _framework density 18.523827000000001
#
# number of rings (size 3 to 8) (size 9 to 14) (size 15 to 20)
#    0.000    1.800    0.000    7.200    0.000    1.200 
#    0.000    3.000    0.000    7.800    0.000    2.800 
#    0.000    0.000    0.000    0.000    0.000    0.000 
#
# Total GULP energy -223198.933322 kJ/mol
# GULP energy per Si atom -5579.973333 kJ/mol
# Density = 1.848167 g / cm^3
# Si number density = 18.523827 Si / 1000 Ang^3
#
#
#
# Elastic Constant Matrix: (Units=GPa)
#
#
# Indices 1 2 3 4 5 6 
#
# 1 37.6109 14.8599 -6.6582 0.0000 0.0000 0.0000
# 2 14.8599 81.2199 3.8975 0.0000 0.0000 0.0000
# 3 -6.6582 3.8975 30.1606 0.0000 0.0000 0.0000
# 4 0.0000 0.0000 0.0000 30.0596 0.0000 0.0000
# 5 0.0000 0.0000 0.0000 0.0000 9.5870 0.0000
# 6 0.0000 0.0000 0.0000 0.0000 0.0000 -5.6615
#
#
#
# Elastic Compliance Matrix: (Units=1/GPa)
#
#
# Indices 1 2 3 4 5 6 
#
# 1 0.030230 -0.005888 0.007434 0.000000 0.000000 0.000000
# 2 -0.005888 0.013536 -0.003049 0.000000 0.000000 0.000000
# 3 0.007434 -0.003049 0.035191 0.000000 0.000000 0.000000
# 4 0.000000 0.000000 0.000000 0.033267 0.000000 0.000000
# 5 0.000000 0.000000 0.000000 0.000000 0.104307 0.000000
# 6 0.000000 0.000000 0.000000 0.000000 0.000000 -0.176630
#
#
# Mechanical properties :
#
#
# Convention : Reuss Voigt Hill
#
# Bulk Modulus (GPa) = 13.16607 19.24331 16.20469
# Shear Modulus (GPa) = 73.28880 15.92316 44.60598
#
# Velocity S-wave (km/s) = 6.29686 2.93508 4.91249
# Velocity P-wave (km/s) = 7.74535 4.67945 6.39874
#
# Compressibility (1/GPa) = 0.07595279
#
# Stress axis : x y z
#
# Youngs Moduli (GPa) = 33.07941 73.87835 28.41629
#
# Poissons Ratio (x) = 0.43497 -0.21126
# Poissons Ratio (y) = 0.19476 0.08664
# Poissons Ratio (z) = -0.24593 0.22525
#
# Static dielectric constant tensor:
#      x y z
#    x 1.623680 0.000000 0.000000 
#    y 0.000000 1.637970 0.000000 
#    z 0.000000 0.000000 1.713760 
# 
# From -- ./inp_files/17683.got.cif
#   From: 2010.05.17/outbox.cif.g08.bks.cpg/sg69_9_cif.got.tgz:17683.got - 2010.06.03 19:29:58.
