data_PCOD9512271
_publ_section_title
;
Structure prediction by ZEFSAII (Michael W. Deem and Ramdas Pophale) SiO2 
 PCOD9512271
Probable space group: F M M M
;
_chemical_formula_sum "Si O2"
_cell_formula_units_Z 168
_cell_length_a 14.417686
_cell_length_b 20.592514
_cell_length_c 25.305384
_cell_angle_alpha 90.000000
_cell_angle_beta 90.000000
_cell_angle_gamma 90.000000
_cell_volume 7513.077431
_symmetry_space_group_name_H-M "F M M M"
_symmetry_group_IT_number 69
_symmetry_cell_setting 'orthorhombic'
loop_
_space_group_symop_operation_xyz
x,y,z
-x,-y,z
x,-y,-z
-x,y,-z
-x,-y,-z
x,y,-z
-x,y,z
x,-y,z
x,1/2+y,1/2+z
-x,1/2-y,1/2+z
x,1/2-y,1/2-z
-x,1/2+y,1/2-z
-x,1/2-y,1/2-z
x,1/2+y,1/2-z
-x,1/2+y,1/2+z
x,1/2-y,1/2+z
1/2+x,y,1/2+z
1/2-x,-y,1/2+z
1/2+x,-y,1/2-z
1/2-x,y,1/2-z
1/2-x,-y,1/2-z
1/2+x,y,1/2-z
1/2-x,y,1/2+z
1/2+x,-y,1/2+z
1/2+x,1/2+y,z
1/2-x,1/2-y,z
1/2+x,1/2-y,-z
1/2-x,1/2+y,-z
1/2-x,1/2-y,-z
1/2+x,1/2+y,-z
1/2-x,1/2+y,z
1/2+x,1/2-y,z
loop_
_atom_site_type_symbol
_atom_site_label
_atom_site_fract_x
_atom_site_fract_y
_atom_site_fract_z
Si Si1 0.358040 0.893591 0.058388
Si Si2 0.887393 0.289336 0.801295
Si Si3 0.866263 0.104609 0.940629
Si Si4 0.392727 0.431031 0.675391
Si Si5 0.856233 0.249273 0.918510
Si Si6 0.000000 0.500000 0.396718
O O1 0.245591 0.896557 0.064081
O O2 0.393650 0.926383 0.111582
O O3 0.392162 0.818589 0.061542
O O4 0.381269 0.919187 0.000000
O O5 0.858339 0.250000 0.750000
O O6 0.851190 0.363382 0.804142
O O7 0.859880 0.253806 0.855169
O O8 0.000000 0.292276 0.801620
O O9 0.894885 0.180015 0.935325
O O10 0.889657 0.081698 0.000000
O O11 0.919143 0.057230 0.901361
O O12 0.500000 0.431933 0.693181
O O13 0.349202 0.500000 0.690917
O O14 0.750000 0.250000 0.936706
#
# Coordination Sequence:
#
# PCOD9512271 Si02
#       6
#    32  32  32  32  32   8
#     4   9  18  32  52  78 106 142 184 222 266 316
#     4   9  18  33  54  76  99 131 171 217 269 329
#     4  10  20  34  51  71 106 145 184 224 262 324
#     4   9  18  32  51  77 108 138 170 216 273 332
#     4   9  18  33  54  78  99 133 177 227 270 310
#     4  12  25  36  48  76 108 156 196 216 276 340
#
# _framework density 22.36101
#
# number of rings (size 3 to 8) (size 9 to 14) (size 15 to 20)
#    0.000    2.667    0.000    1.429    2.667    3.429 
#    0.000    0.952    2.095    0.000    0.000    4.000 
#    0.000    0.000    0.000    0.000    0.000    0.000 
#
# Total GULP energy -233820.940833 kJ/mol
# GULP energy per Si atom -5567.165258 kJ/mol
# Density = 2.231012 g / cm^3
# Si number density = 22.361010 Si / 1000 Ang^3
#
#
#
# Elastic Constant Matrix: (Units=GPa)
#
#
# Indices 1 2 3 4 5 6 
#
# 1 84.2502 12.1087 -7.8659 0.0000 0.0000 0.0000
# 2 12.1087 158.5815 26.8430 0.0000 0.0000 0.0000
# 3 -7.8659 26.8430 88.9572 0.0000 0.0000 0.0000
# 4 0.0000 0.0000 0.0000 -19.6195 0.0000 0.0000
# 5 0.0000 0.0000 0.0000 0.0000 10.3280 0.0000
# 6 0.0000 0.0000 0.0000 0.0000 0.0000 1147.4340
#
#
#
# Elastic Compliance Matrix: (Units=1/GPa)
#
#
# Indices 1 2 3 4 5 6 
#
# 1 0.012171 -0.001171 0.001430 0.000000 0.000000 0.000000
# 2 -0.001171 0.006758 -0.002143 0.000000 0.000000 0.000000
# 3 0.001430 -0.002143 0.012014 0.000000 0.000000 0.000000
# 4 0.000000 0.000000 0.000000 -0.050970 0.000000 0.000000
# 5 0.000000 0.000000 0.000000 0.000000 0.096824 0.000000
# 6 0.000000 0.000000 0.000000 0.000000 0.000000 0.000872
#
#
# Mechanical properties :
#
#
# Convention : Reuss Voigt Hill
#
# Bulk Modulus (GPa) = 36.79898 43.77339 40.28618
# Shear Modulus (GPa) = 55.25088 247.67541 151.46314
#
# Velocity S-wave (km/s) = 4.97617 10.53578 8.23908
# Velocity P-wave (km/s) = 7.03625 12.94688 10.41947
#
# Compressibility (1/GPa) = 0.02717467
#
# Stress axis : x y z
#
# Youngs Moduli (GPa) = 82.16094 147.97147 83.23363
#
# Poissons Ratio (x) = 0.17333 -0.11900
# Poissons Ratio (y) = 0.09624 0.17836
# Poissons Ratio (z) = -0.11746 0.31708
#
# Static dielectric constant tensor:
#      x y z
#    x 1.879820 0.000000 0.000000 
#    y 0.000000 1.856070 0.000000 
#    z 0.000000 0.000000 1.802400 
# 
# From -- ./inp_files/19681.got.cif
#   From: 2010.05.17/outbox.cif.g08.bks.cpg/sg69_10_cif.got.tgz:19681.got - 2010.06.03 19:29:58.
