data_PCOD9512072
_publ_section_title
;
Structure prediction by ZEFSAII (Michael W. Deem and Ramdas Pophale) SiO2 
 PCOD9512072
Probable space group: F M M M
;
_chemical_formula_sum "Si O2"
_cell_formula_units_Z 132
_cell_length_a 15.409386
_cell_length_b 26.328301
_cell_length_c 15.790239
_cell_angle_alpha 90.000000
_cell_angle_beta 90.000000
_cell_angle_gamma 90.000000
_cell_volume 6406.146588
_symmetry_space_group_name_H-M "F M M M"
_symmetry_group_IT_number 69
_symmetry_cell_setting 'orthorhombic'
loop_
_space_group_symop_operation_xyz
x,y,z
-x,-y,z
x,-y,-z
-x,y,-z
-x,-y,-z
x,y,-z
-x,y,z
x,-y,z
x,1/2+y,1/2+z
-x,1/2-y,1/2+z
x,1/2-y,1/2-z
-x,1/2+y,1/2-z
-x,1/2-y,1/2-z
x,1/2+y,1/2-z
-x,1/2+y,1/2+z
x,1/2-y,1/2+z
1/2+x,y,1/2+z
1/2-x,-y,1/2+z
1/2+x,-y,1/2-z
1/2-x,y,1/2-z
1/2-x,-y,1/2-z
1/2+x,y,1/2-z
1/2-x,y,1/2+z
1/2+x,-y,1/2+z
1/2+x,1/2+y,z
1/2-x,1/2-y,z
1/2+x,1/2-y,-z
1/2-x,1/2+y,-z
1/2-x,1/2-y,-z
1/2+x,1/2+y,-z
1/2-x,1/2+y,z
1/2+x,1/2-y,z
loop_
_atom_site_type_symbol
_atom_site_label
_atom_site_fract_x
_atom_site_fract_y
_atom_site_fract_z
Si Si1 0.395439 0.132764 0.649852
Si Si2 0.345755 0.942394 0.500000
Si Si3 0.394324 0.255586 0.096709
Si Si4 0.605607 0.649328 0.663445
Si Si5 0.150739 0.914959 0.500000
Si Si6 0.500000 0.500000 0.500000
O O1 0.500000 0.135751 0.651146
O O2 0.372759 0.089593 0.582838
O O3 0.362879 0.188329 0.620482
O O4 0.367240 0.125714 0.746903
O O5 0.242431 0.942173 0.500000
O O6 0.379780 0.000000 0.500000
O O7 0.500000 0.257496 0.098985
O O8 0.369344 0.208706 0.156221
O O9 0.369253 0.243829 0.000000
O O10 0.500000 0.647073 0.657866
O O11 0.642380 0.619749 0.583394
O O12 0.074790 0.955660 0.500000
#
# Coordination Sequence:
#
# PCOD9512072 Si02
#       6
#    32  16  32  32  16   4
#     4  10  21  39  63  93 132 171 209 246 304 376
#     4  12  27  45  60  86 124 169 215 266 311 367
#     4   9  15  29  60  95 129 164 204 251 304 367
#     4  10  19  36  65  98 123 160 209 260 310 377
#     4  12  24  44  67  90 119 150 210 273 328 375
#     4  12  24  48  72  88 114 158 208 276 334 372
#
# _framework density 20.605211000000001
#
# number of rings (size 3 to 8) (size 9 to 14) (size 15 to 20)
#    0.000    1.697    4.242    1.091    0.000    4.848 
#    2.182    3.636    0.000    2.909    0.000    0.000 
#    0.000    0.000    0.000    0.000    0.000    0.000 
#
# Total GULP energy -184114.173992 kJ/mol
# GULP energy per Si atom -5579.217394 kJ/mol
# Density = 2.055831 g / cm^3
# Si number density = 20.605211 Si / 1000 Ang^3
#
#
#
# Elastic Constant Matrix: (Units=GPa)
#
#
# Indices 1 2 3 4 5 6 
#
# 1 32.6665 4.6935 11.5774 0.0000 0.0000 0.0000
# 2 4.6935 158.1379 87.8107 0.0000 0.0000 0.0000
# 3 11.5774 87.8107 181.7397 0.0000 0.0000 0.0000
# 4 0.0000 0.0000 0.0000 12.0274 0.0000 0.0000
# 5 0.0000 0.0000 0.0000 0.0000 -1.8368 0.0000
# 6 0.0000 0.0000 0.0000 0.0000 0.0000 4.6774
#
#
#
# Elastic Compliance Matrix: (Units=1/GPa)
#
#
# Indices 1 2 3 4 5 6 
#
# 1 0.031326 0.000244 -0.002113 0.000000 0.000000 0.000000
# 2 0.000244 0.008644 -0.004192 0.000000 0.000000 0.000000
# 3 -0.002113 -0.004192 0.007662 0.000000 0.000000 0.000000
# 4 0.000000 0.000000 0.000000 0.083144 0.000000 0.000000
# 5 0.000000 0.000000 0.000000 0.000000 -0.544427 0.000000
# 6 0.000000 0.000000 0.000000 0.000000 0.000000 0.213795
#
#
# Mechanical properties :
#
#
# Convention : Reuss Voigt Hill
#
# Bulk Modulus (GPa) = 28.16144 64.52304 46.34224
# Shear Modulus (GPa) = -28.42600 20.87109 -3.77745
#
# Velocity S-wave (km/s) = -3.71826 3.18607 -1.35544
# Velocity P-wave (km/s) = 2.17650 6.70199 4.48216
#
# Compressibility (1/GPa) = 0.03550955
#
# Stress axis : x y z
#
# Youngs Moduli (GPa) = 31.92202 115.68526 130.50592
#
# Poissons Ratio (x) = -0.02820 0.27581
# Poissons Ratio (y) = -0.00778 0.54709
# Poissons Ratio (z) = 0.06746 0.48496
#
# Static dielectric constant tensor:
#      x y z
#    x 1.757720 0.000000 0.000000 
#    y 0.000000 1.709100 0.000000 
#    z 0.000000 0.000000 1.733910 
# 
# From -- ./inp_files/15400.got.cif
#   From: 2010.05.17/outbox.cif.g08.bks.cpg/sg69_8_cif.got.tgz:15400.got - 2010.06.03 19:29:58.
