data_PCOD9512573
_publ_section_title
;
Structure prediction by ZEFSAII (Michael W. Deem and Ramdas Pophale) SiO2 
 PCOD9512573
Probable space group: F M M M
;
_chemical_formula_sum "Si O2"
_cell_formula_units_Z 144
_cell_length_a 14.254236
_cell_length_b 30.413369
_cell_length_c 18.996516
_cell_angle_alpha 90.000000
_cell_angle_beta 90.000000
_cell_angle_gamma 90.000000
_cell_volume 8235.357065
_symmetry_space_group_name_H-M "F M M M"
_symmetry_group_IT_number 69
_symmetry_cell_setting 'orthorhombic'
loop_
_space_group_symop_operation_xyz
x,y,z
-x,-y,z
x,-y,-z
-x,y,-z
-x,-y,-z
x,y,-z
-x,y,z
x,-y,z
x,1/2+y,1/2+z
-x,1/2-y,1/2+z
x,1/2-y,1/2-z
-x,1/2+y,1/2-z
-x,1/2-y,1/2-z
x,1/2+y,1/2-z
-x,1/2+y,1/2+z
x,1/2-y,1/2+z
1/2+x,y,1/2+z
1/2-x,-y,1/2+z
1/2+x,-y,1/2-z
1/2-x,y,1/2-z
1/2-x,-y,1/2-z
1/2+x,y,1/2-z
1/2-x,y,1/2+z
1/2+x,-y,1/2+z
1/2+x,1/2+y,z
1/2-x,1/2-y,z
1/2+x,1/2-y,-z
1/2-x,1/2+y,-z
1/2-x,1/2-y,-z
1/2+x,1/2+y,-z
1/2-x,1/2+y,z
1/2+x,1/2-y,z
loop_
_atom_site_type_symbol
_atom_site_label
_atom_site_fract_x
_atom_site_fract_y
_atom_site_fract_z
Si Si1 0.205929 0.051779 0.172703
Si Si2 0.500000 0.373685 0.663339
Si Si3 0.695816 0.125803 0.083728
Si Si4 0.000000 0.298451 0.717223
Si Si5 0.000000 0.948184 0.222308
Si Si6 0.789362 0.200575 0.827411
O O1 0.250000 0.060639 0.250000
O O2 0.254600 0.082869 0.116487
O O3 0.095016 0.060897 0.179570
O O4 0.219689 0.000000 0.157915
O O5 0.408199 0.371628 0.615675
O O6 0.500000 0.334485 0.720662
O O7 0.500000 0.418428 0.708566
O O8 0.750259 0.167872 0.114483
O O9 0.695242 0.124867 0.000000
O O10 0.000000 0.250000 0.750000
O O11 0.097945 0.301935 0.675749
O O12 0.000000 0.000000 0.240612
O O13 0.750000 0.186727 0.750000
O O14 0.750000 0.250000 0.837940
#
# Coordination Sequence:
#
# PCOD9512573 Si02
#       6
#    32  16  32  16  16  32
#     4  10  20  38  62  86 114 150 196 245 288 337
#     4  12  21  36  60  85 119 152 190 242 289 344
#     4  12  25  39  56  86 125 160 190 229 292 358
#     4  12  20  35  65  95 111 139 202 252 288 332
#     4  10  20  35  63  93 111 139 198 254 290 332
#     4  11  21  39  63  89 116 152 195 246 289 335
#
# _framework density 17.485579999999999
#
# number of rings (size 3 to 8) (size 9 to 14) (size 15 to 20)
#    0.000    0.889    6.667    2.333    0.000    0.889 
#    0.000    2.222    0.000    4.000    0.000    0.000 
#    0.000    0.000    0.000    0.000    0.000    0.000 
#
# Total GULP energy -201187.492080 kJ/mol
# GULP energy per Si atom -5588.541447 kJ/mol
# Density = 1.744578 g / cm^3
# Si number density = 17.485580 Si / 1000 Ang^3
#
#
#
# Elastic Constant Matrix: (Units=GPa)
#
#
# Indices 1 2 3 4 5 6 
#
# 1 200.6117 75.8716 80.8594 0.0000 0.0000 0.0000
# 2 75.8716 92.5242 86.9687 0.0000 0.0000 0.0000
# 3 80.8594 86.9687 127.2241 0.0000 0.0000 0.0000
# 4 0.0000 0.0000 0.0000 15.1679 0.0000 0.0000
# 5 0.0000 0.0000 0.0000 0.0000 6.3923 0.0000
# 6 0.0000 0.0000 0.0000 0.0000 0.0000 21.6127
#
#
#
# Elastic Compliance Matrix: (Units=1/GPa)
#
#
# Indices 1 2 3 4 5 6 
#
# 1 0.007332 -0.004566 -0.001539 0.000000 0.000000 0.000000
# 2 -0.004566 0.033079 -0.019711 0.000000 0.000000 0.000000
# 3 -0.001539 -0.019711 0.022312 0.000000 0.000000 0.000000
# 4 0.000000 0.000000 0.000000 0.065929 0.000000 0.000000
# 5 0.000000 0.000000 0.000000 0.000000 0.156439 0.000000
# 6 0.000000 0.000000 0.000000 0.000000 0.000000 0.046269
#
#
# Mechanical properties :
#
#
# Convention : Reuss Voigt Hill
#
# Bulk Modulus (GPa) = 90.14963 100.86214 95.50588
# Shear Modulus (GPa) = 12.93034 20.41192 16.67113
#
# Velocity S-wave (km/s) = 2.72230 3.42037 3.09110
# Velocity P-wave (km/s) = 7.84536 8.56778 8.21452
#
# Compressibility (1/GPa) = 0.01109267
#
# Stress axis : x y z
#
# Youngs Moduli (GPa) = 136.39285 30.23044 44.81915
#
# Poissons Ratio (x) = 0.13803 0.06896
# Poissons Ratio (y) = 0.62277 0.88341
# Poissons Ratio (z) = 0.20985 0.59586
#
# Static dielectric constant tensor:
#      x y z
#    x 1.662800 0.000000 0.000000 
#    y 0.000000 1.599830 0.000000 
#    z 0.000000 0.000000 1.538170 
# 
# From -- ./inp_files/21796.got.cif
#   From: 2010.05.17/outbox.cif.g08.bks.cpg/sg69_11_cif.got.tgz:21796.got - 2010.06.03 19:29:58.
