data_PCOD9512454
_publ_section_title
;
Structure prediction by ZEFSAII (Michael W. Deem and Ramdas Pophale) SiO2 
 PCOD9512454
Probable space group: F M M M
;
_chemical_formula_sum "Si O2"
_cell_formula_units_Z 160
_cell_length_a 20.046446
_cell_length_b 16.395583
_cell_length_c 28.198661
_cell_angle_alpha 90.000000
_cell_angle_beta 90.000000
_cell_angle_gamma 90.000000
_cell_volume 9268.143279
_symmetry_space_group_name_H-M "F M M M"
_symmetry_group_IT_number 69
_symmetry_cell_setting 'orthorhombic'
loop_
_space_group_symop_operation_xyz
x,y,z
-x,-y,z
x,-y,-z
-x,y,-z
-x,-y,-z
x,y,-z
-x,y,z
x,-y,z
x,1/2+y,1/2+z
-x,1/2-y,1/2+z
x,1/2-y,1/2-z
-x,1/2+y,1/2-z
-x,1/2-y,1/2-z
x,1/2+y,1/2-z
-x,1/2+y,1/2+z
x,1/2-y,1/2+z
1/2+x,y,1/2+z
1/2-x,-y,1/2+z
1/2+x,-y,1/2-z
1/2-x,y,1/2-z
1/2-x,-y,1/2-z
1/2+x,y,1/2-z
1/2-x,y,1/2+z
1/2+x,-y,1/2+z
1/2+x,1/2+y,z
1/2-x,1/2-y,z
1/2+x,1/2-y,-z
1/2-x,1/2+y,-z
1/2-x,1/2-y,-z
1/2+x,1/2+y,-z
1/2-x,1/2+y,z
1/2+x,1/2-y,z
loop_
_atom_site_type_symbol
_atom_site_label
_atom_site_fract_x
_atom_site_fract_y
_atom_site_fract_z
Si Si1 0.734643 0.402683 0.358679
Si Si2 0.000000 0.095602 0.144763
Si Si3 0.125591 0.810251 0.877716
Si Si4 0.315941 0.306960 0.446876
Si Si5 0.500000 0.098238 0.755836
Si Si6 0.632521 0.311301 0.707444
O O1 0.741821 0.500000 0.354862
O O2 0.805733 0.356790 0.363937
O O3 0.696621 0.376282 0.407338
O O4 0.692473 0.366055 0.314405
O O5 0.065795 0.127799 0.120024
O O6 0.000000 0.120438 0.200171
O O7 0.000000 0.000000 0.144763
O O8 0.131784 0.756424 0.924881
O O9 0.111859 0.746938 0.835669
O O10 0.330131 0.336056 0.500000
O O11 0.250000 0.250000 0.448545
O O12 0.568153 0.135888 0.777150
O O13 0.500000 0.000000 0.761206
O O14 0.652727 0.250000 0.750000
#
# Coordination Sequence:
#
# PCOD9512454 Si02
#       6
#    32  16  32  32  16  32
#     4  10  21  35  53  82 113 141 180 231 279 320
#     4  11  21  35  52  76 107 143 182 230 280 322
#     4  10  20  35  55  76 109 147 184 225 270 332
#     4   8  16  33  57  80 102 135 177 218 266 326
#     4  11  22  36  54  78 105 140 190 233 272 324
#     4  11  20  36  54  75 106 145 186 225 268 325
#
# _framework density 17.263435999999999
#
# number of rings (size 3 to 8) (size 9 to 14) (size 15 to 20)
#    0.000    2.000    2.000    3.900    0.000    2.000 
#    0.000    1.500    0.000    2.400    0.000    0.000 
#    0.000    9.600    0.000    0.000    0.000    0.000 
#
# Total GULP energy -222935.644847 kJ/mol
# GULP energy per Si atom -5573.391121 kJ/mol
# Density = 1.722414 g / cm^3
# Si number density = 17.263436 Si / 1000 Ang^3
#
#
#
# Elastic Constant Matrix: (Units=GPa)
#
#
# Indices 1 2 3 4 5 6 
#
# 1 95.8213 36.7306 25.2022 0.0000 0.0000 0.0000
# 2 36.7306 87.3143 26.7910 0.0000 0.0000 0.0000
# 3 25.2022 26.7910 85.7453 0.0000 0.0000 0.0000
# 4 0.0000 0.0000 0.0000 15.6980 0.0000 0.0000
# 5 0.0000 0.0000 0.0000 0.0000 6.4669 0.0000
# 6 0.0000 0.0000 0.0000 0.0000 0.0000 12.1557
#
#
#
# Elastic Compliance Matrix: (Units=1/GPa)
#
#
# Indices 1 2 3 4 5 6 
#
# 1 0.012843 -0.004694 -0.002308 0.000000 0.000000 0.000000
# 2 -0.004694 0.014383 -0.003114 0.000000 0.000000 0.000000
# 3 -0.002308 -0.003114 0.013314 0.000000 0.000000 0.000000
# 4 0.000000 0.000000 0.000000 0.063702 0.000000 0.000000
# 5 0.000000 0.000000 0.000000 0.000000 0.154633 0.000000
# 6 0.000000 0.000000 0.000000 0.000000 0.000000 0.082266
#
#
# Mechanical properties :
#
#
# Convention : Reuss Voigt Hill
#
# Bulk Modulus (GPa) = 49.24520 49.59204 49.41862
# Shear Modulus (GPa) = 13.58168 18.87460 16.22814
#
# Velocity S-wave (km/s) = 2.80792 3.31014 3.06932
# Velocity P-wave (km/s) = 6.25301 6.58774 6.42256
#
# Compressibility (1/GPa) = 0.02030655
#
# Stress axis : x y z
#
# Youngs Moduli (GPa) = 77.86612 69.52550 75.10985
#
# Poissons Ratio (x) = 0.32638 0.17335
# Poissons Ratio (y) = 0.36553 0.23391
# Poissons Ratio (z) = 0.17971 0.21652
#
# Static dielectric constant tensor:
#      x y z
#    x 1.566170 0.000000 0.000000 
#    y 0.000000 1.572220 0.000000 
#    z 0.000000 0.000000 1.601280 
# 
# From -- ./inp_files/15673.got.cif
#   From: 2010.05.17/outbox.cif.g08.bks.cpg/sg69_8_cif.got.tgz:15673.got - 2010.06.03 19:29:58.
