data_PCOD9512038
_publ_section_title
;
Structure prediction by ZEFSAII (Michael W. Deem and Ramdas Pophale) SiO2 
 PCOD9512038
Probable space group: F M M M
;
_chemical_formula_sum "Si O2"
_cell_formula_units_Z 160
_cell_length_a 28.261840
_cell_length_b 16.350152
_cell_length_c 17.699882
_cell_angle_alpha 90.000000
_cell_angle_beta 90.000000
_cell_angle_gamma 90.000000
_cell_volume 8178.856696
_symmetry_space_group_name_H-M "F M M M"
_symmetry_group_IT_number 69
_symmetry_cell_setting 'orthorhombic'
loop_
_space_group_symop_operation_xyz
x,y,z
-x,-y,z
x,-y,-z
-x,y,-z
-x,-y,-z
x,y,-z
-x,y,z
x,-y,z
x,1/2+y,1/2+z
-x,1/2-y,1/2+z
x,1/2-y,1/2-z
-x,1/2+y,1/2-z
-x,1/2-y,1/2-z
x,1/2+y,1/2-z
-x,1/2+y,1/2+z
x,1/2-y,1/2+z
1/2+x,y,1/2+z
1/2-x,-y,1/2+z
1/2+x,-y,1/2-z
1/2-x,y,1/2-z
1/2-x,-y,1/2-z
1/2+x,y,1/2-z
1/2-x,y,1/2+z
1/2+x,-y,1/2+z
1/2+x,1/2+y,z
1/2-x,1/2-y,z
1/2+x,1/2-y,-z
1/2-x,1/2+y,-z
1/2-x,1/2-y,-z
1/2+x,1/2+y,-z
1/2-x,1/2+y,z
1/2+x,1/2-y,z
loop_
_atom_site_type_symbol
_atom_site_label
_atom_site_fract_x
_atom_site_fract_y
_atom_site_fract_z
Si Si1 0.413389 0.909506 0.090260
Si Si2 0.052951 0.739081 0.659468
Si Si3 0.675965 0.644779 0.324578
Si Si4 0.649940 0.334824 0.156962
Si Si5 0.737520 0.097118 0.417408
O O1 0.438406 0.829265 0.124433
O O2 0.359545 0.902387 0.119744
O O3 0.432033 0.000000 0.112181
O O4 0.415039 0.904019 0.000000
O O5 0.057076 0.750000 0.750000
O O6 0.094645 0.676104 0.638212
O O7 0.000000 0.711652 0.640768
O O8 0.660738 0.625309 0.238824
O O9 0.666766 0.740867 0.335741
O O10 0.729261 0.628335 0.349911
O O11 0.683612 0.377664 0.097268
O O12 0.753328 0.128743 0.500000
O O13 0.741352 0.000000 0.417718
#
# Coordination Sequence:
#
# PCOD9512038 Si02
#       5
#    32  32  32  32  32
#     4  10  20  34  57  91 126 154 187 241 306 361
#     4  10  20  40  62  82 112 153 199 243 286 348
#     4  10  19  36  57  85 114 152 191 231 285 352
#     4  10  20  37  57  86 109 147 195 245 284 341
#     4  11  24  37  52  80 118 155 191 235 287 347
#
# _framework density 19.562636999999999
#
# number of rings (size 3 to 8) (size 9 to 14) (size 15 to 20)
#    0.000    1.800    4.000    2.400    0.000   11.200 
#    0.000    1.000    0.000    0.600    0.000    1.400 
#    0.000    0.000    0.000    0.000    0.000    0.000 
#
# Total GULP energy -223159.424253 kJ/mol
# GULP energy per Si atom -5578.985606 kJ/mol
# Density = 1.951811 g / cm^3
# Si number density = 19.562637 Si / 1000 Ang^3
#
#
#
# Elastic Constant Matrix: (Units=GPa)
#
#
# Indices 1 2 3 4 5 6 
#
# 1 145.1662 22.5900 22.3696 0.0000 0.0000 0.0000
# 2 22.5900 31.4202 37.9183 0.0000 0.0000 0.0000
# 3 22.3696 37.9183 74.7714 0.0000 0.0000 0.0000
# 4 0.0000 0.0000 0.0000 46.4490 0.0000 0.0000
# 5 0.0000 0.0000 0.0000 0.0000 -17.0441 0.0000
# 6 0.0000 0.0000 0.0000 0.0000 0.0000 -1.4799
#
#
#
# Elastic Compliance Matrix: (Units=1/GPa)
#
#
# Indices 1 2 3 4 5 6 
#
# 1 0.007806 -0.007201 0.001316 0.000000 0.000000 0.000000
# 2 -0.007201 0.088671 -0.042813 0.000000 0.000000 0.000000
# 3 0.001316 -0.042813 0.034691 0.000000 0.000000 0.000000
# 4 0.000000 0.000000 0.000000 0.021529 0.000000 0.000000
# 5 0.000000 0.000000 0.000000 0.000000 -0.058671 0.000000
# 6 0.000000 0.000000 0.000000 0.000000 0.000000 -0.675711
#
#
# Mechanical properties :
#
#
# Convention : Reuss Voigt Hill
#
# Bulk Modulus (GPa) = 29.60856 46.34596 37.97726
# Shear Modulus (GPa) = -10.57012 16.81699 3.12343
#
# Velocity S-wave (km/s) = -2.32700 2.93516 1.26495
# Velocity P-wave (km/s) = 2.81925 5.93543 4.64637
#
# Compressibility (1/GPa) = 0.03377402
#
# Stress axis : x y z
#
# Youngs Moduli (GPa) = 128.09972 11.27765 28.82551
#
# Poissons Ratio (x) = 0.08121 -0.03795
# Poissons Ratio (y) = 0.92248 1.23410
# Poissons Ratio (z) = -0.16864 0.48283
#
# Static dielectric constant tensor:
#      x y z
#    x 1.726490 0.000000 0.000000 
#    y 0.000000 1.677420 0.000000 
#    z 0.000000 0.000000 1.723580 
# 
# From -- ./inp_files/27595.got.cif
#   From: 2010.05.17/outbox.cif.g08.bks.cpg/sg69_14_cif.got.tgz:27595.got - 2010.06.03 19:29:58.
