data_PCOD9512212
_publ_section_title
;
Structure prediction by ZEFSAII (Michael W. Deem and Ramdas Pophale) SiO2 
 PCOD9512212
Probable space group: F M M M
;
_chemical_formula_sum "Si O2"
_cell_formula_units_Z 144
_cell_length_a 27.140011
_cell_length_b 8.909704
_cell_length_c 30.099113
_cell_angle_alpha 90.000000
_cell_angle_beta 90.000000
_cell_angle_gamma 90.000000
_cell_volume 7278.250398
_symmetry_space_group_name_H-M "F M M M"
_symmetry_group_IT_number 69
_symmetry_cell_setting 'orthorhombic'
loop_
_space_group_symop_operation_xyz
x,y,z
-x,-y,z
x,-y,-z
-x,y,-z
-x,-y,-z
x,y,-z
-x,y,z
x,-y,z
x,1/2+y,1/2+z
-x,1/2-y,1/2+z
x,1/2-y,1/2-z
-x,1/2+y,1/2-z
-x,1/2-y,1/2-z
x,1/2+y,1/2-z
-x,1/2+y,1/2+z
x,1/2-y,1/2+z
1/2+x,y,1/2+z
1/2-x,-y,1/2+z
1/2+x,-y,1/2-z
1/2-x,y,1/2-z
1/2-x,-y,1/2-z
1/2+x,y,1/2-z
1/2-x,y,1/2+z
1/2+x,-y,1/2+z
1/2+x,1/2+y,z
1/2-x,1/2-y,z
1/2+x,1/2-y,-z
1/2-x,1/2+y,-z
1/2-x,1/2-y,-z
1/2+x,1/2+y,-z
1/2-x,1/2+y,z
1/2+x,1/2-y,z
loop_
_atom_site_type_symbol
_atom_site_label
_atom_site_fract_x
_atom_site_fract_y
_atom_site_fract_z
Si Si1 0.810453 0.830976 0.705026
Si Si2 0.085557 0.680419 0.609937
Si Si3 0.000000 0.677257 0.052885
Si Si4 0.300458 0.821839 0.611748
Si Si5 0.571720 0.829946 0.204256
O O1 0.796766 0.750000 0.750000
O O2 0.799649 0.726755 0.663244
O O3 0.869336 0.843106 0.707629
O O4 0.790461 0.000000 0.699825
O O5 0.084349 0.500000 0.610718
O O6 0.142962 0.725113 0.599429
O O7 0.066426 0.739531 0.658130
O O8 0.048201 0.747001 0.574154
O O9 0.000000 0.500000 0.063508
O O10 0.000000 0.695336 0.000000
O O11 0.250000 0.750000 0.591790
O O12 0.297227 0.000000 0.606386
O O13 0.555173 0.750000 0.250000
O O14 0.552844 0.000000 0.200721
#
# Coordination Sequence:
#
# PCOD9512212 Si02
#       5
#    32  32  16  32  32
#     4   9  16  26  41  64  99 145 196 246 289 331
#     4  10  21  38  61  89 121 157 198 244 294 348
#     4  11  25  45  70  97 120 145 183 235 295 355
#     4  10  20  33  51  78 112 151 193 235 283 340
#     4   9  16  28  49  78 115 158 201 244 290 342
#
# _framework density 19.784973999999998
#
# number of rings (size 3 to 8) (size 9 to 14) (size 15 to 20)
#    0.000    2.333    0.000    3.000    0.000    9.333 
#    0.000    2.778    0.000    0.667    0.000    0.000 
#    0.000    0.000    0.000    0.000    0.000    0.000 
#
# Total GULP energy -200687.318120 kJ/mol
# GULP energy per Si atom -5574.647726 kJ/mol
# Density = 1.973994 g / cm^3
# Si number density = 19.784974 Si / 1000 Ang^3
#
#
#
# Elastic Constant Matrix: (Units=GPa)
#
#
# Indices 1 2 3 4 5 6 
#
# 1 174.9390 47.8065 42.0807 0.0000 0.0000 -0.0001
# 2 47.8065 93.6498 38.5011 0.0000 0.0000 0.0000
# 3 42.0807 38.5011 61.0445 0.0000 0.0000 0.0000
# 4 0.0000 0.0000 0.0000 23.2729 0.0000 0.0000
# 5 0.0000 0.0000 0.0000 0.0000 -10.1420 0.0000
# 6 -0.0001 0.0000 0.0000 0.0000 0.0000 17.6935
#
#
#
# Elastic Compliance Matrix: (Units=1/GPa)
#
#
# Indices 1 2 3 4 5 6 
#
# 1 0.007173 -0.002199 -0.003558 0.000000 0.000000 0.000000
# 2 -0.002199 0.015090 -0.008002 0.000000 0.000000 0.000000
# 3 -0.003558 -0.008002 0.023881 0.000000 0.000000 0.000000
# 4 0.000000 0.000000 0.000000 0.042968 0.000000 0.000000
# 5 0.000000 0.000000 0.000000 0.000000 -0.098600 0.000000
# 6 0.000000 0.000000 0.000000 0.000000 0.000000 0.056518
#
#
# Mechanical properties :
#
#
# Convention : Reuss Voigt Hill
#
# Bulk Modulus (GPa) = 53.68505 65.15667 59.42086
# Shear Modulus (GPa) = 61.91484 19.58122 40.74803
#
# Velocity S-wave (km/s) = 5.60016 3.14937 4.54314
# Velocity P-wave (km/s) = 8.30716 6.79916 7.59070
#
# Compressibility (1/GPa) = 0.01862716
#
# Stress axis : x y z
#
# Youngs Moduli (GPa) = 139.41130 66.26796 41.87492
#
# Poissons Ratio (x) = 0.14573 0.14898
# Poissons Ratio (y) = 0.30657 0.33507
# Poissons Ratio (z) = 0.49599 0.53025
#
# Static dielectric constant tensor:
#      x y z
#    x 1.800470 0.000000 0.000000 
#    y 0.000000 1.694330 0.000000 
#    z 0.000000 0.000000 1.641680 
# 
# From -- ./inp_files/47395.got.cif
#   From: 2010.05.17/outbox.cif.g08.bks.cpg/sg69_24_cif.got.tgz:47395.got - 2010.06.03 19:29:58.
