data_PCOD9512912
_publ_section_title
;
Structure prediction by ZEFSAII (Michael W. Deem and Ramdas Pophale) SiO2 
 PCOD9512912
Probable space group: F M M M
;
_chemical_formula_sum "Si O2"
_cell_formula_units_Z 176
_cell_length_a 29.836798
_cell_length_b 16.056225
_cell_length_c 18.561977
_cell_angle_alpha 90.000000
_cell_angle_beta 90.000000
_cell_angle_gamma 90.000000
_cell_volume 8892.418421
_symmetry_space_group_name_H-M "F M M M"
_symmetry_group_IT_number 69
_symmetry_cell_setting 'orthorhombic'
loop_
_space_group_symop_operation_xyz
x,y,z
-x,-y,z
x,-y,-z
-x,y,-z
-x,-y,-z
x,y,-z
-x,y,z
x,-y,z
x,1/2+y,1/2+z
-x,1/2-y,1/2+z
x,1/2-y,1/2-z
-x,1/2+y,1/2-z
-x,1/2-y,1/2-z
x,1/2+y,1/2-z
-x,1/2+y,1/2+z
x,1/2-y,1/2+z
1/2+x,y,1/2+z
1/2-x,-y,1/2+z
1/2+x,-y,1/2-z
1/2-x,y,1/2-z
1/2-x,-y,1/2-z
1/2+x,y,1/2-z
1/2-x,y,1/2+z
1/2+x,-y,1/2+z
1/2+x,1/2+y,z
1/2-x,1/2-y,z
1/2+x,1/2-y,-z
1/2-x,1/2+y,-z
1/2-x,1/2-y,-z
1/2+x,1/2+y,-z
1/2-x,1/2+y,z
1/2+x,1/2-y,z
loop_
_atom_site_type_symbol
_atom_site_label
_atom_site_fract_x
_atom_site_fract_y
_atom_site_fract_z
Si Si1 0.702324 0.349307 0.082850
Si Si2 0.000000 0.398720 0.587721
Si Si3 0.290905 0.597172 0.343962
Si Si4 0.653510 0.092821 0.712289
Si Si5 0.071150 0.292569 0.679619
Si Si6 0.136347 0.309203 0.917829
O O1 0.750752 0.352268 0.119889
O O2 0.671639 0.408249 0.131317
O O3 0.674561 0.263296 0.085068
O O4 0.707372 0.374070 0.000000
O O5 0.041536 0.352728 0.628392
O O6 0.000000 0.500000 0.598585
O O7 0.000000 0.385286 0.500000
O O8 0.277665 0.500000 0.343043
O O9 0.306060 0.623097 0.263706
O O10 0.336813 0.611821 0.387994
O O11 0.611510 0.152867 0.713053
O O12 0.641799 0.000000 0.736285
O O13 0.049185 0.250000 0.750000
O O14 0.095210 0.223219 0.629813
O O15 0.122508 0.319988 0.000000
#
# Coordination Sequence:
#
# PCOD9512912 Si02
#       6
#    32  16  32  32  32  32
#     4  10  21  34  52  77 111 157 208 257 304 345
#     4  11  25  44  70 102 127 149 184 238 302 363
#     4  11  21  34  52  77 112 155 205 255 294 338
#     4  10  21  36  55  82 117 154 197 245 295 344
#     4  11  21  41  65  91 120 156 191 232 286 366
#     4  10  21  37  56  82 116 156 200 246 295 347
#
# _framework density 19.792141999999998
#
# number of rings (size 3 to 8) (size 9 to 14) (size 15 to 20)
#    0.000    1.545    1.818    3.545    0.000    6.182 
#    0.000    1.818    0.000    0.000    0.000    0.000 
#    0.000    5.091    0.000    0.000    0.000    0.000 
#
# Total GULP energy -245412.760817 kJ/mol
# GULP energy per Si atom -5577.562746 kJ/mol
# Density = 1.974709 g / cm^3
# Si number density = 19.792142 Si / 1000 Ang^3
#
#
#
# Elastic Constant Matrix: (Units=GPa)
#
#
# Indices 1 2 3 4 5 6 
#
# 1 79.9496 20.7533 46.4927 0.0000 0.0000 0.0000
# 2 20.7533 39.6510 35.9202 0.0000 0.0000 0.0000
# 3 46.4927 35.9202 152.5568 0.0000 0.0000 0.0000
# 4 0.0000 0.0000 0.0000 23.2078 0.0000 0.0000
# 5 0.0000 0.0000 0.0000 0.0000 25.6004 0.0000
# 6 0.0000 0.0000 0.0000 0.0000 0.0000 10.4435
#
#
#
# Elastic Compliance Matrix: (Units=1/GPa)
#
#
# Indices 1 2 3 4 5 6 
#
# 1 0.015950 -0.005014 -0.003680 0.000000 0.000000 0.000000
# 2 -0.005014 0.033634 -0.006391 0.000000 0.000000 0.000000
# 3 -0.003680 -0.006391 0.009181 0.000000 0.000000 0.000000
# 4 0.000000 0.000000 0.000000 0.043089 0.000000 0.000000
# 5 0.000000 0.000000 0.000000 0.000000 0.039062 0.000000
# 6 0.000000 0.000000 0.000000 0.000000 0.000000 0.095753
#
#
# Mechanical properties :
#
#
# Convention : Reuss Voigt Hill
#
# Bulk Modulus (GPa) = 34.97216 53.16554 44.06885
# Shear Modulus (GPa) = 18.09158 23.11642 20.60400
#
# Velocity S-wave (km/s) = 3.02665 3.42125 3.22998
# Velocity P-wave (km/s) = 5.47012 6.52126 6.01868
#
# Compressibility (1/GPa) = 0.02859417
#
# Stress axis : x y z
#
# Youngs Moduli (GPa) = 62.69772 29.73154 108.91660
#
# Poissons Ratio (x) = 0.14908 0.40083
# Poissons Ratio (y) = 0.31437 0.69612
# Poissons Ratio (z) = 0.23074 0.19002
#
# Static dielectric constant tensor:
#      x y z
#    x 1.693700 0.000000 0.000000 
#    y 0.000000 1.720440 0.000000 
#    z 0.000000 0.000000 1.738900 
# 
# From -- ./inp_files/23555.got.cif
#   From: 2010.05.17/outbox.cif.g08.bks.cpg/sg69_12_cif.got.tgz:23555.got - 2010.06.03 19:29:58.
