data_PCOD9512551
_publ_section_title
;
Structure prediction by ZEFSAII (Michael W. Deem and Ramdas Pophale) SiO2 
 PCOD9512551
Probable space group: F M M M
;
_chemical_formula_sum "Si O2"
_cell_formula_units_Z 160
_cell_length_a 17.271873
_cell_length_b 19.723969
_cell_length_c 21.489458
_cell_angle_alpha 90.000000
_cell_angle_beta 90.000000
_cell_angle_gamma 90.000000
_cell_volume 7320.811242
_symmetry_space_group_name_H-M "F M M M"
_symmetry_group_IT_number 69
_symmetry_cell_setting 'orthorhombic'
loop_
_space_group_symop_operation_xyz
x,y,z
-x,-y,z
x,-y,-z
-x,y,-z
-x,-y,-z
x,y,-z
-x,y,z
x,-y,z
x,1/2+y,1/2+z
-x,1/2-y,1/2+z
x,1/2-y,1/2-z
-x,1/2+y,1/2-z
-x,1/2-y,1/2-z
x,1/2+y,1/2-z
-x,1/2+y,1/2+z
x,1/2-y,1/2+z
1/2+x,y,1/2+z
1/2-x,-y,1/2+z
1/2+x,-y,1/2-z
1/2-x,y,1/2-z
1/2-x,-y,1/2-z
1/2+x,y,1/2-z
1/2-x,y,1/2+z
1/2+x,-y,1/2+z
1/2+x,1/2+y,z
1/2-x,1/2-y,z
1/2+x,1/2-y,-z
1/2-x,1/2+y,-z
1/2-x,1/2-y,-z
1/2+x,1/2+y,-z
1/2-x,1/2+y,z
1/2+x,1/2-y,z
loop_
_atom_site_type_symbol
_atom_site_label
_atom_site_fract_x
_atom_site_fract_y
_atom_site_fract_z
Si Si1 0.586226 0.683857 0.837590
Si Si2 0.859265 0.923992 0.072921
Si Si3 0.818119 0.925006 0.605764
Si Si4 0.906654 0.576393 0.236337
Si Si5 0.338127 0.276816 0.432984
O O1 0.500000 0.705057 0.820830
O O2 0.587361 0.629925 0.894037
O O3 0.617465 0.638773 0.780516
O O4 0.628584 0.746757 0.869044
O O5 0.775241 0.920943 0.105854
O O6 0.890112 0.000000 0.078417
O O7 0.846569 0.909975 0.000000
O O8 0.858112 0.921572 0.673068
O O9 0.843066 0.857802 0.570025
O O10 0.836841 0.000000 0.579355
O O11 0.894195 0.500000 0.263795
O O12 0.000000 0.581827 0.225730
O O13 0.373213 0.254935 0.500000
O O14 0.250000 0.250000 0.434043
#
# Coordination Sequence:
#
# PCOD9512551 Si02
#       5
#    32  32  32  32  32
#     4  11  23  39  61  91 126 164 206 252 310 379
#     4  10  20  35  58  89 124 163 205 253 311 369
#     4  10  21  39  65  93 121 162 215 260 306 369
#     4   9  20  40  64  92 130 171 208 255 314 370
#     4  11  23  41  62  88 127 170 208 255 312 369
#
# _framework density 21.855501
#
# number of rings (size 3 to 8) (size 9 to 14) (size 15 to 20)
#    0.000    1.800    2.000    1.800    0.000    6.400 
#    0.000    7.000    0.000    1.800    0.000   14.000 
#    0.000    0.000    0.000    0.000    0.000    0.000 
#
# Total GULP energy -223141.959986 kJ/mol
# GULP energy per Si atom -5578.549000 kJ/mol
# Density = 2.180576 g / cm^3
# Si number density = 21.855501 Si / 1000 Ang^3
#
#
#
# Elastic Constant Matrix: (Units=GPa)
#
#
# Indices 1 2 3 4 5 6 
#
# 1 21.8674 15.0791 27.8740 0.0000 0.0000 0.0000
# 2 15.0791 141.4295 40.9641 0.0000 0.0000 0.0000
# 3 27.8740 40.9641 97.2685 0.0000 0.0000 0.0000
# 4 0.0000 0.0000 0.0000 98.8794 0.0000 0.0000
# 5 0.0000 0.0000 0.0000 0.0000 -37.3746 0.0000
# 6 0.0000 0.0000 0.0000 0.0000 0.0000 23.9665
#
#
#
# Elastic Compliance Matrix: (Units=1/GPa)
#
#
# Indices 1 2 3 4 5 6 
#
# 1 0.072518 -0.001951 -0.019960 0.000000 0.000000 0.000000
# 2 -0.001951 0.008105 -0.002855 0.000000 0.000000 0.000000
# 3 -0.019960 -0.002855 0.017203 0.000000 0.000000 0.000000
# 4 0.000000 0.000000 0.000000 0.010113 0.000000 0.000000
# 5 0.000000 0.000000 0.000000 0.000000 -0.026756 0.000000
# 6 0.000000 0.000000 0.000000 0.000000 0.000000 0.041725
#
#
# Mechanical properties :
#
#
# Convention : Reuss Voigt Hill
#
# Bulk Modulus (GPa) = 20.70558 47.59999 34.15279
# Shear Modulus (GPa) = 26.52003 28.87080 27.69542
#
# Velocity S-wave (km/s) = 3.48721 3.63848 3.56365
# Velocity P-wave (km/s) = 5.07036 6.28316 5.70906
#
# Compressibility (1/GPa) = 0.04829615
#
# Stress axis : x y z
#
# Youngs Moduli (GPa) = 13.78973 123.37384 58.12988
#
# Poissons Ratio (x) = 0.24065 1.16026
# Poissons Ratio (y) = 0.02690 0.16594
# Poissons Ratio (z) = 0.27524 0.35218
#
# Static dielectric constant tensor:
#      x y z
#    x 1.787640 0.000000 0.000000 
#    y 0.000000 1.849900 0.000000 
#    z 0.000000 0.000000 1.791010 
# 
# From -- ./inp_files/24565.got.cif
#   From: 2010.05.17/outbox.cif.g08.bks.cpg/sg69_13_cif.got.tgz:24565.got - 2010.06.03 19:29:58.
