data_PCOD9512825
_publ_section_title
;
Structure prediction by ZEFSAII (Michael W. Deem and Ramdas Pophale) SiO2 
 PCOD9512825
Probable space group: F M M M
;
_chemical_formula_sum "Si O2"
_cell_formula_units_Z 104
_cell_length_a 24.724105
_cell_length_b 24.940288
_cell_length_c 7.858983
_cell_angle_alpha 90.000000
_cell_angle_beta 90.000000
_cell_angle_gamma 90.000000
_cell_volume 4846.055603
_symmetry_space_group_name_H-M "F M M M"
_symmetry_group_IT_number 69
_symmetry_cell_setting 'orthorhombic'
loop_
_space_group_symop_operation_xyz
x,y,z
-x,-y,z
x,-y,-z
-x,y,-z
-x,-y,-z
x,y,-z
-x,y,z
x,-y,z
x,1/2+y,1/2+z
-x,1/2-y,1/2+z
x,1/2-y,1/2-z
-x,1/2+y,1/2-z
-x,1/2-y,1/2-z
x,1/2+y,1/2-z
-x,1/2+y,1/2+z
x,1/2-y,1/2+z
1/2+x,y,1/2+z
1/2-x,-y,1/2+z
1/2+x,-y,1/2-z
1/2-x,y,1/2-z
1/2-x,-y,1/2-z
1/2+x,y,1/2-z
1/2-x,y,1/2+z
1/2+x,-y,1/2+z
1/2+x,1/2+y,z
1/2-x,1/2-y,z
1/2+x,1/2-y,-z
1/2-x,1/2+y,-z
1/2-x,1/2-y,-z
1/2+x,1/2+y,-z
1/2-x,1/2+y,z
1/2+x,1/2-y,z
loop_
_atom_site_type_symbol
_atom_site_label
_atom_site_fract_x
_atom_site_fract_y
_atom_site_fract_z
Si Si1 0.615842 0.000000 0.305970
Si Si2 0.000000 0.000000 0.254376
Si Si3 0.394235 0.312041 0.296372
Si Si4 0.187338 0.899186 0.296246
Si Si5 0.000000 0.879383 0.709721
O O1 0.652969 0.051641 0.277376
O O2 0.594501 0.000000 0.500000
O O3 0.563161 0.000000 0.185987
O O4 0.000000 0.062914 0.200795
O O5 0.394333 0.314277 0.500000
O O6 0.395979 0.250000 0.250000
O O7 0.341352 0.344324 0.236446
O O8 0.447256 0.345176 0.242472
O O9 0.182972 0.902695 0.500000
O O10 0.250000 0.902182 0.250000
O O11 0.000000 0.888024 0.500000
#
# Coordination Sequence:
#
# PCOD9512825 Si02
#       5
#    16   8  32  32  16
#     4  12  25  42  64  96 132 163 204 255 317 376
#     4  12  22  40  66  98 131 158 205 254 317 370
#     4  10  22  40  63  92 124 165 211 256 311 370
#     4  11  24  43  66  92 125 167 213 259 313 372
#     4  10  20  38  64  94 126 163 206 256 313 380
#
# _framework density 21.460751999999999
#
# number of rings (size 3 to 8) (size 9 to 14) (size 15 to 20)
#    0.000    1.231    3.077    2.769    0.000    4.308 
#    0.000    3.077    0.000    0.000    0.000    0.000 
#    0.000    0.000    0.000    0.000    0.000    0.000 
#
# Total GULP energy -145105.023477 kJ/mol
# GULP energy per Si atom -5580.962441 kJ/mol
# Density = 2.141191 g / cm^3
# Si number density = 21.460752 Si / 1000 Ang^3
#
#
#
# Elastic Constant Matrix: (Units=GPa)
#
#
# Indices 1 2 3 4 5 6 
#
# 1 197.2028 97.2159 17.7801 -0.0062 -0.0204 0.0046
# 2 97.2159 220.6566 19.0108 -0.0040 -0.0285 0.0037
# 3 17.7801 19.0108 65.6315 -0.0204 -0.0323 0.0143
# 4 -0.0062 -0.0040 -0.0204 -17.3868 -0.0236 0.0175
# 5 -0.0204 -0.0285 -0.0323 -0.0236 154.6026 -0.0202
# 6 0.0046 0.0037 0.0143 0.0175 -0.0202 23.4034
#
#
#
# Elastic Compliance Matrix: (Units=1/GPa)
#
#
# Indices 1 2 3 4 5 6 
#
# 1 0.006536 -0.002797 -0.000961 -0.000001 0.000000 0.000000
# 2 -0.002797 0.005845 -0.000935 0.000001 0.000001 0.000000
# 3 -0.000961 -0.000935 0.015768 -0.000018 0.000003 -0.000009
# 4 -0.000001 0.000001 -0.000018 -0.057515 -0.000009 0.000043
# 5 0.000000 0.000001 0.000003 -0.000009 0.006468 0.000006
# 6 0.000000 0.000000 -0.000009 0.000043 0.000006 0.042729
#
#
# Mechanical properties :
#
#
# Convention : Reuss Voigt Hill
#
# Bulk Modulus (GPa) = 53.29587 83.50052 68.39820
# Shear Modulus (GPa) = 140.95939 55.42277 98.19108
#
# Velocity S-wave (km/s) = 8.11326 5.08736 6.77149
# Velocity P-wave (km/s) = 10.61389 8.57329 9.64769
#
# Compressibility (1/GPa) = 0.01876318
#
# Stress axis : x y z
#
# Youngs Moduli (GPa) = 152.98985 171.09219 63.42071
#
# Poissons Ratio (x) = 0.47855 0.06092
# Poissons Ratio (y) = 0.42791 0.05932
# Poissons Ratio (z) = 0.14696 0.16002
#
# Static dielectric constant tensor:
#      x y z
#    x 1.756140 0.000000 0.000000 
#    y 0.000000 1.741230 0.000000 
#    z 0.000000 0.000000 1.872830 
# 
# From -- ./inp_files/2965.got.cif
#   From: 2010.05.17/outbox.cif.g08.bks.cpg/sg69_2_cif.got.tgz:2965.got - 2010.06.03 19:29:58.
