data_PCOD9512898
_publ_section_title
;
Structure prediction by ZEFSAII (Michael W. Deem and Ramdas Pophale) SiO2 
 PCOD9512898
Probable space group: F M M M
;
_chemical_formula_sum "Si O2"
_cell_formula_units_Z 168
_cell_length_a 20.861124
_cell_length_b 28.445497
_cell_length_c 14.279478
_cell_angle_alpha 90.000000
_cell_angle_beta 90.000000
_cell_angle_gamma 90.000000
_cell_volume 8473.514216
_symmetry_space_group_name_H-M "F M M M"
_symmetry_group_IT_number 69
_symmetry_cell_setting 'orthorhombic'
loop_
_space_group_symop_operation_xyz
x,y,z
-x,-y,z
x,-y,-z
-x,y,-z
-x,-y,-z
x,y,-z
-x,y,z
x,-y,z
x,1/2+y,1/2+z
-x,1/2-y,1/2+z
x,1/2-y,1/2-z
-x,1/2+y,1/2-z
-x,1/2-y,1/2-z
x,1/2+y,1/2-z
-x,1/2+y,1/2+z
x,1/2-y,1/2+z
1/2+x,y,1/2+z
1/2-x,-y,1/2+z
1/2+x,-y,1/2-z
1/2-x,y,1/2-z
1/2-x,-y,1/2-z
1/2+x,y,1/2-z
1/2-x,y,1/2+z
1/2+x,-y,1/2+z
1/2+x,1/2+y,z
1/2-x,1/2-y,z
1/2+x,1/2-y,-z
1/2-x,1/2+y,-z
1/2-x,1/2-y,-z
1/2+x,1/2+y,-z
1/2-x,1/2+y,z
1/2+x,1/2-y,z
loop_
_atom_site_type_symbol
_atom_site_label
_atom_site_fract_x
_atom_site_fract_y
_atom_site_fract_z
Si Si1 0.685544 0.424602 0.890948
Si Si2 0.390685 0.322105 0.605139
Si Si3 0.392461 0.781647 0.391776
Si Si4 0.250000 0.000000 0.750000
Si Si5 0.756819 0.322485 0.638482
Si Si6 0.573022 0.123708 0.715674
O O1 0.725994 0.459424 0.826058
O O2 0.719954 0.373954 0.891397
O O3 0.619106 0.413007 0.836631
O O4 0.677019 0.439189 0.000000
O O5 0.415037 0.330749 0.500000
O O6 0.412991 0.270419 0.639592
O O7 0.314031 0.316262 0.600363
O O8 0.406501 0.362961 0.678457
O O9 0.410977 0.785824 0.500000
O O10 0.314888 0.787683 0.386462
O O11 0.419564 0.826088 0.336749
O O12 0.750000 0.320713 0.750000
O O13 0.500000 0.108105 0.713585
#
# Coordination Sequence:
#
# PCOD9512898 Si02
#       6
#    32  32  32   8  32  32
#     4  11  23  41  66  95 123 153 191 235 298 375
#     4  11  21  33  52  81 118 165 217 269 318 356
#     4  10  21  33  51  81 116 160 215 269 316 359
#     4  12  22  44  70 104 126 138 166 232 308 370
#     4  11  18  33  56  83 117 156 196 250 316 374
#     4  11  23  40  58  80 118 169 215 254 293 345
#
# _framework density 19.826485000000002
#
# number of rings (size 3 to 8) (size 9 to 14) (size 15 to 20)
#    0.000    1.143    4.762    4.857    0.000    5.714 
#    0.000    3.333    0.000    1.143    0.000    0.000 
#    0.000    7.619    0.000    0.000    0.000    0.000 
#
# Total GULP energy -234028.429285 kJ/mol
# GULP energy per Si atom -5572.105459 kJ/mol
# Density = 1.978136 g / cm^3
# Si number density = 19.826485 Si / 1000 Ang^3
#
#
#
# Elastic Constant Matrix: (Units=GPa)
#
#
# Indices 1 2 3 4 5 6 
#
# 1 63.7412 26.1913 25.9627 0.0000 0.0000 0.0000
# 2 26.1913 66.3034 42.2902 0.0000 0.0000 0.0000
# 3 25.9627 42.2902 170.5111 0.0000 0.0000 0.0000
# 4 0.0000 0.0000 0.0000 -20.6516 0.0000 0.0000
# 5 0.0000 0.0000 0.0000 0.0000 -208.8960 0.0000
# 6 0.0000 0.0000 0.0000 0.0000 0.0000 3.3365
#
#
#
# Elastic Compliance Matrix: (Units=1/GPa)
#
#
# Indices 1 2 3 4 5 6 
#
# 1 0.018940 -0.006703 -0.001222 0.000000 0.000000 0.000000
# 2 -0.006703 0.020288 -0.004011 0.000000 0.000000 0.000000
# 3 -0.001222 -0.004011 0.007046 0.000000 0.000000 0.000000
# 4 0.000000 0.000000 0.000000 -0.048422 0.000000 0.000000
# 5 0.000000 0.000000 0.000000 0.000000 -0.004787 0.000000
# 6 0.000000 0.000000 0.000000 0.000000 0.000000 0.299711
#
#
# Mechanical properties :
#
#
# Convention : Reuss Voigt Hill
#
# Bulk Modulus (GPa) = 44.63664 54.38266 49.50965
# Shear Modulus (GPa) = 15.42663 -31.50145 -8.03741
#
# Velocity S-wave (km/s) = 2.79244 -3.99037 -2.01561
# Velocity P-wave (km/s) = 5.74103 2.50162 4.42818
#
# Compressibility (1/GPa) = 0.02240312
#
# Stress axis : x y z
#
# Youngs Moduli (GPa) = 52.79801 49.28914 141.93226
#
# Poissons Ratio (x) = 0.33037 0.17337
# Poissons Ratio (y) = 0.35389 0.56934
# Poissons Ratio (z) = 0.06449 0.19772
#
# Static dielectric constant tensor:
#      x y z
#    x 1.733380 0.000000 0.000000 
#    y 0.000000 1.646780 0.000000 
#    z 0.000000 0.000000 1.751310 
# 
# From -- ./inp_files/16890.got.cif
#   From: 2010.05.17/outbox.cif.g08.bks.cpg/sg69_9_cif.got.tgz:16890.got - 2010.06.03 19:29:58.
