data_PCOD9512821
_publ_section_title
;
Structure prediction by ZEFSAII (Michael W. Deem and Ramdas Pophale) SiO2 
 PCOD9512821
Probable space group: F M M M
;
_chemical_formula_sum "Si O2"
_cell_formula_units_Z 184
_cell_length_a 26.169273
_cell_length_b 20.731491
_cell_length_c 17.834548
_cell_angle_alpha 90.000000
_cell_angle_beta 90.000000
_cell_angle_gamma 90.000000
_cell_volume 9675.742508
_symmetry_space_group_name_H-M "F M M M"
_symmetry_group_IT_number 69
_symmetry_cell_setting 'orthorhombic'
loop_
_space_group_symop_operation_xyz
x,y,z
-x,-y,z
x,-y,-z
-x,y,-z
-x,-y,-z
x,y,-z
-x,y,z
x,-y,z
x,1/2+y,1/2+z
-x,1/2-y,1/2+z
x,1/2-y,1/2-z
-x,1/2+y,1/2-z
-x,1/2-y,1/2-z
x,1/2+y,1/2-z
-x,1/2+y,1/2+z
x,1/2-y,1/2+z
1/2+x,y,1/2+z
1/2-x,-y,1/2+z
1/2+x,-y,1/2-z
1/2-x,y,1/2-z
1/2-x,-y,1/2-z
1/2+x,y,1/2-z
1/2-x,y,1/2+z
1/2+x,-y,1/2+z
1/2+x,1/2+y,z
1/2-x,1/2-y,z
1/2+x,1/2-y,-z
1/2-x,1/2+y,-z
1/2-x,1/2-y,-z
1/2+x,1/2+y,-z
1/2-x,1/2+y,z
1/2+x,1/2-y,z
loop_
_atom_site_type_symbol
_atom_site_label
_atom_site_fract_x
_atom_site_fract_y
_atom_site_fract_z
Si Si1 0.702380 0.859890 0.414346
Si Si2 0.171662 0.000000 0.500000
Si Si3 0.938447 0.926700 0.000000
Si Si4 0.876902 0.255564 0.913215
Si Si5 0.647054 0.575078 0.221079
Si Si6 0.681983 0.617035 0.380440
Si Si7 0.439689 0.651163 0.152953
O O1 0.694567 0.882781 0.500000
O O2 0.671687 0.792899 0.405844
O O3 0.679836 0.908017 0.352635
O O4 0.762459 0.854139 0.399938
O O5 0.172925 0.943217 0.565230
O O6 0.926110 0.887283 0.075233
O O7 0.000000 0.931402 0.000000
O O8 0.917922 0.000000 0.000000
O O9 0.859260 0.326757 0.893153
O O10 0.920244 0.223546 0.861760
O O11 0.893410 0.253806 0.000000
O O12 0.634433 0.500000 0.222819
O O13 0.678173 0.594793 0.294634
O O14 0.595227 0.616866 0.214646
O O15 0.500000 0.646947 0.165583
#
# Coordination Sequence:
#
# PCOD9512821 Si02
#       7
#    32   8  16  32  32  32  32
#     4  10  22  38  61  90 126 166 205 251 307 372
#     4  12  24  38  66  88 115 168 223 252 306 366
#     4   9  16  29  55  86 117 153 186 218 278 370
#     4  10  20  38  63  92 121 161 206 258 305 365
#     4  11  25  38  58  93 131 165 204 252 306 369
#     4  12  23  41  61  89 120 166 217 262 307 356
#     4  10  21  39  62  91 123 157 197 246 311 376
#
# _framework density 19.016628999999998
#
# number of rings (size 3 to 8) (size 9 to 14) (size 15 to 20)
#    0.000    1.478    3.478    1.565    2.435    6.261 
#    0.000    5.217    0.000    0.000    0.000    2.435 
#    0.000    0.000    0.000    0.000    0.000    0.000 
#
# Total GULP energy -256438.269562 kJ/mol
# GULP energy per Si atom -5574.744990 kJ/mol
# Density = 1.897335 g / cm^3
# Si number density = 19.016629 Si / 1000 Ang^3
#
#
#
# Elastic Constant Matrix: (Units=GPa)
#
#
# Indices 1 2 3 4 5 6 
#
# 1 48.6577 2.7737 22.6131 0.0000 0.0000 0.0000
# 2 2.7737 54.5113 8.3216 0.0000 0.0000 0.0000
# 3 22.6131 8.3216 109.5728 0.0000 0.0000 0.0000
# 4 0.0000 0.0000 0.0000 25.8636 0.0000 0.0000
# 5 0.0000 0.0000 0.0000 0.0000 11.2631 0.0000
# 6 0.0000 0.0000 0.0000 0.0000 0.0000 11.9570
#
#
#
# Elastic Compliance Matrix: (Units=1/GPa)
#
#
# Indices 1 2 3 4 5 6 
#
# 1 0.022743 -0.000446 -0.004660 0.000000 0.000000 0.000000
# 2 -0.000446 0.018569 -0.001318 0.000000 0.000000 0.000000
# 3 -0.004660 -0.001318 0.010188 0.000000 0.000000 0.000000
# 4 0.000000 0.000000 0.000000 0.038664 0.000000 0.000000
# 5 0.000000 0.000000 0.000000 0.000000 0.088786 0.000000
# 6 0.000000 0.000000 0.000000 0.000000 0.000000 0.083633
#
#
# Mechanical properties :
#
#
# Convention : Reuss Voigt Hill
#
# Bulk Modulus (GPa) = 25.87188 31.12875 28.50031
# Shear Modulus (GPa) = 17.34219 21.75229 19.54724
#
# Velocity S-wave (km/s) = 3.02313 3.38576 3.20957
# Velocity P-wave (km/s) = 5.08135 5.62932 5.36234
#
# Compressibility (1/GPa) = 0.03865201
#
# Stress axis : x y z
#
# Youngs Moduli (GPa) = 43.97017 53.85396 98.15363
#
# Poissons Ratio (x) = 0.02401 0.45736
# Poissons Ratio (y) = 0.01961 0.12939
# Poissons Ratio (z) = 0.20489 0.07099
#
# Static dielectric constant tensor:
#      x y z
#    x 1.660590 0.000000 0.000000 
#    y 0.000000 1.651410 0.000000 
#    z 0.000000 0.000000 1.664760 
# 
# From -- ./inp_files/26913.got.cif
#   From: 2010.05.17/outbox.cif.g08.bks.cpg/sg69_14_cif.got.tgz:26913.got - 2010.06.03 19:29:58.
