data_PCOD9512219
_publ_section_title
;
Structure prediction by ZEFSAII (Michael W. Deem and Ramdas Pophale) SiO2 
 PCOD9512219
Probable space group: F M M M
;
_chemical_formula_sum "Si O2"
_cell_formula_units_Z 144
_cell_length_a 15.968637
_cell_length_b 32.789845
_cell_length_c 15.371068
_cell_angle_alpha 90.000000
_cell_angle_beta 90.000000
_cell_angle_gamma 90.000000
_cell_volume 8048.431575
_symmetry_space_group_name_H-M "F M M M"
_symmetry_group_IT_number 69
_symmetry_cell_setting 'orthorhombic'
loop_
_space_group_symop_operation_xyz
x,y,z
-x,-y,z
x,-y,-z
-x,y,-z
-x,-y,-z
x,y,-z
-x,y,z
x,-y,z
x,1/2+y,1/2+z
-x,1/2-y,1/2+z
x,1/2-y,1/2-z
-x,1/2+y,1/2-z
-x,1/2-y,1/2-z
x,1/2+y,1/2-z
-x,1/2+y,1/2+z
x,1/2-y,1/2+z
1/2+x,y,1/2+z
1/2-x,-y,1/2+z
1/2+x,-y,1/2-z
1/2-x,y,1/2-z
1/2-x,-y,1/2-z
1/2+x,y,1/2-z
1/2-x,y,1/2+z
1/2+x,-y,1/2+z
1/2+x,1/2+y,z
1/2-x,1/2-y,z
1/2+x,1/2-y,-z
1/2-x,1/2+y,-z
1/2-x,1/2-y,-z
1/2+x,1/2+y,-z
1/2-x,1/2+y,z
1/2+x,1/2-y,z
loop_
_atom_site_type_symbol
_atom_site_label
_atom_site_fract_x
_atom_site_fract_y
_atom_site_fract_z
Si Si1 0.404271 0.000000 0.102778
Si Si2 0.791893 0.576022 0.840838
Si Si3 0.903389 0.152444 0.284438
Si Si4 0.659923 0.363345 0.094182
Si Si5 0.797586 0.291876 0.098996
O O1 0.348942 0.039516 0.125848
O O2 0.500000 0.000000 0.140362
O O3 0.413539 0.000000 0.000000
O O4 0.750000 0.563446 0.750000
O O5 0.852799 0.614457 0.824483
O O6 0.714548 0.595112 0.895241
O O7 0.892810 0.146008 0.180701
O O8 0.861160 0.192647 0.326800
O O9 0.000000 0.151261 0.308073
O O10 0.727459 0.326916 0.094241
O O11 0.616666 0.363656 0.000000
O O12 0.750000 0.250000 0.119627
O O13 0.834060 0.288429 0.000000
#
# Coordination Sequence:
#
# PCOD9512219 Si02
#       5
#    16  32  32  32  32
#     4  11  21  30  46  76 109 133 160 212 272 313
#     4   9  18  34  53  71  97 137 179 210 247 308
#     4  10  20  33  52  78 104 131 167 215 265 306
#     4   9  18  33  52  72  98 135 173 206 246 304
#     4   9  18  34  54  72  95 131 171 207 246 301
#
# _framework density 17.891684999999999
#
# number of rings (size 3 to 8) (size 9 to 14) (size 15 to 20)
#    0.000    2.556    0.000    3.667    0.000    3.556 
#    0.000    2.222    0.000    4.000    0.000    0.000 
#    0.000   16.000    0.000    0.000    0.000    0.222 
#
# Total GULP energy -200407.892141 kJ/mol
# GULP energy per Si atom -5566.885893 kJ/mol
# Density = 1.785096 g / cm^3
# Si number density = 17.891685 Si / 1000 Ang^3
#
#
#
# Elastic Constant Matrix: (Units=GPa)
#
#
# Indices 1 2 3 4 5 6 
#
# 1 72.8698 27.5471 31.7231 0.0000 0.0000 0.0000
# 2 27.5471 89.0913 44.7045 0.0000 0.0000 0.0000
# 3 31.7231 44.7045 89.9431 0.0000 0.0000 0.0000
# 4 0.0000 0.0000 0.0000 23.7852 0.0000 0.0000
# 5 0.0000 0.0000 0.0000 0.0000 5.8649 0.0000
# 6 0.0000 0.0000 0.0000 0.0000 0.0000 30.7942
#
#
#
# Elastic Compliance Matrix: (Units=1/GPa)
#
#
# Indices 1 2 3 4 5 6 
#
# 1 0.016777 -0.002955 -0.004448 0.000000 0.000000 0.000000
# 2 -0.002955 0.015475 -0.006649 0.000000 0.000000 0.000000
# 3 -0.004448 -0.006649 0.015992 0.000000 0.000000 0.000000
# 4 0.000000 0.000000 0.000000 0.042043 0.000000 0.000000
# 5 0.000000 0.000000 0.000000 0.000000 0.170506 0.000000
# 6 0.000000 0.000000 0.000000 0.000000 0.000000 0.032474
#
#
# Mechanical properties :
#
#
# Convention : Reuss Voigt Hill
#
# Bulk Modulus (GPa) = 49.65748 51.09484 50.37616
# Shear Modulus (GPa) = 15.24002 21.95082 18.59542
#
# Velocity S-wave (km/s) = 2.92172 3.50647 3.22737
# Velocity P-wave (km/s) = 6.26072 6.70922 6.48885
#
# Compressibility (1/GPa) = 0.02013795
#
# Stress axis : x y z
#
# Youngs Moduli (GPa) = 59.60597 64.62207 62.53190
#
# Poissons Ratio (x) = 0.19098 0.27816
# Poissons Ratio (y) = 0.17615 0.41577
# Poissons Ratio (z) = 0.26515 0.42967
#
# Static dielectric constant tensor:
#      x y z
#    x 1.577440 0.000000 0.000000 
#    y 0.000000 1.612270 0.000000 
#    z 0.000000 0.000000 1.673960 
# 
# From -- ./inp_files/15556.got.cif
#   From: 2010.05.17/outbox.cif.g08.bks.cpg/sg69_8_cif.got.tgz:15556.got - 2010.06.03 19:29:58.
