data_PCOD9512851
_publ_section_title
;
Structure prediction by ZEFSAII (Michael W. Deem and Ramdas Pophale) SiO2 
 PCOD9512851
Probable space group: F M M M
;
_chemical_formula_sum "Si O2"
_cell_formula_units_Z 104
_cell_length_a 14.357630
_cell_length_b 32.964552
_cell_length_c 10.815556
_cell_angle_alpha 90.000000
_cell_angle_beta 90.000000
_cell_angle_gamma 90.000000
_cell_volume 5118.925223
_symmetry_space_group_name_H-M "F M M M"
_symmetry_group_IT_number 69
_symmetry_cell_setting 'orthorhombic'
loop_
_space_group_symop_operation_xyz
x,y,z
-x,-y,z
x,-y,-z
-x,y,-z
-x,-y,-z
x,y,-z
-x,y,z
x,-y,z
x,1/2+y,1/2+z
-x,1/2-y,1/2+z
x,1/2-y,1/2-z
-x,1/2+y,1/2-z
-x,1/2-y,1/2-z
x,1/2+y,1/2-z
-x,1/2+y,1/2+z
x,1/2-y,1/2+z
1/2+x,y,1/2+z
1/2-x,-y,1/2+z
1/2+x,-y,1/2-z
1/2-x,y,1/2-z
1/2-x,-y,1/2-z
1/2+x,y,1/2-z
1/2-x,y,1/2+z
1/2+x,-y,1/2+z
1/2+x,1/2+y,z
1/2-x,1/2-y,z
1/2+x,1/2-y,-z
1/2-x,1/2+y,-z
1/2-x,1/2-y,-z
1/2+x,1/2+y,-z
1/2-x,1/2+y,z
1/2+x,1/2-y,z
loop_
_atom_site_type_symbol
_atom_site_label
_atom_site_fract_x
_atom_site_fract_y
_atom_site_fract_z
Si Si1 0.830339 0.452885 0.000000
Si Si2 0.898319 0.310773 0.142356
Si Si3 0.895474 0.437665 0.500000
Si Si4 0.250000 0.750000 0.250000
Si Si5 0.140037 0.101803 0.261893
O O1 0.714564 0.453608 0.000000
O O2 0.868870 0.429034 0.878636
O O3 0.859015 0.500000 0.000000
O O4 0.817397 0.279699 0.174735
O O5 0.895902 0.353113 0.213956
O O6 0.000000 0.291536 0.160067
O O7 0.888170 0.322575 0.000000
O O8 0.895676 0.414516 0.631147
O O9 0.000000 0.457992 0.500000
O O10 0.250000 0.106559 0.250000
#
# Coordination Sequence:
#
# PCOD9512851 Si02
#       5
#    16  32  16   8  32
#     4  10  22  41  67  92 120 170 221 257 311 382
#     4  11  23  41  65  93 126 167 213 259 314 378
#     4  10  22  37  60  95 127 162 208 264 319 370
#     4  12  24  40  64  96 130 162 206 264 318 372
#     4  10  20  39  66  91 125 169 213 258 314 378
#
# _framework density 20.316766000000001
#
# number of rings (size 3 to 8) (size 9 to 14) (size 15 to 20)
#    0.000    1.538    3.077    1.846    0.000    5.846 
#    2.769    0.000    0.000    6.462    0.000    0.000 
#    0.000    0.000    0.000    0.000    0.000    0.000 
#
# Total GULP energy -144783.630290 kJ/mol
# GULP energy per Si atom -5568.601165 kJ/mol
# Density = 2.027052 g / cm^3
# Si number density = 20.316766 Si / 1000 Ang^3
#
#
#
# Elastic Constant Matrix: (Units=GPa)
#
#
# Indices 1 2 3 4 5 6 
#
# 1 101.3863 26.2766 36.1904 0.0000 0.0000 0.0000
# 2 26.2766 118.7369 63.0965 0.0000 0.0000 0.0000
# 3 36.1904 63.0965 148.6866 0.0000 0.0000 0.0000
# 4 0.0000 0.0000 0.0000 377.9129 0.0000 0.0000
# 5 0.0000 0.0000 0.0000 0.0000 -20.2977 0.0000
# 6 0.0000 0.0000 0.0000 0.0000 0.0000 -34.7272
#
#
#
# Elastic Compliance Matrix: (Units=1/GPa)
#
#
# Indices 1 2 3 4 5 6 
#
# 1 0.010955 -0.001301 -0.002115 0.000000 0.000000 0.000000
# 2 -0.001301 0.011029 -0.004363 0.000000 0.000000 0.000000
# 3 -0.002115 -0.004363 0.009092 0.000000 0.000000 0.000000
# 4 0.000000 0.000000 0.000000 0.002646 0.000000 0.000000
# 5 0.000000 0.000000 0.000000 0.000000 -0.049267 0.000000
# 6 0.000000 0.000000 0.000000 0.000000 0.000000 -0.028796
#
#
# Mechanical properties :
#
#
# Convention : Reuss Voigt Hill
#
# Bulk Modulus (GPa) = 64.44048 68.88187 66.66118
# Shear Modulus (GPa) = -211.77065 80.79401 -65.48832
#
# Velocity S-wave (km/s) = -10.22060 6.31296 -5.68363
# Velocity P-wave (km/s) = 10.36794 9.33357 3.19207
#
# Compressibility (1/GPa) = 0.01551820
#
# Stress axis : x y z
#
# Youngs Moduli (GPa) = 91.28105 90.67355 109.98784
#
# Poissons Ratio (x) = 0.11794 0.23257
# Poissons Ratio (y) = 0.11873 0.47993
# Poissons Ratio (z) = 0.19302 0.39565
#
# Static dielectric constant tensor:
#      x y z
#    x 1.807370 0.000000 0.000000 
#    y 0.000000 1.710610 0.000000 
#    z 0.000000 0.000000 1.703000 
# 
# From -- ./inp_files/7438.got.cif
#   From: 2010.05.17/outbox.cif.g08.bks.cpg/sg69_4_cif.got.tgz:7438.got - 2010.06.03 19:29:58.
