data_PCOD9512376
_publ_section_title
;
Structure prediction by ZEFSAII (Michael W. Deem and Ramdas Pophale) SiO2 
 PCOD9512376
Probable space group: F M M M
;
_chemical_formula_sum "Si O2"
_cell_formula_units_Z 160
_cell_length_a 28.535050
_cell_length_b 15.205773
_cell_length_c 19.488152
_cell_angle_alpha 90.000000
_cell_angle_beta 90.000000
_cell_angle_gamma 90.000000
_cell_volume 8455.860293
_symmetry_space_group_name_H-M "F M M M"
_symmetry_group_IT_number 69
_symmetry_cell_setting 'orthorhombic'
loop_
_space_group_symop_operation_xyz
x,y,z
-x,-y,z
x,-y,-z
-x,y,-z
-x,-y,-z
x,y,-z
-x,y,z
x,-y,z
x,1/2+y,1/2+z
-x,1/2-y,1/2+z
x,1/2-y,1/2-z
-x,1/2+y,1/2-z
-x,1/2-y,1/2-z
x,1/2+y,1/2-z
-x,1/2+y,1/2+z
x,1/2-y,1/2+z
1/2+x,y,1/2+z
1/2-x,-y,1/2+z
1/2+x,-y,1/2-z
1/2-x,y,1/2-z
1/2-x,-y,1/2-z
1/2+x,y,1/2-z
1/2-x,y,1/2+z
1/2+x,-y,1/2+z
1/2+x,1/2+y,z
1/2-x,1/2-y,z
1/2+x,1/2-y,-z
1/2-x,1/2+y,-z
1/2-x,1/2-y,-z
1/2+x,1/2+y,-z
1/2-x,1/2+y,z
1/2+x,1/2-y,z
loop_
_atom_site_type_symbol
_atom_site_label
_atom_site_fract_x
_atom_site_fract_y
_atom_site_fract_z
Si Si1 0.722041 0.500000 0.576025
Si Si2 0.805733 0.000000 0.272711
Si Si3 0.213357 0.671411 0.574305
Si Si4 0.552358 0.730074 0.830702
Si Si5 0.645667 0.665017 0.200940
Si Si6 0.443051 0.400338 0.579679
O O1 0.698863 0.500000 0.500000
O O2 0.691662 0.500000 0.644687
O O3 0.755939 0.416262 0.579937
O O4 0.750000 0.000000 0.250000
O O5 0.832460 0.083956 0.242057
O O6 0.189156 0.671505 0.500000
O O7 0.250000 0.750000 0.576158
O O8 0.178545 0.680301 0.636289
O O9 0.500000 0.706800 0.856680
O O10 0.547175 0.750000 0.750000
O O11 0.593093 0.657361 0.829541
O O12 0.569485 0.818281 0.871193
O O13 0.646443 0.750000 0.250000
O O14 0.428748 0.385989 0.500000
O O15 0.500000 0.401993 0.580638
O O16 0.427881 0.500000 0.600195
#
# Coordination Sequence:
#
# PCOD9512376 Si02
#       6
#    16  16  32  32  32  32
#     4  10  20  36  58  86 116 152 189 243 308 362
#     4  12  22  38  63  90 119 154 202 253 298 371
#     4  10  20  34  55  83 115 149 188 239 305 369
#     4   9  19  37  54  80 121 161 205 255 304 365
#     4  11  23  37  58  87 115 159 204 251 303 373
#     4   8  14  28  56  89 117 153 203 259 318 368
#
# _framework density 18.921789
#
# number of rings (size 3 to 8) (size 9 to 14) (size 15 to 20)
#    0.000    2.200    2.000    1.800    0.000    0.800 
#    7.200    0.500    0.000    1.200    0.000    0.000 
#    0.000    7.200    0.000    0.000    0.000    0.000 
#
# Total GULP energy -222882.471009 kJ/mol
# GULP energy per Si atom -5572.061775 kJ/mol
# Density = 1.887872 g / cm^3
# Si number density = 18.921789 Si / 1000 Ang^3
#
#
#
# Elastic Constant Matrix: (Units=GPa)
#
#
# Indices 1 2 3 4 5 6 
#
# 1 88.8592 56.4201 48.6958 0.0000 0.0000 0.0000
# 2 56.4201 103.4805 33.8893 0.0000 0.0000 0.0000
# 3 48.6958 33.8893 136.4210 0.0000 0.0000 0.0000
# 4 0.0000 0.0000 0.0000 33.4806 0.0000 0.0000
# 5 0.0000 0.0000 0.0000 0.0000 412.9584 0.0000
# 6 0.0000 0.0000 0.0000 0.0000 0.0000 25.4961
#
#
#
# Elastic Compliance Matrix: (Units=1/GPa)
#
#
# Indices 1 2 3 4 5 6 
#
# 1 0.019681 -0.009176 -0.004746 0.000000 0.000000 0.000000
# 2 -0.009176 0.014798 -0.000401 0.000000 0.000000 0.000000
# 3 -0.004746 -0.000401 0.009124 0.000000 0.000000 0.000000
# 4 0.000000 0.000000 0.000000 0.029868 0.000000 0.000000
# 5 0.000000 0.000000 0.000000 0.000000 0.002422 0.000000
# 6 0.000000 0.000000 0.000000 0.000000 0.000000 0.039222
#
#
# Mechanical properties :
#
#
# Convention : Reuss Voigt Hill
#
# Bulk Modulus (GPa) = 66.85560 67.41902 67.13731
# Shear Modulus (GPa) = 33.61473 107.03739 70.32606
#
# Velocity S-wave (km/s) = 4.21944 7.52935 6.10306
# Velocity P-wave (km/s) = 7.69074 10.54969 9.23156
#
# Compressibility (1/GPa) = 0.01495761
#
# Stress axis : x y z
#
# Youngs Moduli (GPa) = 50.81111 67.57686 109.60473
#
# Poissons Ratio (x) = 0.62010 0.52013
# Poissons Ratio (y) = 0.46626 0.04390
# Poissons Ratio (z) = 0.24113 0.02707
#
# Static dielectric constant tensor:
#      x y z
#    x 1.710920 0.000000 0.000000 
#    y 0.000000 1.637480 0.000000 
#    z 0.000000 0.000000 1.625820 
# 
# From -- ./inp_files/27506.got.cif
#   From: 2010.05.17/outbox.cif.g08.bks.cpg/sg69_14_cif.got.tgz:27506.got - 2010.06.03 19:29:58.
