data_PCOD9512049
_publ_section_title
;
Structure prediction by ZEFSAII (Michael W. Deem and Ramdas Pophale) SiO2 
 PCOD9512049
Probable space group: F M M M
;
_chemical_formula_sum "Si O2"
_cell_formula_units_Z 160
_cell_length_a 19.055393
_cell_length_b 30.583889
_cell_length_c 14.921279
_cell_angle_alpha 90.000000
_cell_angle_beta 90.000000
_cell_angle_gamma 90.000000
_cell_volume 8695.942709
_symmetry_space_group_name_H-M "F M M M"
_symmetry_group_IT_number 69
_symmetry_cell_setting 'orthorhombic'
loop_
_space_group_symop_operation_xyz
x,y,z
-x,-y,z
x,-y,-z
-x,y,-z
-x,-y,-z
x,y,-z
-x,y,z
x,-y,z
x,1/2+y,1/2+z
-x,1/2-y,1/2+z
x,1/2-y,1/2-z
-x,1/2+y,1/2-z
-x,1/2-y,1/2-z
x,1/2+y,1/2-z
-x,1/2+y,1/2+z
x,1/2-y,1/2+z
1/2+x,y,1/2+z
1/2-x,-y,1/2+z
1/2+x,-y,1/2-z
1/2-x,y,1/2-z
1/2-x,-y,1/2-z
1/2+x,y,1/2-z
1/2-x,y,1/2+z
1/2+x,-y,1/2+z
1/2+x,1/2+y,z
1/2-x,1/2-y,z
1/2+x,1/2-y,-z
1/2-x,1/2+y,-z
1/2-x,1/2-y,-z
1/2+x,1/2+y,-z
1/2-x,1/2+y,z
1/2+x,1/2-y,z
loop_
_atom_site_type_symbol
_atom_site_label
_atom_site_fract_x
_atom_site_fract_y
_atom_site_fract_z
Si Si1 0.834812 0.179367 0.755144
Si Si2 0.206819 0.949178 0.500000
Si Si3 0.185209 0.051086 0.308700
Si Si4 0.082228 0.092560 0.189077
Si Si5 0.876113 0.948721 0.000000
Si Si6 0.165186 0.245655 0.602655
O O1 0.750000 0.174090 0.750000
O O2 0.874468 0.135127 0.779752
O O3 0.853615 0.202603 0.660543
O O4 0.854494 0.213379 0.834536
O O5 0.182554 0.928171 0.592952
O O6 0.291327 0.948884 0.500000
O O7 0.182439 0.000000 0.500000
O O8 0.250000 0.068796 0.250000
O O9 0.114181 0.055884 0.254367
O O10 0.202005 0.000000 0.322276
O O11 0.098525 0.076399 0.088508
O O12 0.000000 0.099280 0.199423
O O13 0.898466 0.000000 0.000000
O O14 0.139348 0.246157 0.500000
O O15 0.250000 0.250000 0.598827
#
# Coordination Sequence:
#
# PCOD9512049 Si02
#       6
#    32  16  32  32  16  32
#     4   9  19  35  57  87 115 145 192 239 287 345
#     4   9  18  35  61  87 104 133 195 254 292 341
#     4  10  19  36  60  83 110 147 194 244 295 347
#     4  12  25  38  54  84 124 159 193 239 292 356
#     4  11  23  40  61  85 116 155 201 255 308 352
#     4   8  15  33  60  86 112 144 184 239 294 341
#
# _framework density 18.399384999999999
#
# number of rings (size 3 to 8) (size 9 to 14) (size 15 to 20)
#    0.000    2.200    2.000    2.700    1.400    2.000 
#    1.800    2.500    0.000    3.000    0.000    0.000 
#    0.000    0.000    0.000    0.000    0.000    0.000 
#
# Total GULP energy -222857.942741 kJ/mol
# GULP energy per Si atom -5571.448569 kJ/mol
# Density = 1.835751 g / cm^3
# Si number density = 18.399385 Si / 1000 Ang^3
#
#
#
# Elastic Constant Matrix: (Units=GPa)
#
#
# Indices 1 2 3 4 5 6 
#
# 1 57.6514 8.4088 41.2287 0.0000 0.0000 0.0000
# 2 8.4088 54.8902 37.2379 0.0000 0.0000 0.0000
# 3 41.2287 37.2379 190.5523 0.0000 0.0000 0.0000
# 4 0.0000 0.0000 0.0000 15.9969 0.0000 0.0000
# 5 0.0000 0.0000 0.0000 0.0000 4.7693 0.0000
# 6 0.0000 0.0000 0.0000 0.0000 0.0000 6.0457
#
#
#
# Elastic Compliance Matrix: (Units=1/GPa)
#
#
# Indices 1 2 3 4 5 6 
#
# 1 0.020522 -0.000152 -0.004411 0.000000 0.000000 0.000000
# 2 -0.000152 0.021004 -0.004072 0.000000 0.000000 0.000000
# 3 -0.004411 -0.004072 0.006998 0.000000 0.000000 0.000000
# 4 0.000000 0.000000 0.000000 0.062512 0.000000 0.000000
# 5 0.000000 0.000000 0.000000 0.000000 0.209674 0.000000
# 6 0.000000 0.000000 0.000000 0.000000 0.000000 0.165406
#
#
# Mechanical properties :
#
#
# Convention : Reuss Voigt Hill
#
# Bulk Modulus (GPa) = 31.99431 52.98275 42.48853
# Shear Modulus (GPa) = 9.73137 19.77696 14.75416
#
# Velocity S-wave (km/s) = 2.30227 3.28208 2.83483
# Velocity P-wave (km/s) = 4.94912 6.57428 5.81872
#
# Compressibility (1/GPa) = 0.03125555
#
# Stress axis : x y z
#
# Youngs Moduli (GPa) = 48.72835 47.61065 142.90007
#
# Poissons Ratio (x) = 0.00722 0.63027
# Poissons Ratio (y) = 0.00739 0.58185
# Poissons Ratio (z) = 0.21492 0.19386
#
# Static dielectric constant tensor:
#      x y z
#    x 1.601150 0.000000 0.000000 
#    y 0.000000 1.674810 0.000000 
#    z 0.000000 0.000000 1.654440 
# 
# From -- ./inp_files/15668.got.cif
#   From: 2010.05.17/outbox.cif.g08.bks.cpg/sg69_8_cif.got.tgz:15668.got - 2010.06.03 19:29:58.
