data_PCOD9512604
_publ_section_title
;
Structure prediction by ZEFSAII (Michael W. Deem and Ramdas Pophale) SiO2 
 PCOD9512604
Probable space group: F M M M
;
_chemical_formula_sum "Si O2"
_cell_formula_units_Z 160
_cell_length_a 21.482885
_cell_length_b 13.988836
_cell_length_c 28.869178
_cell_angle_alpha 90.000000
_cell_angle_beta 90.000000
_cell_angle_gamma 90.000000
_cell_volume 8675.781397
_symmetry_space_group_name_H-M "F M M M"
_symmetry_group_IT_number 69
_symmetry_cell_setting 'orthorhombic'
loop_
_space_group_symop_operation_xyz
x,y,z
-x,-y,z
x,-y,-z
-x,y,-z
-x,-y,-z
x,y,-z
-x,y,z
x,-y,z
x,1/2+y,1/2+z
-x,1/2-y,1/2+z
x,1/2-y,1/2-z
-x,1/2+y,1/2-z
-x,1/2-y,1/2-z
x,1/2+y,1/2-z
-x,1/2+y,1/2+z
x,1/2-y,1/2+z
1/2+x,y,1/2+z
1/2-x,-y,1/2+z
1/2+x,-y,1/2-z
1/2-x,y,1/2-z
1/2-x,-y,1/2-z
1/2+x,y,1/2-z
1/2-x,y,1/2+z
1/2+x,-y,1/2+z
1/2+x,1/2+y,z
1/2-x,1/2-y,z
1/2+x,1/2-y,-z
1/2-x,1/2+y,-z
1/2-x,1/2-y,-z
1/2+x,1/2+y,-z
1/2-x,1/2+y,z
1/2+x,1/2-y,z
loop_
_atom_site_type_symbol
_atom_site_label
_atom_site_fract_x
_atom_site_fract_y
_atom_site_fract_z
Si Si1 0.816785 0.386797 0.551737
Si Si2 0.926757 0.763539 0.553078
Si Si3 0.925828 0.607668 0.860580
Si Si4 0.229687 0.112913 0.850342
Si Si5 0.158867 0.768064 0.304308
O O1 0.791737 0.366451 0.500000
O O2 0.831418 0.500000 0.553876
O O3 0.879400 0.324828 0.557823
O O4 0.770697 0.367650 0.594529
O O5 0.921712 0.798362 0.500000
O O6 0.908617 0.843113 0.590658
O O7 0.000000 0.738081 0.560564
O O8 0.900150 0.500000 0.856673
O O9 0.902411 0.677200 0.820292
O O10 0.000000 0.601969 0.859506
O O11 0.169522 0.167384 0.830038
O O12 0.286804 0.162437 0.823947
O O13 0.228496 0.000000 0.842558
O O14 0.164038 0.750000 0.250000
#
# Coordination Sequence:
#
# PCOD9512604 Si02
#       5
#    32  32  32  32  32
#     4   9  17  31  53  82 117 152 184 225 277 334
#     4   9  17  31  53  82 115 151 191 230 272 330
#     4  10  21  38  59  83 114 149 185 231 285 337
#     4  10  20  36  57  83 114 146 182 226 276 330
#     4  11  23  38  58  82 107 142 190 235 280 334
#
# _framework density 18.442143000000002
#
# number of rings (size 3 to 8) (size 9 to 14) (size 15 to 20)
#    0.000    2.200    2.000    1.800    0.000    3.600 
#    0.000    7.000    0.000    3.000    0.000    0.000 
#    0.000    0.000    0.000    0.000    0.000    0.000 
#
# Total GULP energy -223003.417213 kJ/mol
# GULP energy per Si atom -5575.085430 kJ/mol
# Density = 1.840017 g / cm^3
# Si number density = 18.442143 Si / 1000 Ang^3
#
#
#
# Elastic Constant Matrix: (Units=GPa)
#
#
# Indices 1 2 3 4 5 6 
#
# 1 25.4370 27.5073 35.6532 0.0000 0.0000 0.0000
# 2 27.5073 114.5314 62.0585 0.0000 0.0000 0.0000
# 3 35.6532 62.0585 163.2867 0.0000 0.0000 0.0000
# 4 0.0000 0.0000 0.0000 16.8464 0.0000 0.0000
# 5 0.0000 0.0000 0.0000 0.0000 31.8357 0.0000
# 6 0.0000 0.0000 0.0000 0.0000 0.0000 27.6596
#
#
#
# Elastic Compliance Matrix: (Units=1/GPa)
#
#
# Indices 1 2 3 4 5 6 
#
# 1 0.064473 -0.009894 -0.010317 0.000000 0.000000 0.000000
# 2 -0.009894 0.012514 -0.002596 0.000000 0.000000 0.000000
# 3 -0.010317 -0.002596 0.009363 0.000000 0.000000 0.000000
# 4 0.000000 0.000000 0.000000 0.059360 0.000000 0.000000
# 5 0.000000 0.000000 0.000000 0.000000 0.031411 0.000000
# 6 0.000000 0.000000 0.000000 0.000000 0.000000 0.036154
#
#
# Mechanical properties :
#
#
# Convention : Reuss Voigt Hill
#
# Bulk Modulus (GPa) = 24.54806 61.52144 43.03475
# Shear Modulus (GPa) = 18.35073 27.13743 22.74408
#
# Velocity S-wave (km/s) = 3.15785 3.84016 3.51560
# Velocity P-wave (km/s) = 5.16099 7.28657 6.31387
#
# Compressibility (1/GPa) = 0.04073642
#
# Stress axis : x y z
#
# Youngs Moduli (GPa) = 15.51028 79.91022 106.79874
#
# Poissons Ratio (x) = 0.79067 1.10185
# Poissons Ratio (y) = 0.15347 0.27721
# Poissons Ratio (z) = 0.16002 0.20742
#
# Static dielectric constant tensor:
#      x y z
#    x 1.676990 0.000000 0.000000 
#    y 0.000000 1.635450 0.000000 
#    z 0.000000 0.000000 1.646360 
# 
# From -- ./inp_files/17740.got.cif
#   From: 2010.05.17/outbox.cif.g08.bks.cpg/sg69_9_cif.got.tgz:17740.got - 2010.06.03 19:29:58.
