data_PCOD9512451
_publ_section_title
;
Structure prediction by ZEFSAII (Michael W. Deem and Ramdas Pophale) SiO2 
 PCOD9512451
Probable space group: F M M M
;
_chemical_formula_sum "Si O2"
_cell_formula_units_Z 160
_cell_length_a 20.468763
_cell_length_b 22.584340
_cell_length_c 19.496901
_cell_angle_alpha 90.000000
_cell_angle_beta 90.000000
_cell_angle_gamma 90.000000
_cell_volume 9012.900722
_symmetry_space_group_name_H-M "F M M M"
_symmetry_group_IT_number 69
_symmetry_cell_setting 'orthorhombic'
loop_
_space_group_symop_operation_xyz
x,y,z
-x,-y,z
x,-y,-z
-x,y,-z
-x,-y,-z
x,y,-z
-x,y,z
x,-y,z
x,1/2+y,1/2+z
-x,1/2-y,1/2+z
x,1/2-y,1/2-z
-x,1/2+y,1/2-z
-x,1/2-y,1/2-z
x,1/2+y,1/2-z
-x,1/2+y,1/2+z
x,1/2-y,1/2+z
1/2+x,y,1/2+z
1/2-x,-y,1/2+z
1/2+x,-y,1/2-z
1/2-x,y,1/2-z
1/2-x,-y,1/2-z
1/2+x,y,1/2-z
1/2-x,y,1/2+z
1/2+x,-y,1/2+z
1/2+x,1/2+y,z
1/2-x,1/2-y,z
1/2+x,1/2-y,-z
1/2-x,1/2+y,-z
1/2-x,1/2-y,-z
1/2+x,1/2+y,-z
1/2-x,1/2+y,z
1/2+x,1/2-y,z
loop_
_atom_site_type_symbol
_atom_site_label
_atom_site_fract_x
_atom_site_fract_y
_atom_site_fract_z
Si Si1 0.117709 0.128049 0.419693
Si Si2 0.324659 0.500000 0.222683
Si Si3 0.237325 0.679942 0.424755
Si Si4 0.184164 0.126518 0.204483
Si Si5 0.420683 0.000000 0.854540
Si Si6 0.073518 0.313261 0.787884
O O1 0.099698 0.133898 0.500000
O O2 0.195301 0.143003 0.414747
O O3 0.084831 0.176709 0.369183
O O4 0.099176 0.061467 0.393880
O O5 0.250000 0.500000 0.250000
O O6 0.329170 0.440012 0.181092
O O7 0.376961 0.500000 0.284922
O O8 0.211055 0.664425 0.500000
O O9 0.250000 0.750000 0.424266
O O10 0.191240 0.666779 0.361382
O O11 0.250000 0.130369 0.250000
O O12 0.126250 0.145008 0.253526
O O13 0.500000 0.000000 0.844499
O O14 0.082413 0.250000 0.750000
O O15 0.000000 0.332436 0.773062
#
# Coordination Sequence:
#
# PCOD9512451 Si02
#       6
#    32  16  32  32  16  32
#     4  11  22  38  59  88 124 159 197 245 304 373
#     4  10  20  35  54  81 114 150 195 248 284 339
#     4  10  21  37  59  88 118 152 200 254 306 360
#     4  11  20  35  59  80 110 151 197 238 290 346
#     4  12  23  38  58  88 127 170 204 243 304 383
#     4  11  23  37  55  84 116 151 198 245 292 356
#
# _framework density 17.752331999999999
#
# number of rings (size 3 to 8) (size 9 to 14) (size 15 to 20)
#    0.000    1.200    4.000    3.300    0.000    2.000 
#    0.000    1.500    0.000    1.800    0.000    0.000 
#    0.000    2.400    0.000    0.000    0.000    0.000 
#
# Total GULP energy -222915.717960 kJ/mol
# GULP energy per Si atom -5572.892949 kJ/mol
# Density = 1.771193 g / cm^3
# Si number density = 17.752332 Si / 1000 Ang^3
#
#
#
# Elastic Constant Matrix: (Units=GPa)
#
#
# Indices 1 2 3 4 5 6 
#
# 1 28.9949 6.4022 -5.9270 0.0000 0.0000 0.0000
# 2 6.4022 64.2752 29.8157 0.0000 0.0000 0.0000
# 3 -5.9270 29.8157 101.4333 0.0000 0.0000 0.0000
# 4 0.0000 0.0000 0.0000 31.9333 0.0000 0.0000
# 5 0.0000 0.0000 0.0000 0.0000 16.8464 0.0000
# 6 0.0000 0.0000 0.0000 0.0000 0.0000 67.6927
#
#
#
# Elastic Compliance Matrix: (Units=1/GPa)
#
#
# Indices 1 2 3 4 5 6 
#
# 1 0.036425 -0.005344 0.003699 0.000000 0.000000 0.000000
# 2 -0.005344 0.018798 -0.005838 0.000000 0.000000 0.000000
# 3 0.003699 -0.005838 0.011791 0.000000 0.000000 0.000000
# 4 0.000000 0.000000 0.000000 0.031315 0.000000 0.000000
# 5 0.000000 0.000000 0.000000 0.000000 0.059360 0.000000
# 6 0.000000 0.000000 0.000000 0.000000 0.000000 0.014773
#
#
# Mechanical properties :
#
#
# Convention : Reuss Voigt Hill
#
# Bulk Modulus (GPa) = 19.21276 28.36502 23.78889
# Shear Modulus (GPa) = 24.41676 34.25533 29.33605
#
# Velocity S-wave (km/s) = 3.71268 4.39751 4.06953
# Velocity P-wave (km/s) = 5.40600 6.46506 5.95910
#
# Compressibility (1/GPa) = 0.05204874
#
# Stress axis : x y z
#
# Youngs Moduli (GPa) = 27.45364 53.19576 84.81123
#
# Poissons Ratio (x) = 0.28429 -0.31374
# Poissons Ratio (y) = 0.14672 0.49513
# Poissons Ratio (z) = -0.10156 0.31056
#
# Static dielectric constant tensor:
#      x y z
#    x 1.602570 0.000000 0.000000 
#    y 0.000000 1.640220 0.000000 
#    z 0.000000 0.000000 1.593900 
# 
# From -- ./inp_files/24641.got.cif
#   From: 2010.05.17/outbox.cif.g08.bks.cpg/sg69_13_cif.got.tgz:24641.got - 2010.06.03 19:29:58.
