data_PCOD9512172
_publ_section_title
;
Structure prediction by ZEFSAII (Michael W. Deem and Ramdas Pophale) SiO2 
 PCOD9512172
Probable space group: F M M M
;
_chemical_formula_sum "Si O2"
_cell_formula_units_Z 208
_cell_length_a 30.369652
_cell_length_b 21.263752
_cell_length_c 19.730299
_cell_angle_alpha 90.000000
_cell_angle_beta 90.000000
_cell_angle_gamma 90.000000
_cell_volume 12741.289413
_symmetry_space_group_name_H-M "F M M M"
_symmetry_group_IT_number 69
_symmetry_cell_setting 'orthorhombic'
loop_
_space_group_symop_operation_xyz
x,y,z
-x,-y,z
x,-y,-z
-x,y,-z
-x,-y,-z
x,y,-z
-x,y,z
x,-y,z
x,1/2+y,1/2+z
-x,1/2-y,1/2+z
x,1/2-y,1/2-z
-x,1/2+y,1/2-z
-x,1/2-y,1/2-z
x,1/2+y,1/2-z
-x,1/2+y,1/2+z
x,1/2-y,1/2+z
1/2+x,y,1/2+z
1/2-x,-y,1/2+z
1/2+x,-y,1/2-z
1/2-x,y,1/2-z
1/2-x,-y,1/2-z
1/2+x,y,1/2-z
1/2-x,y,1/2+z
1/2+x,-y,1/2+z
1/2+x,1/2+y,z
1/2-x,1/2-y,z
1/2+x,1/2-y,-z
1/2-x,1/2+y,-z
1/2-x,1/2-y,-z
1/2+x,1/2+y,-z
1/2-x,1/2+y,z
1/2+x,1/2-y,z
loop_
_atom_site_type_symbol
_atom_site_label
_atom_site_fract_x
_atom_site_fract_y
_atom_site_fract_z
Si Si1 0.710937 0.206408 0.581001
Si Si2 0.111752 0.258599 0.578214
Si Si3 0.051061 0.926002 0.716516
Si Si4 0.176147 0.571587 0.581922
Si Si5 0.948582 0.636547 0.075989
Si Si6 0.587762 0.381105 0.849105
Si Si7 0.000000 0.574816 0.423556
O O1 0.717942 0.202193 0.500000
O O2 0.750000 0.250000 0.609491
O O3 0.664128 0.241378 0.591016
O O4 0.705226 0.133005 0.602708
O O5 0.106402 0.281498 0.500000
O O6 0.085291 0.194018 0.583038
O O7 0.092551 0.309018 0.629685
O O8 0.059250 0.910084 0.638154
O O9 0.082380 0.890966 0.769183
O O10 0.000000 0.908409 0.730330
O O11 0.055395 0.000000 0.728678
O O12 0.169911 0.575691 0.500000
O O13 0.191993 0.500000 0.596208
O O14 0.129510 0.582865 0.618885
O O15 0.000000 0.657884 0.080639
O O16 0.943228 0.609629 0.000000
O O17 0.543506 0.405630 0.883996
O O18 0.000000 0.500000 0.427695
O O19 0.000000 0.601267 0.500000
#
# Coordination Sequence:
#
# PCOD9512172 Si02
#       7
#    32  32  32  32  32  32  16
#     4   8  14  26  45  68  94 125 158 196 243 286
#     4   9  18  31  47  70  98 128 163 198 237 288
#     4  10  20  33  47  65  91 124 164 208 246 283
#     4   9  16  26  41  64  96 131 168 201 230 282
#     4   9  19  34  51  69  90 120 158 203 253 297
#     4  11  19  28  42  65  96 131 162 196 233 276
#     4  11  20  26  36  57  91 137 172 189 217 259
#
# _framework density 16.324877999999998
#
# number of rings (size 3 to 8) (size 9 to 14) (size 15 to 20)
#    0.000    2.538    0.769    3.692    1.077    2.154 
#    0.000    3.077    0.000    0.923    0.000   12.923 
#    0.000    6.154    0.000    0.000    0.000    0.000 
#
# Total GULP energy -289483.207240 kJ/mol
# GULP energy per Si atom -5566.984755 kJ/mol
# Density = 1.628772 g / cm^3
# Si number density = 16.324878 Si / 1000 Ang^3
#
#
#
# Elastic Constant Matrix: (Units=GPa)
#
#
# Indices 1 2 3 4 5 6 
#
# 1 64.4500 37.8803 23.3365 0.0000 0.0000 0.0000
# 2 37.8803 37.7449 14.2684 0.0000 0.0000 0.0000
# 3 23.3365 14.2684 71.4267 0.0000 0.0000 0.0000
# 4 0.0000 0.0000 0.0000 29.7328 0.0000 0.0000
# 5 0.0000 0.0000 0.0000 0.0000 8.6387 0.0000
# 6 0.0000 0.0000 0.0000 0.0000 0.0000 19.5908
#
#
#
# Elastic Compliance Matrix: (Units=1/GPa)
#
#
# Indices 1 2 3 4 5 6 
#
# 1 0.039679 -0.037773 -0.005418 0.000000 0.000000 0.000000
# 2 -0.037773 0.064616 -0.000567 0.000000 0.000000 0.000000
# 3 -0.005418 -0.000567 0.015884 0.000000 0.000000 0.000000
# 4 0.000000 0.000000 0.000000 0.033633 0.000000 0.000000
# 5 0.000000 0.000000 0.000000 0.000000 0.115758 0.000000
# 6 0.000000 0.000000 0.000000 0.000000 0.000000 0.051044
#
#
# Mechanical properties :
#
#
# Convention : Reuss Voigt Hill
#
# Bulk Modulus (GPa) = 30.61557 36.06576 33.34067
# Shear Modulus (GPa) = 11.93269 18.13488 15.03379
#
# Velocity S-wave (km/s) = 2.70654 3.33659 3.03795
# Velocity P-wave (km/s) = 5.34433 6.08147 5.72478
#
# Compressibility (1/GPa) = 0.03266311
#
# Stress axis : x y z
#
# Youngs Moduli (GPa) = 25.20255 15.47602 62.95720
#
# Poissons Ratio (x) = 0.58457 0.34111
# Poissons Ratio (y) = 0.95197 0.03568
# Poissons Ratio (z) = 0.13655 0.00877
#
# Static dielectric constant tensor:
#      x y z
#    x 1.540560 0.000000 0.000000 
#    y 0.000000 1.558880 0.000000 
#    z 0.000000 0.000000 1.562120 
# 
# From -- ./inp_files/27031.got.cif
#   From: 2010.05.17/outbox.cif.g08.bks.cpg/sg69_14_cif.got.tgz:27031.got - 2010.06.03 19:29:58.
