data_PCOD9512464
_publ_section_title
;
Structure prediction by ZEFSAII (Michael W. Deem and Ramdas Pophale) SiO2 
 PCOD9512464
Probable space group: F M M M
;
_chemical_formula_sum "Si O2"
_cell_formula_units_Z 144
_cell_length_a 25.648113
_cell_length_b 25.013629
_cell_length_c 10.469850
_cell_angle_alpha 90.000000
_cell_angle_beta 90.000000
_cell_angle_gamma 90.000000
_cell_volume 6716.957219
_symmetry_space_group_name_H-M "F M M M"
_symmetry_group_IT_number 69
_symmetry_cell_setting 'orthorhombic'
loop_
_space_group_symop_operation_xyz
x,y,z
-x,-y,z
x,-y,-z
-x,y,-z
-x,-y,-z
x,y,-z
-x,y,z
x,-y,z
x,1/2+y,1/2+z
-x,1/2-y,1/2+z
x,1/2-y,1/2-z
-x,1/2+y,1/2-z
-x,1/2-y,1/2-z
x,1/2+y,1/2-z
-x,1/2+y,1/2+z
x,1/2-y,1/2+z
1/2+x,y,1/2+z
1/2-x,-y,1/2+z
1/2+x,-y,1/2-z
1/2-x,y,1/2-z
1/2-x,-y,1/2-z
1/2+x,y,1/2-z
1/2-x,y,1/2+z
1/2+x,-y,1/2+z
1/2+x,1/2+y,z
1/2-x,1/2-y,z
1/2+x,1/2-y,-z
1/2-x,1/2+y,-z
1/2-x,1/2-y,-z
1/2+x,1/2+y,-z
1/2-x,1/2+y,z
1/2+x,1/2-y,z
loop_
_atom_site_type_symbol
_atom_site_label
_atom_site_fract_x
_atom_site_fract_y
_atom_site_fract_z
Si Si1 0.291221 0.086211 0.855470
Si Si2 0.092554 0.060585 0.720268
Si Si3 0.059446 0.435778 0.500000
Si Si4 0.555479 0.171406 0.147291
Si Si5 0.829565 0.706834 0.850249
O O1 0.250000 0.068891 0.750000
O O2 0.348251 0.062574 0.827553
O O3 0.299644 0.150394 0.846694
O O4 0.275155 0.072975 0.000000
O O5 0.088657 0.077370 0.869371
O O6 0.061259 0.107134 0.650525
O O7 0.072393 0.000000 0.706080
O O8 0.055665 0.500000 0.500000
O O9 0.000000 0.414486 0.500000
O O10 0.500000 0.185871 0.209888
O O11 0.610757 0.193625 0.193751
O O12 0.553495 0.188306 0.000000
O O13 0.809392 0.750000 0.750000
O O14 0.829238 0.724328 0.000000
#
# Coordination Sequence:
#
# PCOD9512464 Si02
#       5
#    32  32  16  32  32
#     4  10  23  40  59  84 115 149 192 245 295 344
#     4  10  20  35  55  79 113 152 193 236 283 336
#     4   9  18  32  52  80 114 151 190 236 285 334
#     4   9  18  33  53  78 111 147 183 229 283 337
#     4   9  19  37  57  81 111 143 182 232 284 341
#
# _framework density 21.438279000000001
#
# number of rings (size 3 to 8) (size 9 to 14) (size 15 to 20)
#    0.000    2.556    0.000    2.667    1.556    5.333 
#    6.000    3.333    0.000    0.000    0.000    0.000 
#    0.000    0.000    0.000    0.000    0.000    0.000 
#
# Total GULP energy -200796.560535 kJ/mol
# GULP energy per Si atom -5577.682237 kJ/mol
# Density = 2.138948 g / cm^3
# Si number density = 21.438279 Si / 1000 Ang^3
#
#
#
# Elastic Constant Matrix: (Units=GPa)
#
#
# Indices 1 2 3 4 5 6 
#
# 1 93.5499 -4.9513 33.0341 0.0003 -0.0002 -0.0002
# 2 -4.9513 70.6559 19.6862 0.0005 -0.0004 -0.0001
# 3 33.0341 19.6862 109.8042 0.0018 -0.0014 -0.0007
# 4 0.0003 0.0005 0.0018 19.5054 -0.0008 -0.0004
# 5 -0.0002 -0.0004 -0.0014 -0.0008 21.9607 0.0000
# 6 -0.0002 -0.0001 -0.0007 -0.0004 0.0000 13.4315
#
#
#
# Elastic Compliance Matrix: (Units=1/GPa)
#
#
# Indices 1 2 3 4 5 6 
#
# 1 0.012217 0.001979 -0.004030 0.000000 0.000000 0.000000
# 2 0.001979 0.015218 -0.003324 0.000000 0.000000 0.000000
# 3 -0.004030 -0.003324 0.010916 -0.000001 0.000001 0.000000
# 4 0.000000 0.000000 -0.000001 0.051268 0.000002 0.000001
# 5 0.000000 0.000000 0.000001 0.000002 0.045536 0.000000
# 6 0.000000 0.000000 0.000000 0.000001 0.000000 0.074452
#
#
# Mechanical properties :
#
#
# Convention : Reuss Voigt Hill
#
# Bulk Modulus (GPa) = 36.23087 41.06089 38.64588
# Shear Modulus (GPa) = 21.78110 26.06225 23.92167
#
# Velocity S-wave (km/s) = 3.19092 3.49045 3.34404
# Velocity P-wave (km/s) = 5.52383 5.95307 5.74246
#
# Compressibility (1/GPa) = 0.02760077
#
# Stress axis : x y z
#
# Youngs Moduli (GPa) = 81.85036 65.71235 91.61255
#
# Poissons Ratio (x) = -0.13005 0.36923
# Poissons Ratio (y) = -0.16199 0.30450
# Poissons Ratio (z) = 0.32989 0.21841
#
# Static dielectric constant tensor:
#      x y z
#    x 1.808830 0.000000 0.000000 
#    y 0.000000 1.785670 0.000000 
#    z 0.000000 0.000000 1.801590 
# 
# From -- ./inp_files/10343.got.cif
#   From: 2010.05.17/outbox.cif.g08.bks.cpg/sg69_6_cif.got.tgz:10343.got - 2010.06.03 19:29:58.
