data_PCOD9512075
_publ_section_title
;
Structure prediction by ZEFSAII (Michael W. Deem and Ramdas Pophale) SiO2 
 PCOD9512075
Probable space group: F M M M
;
_chemical_formula_sum "Si O2"
_cell_formula_units_Z 116
_cell_length_a 34.578882
_cell_length_b 14.452754
_cell_length_c 10.722796
_cell_angle_alpha 90.000000
_cell_angle_beta 90.000000
_cell_angle_gamma 90.000000
_cell_volume 5358.825335
_symmetry_space_group_name_H-M "F M M M"
_symmetry_group_IT_number 69
_symmetry_cell_setting 'orthorhombic'
loop_
_space_group_symop_operation_xyz
x,y,z
-x,-y,z
x,-y,-z
-x,y,-z
-x,-y,-z
x,y,-z
-x,y,z
x,-y,z
x,1/2+y,1/2+z
-x,1/2-y,1/2+z
x,1/2-y,1/2-z
-x,1/2+y,1/2-z
-x,1/2-y,1/2-z
x,1/2+y,1/2-z
-x,1/2+y,1/2+z
x,1/2-y,1/2+z
1/2+x,y,1/2+z
1/2-x,-y,1/2+z
1/2+x,-y,1/2-z
1/2-x,y,1/2-z
1/2-x,-y,1/2-z
1/2+x,y,1/2-z
1/2-x,y,1/2+z
1/2+x,-y,1/2+z
1/2+x,1/2+y,z
1/2-x,1/2-y,z
1/2+x,1/2-y,-z
1/2-x,1/2+y,-z
1/2-x,1/2-y,-z
1/2+x,1/2+y,-z
1/2-x,1/2+y,z
1/2+x,1/2-y,z
loop_
_atom_site_type_symbol
_atom_site_label
_atom_site_fract_x
_atom_site_fract_y
_atom_site_fract_z
Si Si1 0.917022 0.391010 0.638308
Si Si2 0.500000 0.000000 0.000000
Si Si3 0.338618 0.387410 0.751753
Si Si4 0.797024 0.386954 0.000000
Si Si5 0.000000 0.639088 0.240897
Si Si6 0.207761 0.112322 0.000000
O O1 0.914267 0.348518 0.500000
O O2 0.908754 0.500000 0.625415
O O3 0.882958 0.357190 0.728686
O O4 0.960080 0.385262 0.690050
O O5 0.500000 0.917810 0.889132
O O6 0.337559 0.500000 0.745863
O O7 0.318947 0.355690 0.624390
O O8 0.314562 0.360293 0.874501
O O9 0.797098 0.500000 0.000000
O O10 0.752317 0.358371 0.000000
O O11 0.000000 0.750000 0.250000
O O12 0.207692 0.000000 0.000000
#
# Coordination Sequence:
#
# PCOD9512075 Si02
#       6
#    32   4  32  16  16  16
#     4  10  19  37  61  86 122 170 230 279 341 428
#     4  12  28  52  66 114 156 180 240 322 368 426
#     4   9  16  26  43  71 106 157 210 268 334 408
#     4   9  16  23  38  66 108 155 203 259 342 410
#     4  12  27  45  71 101 138 187 233 295 373 441
#     4   9  14  24  38  64 105 150 201 264 328 406
#
# _framework density 21.646535
#
# number of rings (size 3 to 8) (size 9 to 14) (size 15 to 20)
#    0.000    2.207    2.759    1.241    1.931    5.517 
#    2.483    0.000    0.000    0.000    0.000    0.000 
#    0.000    6.621    0.000    0.000    0.000    0.000 
#
# Total GULP energy -161591.849238 kJ/mol
# GULP energy per Si atom -5572.132732 kJ/mol
# Density = 2.159727 g / cm^3
# Si number density = 21.646535 Si / 1000 Ang^3
#
#
#
# Elastic Constant Matrix: (Units=GPa)
#
#
# Indices 1 2 3 4 5 6 
#
# 1 196.2243 -6.0313 86.7417 0.0000 0.0000 0.0000
# 2 -6.0313 105.7429 12.9894 0.0000 0.0000 0.0000
# 3 86.7417 12.9894 156.9715 0.0000 0.0000 0.0000
# 4 0.0000 0.0000 0.0000 -15.2229 0.0000 0.0000
# 5 0.0000 0.0000 0.0000 0.0000 23.1301 0.0000
# 6 0.0000 0.0000 0.0000 0.0000 0.0000 -65.6078
#
#
#
# Elastic Compliance Matrix: (Units=1/GPa)
#
#
# Indices 1 2 3 4 5 6 
#
# 1 0.006820 0.000861 -0.003840 0.000000 0.000000 0.000000
# 2 0.000861 0.009663 -0.001275 0.000000 0.000000 0.000000
# 3 -0.003840 -0.001275 0.008598 0.000000 0.000000 0.000000
# 4 0.000000 0.000000 0.000000 -0.065690 0.000000 0.000000
# 5 0.000000 0.000000 0.000000 0.000000 0.043234 0.000000
# 6 0.000000 0.000000 0.000000 0.000000 0.000000 -0.015242
#
#
# Mechanical properties :
#
#
# Convention : Reuss Voigt Hill
#
# Bulk Modulus (GPa) = 60.34327 71.81536 66.07932
# Shear Modulus (GPa) = 3533.43619 12.80913 1773.12266
#
# Velocity S-wave (km/s) = 40.44598 2.43521 28.65142
# Velocity P-wave (km/s) = 47.00113 6.41525 33.54297
#
# Compressibility (1/GPa) = 0.01657186
#
# Stress axis : x y z
#
# Youngs Moduli (GPa) = 146.62424 103.49141 116.30505
#
# Poissons Ratio (x) = -0.08908 0.44661
# Poissons Ratio (y) = -0.12620 0.14831
# Poissons Ratio (z) = 0.56304 0.13197
#
# Static dielectric constant tensor:
#      x y z
#    x 1.800880 0.000000 0.000000 
#    y 0.000000 1.823830 0.000000 
#    z 0.000000 0.000000 1.758320 
# 
# From -- ./inp_files/12082.got.cif
#   From: 2010.05.17/outbox.cif.g08.bks.cpg/sg69_7_cif.got.tgz:12082.got - 2010.06.03 19:29:58.
