data_PCOD9512602
_publ_section_title
;
Structure prediction by ZEFSAII (Michael W. Deem and Ramdas Pophale) SiO2 
 PCOD9512602
Probable space group: F M M M
;
_chemical_formula_sum "Si O2"
_cell_formula_units_Z 176
_cell_length_a 20.354294
_cell_length_b 18.976485
_cell_length_c 25.580707
_cell_angle_alpha 90.000000
_cell_angle_beta 90.000000
_cell_angle_gamma 90.000000
_cell_volume 9880.623664
_symmetry_space_group_name_H-M "F M M M"
_symmetry_group_IT_number 69
_symmetry_cell_setting 'orthorhombic'
loop_
_space_group_symop_operation_xyz
x,y,z
-x,-y,z
x,-y,-z
-x,y,-z
-x,-y,-z
x,y,-z
-x,y,z
x,-y,z
x,1/2+y,1/2+z
-x,1/2-y,1/2+z
x,1/2-y,1/2-z
-x,1/2+y,1/2-z
-x,1/2-y,1/2-z
x,1/2+y,1/2-z
-x,1/2+y,1/2+z
x,1/2-y,1/2+z
1/2+x,y,1/2+z
1/2-x,-y,1/2+z
1/2+x,-y,1/2-z
1/2-x,y,1/2-z
1/2-x,-y,1/2-z
1/2+x,y,1/2-z
1/2-x,y,1/2+z
1/2+x,-y,1/2+z
1/2+x,1/2+y,z
1/2-x,1/2-y,z
1/2+x,1/2-y,-z
1/2-x,1/2+y,-z
1/2-x,1/2-y,-z
1/2+x,1/2+y,-z
1/2-x,1/2+y,z
1/2+x,1/2-y,z
loop_
_atom_site_type_symbol
_atom_site_label
_atom_site_fract_x
_atom_site_fract_y
_atom_site_fract_z
Si Si1 0.076551 0.671558 0.774213
Si Si2 0.077711 0.224802 0.614333
Si Si3 0.813555 0.915939 0.216447
Si Si4 0.577865 0.000000 0.562357
Si Si5 0.839993 0.631315 0.603551
Si Si6 0.796134 0.318109 0.500000
Si Si7 0.075575 0.770822 0.500000
O O1 0.082732 0.750000 0.750000
O O2 0.094945 0.677987 0.835566
O O3 0.123247 0.620268 0.742316
O O4 0.000000 0.650985 0.770119
O O5 0.120498 0.295986 0.613762
O O6 0.085552 0.191941 0.556038
O O7 0.000000 0.242419 0.620537
O O8 0.750000 0.896244 0.250000
O O9 0.806027 0.890001 0.157240
O O10 0.820903 0.000000 0.216831
O O11 0.610216 0.069320 0.587280
O O12 0.500000 0.000000 0.570606
O O13 0.590508 0.000000 0.500000
O O14 0.790658 0.641567 0.554656
O O15 0.750000 0.250000 0.500000
O O16 0.872343 0.292406 0.500000
O O17 0.000000 0.745099 0.500000
#
# Coordination Sequence:
#
# PCOD9512602 Si02
#       7
#    32  32  32  16  32  16  16
#     4  10  20  36  57  83 112 144 186 237 293 351
#     4   9  17  31  52  81 113 143 178 229 284 340
#     4  11  25  41  56  79 112 153 199 242 289 351
#     4  11  22  34  57  92 124 160 191 221 285 368
#     4  11  20  37  56  79 116 152 190 235 282 343
#     4  10  22  35  52  82 115 149 189 232 278 341
#     4   8  16  30  51  76 108 140 173 222 281 334
#
# _framework density 17.812640999999999
#
# number of rings (size 3 to 8) (size 9 to 14) (size 15 to 20)
#    0.000    1.909    3.636    0.545    0.000    5.091 
#    0.000    0.000    0.000    0.000    0.000    0.636 
#    0.000    3.636    0.000    0.091    0.000    0.000 
#
# Total GULP energy -245332.329111 kJ/mol
# GULP energy per Si atom -5575.734753 kJ/mol
# Density = 1.777210 g / cm^3
# Si number density = 17.812641 Si / 1000 Ang^3
#
#
#
# Elastic Constant Matrix: (Units=GPa)
#
#
# Indices 1 2 3 4 5 6 
#
# 1 54.5345 31.5254 54.3111 0.0000 0.0000 0.0000
# 2 31.5254 38.2822 39.0515 0.0000 0.0000 0.0000
# 3 54.3111 39.0515 187.5786 0.0000 0.0000 0.0000
# 4 0.0000 0.0000 0.0000 22.2670 0.0000 0.0000
# 5 0.0000 0.0000 0.0000 0.0000 21.8329 0.0000
# 6 0.0000 0.0000 0.0000 0.0000 0.0000 13.1858
#
#
#
# Elastic Compliance Matrix: (Units=1/GPa)
#
#
# Indices 1 2 3 4 5 6 
#
# 1 0.039601 -0.026554 -0.005938 0.000000 0.000000 0.000000
# 2 -0.026554 0.050971 -0.002923 0.000000 0.000000 0.000000
# 3 -0.005938 -0.002923 0.007659 0.000000 0.000000 0.000000
# 4 0.000000 0.000000 0.000000 0.044910 0.000000 0.000000
# 5 0.000000 0.000000 0.000000 0.000000 0.045802 0.000000
# 6 0.000000 0.000000 0.000000 0.000000 0.000000 0.075839
#
#
# Mechanical properties :
#
#
# Convention : Reuss Voigt Hill
#
# Bulk Modulus (GPa) = 36.49546 58.90792 47.70169
# Shear Modulus (GPa) = 14.50344 21.82430 18.16387
#
# Velocity S-wave (km/s) = 2.85655 3.50410 3.19677
# Velocity P-wave (km/s) = 5.60472 7.03664 6.36110
#
# Compressibility (1/GPa) = 0.02740067
#
# Stress axis : x y z
#
# Youngs Moduli (GPa) = 25.25192 19.61895 130.56844
#
# Poissons Ratio (x) = 0.52097 0.77527
# Poissons Ratio (y) = 0.67055 0.38166
# Poissons Ratio (z) = 0.14994 0.05735
#
# Static dielectric constant tensor:
#      x y z
#    x 1.600430 0.000000 0.000000 
#    y 0.000000 1.569110 0.000000 
#    z 0.000000 0.000000 1.675200 
# 
# From -- ./inp_files/41905.got.cif
#   From: 2010.05.17/outbox.cif.g08.bks.cpg/sg69_21_cif.got.tgz:41905.got - 2010.06.03 19:29:58.
