data_PCOD9512326
_publ_section_title
;
Structure prediction by ZEFSAII (Michael W. Deem and Ramdas Pophale) SiO2 
 PCOD9512326
Probable space group: F M M M
;
_chemical_formula_sum "Si O2"
_cell_formula_units_Z 208
_cell_length_a 18.323638
_cell_length_b 22.811629
_cell_length_c 22.389282
_cell_angle_alpha 90.000000
_cell_angle_beta 90.000000
_cell_angle_gamma 90.000000
_cell_volume 9358.541478
_symmetry_space_group_name_H-M "F M M M"
_symmetry_group_IT_number 69
_symmetry_cell_setting 'orthorhombic'
loop_
_space_group_symop_operation_xyz
x,y,z
-x,-y,z
x,-y,-z
-x,y,-z
-x,-y,-z
x,y,-z
-x,y,z
x,-y,z
x,1/2+y,1/2+z
-x,1/2-y,1/2+z
x,1/2-y,1/2-z
-x,1/2+y,1/2-z
-x,1/2-y,1/2-z
x,1/2+y,1/2-z
-x,1/2+y,1/2+z
x,1/2-y,1/2+z
1/2+x,y,1/2+z
1/2-x,-y,1/2+z
1/2+x,-y,1/2-z
1/2-x,y,1/2-z
1/2-x,-y,1/2-z
1/2+x,y,1/2-z
1/2-x,y,1/2+z
1/2+x,-y,1/2+z
1/2+x,1/2+y,z
1/2-x,1/2-y,z
1/2+x,1/2-y,-z
1/2-x,1/2+y,-z
1/2-x,1/2-y,-z
1/2+x,1/2+y,-z
1/2-x,1/2+y,z
1/2+x,1/2-y,z
loop_
_atom_site_type_symbol
_atom_site_label
_atom_site_fract_x
_atom_site_fract_y
_atom_site_fract_z
Si Si1 0.082823 0.817709 0.747659
Si Si2 0.080378 0.167063 0.605952
Si Si3 0.680056 0.563222 0.393886
Si Si4 0.659918 0.594068 0.929925
Si Si5 0.326096 0.232384 0.431245
Si Si6 0.163052 0.434795 0.246337
Si Si7 0.000000 0.930997 0.932864
O O1 0.111868 0.750000 0.750000
O O2 0.078044 0.832911 0.677626
O O3 0.127317 0.874649 0.771570
O O4 0.000000 0.816414 0.772784
O O5 0.139895 0.120883 0.581386
O O6 0.105689 0.232742 0.592983
O O7 0.000000 0.153732 0.582628
O O8 0.660757 0.500000 0.421234
O O9 0.767807 0.569461 0.398241
O O10 0.652988 0.561870 0.325395
O O11 0.667292 0.663619 0.928755
O O12 0.579012 0.581938 0.905211
O O13 0.661750 0.574317 0.000000
O O14 0.322084 0.251408 0.500000
O O15 0.250000 0.250000 0.400372
O O16 0.140988 0.500000 0.270516
O O17 0.250000 0.429449 0.250000
O O18 0.000000 0.000000 0.939870
O O19 0.000000 0.902670 0.000000
#
# Coordination Sequence:
#
# PCOD9512326 Si02
#       7
#    32  32  32  32  32  32  16
#     4   9  19  36  55  80 111 139 175 220 268 321
#     4  10  21  36  55  81 111 140 177 223 266 315
#     4  10  20  35  56  79 106 142 179 219 269 322
#     4  10  20  34  53  78 106 140 182 224 266 316
#     4  10  20  35  53  74 104 140 179 219 262 314
#     4   9  19  35  55  79 106 138 178 221 265 322
#     4   9  18  32  50  74 102 134 174 217 259 309
#
# _framework density 22.225684999999999
#
# number of rings (size 3 to 8) (size 9 to 14) (size 15 to 20)
#    0.000    2.385    1.538    0.462    1.077    3.385 
#    0.000    3.077    1.692    0.000    0.000    2.154 
#    0.000    0.000    0.000    0.000    0.000    0.000 
#
# Total GULP energy -289702.884355 kJ/mol
# GULP energy per Si atom -5571.209315 kJ/mol
# Density = 2.217510 g / cm^3
# Si number density = 22.225685 Si / 1000 Ang^3
#
#
#
# Elastic Constant Matrix: (Units=GPa)
#
#
# Indices 1 2 3 4 5 6 
#
# 1 114.2155 58.3375 2.4441 0.0000 0.0000 0.0000
# 2 58.3375 150.3771 4.8297 0.0000 0.0000 0.0000
# 3 2.4441 4.8297 25.0500 0.0000 0.0000 0.0000
# 4 0.0000 0.0000 0.0000 -54.9930 0.0000 0.0000
# 5 0.0000 0.0000 0.0000 0.0000 22.2765 0.0000
# 6 0.0000 0.0000 0.0000 0.0000 0.0000 356.2072
#
#
#
# Elastic Compliance Matrix: (Units=1/GPa)
#
#
# Indices 1 2 3 4 5 6 
#
# 1 0.010920 -0.004228 -0.000250 0.000000 0.000000 0.000000
# 2 -0.004228 0.008329 -0.001193 0.000000 0.000000 0.000000
# 3 -0.000250 -0.001193 0.040175 0.000000 0.000000 0.000000
# 4 0.000000 0.000000 0.000000 -0.018184 0.000000 0.000000
# 5 0.000000 0.000000 0.000000 0.000000 0.044890 0.000000
# 6 0.000000 0.000000 0.000000 0.000000 0.000000 0.002807
#
#
# Mechanical properties :
#
#
# Convention : Reuss Voigt Hill
#
# Bulk Modulus (GPa) = 20.79867 46.76278 33.78072
# Shear Modulus (GPa) = 42.98931 79.63355 61.31143
#
# Velocity S-wave (km/s) = 4.40275 5.99227 5.25792
# Velocity P-wave (km/s) = 5.93496 8.30434 7.21754
#
# Compressibility (1/GPa) = 0.04808000
#
# Stress axis : x y z
#
# Youngs Moduli (GPa) = 91.57094 120.06721 24.89130
#
# Poissons Ratio (x) = 0.50770 0.00623
# Poissons Ratio (y) = 0.38721 0.02970
# Poissons Ratio (z) = 0.02291 0.14327
#
# Static dielectric constant tensor:
#      x y z
#    x 1.885940 0.000000 0.000000 
#    y 0.000000 1.837390 0.000000 
#    z 0.000000 0.000000 1.910800 
# 
# From -- ./inp_files/42006.got.cif
#   From: 2010.05.17/outbox.cif.g08.bks.cpg/sg69_22_cif.got.tgz:42006.got - 2010.06.03 19:29:58.
