data_PCOD9512204
_publ_section_title
;
Structure prediction by ZEFSAII (Michael W. Deem and Ramdas Pophale) SiO2 
 PCOD9512204
Probable space group: F M M M
;
_chemical_formula_sum "Si O2"
_cell_formula_units_Z 176
_cell_length_a 18.262896
_cell_length_b 14.142951
_cell_length_c 28.251047
_cell_angle_alpha 90.000000
_cell_angle_beta 90.000000
_cell_angle_gamma 90.000000
_cell_volume 7296.998053
_symmetry_space_group_name_H-M "F M M M"
_symmetry_group_IT_number 69
_symmetry_cell_setting 'orthorhombic'
loop_
_space_group_symop_operation_xyz
x,y,z
-x,-y,z
x,-y,-z
-x,y,-z
-x,-y,-z
x,y,-z
-x,y,z
x,-y,z
x,1/2+y,1/2+z
-x,1/2-y,1/2+z
x,1/2-y,1/2-z
-x,1/2+y,1/2-z
-x,1/2-y,1/2-z
x,1/2+y,1/2-z
-x,1/2+y,1/2+z
x,1/2-y,1/2+z
1/2+x,y,1/2+z
1/2-x,-y,1/2+z
1/2+x,-y,1/2-z
1/2-x,y,1/2-z
1/2-x,-y,1/2-z
1/2+x,y,1/2-z
1/2-x,y,1/2+z
1/2+x,-y,1/2+z
1/2+x,1/2+y,z
1/2-x,1/2-y,z
1/2+x,1/2-y,-z
1/2-x,1/2+y,-z
1/2-x,1/2-y,-z
1/2+x,1/2+y,-z
1/2-x,1/2+y,z
1/2+x,1/2-y,z
loop_
_atom_site_type_symbol
_atom_site_label
_atom_site_fract_x
_atom_site_fract_y
_atom_site_fract_z
Si Si1 0.916045 0.886191 0.128850
Si Si2 0.918254 0.142421 0.233856
Si Si3 0.791803 0.104509 0.703876
Si Si4 0.345177 0.115613 0.897191
Si Si5 0.000000 0.884611 0.443949
Si Si6 0.199792 0.115563 0.052183
O O1 0.886885 0.863784 0.181178
O O2 0.858959 0.850596 0.090361
O O3 0.000000 0.851311 0.123801
O O4 0.919147 0.000000 0.125066
O O5 0.921221 0.250000 0.250000
O O6 0.871600 0.093775 0.273503
O O7 0.000000 0.104684 0.230204
O O8 0.750000 0.147240 0.750000
O O9 0.810147 0.149325 0.653071
O O10 0.757764 0.000000 0.695766
O O11 0.426045 0.143691 0.915223
O O12 0.282912 0.140419 0.935137
O O13 0.347849 0.000000 0.892715
O O14 0.000000 0.854761 0.500000
O O15 0.000000 0.000000 0.445150
O O16 0.197475 0.000000 0.053132
O O17 0.179474 0.147110 0.000000
#
# Coordination Sequence:
#
# PCOD9512204 Si02
#       6
#    32  32  32  32  16  32
#     4   9  17  30  49  74 104 136 170 213 263 313
#     4  10  21  35  51  73 102 136 176 213 260 315
#     4  10  20  33  51  75 103 135 172 215 260 312
#     4   9  17  27  42  66  96 129 165 202 251 307
#     4   9  16  26  40  62  93 124 158 202 249 302
#     4   9  16  27  45  70 102 135 166 206 258 312
#
# _framework density 24.119506000000001
#
# number of rings (size 3 to 8) (size 9 to 14) (size 15 to 20)
#    0.000    2.636    0.000    2.182    1.273    6.909 
#    0.000    1.818    0.000    0.000    0.000    3.818 
#    0.000    0.000    0.000    0.000    0.000    0.182 
#
# Total GULP energy -245726.877229 kJ/mol
# GULP energy per Si atom -5584.701755 kJ/mol
# Density = 2.406461 g / cm^3
# Si number density = 24.119506 Si / 1000 Ang^3
#
#
#
# Elastic Constant Matrix: (Units=GPa)
#
#
# Indices 1 2 3 4 5 6 
#
# 1 83.6944 12.5162 53.8851 0.0000 0.0000 0.0000
# 2 12.5162 74.1797 -2.4389 0.0000 0.0000 0.0000
# 3 53.8851 -2.4389 163.2992 0.0000 0.0000 0.0000
# 4 0.0000 0.0000 0.0000 17.3606 0.0000 0.0000
# 5 0.0000 0.0000 0.0000 0.0000 24.6220 0.0000
# 6 0.0000 0.0000 0.0000 0.0000 0.0000 21.1518
#
#
#
# Elastic Compliance Matrix: (Units=1/GPa)
#
#
# Indices 1 2 3 4 5 6 
#
# 1 0.015743 -0.002828 -0.005237 0.000000 0.000000 0.000000
# 2 -0.002828 0.013996 0.001142 0.000000 0.000000 0.000000
# 3 -0.005237 0.001142 0.007869 0.000000 0.000000 0.000000
# 4 0.000000 0.000000 0.000000 0.057602 0.000000 0.000000
# 5 0.000000 0.000000 0.000000 0.000000 0.040614 0.000000
# 6 0.000000 0.000000 0.000000 0.000000 0.000000 0.047277
#
#
# Mechanical properties :
#
#
# Convention : Reuss Voigt Hill
#
# Bulk Modulus (GPa) = 42.08559 49.89980 45.99270
# Shear Modulus (GPa) = 24.40604 29.77427 27.09016
#
# Velocity S-wave (km/s) = 3.18446 3.51728 3.35500
# Velocity P-wave (km/s) = 5.56845 6.10152 5.84107
#
# Compressibility (1/GPa) = 0.02376110
#
# Stress axis : x y z
#
# Youngs Moduli (GPa) = 63.52022 71.45109 127.08229
#
# Poissons Ratio (x) = 0.20210 0.66554
# Poissons Ratio (y) = 0.17967 -0.14517
# Poissons Ratio (z) = 0.33266 -0.08162
#
# Static dielectric constant tensor:
#      x y z
#    x 1.925570 0.000000 0.000000 
#    y 0.000000 2.006410 0.000000 
#    z 0.000000 0.000000 1.880070 
# 
# From -- ./inp_files/26765.got.cif
#   From: 2010.05.17/outbox.cif.g08.bks.cpg/sg69_14_cif.got.tgz:26765.got - 2010.06.03 19:29:58.
