data_PCOD9512274
_publ_section_title
;
Structure prediction by ZEFSAII (Michael W. Deem and Ramdas Pophale) SiO2 
 PCOD9512274
Probable space group: F M M M
;
_chemical_formula_sum "Si O2"
_cell_formula_units_Z 160
_cell_length_a 7.650306
_cell_length_b 31.297463
_cell_length_c 31.010751
_cell_angle_alpha 90.000000
_cell_angle_beta 90.000000
_cell_angle_gamma 90.000000
_cell_volume 7425.064406
_symmetry_space_group_name_H-M "F M M M"
_symmetry_group_IT_number 69
_symmetry_cell_setting 'orthorhombic'
loop_
_space_group_symop_operation_xyz
x,y,z
-x,-y,z
x,-y,-z
-x,y,-z
-x,-y,-z
x,y,-z
-x,y,z
x,-y,z
x,1/2+y,1/2+z
-x,1/2-y,1/2+z
x,1/2-y,1/2-z
-x,1/2+y,1/2-z
-x,1/2-y,1/2-z
x,1/2+y,1/2-z
-x,1/2+y,1/2+z
x,1/2-y,1/2+z
1/2+x,y,1/2+z
1/2-x,-y,1/2+z
1/2+x,-y,1/2-z
1/2-x,y,1/2-z
1/2-x,-y,1/2-z
1/2+x,y,1/2-z
1/2-x,y,1/2+z
1/2+x,-y,1/2+z
1/2+x,1/2+y,z
1/2-x,1/2-y,z
1/2+x,1/2-y,-z
1/2-x,1/2+y,-z
1/2-x,1/2-y,-z
1/2+x,1/2+y,-z
1/2-x,1/2+y,z
1/2+x,1/2-y,z
loop_
_atom_site_type_symbol
_atom_site_label
_atom_site_fract_x
_atom_site_fract_y
_atom_site_fract_z
Si Si1 0.303798 0.701949 0.683793
Si Si2 0.290957 0.799327 0.500000
Si Si3 0.290049 0.107451 0.797585
Si Si4 0.211043 0.423956 0.112993
Si Si5 0.785804 0.000000 0.550356
Si Si6 0.206522 0.826851 0.092158
O O1 0.500000 0.698961 0.699952
O O2 0.250000 0.750000 0.695843
O O3 0.217628 0.656615 0.698146
O O4 0.294300 0.697826 0.631813
O O5 0.500000 0.807456 0.500000
O O6 0.250000 0.750000 0.500000
O O7 0.221737 0.816542 0.454908
O O8 0.500000 0.110352 0.802633
O O9 0.250000 0.091558 0.750000
O O10 0.229367 0.077115 0.836849
O O11 0.272160 0.459272 0.078923
O O12 0.265007 0.376954 0.098290
O O13 0.000000 0.427299 0.113045
O O14 0.729567 0.000000 0.500000
O O15 0.000000 0.000000 0.549227
O O16 0.000000 0.816586 0.094324
#
# Coordination Sequence:
#
# PCOD9512274 Si02
#       6
#    32  16  32  32  16  32
#     4  10  20  34  51  75 105 139 181 228 273 316
#     4  10  22  34  46  69 100 135 179 222 261 308
#     4   9  19  34  52  75 106 142 180 223 269 319
#     4   9  19  36  56  82 110 137 175 223 269 317
#     4   9  18  34  60  89 113 139 177 219 266 325
#     4  10  20  34  51  72 103 142 180 220 269 323
#
# _framework density 21.548634
#
# number of rings (size 3 to 8) (size 9 to 14) (size 15 to 20)
#    0.000    2.500    0.000    3.000    1.400    7.600 
#    0.000    3.000    0.000    0.600    0.000    0.000 
#    0.000    0.000    0.000    0.000    0.000    0.000 
#
# Total GULP energy -222960.190372 kJ/mol
# GULP energy per Si atom -5574.004759 kJ/mol
# Density = 2.149959 g / cm^3
# Si number density = 21.548634 Si / 1000 Ang^3
#
#
#
# Elastic Constant Matrix: (Units=GPa)
#
#
# Indices 1 2 3 4 5 6 
#
# 1 33.5375 6.0595 -1.4724 0.0000 0.0000 0.0000
# 2 6.0595 68.1331 36.1875 0.0000 0.0000 0.0000
# 3 -1.4724 36.1875 166.1996 0.0000 0.0000 0.0000
# 4 0.0000 0.0000 0.0000 -151.6639 0.0000 0.0000
# 5 0.0000 0.0000 0.0000 0.0000 19.6456 0.0000
# 6 0.0000 0.0000 0.0000 0.0000 0.0000 5.5919
#
#
#
# Elastic Compliance Matrix: (Units=1/GPa)
#
#
# Indices 1 2 3 4 5 6 
#
# 1 0.030442 -0.003223 0.000972 0.000000 0.000000 0.000000
# 2 -0.003223 0.016938 -0.003717 0.000000 0.000000 0.000000
# 3 0.000972 -0.003717 0.006835 0.000000 0.000000 0.000000
# 4 0.000000 0.000000 0.000000 -0.006594 0.000000 0.000000
# 5 0.000000 0.000000 0.000000 0.000000 0.050902 0.000000
# 6 0.000000 0.000000 0.000000 0.000000 0.000000 0.178832
#
#
# Mechanical properties :
#
#
# Convention : Reuss Voigt Hill
#
# Bulk Modulus (GPa) = 23.65292 38.82439 31.23865
# Shear Modulus (GPa) = 16.48074 -10.14558 3.16758
#
# Velocity S-wave (km/s) = 2.76853 -2.17220 1.21374
# Velocity P-wave (km/s) = 4.60652 3.43001 4.06110
#
# Compressibility (1/GPa) = 0.04227808
#
# Stress axis : x y z
#
# Youngs Moduli (GPa) = 32.84885 59.03963 146.31258
#
# Poissons Ratio (x) = 0.19031 -0.14215
# Poissons Ratio (y) = 0.10589 0.54377
# Poissons Ratio (z) = -0.03191 0.21942
#
# Static dielectric constant tensor:
#      x y z
#    x 1.800870 0.000000 0.000000 
#    y 0.000000 1.760900 0.000000 
#    z 0.000000 0.000000 1.850560 
# 
# From -- ./inp_files/5724.got.cif
#   From: 2010.05.17/outbox.cif.g08.bks.cpg/sg69_3_cif.got.tgz:5724.got - 2010.06.03 19:29:58.
