data_PCOD9512768
_publ_section_title
;
Structure prediction by ZEFSAII (Michael W. Deem and Ramdas Pophale) SiO2 
 PCOD9512768
Probable space group: F M M M
;
_chemical_formula_sum "Si O2"
_cell_formula_units_Z 116
_cell_length_a 19.703332
_cell_length_b 19.912218
_cell_length_c 15.034457
_cell_angle_alpha 90.000000
_cell_angle_beta 90.000000
_cell_angle_gamma 90.000000
_cell_volume 5898.574389
_symmetry_space_group_name_H-M "F M M M"
_symmetry_group_IT_number 69
_symmetry_cell_setting 'orthorhombic'
loop_
_space_group_symop_operation_xyz
x,y,z
-x,-y,z
x,-y,-z
-x,y,-z
-x,-y,-z
x,y,-z
-x,y,z
x,-y,z
x,1/2+y,1/2+z
-x,1/2-y,1/2+z
x,1/2-y,1/2-z
-x,1/2+y,1/2-z
-x,1/2-y,1/2-z
x,1/2+y,1/2-z
-x,1/2+y,1/2+z
x,1/2-y,1/2+z
1/2+x,y,1/2+z
1/2-x,-y,1/2+z
1/2+x,-y,1/2-z
1/2-x,y,1/2-z
1/2-x,-y,1/2-z
1/2+x,y,1/2-z
1/2-x,y,1/2+z
1/2+x,-y,1/2+z
1/2+x,1/2+y,z
1/2-x,1/2-y,z
1/2+x,1/2-y,-z
1/2-x,1/2+y,-z
1/2-x,1/2-y,-z
1/2+x,1/2+y,-z
1/2-x,1/2+y,z
1/2+x,1/2-y,z
loop_
_atom_site_type_symbol
_atom_site_label
_atom_site_fract_x
_atom_site_fract_y
_atom_site_fract_z
Si Si1 0.500000 0.223184 0.599401
Si Si2 0.250000 0.109495 0.750000
Si Si3 0.102661 0.863396 0.795098
Si Si4 0.500000 0.123992 0.138523
Si Si5 0.766381 0.500000 0.102852
Si Si6 0.500000 0.500000 0.500000
Si Si7 0.603577 0.500000 0.900693
O O1 0.500000 0.194490 0.500000
O O2 0.564859 0.196285 0.653666
O O3 0.500000 0.302959 0.594418
O O4 0.183329 0.146808 0.785643
O O5 0.221041 0.063272 0.668423
O O6 0.066013 0.874736 0.701581
O O7 0.087385 0.931943 0.849135
O O8 0.500000 0.059648 0.076560
O O9 0.685302 0.500000 0.093314
O O10 0.794718 0.500000 0.000000
O O11 0.576061 0.500000 0.000000
#
# Coordination Sequence:
#
# PCOD9512768 Si02
#       7
#    16  16  32  16  16   4  16
#     4  11  23  43  66  86 121 170 218 264 329 389
#     4   9  18  34  55  90 130 171 219 260 318 383
#     4  10  20  37  62  90 132 171 209 260 321 379
#     4  11  24  44  61  90 115 162 206 264 328 382
#     4   8  15  29  49  78 127 178 211 264 316 365
#     4  12  24  44  72  84 118 142 220 278 292 388
#     4   9  16  29  53  91 127 162 214 259 310 362
#
# _framework density 19.665769000000001
#
# number of rings (size 3 to 8) (size 9 to 14) (size 15 to 20)
#    0.000    2.207    0.690    4.138    0.000    2.759 
#    4.966    6.207    0.000    1.655    0.000    0.000 
#    0.000    0.000    0.000    0.000    0.000    0.000 
#
# Total GULP energy -161444.388756 kJ/mol
# GULP energy per Si atom -5567.047888 kJ/mol
# Density = 1.962101 g / cm^3
# Si number density = 19.665769 Si / 1000 Ang^3
#
#
#
# Elastic Constant Matrix: (Units=GPa)
#
#
# Indices 1 2 3 4 5 6 
#
# 1 121.6165 37.1792 32.9582 0.0000 0.0000 0.0000
# 2 37.1792 129.9921 54.0115 0.0000 0.0000 0.0000
# 3 32.9582 54.0115 146.7355 0.0000 0.0000 0.0000
# 4 0.0000 0.0000 0.0000 20.8292 0.0000 0.0000
# 5 0.0000 0.0000 0.0000 0.0000 -2.9958 0.0000
# 6 0.0000 0.0000 0.0000 0.0000 0.0000 4.9176
#
#
#
# Elastic Compliance Matrix: (Units=1/GPa)
#
#
# Indices 1 2 3 4 5 6 
#
# 1 0.009215 -0.002096 -0.001298 0.000000 0.000000 0.000000
# 2 -0.002096 0.009559 -0.003048 0.000000 0.000000 0.000000
# 3 -0.001298 -0.003048 0.008228 0.000000 0.000000 0.000000
# 4 0.000000 0.000000 0.000000 0.048009 0.000000 0.000000
# 5 0.000000 0.000000 0.000000 0.000000 -0.333804 0.000000
# 6 0.000000 0.000000 0.000000 0.000000 0.000000 0.203351
#
#
# Mechanical properties :
#
#
# Convention : Reuss Voigt Hill
#
# Bulk Modulus (GPa) = 70.83111 71.84912 71.34012
# Shear Modulus (GPa) = -132.09872 22.82989 -54.63442
#
# Velocity S-wave (km/s) = -8.20474 3.41089 -5.27653
# Velocity P-wave (km/s) = 7.32539 7.21988 0.87598
#
# Compressibility (1/GPa) = 0.01411809
#
# Stress axis : x y z
#
# Youngs Moduli (GPa) = 108.51605 104.61800 121.53114
#
# Poissons Ratio (x) = 0.21931 0.15777
# Poissons Ratio (y) = 0.22748 0.37037
# Poissons Ratio (z) = 0.14088 0.31883
#
# Static dielectric constant tensor:
#      x y z
#    x 1.701530 0.000000 0.000000 
#    y 0.000000 1.679330 0.000000 
#    z 0.000000 0.000000 1.724870 
# 
# From -- ./inp_files/17444.got.cif
#   From: 2010.05.17/outbox.cif.g08.bks.cpg/sg69_9_cif.got.tgz:17444.got - 2010.06.03 19:29:58.
