data_PCOD9512774
_publ_section_title
;
Structure prediction by ZEFSAII (Michael W. Deem and Ramdas Pophale) SiO2 
 PCOD9512774
Probable space group: F M M M
;
_chemical_formula_sum "Si O2"
_cell_formula_units_Z 176
_cell_length_a 16.952252
_cell_length_b 17.031940
_cell_length_c 27.119473
_cell_angle_alpha 90.000000
_cell_angle_beta 90.000000
_cell_angle_gamma 90.000000
_cell_volume 7830.198359
_symmetry_space_group_name_H-M "F M M M"
_symmetry_group_IT_number 69
_symmetry_cell_setting 'orthorhombic'
loop_
_space_group_symop_operation_xyz
x,y,z
-x,-y,z
x,-y,-z
-x,y,-z
-x,-y,-z
x,y,-z
-x,y,z
x,-y,z
x,1/2+y,1/2+z
-x,1/2-y,1/2+z
x,1/2-y,1/2-z
-x,1/2+y,1/2-z
-x,1/2-y,1/2-z
x,1/2+y,1/2-z
-x,1/2+y,1/2+z
x,1/2-y,1/2+z
1/2+x,y,1/2+z
1/2-x,-y,1/2+z
1/2+x,-y,1/2-z
1/2-x,y,1/2-z
1/2-x,-y,1/2-z
1/2+x,y,1/2-z
1/2-x,y,1/2+z
1/2+x,-y,1/2+z
1/2+x,1/2+y,z
1/2-x,1/2-y,z
1/2+x,1/2-y,-z
1/2-x,1/2+y,-z
1/2-x,1/2-y,-z
1/2+x,1/2+y,-z
1/2-x,1/2+y,z
1/2+x,1/2-y,z
loop_
_atom_site_type_symbol
_atom_site_label
_atom_site_fract_x
_atom_site_fract_y
_atom_site_fract_z
Si Si1 0.159943 0.590113 0.594211
Si Si2 0.415478 0.778415 0.639717
Si Si3 0.405060 0.410965 0.286762
Si Si4 0.381477 0.750000 0.250000
Si Si5 0.158930 0.626387 0.106679
Si Si6 0.406376 0.178675 0.500000
Si Si7 0.907951 0.367166 0.000000
O O1 0.142299 0.500000 0.586150
O O2 0.106868 0.631523 0.635086
O O3 0.250647 0.601589 0.608466
O O4 0.136280 0.639914 0.546422
O O5 0.500000 0.761556 0.615441
O O6 0.419796 0.760577 0.697042
O O7 0.352520 0.720110 0.615189
O O8 0.500000 0.397539 0.278627
O O9 0.386803 0.500000 0.270345
O O10 0.353630 0.341087 0.260945
O O11 0.388124 0.406757 0.345922
O O12 0.128281 0.604716 0.052058
O O13 0.500000 0.160188 0.500000
O O14 0.398107 0.272463 0.500000
O O15 0.000000 0.386098 0.000000
#
# Coordination Sequence:
#
# PCOD9512774 Si02
#       7
#    32  32  32  16  32  16  16
#     4  12  26  41  61  92 132 173 207 254 322 391
#     4  11  22  40  66  94 123 163 216 270 321 376
#     4  10  20  37  63  93 128 171 215 266 328 387
#     4  10  21  40  67  96 125 162 217 280 331 380
#     4  11  22  40  63  90 129 166 211 261 314 379
#     4  11  24  42  64  94 127 165 212 262 318 378
#     4  11  21  37  68  98 121 160 217 272 313 371
#
# _framework density 22.477081999999999
#
# number of rings (size 3 to 8) (size 9 to 14) (size 15 to 20)
#    0.000    1.091    1.818    6.818    0.000    3.273 
#    0.000    8.636    0.000    8.727    0.000    0.000 
#    0.000    0.000    0.000    0.000    0.000    0.000 
#
# Total GULP energy -245344.343723 kJ/mol
# GULP energy per Si atom -5576.007812 kJ/mol
# Density = 2.242592 g / cm^3
# Si number density = 22.477082 Si / 1000 Ang^3
#
#
#
# Elastic Constant Matrix: (Units=GPa)
#
#
# Indices 1 2 3 4 5 6 
#
# 1 29.9365 11.2977 -2.2560 0.0000 0.0000 0.0000
# 2 11.2977 134.4144 10.7958 0.0000 0.0000 0.0000
# 3 -2.2560 10.7958 80.0320 0.0000 0.0000 0.0000
# 4 0.0000 0.0000 0.0000 16.2943 0.0000 0.0000
# 5 0.0000 0.0000 0.0000 0.0000 10.3293 0.0000
# 6 0.0000 0.0000 0.0000 0.0000 0.0000 60.7451
#
#
#
# Elastic Compliance Matrix: (Units=1/GPa)
#
#
# Indices 1 2 3 4 5 6 
#
# 1 0.034649 -0.003024 0.001385 0.000000 0.000000 0.000000
# 2 -0.003024 0.007785 -0.001135 0.000000 0.000000 0.000000
# 3 0.001385 -0.001135 0.012687 0.000000 0.000000 0.000000
# 4 0.000000 0.000000 0.000000 0.061371 0.000000 0.000000
# 5 0.000000 0.000000 0.000000 0.000000 0.096812 0.000000
# 6 0.000000 0.000000 0.000000 0.000000 0.000000 0.016462
#
#
# Mechanical properties :
#
#
# Convention : Reuss Voigt Hill
#
# Bulk Modulus (GPa) = 20.17229 31.56201 25.86715
# Shear Modulus (GPa) = 19.85386 32.44343 26.14864
#
# Velocity S-wave (km/s) = 2.97525 3.80333 3.41449
# Velocity P-wave (km/s) = 4.56036 5.77577 5.20367
#
# Compressibility (1/GPa) = 0.04957295
#
# Stress axis : x y z
#
# Youngs Moduli (GPa) = 28.86047 128.45213 78.81972
#
# Poissons Ratio (x) = 0.38838 -0.10913
# Poissons Ratio (y) = 0.08726 0.08949
# Poissons Ratio (z) = -0.03996 0.14584
#
# Static dielectric constant tensor:
#      x y z
#    x 1.788590 0.000000 0.000000 
#    y 0.000000 1.900480 0.000000 
#    z 0.000000 0.000000 1.976700 
# 
# From -- ./inp_files/41917.got.cif
#   From: 2010.05.17/outbox.cif.g08.bks.cpg/sg69_21_cif.got.tgz:41917.got - 2010.06.03 19:29:58.
