data_PCOD9512996
_publ_section_title
;
Structure prediction by ZEFSAII (Michael W. Deem and Ramdas Pophale) SiO2 
 PCOD9512996
Probable space group: F M M M
;
_chemical_formula_sum "Si O2"
_cell_formula_units_Z 160
_cell_length_a 23.653718
_cell_length_b 19.146507
_cell_length_c 16.953524
_cell_angle_alpha 90.000000
_cell_angle_beta 90.000000
_cell_angle_gamma 90.000000
_cell_volume 7678.014980
_symmetry_space_group_name_H-M "F M M M"
_symmetry_group_IT_number 69
_symmetry_cell_setting 'orthorhombic'
loop_
_space_group_symop_operation_xyz
x,y,z
-x,-y,z
x,-y,-z
-x,y,-z
-x,-y,-z
x,y,-z
-x,y,z
x,-y,z
x,1/2+y,1/2+z
-x,1/2-y,1/2+z
x,1/2-y,1/2-z
-x,1/2+y,1/2-z
-x,1/2-y,1/2-z
x,1/2+y,1/2-z
-x,1/2+y,1/2+z
x,1/2-y,1/2+z
1/2+x,y,1/2+z
1/2-x,-y,1/2+z
1/2+x,-y,1/2-z
1/2-x,y,1/2-z
1/2-x,-y,1/2-z
1/2+x,y,1/2-z
1/2-x,y,1/2+z
1/2+x,-y,1/2+z
1/2+x,1/2+y,z
1/2-x,1/2-y,z
1/2+x,1/2-y,-z
1/2-x,1/2+y,-z
1/2-x,1/2-y,-z
1/2+x,1/2+y,-z
1/2-x,1/2+y,z
1/2+x,1/2-y,z
loop_
_atom_site_type_symbol
_atom_site_label
_atom_site_fract_x
_atom_site_fract_y
_atom_site_fract_z
Si Si1 0.095253 0.147602 0.337195
Si Si2 0.767402 0.919022 0.500000
Si Si3 0.405958 0.919201 0.000000
Si Si4 0.931340 0.711480 0.410388
Si Si5 0.934358 0.077805 0.824687
Si Si6 0.718998 0.915618 0.832160
O O1 0.073231 0.115939 0.419851
O O2 0.088304 0.229951 0.348922
O O3 0.067019 0.112768 0.261518
O O4 0.160007 0.124347 0.329733
O O5 0.836712 0.914941 0.500000
O O6 0.750443 0.891836 0.586477
O O7 0.750451 0.000000 0.500000
O O8 0.420908 0.000000 0.000000
O O9 0.913486 0.727942 0.500000
O O10 0.909915 0.635275 0.384045
O O11 0.000000 0.711377 0.408619
O O12 0.000000 0.070299 0.846827
O O13 0.908341 0.000000 0.824071
O O14 0.750000 0.903676 0.750000
O O15 0.708812 0.000000 0.838890
#
# Coordination Sequence:
#
# PCOD9512996 Si02
#       6
#    32  16  16  32  32  32
#     4  11  18  32  54  83 117 150 186 235 292 351
#     4   7  12  24  42  67 103 144 182 225 277 331
#     4   9  16  26  45  76 111 148 181 220 279 349
#     4  10  21  37  57  83 115 154 196 236 286 348
#     4  10  21  36  56  82 112 149 193 240 287 340
#     4   9  17  29  50  81 115 154 197 237 285 349
#
# _framework density 20.838719000000001
#
# number of rings (size 3 to 8) (size 9 to 14) (size 15 to 20)
#    0.000    2.400    1.000    4.200    0.000    2.000 
#    0.000    2.000    2.200    4.800    0.000    1.400 
#    0.000    0.000    0.000    0.000    0.000    0.000 
#
# Total GULP energy -223023.017579 kJ/mol
# GULP energy per Si atom -5575.575439 kJ/mol
# Density = 2.079129 g / cm^3
# Si number density = 20.838719 Si / 1000 Ang^3
#
#
#
# Elastic Constant Matrix: (Units=GPa)
#
#
# Indices 1 2 3 4 5 6 
#
# 1 26.0490 14.5403 26.5914 0.0000 0.0000 0.0000
# 2 14.5403 126.8652 33.6007 0.0000 0.0000 0.0000
# 3 26.5914 33.6007 105.9946 0.0000 0.0000 0.0000
# 4 0.0000 0.0000 0.0000 28.6014 0.0000 0.0000
# 5 0.0000 0.0000 0.0000 0.0000 15.7946 0.0000
# 6 0.0000 0.0000 0.0000 0.0000 0.0000 49.4509
#
#
#
# Elastic Compliance Matrix: (Units=1/GPa)
#
#
# Indices 1 2 3 4 5 6 
#
# 1 0.052475 -0.002759 -0.012290 0.000000 0.000000 0.000000
# 2 -0.002759 0.008750 -0.002082 0.000000 0.000000 0.000000
# 3 -0.012290 -0.002082 0.013178 0.000000 0.000000 0.000000
# 4 0.000000 0.000000 0.000000 0.034963 0.000000 0.000000
# 5 0.000000 0.000000 0.000000 0.000000 0.063313 0.000000
# 6 0.000000 0.000000 0.000000 0.000000 0.000000 0.020222
#
#
# Mechanical properties :
#
#
# Convention : Reuss Voigt Hill
#
# Bulk Modulus (GPa) = 24.91204 45.37485 35.14345
# Shear Modulus (GPa) = 20.78627 31.04781 25.91704
#
# Velocity S-wave (km/s) = 3.16172 3.86412 3.53043
# Velocity P-wave (km/s) = 5.03083 6.45989 5.78962
#
# Compressibility (1/GPa) = 0.04014123
#
# Stress axis : x y z
#
# Youngs Moduli (GPa) = 19.05653 114.28671 75.88653
#
# Poissons Ratio (x) = 0.31534 0.93265
# Poissons Ratio (y) = 0.05258 0.15796
# Poissons Ratio (z) = 0.23421 0.23789
#
# Static dielectric constant tensor:
#      x y z
#    x 1.752140 0.000000 0.000000 
#    y 0.000000 1.762450 0.000000 
#    z 0.000000 0.000000 1.784900 
# 
# From -- ./inp_files/26684.got.cif
#   From: 2010.05.17/outbox.cif.g08.bks.cpg/sg69_14_cif.got.tgz:26684.got - 2010.06.03 19:29:58.
