data_PCOD9512221
_publ_section_title
;
Structure prediction by ZEFSAII (Michael W. Deem and Ramdas Pophale) SiO2 
 PCOD9512221
Probable space group: F M M M
;
_chemical_formula_sum "Si O2"
_cell_formula_units_Z 144
_cell_length_a 20.136499
_cell_length_b 18.489599
_cell_length_c 20.437088
_cell_angle_alpha 90.000000
_cell_angle_beta 90.000000
_cell_angle_gamma 90.000000
_cell_volume 7609.050600
_symmetry_space_group_name_H-M "F M M M"
_symmetry_group_IT_number 69
_symmetry_cell_setting 'orthorhombic'
loop_
_space_group_symop_operation_xyz
x,y,z
-x,-y,z
x,-y,-z
-x,y,-z
-x,-y,-z
x,y,-z
-x,y,z
x,-y,z
x,1/2+y,1/2+z
-x,1/2-y,1/2+z
x,1/2-y,1/2-z
-x,1/2+y,1/2-z
-x,1/2-y,1/2-z
x,1/2+y,1/2-z
-x,1/2+y,1/2+z
x,1/2-y,1/2+z
1/2+x,y,1/2+z
1/2-x,-y,1/2+z
1/2+x,-y,1/2-z
1/2-x,y,1/2-z
1/2-x,-y,1/2-z
1/2+x,y,1/2-z
1/2-x,y,1/2+z
1/2+x,-y,1/2+z
1/2+x,1/2+y,z
1/2-x,1/2-y,z
1/2+x,1/2-y,-z
1/2-x,1/2+y,-z
1/2-x,1/2-y,-z
1/2+x,1/2+y,-z
1/2-x,1/2+y,z
1/2+x,1/2-y,z
loop_
_atom_site_type_symbol
_atom_site_label
_atom_site_fract_x
_atom_site_fract_y
_atom_site_fract_z
Si Si1 0.394615 0.415919 0.128170
Si Si2 0.000000 0.837662 0.375093
Si Si3 0.132601 0.913206 0.575617
Si Si4 0.500000 0.685906 0.071266
Si Si5 0.000000 0.080756 0.243044
Si Si6 0.749974 0.087894 0.325547
O O1 0.395804 0.500000 0.106567
O O2 0.436197 0.364769 0.081008
O O3 0.436057 0.413461 0.196180
O O4 0.319675 0.392287 0.140884
O O5 0.934877 0.870956 0.409110
O O6 0.000000 0.751419 0.378599
O O7 0.000000 0.862820 0.300379
O O8 0.153296 0.900807 0.500000
O O9 0.188250 0.890927 0.628805
O O10 0.121735 0.000000 0.582779
O O11 0.500000 0.719852 0.000000
O O12 0.000000 0.000000 0.272460
O O13 0.750000 0.113234 0.250000
O O14 0.750911 0.000000 0.323097
#
# Coordination Sequence:
#
# PCOD9512221 Si02
#       6
#    32  16  32  16  16  32
#     4   9  19  36  58  84 110 136 176 227 273 323
#     4  12  22  35  54  75 109 148 182 223 268 317
#     4  10  20  33  52  79 107 139 180 222 268 322
#     4  11  24  38  53  76 107 149 192 224 265 317
#     4   9  17  32  57  85 108 136 174 219 275 327
#     4   9  17  32  56  84 110 135 169 219 276 329
#
# _framework density 18.924831000000001
#
# number of rings (size 3 to 8) (size 9 to 14) (size 15 to 20)
#    0.000    2.222    0.000    4.333    0.000    8.000 
#    0.000    3.333    0.000    4.000    0.000    0.000 
#    0.000    0.000    0.000    0.000    0.000    0.000 
#
# Total GULP energy -200901.273479 kJ/mol
# GULP energy per Si atom -5580.590930 kJ/mol
# Density = 1.888176 g / cm^3
# Si number density = 18.924831 Si / 1000 Ang^3
#
#
#
# Elastic Constant Matrix: (Units=GPa)
#
#
# Indices 1 2 3 4 5 6 
#
# 1 155.9957 27.5514 38.8615 0.0000 0.0000 0.0000
# 2 27.5514 44.9421 15.5283 0.0000 0.0000 0.0000
# 3 38.8615 15.5283 70.1378 0.0000 0.0000 0.0000
# 4 0.0000 0.0000 0.0000 15.2002 0.0000 0.0000
# 5 0.0000 0.0000 0.0000 0.0000 -7.8525 0.0000
# 6 0.0000 0.0000 0.0000 0.0000 0.0000 -0.1514
#
#
#
# Elastic Compliance Matrix: (Units=1/GPa)
#
#
# Indices 1 2 3 4 5 6 
#
# 1 0.007948 -0.003629 -0.003601 0.000000 0.000000 0.000000
# 2 -0.003629 0.025750 -0.003691 0.000000 0.000000 0.000000
# 3 -0.003601 -0.003691 0.017070 0.000000 0.000000 0.000000
# 4 0.000000 0.000000 0.000000 0.065789 0.000000 0.000000
# 5 0.000000 0.000000 0.000000 0.000000 -0.127349 0.000000
# 6 0.000000 0.000000 0.000000 0.000000 0.000000 -6.604589
#
#
# Mechanical properties :
#
#
# Convention : Reuss Voigt Hill
#
# Bulk Modulus (GPa) = 34.56738 48.32867 41.44803
# Shear Modulus (GPa) = -0.75943 14.04822 6.64440
#
# Velocity S-wave (km/s) = -0.63416 2.72750 1.87578
# Velocity P-wave (km/s) = 4.21534 5.95917 5.16143
#
# Compressibility (1/GPa) = 0.02892901
#
# Stress axis : x y z
#
# Youngs Moduli (GPa) = 125.81359 38.83425 58.58328
#
# Poissons Ratio (x) = 0.14091 0.21093
# Poissons Ratio (y) = 0.45652 0.21621
# Poissons Ratio (z) = 0.45300 0.14332
#
# Static dielectric constant tensor:
#      x y z
#    x 1.566400 0.000000 0.000000 
#    y 0.000000 1.629750 0.000000 
#    z 0.000000 0.000000 1.660920 
# 
# From -- ./inp_files/31705.got.cif
#   From: 2010.05.17/outbox.cif.g08.bks.cpg/sg69_16_cif.got.tgz:31705.got - 2010.06.03 19:29:58.
