data_PCOD9512571
_publ_section_title
;
Structure prediction by ZEFSAII (Michael W. Deem and Ramdas Pophale) SiO2 
 PCOD9512571
Probable space group: F M M M
;
_chemical_formula_sum "Si O2"
_cell_formula_units_Z 160
_cell_length_a 25.881735
_cell_length_b 18.876727
_cell_length_c 16.428261
_cell_angle_alpha 90.000000
_cell_angle_beta 90.000000
_cell_angle_gamma 90.000000
_cell_volume 8026.231376
_symmetry_space_group_name_H-M "F M M M"
_symmetry_group_IT_number 69
_symmetry_cell_setting 'orthorhombic'
loop_
_space_group_symop_operation_xyz
x,y,z
-x,-y,z
x,-y,-z
-x,y,-z
-x,-y,-z
x,y,-z
-x,y,z
x,-y,z
x,1/2+y,1/2+z
-x,1/2-y,1/2+z
x,1/2-y,1/2-z
-x,1/2+y,1/2-z
-x,1/2-y,1/2-z
x,1/2+y,1/2-z
-x,1/2+y,1/2+z
x,1/2-y,1/2+z
1/2+x,y,1/2+z
1/2-x,-y,1/2+z
1/2+x,-y,1/2-z
1/2-x,y,1/2-z
1/2-x,-y,1/2-z
1/2+x,y,1/2-z
1/2-x,y,1/2+z
1/2+x,-y,1/2+z
1/2+x,1/2+y,z
1/2-x,1/2-y,z
1/2+x,1/2-y,-z
1/2-x,1/2+y,-z
1/2-x,1/2-y,-z
1/2+x,1/2+y,-z
1/2-x,1/2+y,z
1/2+x,1/2-y,z
loop_
_atom_site_type_symbol
_atom_site_label
_atom_site_fract_x
_atom_site_fract_y
_atom_site_fract_z
Si Si1 0.437391 0.700179 0.672298
Si Si2 0.415477 0.578355 0.000000
Si Si3 0.941762 0.762561 0.000000
Si Si4 0.731350 0.323429 0.407469
Si Si5 0.324773 0.078201 0.373373
Si Si6 0.853958 0.083649 0.685135
O O1 0.500000 0.693308 0.673208
O O2 0.423636 0.750000 0.750000
O O3 0.419669 0.735894 0.586460
O O4 0.408242 0.625232 0.678682
O O5 0.378073 0.581457 0.921987
O O6 0.440628 0.500000 0.000000
O O7 0.444509 0.652404 0.000000
O O8 0.000000 0.733830 0.000000
O O9 0.714047 0.308235 0.500000
O O10 0.750000 0.250000 0.367301
O O11 0.783789 0.367853 0.407203
O O12 0.687707 0.370193 0.364578
O O13 0.335592 0.087147 0.278531
O O14 0.302402 0.000000 0.386455
O O15 0.856299 0.000000 0.662003
#
# Coordination Sequence:
#
# PCOD9512571 Si02
#       6
#    32  16  16  32  32  32
#     4  10  23  43  67  93 125 167 208 261 324 374
#     4  10  20  35  62  87 118 163 203 254 316 366
#     4  10  22  39  62  91 124 159 207 261 311 379
#     4  11  25  39  59  90 122 167 212 253 301 368
#     4  10  21  39  58  84 122 162 201 251 310 366
#     4  11  25  40  62  94 126 164 212 259 311 375
#
# _framework density 19.934636000000001
#
# number of rings (size 3 to 8) (size 9 to 14) (size 15 to 20)
#    0.000    1.600    1.000    2.400    7.000    4.200 
#    0.000    0.000    0.000    9.000    0.000    0.000 
#    0.000    0.000    0.000    0.000    0.000    0.000 
#
# Total GULP energy -223151.437049 kJ/mol
# GULP energy per Si atom -5578.785926 kJ/mol
# Density = 1.988926 g / cm^3
# Si number density = 19.934636 Si / 1000 Ang^3
#
#
#
# Elastic Constant Matrix: (Units=GPa)
#
#
# Indices 1 2 3 4 5 6 
#
# 1 61.7735 52.0051 22.9183 0.0000 0.0000 0.0000
# 2 52.0051 157.5029 50.7512 0.0000 0.0000 0.0000
# 3 22.9183 50.7512 108.4887 0.0000 0.0000 0.0000
# 4 0.0000 0.0000 0.0000 34.6064 0.0000 0.0000
# 5 0.0000 0.0000 0.0000 0.0000 4.9971 0.0000
# 6 0.0000 0.0000 0.0000 0.0000 0.0000 26.6431
#
#
#
# Elastic Compliance Matrix: (Units=1/GPa)
#
#
# Indices 1 2 3 4 5 6 
#
# 1 0.022629 -0.006984 -0.001513 0.000000 0.000000 0.000000
# 2 -0.006984 0.009632 -0.003030 0.000000 0.000000 0.000000
# 3 -0.001513 -0.003030 0.010955 0.000000 0.000000 0.000000
# 4 0.000000 0.000000 0.000000 0.028896 0.000000 0.000000
# 5 0.000000 0.000000 0.000000 0.000000 0.200117 0.000000
# 6 0.000000 0.000000 0.000000 0.000000 0.000000 0.037533
#
#
# Mechanical properties :
#
#
# Convention : Reuss Voigt Hill
#
# Bulk Modulus (GPa) = 49.60244 64.34603 56.97423
# Shear Modulus (GPa) = 14.72589 26.72201 20.72395
#
# Velocity S-wave (km/s) = 2.72087 3.66523 3.22777
# Velocity P-wave (km/s) = 5.89978 7.08946 6.52180
#
# Compressibility (1/GPa) = 0.02016030
#
# Stress axis : x y z
#
# Youngs Moduli (GPa) = 44.19018 103.82466 91.28445
#
# Poissons Ratio (x) = 0.72514 0.13813
# Poissons Ratio (y) = 0.30864 0.27661
# Poissons Ratio (z) = 0.06687 0.31461
#
# Static dielectric constant tensor:
#      x y z
#    x 1.689150 0.000000 0.000000 
#    y 0.000000 1.724380 0.000000 
#    z 0.000000 0.000000 1.717640 
# 
# From -- ./inp_files/19567.got.cif
#   From: 2010.05.17/outbox.cif.g08.bks.cpg/sg69_10_cif.got.tgz:19567.got - 2010.06.03 19:29:58.
