data_PCOD9512262
_publ_section_title
;
Structure prediction by ZEFSAII (Michael W. Deem and Ramdas Pophale) SiO2 
 PCOD9512262
Probable space group: F M M M
;
_chemical_formula_sum "Si O2"
_cell_formula_units_Z 192
_cell_length_a 17.267324
_cell_length_b 28.904862
_cell_length_c 20.980539
_cell_angle_alpha 90.000000
_cell_angle_beta 90.000000
_cell_angle_gamma 90.000000
_cell_volume 10471.588792
_symmetry_space_group_name_H-M "F M M M"
_symmetry_group_IT_number 69
_symmetry_cell_setting 'orthorhombic'
loop_
_space_group_symop_operation_xyz
x,y,z
-x,-y,z
x,-y,-z
-x,y,-z
-x,-y,-z
x,y,-z
-x,y,z
x,-y,z
x,1/2+y,1/2+z
-x,1/2-y,1/2+z
x,1/2-y,1/2-z
-x,1/2+y,1/2-z
-x,1/2-y,1/2-z
x,1/2+y,1/2-z
-x,1/2+y,1/2+z
x,1/2-y,1/2+z
1/2+x,y,1/2+z
1/2-x,-y,1/2+z
1/2+x,-y,1/2-z
1/2-x,y,1/2-z
1/2-x,-y,1/2-z
1/2+x,y,1/2-z
1/2-x,y,1/2+z
1/2+x,-y,1/2+z
1/2+x,1/2+y,z
1/2-x,1/2-y,z
1/2+x,1/2-y,-z
1/2-x,1/2+y,-z
1/2-x,1/2-y,-z
1/2+x,1/2+y,-z
1/2-x,1/2+y,z
1/2+x,1/2-y,z
loop_
_atom_site_type_symbol
_atom_site_label
_atom_site_fract_x
_atom_site_fract_y
_atom_site_fract_z
Si Si1 0.328875 0.000000 0.793473
Si Si2 0.090273 0.320338 0.429674
Si Si3 0.590738 0.412201 0.237196
Si Si4 0.090641 0.241815 0.673745
Si Si5 0.808681 0.841394 0.308081
Si Si6 0.756214 0.000000 0.569928
Si Si7 0.808607 0.403244 0.612250
O O1 0.250000 0.000000 0.750000
O O2 0.378411 0.044550 0.776665
O O3 0.308517 0.000000 0.867377
O O4 0.098234 0.297937 0.500000
O O5 0.106836 0.286443 0.370314
O O6 0.146053 0.364297 0.426710
O O7 0.000000 0.334538 0.423200
O O8 0.500000 0.412190 0.228593
O O9 0.620100 0.366902 0.273532
O O10 0.634943 0.415207 0.170624
O O11 0.097094 0.250000 0.750000
O O12 0.154158 0.202845 0.658359
O O13 0.000000 0.229032 0.661448
O O14 0.750000 0.829200 0.250000
O O15 0.765037 0.877377 0.354822
O O16 0.710483 0.048754 0.577304
O O17 0.793366 0.000000 0.500000
#
# Coordination Sequence:
#
# PCOD9512262 Si02
#       7
#    16  32  32  32  32  16  32
#     4  12  19  40  59  87 123 151 197 250 297 352
#     4  10  22  40  59  83 120 160 196 242 303 367
#     4  11  20  33  60  92 118 154 199 249 302 355
#     4  10  20  36  58  85 117 153 196 242 295 356
#     4  10  20  33  56  88 122 151 189 250 295 345
#     4  12  24  40  62  84 120 162 196 240 306 362
#     4  11  21  38  60  87 120 153 198 249 293 361
#
# _framework density 18.335326999999999
#
# number of rings (size 3 to 8) (size 9 to 14) (size 15 to 20)
#    0.000    1.333    3.333    4.250    0.000    3.667 
#    0.000    3.750    0.000    4.000    0.000    0.000 
#    0.000    0.000    0.000    0.000    0.000    0.000 
#
# Total GULP energy -267880.049189 kJ/mol
# GULP energy per Si atom -5580.834358 kJ/mol
# Density = 1.829359 g / cm^3
# Si number density = 18.335327 Si / 1000 Ang^3
#
#
#
# Elastic Constant Matrix: (Units=GPa)
#
#
# Indices 1 2 3 4 5 6 
#
# 1 72.1746 42.5619 23.7632 0.0000 0.0000 0.0000
# 2 42.5619 96.2448 34.0003 0.0000 0.0000 0.0000
# 3 23.7632 34.0003 115.5488 0.0000 0.0000 0.0000
# 4 0.0000 0.0000 0.0000 -1.7780 0.0000 0.0000
# 5 0.0000 0.0000 0.0000 0.0000 13.5747 0.0000
# 6 0.0000 0.0000 0.0000 0.0000 0.0000 155.5434
#
#
#
# Elastic Compliance Matrix: (Units=1/GPa)
#
#
# Indices 1 2 3 4 5 6 
#
# 1 0.019005 -0.007839 -0.001602 0.000000 0.000000 0.000000
# 2 -0.007839 0.014829 -0.002751 0.000000 0.000000 0.000000
# 3 -0.001602 -0.002751 0.009793 0.000000 0.000000 0.000000
# 4 0.000000 0.000000 0.000000 -0.562440 0.000000 0.000000
# 5 0.000000 0.000000 0.000000 0.000000 0.073667 0.000000
# 6 0.000000 0.000000 0.000000 0.000000 0.000000 0.006429
#
#
# Mechanical properties :
#
#
# Convention : Reuss Voigt Hill
#
# Bulk Modulus (GPa) = 51.96598 53.84655 52.90627
# Shear Modulus (GPa) = -12.25734 45.71088 16.72677
#
# Velocity S-wave (km/s) = -2.58836 4.99846 3.02366
# Velocity P-wave (km/s) = 4.41256 7.92113 6.41151
#
# Compressibility (1/GPa) = 0.01924336
#
# Stress axis : x y z
#
# Youngs Moduli (GPa) = 52.61706 67.43750 102.10991
#
# Poissons Ratio (x) = 0.52862 0.16358
# Poissons Ratio (y) = 0.41245 0.28093
# Poissons Ratio (z) = 0.08429 0.18554
#
# Static dielectric constant tensor:
#      x y z
#    x 1.621810 0.000000 0.000000 
#    y 0.000000 1.730540 0.000000 
#    z 0.000000 0.000000 1.642060 
# 
# From -- ./inp_files/23741.got.cif
#   From: 2010.05.17/outbox.cif.g08.bks.cpg/sg69_12_cif.got.tgz:23741.got - 2010.06.03 19:29:58.
