data_PCOD9512734
_publ_section_title
;
Structure prediction by ZEFSAII (Michael W. Deem and Ramdas Pophale) SiO2 
 PCOD9512734
Probable space group: F M M M
;
_chemical_formula_sum "Si O2"
_cell_formula_units_Z 168
_cell_length_a 15.637594
_cell_length_b 24.367378
_cell_length_c 20.946252
_cell_angle_alpha 90.000000
_cell_angle_beta 90.000000
_cell_angle_gamma 90.000000
_cell_volume 7981.509921
_symmetry_space_group_name_H-M "F M M M"
_symmetry_group_IT_number 69
_symmetry_cell_setting 'orthorhombic'
loop_
_space_group_symop_operation_xyz
x,y,z
-x,-y,z
x,-y,-z
-x,y,-z
-x,-y,-z
x,y,-z
-x,y,z
x,-y,z
x,1/2+y,1/2+z
-x,1/2-y,1/2+z
x,1/2-y,1/2-z
-x,1/2+y,1/2-z
-x,1/2-y,1/2-z
x,1/2+y,1/2-z
-x,1/2+y,1/2+z
x,1/2-y,1/2+z
1/2+x,y,1/2+z
1/2-x,-y,1/2+z
1/2+x,-y,1/2-z
1/2-x,y,1/2-z
1/2-x,-y,1/2-z
1/2+x,y,1/2-z
1/2-x,y,1/2+z
1/2+x,-y,1/2+z
1/2+x,1/2+y,z
1/2-x,1/2-y,z
1/2+x,1/2-y,-z
1/2-x,1/2+y,-z
1/2-x,1/2-y,-z
1/2+x,1/2+y,-z
1/2-x,1/2+y,z
1/2+x,1/2-y,z
loop_
_atom_site_type_symbol
_atom_site_label
_atom_site_fract_x
_atom_site_fract_y
_atom_site_fract_z
Si Si1 0.169979 0.859027 0.073321
Si Si2 0.407890 0.940587 0.106429
Si Si3 0.364525 0.821832 0.931444
Si Si4 0.404896 0.226588 0.339908
Si Si5 0.250000 0.750000 0.750000
Si Si6 0.266638 0.062411 0.319067
O O1 0.262200 0.828412 0.072657
O O2 0.104152 0.815915 0.101993
O O3 0.179613 0.906484 0.126705
O O4 0.153882 0.876752 0.000000
O O5 0.500000 0.939119 0.139297
O O6 0.399213 0.883948 0.068995
O O7 0.328394 0.940350 0.152844
O O8 0.403513 0.000000 0.071966
O O9 0.396445 0.786616 0.872043
O O10 0.386338 0.796018 0.000000
O O11 0.500000 0.219840 0.311152
O O12 0.320510 0.219141 0.295017
O O13 0.250000 0.089125 0.250000
O O14 0.299286 0.000000 0.309902
#
# Coordination Sequence:
#
# PCOD9512734 Si02
#       6
#    32  32  32  32   8  32
#     4  10  21  38  62  91 128 170 213 266 324 385
#     4   9  18  32  52  83 120 157 202 258 316 377
#     4  10  20  37  59  85 123 167 206 255 318 381
#     4  12  25  41  66  93 123 169 215 263 327 389
#     4  12  26  48  62  90 130 160 212 276 324 388
#     4   9  19  36  60  87 120 168 217 263 323 385
#
# _framework density 21.048649000000001
#
# number of rings (size 3 to 8) (size 9 to 14) (size 15 to 20)
#    0.000    1.905    1.905    1.429    1.333    4.952 
#    0.000    7.619    0.000    1.714    0.000    1.333 
#    0.000    0.000    0.000    0.000    0.000    0.000 
#
# Total GULP energy -233882.736986 kJ/mol
# GULP energy per Si atom -5568.636595 kJ/mol
# Density = 2.100074 g / cm^3
# Si number density = 21.048649 Si / 1000 Ang^3
#
#
#
# Elastic Constant Matrix: (Units=GPa)
#
#
# Indices 1 2 3 4 5 6 
#
# 1 97.4273 23.0894 13.4466 0.0000 0.0000 0.0000
# 2 23.0894 87.8296 49.6452 0.0000 0.0000 0.0000
# 3 13.4466 49.6452 127.9545 0.0000 0.0000 0.0000
# 4 0.0000 0.0000 0.0000 24.0946 0.0000 0.0000
# 5 0.0000 0.0000 0.0000 0.0000 -16.8457 0.0000
# 6 0.0000 0.0000 0.0000 0.0000 0.0000 9.3179
#
#
#
# Elastic Compliance Matrix: (Units=1/GPa)
#
#
# Indices 1 2 3 4 5 6 
#
# 1 0.010946 -0.002853 -0.000043 0.000000 0.000000 0.000000
# 2 -0.002853 0.015328 -0.005647 0.000000 0.000000 0.000000
# 3 -0.000043 -0.005647 0.010011 0.000000 0.000000 0.000000
# 4 0.000000 0.000000 0.000000 0.041503 0.000000 0.000000
# 5 0.000000 0.000000 0.000000 0.000000 -0.059362 0.000000
# 6 0.000000 0.000000 0.000000 0.000000 0.000000 0.107320
#
#
# Mechanical properties :
#
#
# Convention : Reuss Voigt Hill
#
# Bulk Modulus (GPa) = 52.09003 53.95265 53.02134
# Shear Modulus (GPa) = 33.50479 18.44872 25.97676
#
# Velocity S-wave (km/s) = 3.99404 2.96375 3.51683
# Velocity P-wave (km/s) = 6.78756 6.11554 6.46029
#
# Compressibility (1/GPa) = 0.01919753
#
# Stress axis : x y z
#
# Youngs Moduli (GPa) = 91.35583 65.24095 99.89112
#
# Poissons Ratio (x) = 0.18614 0.00433
# Poissons Ratio (y) = 0.26065 0.56411
# Poissons Ratio (z) = 0.00396 0.36843
#
# Static dielectric constant tensor:
#      x y z
#    x 1.767360 0.000000 0.000000 
#    y 0.000000 1.813530 0.000000 
#    z 0.000000 0.000000 1.826220 
# 
# From -- ./inp_files/35887.got.cif
#   From: 2010.05.17/outbox.cif.g08.bks.cpg/sg69_18_cif.got.tgz:35887.got - 2010.06.03 19:29:58.
