data_PCOD9512061
_publ_section_title
;
Structure prediction by ZEFSAII (Michael W. Deem and Ramdas Pophale) SiO2 
 PCOD9512061
Probable space group: F M M M
;
_chemical_formula_sum "Si O2"
_cell_formula_units_Z 176
_cell_length_a 28.264818
_cell_length_b 14.377059
_cell_length_c 23.337781
_cell_angle_alpha 90.000000
_cell_angle_beta 90.000000
_cell_angle_gamma 90.000000
_cell_volume 9483.656349
_symmetry_space_group_name_H-M "F M M M"
_symmetry_group_IT_number 69
_symmetry_cell_setting 'orthorhombic'
loop_
_space_group_symop_operation_xyz
x,y,z
-x,-y,z
x,-y,-z
-x,y,-z
-x,-y,-z
x,y,-z
-x,y,z
x,-y,z
x,1/2+y,1/2+z
-x,1/2-y,1/2+z
x,1/2-y,1/2-z
-x,1/2+y,1/2-z
-x,1/2-y,1/2-z
x,1/2+y,1/2-z
-x,1/2+y,1/2+z
x,1/2-y,1/2+z
1/2+x,y,1/2+z
1/2-x,-y,1/2+z
1/2+x,-y,1/2-z
1/2-x,y,1/2-z
1/2-x,-y,1/2-z
1/2+x,y,1/2-z
1/2-x,y,1/2+z
1/2+x,-y,1/2+z
1/2+x,1/2+y,z
1/2-x,1/2-y,z
1/2+x,1/2-y,-z
1/2-x,1/2+y,-z
1/2-x,1/2-y,-z
1/2+x,1/2+y,-z
1/2-x,1/2+y,z
1/2+x,1/2-y,z
loop_
_atom_site_type_symbol
_atom_site_label
_atom_site_fract_x
_atom_site_fract_y
_atom_site_fract_z
Si Si1 0.447377 0.886898 0.727279
Si Si2 0.000000 0.108587 0.068050
Si Si3 0.890379 0.108326 0.337677
Si Si4 0.134295 0.105088 0.142346
Si Si5 0.093368 0.763312 0.932550
Si Si6 0.304266 0.638729 0.249859
O O1 0.500000 0.854406 0.714875
O O2 0.428921 0.861668 0.789949
O O3 0.408595 0.856867 0.681796
O O4 0.446974 0.000000 0.725841
O O5 0.953711 0.172799 0.079072
O O6 0.000000 0.000000 0.092688
O O7 0.000000 0.095207 0.000000
O O8 0.898909 0.173327 0.392469
O O9 0.840205 0.112876 0.302085
O O10 0.897610 0.000000 0.352163
O O11 0.136400 0.169742 0.087402
O O12 0.175546 0.106517 0.188712
O O13 0.124254 0.000000 0.124599
O O14 0.093436 0.741671 0.000000
O O15 0.304650 0.750000 0.250000
O O16 0.250000 0.607335 0.250000
#
# Coordination Sequence:
#
# PCOD9512061 Si02
#       6
#    32  16  32  32  32  32
#     4   8  16  30  50  78 109 140 174 220 282 344
#     4   9  20  38  57  78 107 151 205 249 284 325
#     4  10  21  37  57  84 116 151 194 237 288 354
#     4  10  20  34  55  84 113 143 185 233 292 355
#     4  11  23  38  55  80 114 156 202 244 283 332
#     4  10  19  36  62  90 119 147 183 239 300 359
#
# _framework density 18.558243999999998
#
# number of rings (size 3 to 8) (size 9 to 14) (size 15 to 20)
#    0.000    2.273    1.818    2.182    2.545    2.909 
#    0.000    0.909    0.000    3.818    0.000    2.545 
#    0.000    0.000    0.000    0.000    0.000    0.000 
#
# Total GULP energy -245122.548362 kJ/mol
# GULP energy per Si atom -5570.967008 kJ/mol
# Density = 1.851600 g / cm^3
# Si number density = 18.558244 Si / 1000 Ang^3
#
#
#
# Elastic Constant Matrix: (Units=GPa)
#
#
# Indices 1 2 3 4 5 6 
#
# 1 102.9004 -3.9465 22.4080 0.0000 0.0000 0.0000
# 2 -3.9465 90.0716 18.5809 0.0000 0.0000 0.0000
# 3 22.4080 18.5809 95.7434 0.0000 0.0000 0.0000
# 4 0.0000 0.0000 0.0000 9.1413 0.0000 0.0000
# 5 0.0000 0.0000 0.0000 0.0000 16.7008 0.0000
# 6 0.0000 0.0000 0.0000 0.0000 0.0000 20.1654
#
#
#
# Elastic Compliance Matrix: (Units=1/GPa)
#
#
# Indices 1 2 3 4 5 6 
#
# 1 0.010324 0.000990 -0.002609 0.000000 0.000000 0.000000
# 2 0.000990 0.011660 -0.002495 0.000000 0.000000 0.000000
# 3 -0.002609 -0.002495 0.011539 0.000000 0.000000 0.000000
# 4 0.000000 0.000000 0.000000 0.109393 0.000000 0.000000
# 5 0.000000 0.000000 0.000000 0.000000 0.059877 0.000000
# 6 0.000000 0.000000 0.000000 0.000000 0.000000 0.049590
#
#
# Mechanical properties :
#
#
# Convention : Reuss Voigt Hill
#
# Bulk Modulus (GPa) = 39.52855 40.31114 39.91985
# Shear Modulus (GPa) = 18.58444 25.97971 22.28208
#
# Velocity S-wave (km/s) = 3.16794 3.74558 3.46881
# Velocity P-wave (km/s) = 5.89297 6.36195 6.13195
#
# Compressibility (1/GPa) = 0.02529817
#
# Stress axis : x y z
#
# Youngs Moduli (GPa) = 96.86017 85.76098 86.66088
#
# Poissons Ratio (x) = -0.08494 0.22606
# Poissons Ratio (y) = -0.09594 0.21620
# Poissons Ratio (z) = 0.25266 0.21395
#
# Static dielectric constant tensor:
#      x y z
#    x 1.696150 0.000000 0.000000 
#    y 0.000000 1.682780 0.000000 
#    z 0.000000 0.000000 1.650730 
# 
# From -- ./inp_files/38340.got.cif
#   From: 2010.05.17/outbox.cif.g08.bks.cpg/sg69_20_cif.got.tgz:38340.got - 2010.06.03 19:29:58.
