data_PCOD9512731
_publ_section_title
;
Structure prediction by ZEFSAII (Michael W. Deem and Ramdas Pophale) SiO2 
 PCOD9512731
Probable space group: F M M M
;
_chemical_formula_sum "Si O2"
_cell_formula_units_Z 144
_cell_length_a 21.387282
_cell_length_b 17.102382
_cell_length_c 19.914505
_cell_angle_alpha 90.000000
_cell_angle_beta 90.000000
_cell_angle_gamma 90.000000
_cell_volume 7284.197532
_symmetry_space_group_name_H-M "F M M M"
_symmetry_group_IT_number 69
_symmetry_cell_setting 'orthorhombic'
loop_
_space_group_symop_operation_xyz
x,y,z
-x,-y,z
x,-y,-z
-x,y,-z
-x,-y,-z
x,y,-z
-x,y,z
x,-y,z
x,1/2+y,1/2+z
-x,1/2-y,1/2+z
x,1/2-y,1/2-z
-x,1/2+y,1/2-z
-x,1/2-y,1/2-z
x,1/2+y,1/2-z
-x,1/2+y,1/2+z
x,1/2-y,1/2+z
1/2+x,y,1/2+z
1/2-x,-y,1/2+z
1/2+x,-y,1/2-z
1/2-x,y,1/2-z
1/2-x,-y,1/2-z
1/2+x,y,1/2-z
1/2-x,y,1/2+z
1/2+x,-y,1/2+z
1/2+x,1/2+y,z
1/2-x,1/2-y,z
1/2+x,1/2-y,-z
1/2-x,1/2+y,-z
1/2-x,1/2-y,-z
1/2+x,1/2+y,-z
1/2-x,1/2+y,z
1/2+x,1/2-y,z
loop_
_atom_site_type_symbol
_atom_site_label
_atom_site_fract_x
_atom_site_fract_y
_atom_site_fract_z
Si Si1 0.689004 0.836601 0.717900
Si Si2 0.425430 0.317084 0.574028
Si Si3 0.930519 0.500000 0.580238
Si Si4 0.571904 0.406598 0.710580
Si Si5 0.649122 0.844795 0.576913
O O1 0.685180 0.750000 0.750000
O O2 0.750000 0.875958 0.750000
O O3 0.623909 0.876439 0.738123
O O4 0.697143 0.835497 0.637782
O O5 0.408561 0.349703 0.500000
O O6 0.500000 0.305689 0.574715
O O7 0.410893 0.371056 0.637588
O O8 0.393159 0.232896 0.580156
O O9 0.938171 0.500000 0.500000
O O10 0.891891 0.578475 0.593288
O O11 0.000000 0.500000 0.611664
O O12 0.500000 0.382111 0.726506
O O13 0.572992 0.500000 0.708113
O O14 0.672816 0.851886 0.500000
#
# Coordination Sequence:
#
# PCOD9512731 Si02
#       5
#    32  32  16  32  32
#     4  11  24  43  62  88 120 159 201 250 305 361
#     4   9  17  32  57  87 119 158 201 247 302 357
#     4   9  18  32  55  90 126 156 193 246 302 355
#     4  10  22  39  60  90 123 159 204 252 302 356
#     4  10  20  37  59  84 118 158 201 248 298 360
#
# _framework density 19.768820999999999
#
# number of rings (size 3 to 8) (size 9 to 14) (size 15 to 20)
#    0.000    2.111    2.222    0.667    1.556    5.778 
#    0.000    5.556    0.000    0.000    0.000    0.000 
#    0.000    0.000    0.000    0.000    0.000    0.000 
#
# Total GULP energy -200789.131872 kJ/mol
# GULP energy per Si atom -5577.475885 kJ/mol
# Density = 1.972383 g / cm^3
# Si number density = 19.768821 Si / 1000 Ang^3
#
#
#
# Elastic Constant Matrix: (Units=GPa)
#
#
# Indices 1 2 3 4 5 6 
#
# 1 54.5175 24.4549 53.7055 0.0000 0.0000 0.0000
# 2 24.4549 59.5804 24.5351 0.0000 0.0000 0.0000
# 3 53.7055 24.5351 159.1511 0.0000 0.0000 0.0000
# 4 0.0000 0.0000 0.0000 19.3316 0.0000 0.0000
# 5 0.0000 0.0000 0.0000 0.0000 19.7143 0.0000
# 6 0.0000 0.0000 0.0000 0.0000 0.0000 -11.0829
#
#
#
# Elastic Compliance Matrix: (Units=1/GPa)
#
#
# Indices 1 2 3 4 5 6 
#
# 1 0.031540 -0.009143 -0.009234 0.000000 0.000000 0.000000
# 2 -0.009143 0.020572 -0.000086 0.000000 0.000000 0.000000
# 3 -0.009234 -0.000086 0.009413 0.000000 0.000000 0.000000
# 4 0.000000 0.000000 0.000000 0.051729 0.000000 0.000000
# 5 0.000000 0.000000 0.000000 0.000000 0.050725 0.000000
# 6 0.000000 0.000000 0.000000 0.000000 0.000000 -0.090229
#
#
# Mechanical properties :
#
#
# Convention : Reuss Voigt Hill
#
# Bulk Modulus (GPa) = 40.65209 53.18221 46.91715
# Shear Modulus (GPa) = 42.06085 16.96284 29.51184
#
# Velocity S-wave (km/s) = 4.61763 2.93244 3.86793
# Velocity P-wave (km/s) = 7.00275 6.19888 6.61304
#
# Compressibility (1/GPa) = 0.02459898
#
# Stress axis : x y z
#
# Youngs Moduli (GPa) = 31.70533 48.60884 106.24131
#
# Poissons Ratio (x) = 0.44445 0.98101
# Poissons Ratio (y) = 0.28989 0.00914
# Poissons Ratio (z) = 0.29276 0.00418
#
# Static dielectric constant tensor:
#      x y z
#    x 1.712620 0.000000 0.000000 
#    y 0.000000 1.675480 0.000000 
#    z 0.000000 0.000000 1.747700 
# 
# From -- ./inp_files/24469.got.cif
#   From: 2010.05.17/outbox.cif.g08.bks.cpg/sg69_13_cif.got.tgz:24469.got - 2010.06.03 19:29:58.
