data_PCOD9512975
_publ_section_title
;
Structure prediction by ZEFSAII (Michael W. Deem and Ramdas Pophale) SiO2 
 PCOD9512975
Probable space group: F M M M
;
_chemical_formula_sum "Si O2"
_cell_formula_units_Z 160
_cell_length_a 27.639694
_cell_length_b 30.743157
_cell_length_c 9.777288
_cell_angle_alpha 90.000000
_cell_angle_beta 90.000000
_cell_angle_gamma 90.000000
_cell_volume 8308.069130
_symmetry_space_group_name_H-M "F M M M"
_symmetry_group_IT_number 69
_symmetry_cell_setting 'orthorhombic'
loop_
_space_group_symop_operation_xyz
x,y,z
-x,-y,z
x,-y,-z
-x,y,-z
-x,-y,-z
x,y,-z
-x,y,z
x,-y,z
x,1/2+y,1/2+z
-x,1/2-y,1/2+z
x,1/2-y,1/2-z
-x,1/2+y,1/2-z
-x,1/2-y,1/2-z
x,1/2+y,1/2-z
-x,1/2+y,1/2+z
x,1/2-y,1/2+z
1/2+x,y,1/2+z
1/2-x,-y,1/2+z
1/2+x,-y,1/2-z
1/2-x,y,1/2-z
1/2-x,-y,1/2-z
1/2+x,y,1/2-z
1/2-x,y,1/2+z
1/2+x,-y,1/2+z
1/2+x,1/2+y,z
1/2-x,1/2-y,z
1/2+x,1/2-y,-z
1/2-x,1/2+y,-z
1/2-x,1/2-y,-z
1/2+x,1/2+y,-z
1/2-x,1/2+y,z
1/2+x,1/2-y,z
loop_
_atom_site_type_symbol
_atom_site_label
_atom_site_fract_x
_atom_site_fract_y
_atom_site_fract_z
Si Si1 0.193200 0.390221 0.745205
Si Si2 0.683254 0.450288 0.500000
Si Si3 0.058490 0.449145 0.839552
Si Si4 0.405077 0.631802 0.834866
Si Si5 0.701544 0.453691 0.000000
Si Si6 0.557522 0.210180 0.157825
O O1 0.250000 0.376039 0.750000
O O2 0.176175 0.417899 0.874659
O O3 0.151182 0.357398 0.702312
O O4 0.189732 0.426304 0.629680
O O5 0.663175 0.500000 0.500000
O O6 0.740916 0.457751 0.500000
O O7 0.070746 0.500000 0.811439
O O8 0.080521 0.414943 0.731767
O O9 0.000000 0.445636 0.833410
O O10 0.072167 0.439851 0.000000
O O11 0.434633 0.667045 0.747782
O O12 0.412220 0.632669 0.000000
O O13 0.677358 0.500000 0.000000
O O14 0.500000 0.216821 0.145180
O O15 0.577339 0.250000 0.250000
O O16 0.576295 0.207517 0.000000
#
# Coordination Sequence:
#
# PCOD9512975 Si02
#       6
#    32  16  32  32  16  32
#     4  10  21  36  51  75 111 153 198 246 298 348
#     4   9  18  30  50  72  96 143 202 254 298 341
#     4   9  20  39  58  78 111 156 203 247 290 345
#     4  12  24  37  56  88 121 156 196 241 295 352
#     4   9  16  32  50  68 102 145 194 250 302 339
#     4  10  22  42  69  98 124 149 182 231 291 353
#
# _framework density 19.258385000000001
#
# number of rings (size 3 to 8) (size 9 to 14) (size 15 to 20)
#    0.000    2.000    1.000    3.000    2.800    8.400 
#    0.000    1.000    0.000    0.600    0.000    2.800 
#    0.000    0.000    0.000    0.000    0.000    0.000 
#
# Total GULP energy -222694.986612 kJ/mol
# GULP energy per Si atom -5567.374665 kJ/mol
# Density = 1.921455 g / cm^3
# Si number density = 19.258385 Si / 1000 Ang^3
#
#
#
# Elastic Constant Matrix: (Units=GPa)
#
#
# Indices 1 2 3 4 5 6 
#
# 1 56.0415 8.6740 24.2719 -0.0013 0.0051 0.0020
# 2 8.6740 68.4668 51.0488 -0.0014 0.0003 0.0009
# 3 24.2719 51.0488 189.6794 -0.0007 0.0137 0.0032
# 4 -0.0013 -0.0014 -0.0007 20.3688 0.0012 0.0010
# 5 0.0051 0.0003 0.0137 0.0012 49.3450 -0.0045
# 6 0.0020 0.0009 0.0032 0.0010 -0.0045 5.3637
#
#
#
# Elastic Compliance Matrix: (Units=1/GPa)
#
#
# Indices 1 2 3 4 5 6 
#
# 1 0.018921 -0.000740 -0.002222 0.000001 -0.000001 -0.000005
# 2 -0.000740 0.018301 -0.004831 0.000001 0.000001 0.000000
# 3 -0.002222 -0.004831 0.006856 0.000000 -0.000002 -0.000002
# 4 0.000001 0.000001 0.000000 0.049095 -0.000001 -0.000009
# 5 -0.000001 0.000001 -0.000002 -0.000001 0.020265 0.000017
# 6 -0.000005 0.000000 -0.000002 -0.000009 0.000017 0.186440
#
#
# Mechanical properties :
#
#
# Convention : Reuss Voigt Hill
#
# Bulk Modulus (GPa) = 35.09698 53.57524 44.33611
# Shear Modulus (GPa) = 15.38643 30.36169 22.87406
#
# Velocity S-wave (km/s) = 2.82963 3.97488 3.45011
# Velocity P-wave (km/s) = 5.37955 6.99613 6.24041
#
# Compressibility (1/GPa) = 0.02849248
#
# Stress axis : x y z
#
# Youngs Moduli (GPa) = 52.85179 54.64127 145.84773
#
# Poissons Ratio (x) = 0.04046 0.32406
# Poissons Ratio (y) = 0.03913 0.70454
# Poissons Ratio (z) = 0.11743 0.26395
#
# Static dielectric constant tensor:
#      x y z
#    x 1.761900 0.000000 0.000000 
#    y 0.000000 1.681810 0.000000 
#    z 0.000000 0.000000 1.600480 
# 
# From -- ./inp_files/5747.got.cif
#   From: 2010.05.17/outbox.cif.g08.bks.cpg/sg69_3_cif.got.tgz:5747.got - 2010.06.03 19:29:58.
