data_PCOD9512514
_publ_section_title
;
Structure prediction by ZEFSAII (Michael W. Deem and Ramdas Pophale) SiO2 
 PCOD9512514
Probable space group: F M M M
;
_chemical_formula_sum "Si O2"
_cell_formula_units_Z 120
_cell_length_a 16.342438
_cell_length_b 27.130613
_cell_length_c 14.271316
_cell_angle_alpha 90.000000
_cell_angle_beta 90.000000
_cell_angle_gamma 90.000000
_cell_volume 6327.621238
_symmetry_space_group_name_H-M "F M M M"
_symmetry_group_IT_number 69
_symmetry_cell_setting 'orthorhombic'
loop_
_space_group_symop_operation_xyz
x,y,z
-x,-y,z
x,-y,-z
-x,y,-z
-x,-y,-z
x,y,-z
-x,y,z
x,-y,z
x,1/2+y,1/2+z
-x,1/2-y,1/2+z
x,1/2-y,1/2-z
-x,1/2+y,1/2-z
-x,1/2-y,1/2-z
x,1/2+y,1/2-z
-x,1/2+y,1/2+z
x,1/2-y,1/2+z
1/2+x,y,1/2+z
1/2-x,-y,1/2+z
1/2+x,-y,1/2-z
1/2-x,y,1/2-z
1/2-x,-y,1/2-z
1/2+x,y,1/2-z
1/2-x,y,1/2+z
1/2+x,-y,1/2+z
1/2+x,1/2+y,z
1/2-x,1/2-y,z
1/2+x,1/2-y,-z
1/2-x,1/2+y,-z
1/2-x,1/2-y,-z
1/2+x,1/2+y,-z
1/2-x,1/2+y,z
1/2+x,1/2-y,z
loop_
_atom_site_type_symbol
_atom_site_label
_atom_site_fract_x
_atom_site_fract_y
_atom_site_fract_z
Si Si1 0.904553 0.800556 0.290656
Si Si2 0.724263 0.000000 0.500000
Si Si3 0.743685 0.393375 0.000000
Si Si4 0.165821 0.599985 0.701757
Si Si5 0.591448 0.500000 0.836132
Si Si6 0.407067 0.828525 0.000000
O O1 0.868659 0.750000 0.250000
O O2 0.863789 0.850396 0.252620
O O3 0.901647 0.798942 0.403126
O O4 0.000000 0.803192 0.262076
O O5 0.773208 0.049976 0.500000
O O6 0.663271 0.000000 0.587665
O O7 0.688097 0.387617 0.093251
O O8 0.826074 0.362017 0.000000
O O9 0.250000 0.583978 0.750000
O O10 0.105557 0.553117 0.712633
O O11 0.500000 0.500000 0.875687
O O12 0.500000 0.851417 0.000000
#
# Coordination Sequence:
#
# PCOD9512514 Si02
#       6
#    32   8  16  32  16  16
#     4  10  22  40  61  86 118 157 197 241 294 351
#     4   8  19  34  59  80 122 148 188 248 293 346
#     4  10  20  38  57  88 113 157 196 241 299 345
#     4  11  21  37  59  85 119 153 197 247 296 348
#     4  10  20  35  57  84 114 156 198 240 294 349
#     4  10  20  39  61  81 117 158 195 241 291 347
#
# _framework density 18.964472000000001
#
# number of rings (size 3 to 8) (size 9 to 14) (size 15 to 20)
#    0.000    1.867    2.667    1.400    0.000    1.600 
#    0.000    5.000    0.000    0.000    0.000    0.000 
#    0.000    0.000    0.000    0.000    0.000    0.000 
#
# Total GULP energy -167105.777216 kJ/mol
# GULP energy per Si atom -5570.192574 kJ/mol
# Density = 1.892131 g / cm^3
# Si number density = 18.964472 Si / 1000 Ang^3
#
#
#
# Elastic Constant Matrix: (Units=GPa)
#
#
# Indices 1 2 3 4 5 6 
#
# 1 59.9356 26.0195 9.6504 0.0000 0.0000 0.0000
# 2 26.0195 122.2373 30.8042 0.0000 0.0000 0.0000
# 3 9.6504 30.8042 104.3980 0.0000 0.0000 0.0000
# 4 0.0000 0.0000 0.0000 16.2723 0.0000 0.0000
# 5 0.0000 0.0000 0.0000 0.0000 44.3447 0.0000
# 6 0.0000 0.0000 0.0000 0.0000 0.0000 62.8501
#
#
#
# Elastic Compliance Matrix: (Units=1/GPa)
#
#
# Indices 1 2 3 4 5 6 
#
# 1 0.018417 -0.003772 -0.000590 0.000000 0.000000 0.000000
# 2 -0.003772 0.009610 -0.002487 0.000000 0.000000 0.000000
# 3 -0.000590 -0.002487 0.010367 0.000000 0.000000 0.000000
# 4 0.000000 0.000000 0.000000 0.061454 0.000000 0.000000
# 5 0.000000 0.000000 0.000000 0.000000 0.022551 0.000000
# 6 0.000000 0.000000 0.000000 0.000000 0.000000 0.015911
#
#
# Mechanical properties :
#
#
# Convention : Reuss Voigt Hill
#
# Bulk Modulus (GPa) = 40.48942 46.61325 43.55133
# Shear Modulus (GPa) = 31.20336 39.36653 35.28494
#
# Velocity S-wave (km/s) = 4.06070 4.56104 4.31813
# Velocity P-wave (km/s) = 6.58652 7.23672 6.91926
#
# Compressibility (1/GPa) = 0.02469781
#
# Stress axis : x y z
#
# Youngs Moduli (GPa) = 54.29810 104.05406 96.45935
#
# Poissons Ratio (x) = 0.39246 0.05687
# Poissons Ratio (y) = 0.20479 0.23990
# Poissons Ratio (z) = 0.03201 0.25879
#
# Static dielectric constant tensor:
#      x y z
#    x 1.643690 0.000000 0.000000 
#    y 0.000000 1.688870 0.000000 
#    z 0.000000 0.000000 1.688850 
# 
# From -- ./inp_files/14451.got.cif
#   From: 2010.05.17/outbox.cif.g08.bks.cpg/sg69_8_cif.got.tgz:14451.got - 2010.06.03 19:29:58.
