data_PCOD9512929
_publ_section_title
;
Structure prediction by ZEFSAII (Michael W. Deem and Ramdas Pophale) SiO2 
 PCOD9512929
Probable space group: F M M M
;
_chemical_formula_sum "Si O2"
_cell_formula_units_Z 160
_cell_length_a 28.211931
_cell_length_b 8.710620
_cell_length_c 38.677764
_cell_angle_alpha 90.000000
_cell_angle_beta 90.000000
_cell_angle_gamma 90.000000
_cell_volume 9504.805632
_symmetry_space_group_name_H-M "F M M M"
_symmetry_group_IT_number 69
_symmetry_cell_setting 'orthorhombic'
loop_
_space_group_symop_operation_xyz
x,y,z
-x,-y,z
x,-y,-z
-x,y,-z
-x,-y,-z
x,y,-z
-x,y,z
x,-y,z
x,1/2+y,1/2+z
-x,1/2-y,1/2+z
x,1/2-y,1/2-z
-x,1/2+y,1/2-z
-x,1/2-y,1/2-z
x,1/2+y,1/2-z
-x,1/2+y,1/2+z
x,1/2-y,1/2+z
1/2+x,y,1/2+z
1/2-x,-y,1/2+z
1/2+x,-y,1/2-z
1/2-x,y,1/2-z
1/2-x,-y,1/2-z
1/2+x,y,1/2-z
1/2-x,y,1/2+z
1/2+x,-y,1/2+z
1/2+x,1/2+y,z
1/2-x,1/2-y,z
1/2+x,1/2-y,-z
1/2-x,1/2+y,-z
1/2-x,1/2-y,-z
1/2+x,1/2+y,-z
1/2-x,1/2+y,z
1/2+x,1/2-y,z
loop_
_atom_site_type_symbol
_atom_site_label
_atom_site_fract_x
_atom_site_fract_y
_atom_site_fract_z
Si Si1 0.054851 0.812928 0.538771
Si Si2 0.644347 0.183349 0.286849
Si Si3 0.301832 0.683715 0.143752
Si Si4 0.891175 0.314896 0.106723
Si Si5 0.054242 0.315096 0.176831
O O1 0.069023 0.764520 0.500000
O O2 0.087635 0.761406 0.570245
O O3 0.000000 0.767773 0.544391
O O4 0.055428 0.000000 0.539148
O O5 0.658715 0.250000 0.250000
O O6 0.678651 0.232199 0.318313
O O7 0.591964 0.241787 0.297166
O O8 0.644131 0.000000 0.285339
O O9 0.300511 0.500000 0.142867
O O10 0.250000 0.750000 0.137575
O O11 0.340899 0.743822 0.116832
O O12 0.886780 0.500000 0.105953
O O13 0.927324 0.277649 0.138117
O O14 0.056183 0.500000 0.180387
O O15 0.000000 0.265794 0.181848
#
# Coordination Sequence:
#
# PCOD9512929 Si02
#       5
#    32  32  32  32  32
#     4   8  13  22  41  73 108 136 162 192 226 267
#     4  10  21  35  50  69  93 120 151 189 234 283
#     4  10  21  36  53  72  92 117 152 194 240 286
#     4   9  16  28  48  72  98 127 159 196 234 273
#     4   9  17  29  46  68  94 126 162 195 228 270
#
# _framework density 16.833590000000001
#
# number of rings (size 3 to 8) (size 9 to 14) (size 15 to 20)
#    0.000    2.800    0.000    2.400    0.000    6.000 
#    0.000    2.000    0.000    3.000    0.000    1.400 
#    0.000    0.000    0.000    0.000    0.000    0.000 
#
# Total GULP energy -223029.581395 kJ/mol
# GULP energy per Si atom -5575.739535 kJ/mol
# Density = 1.679528 g / cm^3
# Si number density = 16.833590 Si / 1000 Ang^3
#
#
#
# Elastic Constant Matrix: (Units=GPa)
#
#
# Indices 1 2 3 4 5 6 
#
# 1 93.1217 17.4193 47.1174 -0.0001 -0.0001 -0.0007
# 2 17.4193 11.7947 20.2959 -0.0002 0.0002 0.0006
# 3 47.1174 20.2959 122.9125 0.0000 -0.0001 -0.0001
# 4 -0.0001 -0.0002 0.0000 12.2596 0.0000 0.0001
# 5 -0.0001 0.0002 -0.0001 0.0000 10.7947 0.0000
# 6 -0.0007 0.0006 -0.0001 0.0001 0.0000 16.6501
#
#
#
# Elastic Compliance Matrix: (Units=1/GPa)
#
#
# Indices 1 2 3 4 5 6 
#
# 1 0.015611 -0.017822 -0.003042 0.000000 0.000000 0.000001
# 2 -0.017822 0.138783 -0.016084 0.000002 -0.000002 -0.000006
# 3 -0.003042 -0.016084 0.011958 0.000000 0.000000 0.000001
# 4 0.000000 0.000002 0.000000 0.081569 0.000000 0.000000
# 5 0.000000 -0.000002 0.000000 0.000000 0.092638 0.000000
# 6 0.000001 -0.000006 0.000001 0.000000 0.000000 0.060060
#
#
# Mechanical properties :
#
#
# Convention : Reuss Voigt Hill
#
# Bulk Modulus (GPa) = 10.81601 44.16601 27.49101
# Shear Modulus (GPa) = 9.89444 17.47397 13.68421
#
# Velocity S-wave (km/s) = 2.42705 3.22536 2.85425
# Velocity P-wave (km/s) = 3.78065 6.33754 5.21813
#
# Compressibility (1/GPa) = 0.09245554
#
# Stress axis : x y z
#
# Youngs Moduli (GPa) = 64.05559 7.20549 83.62748
#
# Poissons Ratio (x) = 0.12842 0.25436
# Poissons Ratio (y) = 1.14162 1.34511
# Poissons Ratio (z) = 0.19483 0.11590
#
# Static dielectric constant tensor:
#      x y z
#    x 1.541930 0.000000 0.000000 
#    y 0.000000 1.565360 0.000000 
#    z 0.000000 0.000000 1.572320 
# 
# From -- ./inp_files/46945.got.cif
#   From: 2010.05.17/outbox.cif.g08.bks.cpg/sg69_24_cif.got.tgz:46945.got - 2010.06.03 19:29:58.
