data_PCOD9512778
_publ_section_title
;
Structure prediction by ZEFSAII (Michael W. Deem and Ramdas Pophale) SiO2 
 PCOD9512778
Probable space group: F M M M
;
_chemical_formula_sum "Si O2"
_cell_formula_units_Z 192
_cell_length_a 18.377485
_cell_length_b 31.299442
_cell_length_c 16.556232
_cell_angle_alpha 90.000000
_cell_angle_beta 90.000000
_cell_angle_gamma 90.000000
_cell_volume 9523.227856
_symmetry_space_group_name_H-M "F M M M"
_symmetry_group_IT_number 69
_symmetry_cell_setting 'orthorhombic'
loop_
_space_group_symop_operation_xyz
x,y,z
-x,-y,z
x,-y,-z
-x,y,-z
-x,-y,-z
x,y,-z
-x,y,z
x,-y,z
x,1/2+y,1/2+z
-x,1/2-y,1/2+z
x,1/2-y,1/2-z
-x,1/2+y,1/2-z
-x,1/2-y,1/2-z
x,1/2+y,1/2-z
-x,1/2+y,1/2+z
x,1/2-y,1/2+z
1/2+x,y,1/2+z
1/2-x,-y,1/2+z
1/2+x,-y,1/2-z
1/2-x,y,1/2-z
1/2-x,-y,1/2-z
1/2+x,y,1/2-z
1/2-x,y,1/2+z
1/2+x,-y,1/2+z
1/2+x,1/2+y,z
1/2-x,1/2-y,z
1/2+x,1/2-y,-z
1/2-x,1/2+y,-z
1/2-x,1/2-y,-z
1/2+x,1/2+y,-z
1/2-x,1/2+y,z
1/2+x,1/2-y,z
loop_
_atom_site_type_symbol
_atom_site_label
_atom_site_fract_x
_atom_site_fract_y
_atom_site_fract_z
Si Si1 0.155952 0.131664 0.347757
Si Si2 0.132545 0.083879 0.814364
Si Si3 0.770956 0.797790 0.901881
Si Si4 0.579521 0.337353 0.903813
Si Si5 0.269290 0.452022 0.593842
Si Si6 0.500000 0.626033 0.403779
Si Si7 0.000000 0.547349 0.216916
O O1 0.156464 0.117327 0.254892
O O2 0.215995 0.166709 0.368278
O O3 0.175132 0.086962 0.392983
O O4 0.075902 0.146957 0.375069
O O5 0.098206 0.113679 0.883150
O O6 0.200547 0.058145 0.849147
O O7 0.070709 0.055625 0.772351
O O8 0.750000 0.750000 0.877954
O O9 0.852961 0.808893 0.875871
O O10 0.767376 0.800658 0.000000
O O11 0.500000 0.327044 0.868904
O O12 0.576250 0.332492 0.000000
O O13 0.246564 0.451076 0.500000
O O14 0.297606 0.500000 0.611298
O O15 0.500000 0.621641 0.500000
O O16 0.500000 0.581503 0.354810
O O17 0.000000 0.500000 0.184375
#
# Coordination Sequence:
#
# PCOD9512778 Si02
#       7
#    32  32  32  32  32  16  16
#     4  11  23  39  61  88 120 159 204 254 309 367
#     4  11  21  37  59  86 122 161 199 247 309 362
#     4  10  21  40  66  94 124 159 202 250 306 371
#     4  10  20  37  64  91 119 158 201 245 299 364
#     4  11  23  38  59  87 118 157 207 256 304 364
#     4  10  22  39  60  82 112 157 207 258 309 358
#     4  10  22  37  55  85 123 158 202 251 302 370
#
# _framework density 20.161231999999998
#
# number of rings (size 3 to 8) (size 9 to 14) (size 15 to 20)
#    0.000    1.500    2.500    3.000    0.000    4.167 
#    1.500    1.667    0.000    3.000    0.000    0.000 
#    0.000    0.000    0.000    0.000    0.000    0.000 
#
# Total GULP energy -268125.840924 kJ/mol
# GULP energy per Si atom -5585.955019 kJ/mol
# Density = 2.011534 g / cm^3
# Si number density = 20.161232 Si / 1000 Ang^3
#
#
#
# Elastic Constant Matrix: (Units=GPa)
#
#
# Indices 1 2 3 4 5 6 
#
# 1 138.7246 49.2659 14.5125 0.0000 0.0000 0.0000
# 2 49.2659 97.2930 2.9271 0.0000 0.0000 0.0000
# 3 14.5125 2.9271 43.7836 0.0000 0.0000 0.0000
# 4 0.0000 0.0000 0.0000 14.6476 0.0000 0.0000
# 5 0.0000 0.0000 0.0000 0.0000 22.9575 0.0000
# 6 0.0000 0.0000 0.0000 0.0000 0.0000 20.1429
#
#
#
# Elastic Compliance Matrix: (Units=1/GPa)
#
#
# Indices 1 2 3 4 5 6 
#
# 1 0.009100 -0.004526 -0.002714 0.000000 0.000000 0.000000
# 2 -0.004526 0.012550 0.000661 0.000000 0.000000 0.000000
# 3 -0.002714 0.000661 0.023695 0.000000 0.000000 0.000000
# 4 0.000000 0.000000 0.000000 0.068270 0.000000 0.000000
# 5 0.000000 0.000000 0.000000 0.000000 0.043559 0.000000
# 6 0.000000 0.000000 0.000000 0.000000 0.000000 0.049645
#
#
# Mechanical properties :
#
#
# Convention : Reuss Voigt Hill
#
# Bulk Modulus (GPa) = 31.06774 45.91247 38.49011
# Shear Modulus (GPa) = 21.67261 25.75599 23.71430
#
# Velocity S-wave (km/s) = 3.28222 3.57809 3.43335
# Velocity P-wave (km/s) = 5.45959 6.31604 5.90337
#
# Compressibility (1/GPa) = 0.03218773
#
# Stress axis : x y z
#
# Youngs Moduli (GPa) = 109.89227 79.67965 42.20322
#
# Poissons Ratio (x) = 0.36065 0.11452
# Poissons Ratio (y) = 0.49739 -0.02791
# Poissons Ratio (z) = 0.29821 -0.05269
#
# Static dielectric constant tensor:
#      x y z
#    x 1.755840 0.000000 0.000000 
#    y 0.000000 1.685300 0.000000 
#    z 0.000000 0.000000 1.727100 
# 
# From -- ./inp_files/23675.got.cif
#   From: 2010.05.17/outbox.cif.g08.bks.cpg/sg69_12_cif.got.tgz:23675.got - 2010.06.03 19:29:58.
