data_PCOD9512466
_publ_section_title
;
Structure prediction by ZEFSAII (Michael W. Deem and Ramdas Pophale) SiO2 
 PCOD9512466
Probable space group: F M M M
;
_chemical_formula_sum "Si O2"
_cell_formula_units_Z 160
_cell_length_a 14.970771
_cell_length_b 17.862199
_cell_length_c 31.995360
_cell_angle_alpha 90.000000
_cell_angle_beta 90.000000
_cell_angle_gamma 90.000000
_cell_volume 8555.907719
_symmetry_space_group_name_H-M "F M M M"
_symmetry_group_IT_number 69
_symmetry_cell_setting 'orthorhombic'
loop_
_space_group_symop_operation_xyz
x,y,z
-x,-y,z
x,-y,-z
-x,y,-z
-x,-y,-z
x,y,-z
-x,y,z
x,-y,z
x,1/2+y,1/2+z
-x,1/2-y,1/2+z
x,1/2-y,1/2-z
-x,1/2+y,1/2-z
-x,1/2-y,1/2-z
x,1/2+y,1/2-z
-x,1/2+y,1/2+z
x,1/2-y,1/2+z
1/2+x,y,1/2+z
1/2-x,-y,1/2+z
1/2+x,-y,1/2-z
1/2-x,y,1/2-z
1/2-x,-y,1/2-z
1/2+x,y,1/2-z
1/2-x,y,1/2+z
1/2+x,-y,1/2+z
1/2+x,1/2+y,z
1/2-x,1/2-y,z
1/2+x,1/2-y,-z
1/2-x,1/2+y,-z
1/2-x,1/2-y,-z
1/2+x,1/2+y,-z
1/2-x,1/2+y,z
1/2+x,1/2-y,z
loop_
_atom_site_type_symbol
_atom_site_label
_atom_site_fract_x
_atom_site_fract_y
_atom_site_fract_z
Si Si1 0.598021 0.311454 0.718496
Si Si2 0.893964 0.334927 0.000000
Si Si3 0.745263 0.589171 0.439221
Si Si4 0.837068 0.915873 0.219567
Si Si5 0.892998 0.345845 0.500000
Si Si6 0.258612 0.164949 0.148308
O O1 0.500000 0.283696 0.706655
O O2 0.641086 0.250000 0.750000
O O3 0.592203 0.382599 0.748705
O O4 0.654656 0.331831 0.678091
O O5 0.839071 0.370433 0.038625
O O6 0.885241 0.244624 0.000000
O O7 0.000000 0.352612 0.000000
O O8 0.741764 0.500000 0.445883
O O9 0.835950 0.621386 0.460805
O O10 0.740242 0.609927 0.390634
O O11 0.750000 0.916130 0.250000
O O12 0.818157 0.862677 0.180183
O O13 0.854331 0.000000 0.205503
O O14 0.000000 0.364000 0.500000
O O15 0.250000 0.250000 0.132761
#
# Coordination Sequence:
#
# PCOD9512466 Si02
#       6
#    32  16  32  32  16  32
#     4  10  20  35  55  81 111 149 197 242 293 355
#     4  10  21  40  65  91 122 160 201 249 302 365
#     4  11  23  38  60  93 127 161 203 249 305 373
#     4   9  18  32  52  76 104 143 187 233 288 344
#     4  10  21  42  69  91 120 162 205 251 306 369
#     4  11  20  35  58  81 112 153 195 244 290 343
#
# _framework density 18.700529
#
# number of rings (size 3 to 8) (size 9 to 14) (size 15 to 20)
#    0.000    1.800    2.000    4.200    0.000    3.600 
#    0.000    2.000    0.000    2.400    0.000    0.000 
#    0.000    0.000    0.000    0.000    0.000    0.000 
#
# Total GULP energy -222837.807417 kJ/mol
# GULP energy per Si atom -5570.945185 kJ/mol
# Density = 1.865797 g / cm^3
# Si number density = 18.700529 Si / 1000 Ang^3
#
#
#
# Elastic Constant Matrix: (Units=GPa)
#
#
# Indices 1 2 3 4 5 6 
#
# 1 128.4601 38.0772 46.1847 0.0000 0.0000 0.0000
# 2 38.0772 117.0517 25.1864 0.0000 0.0000 0.0000
# 3 46.1847 25.1864 116.0905 0.0000 0.0000 0.0000
# 4 0.0000 0.0000 0.0000 31.1127 0.0000 0.0000
# 5 0.0000 0.0000 0.0000 0.0000 8.6905 0.0000
# 6 0.0000 0.0000 0.0000 0.0000 0.0000 13.8589
#
#
#
# Elastic Compliance Matrix: (Units=1/GPa)
#
#
# Indices 1 2 3 4 5 6 
#
# 1 0.009706 -0.002440 -0.003332 0.000000 0.000000 0.000000
# 2 -0.002440 0.009575 -0.001107 0.000000 0.000000 0.000000
# 3 -0.003332 -0.001107 0.010180 0.000000 0.000000 0.000000
# 4 0.000000 0.000000 0.000000 0.032141 0.000000 0.000000
# 5 0.000000 0.000000 0.000000 0.000000 0.115069 0.000000
# 6 0.000000 0.000000 0.000000 0.000000 0.000000 0.072156
#
#
# Mechanical properties :
#
#
# Convention : Reuss Voigt Hill
#
# Bulk Modulus (GPa) = 63.68195 64.49989 64.09092
# Shear Modulus (GPa) = 18.66940 27.54268 23.10604
#
# Velocity S-wave (km/s) = 3.16307 3.84191 3.51890
# Velocity P-wave (km/s) = 6.88967 7.36520 7.13140
#
# Compressibility (1/GPa) = 0.01570304
#
# Stress axis : x y z
#
# Youngs Moduli (GPa) = 103.03165 104.43653 98.23623
#
# Poissons Ratio (x) = 0.25487 0.32731
# Poissons Ratio (y) = 0.25144 0.10870
# Poissons Ratio (z) = 0.34328 0.11556
#
# Static dielectric constant tensor:
#      x y z
#    x 1.687000 0.000000 0.000000 
#    y 0.000000 1.688340 0.000000 
#    z 0.000000 0.000000 1.652520 
# 
# From -- ./inp_files/45706.got.cif
#   From: 2010.05.17/outbox.cif.g08.bks.cpg/sg69_23_cif.got.tgz:45706.got - 2010.06.03 19:29:58.
