data_PCOD9512789
_publ_section_title
;
Structure prediction by ZEFSAII (Michael W. Deem and Ramdas Pophale) SiO2 
 PCOD9512789
Probable space group: F M M M
;
_chemical_formula_sum "Si O2"
_cell_formula_units_Z 56
_cell_length_a 24.491520
_cell_length_b 5.291635
_cell_length_c 27.635212
_cell_angle_alpha 90.000000
_cell_angle_beta 90.000000
_cell_angle_gamma 90.000000
_cell_volume 3581.528572
_symmetry_space_group_name_H-M "F M M M"
_symmetry_group_IT_number 69
_symmetry_cell_setting 'orthorhombic'
loop_
_space_group_symop_operation_xyz
x,y,z
-x,-y,z
x,-y,-z
-x,y,-z
-x,-y,-z
x,y,-z
-x,y,z
x,-y,z
x,1/2+y,1/2+z
-x,1/2-y,1/2+z
x,1/2-y,1/2-z
-x,1/2+y,1/2-z
-x,1/2-y,1/2-z
x,1/2+y,1/2-z
-x,1/2+y,1/2+z
x,1/2-y,1/2+z
1/2+x,y,1/2+z
1/2-x,-y,1/2+z
1/2+x,-y,1/2-z
1/2-x,y,1/2-z
1/2-x,-y,1/2-z
1/2+x,y,1/2-z
1/2-x,y,1/2+z
1/2+x,-y,1/2+z
1/2+x,1/2+y,z
1/2-x,1/2-y,z
1/2+x,1/2-y,-z
1/2-x,1/2+y,-z
1/2-x,1/2-y,-z
1/2+x,1/2+y,-z
1/2-x,1/2+y,z
1/2+x,1/2-y,z
loop_
_atom_site_type_symbol
_atom_site_label
_atom_site_fract_x
_atom_site_fract_y
_atom_site_fract_z
Si Si1 0.786467 0.000000 0.500000
Si Si2 0.565797 0.000000 0.609077
Si Si3 0.393885 0.500000 0.554927
Si Si4 0.066449 0.000000 0.221629
O O1 0.750000 0.750000 0.500000
O O2 0.828748 0.000000 0.454906
O O3 0.587562 0.250248 0.582738
O O4 0.582411 0.000000 0.665484
O O5 0.500000 0.000000 0.606939
O O6 0.417430 0.500000 0.500000
O O7 0.084483 0.250000 0.250000
O O8 0.000000 0.000000 0.222200
#
# Coordination Sequence:
#
# PCOD9512789 Si02
#       4
#     8  16  16  16
#     4  10  20  38  55  68  95 126 160 218 258 276
#     4  11  20  32  48  72 109 140 164 196 235 286
#     4  10  22  33  49  75  98 133 167 205 231 309
#     4   9  17  29  45  65  93 134 174 202 229 265
#
# _framework density 15.635783
#
# number of rings (size 3 to 8) (size 9 to 14) (size 15 to 20)
#    0.857    1.143    0.000    5.143    0.000    8.000 
#    0.000    0.000    0.000    0.000    0.000    0.000 
#    0.000   80.000    0.000    0.000    0.000    0.000 
#
# Total GULP energy -78022.918066 kJ/mol
# GULP energy per Si atom -5573.065576 kJ/mol
# Density = 1.560020 g / cm^3
# Si number density = 15.635783 Si / 1000 Ang^3
#
#
#
# Elastic Constant Matrix: (Units=GPa)
#
#
# Indices 1 2 3 4 5 6 
#
# 1 75.8209 55.9268 40.2506 0.0012 -0.0006 -0.0307
# 2 55.9268 212.8982 115.6056 -0.0018 -0.0002 -0.2025
# 3 40.2506 115.6056 171.3676 -0.0005 0.0000 0.0047
# 4 0.0012 -0.0018 -0.0005 31.8667 0.0002 0.0790
# 5 -0.0006 -0.0002 0.0000 0.0002 -5.5066 0.0063
# 6 -0.0307 -0.2025 0.0047 0.0790 0.0063 -23.4571
#
#
#
# Elastic Compliance Matrix: (Units=1/GPa)
#
#
# Indices 1 2 3 4 5 6 
#
# 1 0.016603 -0.003541 -0.001511 -0.000001 -0.000002 0.000009
# 2 -0.003541 0.008167 -0.004678 0.000001 0.000000 -0.000067
# 3 -0.001511 -0.004678 0.009346 0.000000 0.000000 0.000044
# 4 -0.000001 0.000001 0.000000 0.031381 0.000001 0.000106
# 5 -0.000002 0.000000 0.000000 0.000001 -0.181601 -0.000048
# 6 0.000009 -0.000067 0.000044 0.000106 -0.000048 -0.042630
#
#
# Mechanical properties :
#
#
# Convention : Reuss Voigt Hill
#
# Bulk Modulus (GPa) = 68.22887 98.18363 83.20625
# Shear Modulus (GPa) = -37.20563 17.13419 -10.03572
#
# Velocity S-wave (km/s) = -4.88332 3.31393 -2.53621
# Velocity P-wave (km/s) = 3.45475 8.80757 6.68987
#
# Compressibility (1/GPa) = 0.01465655
#
# Stress axis : x y z
#
# Youngs Moduli (GPa) = 60.23014 122.43675 106.99582
#
# Poissons Ratio (x) = 0.43356 0.16166
# Poissons Ratio (y) = 0.21328 0.50054
# Poissons Ratio (z) = 0.09100 0.57277
#
# Static dielectric constant tensor:
#      x y z
#    x 1.502390 0.000000 0.000000 
#    y 0.000000 1.501890 0.000000 
#    z 0.000000 0.000000 1.518230 
# 
# From -- ./inp_files/440.got.cif
#   From: 2010.05.17/outbox.cif.g08.bks.cpg/sg69_1_cif.got.tgz:440.got - 2010.06.03 19:29:58.
