data_PCOD9512479
_publ_section_title
;
Structure prediction by ZEFSAII (Michael W. Deem and Ramdas Pophale) SiO2 
 PCOD9512479
Probable space group: F M M M
;
_chemical_formula_sum "Si O2"
_cell_formula_units_Z 88
_cell_length_a 9.638499
_cell_length_b 18.138074
_cell_length_c 22.530581
_cell_angle_alpha 90.000000
_cell_angle_beta 90.000000
_cell_angle_gamma 90.000000
_cell_volume 3938.881969
_symmetry_space_group_name_H-M "F M M M"
_symmetry_group_IT_number 69
_symmetry_cell_setting 'orthorhombic'
loop_
_space_group_symop_operation_xyz
x,y,z
-x,-y,z
x,-y,-z
-x,y,-z
-x,-y,-z
x,y,-z
-x,y,z
x,-y,z
x,1/2+y,1/2+z
-x,1/2-y,1/2+z
x,1/2-y,1/2-z
-x,1/2+y,1/2-z
-x,1/2-y,1/2-z
x,1/2+y,1/2-z
-x,1/2+y,1/2+z
x,1/2-y,1/2+z
1/2+x,y,1/2+z
1/2-x,-y,1/2+z
1/2+x,-y,1/2-z
1/2-x,y,1/2-z
1/2-x,-y,1/2-z
1/2+x,y,1/2-z
1/2-x,y,1/2+z
1/2+x,-y,1/2+z
1/2+x,1/2+y,z
1/2-x,1/2-y,z
1/2+x,1/2-y,-z
1/2-x,1/2+y,-z
1/2-x,1/2-y,-z
1/2+x,1/2+y,-z
1/2-x,1/2+y,z
1/2+x,1/2-y,z
loop_
_atom_site_type_symbol
_atom_site_label
_atom_site_fract_x
_atom_site_fract_y
_atom_site_fract_z
Si Si1 0.500000 0.911908 0.801028
Si Si2 0.271653 0.868709 0.625764
Si Si3 0.333291 0.588506 0.500000
Si Si4 0.000000 0.500000 0.369453
Si Si5 0.000000 0.307055 0.695890
O O1 0.362543 0.883784 0.833848
O O2 0.500000 0.883016 0.734041
O O3 0.500000 0.000000 0.801430
O O4 0.221271 0.869319 0.558028
O O5 0.378189 0.936616 0.627922
O O6 0.365515 0.804253 0.654158
O O7 0.291628 0.500000 0.500000
O O8 0.500000 0.588144 0.500000
O O9 0.000000 0.250000 0.750000
#
# Coordination Sequence:
#
# PCOD9512479 Si02
#       5
#    16  32  16   8  16
#     4  12  23  40  71 104 144 188 242 296 371 448
#     4  11  23  40  68 103 148 191 239 286 370 440
#     4  11  20  36  70 111 159 188 226 302 377 457
#     4  10  20  35  56 104 146 180 220 285 346 432
#     4  11  29  48  66  96 145 197 254 312 364 434
#
# _framework density 22.341366000000001
#
# number of rings (size 3 to 8) (size 9 to 14) (size 15 to 20)
#    0.000    0.909    5.455    1.091    5.091    8.000 
#    0.000    0.000    0.000    6.545    0.000    0.000 
#    0.000    0.000    0.000    0.000    0.000    0.000 
#
# Total GULP energy -122490.523646 kJ/mol
# GULP energy per Si atom -5567.751075 kJ/mol
# Density = 2.229052 g / cm^3
# Si number density = 22.341366 Si / 1000 Ang^3
#
#
#
# Elastic Constant Matrix: (Units=GPa)
#
#
# Indices 1 2 3 4 5 6 
#
# 1 192.1148 34.7721 77.6000 0.0000 0.0000 0.0000
# 2 34.7721 52.2204 29.8691 0.0000 0.0000 0.0000
# 3 77.6000 29.8691 213.3530 0.0000 0.0000 0.0000
# 4 0.0000 0.0000 0.0000 -19.7212 0.0000 0.0000
# 5 0.0000 0.0000 0.0000 0.0000 27.1741 0.0000
# 6 0.0000 0.0000 0.0000 0.0000 0.0000 36.6396
#
#
#
# Elastic Compliance Matrix: (Units=1/GPa)
#
#
# Indices 1 2 3 4 5 6 
#
# 1 0.006579 -0.003274 -0.001935 0.000000 0.000000 0.000000
# 2 -0.003274 0.022446 -0.001951 0.000000 0.000000 0.000000
# 3 -0.001935 -0.001951 0.005664 0.000000 0.000000 0.000000
# 4 0.000000 0.000000 0.000000 -0.050707 0.000000 0.000000
# 5 0.000000 0.000000 0.000000 0.000000 0.036800 0.000000
# 6 0.000000 0.000000 0.000000 0.000000 0.000000 0.027293
#
#
# Mechanical properties :
#
#
# Convention : Reuss Voigt Hill
#
# Bulk Modulus (GPa) = 49.09565 82.46341 65.77953
# Shear Modulus (GPa) = 72.26941 29.84831 51.05886
#
# Velocity S-wave (km/s) = 5.69368 3.65911 4.78577
# Velocity P-wave (km/s) = 8.07756 7.40560 7.74887
#
# Compressibility (1/GPa) = 0.02036840
#
# Stress axis : x y z
#
# Youngs Moduli (GPa) = 151.99161 44.55110 176.55648
#
# Poissons Ratio (x) = 0.14588 0.34156
# Poissons Ratio (y) = 0.49769 0.34454
# Poissons Ratio (z) = 0.29404 0.08694
#
# Static dielectric constant tensor:
#      x y z
#    x 1.770850 0.000000 0.000000 
#    y 0.000000 1.691490 0.000000 
#    z 0.000000 0.000000 1.838580 
# 
# From -- ./inp_files/34358.got.cif
#   From: 2010.05.17/outbox.cif.g08.bks.cpg/sg69_18_cif.got.tgz:34358.got - 2010.06.03 19:29:58.
