data_PCOD9512343
_publ_section_title
;
Structure prediction by ZEFSAII (Michael W. Deem and Ramdas Pophale) SiO2 
 PCOD9512343
Probable space group: F M M M
;
_chemical_formula_sum "Si O2"
_cell_formula_units_Z 192
_cell_length_a 25.709729
_cell_length_b 16.952994
_cell_length_c 24.245158
_cell_angle_alpha 90.000000
_cell_angle_beta 90.000000
_cell_angle_gamma 90.000000
_cell_volume 10567.418957
_symmetry_space_group_name_H-M "F M M M"
_symmetry_group_IT_number 69
_symmetry_cell_setting 'orthorhombic'
loop_
_space_group_symop_operation_xyz
x,y,z
-x,-y,z
x,-y,-z
-x,y,-z
-x,-y,-z
x,y,-z
-x,y,z
x,-y,z
x,1/2+y,1/2+z
-x,1/2-y,1/2+z
x,1/2-y,1/2-z
-x,1/2+y,1/2-z
-x,1/2-y,1/2-z
x,1/2+y,1/2-z
-x,1/2+y,1/2+z
x,1/2-y,1/2+z
1/2+x,y,1/2+z
1/2-x,-y,1/2+z
1/2+x,-y,1/2-z
1/2-x,y,1/2-z
1/2-x,-y,1/2-z
1/2+x,y,1/2-z
1/2-x,y,1/2+z
1/2+x,-y,1/2+z
1/2+x,1/2+y,z
1/2-x,1/2-y,z
1/2+x,1/2-y,-z
1/2-x,1/2+y,-z
1/2-x,1/2-y,-z
1/2+x,1/2+y,-z
1/2-x,1/2+y,z
1/2+x,1/2-y,z
loop_
_atom_site_type_symbol
_atom_site_label
_atom_site_fract_x
_atom_site_fract_y
_atom_site_fract_z
Si Si1 0.157697 0.907301 0.000000
Si Si2 0.880143 0.170080 0.716621
Si Si3 0.061646 0.588872 0.683464
Si Si4 0.790826 0.813819 0.096974
Si Si5 0.094160 0.760933 0.117044
Si Si6 0.727614 0.091444 0.811716
Si Si7 0.940169 0.291424 0.500000
O O1 0.190154 0.877302 0.947384
O O2 0.102492 0.861480 0.000000
O O3 0.150291 0.000000 0.000000
O O4 0.864720 0.250000 0.750000
O O5 0.908970 0.115918 0.761258
O O6 0.916271 0.199452 0.666131
O O7 0.830293 0.125835 0.692619
O O8 0.077563 0.500000 0.667741
O O9 0.074283 0.653440 0.637022
O O10 0.000000 0.589903 0.693003
O O11 0.750000 0.750000 0.074164
O O12 0.843443 0.768777 0.113860
O O13 0.763340 0.856590 0.148197
O O14 0.071379 0.744684 0.056737
O O15 0.750000 0.095181 0.750000
O O16 0.727426 0.000000 0.829487
O O17 0.000000 0.317738 0.500000
#
# Coordination Sequence:
#
# PCOD9512343 Si02
#       7
#    16  32  32  32  32  32  16
#     4  10  23  40  58  83 112 145 189 230 276 337
#     4  10  20  34  54  78 109 147 189 233 277 333
#     4  10  21  36  55  81 114 149 186 232 287 341
#     4  11  21  37  58  79 110 150 185 231 276 331
#     4  10  21  36  57  82 110 147 190 233 276 337
#     4  11  22  33  52  82 116 150 186 229 280 332
#     4  10  22  38  58  85 114 146 188 232 282 335
#
# _framework density 18.169053999999999
#
# number of rings (size 3 to 8) (size 9 to 14) (size 15 to 20)
#    0.000    1.667    1.667    3.750    0.000    8.500 
#    0.000    0.000    0.000    0.000    0.000    1.750 
#    0.000    4.000    0.000    0.000    0.000    0.000 
#
# Total GULP energy -267999.157425 kJ/mol
# GULP energy per Si atom -5583.315780 kJ/mol
# Density = 1.812770 g / cm^3
# Si number density = 18.169054 Si / 1000 Ang^3
#
#
#
# Elastic Constant Matrix: (Units=GPa)
#
#
# Indices 1 2 3 4 5 6 
#
# 1 85.4615 13.1720 15.5075 0.0000 0.0000 0.0000
# 2 13.1720 42.8506 4.0181 0.0000 0.0000 0.0000
# 3 15.5075 4.0181 95.9195 0.0000 0.0000 0.0000
# 4 0.0000 0.0000 0.0000 3.5085 0.0000 0.0000
# 5 0.0000 0.0000 0.0000 0.0000 10.9906 0.0000
# 6 0.0000 0.0000 0.0000 0.0000 0.0000 15.1970
#
#
#
# Elastic Compliance Matrix: (Units=1/GPa)
#
#
# Indices 1 2 3 4 5 6 
#
# 1 0.012613 -0.003701 -0.001884 0.000000 0.000000 0.000000
# 2 -0.003701 0.024515 -0.000429 0.000000 0.000000 0.000000
# 3 -0.001884 -0.000429 0.010748 0.000000 0.000000 0.000000
# 4 0.000000 0.000000 0.000000 0.285023 0.000000 0.000000
# 5 0.000000 0.000000 0.000000 0.000000 0.090987 0.000000
# 6 0.000000 0.000000 0.000000 0.000000 0.000000 0.065803
#
#
# Mechanical properties :
#
#
# Convention : Reuss Voigt Hill
#
# Bulk Modulus (GPa) = 27.89468 32.18075 30.03772
# Shear Modulus (GPa) = 9.73398 18.70814 14.22106
#
# Velocity S-wave (km/s) = 2.31713 3.21233 2.80073
# Velocity P-wave (km/s) = 4.74815 5.61329 5.19875
#
# Compressibility (1/GPa) = 0.03584913
#
# Stress axis : x y z
#
# Youngs Moduli (GPa) = 79.28043 40.79195 93.04063
#
# Poissons Ratio (x) = 0.15096 0.17531
# Poissons Ratio (y) = 0.29339 0.03988
# Poissons Ratio (z) = 0.14938 0.01748
#
# Static dielectric constant tensor:
#      x y z
#    x 1.615780 0.000000 0.000000 
#    y 0.000000 1.620740 0.000000 
#    z 0.000000 0.000000 1.647950 
# 
# From -- ./inp_files/38401.got.cif
#   From: 2010.05.17/outbox.cif.g08.bks.cpg/sg69_20_cif.got.tgz:38401.got - 2010.06.03 19:29:58.
