data_PCOD9512584
_publ_section_title
;
Structure prediction by ZEFSAII (Michael W. Deem and Ramdas Pophale) SiO2 
 PCOD9512584
Probable space group: F M M M
;
_chemical_formula_sum "Si O2"
_cell_formula_units_Z 168
_cell_length_a 20.984601
_cell_length_b 14.983211
_cell_length_c 25.390761
_cell_angle_alpha 90.000000
_cell_angle_beta 90.000000
_cell_angle_gamma 90.000000
_cell_volume 7983.279399
_symmetry_space_group_name_H-M "F M M M"
_symmetry_group_IT_number 69
_symmetry_cell_setting 'orthorhombic'
loop_
_space_group_symop_operation_xyz
x,y,z
-x,-y,z
x,-y,-z
-x,y,-z
-x,-y,-z
x,y,-z
-x,y,z
x,-y,z
x,1/2+y,1/2+z
-x,1/2-y,1/2+z
x,1/2-y,1/2-z
-x,1/2+y,1/2-z
-x,1/2-y,1/2-z
x,1/2+y,1/2-z
-x,1/2+y,1/2+z
x,1/2-y,1/2+z
1/2+x,y,1/2+z
1/2-x,-y,1/2+z
1/2+x,-y,1/2-z
1/2-x,y,1/2-z
1/2-x,-y,1/2-z
1/2+x,y,1/2-z
1/2-x,y,1/2+z
1/2+x,-y,1/2+z
1/2+x,1/2+y,z
1/2-x,1/2-y,z
1/2+x,1/2-y,-z
1/2-x,1/2+y,-z
1/2-x,1/2-y,-z
1/2+x,1/2+y,-z
1/2-x,1/2+y,z
1/2+x,1/2-y,z
loop_
_atom_site_type_symbol
_atom_site_label
_atom_site_fract_x
_atom_site_fract_y
_atom_site_fract_z
Si Si1 0.685171 0.726850 0.103434
Si Si2 0.500000 0.500000 0.417236
Si Si3 0.796712 0.398113 0.298541
Si Si4 0.929989 0.642531 0.752199
Si Si5 0.111349 0.595524 0.868643
Si Si6 0.928504 0.102529 0.063371
O O1 0.750000 0.750000 0.071988
O O2 0.708418 0.670776 0.154125
O O3 0.653334 0.820241 0.118886
O O4 0.628915 0.666676 0.079466
O O5 0.556256 0.576341 0.411151
O O6 0.782741 0.500000 0.313704
O O7 0.750000 0.374408 0.250000
O O8 0.869680 0.393393 0.278996
O O9 0.926577 0.750000 0.750000
O O10 0.922331 0.611198 0.812425
O O11 0.000000 0.615280 0.732583
O O12 0.146859 0.500000 0.864600
O O13 0.000000 0.130029 0.081798
O O14 0.917522 0.000000 0.081371
O O15 0.930427 0.100891 0.000000
#
# Coordination Sequence:
#
# PCOD9512584 Si02
#       6
#    32   8  32  32  32  32
#     4  12  25  38  62  92 124 162 211 252 303 377
#     4   8  20  36  58  76 109 166 210 250 323 364
#     4  11  25  40  55  80 123 168 209 257 309 366
#     4  11  20  33  55  77 106 150 208 265 312 355
#     4  10  20  36  55  80 115 158 208 255 309 364
#     4   9  21  44  73 100 127 156 192 253 329 391
#
# _framework density 21.043983999999998
#
# number of rings (size 3 to 8) (size 9 to 14) (size 15 to 20)
#    0.571    0.952    2.857    2.857    1.333    5.333 
#    0.000    0.000    0.000    1.143    0.000    2.000 
#    0.000    0.000    0.000    0.000    0.000    0.000 
#
# Total GULP energy -233924.154506 kJ/mol
# GULP energy per Si atom -5569.622726 kJ/mol
# Density = 2.099609 g / cm^3
# Si number density = 21.043984 Si / 1000 Ang^3
#
#
#
# Elastic Constant Matrix: (Units=GPa)
#
#
# Indices 1 2 3 4 5 6 
#
# 1 193.8371 68.2661 26.2241 0.0000 0.0000 0.0000
# 2 68.2661 150.6565 28.2763 0.0000 0.0000 0.0000
# 3 26.2241 28.2763 21.7563 0.0000 0.0000 0.0000
# 4 0.0000 0.0000 0.0000 -7.8167 0.0000 0.0000
# 5 0.0000 0.0000 0.0000 0.0000 7.6857 0.0000
# 6 0.0000 0.0000 0.0000 0.0000 0.0000 21.3964
#
#
#
# Elastic Compliance Matrix: (Units=1/GPa)
#
#
# Indices 1 2 3 4 5 6 
#
# 1 0.006580 -0.001975 -0.005365 0.000000 0.000000 0.000000
# 2 -0.001975 0.009372 -0.009800 0.000000 0.000000 0.000000
# 3 -0.005365 -0.009800 0.065167 0.000000 0.000000 0.000000
# 4 0.000000 0.000000 0.000000 -0.127931 0.000000 0.000000
# 5 0.000000 0.000000 0.000000 0.000000 0.130112 0.000000
# 6 0.000000 0.000000 0.000000 0.000000 0.000000 0.046737
#
#
# Mechanical properties :
#
#
# Convention : Reuss Voigt Hill
#
# Bulk Modulus (GPa) = 21.34938 67.97586 44.66262
# Shear Modulus (GPa) = 27.78855 20.48530 24.13692
#
# Velocity S-wave (km/s) = 3.63781 3.12340 3.39038
# Velocity P-wave (km/s) = 5.27371 6.73643 6.04944
#
# Compressibility (1/GPa) = 0.04683977
#
# Stress axis : x y z
#
# Youngs Moduli (GPa) = 151.96942 106.70361 15.34510
#
# Poissons Ratio (x) = 0.21071 0.08233
# Poissons Ratio (y) = 0.30010 0.15038
# Poissons Ratio (z) = 0.81532 1.04570
#
# Static dielectric constant tensor:
#      x y z
#    x 1.807080 0.000000 0.000000 
#    y 0.000000 1.761310 0.000000 
#    z 0.000000 0.000000 1.769790 
# 
# From -- ./inp_files/42608.got.cif
#   From: 2010.05.17/outbox.cif.g08.bks.cpg/sg69_22_cif.got.tgz:42608.got - 2010.06.03 19:29:58.
