data_PCOD9512654
_publ_section_title
;
Structure prediction by ZEFSAII (Michael W. Deem and Ramdas Pophale) SiO2 
 PCOD9512654
Probable space group: F M M M
;
_chemical_formula_sum "Si O2"
_cell_formula_units_Z 192
_cell_length_a 17.145224
_cell_length_b 17.911207
_cell_length_c 28.428167
_cell_angle_alpha 90.000000
_cell_angle_beta 90.000000
_cell_angle_gamma 90.000000
_cell_volume 8730.052885
_symmetry_space_group_name_H-M "F M M M"
_symmetry_group_IT_number 69
_symmetry_cell_setting 'orthorhombic'
loop_
_space_group_symop_operation_xyz
x,y,z
-x,-y,z
x,-y,-z
-x,y,-z
-x,-y,-z
x,y,-z
-x,y,z
x,-y,z
x,1/2+y,1/2+z
-x,1/2-y,1/2+z
x,1/2-y,1/2-z
-x,1/2+y,1/2-z
-x,1/2-y,1/2-z
x,1/2+y,1/2-z
-x,1/2+y,1/2+z
x,1/2-y,1/2+z
1/2+x,y,1/2+z
1/2-x,-y,1/2+z
1/2+x,-y,1/2-z
1/2-x,y,1/2-z
1/2-x,-y,1/2-z
1/2+x,y,1/2-z
1/2-x,y,1/2+z
1/2+x,-y,1/2+z
1/2+x,1/2+y,z
1/2-x,1/2-y,z
1/2+x,1/2-y,-z
1/2-x,1/2+y,-z
1/2-x,1/2-y,-z
1/2+x,1/2+y,-z
1/2-x,1/2+y,z
1/2+x,1/2-y,z
loop_
_atom_site_type_symbol
_atom_site_label
_atom_site_fract_x
_atom_site_fract_y
_atom_site_fract_z
Si Si1 0.409999 0.710070 0.141197
Si Si2 0.663624 0.662755 0.234211
Si Si3 0.176456 0.153275 0.944097
Si Si4 0.667771 0.585584 0.409207
Si Si5 0.586429 0.619620 0.322438
Si Si6 0.500000 0.590386 0.447302
Si Si7 0.412811 0.000000 0.556547
O O1 0.500000 0.684438 0.136834
O O2 0.360617 0.662668 0.179632
O O3 0.366245 0.709192 0.091327
O O4 0.413238 0.793654 0.161764
O O5 0.659297 0.750000 0.250000
O O6 0.750000 0.638584 0.250000
O O7 0.603839 0.618609 0.267273
O O8 0.265445 0.138149 0.929302
O O9 0.133409 0.074930 0.932438
O O10 0.170297 0.169290 0.000000
O O11 0.680831 0.500000 0.426004
O O12 0.656035 0.585000 0.353061
O O13 0.581963 0.611835 0.425121
O O14 0.500000 0.588490 0.332544
O O15 0.500000 0.500000 0.447103
O O16 0.500000 0.618610 0.500000
O O17 0.500000 0.000000 0.576457
O O18 0.418884 0.000000 0.500000
#
# Coordination Sequence:
#
# PCOD9512654 Si02
#       7
#    32  32  32  32  32  16  16
#     4  10  21  37  59  87 120 156 199 243 293 355
#     4   9  17  32  57  87 115 151 194 241 288 347
#     4  11  22  37  59  84 115 153 195 248 298 346
#     4  11  21  36  58  85 114 150 199 245 291 351
#     4  10  20  36  59  86 120 156 196 239 295 360
#     4   9  18  32  52  76 105 142 186 235 279 332
#     4   9  18  34  56  79 102 143 195 234 278 340
#
# _framework density 21.992992999999998
#
# number of rings (size 3 to 8) (size 9 to 14) (size 15 to 20)
#    0.000    2.000    1.667    2.500    0.000    5.667 
#    0.000    2.500    1.833    1.500    0.000    0.000 
#    0.000    0.000    0.000    0.000    0.000    0.000 
#
# Total GULP energy -267918.214856 kJ/mol
# GULP energy per Si atom -5581.629476 kJ/mol
# Density = 2.194294 g / cm^3
# Si number density = 21.992993 Si / 1000 Ang^3
#
#
#
# Elastic Constant Matrix: (Units=GPa)
#
#
# Indices 1 2 3 4 5 6 
#
# 1 152.2348 21.0144 55.4109 0.0000 0.0000 0.0000
# 2 21.0144 32.3842 15.2185 0.0000 0.0000 0.0000
# 3 55.4109 15.2185 136.4843 0.0000 0.0000 0.0000
# 4 0.0000 0.0000 0.0000 18.3002 0.0000 0.0000
# 5 0.0000 0.0000 0.0000 0.0000 30.2912 0.0000
# 6 0.0000 0.0000 0.0000 0.0000 0.0000 13.7294
#
#
#
# Elastic Compliance Matrix: (Units=1/GPa)
#
#
# Indices 1 2 3 4 5 6 
#
# 1 0.008159 -0.003944 -0.002873 0.000000 0.000000 0.000000
# 2 -0.003944 0.034494 -0.002245 0.000000 0.000000 0.000000
# 3 -0.002873 -0.002245 0.008743 0.000000 0.000000 0.000000
# 4 0.000000 0.000000 0.000000 0.054644 0.000000 0.000000
# 5 0.000000 0.000000 0.000000 0.000000 0.033013 0.000000
# 6 0.000000 0.000000 0.000000 0.000000 0.000000 0.072836
#
#
# Mechanical properties :
#
#
# Convention : Reuss Voigt Hill
#
# Bulk Modulus (GPa) = 30.05493 56.04342 43.04918
# Shear Modulus (GPa) = 20.73796 27.76147 24.24972
#
# Velocity S-wave (km/s) = 3.07406 3.55672 3.32416
# Velocity P-wave (km/s) = 5.12788 6.51189 5.86088
#
# Compressibility (1/GPa) = 0.03327241
#
# Stress axis : x y z
#
# Youngs Moduli (GPa) = 122.56625 28.99075 114.37221
#
# Poissons Ratio (x) = 0.11435 0.32854
# Poissons Ratio (y) = 0.48345 0.25674
# Poissons Ratio (z) = 0.35208 0.06508
#
# Static dielectric constant tensor:
#      x y z
#    x 1.814290 0.000000 0.000000 
#    y 0.000000 1.852570 0.000000 
#    z 0.000000 0.000000 1.839480 
# 
# From -- ./inp_files/38386.got.cif
#   From: 2010.05.17/outbox.cif.g08.bks.cpg/sg69_20_cif.got.tgz:38386.got - 2010.06.03 19:29:58.
