data_PCOD9512891
_publ_section_title
;
Structure prediction by ZEFSAII (Michael W. Deem and Ramdas Pophale) SiO2 
 PCOD9512891
Probable space group: F M M M
;
_chemical_formula_sum "Si O2"
_cell_formula_units_Z 112
_cell_length_a 14.349561
_cell_length_b 32.133548
_cell_length_c 14.014390
_cell_angle_alpha 90.000000
_cell_angle_beta 90.000000
_cell_angle_gamma 90.000000
_cell_volume 6462.067563
_symmetry_space_group_name_H-M "F M M M"
_symmetry_group_IT_number 69
_symmetry_cell_setting 'orthorhombic'
loop_
_space_group_symop_operation_xyz
x,y,z
-x,-y,z
x,-y,-z
-x,y,-z
-x,-y,-z
x,y,-z
-x,y,z
x,-y,z
x,1/2+y,1/2+z
-x,1/2-y,1/2+z
x,1/2-y,1/2-z
-x,1/2+y,1/2-z
-x,1/2-y,1/2-z
x,1/2+y,1/2-z
-x,1/2+y,1/2+z
x,1/2-y,1/2+z
1/2+x,y,1/2+z
1/2-x,-y,1/2+z
1/2+x,-y,1/2-z
1/2-x,y,1/2-z
1/2-x,-y,1/2-z
1/2+x,y,1/2-z
1/2-x,y,1/2+z
1/2+x,-y,1/2+z
1/2+x,1/2+y,z
1/2-x,1/2-y,z
1/2+x,1/2-y,-z
1/2-x,1/2+y,-z
1/2-x,1/2-y,-z
1/2+x,1/2+y,-z
1/2-x,1/2+y,z
1/2+x,1/2-y,z
loop_
_atom_site_type_symbol
_atom_site_label
_atom_site_fract_x
_atom_site_fract_y
_atom_site_fract_z
Si Si1 0.750000 0.405711 0.750000
Si Si2 0.893829 0.949755 0.389045
Si Si3 0.000000 0.180298 0.388942
Si Si4 0.349495 0.672962 0.767210
Si Si5 0.500000 0.219531 0.610184
O O1 0.814422 0.431668 0.820957
O O2 0.681253 0.372810 0.803379
O O3 0.879224 0.937928 0.500000
O O4 0.000000 0.936612 0.362542
O O5 0.891617 0.000000 0.384352
O O6 0.091064 0.166513 0.329666
O O7 0.000000 0.230668 0.382385
O O8 0.000000 0.168093 0.500000
O O9 0.250000 0.694346 0.750000
O O10 0.411837 0.699667 0.837192
O O11 0.500000 0.208281 0.500000
#
# Coordination Sequence:
#
# PCOD9512891 Si02
#       5
#    16  32  16  32  16
#     4  10  21  32  55  80 110 138 168 214 269 306
#     4   9  19  36  58  81 105 138 177 212 250 306
#     4  10  21  37  56  75 101 140 180 222 262 304
#     4   9  21  35  51  78 105 135 172 216 266 309
#     4  10  21  37  54  73 103 140 180 220 260 310
#
# _framework density 17.331914000000001
#
# number of rings (size 3 to 8) (size 9 to 14) (size 15 to 20)
#    0.857    1.714    0.000    3.000    4.000    5.714 
#    0.000    2.857    0.000    0.000    0.000    4.000 
#    0.000    0.000    0.000    0.000    0.000    0.000 
#
# Total GULP energy -155926.732346 kJ/mol
# GULP energy per Si atom -5568.811870 kJ/mol
# Density = 1.729247 g / cm^3
# Si number density = 17.331914 Si / 1000 Ang^3
#
#
#
# Elastic Constant Matrix: (Units=GPa)
#
#
# Indices 1 2 3 4 5 6 
#
# 1 163.7286 39.6655 77.7512 0.0000 0.0000 0.0000
# 2 39.6655 50.4277 27.8884 0.0000 0.0000 0.0000
# 3 77.7512 27.8884 96.4719 0.0000 0.0000 0.0000
# 4 0.0000 0.0000 0.0000 -10.8645 0.0000 0.0000
# 5 0.0000 0.0000 0.0000 0.0000 19.8867 0.0000
# 6 0.0000 0.0000 0.0000 0.0000 0.0000 28.2710
#
#
#
# Elastic Compliance Matrix: (Units=1/GPa)
#
#
# Indices 1 2 3 4 5 6 
#
# 1 0.010628 -0.004312 -0.007319 0.000000 0.000000 0.000000
# 2 -0.004312 0.025354 -0.003854 0.000000 0.000000 0.000000
# 3 -0.007319 -0.003854 0.017379 0.000000 0.000000 0.000000
# 4 0.000000 0.000000 0.000000 -0.092043 0.000000 0.000000
# 5 0.000000 0.000000 0.000000 0.000000 0.050285 0.000000
# 6 0.000000 0.000000 0.000000 0.000000 0.000000 0.035372
#
#
# Mechanical properties :
#
#
# Convention : Reuss Voigt Hill
#
# Bulk Modulus (GPa) = 44.66288 66.80427 55.73357
# Shear Modulus (GPa) = 58.54297 18.48019 38.51158
#
# Velocity S-wave (km/s) = 5.81815 3.26889 4.71893
# Velocity P-wave (km/s) = 8.42375 7.27154 7.86877
#
# Compressibility (1/GPa) = 0.02238996
#
# Stress axis : x y z
#
# Youngs Moduli (GPa) = 94.09125 39.44215 57.54214
#
# Poissons Ratio (x) = 0.17008 0.42115
# Poissons Ratio (y) = 0.40573 0.22177
# Poissons Ratio (z) = 0.68866 0.15201
#
# Static dielectric constant tensor:
#      x y z
#    x 1.590730 0.000000 0.000000 
#    y 0.000000 1.623320 0.000000 
#    z 0.000000 0.000000 1.568520 
# 
# From -- ./inp_files/14400.got.cif
#   From: 2010.05.17/outbox.cif.g08.bks.cpg/sg69_8_cif.got.tgz:14400.got - 2010.06.03 19:29:58.
