data_PCOD9512903
_publ_section_title
;
Structure prediction by ZEFSAII (Michael W. Deem and Ramdas Pophale) SiO2 
 PCOD9512903
Probable space group: F M M M
;
_chemical_formula_sum "Si O2"
_cell_formula_units_Z 192
_cell_length_a 14.877615
_cell_length_b 21.637445
_cell_length_c 24.443625
_cell_angle_alpha 90.000000
_cell_angle_beta 90.000000
_cell_angle_gamma 90.000000
_cell_volume 7868.734741
_symmetry_space_group_name_H-M "F M M M"
_symmetry_group_IT_number 69
_symmetry_cell_setting 'orthorhombic'
loop_
_space_group_symop_operation_xyz
x,y,z
-x,-y,z
x,-y,-z
-x,y,-z
-x,-y,-z
x,y,-z
-x,y,z
x,-y,z
x,1/2+y,1/2+z
-x,1/2-y,1/2+z
x,1/2-y,1/2-z
-x,1/2+y,1/2-z
-x,1/2-y,1/2-z
x,1/2+y,1/2-z
-x,1/2+y,1/2+z
x,1/2-y,1/2+z
1/2+x,y,1/2+z
1/2-x,-y,1/2+z
1/2+x,-y,1/2-z
1/2-x,y,1/2-z
1/2-x,-y,1/2-z
1/2+x,y,1/2-z
1/2-x,y,1/2+z
1/2+x,-y,1/2+z
1/2+x,1/2+y,z
1/2-x,1/2-y,z
1/2+x,1/2-y,-z
1/2-x,1/2+y,-z
1/2-x,1/2-y,-z
1/2+x,1/2+y,-z
1/2-x,1/2+y,z
1/2+x,1/2-y,z
loop_
_atom_site_type_symbol
_atom_site_label
_atom_site_fract_x
_atom_site_fract_y
_atom_site_fract_z
Si Si1 0.141143 0.381343 0.182120
Si Si2 0.851539 0.244069 0.173877
Si Si3 0.633989 0.932505 0.582000
Si Si4 0.102382 0.707216 0.557652
Si Si5 0.140618 0.890718 0.800009
Si Si6 0.849430 0.071220 0.561549
O O1 0.108365 0.310620 0.185384
O O2 0.114526 0.413744 0.239566
O O3 0.250617 0.385186 0.189438
O O4 0.117881 0.402613 0.120460
O O5 0.750000 0.250000 0.194037
O O6 0.847398 0.233476 0.109159
O O7 0.892529 0.180302 0.194981
O O8 0.599384 0.867329 0.560011
O O9 0.612742 0.928619 0.646863
O O10 0.740856 0.928842 0.568924
O O11 0.604096 0.000000 0.562203
O O12 0.142005 0.726427 0.500000
O O13 0.000000 0.729429 0.561438
O O14 0.869957 0.097644 0.500000
O O15 0.878859 0.000000 0.560105
#
# Coordination Sequence:
#
# PCOD9512903 Si02
#       6
#    32  32  32  32  32  32
#     4   9  15  25  44  65  89 122 151 181 234 289
#     4   9  17  29  47  69  91 118 154 193 232 277
#     4   9  17  29  45  62  85 123 163 194 226 267
#     4  10  21  34  46  65  95 125 155 195 233 266
#     4   8  15  26  41  66  93 114 147 197 237 267
#     4   9  17  27  39  62  96 125 152 191 231 269
#
# _framework density 24.400364
#
# number of rings (size 3 to 8) (size 9 to 14) (size 15 to 20)
#    0.000    3.000    0.000    2.000    0.000    5.000 
#    0.000    4.167    0.000    8.000    0.000    0.000 
#    0.000    0.667    0.000    3.667    0.000    4.667 
#
# Total GULP energy -267397.887019 kJ/mol
# GULP energy per Si atom -5570.789313 kJ/mol
# Density = 2.434483 g / cm^3
# Si number density = 24.400364 Si / 1000 Ang^3
#
#
#
# Elastic Constant Matrix: (Units=GPa)
#
#
# Indices 1 2 3 4 5 6 
#
# 1 58.4607 -0.5978 3.2449 0.0000 0.0000 0.0000
# 2 -0.5978 46.2560 37.9008 0.0000 0.0000 0.0000
# 3 3.2449 37.9008 290.1050 0.0000 0.0000 0.0000
# 4 0.0000 0.0000 0.0000 -30.2060 0.0000 0.0000
# 5 0.0000 0.0000 0.0000 0.0000 26.9601 0.0000
# 6 0.0000 0.0000 0.0000 0.0000 0.0000 63.2195
#
#
#
# Elastic Compliance Matrix: (Units=1/GPa)
#
#
# Indices 1 2 3 4 5 6 
#
# 1 0.017124 0.000424 -0.000247 0.000000 0.000000 0.000000
# 2 0.000424 0.024221 -0.003169 0.000000 0.000000 0.000000
# 3 -0.000247 -0.003169 0.003864 0.000000 0.000000 0.000000
# 4 0.000000 0.000000 0.000000 -0.033106 0.000000 0.000000
# 5 0.000000 0.000000 0.000000 0.000000 0.037092 0.000000
# 6 0.000000 0.000000 0.000000 0.000000 0.000000 0.015818
#
#
# Mechanical properties :
#
#
# Convention : Reuss Voigt Hill
#
# Bulk Modulus (GPa) = 25.49489 52.87972 39.18730
# Shear Modulus (GPa) = 59.47336 35.61298 47.54317
#
# Velocity S-wave (km/s) = 4.94236 3.82452 4.41893
# Velocity P-wave (km/s) = 6.56052 6.42039 6.49083
#
# Compressibility (1/GPa) = 0.03922355
#
# Stress axis : x y z
#
# Youngs Moduli (GPa) = 58.39916 41.28656 258.81156
#
# Poissons Ratio (x) = -0.01749 0.06389
# Poissons Ratio (y) = -0.02474 0.82020
# Poissons Ratio (z) = 0.01442 0.13084
#
# Static dielectric constant tensor:
#      x y z
#    x 2.003190 0.000000 0.000000 
#    y 0.000000 1.902800 0.000000 
#    z 0.000000 0.000000 1.992900 
# 
# From -- ./inp_files/37344.got.cif
#   From: 2010.05.17/outbox.cif.g08.bks.cpg/sg69_19_cif.got.tgz:37344.got - 2010.06.03 19:29:58.
