data_PCOD9512711
_publ_section_title
;
Structure prediction by ZEFSAII (Michael W. Deem and Ramdas Pophale) SiO2 
 PCOD9512711
Probable space group: F M M M
;
_chemical_formula_sum "Si O2"
_cell_formula_units_Z 136
_cell_length_a 17.078971
_cell_length_b 23.693657
_cell_length_c 15.931294
_cell_angle_alpha 90.000000
_cell_angle_beta 90.000000
_cell_angle_gamma 90.000000
_cell_volume 6446.809697
_symmetry_space_group_name_H-M "F M M M"
_symmetry_group_IT_number 69
_symmetry_cell_setting 'orthorhombic'
loop_
_space_group_symop_operation_xyz
x,y,z
-x,-y,z
x,-y,-z
-x,y,-z
-x,-y,-z
x,y,-z
-x,y,z
x,-y,z
x,1/2+y,1/2+z
-x,1/2-y,1/2+z
x,1/2-y,1/2-z
-x,1/2+y,1/2-z
-x,1/2-y,1/2-z
x,1/2+y,1/2-z
-x,1/2+y,1/2+z
x,1/2-y,1/2+z
1/2+x,y,1/2+z
1/2-x,-y,1/2+z
1/2+x,-y,1/2-z
1/2-x,y,1/2-z
1/2-x,-y,1/2-z
1/2+x,y,1/2-z
1/2-x,y,1/2+z
1/2+x,-y,1/2+z
1/2+x,1/2+y,z
1/2-x,1/2-y,z
1/2+x,1/2-y,-z
1/2-x,1/2+y,-z
1/2-x,1/2-y,-z
1/2+x,1/2+y,-z
1/2-x,1/2+y,z
1/2+x,1/2-y,z
loop_
_atom_site_type_symbol
_atom_site_label
_atom_site_fract_x
_atom_site_fract_y
_atom_site_fract_z
Si Si1 0.820045 0.100686 0.627498
Si Si2 0.140931 0.500000 0.000000
Si Si3 0.500000 0.910372 0.404022
Si Si4 0.339058 0.934848 0.318006
Si Si5 0.000000 0.224610 0.901837
Si Si6 0.335154 0.268863 0.402362
O O1 0.725580 0.095334 0.624456
O O2 0.839823 0.091121 0.725278
O O3 0.841710 0.163503 0.600815
O O4 0.855667 0.050334 0.572599
O O5 0.500000 0.928865 0.500000
O O6 0.423091 0.931297 0.358442
O O7 0.500000 0.842661 0.401155
O O8 0.314629 0.000000 0.312587
O O9 0.916478 0.244857 0.864779
O O10 0.000000 0.244285 0.000000
O O11 0.333597 0.249518 0.500000
O O12 0.250000 0.250000 0.366048
#
# Coordination Sequence:
#
# PCOD9512711 Si02
#       6
#    32   8  16  32  16  32
#     4  11  22  39  65  94 128 168 219 261 326 384
#     4  12  20  38  70  94 116 176 222 258 306 413
#     4  11  25  41  67  91 123 170 214 259 334 406
#     4  11  23  41  58  94 135 163 202 277 326 373
#     4   9  20  40  58  90 125 156 213 274 322 377
#     4  10  20  36  63  93 126 170 219 272 323 383
#
# _framework density 21.095706
#
# number of rings (size 3 to 8) (size 9 to 14) (size 15 to 20)
#    0.000    1.412    3.529    2.471    1.647    3.765 
#    0.000    9.412    0.000    2.824    0.000    0.000 
#    0.000    0.000    0.000    0.000    0.000    0.000 
#
# Total GULP energy -189372.967796 kJ/mol
# GULP energy per Si atom -5569.793170 kJ/mol
# Density = 2.104769 g / cm^3
# Si number density = 21.095706 Si / 1000 Ang^3
#
#
#
# Elastic Constant Matrix: (Units=GPa)
#
#
# Indices 1 2 3 4 5 6 
#
# 1 137.1605 21.3359 11.9706 0.0000 0.0000 0.0000
# 2 21.3359 99.7022 -0.8359 0.0000 0.0000 0.0000
# 3 11.9706 -0.8359 40.2881 0.0000 0.0000 0.0000
# 4 0.0000 0.0000 0.0000 20.1823 0.0000 0.0000
# 5 0.0000 0.0000 0.0000 0.0000 359.5345 0.0000
# 6 0.0000 0.0000 0.0000 0.0000 0.0000 39.3142
#
#
#
# Elastic Compliance Matrix: (Units=1/GPa)
#
#
# Indices 1 2 3 4 5 6 
#
# 1 0.007756 -0.001679 -0.002339 0.000000 0.000000 0.000000
# 2 -0.001679 0.010395 0.000715 0.000000 0.000000 0.000000
# 3 -0.002339 0.000715 0.025531 0.000000 0.000000 0.000000
# 4 0.000000 0.000000 0.000000 0.049548 0.000000 0.000000
# 5 0.000000 0.000000 0.000000 0.000000 0.002781 0.000000
# 6 0.000000 0.000000 0.000000 0.000000 0.000000 0.025436
#
#
# Mechanical properties :
#
#
# Convention : Reuss Voigt Hill
#
# Bulk Modulus (GPa) = 26.97289 38.01022 32.49156
# Shear Modulus (GPa) = 35.60880 100.11820 67.86350
#
# Velocity S-wave (km/s) = 4.11294 6.89653 5.67796
# Velocity P-wave (km/s) = 5.94716 9.02625 7.64336
#
# Compressibility (1/GPa) = 0.03707426
#
# Stress axis : x y z
#
# Youngs Moduli (GPa) = 128.93020 96.19785 39.16791
#
# Poissons Ratio (x) = 0.16155 0.09163
# Poissons Ratio (y) = 0.21652 -0.02799
# Poissons Ratio (z) = 0.30162 -0.06875
#
# Static dielectric constant tensor:
#      x y z
#    x 1.792130 0.000000 0.000000 
#    y 0.000000 1.724760 0.000000 
#    z 0.000000 0.000000 1.742110 
# 
# From -- ./inp_files/22950.got.cif
#   From: 2010.05.17/outbox.cif.g08.bks.cpg/sg69_12_cif.got.tgz:22950.got - 2010.06.03 19:29:58.
