data_PCOD9512695
_publ_section_title
;
Structure prediction by ZEFSAII (Michael W. Deem and Ramdas Pophale) SiO2 
 PCOD9512695
Probable space group: F M M M
;
_chemical_formula_sum "Si O2"
_cell_formula_units_Z 208
_cell_length_a 18.749703
_cell_length_b 22.067717
_cell_length_c 25.832271
_cell_angle_alpha 90.000000
_cell_angle_beta 90.000000
_cell_angle_gamma 90.000000
_cell_volume 10688.441553
_symmetry_space_group_name_H-M "F M M M"
_symmetry_group_IT_number 69
_symmetry_cell_setting 'orthorhombic'
loop_
_space_group_symop_operation_xyz
x,y,z
-x,-y,z
x,-y,-z
-x,y,-z
-x,-y,-z
x,y,-z
-x,y,z
x,-y,z
x,1/2+y,1/2+z
-x,1/2-y,1/2+z
x,1/2-y,1/2-z
-x,1/2+y,1/2-z
-x,1/2-y,1/2-z
x,1/2+y,1/2-z
-x,1/2+y,1/2+z
x,1/2-y,1/2+z
1/2+x,y,1/2+z
1/2-x,-y,1/2+z
1/2+x,-y,1/2-z
1/2-x,y,1/2-z
1/2-x,-y,1/2-z
1/2+x,y,1/2-z
1/2-x,y,1/2+z
1/2+x,-y,1/2+z
1/2+x,1/2+y,z
1/2-x,1/2-y,z
1/2+x,1/2-y,-z
1/2-x,1/2+y,-z
1/2-x,1/2-y,-z
1/2+x,1/2+y,-z
1/2-x,1/2+y,z
1/2+x,1/2-y,z
loop_
_atom_site_type_symbol
_atom_site_label
_atom_site_fract_x
_atom_site_fract_y
_atom_site_fract_z
Si Si1 0.331618 0.400798 0.385049
Si Si2 0.413907 0.808534 0.283028
Si Si3 0.184957 0.070699 0.060402
Si Si4 0.327732 0.280197 0.558070
Si Si5 0.415117 0.325784 0.901263
Si Si6 0.077922 0.500000 0.060728
Si Si7 0.415051 0.929774 0.218825
O O1 0.250983 0.416750 0.401126
O O2 0.340921 0.330835 0.399062
O O3 0.379753 0.441187 0.422503
O O4 0.361677 0.418535 0.329051
O O5 0.500000 0.802908 0.284086
O O6 0.387521 0.750000 0.250000
O O7 0.390183 0.810363 0.342639
O O8 0.399194 0.874452 0.257939
O O9 0.120982 0.113184 0.078389
O O10 0.166948 0.000000 0.062891
O O11 0.204040 0.084500 0.000000
O O12 0.329459 0.306698 0.500000
O O13 0.250000 0.250000 0.565045
O O14 0.386088 0.228245 0.563514
O O15 0.500000 0.330122 0.901923
O O16 0.000000 0.500000 0.085781
O O17 0.071826 0.500000 0.000000
O O18 0.500000 0.923699 0.204605
O O19 0.406208 0.000000 0.236915
#
# Coordination Sequence:
#
# PCOD9512695 Si02
#       7
#    32  32  32  32  32  16  32
#     4  12  21  37  62  88 125 167 210 250 306 377
#     4   9  19  38  63  90 121 161 208 258 317 376
#     4  11  23  40  63  88 120 168 212 250 310 374
#     4  11  23  39  62  90 123 166 211 251 307 379
#     4  11  24  42  65  93 124 157 207 267 309 358
#     4  11  22  34  54  90 128 159 205 259 304 369
#     4  10  20  36  61  93 128 166 207 255 315 383
#
# _framework density 19.460273999999998
#
# number of rings (size 3 to 8) (size 9 to 14) (size 15 to 20)
#    0.000    1.308    3.077    3.231    0.000    4.615 
#    0.000    3.077    0.000    1.846    0.000    0.000 
#    0.000    0.000    0.000    0.000    0.000    0.000 
#
# Total GULP energy -290239.552688 kJ/mol
# GULP energy per Si atom -5581.529859 kJ/mol
# Density = 1.941598 g / cm^3
# Si number density = 19.460274 Si / 1000 Ang^3
#
#
#
# Elastic Constant Matrix: (Units=GPa)
#
#
# Indices 1 2 3 4 5 6 
#
# 1 69.7298 37.4337 -1.3540 0.0000 0.0000 0.0000
# 2 37.4337 128.8082 32.1876 0.0000 0.0000 0.0000
# 3 -1.3540 32.1876 52.2032 0.0000 0.0000 0.0000
# 4 0.0000 0.0000 0.0000 35.6629 0.0000 0.0000
# 5 0.0000 0.0000 0.0000 0.0000 30.2161 0.0000
# 6 0.0000 0.0000 0.0000 0.0000 0.0000 23.8687
#
#
#
# Elastic Compliance Matrix: (Units=1/GPa)
#
#
# Indices 1 2 3 4 5 6 
#
# 1 0.017776 -0.006243 0.004311 0.000000 0.000000 0.000000
# 2 -0.006243 0.011370 -0.007173 0.000000 0.000000 0.000000
# 3 0.004311 -0.007173 0.023690 0.000000 0.000000 0.000000
# 4 0.000000 0.000000 0.000000 0.028040 0.000000 0.000000
# 5 0.000000 0.000000 0.000000 0.000000 0.033095 0.000000
# 6 0.000000 0.000000 0.000000 0.000000 0.000000 0.041896
#
#
# Mechanical properties :
#
#
# Convention : Reuss Voigt Hill
#
# Bulk Modulus (GPa) = 28.87984 43.03062 35.95523
# Shear Modulus (GPa) = 26.93666 30.11447 28.52557
#
# Velocity S-wave (km/s) = 3.72450 3.93808 3.83278
# Velocity P-wave (km/s) = 5.77655 6.54507 6.17278
#
# Compressibility (1/GPa) = 0.03462623
#
# Stress axis : x y z
#
# Youngs Moduli (GPa) = 56.25434 87.94906 42.21150
#
# Poissons Ratio (x) = 0.54909 -0.18196
# Poissons Ratio (y) = 0.35121 0.30277
# Poissons Ratio (z) = -0.24249 0.63082
#
# Static dielectric constant tensor:
#      x y z
#    x 1.667940 0.000000 0.000000 
#    y 0.000000 1.655820 0.000000 
#    z 0.000000 0.000000 1.697840 
# 
# From -- ./inp_files/42020.got.cif
#   From: 2010.05.17/outbox.cif.g08.bks.cpg/sg69_22_cif.got.tgz:42020.got - 2010.06.03 19:29:58.
