data_PCOD9512574
_publ_section_title
;
Structure prediction by ZEFSAII (Michael W. Deem and Ramdas Pophale) SiO2 
 PCOD9512574
Probable space group: F M M M
;
_chemical_formula_sum "Si O2"
_cell_formula_units_Z 172
_cell_length_a 17.190604
_cell_length_b 29.790999
_cell_length_c 14.974441
_cell_angle_alpha 90.000000
_cell_angle_beta 90.000000
_cell_angle_gamma 90.000000
_cell_volume 7668.789589
_symmetry_space_group_name_H-M "F M M M"
_symmetry_group_IT_number 69
_symmetry_cell_setting 'orthorhombic'
loop_
_space_group_symop_operation_xyz
x,y,z
-x,-y,z
x,-y,-z
-x,y,-z
-x,-y,-z
x,y,-z
-x,y,z
x,-y,z
x,1/2+y,1/2+z
-x,1/2-y,1/2+z
x,1/2-y,1/2-z
-x,1/2+y,1/2-z
-x,1/2-y,1/2-z
x,1/2+y,1/2-z
-x,1/2+y,1/2+z
x,1/2-y,1/2+z
1/2+x,y,1/2+z
1/2-x,-y,1/2+z
1/2+x,-y,1/2-z
1/2-x,y,1/2-z
1/2-x,-y,1/2-z
1/2+x,y,1/2-z
1/2-x,y,1/2+z
1/2+x,-y,1/2+z
1/2+x,1/2+y,z
1/2-x,1/2-y,z
1/2+x,1/2-y,-z
1/2-x,1/2+y,-z
1/2-x,1/2-y,-z
1/2+x,1/2+y,-z
1/2-x,1/2+y,z
1/2+x,1/2-y,z
loop_
_atom_site_type_symbol
_atom_site_label
_atom_site_fract_x
_atom_site_fract_y
_atom_site_fract_z
Si Si1 0.876429 0.645121 0.398791
Si Si2 0.276652 0.901883 0.852402
Si Si3 0.086556 0.663469 0.891603
Si Si4 0.500000 0.424251 0.159150
Si Si5 0.500000 0.500000 0.000000
Si Si6 0.190310 0.000000 0.339182
Si Si7 0.660736 0.242869 0.390976
Si Si8 0.500000 0.000000 0.198221
O O1 0.907274 0.647520 0.500000
O O2 0.788980 0.626621 0.401767
O O3 0.873319 0.695274 0.360014
O O4 0.926423 0.608389 0.347864
O O5 0.250000 0.903257 0.750000
O O6 0.355337 0.874346 0.859467
O O7 0.286692 0.952955 0.884274
O O8 0.113497 0.713221 0.864582
O O9 0.000000 0.654595 0.860201
O O10 0.087932 0.662852 0.000000
O O11 0.500000 0.454223 0.246328
O O12 0.500000 0.460281 0.078120
O O13 0.250000 0.000000 0.250000
O O14 0.093906 0.000000 0.334418
O O15 0.660956 0.240325 0.500000
O O16 0.750000 0.250000 0.363074
#
# Coordination Sequence:
#
# PCOD9512574 Si02
#       8
#    32  32  32  16   4  16  32   8
#     4  11  21  37  61  91 125 160 201 253 307 365
#     4  11  23  41  62  89 119 160 212 254 306 373
#     4  10  21  39  64  93 124 163 208 258 306 365
#     4  11  21  36  58  91 118 153 194 250 306 367
#     4  10  20  36  44  84 128 140 176 244 322 348
#     4  10  23  43  61  89 113 162 213 243 298 388
#     4   9  17  33  58  86 121 162 204 242 299 365
#     4  11  24  43  68  78 123 168 193 250 310 369
#
# _framework density 22.428573
#
# number of rings (size 3 to 8) (size 9 to 14) (size 15 to 20)
#    0.000    1.674    2.791    2.791    2.605    0.744 
#    1.674    3.256    0.000    2.233    0.000    0.000 
#    0.000    0.000    0.000    0.000    0.000    0.000 
#
# Total GULP energy -239927.044415 kJ/mol
# GULP energy per Si atom -5579.698707 kJ/mol
# Density = 2.237752 g / cm^3
# Si number density = 22.428573 Si / 1000 Ang^3
#
#
#
# Elastic Constant Matrix: (Units=GPa)
#
#
# Indices 1 2 3 4 5 6 
#
# 1 140.3060 60.2157 5.5868 0.0000 0.0000 0.0000
# 2 60.2157 214.9353 12.4518 0.0000 0.0000 0.0000
# 3 5.5868 12.4518 42.2883 0.0000 0.0000 0.0000
# 4 0.0000 0.0000 0.0000 7.8350 0.0000 0.0000
# 5 0.0000 0.0000 0.0000 0.0000 18.6760 0.0000
# 6 0.0000 0.0000 0.0000 0.0000 0.0000 42.6912
#
#
#
# Elastic Compliance Matrix: (Units=1/GPa)
#
#
# Indices 1 2 3 4 5 6 
#
# 1 0.008108 -0.002248 -0.000409 0.000000 0.000000 0.000000
# 2 -0.002248 0.005356 -0.001280 0.000000 0.000000 0.000000
# 3 -0.000409 -0.001280 0.024078 0.000000 0.000000 0.000000
# 4 0.000000 0.000000 0.000000 0.127632 0.000000 0.000000
# 5 0.000000 0.000000 0.000000 0.000000 0.053545 0.000000
# 6 0.000000 0.000000 0.000000 0.000000 0.000000 0.023424
#
#
# Mechanical properties :
#
#
# Convention : Reuss Voigt Hill
#
# Bulk Modulus (GPa) = 33.70617 61.55979 47.63298
# Shear Modulus (GPa) = 19.23756 35.12547 27.18151
#
# Velocity S-wave (km/s) = 2.93187 3.96170 3.48503
# Velocity P-wave (km/s) = 5.14995 6.95941 6.12190
#
# Compressibility (1/GPa) = 0.02966816
#
# Stress axis : x y z
#
# Youngs Moduli (GPa) = 123.33022 186.68933 41.53126
#
# Poissons Ratio (x) = 0.41966 0.01700
# Poissons Ratio (y) = 0.27723 0.05317
# Poissons Ratio (z) = 0.05048 0.23901
#
# Static dielectric constant tensor:
#      x y z
#    x 1.781130 0.000000 0.000000 
#    y 0.000000 1.774730 0.000000 
#    z 0.000000 0.000000 1.891970 
# 
# From -- ./inp_files/23343.got.cif
#   From: 2010.05.17/outbox.cif.g08.bks.cpg/sg69_12_cif.got.tgz:23343.got - 2010.06.03 19:29:58.
