data_PCOD9512868
_publ_section_title
;
Structure prediction by ZEFSAII (Michael W. Deem and Ramdas Pophale) SiO2 
 PCOD9512868
Probable space group: F M M M
;
_chemical_formula_sum "Si O2"
_cell_formula_units_Z 76
_cell_length_a 15.424089
_cell_length_b 13.254295
_cell_length_c 18.853185
_cell_angle_alpha 90.000000
_cell_angle_beta 90.000000
_cell_angle_gamma 90.000000
_cell_volume 3854.258902
_symmetry_space_group_name_H-M "F M M M"
_symmetry_group_IT_number 69
_symmetry_cell_setting 'orthorhombic'
loop_
_space_group_symop_operation_xyz
x,y,z
-x,-y,z
x,-y,-z
-x,y,-z
-x,-y,-z
x,y,-z
-x,y,z
x,-y,z
x,1/2+y,1/2+z
-x,1/2-y,1/2+z
x,1/2-y,1/2-z
-x,1/2+y,1/2-z
-x,1/2-y,1/2-z
x,1/2+y,1/2-z
-x,1/2+y,1/2+z
x,1/2-y,1/2+z
1/2+x,y,1/2+z
1/2-x,-y,1/2+z
1/2+x,-y,1/2-z
1/2-x,y,1/2-z
1/2-x,-y,1/2-z
1/2+x,y,1/2-z
1/2-x,y,1/2+z
1/2+x,-y,1/2+z
1/2+x,1/2+y,z
1/2-x,1/2-y,z
1/2+x,1/2-y,-z
1/2-x,1/2+y,-z
1/2-x,1/2-y,-z
1/2+x,1/2+y,-z
1/2-x,1/2+y,z
1/2+x,1/2-y,z
loop_
_atom_site_type_symbol
_atom_site_label
_atom_site_fract_x
_atom_site_fract_y
_atom_site_fract_z
Si Si1 0.680423 0.500000 0.685619
Si Si2 0.000000 0.500000 0.500000
Si Si3 0.500000 0.000000 0.734645
Si Si4 0.000000 0.825744 0.879244
Si Si5 0.337776 0.186377 0.918848
O O1 0.750000 0.500000 0.750000
O O2 0.586184 0.500000 0.719860
O O3 0.684494 0.595977 0.634069
O O4 0.000000 0.588976 0.439531
O O5 0.500000 0.104826 0.690511
O O6 0.084206 0.755057 0.888792
O O7 0.250000 0.250000 0.923404
O O8 0.360279 0.153987 0.000000
#
# Coordination Sequence:
#
# PCOD9512868 Si02
#       5
#    16   4   8  16  32
#     4  12  26  44  63  97 139 176 221 273 332 404
#     4  10  20  40  68  94 130 158 214 272 334 374
#     4  11  26  39  65  98 127 184 212 274 335 398
#     4  11  22  43  67  98 131 169 226 275 327 398
#     4  11  24  43  68  98 127 177 223 278 333 387
#
# _framework density 19.718447000000001
#
# number of rings (size 3 to 8) (size 9 to 14) (size 15 to 20)
#    0.000    0.842    2.105    4.421    0.000    9.263 
#    0.000    3.158    0.000    0.000    0.000    0.000 
#    0.000    0.000    0.000    0.000    0.000    0.000 
#
# Total GULP energy -105894.802552 kJ/mol
# GULP energy per Si atom -5573.410661 kJ/mol
# Density = 1.967357 g / cm^3
# Si number density = 19.718447 Si / 1000 Ang^3
#
#
#
# Elastic Constant Matrix: (Units=GPa)
#
#
# Indices 1 2 3 4 5 6 
#
# 1 133.9019 54.9199 51.0130 0.0000 0.0000 0.0000
# 2 54.9199 162.5685 92.9012 0.0000 0.0000 0.0000
# 3 51.0130 92.9012 155.1902 0.0000 0.0000 0.0000
# 4 0.0000 0.0000 0.0000 10.4256 0.0000 0.0000
# 5 0.0000 0.0000 0.0000 0.0000 47.7503 0.0000
# 6 0.0000 0.0000 0.0000 0.0000 0.0000 21.2542
#
#
#
# Elastic Compliance Matrix: (Units=1/GPa)
#
#
# Indices 1 2 3 4 5 6 
#
# 1 0.008963 -0.002043 -0.001723 0.000000 0.000000 0.000000
# 2 -0.002043 0.009815 -0.005204 0.000000 0.000000 0.000000
# 3 -0.001723 -0.005204 0.010125 0.000000 0.000000 0.000000
# 4 0.000000 0.000000 0.000000 0.095918 0.000000 0.000000
# 5 0.000000 0.000000 0.000000 0.000000 0.020942 0.000000
# 6 0.000000 0.000000 0.000000 0.000000 0.000000 0.047050
#
#
# Mechanical properties :
#
#
# Convention : Reuss Voigt Hill
#
# Bulk Modulus (GPa) = 91.21798 94.36987 92.79392
# Shear Modulus (GPa) = 23.31996 32.74110 28.03053
#
# Velocity S-wave (km/s) = 3.44269 4.07926 3.77442
# Velocity P-wave (km/s) = 7.88438 8.37554 8.13367
#
# Compressibility (1/GPa) = 0.01096275
#
# Stress axis : x y z
#
# Youngs Moduli (GPa) = 111.57497 101.87997 98.76086
#
# Poissons Ratio (x) = 0.20816 0.17017
# Poissons Ratio (y) = 0.22797 0.51397
# Poissons Ratio (z) = 0.19225 0.53020
#
# Static dielectric constant tensor:
#      x y z
#    x 1.654870 0.000000 0.000000 
#    y 0.000000 1.663150 0.000000 
#    z 0.000000 0.000000 1.697000 
# 
# From -- ./inp_files/29361.got.cif
#   From: 2010.05.17/outbox.cif.g08.bks.cpg/sg69_15_cif.got.tgz:29361.got - 2010.06.03 19:29:58.
