data_PCOD9512589
_publ_section_title
;
Structure prediction by ZEFSAII (Michael W. Deem and Ramdas Pophale) SiO2 
 PCOD9512589
Probable space group: F M M M
;
_chemical_formula_sum "Si O2"
_cell_formula_units_Z 128
_cell_length_a 15.043604
_cell_length_b 14.905571
_cell_length_c 28.252254
_cell_angle_alpha 90.000000
_cell_angle_beta 90.000000
_cell_angle_gamma 90.000000
_cell_volume 6335.102010
_symmetry_space_group_name_H-M "F M M M"
_symmetry_group_IT_number 69
_symmetry_cell_setting 'orthorhombic'
loop_
_space_group_symop_operation_xyz
x,y,z
-x,-y,z
x,-y,-z
-x,y,-z
-x,-y,-z
x,y,-z
-x,y,z
x,-y,z
x,1/2+y,1/2+z
-x,1/2-y,1/2+z
x,1/2-y,1/2-z
-x,1/2+y,1/2-z
-x,1/2-y,1/2-z
x,1/2+y,1/2-z
-x,1/2+y,1/2+z
x,1/2-y,1/2+z
1/2+x,y,1/2+z
1/2-x,-y,1/2+z
1/2+x,-y,1/2-z
1/2-x,y,1/2-z
1/2-x,-y,1/2-z
1/2+x,y,1/2-z
1/2-x,y,1/2+z
1/2+x,-y,1/2+z
1/2+x,1/2+y,z
1/2-x,1/2-y,z
1/2+x,1/2-y,-z
1/2-x,1/2+y,-z
1/2-x,1/2-y,-z
1/2+x,1/2+y,-z
1/2-x,1/2+y,z
1/2+x,1/2-y,z
loop_
_atom_site_type_symbol
_atom_site_label
_atom_site_fract_x
_atom_site_fract_y
_atom_site_fract_z
Si Si1 0.000000 0.167558 0.788686
Si Si2 0.142197 0.754322 0.946390
Si Si3 0.500000 0.900234 0.193090
Si Si4 0.847547 0.606555 0.872628
Si Si5 0.138522 0.392226 0.634177
O O1 0.000000 0.250000 0.750000
O O2 0.000000 0.092904 0.748647
O O3 0.916396 0.152369 0.823112
O O4 0.250000 0.750000 0.948703
O O5 0.120118 0.664582 0.917200
O O6 0.115253 0.839529 0.914313
O O7 0.108923 0.757588 0.000000
O O8 0.410254 0.862252 0.170565
O O9 0.500000 0.000000 0.173345
O O10 0.852155 0.500000 0.882317
O O11 0.744367 0.623254 0.860386
O O12 0.121929 0.500000 0.632245
#
# Coordination Sequence:
#
# PCOD9512589 Si02
#       5
#    16  32  16  32  32
#     4  12  24  38  58  81 108 148 193 240 293 347
#     4   9  18  34  57  84 113 149 193 236 285 346
#     4  10  20  36  56  79 108 143 186 231 281 340
#     4   9  19  36  58  84 117 153 189 236 289 342
#     4  10  21  38  58  83 116 151 190 238 291 347
#
# _framework density 20.204882999999999
#
# number of rings (size 3 to 8) (size 9 to 14) (size 15 to 20)
#    0.000    2.250    0.000    2.625    0.000    2.000 
#    0.000   12.500    0.000    3.750    0.000    0.000 
#    0.000    0.000    0.000    0.000    0.000    0.000 
#
# Total GULP energy -178210.326207 kJ/mol
# GULP energy per Si atom -5569.072694 kJ/mol
# Density = 2.015890 g / cm^3
# Si number density = 20.204883 Si / 1000 Ang^3
#
#
#
# Elastic Constant Matrix: (Units=GPa)
#
#
# Indices 1 2 3 4 5 6 
#
# 1 91.0043 48.1778 73.3564 0.0000 0.0000 0.0000
# 2 48.1778 139.5890 71.0185 0.0000 0.0000 0.0000
# 3 73.3564 71.0185 201.9766 0.0000 0.0000 0.0000
# 4 0.0000 0.0000 0.0000 23.4101 0.0000 0.0000
# 5 0.0000 0.0000 0.0000 0.0000 56.4405 0.0000
# 6 0.0000 0.0000 0.0000 0.0000 0.0000 58.2533
#
#
#
# Elastic Compliance Matrix: (Units=1/GPa)
#
#
# Indices 1 2 3 4 5 6 
#
# 1 0.016669 -0.003255 -0.004910 0.000000 0.000000 0.000000
# 2 -0.003255 0.009360 -0.002109 0.000000 0.000000 0.000000
# 3 -0.004910 -0.002109 0.007476 0.000000 0.000000 0.000000
# 4 0.000000 0.000000 0.000000 0.042717 0.000000 0.000000
# 5 0.000000 0.000000 0.000000 0.000000 0.017718 0.000000
# 6 0.000000 0.000000 0.000000 0.000000 0.000000 0.017166
#
#
# Mechanical properties :
#
#
# Convention : Reuss Voigt Hill
#
# Bulk Modulus (GPa) = 77.17425 90.85282 84.01353
# Shear Modulus (GPa) = 36.77189 43.62192 40.19691
#
# Velocity S-wave (km/s) = 4.27072 4.65152 4.46518
# Velocity P-wave (km/s) = 7.91186 8.59722 8.26165
#
# Compressibility (1/GPa) = 0.01295769
#
# Stress axis : x y z
#
# Youngs Moduli (GPa) = 59.99022 106.83260 133.76663
#
# Poissons Ratio (x) = 0.34779 0.65673
# Poissons Ratio (y) = 0.19530 0.28210
# Poissons Ratio (z) = 0.29452 0.22530
#
# Static dielectric constant tensor:
#      x y z
#    x 1.766950 0.000000 0.000000 
#    y 0.000000 2.148630 0.000000 
#    z 0.000000 0.000000 1.674340 
# 
# From -- ./inp_files/41632.got.cif
#   From: 2010.05.17/outbox.cif.g08.bks.cpg/sg69_21_cif.got.tgz:41632.got - 2010.06.03 19:29:58.
