data_PCOD9512240
_publ_section_title
;
Structure prediction by ZEFSAII (Michael W. Deem and Ramdas Pophale) SiO2 
 PCOD9512240
Probable space group: F M M M
;
_chemical_formula_sum "Si O2"
_cell_formula_units_Z 208
_cell_length_a 16.145214
_cell_length_b 19.684727
_cell_length_c 33.177781
_cell_angle_alpha 90.000000
_cell_angle_beta 90.000000
_cell_angle_gamma 90.000000
_cell_volume 10544.367602
_symmetry_space_group_name_H-M "F M M M"
_symmetry_group_IT_number 69
_symmetry_cell_setting 'orthorhombic'
loop_
_space_group_symop_operation_xyz
x,y,z
-x,-y,z
x,-y,-z
-x,y,-z
-x,-y,-z
x,y,-z
-x,y,z
x,-y,z
x,1/2+y,1/2+z
-x,1/2-y,1/2+z
x,1/2-y,1/2-z
-x,1/2+y,1/2-z
-x,1/2-y,1/2-z
x,1/2+y,1/2-z
-x,1/2+y,1/2+z
x,1/2-y,1/2+z
1/2+x,y,1/2+z
1/2-x,-y,1/2+z
1/2+x,-y,1/2-z
1/2-x,y,1/2-z
1/2-x,-y,1/2-z
1/2+x,y,1/2-z
1/2-x,y,1/2+z
1/2+x,-y,1/2+z
1/2+x,1/2+y,z
1/2-x,1/2-y,z
1/2+x,1/2-y,-z
1/2-x,1/2+y,-z
1/2-x,1/2-y,-z
1/2+x,1/2+y,-z
1/2-x,1/2+y,z
1/2+x,1/2-y,z
loop_
_atom_site_type_symbol
_atom_site_label
_atom_site_fract_x
_atom_site_fract_y
_atom_site_fract_z
Si Si1 0.398401 0.422263 0.194206
Si Si2 0.100469 0.323207 0.235075
Si Si3 0.325112 0.078042 0.920851
Si Si4 0.904138 0.669943 0.620744
Si Si5 0.600827 0.178852 0.859152
Si Si6 0.902873 0.077520 0.500000
Si Si7 0.863226 0.577343 0.451815
O O1 0.500000 0.423829 0.193775
O O2 0.370190 0.500000 0.193344
O O3 0.371963 0.381828 0.234269
O O4 0.369243 0.381273 0.154583
O O5 0.130845 0.250000 0.250000
O O6 0.118953 0.329525 0.188106
O O7 0.000000 0.322281 0.238015
O O8 0.348108 0.122832 0.883103
O O9 0.373885 0.109600 0.958791
O O10 0.231213 0.076851 0.936142
O O11 0.351986 0.000000 0.913943
O O12 0.871707 0.746438 0.625164
O O13 0.901631 0.634312 0.577141
O O14 0.000000 0.678000 0.632330
O O15 0.500000 0.171001 0.865017
O O16 0.000000 0.072603 0.500000
O O17 0.866863 0.000000 0.500000
O O18 0.867758 0.590512 0.500000
O O19 0.896041 0.500000 0.445242
#
# Coordination Sequence:
#
# PCOD9512240 Si02
#       7
#    32  32  32  32  32  16  32
#     4   9  16  27  48  78 107 138 180 224 264 315
#     4   9  15  28  49  73 108 146 174 213 270 323
#     4  10  20  36  55  79 109 141 184 228 269 328
#     4  10  20  35  54  81 113 143 182 228 273 324
#     4  10  20  33  53  82 115 148 179 220 275 325
#     4   9  16  30  54  77 101 137 176 221 271 315
#     4  10  21  39  60  78 104 144 184 227 280 331
#
# _framework density 19.726171000000001
#
# number of rings (size 3 to 8) (size 9 to 14) (size 15 to 20)
#    0.000    2.385    2.308    0.923    0.000    3.385 
#    1.385    3.077    0.000    0.923    0.000    3.231 
#    0.000    0.000    0.000    0.000    0.000    0.000 
#
# Total GULP energy -289878.193172 kJ/mol
# GULP energy per Si atom -5574.580638 kJ/mol
# Density = 1.968127 g / cm^3
# Si number density = 19.726171 Si / 1000 Ang^3
#
#
#
# Elastic Constant Matrix: (Units=GPa)
#
#
# Indices 1 2 3 4 5 6 
#
# 1 19.4131 7.9301 4.5840 0.0000 0.0000 0.0000
# 2 7.9301 135.9706 75.9215 0.0000 0.0000 0.0000
# 3 4.5840 75.9215 132.7099 0.0000 0.0000 0.0000
# 4 0.0000 0.0000 0.0000 38.3620 0.0000 0.0000
# 5 0.0000 0.0000 0.0000 0.0000 33.2858 0.0000
# 6 0.0000 0.0000 0.0000 0.0000 0.0000 5.6254
#
#
#
# Elastic Compliance Matrix: (Units=1/GPa)
#
#
# Indices 1 2 3 4 5 6 
#
# 1 0.052770 -0.003027 -0.000091 0.000000 0.000000 0.000000
# 2 -0.003027 0.010980 -0.006177 0.000000 0.000000 0.000000
# 3 -0.000091 -0.006177 0.011072 0.000000 0.000000 0.000000
# 4 0.000000 0.000000 0.000000 0.026067 0.000000 0.000000
# 5 0.000000 0.000000 0.000000 0.000000 0.030043 0.000000
# 6 0.000000 0.000000 0.000000 0.000000 0.000000 0.177764
#
#
# Mechanical properties :
#
#
# Convention : Reuss Voigt Hill
#
# Bulk Modulus (GPa) = 17.78345 51.66275 34.72310
# Shear Modulus (GPa) = 14.44963 28.76518 21.60740
#
# Velocity S-wave (km/s) = 2.70943 3.82281 3.31322
# Velocity P-wave (km/s) = 4.33852 6.76254 5.68132
#
# Compressibility (1/GPa) = 0.05623205
#
# Stress axis : x y z
#
# Youngs Moduli (GPa) = 18.95028 91.07380 90.31646
#
# Poissons Ratio (x) = 0.27565 0.00824
# Poissons Ratio (y) = 0.05736 0.55789
# Poissons Ratio (z) = 0.00173 0.56257
#
# Static dielectric constant tensor:
#      x y z
#    x 1.736020 0.000000 0.000000 
#    y 0.000000 1.691980 0.000000 
#    z 0.000000 0.000000 1.699070 
# 
# From -- ./inp_files/46504.got.cif
#   From: 2010.05.17/outbox.cif.g08.bks.cpg/sg69_24_cif.got.tgz:46504.got - 2010.06.03 19:29:58.
