data_PCOD9512503
_publ_section_title
;
Structure prediction by ZEFSAII (Michael W. Deem and Ramdas Pophale) SiO2 
 PCOD9512503
Probable space group: F M M M
;
_chemical_formula_sum "Si O2"
_cell_formula_units_Z 208
_cell_length_a 19.089925
_cell_length_b 20.788161
_cell_length_c 26.695937
_cell_angle_alpha 90.000000
_cell_angle_beta 90.000000
_cell_angle_gamma 90.000000
_cell_volume 10594.134019
_symmetry_space_group_name_H-M "F M M M"
_symmetry_group_IT_number 69
_symmetry_cell_setting 'orthorhombic'
loop_
_space_group_symop_operation_xyz
x,y,z
-x,-y,z
x,-y,-z
-x,y,-z
-x,-y,-z
x,y,-z
-x,y,z
x,-y,z
x,1/2+y,1/2+z
-x,1/2-y,1/2+z
x,1/2-y,1/2-z
-x,1/2+y,1/2-z
-x,1/2-y,1/2-z
x,1/2+y,1/2-z
-x,1/2+y,1/2+z
x,1/2-y,1/2+z
1/2+x,y,1/2+z
1/2-x,-y,1/2+z
1/2+x,-y,1/2-z
1/2-x,y,1/2-z
1/2-x,-y,1/2-z
1/2+x,y,1/2-z
1/2-x,y,1/2+z
1/2+x,-y,1/2+z
1/2+x,1/2+y,z
1/2-x,1/2-y,z
1/2+x,1/2-y,-z
1/2-x,1/2+y,-z
1/2-x,1/2-y,-z
1/2+x,1/2+y,-z
1/2-x,1/2+y,z
1/2+x,1/2-y,z
loop_
_atom_site_type_symbol
_atom_site_label
_atom_site_fract_x
_atom_site_fract_y
_atom_site_fract_z
Si Si1 0.580843 0.745957 0.441620
Si Si2 0.340576 0.129822 0.440884
Si Si3 0.223646 0.571401 0.892597
Si Si4 0.421552 0.126571 0.866134
Si Si5 0.688312 0.073247 0.709304
Si Si6 0.918950 0.000000 0.061004
Si Si7 0.918216 0.675012 0.751587
O O1 0.598140 0.730453 0.500000
O O2 0.500000 0.768812 0.441558
O O3 0.628199 0.803853 0.421238
O O4 0.584509 0.685157 0.405378
O O5 0.353582 0.131931 0.500000
O O6 0.258569 0.121647 0.430178
O O7 0.380443 0.065437 0.422187
O O8 0.232554 0.500000 0.913844
O O9 0.143586 0.581463 0.878201
O O10 0.271309 0.578521 0.843142
O O11 0.500000 0.098608 0.871347
O O12 0.414496 0.151913 0.809357
O O13 0.750000 0.080281 0.750000
O O14 0.630444 0.127475 0.719395
O O15 0.659583 0.000000 0.713717
O O16 0.000000 0.000000 0.076389
O O17 0.917016 0.000000 0.000000
O O18 0.896533 0.750000 0.750000
O O19 0.000000 0.671712 0.735702
#
# Coordination Sequence:
#
# PCOD9512503 Si02
#       7
#    32  32  32  32  32  16  32
#     4   9  19  37  59  84 117 153 191 236 284 342
#     4  10  20  35  56  84 118 156 190 232 288 342
#     4  11  23  39  59  85 118 152 191 242 291 340
#     4  10  22  40  61  85 111 149 197 240 290 346
#     4  10  21  40  61  84 116 155 195 237 286 345
#     4   9  16  30  54  82 110 149 197 231 271 339
#     4  10  22  40  61  88 119 150 190 244 294 341
#
# _framework density 19.633507000000002
#
# number of rings (size 3 to 8) (size 9 to 14) (size 15 to 20)
#    0.000    2.077    2.308    0.462    2.154    4.000 
#    0.000    3.846    0.000    0.000    0.000    3.231 
#    0.000    0.000    0.000    0.000    0.000    0.000 
#
# Total GULP energy -290115.827338 kJ/mol
# GULP energy per Si atom -5579.150526 kJ/mol
# Density = 1.958882 g / cm^3
# Si number density = 19.633507 Si / 1000 Ang^3
#
#
#
# Elastic Constant Matrix: (Units=GPa)
#
#
# Indices 1 2 3 4 5 6 
#
# 1 105.4155 50.4345 10.3985 0.0000 0.0000 0.0000
# 2 50.4345 76.5992 4.5566 0.0000 0.0000 0.0000
# 3 10.3985 4.5566 12.8466 0.0000 0.0000 0.0000
# 4 0.0000 0.0000 0.0000 14.8095 0.0000 0.0000
# 5 0.0000 0.0000 0.0000 0.0000 30.5281 0.0000
# 6 0.0000 0.0000 0.0000 0.0000 0.0000 33.1813
#
#
#
# Elastic Compliance Matrix: (Units=1/GPa)
#
#
# Indices 1 2 3 4 5 6 
#
# 1 0.014737 -0.009187 -0.008670 0.000000 0.000000 0.000000
# 2 -0.009187 0.019064 0.000675 0.000000 0.000000 0.000000
# 3 -0.008670 0.000675 0.084620 0.000000 0.000000 0.000000
# 4 0.000000 0.000000 0.000000 0.067524 0.000000 0.000000
# 5 0.000000 0.000000 0.000000 0.000000 0.032757 0.000000
# 6 0.000000 0.000000 0.000000 0.000000 0.000000 0.030137
#
#
# Mechanical properties :
#
#
# Convention : Reuss Voigt Hill
#
# Bulk Modulus (GPa) = 11.89689 36.18227 24.03958
# Shear Modulus (GPa) = 16.06564 24.33523 20.20044
#
# Velocity S-wave (km/s) = 2.86366 3.52444 3.21109
# Velocity P-wave (km/s) = 4.12392 5.91870 5.10087
#
# Compressibility (1/GPa) = 0.08405561
#
# Stress axis : x y z
#
# Youngs Moduli (GPa) = 67.85591 52.45476 11.81757
#
# Poissons Ratio (x) = 0.48193 0.10246
# Poissons Ratio (y) = 0.62342 -0.00797
# Poissons Ratio (z) = 0.58831 -0.03539
#
# Static dielectric constant tensor:
#      x y z
#    x 1.701770 0.000000 0.000000 
#    y 0.000000 1.673650 0.000000 
#    z 0.000000 0.000000 1.697590 
# 
# From -- ./inp_files/42036.got.cif
#   From: 2010.05.17/outbox.cif.g08.bks.cpg/sg69_22_cif.got.tgz:42036.got - 2010.06.03 19:29:58.
