data_PCOD9512636
_publ_section_title
;
Structure prediction by ZEFSAII (Michael W. Deem and Ramdas Pophale) SiO2 
 PCOD9512636
Probable space group: F M M M
;
_chemical_formula_sum "Si O2"
_cell_formula_units_Z 176
_cell_length_a 15.074803
_cell_length_b 30.354024
_cell_length_c 22.748078
_cell_angle_alpha 90.000000
_cell_angle_beta 90.000000
_cell_angle_gamma 90.000000
_cell_volume 10409.086734
_symmetry_space_group_name_H-M "F M M M"
_symmetry_group_IT_number 69
_symmetry_cell_setting 'orthorhombic'
loop_
_space_group_symop_operation_xyz
x,y,z
-x,-y,z
x,-y,-z
-x,y,-z
-x,-y,-z
x,y,-z
-x,y,z
x,-y,z
x,1/2+y,1/2+z
-x,1/2-y,1/2+z
x,1/2-y,1/2-z
-x,1/2+y,1/2-z
-x,1/2-y,1/2-z
x,1/2+y,1/2-z
-x,1/2+y,1/2+z
x,1/2-y,1/2+z
1/2+x,y,1/2+z
1/2-x,-y,1/2+z
1/2+x,-y,1/2-z
1/2-x,y,1/2-z
1/2-x,-y,1/2-z
1/2+x,y,1/2-z
1/2-x,y,1/2+z
1/2+x,-y,1/2+z
1/2+x,1/2+y,z
1/2-x,1/2-y,z
1/2+x,1/2-y,-z
1/2-x,1/2+y,-z
1/2-x,1/2-y,-z
1/2+x,1/2+y,-z
1/2-x,1/2+y,z
1/2+x,1/2-y,z
loop_
_atom_site_type_symbol
_atom_site_label
_atom_site_fract_x
_atom_site_fract_y
_atom_site_fract_z
Si Si1 0.104954 0.906441 0.620957
Si Si2 0.353784 0.855336 0.764336
Si Si3 0.402187 0.174190 0.357567
Si Si4 0.897726 0.223455 0.351277
Si Si5 0.892625 0.000000 0.568050
Si Si6 0.725049 0.169990 0.068819
O O1 0.120222 0.893007 0.689055
O O2 0.132351 0.955557 0.602413
O O3 0.163166 0.871887 0.584078
O O4 0.000000 0.901068 0.608396
O O5 0.250000 0.856651 0.750000
O O6 0.399329 0.855013 0.701130
O O7 0.376540 0.809670 0.797991
O O8 0.500000 0.170790 0.385302
O O9 0.390150 0.225125 0.337323
O O10 0.319550 0.164242 0.399352
O O11 0.828908 0.210281 0.401920
O O12 0.000000 0.215090 0.369135
O O13 0.861547 0.000000 0.500000
O O14 0.000000 0.000000 0.565895
O O15 0.735936 0.175788 0.000000
#
# Coordination Sequence:
#
# PCOD9512636 Si02
#       6
#    32  32  32  32  16  32
#     4  10  20  36  58  86 111 133 166 212 270 331
#     4  11  19  33  55  77 106 139 176 220 265 316
#     4  11  22  35  51  71 103 145 187 226 263 306
#     4  10  21  34  51  76 101 135 183 231 275 315
#     4   9  18  34  59  88 115 139 163 200 259 331
#     4  11  22  35  52  74 105 142 181 224 271 319
#
# _framework density 16.908303
#
# number of rings (size 3 to 8) (size 9 to 14) (size 15 to 20)
#    0.000    1.545    3.636    4.909    0.000    6.182 
#    0.000    2.273    0.000    0.000    0.000    0.636 
#    0.000    2.182    0.000    0.000    0.000    0.000 
#
# Total GULP energy -245482.701245 kJ/mol
# GULP energy per Si atom -5579.152301 kJ/mol
# Density = 1.686982 g / cm^3
# Si number density = 16.908303 Si / 1000 Ang^3
#
#
#
# Elastic Constant Matrix: (Units=GPa)
#
#
# Indices 1 2 3 4 5 6 
#
# 1 124.7038 26.9578 47.3328 0.0000 0.0000 0.0000
# 2 26.9578 72.2072 24.6481 0.0000 0.0000 0.0000
# 3 47.3328 24.6481 123.1896 0.0000 0.0000 0.0000
# 4 0.0000 0.0000 0.0000 13.5833 0.0000 0.0000
# 5 0.0000 0.0000 0.0000 0.0000 8.5531 0.0000
# 6 0.0000 0.0000 0.0000 0.0000 0.0000 8.4327
#
#
#
# Elastic Compliance Matrix: (Units=1/GPa)
#
#
# Indices 1 2 3 4 5 6 
#
# 1 0.009807 -0.002549 -0.003258 0.000000 0.000000 0.000000
# 2 -0.002549 0.015527 -0.002127 0.000000 0.000000 0.000000
# 3 -0.003258 -0.002127 0.009795 0.000000 0.000000 0.000000
# 4 0.000000 0.000000 0.000000 0.073620 0.000000 0.000000
# 5 0.000000 0.000000 0.000000 0.000000 0.116916 0.000000
# 6 0.000000 0.000000 0.000000 0.000000 0.000000 0.118586
#
#
# Mechanical properties :
#
#
# Convention : Reuss Voigt Hill
#
# Bulk Modulus (GPa) = 51.92127 57.55312 54.73719
# Shear Modulus (GPa) = 13.64114 20.85797 17.24955
#
# Velocity S-wave (km/s) = 2.84345 3.51607 3.19749
# Velocity P-wave (km/s) = 6.44628 7.11308 6.78787
#
# Compressibility (1/GPa) = 0.01925993
#
# Stress axis : x y z
#
# Youngs Moduli (GPa) = 101.97173 64.40463 102.09309
#
# Poissons Ratio (x) = 0.16417 0.33261
# Poissons Ratio (y) = 0.25994 0.21718
# Poissons Ratio (z) = 0.33222 0.13700
#
# Static dielectric constant tensor:
#      x y z
#    x 1.590210 0.000000 0.000000 
#    y 0.000000 1.571050 0.000000 
#    z 0.000000 0.000000 1.573030 
# 
# From -- ./inp_files/36180.got.cif
#   From: 2010.05.17/outbox.cif.g08.bks.cpg/sg69_19_cif.got.tgz:36180.got - 2010.06.03 19:29:58.
