data_PCOD9512607
_publ_section_title
;
Structure prediction by ZEFSAII (Michael W. Deem and Ramdas Pophale) SiO2 
 PCOD9512607
Probable space group: F M M M
;
_chemical_formula_sum "Si O2"
_cell_formula_units_Z 208
_cell_length_a 15.665298
_cell_length_b 24.399862
_cell_length_c 27.595753
_cell_angle_alpha 90.000000
_cell_angle_beta 90.000000
_cell_angle_gamma 90.000000
_cell_volume 10547.955284
_symmetry_space_group_name_H-M "F M M M"
_symmetry_group_IT_number 69
_symmetry_cell_setting 'orthorhombic'
loop_
_space_group_symop_operation_xyz
x,y,z
-x,-y,z
x,-y,-z
-x,y,-z
-x,-y,-z
x,y,-z
-x,y,z
x,-y,z
x,1/2+y,1/2+z
-x,1/2-y,1/2+z
x,1/2-y,1/2-z
-x,1/2+y,1/2-z
-x,1/2-y,1/2-z
x,1/2+y,1/2-z
-x,1/2+y,1/2+z
x,1/2-y,1/2+z
1/2+x,y,1/2+z
1/2-x,-y,1/2+z
1/2+x,-y,1/2-z
1/2-x,y,1/2-z
1/2-x,-y,1/2-z
1/2+x,y,1/2-z
1/2-x,y,1/2+z
1/2+x,-y,1/2+z
1/2+x,1/2+y,z
1/2-x,1/2-y,z
1/2+x,1/2-y,-z
1/2-x,1/2+y,-z
1/2-x,1/2-y,-z
1/2+x,1/2+y,-z
1/2-x,1/2+y,z
1/2+x,1/2-y,z
loop_
_atom_site_type_symbol
_atom_site_label
_atom_site_fract_x
_atom_site_fract_y
_atom_site_fract_z
Si Si1 0.158155 0.220483 0.358949
Si Si2 0.348760 0.110176 0.557005
Si Si3 0.850006 0.642190 0.943462
Si Si4 0.235497 0.620625 0.807200
Si Si5 0.500000 0.061479 0.941116
Si Si6 0.398691 0.000000 0.385389
Si Si7 0.907858 0.834134 0.146350
Si Si8 0.749563 0.500000 0.308795
O O1 0.250000 0.250000 0.363171
O O2 0.135067 0.194945 0.410514
O O3 0.171479 0.168148 0.324325
O O4 0.098705 0.269771 0.342177
O O5 0.369318 0.109990 0.500000
O O6 0.247315 0.121547 0.562260
O O7 0.374353 0.053167 0.582485
O O8 0.395499 0.156444 0.588810
O O9 0.915958 0.595327 0.927907
O O10 0.863708 0.654118 0.000000
O O11 0.250000 0.622805 0.750000
O O12 0.327645 0.634973 0.830338
O O13 0.209500 0.558958 0.822157
O O14 0.500000 0.000000 0.921975
O O15 0.500000 0.058410 0.000000
O O16 0.500000 0.000000 0.375632
O O17 0.341072 0.000000 0.336623
O O18 0.000000 0.856275 0.161256
O O19 0.750000 0.500000 0.250000
#
# Coordination Sequence:
#
# PCOD9512607 Si02
#       8
#    32  32  32  32  16  16  32  16
#     4  10  20  38  57  86 119 160 205 253 304 372
#     4  11  23  38  59  91 129 174 217 256 309 379
#     4  10  20  36  57  84 119 158 209 257 307 361
#     4  10  21  41  65  89 118 155 206 259 318 385
#     4   9  20  36  56  82 114 157 206 259 305 356
#     4  12  23  38  62  94 133 173 211 260 321 384
#     4  11  23  39  61  90 127 168 208 255 309 370
#     4  10  20  37  67  98 116 159 208 257 322 387
#
# _framework density 19.719460999999999
#
# number of rings (size 3 to 8) (size 9 to 14) (size 15 to 20)
#    0.000    1.615    4.615    0.692    2.154    5.231 
#    1.385    1.538    0.000    0.923    2.000    0.000 
#    0.000    0.000    0.000    0.000    0.000    0.000 
#
# Total GULP energy -290087.604687 kJ/mol
# GULP energy per Si atom -5578.607782 kJ/mol
# Density = 1.967458 g / cm^3
# Si number density = 19.719461 Si / 1000 Ang^3
#
#
#
# Elastic Constant Matrix: (Units=GPa)
#
#
# Indices 1 2 3 4 5 6 
#
# 1 42.4706 2.9286 12.6477 0.0000 0.0000 0.0000
# 2 2.9286 138.1920 25.1036 0.0000 0.0000 0.0000
# 3 12.6477 25.1036 87.9080 0.0000 0.0000 0.0000
# 4 0.0000 0.0000 0.0000 24.3349 0.0000 0.0000
# 5 0.0000 0.0000 0.0000 0.0000 5.3130 0.0000
# 6 0.0000 0.0000 0.0000 0.0000 0.0000 0.3744
#
#
#
# Elastic Compliance Matrix: (Units=1/GPa)
#
#
# Indices 1 2 3 4 5 6 
#
# 1 0.024602 0.000128 -0.003576 0.000000 0.000000 0.000000
# 2 0.000128 0.007633 -0.002198 0.000000 0.000000 0.000000
# 3 -0.003576 -0.002198 0.012518 0.000000 0.000000 0.000000
# 4 0.000000 0.000000 0.000000 0.041093 0.000000 0.000000
# 5 0.000000 0.000000 0.000000 0.000000 0.188216 0.000000
# 6 0.000000 0.000000 0.000000 0.000000 0.000000 2.670682
#
#
# Mechanical properties :
#
#
# Convention : Reuss Voigt Hill
#
# Bulk Modulus (GPa) = 29.88611 38.88117 34.38364
# Shear Modulus (GPa) = 1.68510 21.19717 11.44114
#
# Velocity S-wave (km/s) = 0.92541 3.28218 2.41134
# Velocity P-wave (km/s) = 4.04109 5.84154 5.02265
#
# Compressibility (1/GPa) = 0.03346036
#
# Stress axis : x y z
#
# Youngs Moduli (GPa) = 40.64731 131.01174 79.88635
#
# Poissons Ratio (x) = -0.01681 0.28569
# Poissons Ratio (y) = -0.00521 0.17560
# Poissons Ratio (z) = 0.14536 0.28799
#
# Static dielectric constant tensor:
#      x y z
#    x 1.687430 0.000000 0.000000 
#    y 0.000000 1.720080 0.000000 
#    z 0.000000 0.000000 1.702430 
# 
# From -- ./inp_files/42164.got.cif
#   From: 2010.05.17/outbox.cif.g08.bks.cpg/sg69_22_cif.got.tgz:42164.got - 2010.06.03 19:29:58.
