data_PCOD9512412
_publ_section_title
;
Structure prediction by ZEFSAII (Michael W. Deem and Ramdas Pophale) SiO2 
 PCOD9512412
Probable space group: F M M M
;
_chemical_formula_sum "Si O2"
_cell_formula_units_Z 136
_cell_length_a 20.453716
_cell_length_b 21.175944
_cell_length_c 17.917007
_cell_angle_alpha 90.000000
_cell_angle_beta 90.000000
_cell_angle_gamma 90.000000
_cell_volume 7760.334915
_symmetry_space_group_name_H-M "F M M M"
_symmetry_group_IT_number 69
_symmetry_cell_setting 'orthorhombic'
loop_
_space_group_symop_operation_xyz
x,y,z
-x,-y,z
x,-y,-z
-x,y,-z
-x,-y,-z
x,y,-z
-x,y,z
x,-y,z
x,1/2+y,1/2+z
-x,1/2-y,1/2+z
x,1/2-y,1/2-z
-x,1/2+y,1/2-z
-x,1/2-y,1/2-z
x,1/2+y,1/2-z
-x,1/2+y,1/2+z
x,1/2-y,1/2+z
1/2+x,y,1/2+z
1/2-x,-y,1/2+z
1/2+x,-y,1/2-z
1/2-x,y,1/2-z
1/2-x,-y,1/2-z
1/2+x,y,1/2-z
1/2-x,y,1/2+z
1/2+x,-y,1/2+z
1/2+x,1/2+y,z
1/2-x,1/2-y,z
1/2+x,1/2-y,-z
1/2-x,1/2+y,-z
1/2-x,1/2-y,-z
1/2+x,1/2+y,-z
1/2-x,1/2+y,z
1/2+x,1/2-y,z
loop_
_atom_site_type_symbol
_atom_site_label
_atom_site_fract_x
_atom_site_fract_y
_atom_site_fract_z
Si Si1 0.310807 0.798266 0.914172
Si Si2 0.076400 0.500000 0.771316
Si Si3 0.500000 0.639589 0.915070
Si Si4 0.000000 0.500000 0.373858
Si Si5 0.105408 0.792135 0.183456
Si Si6 0.317676 0.891060 0.217765
O O1 0.250000 0.750000 0.911498
O O2 0.367478 0.757843 0.875688
O O3 0.302085 0.858774 0.861581
O O4 0.323291 0.814706 0.000000
O O5 0.121584 0.439415 0.789185
O O6 0.000000 0.500000 0.801716
O O7 0.061724 0.500000 0.682733
O O8 0.500000 0.564332 0.917984
O O9 0.560156 0.662424 0.864536
O O10 0.500000 0.664695 0.000000
O O11 0.074658 0.750000 0.250000
O O12 0.159677 0.834648 0.225965
O O13 0.250000 0.918966 0.250000
#
# Coordination Sequence:
#
# PCOD9512412 Si02
#       6
#    32  16  16   8  32  32
#     4  10  20  35  56  85 121 150 182 239 303 347
#     4  10  21  40  63  81 113 151 201 247 289 329
#     4  12  22  37  55  82 119 154 196 244 300 354
#     4  10  21  38  54  80 105 162 186 238 295 346
#     4  10  20  34  58  83 115 151 196 235 289 353
#     4  11  20  36  62  87 110 151 204 236 281 353
#
# _framework density 17.525016999999998
#
# number of rings (size 3 to 8) (size 9 to 14) (size 15 to 20)
#    0.353    1.176    4.706    1.588    0.000    0.000 
#    2.118    0.588    0.000    0.706    0.000    0.000 
#    0.000    0.000    0.000    0.000    0.000    0.000 
#
# Total GULP energy -189284.388680 kJ/mol
# GULP energy per Si atom -5567.187902 kJ/mol
# Density = 1.748513 g / cm^3
# Si number density = 17.525017 Si / 1000 Ang^3
#
#
#
# Elastic Constant Matrix: (Units=GPa)
#
#
# Indices 1 2 3 4 5 6 
#
# 1 87.1536 33.7761 45.7751 0.0000 0.0000 0.0000
# 2 33.7761 83.6451 44.4358 0.0000 0.0000 0.0000
# 3 45.7751 44.4358 154.5041 0.0000 0.0000 0.0000
# 4 0.0000 0.0000 0.0000 -7.5237 0.0000 0.0000
# 5 0.0000 0.0000 0.0000 0.0000 27.0947 0.0000
# 6 0.0000 0.0000 0.0000 0.0000 0.0000 7.7027
#
#
#
# Elastic Compliance Matrix: (Units=1/GPa)
#
#
# Indices 1 2 3 4 5 6 
#
# 1 0.014794 -0.004303 -0.003145 0.000000 0.000000 0.000000
# 2 -0.004303 0.015363 -0.003144 0.000000 0.000000 0.000000
# 3 -0.003145 -0.003144 0.008308 0.000000 0.000000 0.000000
# 4 0.000000 0.000000 0.000000 -0.132914 0.000000 0.000000
# 5 0.000000 0.000000 0.000000 0.000000 0.036908 0.000000
# 6 0.000000 0.000000 0.000000 0.000000 0.000000 0.129825
#
#
# Mechanical properties :
#
#
# Convention : Reuss Voigt Hill
#
# Bulk Modulus (GPa) = 57.86653 63.69743 60.78198
# Shear Modulus (GPa) = 50.38950 18.87579 34.63265
#
# Velocity S-wave (km/s) = 5.36799 3.28545 4.45025
# Velocity P-wave (km/s) = 8.45645 7.12865 7.82078
#
# Compressibility (1/GPa) = 0.01728115
#
# Stress axis : x y z
#
# Youngs Moduli (GPa) = 67.59711 65.09264 120.36116
#
# Poissons Ratio (x) = 0.28007 0.37859
# Poissons Ratio (y) = 0.29085 0.37837
# Poissons Ratio (z) = 0.21262 0.20463
#
# Static dielectric constant tensor:
#      x y z
#    x 1.645120 0.000000 0.000000 
#    y 0.000000 1.600390 0.000000 
#    z 0.000000 0.000000 1.577430 
# 
# From -- ./inp_files/22611.got.cif
#   From: 2010.05.17/outbox.cif.g08.bks.cpg/sg69_12_cif.got.tgz:22611.got - 2010.06.03 19:29:58.
