data_PCOD9512189
_publ_section_title
;
Structure prediction by ZEFSAII (Michael W. Deem and Ramdas Pophale) SiO2 
 PCOD9512189
Probable space group: F M M M
;
_chemical_formula_sum "Si O2"
_cell_formula_units_Z 160
_cell_length_a 15.386517
_cell_length_b 33.385941
_cell_length_c 18.195396
_cell_angle_alpha 90.000000
_cell_angle_beta 90.000000
_cell_angle_gamma 90.000000
_cell_volume 9346.853903
_symmetry_space_group_name_H-M "F M M M"
_symmetry_group_IT_number 69
_symmetry_cell_setting 'orthorhombic'
loop_
_space_group_symop_operation_xyz
x,y,z
-x,-y,z
x,-y,-z
-x,y,-z
-x,-y,-z
x,y,-z
-x,y,z
x,-y,z
x,1/2+y,1/2+z
-x,1/2-y,1/2+z
x,1/2-y,1/2-z
-x,1/2+y,1/2-z
-x,1/2-y,1/2-z
x,1/2+y,1/2-z
-x,1/2+y,1/2+z
x,1/2-y,1/2+z
1/2+x,y,1/2+z
1/2-x,-y,1/2+z
1/2+x,-y,1/2-z
1/2-x,y,1/2-z
1/2-x,-y,1/2-z
1/2+x,y,1/2-z
1/2-x,y,1/2+z
1/2+x,-y,1/2+z
1/2+x,1/2+y,z
1/2-x,1/2-y,z
1/2+x,1/2-y,-z
1/2-x,1/2+y,-z
1/2-x,1/2-y,-z
1/2+x,1/2+y,-z
1/2-x,1/2+y,z
1/2+x,1/2-y,z
loop_
_atom_site_type_symbol
_atom_site_label
_atom_site_fract_x
_atom_site_fract_y
_atom_site_fract_z
Si Si1 0.000000 0.297764 0.231155
Si Si2 0.338281 0.154032 0.297404
Si Si3 0.339701 0.062565 0.703987
Si Si4 0.772321 0.000000 0.089719
Si Si5 0.319077 0.781953 0.585486
Si Si6 0.000000 0.235282 0.582265
Si Si7 0.405894 0.500000 0.316870
O O1 0.000000 0.250000 0.250000
O O2 0.914656 0.319725 0.261048
O O3 0.000000 0.298538 0.143244
O O4 0.250000 0.154765 0.250000
O O5 0.367270 0.108186 0.308090
O O6 0.316820 0.176479 0.372800
O O7 0.250000 0.063780 0.750000
O O8 0.398298 0.037335 0.760370
O O9 0.320218 0.038021 0.628990
O O10 0.674510 0.000000 0.125497
O O11 0.773129 0.000000 0.000000
O O12 0.298451 0.787684 0.500000
O O13 0.250000 0.750000 0.616923
O O14 0.414421 0.762441 0.591275
O O15 0.000000 0.218942 0.500000
O O16 0.500000 0.500000 0.353663
#
# Coordination Sequence:
#
# PCOD9512189 Si02
#       7
#    16  32  32  16  32  16  16
#     4  12  22  34  54  83 101 140 196 234 276 322
#     4  11  22  34  55  79 111 138 185 241 274 321
#     4   8  18  35  51  80 106 146 181 215 273 331
#     4   9  17  34  60  84 115 145 180 224 274 344
#     4  10  20  33  50  72 100 140 180 220 280 336
#     4  10  20  36  50  68 104 137 173 228 283 324
#     4   9  17  32  58  80 113 143 182 218 276 341
#
# _framework density 17.11806
#
# number of rings (size 3 to 8) (size 9 to 14) (size 15 to 20)
#    0.000    2.200    2.000    2.400    1.400    1.000 
#    0.000    0.000    0.000    9.600    0.000    0.000 
#    0.000    0.000    0.000    0.000    0.000    0.000 
#
# Total GULP energy -222848.435871 kJ/mol
# GULP energy per Si atom -5571.210897 kJ/mol
# Density = 1.707910 g / cm^3
# Si number density = 17.118060 Si / 1000 Ang^3
#
#
#
# Elastic Constant Matrix: (Units=GPa)
#
#
# Indices 1 2 3 4 5 6 
#
# 1 75.0135 31.4018 11.0795 0.0000 0.0000 0.0000
# 2 31.4018 142.4226 50.5819 0.0000 0.0000 0.0000
# 3 11.0795 50.5819 112.0122 0.0000 0.0000 0.0000
# 4 0.0000 0.0000 0.0000 14.0265 0.0000 0.0000
# 5 0.0000 0.0000 0.0000 0.0000 319.3174 0.0000
# 6 0.0000 0.0000 0.0000 0.0000 0.0000 9.0379
#
#
#
# Elastic Compliance Matrix: (Units=1/GPa)
#
#
# Indices 1 2 3 4 5 6 
#
# 1 0.014686 -0.003242 0.000011 0.000000 0.000000 0.000000
# 2 -0.003242 0.009078 -0.003779 0.000000 0.000000 0.000000
# 3 0.000011 -0.003779 0.010633 0.000000 0.000000 0.000000
# 4 0.000000 0.000000 0.000000 0.071294 0.000000 0.000000
# 5 0.000000 0.000000 0.000000 0.000000 0.003132 0.000000
# 6 0.000000 0.000000 0.000000 0.000000 0.000000 0.110645
#
#
# Mechanical properties :
#
#
# Convention : Reuss Voigt Hill
#
# Bulk Modulus (GPa) = 49.07149 57.28609 53.17879
# Shear Modulus (GPa) = 20.80902 84.23535 52.52219
#
# Velocity S-wave (km/s) = 3.49035 7.02249 5.54517
# Velocity P-wave (km/s) = 6.70613 9.96452 8.49305
#
# Compressibility (1/GPa) = 0.02037843
#
# Stress axis : x y z
#
# Youngs Moduli (GPa) = 68.08984 110.15323 94.04780
#
# Poissons Ratio (x) = 0.35713 -0.00107
# Poissons Ratio (y) = 0.22076 0.35539
# Poissons Ratio (z) = -0.00078 0.41625
#
# Static dielectric constant tensor:
#      x y z
#    x 1.604890 0.000000 0.000000 
#    y 0.000000 1.582620 0.000000 
#    z 0.000000 0.000000 1.586400 
# 
# From -- ./inp_files/21922.got.cif
#   From: 2010.05.17/outbox.cif.g08.bks.cpg/sg69_11_cif.got.tgz:21922.got - 2010.06.03 19:29:58.
