data_PCOD9512475
_publ_section_title
;
Structure prediction by ZEFSAII (Michael W. Deem and Ramdas Pophale) SiO2 
 PCOD9512475
Probable space group: F M M M
;
_chemical_formula_sum "Si O2"
_cell_formula_units_Z 168
_cell_length_a 15.281742
_cell_length_b 31.263158
_cell_length_c 20.619784
_cell_angle_alpha 90.000000
_cell_angle_beta 90.000000
_cell_angle_gamma 90.000000
_cell_volume 9851.215517
_symmetry_space_group_name_H-M "F M M M"
_symmetry_group_IT_number 69
_symmetry_cell_setting 'orthorhombic'
loop_
_space_group_symop_operation_xyz
x,y,z
-x,-y,z
x,-y,-z
-x,y,-z
-x,-y,-z
x,y,-z
-x,y,z
x,-y,z
x,1/2+y,1/2+z
-x,1/2-y,1/2+z
x,1/2-y,1/2-z
-x,1/2+y,1/2-z
-x,1/2-y,1/2-z
x,1/2+y,1/2-z
-x,1/2+y,1/2+z
x,1/2-y,1/2+z
1/2+x,y,1/2+z
1/2-x,-y,1/2+z
1/2+x,-y,1/2-z
1/2-x,y,1/2-z
1/2-x,-y,1/2-z
1/2+x,y,1/2-z
1/2-x,y,1/2+z
1/2+x,-y,1/2+z
1/2+x,1/2+y,z
1/2-x,1/2-y,z
1/2+x,1/2-y,-z
1/2-x,1/2+y,-z
1/2-x,1/2-y,-z
1/2+x,1/2+y,-z
1/2-x,1/2+y,z
1/2+x,1/2-y,z
loop_
_atom_site_type_symbol
_atom_site_label
_atom_site_fract_x
_atom_site_fract_y
_atom_site_fract_z
Si Si1 0.000000 0.359239 0.500000
Si Si2 0.645873 0.656357 0.111517
Si Si3 0.605464 0.748490 0.075479
Si Si4 0.648438 0.112981 0.749064
Si Si5 0.653792 0.843899 0.885355
Si Si6 0.000000 0.449679 0.206409
Si Si7 0.000000 0.595287 0.070862
O O1 0.923189 0.357127 0.556955
O O2 0.640857 0.708032 0.114678
O O3 0.626538 0.635228 0.181007
O O4 0.746682 0.645204 0.095928
O O5 0.500000 0.746783 0.077504
O O6 0.635946 0.794517 0.099280
O O7 0.631268 0.742751 0.000000
O O8 0.750000 0.099356 0.750000
O O9 0.640192 0.146009 0.809099
O O10 0.584165 0.073836 0.763236
O O11 0.583864 0.873759 0.921237
O O12 0.000000 0.500000 0.216812
O O13 0.000000 0.437696 0.130121
O O14 0.000000 0.575200 0.000000
#
# Coordination Sequence:
#
# PCOD9512475 Si02
#       7
#     8  32  32  32  32  16  16
#     4  12  22  34  48  82 105 146 194 238 275 316
#     4  11  21  36  53  74 113 149 194 235 272 319
#     4  11  20  32  47  76 112 151 195 236 270 314
#     4   9  21  40  58  83 110 143 185 227 277 334
#     4  10  21  34  55  78 108 152 191 233 273 314
#     4  10  21  38  62  88 110 136 171 219 281 343
#     4  10  20  35  55  84 113 140 177 219 271 338
#
# _framework density 17.053733000000001
#
# number of rings (size 3 to 8) (size 9 to 14) (size 15 to 20)
#    0.000    1.714    2.857    1.714    2.667    2.095 
#    0.000    3.810    0.000    0.000    0.000    5.333 
#    0.000    0.000    0.000    0.000    0.000    0.000 
#
# Total GULP energy -233891.095229 kJ/mol
# GULP energy per Si atom -5568.835601 kJ/mol
# Density = 1.701492 g / cm^3
# Si number density = 17.053733 Si / 1000 Ang^3
#
#
#
# Elastic Constant Matrix: (Units=GPa)
#
#
# Indices 1 2 3 4 5 6 
#
# 1 82.3347 41.1059 44.4011 0.0000 0.0000 0.0000
# 2 41.1059 104.5344 56.0343 0.0000 0.0000 0.0000
# 3 44.4011 56.0343 106.5613 0.0000 0.0000 0.0000
# 4 0.0000 0.0000 0.0000 3.3206 0.0000 0.0000
# 5 0.0000 0.0000 0.0000 0.0000 29.3071 0.0000
# 6 0.0000 0.0000 0.0000 0.0000 0.0000 6.6258
#
#
#
# Elastic Compliance Matrix: (Units=1/GPa)
#
#
# Indices 1 2 3 4 5 6 
#
# 1 0.016769 -0.003967 -0.004901 0.000000 0.000000 0.000000
# 2 -0.003967 0.014259 -0.005845 0.000000 0.000000 0.000000
# 3 -0.004901 -0.005845 0.014500 0.000000 0.000000 0.000000
# 4 0.000000 0.000000 0.000000 0.301147 0.000000 0.000000
# 5 0.000000 0.000000 0.000000 0.000000 0.034121 0.000000
# 6 0.000000 0.000000 0.000000 0.000000 0.000000 0.150925
#
#
# Mechanical properties :
#
#
# Convention : Reuss Voigt Hill
#
# Bulk Modulus (GPa) = 62.10459 64.05699 63.08079
# Shear Modulus (GPa) = 8.82587 17.97664 13.40125
#
# Velocity S-wave (km/s) = 2.27740 3.25024 2.80630
# Velocity P-wave (km/s) = 6.58874 7.19227 6.89711
#
# Compressibility (1/GPa) = 0.01610187
#
# Stress axis : x y z
#
# Youngs Moduli (GPa) = 59.63322 70.12912 68.96447
#
# Poissons Ratio (x) = 0.27819 0.33802
# Poissons Ratio (y) = 0.23656 0.40312
# Poissons Ratio (z) = 0.29228 0.40993
#
# Static dielectric constant tensor:
#      x y z
#    x 1.604700 0.000000 0.000000 
#    y 0.000000 1.532850 0.000000 
#    z 0.000000 0.000000 1.579340 
# 
# From -- ./inp_files/30160.got.cif
#   From: 2010.05.17/outbox.cif.g08.bks.cpg/sg69_16_cif.got.tgz:30160.got - 2010.06.03 19:29:58.
