data_PCOD9512597
_publ_section_title
;
Structure prediction by ZEFSAII (Michael W. Deem and Ramdas Pophale) SiO2 
 PCOD9512597
Probable space group: F M M M
;
_chemical_formula_sum "Si O2"
_cell_formula_units_Z 232
_cell_length_a 28.866850
_cell_length_b 28.050900
_cell_length_c 15.431600
_cell_angle_alpha 90.000000
_cell_angle_beta 90.000000
_cell_angle_gamma 90.000000
_cell_volume 12495.601109
_symmetry_space_group_name_H-M "F M M M"
_symmetry_group_IT_number 69
_symmetry_cell_setting 'orthorhombic'
loop_
_space_group_symop_operation_xyz
x,y,z
-x,-y,z
x,-y,-z
-x,y,-z
-x,-y,-z
x,y,-z
-x,y,z
x,-y,z
x,1/2+y,1/2+z
-x,1/2-y,1/2+z
x,1/2-y,1/2-z
-x,1/2+y,1/2-z
-x,1/2-y,1/2-z
x,1/2+y,1/2-z
-x,1/2+y,1/2+z
x,1/2-y,1/2+z
1/2+x,y,1/2+z
1/2-x,-y,1/2+z
1/2+x,-y,1/2-z
1/2-x,y,1/2-z
1/2-x,-y,1/2-z
1/2+x,y,1/2-z
1/2-x,y,1/2+z
1/2+x,-y,1/2+z
1/2+x,1/2+y,z
1/2-x,1/2-y,z
1/2+x,1/2-y,-z
1/2-x,1/2+y,-z
1/2-x,1/2-y,-z
1/2+x,1/2+y,-z
1/2-x,1/2+y,z
1/2+x,1/2-y,z
loop_
_atom_site_type_symbol
_atom_site_label
_atom_site_fract_x
_atom_site_fract_y
_atom_site_fract_z
Si Si1 0.946335 0.870608 0.396204
Si Si2 0.947644 0.240382 0.647504
Si Si3 0.314593 0.323482 0.597334
Si Si4 0.156381 0.000000 0.500000
Si Si5 0.795627 0.449007 0.689079
Si Si6 0.221639 0.154141 0.159172
Si Si7 0.647836 0.723235 0.898359
Si Si8 0.643062 0.422103 0.345148
O O1 0.940900 0.875433 0.500000
O O2 0.936986 0.815334 0.371957
O O3 0.910500 0.906506 0.351531
O O4 0.000000 0.880342 0.374487
O O5 0.947521 0.250000 0.750000
O O6 0.907398 0.273155 0.609169
O O7 0.000000 0.249153 0.614796
O O8 0.333634 0.326561 0.500000
O O9 0.259196 0.322456 0.596408
O O10 0.333490 0.274347 0.634762
O O11 0.329937 0.372073 0.642744
O O12 0.154846 0.041788 0.576927
O O13 0.798123 0.500000 0.642556
O O14 0.750000 0.450617 0.750000
O O15 0.788913 0.400662 0.636139
O O16 0.838760 0.442769 0.754450
O O17 0.250000 0.156439 0.250000
O O18 0.174141 0.182999 0.155562
O O19 0.660015 0.717863 0.000000
#
# Coordination Sequence:
#
# PCOD9512597 Si02
#       8
#    32  32  32   8  32  32  32  32
#     4  10  20  36  57  79 111 150 183 224 280 337
#     4  10  22  36  55  84 112 146 193 234 277 338
#     4  11  21  36  53  76 114 149 187 226 276 332
#     4  12  24  32  59  84 110 148 190 236 275 336
#     4  10  21  37  56  76 105 141 188 233 279 327
#     4  11  23  37  54  83 108 152 189 237 277 331
#     4  11  24  38  57  82 117 155 187 231 281 343
#     4  12  20  36  53  81 108 143 189 228 275 330
#
# _framework density 18.566534000000001
#
# number of rings (size 3 to 8) (size 9 to 14) (size 15 to 20)
#    0.000    1.241    6.207    1.241    3.862    2.483 
#    0.000    0.690    0.000    1.241    0.000    0.000 
#    0.000    0.000    0.000    1.241    0.000    0.000 
#
# Total GULP energy -323120.660001 kJ/mol
# GULP energy per Si atom -5571.045862 kJ/mol
# Density = 1.852428 g / cm^3
# Si number density = 18.566534 Si / 1000 Ang^3
#
#
#
# Elastic Constant Matrix: (Units=GPa)
#
#
# Indices 1 2 3 4 5 6 
#
# 1 108.9331 38.1754 10.3150 0.0000 0.0000 0.0000
# 2 38.1754 108.6330 3.1433 0.0000 0.0000 0.0000
# 3 10.3150 3.1433 28.0797 0.0000 0.0000 0.0000
# 4 0.0000 0.0000 0.0000 -26.8426 0.0000 0.0000
# 5 0.0000 0.0000 0.0000 0.0000 18.4893 0.0000
# 6 0.0000 0.0000 0.0000 0.0000 0.0000 -44.9942
#
#
#
# Elastic Compliance Matrix: (Units=1/GPa)
#
#
# Indices 1 2 3 4 5 6 
#
# 1 0.010812 -0.003697 -0.003558 0.000000 0.000000 0.000000
# 2 -0.003697 0.010499 0.000183 0.000000 0.000000 0.000000
# 3 -0.003558 0.000183 0.036900 0.000000 0.000000 0.000000
# 4 0.000000 0.000000 0.000000 -0.037254 0.000000 0.000000
# 5 0.000000 0.000000 0.000000 0.000000 0.054085 0.000000
# 6 0.000000 0.000000 0.000000 0.000000 0.000000 -0.022225
#
#
# Mechanical properties :
#
#
# Convention : Reuss Voigt Hill
#
# Bulk Modulus (GPa) = 22.69281 38.76814 30.73047
# Shear Modulus (GPa) = 61.23679 2.26463 31.75071
#
# Velocity S-wave (km/s) = 5.74926 1.10562 4.13983
# Velocity P-wave (km/s) = 7.50472 4.74930 6.28000
#
# Compressibility (1/GPa) = 0.04406683
#
# Stress axis : x y z
#
# Youngs Moduli (GPa) = 92.48669 95.24632 27.10060
#
# Poissons Ratio (x) = 0.35210 0.09643
# Poissons Ratio (y) = 0.34189 -0.00495
# Poissons Ratio (z) = 0.32908 -0.01740
#
# Static dielectric constant tensor:
#      x y z
#    x 1.687950 0.000000 0.000000 
#    y 0.000000 1.651420 0.000000 
#    z 0.000000 0.000000 2.147410 
# 
# From -- ./inp_files/28111.got.cif
#   From: 2010.05.17/outbox.cif.g08.bks.cpg/sg69_15_cif.got.tgz:28111.got - 2010.06.03 19:29:58.
