data_PCOD9512459
_publ_section_title
;
Structure prediction by ZEFSAII (Michael W. Deem and Ramdas Pophale) SiO2 
 PCOD9512459
Probable space group: F M M M
;
_chemical_formula_sum "Si O2"
_cell_formula_units_Z 120
_cell_length_a 13.651837
_cell_length_b 28.084746
_cell_length_c 14.125651
_cell_angle_alpha 90.000000
_cell_angle_beta 90.000000
_cell_angle_gamma 90.000000
_cell_volume 5415.892890
_symmetry_space_group_name_H-M "F M M M"
_symmetry_group_IT_number 69
_symmetry_cell_setting 'orthorhombic'
loop_
_space_group_symop_operation_xyz
x,y,z
-x,-y,z
x,-y,-z
-x,y,-z
-x,-y,-z
x,y,-z
-x,y,z
x,-y,z
x,1/2+y,1/2+z
-x,1/2-y,1/2+z
x,1/2-y,1/2-z
-x,1/2+y,1/2-z
-x,1/2-y,1/2-z
x,1/2+y,1/2-z
-x,1/2+y,1/2+z
x,1/2-y,1/2+z
1/2+x,y,1/2+z
1/2-x,-y,1/2+z
1/2+x,-y,1/2-z
1/2-x,y,1/2-z
1/2-x,-y,1/2-z
1/2+x,y,1/2-z
1/2-x,y,1/2+z
1/2+x,-y,1/2+z
1/2+x,1/2+y,z
1/2-x,1/2-y,z
1/2+x,1/2-y,-z
1/2-x,1/2+y,-z
1/2-x,1/2-y,-z
1/2+x,1/2+y,-z
1/2-x,1/2+y,z
1/2+x,1/2-y,z
loop_
_atom_site_type_symbol
_atom_site_label
_atom_site_fract_x
_atom_site_fract_y
_atom_site_fract_z
Si Si1 0.750000 0.750000 0.250000
Si Si2 0.882687 0.000000 0.108159
Si Si3 0.884403 0.102817 0.191602
Si Si4 0.188205 0.139014 0.392284
Si Si5 0.114137 0.251208 0.895817
O O1 0.825909 0.776047 0.183064
O O2 0.860847 0.047956 0.165509
O O3 0.000000 0.000000 0.098409
O O4 0.842058 0.000000 0.000000
O O5 0.864466 0.114024 0.302480
O O6 0.803361 0.130446 0.128920
O O7 0.000000 0.112651 0.170260
O O8 0.166727 0.122181 0.500000
O O9 0.149447 0.193864 0.390510
O O10 0.000000 0.248814 0.879493
O O11 0.137191 0.233100 0.000000
#
# Coordination Sequence:
#
# PCOD9512459 Si02
#       5
#     8  16  32  32  32
#     4  12  20  36  64  88 104 138 192 224 248 312
#     4   9  18  33  53  77 108 143 177 224 283 323
#     4  10  20  35  55  79 106 141 185 226 267 321
#     4  10  21  36  55  80 109 142 178 219 270 323
#     4  10  22  39  57  81 115 147 174 216 274 322
#
# _framework density 22.157012000000002
#
# number of rings (size 3 to 8) (size 9 to 14) (size 15 to 20)
#    0.000    2.000    0.000    4.000    0.000    5.333 
#    0.000    3.333    0.000    5.600    0.000    0.000 
#    0.000    0.000    0.000    0.000    0.000    0.000 
#
# Total GULP energy -167353.574779 kJ/mol
# GULP energy per Si atom -5578.452493 kJ/mol
# Density = 2.210658 g / cm^3
# Si number density = 22.157012 Si / 1000 Ang^3
#
#
#
# Elastic Constant Matrix: (Units=GPa)
#
#
# Indices 1 2 3 4 5 6 
#
# 1 130.4760 -9.5562 33.8798 0.0000 0.0000 0.0000
# 2 -9.5562 81.7014 25.6024 0.0000 0.0000 0.0000
# 3 33.8798 25.6024 172.5730 0.0000 0.0000 0.0000
# 4 0.0000 0.0000 0.0000 24.1897 0.0000 0.0000
# 5 0.0000 0.0000 0.0000 0.0000 24.1817 0.0000
# 6 0.0000 0.0000 0.0000 0.0000 0.0000 25.6794
#
#
#
# Elastic Compliance Matrix: (Units=1/GPa)
#
#
# Indices 1 2 3 4 5 6 
#
# 1 0.008258 0.001546 -0.001851 0.000000 0.000000 0.000000
# 2 0.001546 0.013126 -0.002251 0.000000 0.000000 0.000000
# 3 -0.001851 -0.002251 0.006492 0.000000 0.000000 0.000000
# 4 0.000000 0.000000 0.000000 0.041340 0.000000 0.000000
# 5 0.000000 0.000000 0.000000 0.000000 0.041354 0.000000
# 6 0.000000 0.000000 0.000000 0.000000 0.000000 0.038942
#
#
# Mechanical properties :
#
#
# Convention : Reuss Voigt Hill
#
# Bulk Modulus (GPa) = 43.92785 53.84470 48.88627
# Shear Modulus (GPa) = 30.82422 37.13179 33.97800
#
# Velocity S-wave (km/s) = 3.73389 4.09815 3.92025
# Velocity P-wave (km/s) = 6.20145 6.83720 6.52707
#
# Compressibility (1/GPa) = 0.02276460
#
# Stress axis : x y z
#
# Youngs Moduli (GPa) = 121.09496 76.18572 154.03877
#
# Poissons Ratio (x) = -0.11777 0.28506
# Poissons Ratio (y) = -0.18719 0.34671
# Poissons Ratio (z) = 0.22409 0.17148
#
# Static dielectric constant tensor:
#      x y z
#    x 1.819530 0.000000 0.000000 
#    y 0.000000 1.711220 0.000000 
#    z 0.000000 0.000000 1.893910 
# 
# From -- ./inp_files/14435.got.cif
#   From: 2010.05.17/outbox.cif.g08.bks.cpg/sg69_8_cif.got.tgz:14435.got - 2010.06.03 19:29:58.
