data_PCOD9512871
_publ_section_title
;
Structure prediction by ZEFSAII (Michael W. Deem and Ramdas Pophale) SiO2 
 PCOD9512871
Probable space group: F M M M
;
_chemical_formula_sum "Si O2"
_cell_formula_units_Z 120
_cell_length_a 10.833509
_cell_length_b 23.097008
_cell_length_c 22.341323
_cell_angle_alpha 90.000000
_cell_angle_beta 90.000000
_cell_angle_gamma 90.000000
_cell_volume 5590.282571
_symmetry_space_group_name_H-M "F M M M"
_symmetry_group_IT_number 69
_symmetry_cell_setting 'orthorhombic'
loop_
_space_group_symop_operation_xyz
x,y,z
-x,-y,z
x,-y,-z
-x,y,-z
-x,-y,-z
x,y,-z
-x,y,z
x,-y,z
x,1/2+y,1/2+z
-x,1/2-y,1/2+z
x,1/2-y,1/2-z
-x,1/2+y,1/2-z
-x,1/2-y,1/2-z
x,1/2+y,1/2-z
-x,1/2+y,1/2+z
x,1/2-y,1/2+z
1/2+x,y,1/2+z
1/2-x,-y,1/2+z
1/2+x,-y,1/2-z
1/2-x,y,1/2-z
1/2-x,-y,1/2-z
1/2+x,y,1/2-z
1/2-x,y,1/2+z
1/2+x,-y,1/2+z
1/2+x,1/2+y,z
1/2-x,1/2-y,z
1/2+x,1/2-y,-z
1/2-x,1/2+y,-z
1/2-x,1/2-y,-z
1/2+x,1/2+y,-z
1/2-x,1/2+y,z
1/2+x,1/2-y,z
loop_
_atom_site_type_symbol
_atom_site_label
_atom_site_fract_x
_atom_site_fract_y
_atom_site_fract_z
Si Si1 0.250000 0.604181 0.250000
Si Si2 0.500000 0.796675 0.429744
Si Si3 0.228713 0.371810 0.614742
Si Si4 0.000000 0.500000 0.097594
Si Si5 0.725631 0.000000 0.567025
Si Si6 0.000000 0.669365 0.117788
Si Si7 0.000000 0.917422 0.291645
O O1 0.230701 0.636352 0.313164
O O2 0.375060 0.568506 0.258781
O O3 0.500000 0.782756 0.500000
O O4 0.377849 0.833373 0.414012
O O5 0.500000 0.737434 0.392718
O O6 0.199372 0.439456 0.600589
O O7 0.367418 0.354369 0.593044
O O8 0.874211 0.500000 0.062775
O O9 0.000000 0.552600 0.144266
O O10 0.671897 0.000000 0.500000
O O11 0.000000 0.649845 0.188027
#
# Coordination Sequence:
#
# PCOD9512871 Si02
#       7
#    16  16  32   8  16  16  16
#     4  10  20  41  67  94 134 172 209 283 326 400
#     4  12  27  46  66  95 140 181 223 275 332 404
#     4  11  24  44  68 102 131 175 226 270 343 396
#     4  12  19  40  62  94 136 160 219 274 324 398
#     4  12  23  39  66  95 135 173 216 280 330 394
#     4  10  22  43  66  94 132 166 226 274 317 394
#     4  10  21  37  65 100 132 161 221 264 334 401
#
# _framework density 21.465820999999998
#
# number of rings (size 3 to 8) (size 9 to 14) (size 15 to 20)
#    0.000    1.067    5.333    2.600    0.000    5.867 
#    0.000   17.333    0.000    0.000    0.000    0.000 
#    0.000    0.000    0.000    0.000    0.000    0.000 
#
# Total GULP energy -167246.779164 kJ/mol
# GULP energy per Si atom -5574.892639 kJ/mol
# Density = 2.141696 g / cm^3
# Si number density = 21.465821 Si / 1000 Ang^3
#
#
#
# Elastic Constant Matrix: (Units=GPa)
#
#
# Indices 1 2 3 4 5 6 
#
# 1 160.1778 49.7360 20.6519 0.0000 0.0000 0.0000
# 2 49.7360 148.7352 23.7117 0.0000 0.0000 0.0000
# 3 20.6519 23.7117 92.5829 0.0000 0.0000 0.0000
# 4 0.0000 0.0000 0.0000 8.2157 0.0000 0.0000
# 5 0.0000 0.0000 0.0000 0.0000 20.6830 0.0000
# 6 0.0000 0.0000 0.0000 0.0000 0.0000 134.1439
#
#
#
# Elastic Compliance Matrix: (Units=1/GPa)
#
#
# Indices 1 2 3 4 5 6 
#
# 1 0.007056 -0.002198 -0.001011 0.000000 0.000000 0.000000
# 2 -0.002198 0.007694 -0.001480 0.000000 0.000000 0.000000
# 3 -0.001011 -0.001480 0.011406 0.000000 0.000000 0.000000
# 4 0.000000 0.000000 0.000000 0.121717 0.000000 0.000000
# 5 0.000000 0.000000 0.000000 0.000000 0.048349 0.000000
# 6 0.000000 0.000000 0.000000 0.000000 0.000000 0.007455
#
#
# Mechanical properties :
#
#
# Convention : Reuss Voigt Hill
#
# Bulk Modulus (GPa) = 59.60485 65.52168 62.56327
# Shear Modulus (GPa) = 22.86773 53.10161 37.98467
#
# Velocity S-wave (km/s) = 3.26745 4.97910 4.21116
# Velocity P-wave (km/s) = 6.48557 7.97780 7.27007
#
# Compressibility (1/GPa) = 0.01677716
#
# Stress axis : x y z
#
# Youngs Moduli (GPa) = 141.72361 129.96388 87.67509
#
# Poissons Ratio (x) = 0.28570 0.08863
# Poissons Ratio (y) = 0.31155 0.12978
# Poissons Ratio (z) = 0.14327 0.19238
#
# Static dielectric constant tensor:
#      x y z
#    x 1.813990 0.000000 0.000000 
#    y 0.000000 1.872890 0.000000 
#    z 0.000000 0.000000 1.763910 
# 
# From -- ./inp_files/28999.got.cif
#   From: 2010.05.17/outbox.cif.g08.bks.cpg/sg69_15_cif.got.tgz:28999.got - 2010.06.03 19:29:58.
