data_PCOD9512830
_publ_section_title
;
Structure prediction by ZEFSAII (Michael W. Deem and Ramdas Pophale) SiO2 
 PCOD9512830
Probable space group: F M M M
;
_chemical_formula_sum "Si O2"
_cell_formula_units_Z 88
_cell_length_a 10.431619
_cell_length_b 15.491942
_cell_length_c 21.291800
_cell_angle_alpha 90.000000
_cell_angle_beta 90.000000
_cell_angle_gamma 90.000000
_cell_volume 3440.883408
_symmetry_space_group_name_H-M "F M M M"
_symmetry_group_IT_number 69
_symmetry_cell_setting 'orthorhombic'
loop_
_space_group_symop_operation_xyz
x,y,z
-x,-y,z
x,-y,-z
-x,y,-z
-x,-y,-z
x,y,-z
-x,y,z
x,-y,z
x,1/2+y,1/2+z
-x,1/2-y,1/2+z
x,1/2-y,1/2-z
-x,1/2+y,1/2-z
-x,1/2-y,1/2-z
x,1/2+y,1/2-z
-x,1/2+y,1/2+z
x,1/2-y,1/2+z
1/2+x,y,1/2+z
1/2-x,-y,1/2+z
1/2+x,-y,1/2-z
1/2-x,y,1/2-z
1/2-x,-y,1/2-z
1/2+x,y,1/2-z
1/2-x,y,1/2+z
1/2+x,-y,1/2+z
1/2+x,1/2+y,z
1/2-x,1/2-y,z
1/2+x,1/2-y,-z
1/2-x,1/2+y,-z
1/2-x,1/2-y,-z
1/2+x,1/2+y,-z
1/2-x,1/2+y,z
1/2+x,1/2-y,z
loop_
_atom_site_type_symbol
_atom_site_label
_atom_site_fract_x
_atom_site_fract_y
_atom_site_fract_z
Si Si1 0.500000 0.161488 0.000000
Si Si2 0.000000 0.400092 0.269991
Si Si3 0.787363 0.098710 0.000000
Si Si4 0.779714 0.649589 0.635254
Si Si5 0.000000 0.141655 0.362582
O O1 0.367343 0.109061 0.000000
O O2 0.500000 0.197825 0.072237
O O3 0.876700 0.385270 0.313592
O O4 0.000000 0.500000 0.247803
O O5 0.000000 0.334549 0.211131
O O6 0.832195 0.141035 0.935436
O O7 0.825251 0.000000 0.000000
O O8 0.750000 0.750000 0.647830
O O9 0.642211 0.601229 0.634942
#
# Coordination Sequence:
#
# PCOD9512830 Si02
#       5
#     8  16  16  32  16
#     4   8  19  38  62  90 118 158 217 280 331 386
#     4  12  27  44  66 101 141 179 225 286 352 411
#     4  10  20  38  65  97 133 174 226 284 338 398
#     4  11  24  43  68  98 137 183 230 279 342 413
#     4  10  23  42  68  95 128 174 230 282 334 403
#
# _framework density 25.574828
#
# number of rings (size 3 to 8) (size 9 to 14) (size 15 to 20)
#    0.000    1.455    0.000    4.091    0.000   13.818 
#    0.000    5.455    0.000    0.000    0.000    0.000 
#    0.000    0.000    0.000    0.000    0.000    0.000 
#
# Total GULP energy -122716.777935 kJ/mol
# GULP energy per Si atom -5578.035361 kJ/mol
# Density = 2.551662 g / cm^3
# Si number density = 25.574828 Si / 1000 Ang^3
#
#
#
# Elastic Constant Matrix: (Units=GPa)
#
#
# Indices 1 2 3 4 5 6 
#
# 1 141.7227 28.1288 76.0547 0.0000 0.0000 0.0000
# 2 28.1288 127.0154 23.9699 0.0000 0.0000 0.0000
# 3 76.0547 23.9699 251.1412 0.0000 0.0000 0.0000
# 4 0.0000 0.0000 0.0000 29.3811 0.0000 0.0000
# 5 0.0000 0.0000 0.0000 0.0000 64.5638 0.0000
# 6 0.0000 0.0000 0.0000 0.0000 0.0000 144.7726
#
#
#
# Elastic Compliance Matrix: (Units=1/GPa)
#
#
# Indices 1 2 3 4 5 6 
#
# 1 0.008681 -0.001452 -0.002490 0.000000 0.000000 0.000000
# 2 -0.001452 0.008261 -0.000349 0.000000 0.000000 0.000000
# 3 -0.002490 -0.000349 0.004769 0.000000 0.000000 0.000000
# 4 0.000000 0.000000 0.000000 0.034035 0.000000 0.000000
# 5 0.000000 0.000000 0.000000 0.000000 0.015489 0.000000
# 6 0.000000 0.000000 0.000000 0.000000 0.000000 0.006907
#
#
# Mechanical properties :
#
#
# Convention : Reuss Voigt Hill
#
# Bulk Modulus (GPa) = 76.17342 86.24289 81.20816
# Shear Modulus (GPa) = 54.88462 73.85858 64.37160
#
# Velocity S-wave (km/s) = 4.63756 5.37979 5.02240
# Velocity P-wave (km/s) = 7.65018 8.50791 8.09042
#
# Compressibility (1/GPa) = 0.01312794
#
# Stress axis : x y z
#
# Youngs Moduli (GPa) = 115.19857 121.05804 209.67826
#
# Poissons Ratio (x) = 0.17583 0.52214
# Poissons Ratio (y) = 0.16732 0.07308
# Poissons Ratio (z) = 0.28687 0.04219
#
# Static dielectric constant tensor:
#      x y z
#    x 2.008210 0.000000 0.000000 
#    y 0.000000 1.980450 0.000000 
#    z 0.000000 0.000000 2.014120 
# 
# From -- ./inp_files/28773.got.cif
#   From: 2010.05.17/outbox.cif.g08.bks.cpg/sg69_15_cif.got.tgz:28773.got - 2010.06.03 19:29:58.
