data_PCOD9512802
_publ_section_title
;
Structure prediction by ZEFSAII (Michael W. Deem and Ramdas Pophale) SiO2 
 PCOD9512802
Probable space group: F M M M
;
_chemical_formula_sum "Si O2"
_cell_formula_units_Z 144
_cell_length_a 15.989971
_cell_length_b 31.421232
_cell_length_c 14.596558
_cell_angle_alpha 90.000000
_cell_angle_beta 90.000000
_cell_angle_gamma 90.000000
_cell_volume 7333.669646
_symmetry_space_group_name_H-M "F M M M"
_symmetry_group_IT_number 69
_symmetry_cell_setting 'orthorhombic'
loop_
_space_group_symop_operation_xyz
x,y,z
-x,-y,z
x,-y,-z
-x,y,-z
-x,-y,-z
x,y,-z
-x,y,z
x,-y,z
x,1/2+y,1/2+z
-x,1/2-y,1/2+z
x,1/2-y,1/2-z
-x,1/2+y,1/2-z
-x,1/2-y,1/2-z
x,1/2+y,1/2-z
-x,1/2+y,1/2+z
x,1/2-y,1/2+z
1/2+x,y,1/2+z
1/2-x,-y,1/2+z
1/2+x,-y,1/2-z
1/2-x,y,1/2-z
1/2-x,-y,1/2-z
1/2+x,y,1/2-z
1/2-x,y,1/2+z
1/2+x,-y,1/2+z
1/2+x,1/2+y,z
1/2-x,1/2-y,z
1/2+x,1/2-y,-z
1/2-x,1/2+y,-z
1/2-x,1/2-y,-z
1/2+x,1/2+y,-z
1/2-x,1/2+y,z
1/2+x,1/2-y,z
loop_
_atom_site_type_symbol
_atom_site_label
_atom_site_fract_x
_atom_site_fract_y
_atom_site_fract_z
Si Si1 0.098895 0.129924 0.805887
Si Si2 0.099626 0.158900 0.000000
Si Si3 0.152084 0.742973 0.000000
Si Si4 0.842256 0.950903 0.703903
Si Si5 0.902128 0.051313 0.500000
Si Si6 0.899032 0.790809 0.691984
O O1 0.134864 0.138364 0.907035
O O2 0.109847 0.083465 0.764724
O O3 0.133085 0.165855 0.737177
O O4 0.000000 0.138127 0.812741
O O5 0.111477 0.209856 0.000000
O O6 0.000000 0.150980 0.000000
O O7 0.250000 0.750000 0.000000
O O8 0.126737 0.716937 0.088911
O O9 0.750000 0.950120 0.750000
O O10 0.855128 0.937990 0.596255
O O11 0.872060 0.000000 0.710943
O O12 0.000000 0.066691 0.500000
O O13 0.905883 0.000000 0.500000
O O14 0.869970 0.750000 0.750000
O O15 0.000000 0.790942 0.694795
#
# Coordination Sequence:
#
# PCOD9512802 Si02
#       6
#    32  16  16  32  16  32
#     4  10  21  37  62  88 114 156 207 255 299 356
#     4  10  20  39  59  81 116 158 197 234 300 368
#     4  12  24  35  55  87 122 156 191 241 300 359
#     4  10  22  39  60  89 126 163 200 254 318 371
#     4   9  18  36  63  89 117 160 208 252 304 367
#     4  10  20  38  61  82 109 151 200 244 285 346
#
# _framework density 19.635463000000001
#
# number of rings (size 3 to 8) (size 9 to 14) (size 15 to 20)
#    0.000    1.889    2.222    1.667    0.000    5.333 
#    0.000    2.778    0.000    2.000    0.000    0.000 
#    0.000    0.000    0.000    0.000    0.000    0.000 
#
# Total GULP energy -200729.154458 kJ/mol
# GULP energy per Si atom -5575.809846 kJ/mol
# Density = 1.959077 g / cm^3
# Si number density = 19.635463 Si / 1000 Ang^3
#
#
#
# Elastic Constant Matrix: (Units=GPa)
#
#
# Indices 1 2 3 4 5 6 
#
# 1 29.1736 10.1061 31.9938 0.0000 0.0000 0.0000
# 2 10.1061 91.0788 84.9188 0.0000 0.0000 0.0000
# 3 31.9938 84.9188 221.5884 0.0000 0.0000 0.0000
# 4 0.0000 0.0000 0.0000 23.0615 0.0000 0.0000
# 5 0.0000 0.0000 0.0000 0.0000 -143.0417 0.0000
# 6 0.0000 0.0000 0.0000 0.0000 0.0000 -58.5954
#
#
#
# Elastic Compliance Matrix: (Units=1/GPa)
#
#
# Indices 1 2 3 4 5 6 
#
# 1 0.040858 0.001504 -0.006476 0.000000 0.000000 0.000000
# 2 0.001504 0.017139 -0.006785 0.000000 0.000000 0.000000
# 3 -0.006476 -0.006785 0.008048 0.000000 0.000000 0.000000
# 4 0.000000 0.000000 0.000000 0.043362 0.000000 0.000000
# 5 0.000000 0.000000 0.000000 0.000000 -0.006991 0.000000
# 6 0.000000 0.000000 0.000000 0.000000 0.000000 -0.017066
#
#
# Mechanical properties :
#
#
# Convention : Reuss Voigt Hill
#
# Bulk Modulus (GPa) = 23.51191 66.20867 44.86029
# Shear Modulus (GPa) = 40.63669 -21.39364 9.62153
#
# Velocity S-wave (km/s) = 4.55417 -3.30440 2.21601
# Velocity P-wave (km/s) = 6.29716 4.38559 5.42621
#
# Compressibility (1/GPa) = 0.04253164
#
# Stress axis : x y z
#
# Youngs Moduli (GPa) = 24.47485 58.34651 124.25186
#
# Poissons Ratio (x) = -0.08776 0.80462
# Poissons Ratio (y) = -0.03681 0.84309
# Poissons Ratio (z) = 0.15849 0.39590
#
# Static dielectric constant tensor:
#      x y z
#    x 1.717940 0.000000 0.000000 
#    y 0.000000 1.675780 0.000000 
#    z 0.000000 0.000000 1.681400 
# 
# From -- ./inp_files/15608.got.cif
#   From: 2010.05.17/outbox.cif.g08.bks.cpg/sg69_8_cif.got.tgz:15608.got - 2010.06.03 19:29:58.
