data_PCOD9512722
_publ_section_title
;
Structure prediction by ZEFSAII (Michael W. Deem and Ramdas Pophale) SiO2 
 PCOD9512722
Probable space group: F M M M
;
_chemical_formula_sum "Si O2"
_cell_formula_units_Z 160
_cell_length_a 10.266816
_cell_length_b 30.024728
_cell_length_c 30.958468
_cell_angle_alpha 90.000000
_cell_angle_beta 90.000000
_cell_angle_gamma 90.000000
_cell_volume 9543.206506
_symmetry_space_group_name_H-M "F M M M"
_symmetry_group_IT_number 69
_symmetry_cell_setting 'orthorhombic'
loop_
_space_group_symop_operation_xyz
x,y,z
-x,-y,z
x,-y,-z
-x,y,-z
-x,-y,-z
x,y,-z
-x,y,z
x,-y,z
x,1/2+y,1/2+z
-x,1/2-y,1/2+z
x,1/2-y,1/2-z
-x,1/2+y,1/2-z
-x,1/2-y,1/2-z
x,1/2+y,1/2-z
-x,1/2+y,1/2+z
x,1/2-y,1/2+z
1/2+x,y,1/2+z
1/2-x,-y,1/2+z
1/2+x,-y,1/2-z
1/2-x,y,1/2-z
1/2-x,-y,1/2-z
1/2+x,y,1/2-z
1/2-x,y,1/2+z
1/2+x,-y,1/2+z
1/2+x,1/2+y,z
1/2-x,1/2-y,z
1/2+x,1/2-y,-z
1/2-x,1/2+y,-z
1/2-x,1/2-y,-z
1/2+x,1/2+y,-z
1/2-x,1/2+y,z
1/2+x,1/2-y,z
loop_
_atom_site_type_symbol
_atom_site_label
_atom_site_fract_x
_atom_site_fract_y
_atom_site_fract_z
Si Si1 0.500000 0.445616 0.706548
Si Si2 0.346771 0.334482 0.592141
Si Si3 0.249909 0.897468 0.164408
Si Si4 0.841783 0.294272 0.000000
Si Si5 0.500000 0.052526 0.309160
Si Si6 0.250000 0.250000 0.854943
Si Si7 0.853036 0.311221 0.714296
O O1 0.500000 0.500000 0.702115
O O2 0.374179 0.423087 0.684147
O O3 0.500000 0.434691 0.757968
O O4 0.500000 0.343385 0.594897
O O5 0.277856 0.374503 0.618134
O O6 0.313523 0.323628 0.542580
O O7 0.315264 0.288409 0.616872
O O8 0.205592 0.856537 0.194829
O O9 0.127063 0.929664 0.166780
O O10 0.750000 0.250000 0.000000
O O11 0.000000 0.283569 0.000000
O O12 0.500000 0.000000 0.309290
O O13 0.149375 0.224876 0.823803
O O14 0.750000 0.297519 0.750000
O O15 0.000000 0.317039 0.730658
#
# Coordination Sequence:
#
# PCOD9512722 Si02
#       7
#    16  32  32  16  16  16  32
#     4  11  22  38  60  84 113 150 192 236 285 338
#     4  10  20  37  58  82 112 147 183 230 281 336
#     4  11  22  37  56  81 115 148 188 231 283 338
#     4  10  20  38  62  88 115 144 186 236 287 334
#     4  11  22  38  58  86 115 148 190 238 287 330
#     4  10  21  33  52  74 110 142 190 227 275 322
#     4  11  23  35  50  72 105 150 195 234 270 317
#
# _framework density 16.765854000000001
#
# number of rings (size 3 to 8) (size 9 to 14) (size 15 to 20)
#    0.000    1.400    3.000    3.300    1.400    4.000 
#    1.800    0.000    0.000    0.000    0.000    4.200 
#    0.000    0.000    0.000    0.000    0.000    0.000 
#
# Total GULP energy -223168.744163 kJ/mol
# GULP energy per Si atom -5579.218604 kJ/mol
# Density = 1.672769 g / cm^3
# Si number density = 16.765854 Si / 1000 Ang^3
#
#
#
# Elastic Constant Matrix: (Units=GPa)
#
#
# Indices 1 2 3 4 5 6 
#
# 1 140.3147 51.9074 63.6779 0.0000 0.0000 0.0000
# 2 51.9074 94.7051 55.2719 0.0000 0.0000 0.0000
# 3 63.6779 55.2719 128.0047 0.0000 0.0000 0.0000
# 4 0.0000 0.0000 0.0000 22.4164 0.0000 0.0000
# 5 0.0000 0.0000 0.0000 0.0000 21.4923 0.0000
# 6 0.0000 0.0000 0.0000 0.0000 0.0000 22.4643
#
#
#
# Elastic Compliance Matrix: (Units=1/GPa)
#
#
# Indices 1 2 3 4 5 6 
#
# 1 0.009978 -0.003438 -0.003479 0.000000 0.000000 0.000000
# 2 -0.003438 0.015301 -0.004897 0.000000 0.000000 0.000000
# 3 -0.003479 -0.004897 0.011657 0.000000 0.000000 0.000000
# 4 0.000000 0.000000 0.000000 0.044610 0.000000 0.000000
# 5 0.000000 0.000000 0.000000 0.000000 0.046528 0.000000
# 6 0.000000 0.000000 0.000000 0.000000 0.000000 0.044515
#
#
# Mechanical properties :
#
#
# Convention : Reuss Voigt Hill
#
# Bulk Modulus (GPa) = 75.13980 78.30433 76.72206
# Shear Modulus (GPa) = 24.91858 26.08575 25.50217
#
# Velocity S-wave (km/s) = 3.85940 3.94875 3.90433
# Velocity P-wave (km/s) = 8.04826 8.22169 8.13544
#
# Compressibility (1/GPa) = 0.01330853
#
# Stress axis : x y z
#
# Youngs Moduli (GPa) = 100.22474 65.35349 85.78418
#
# Poissons Ratio (x) = 0.22471 0.29843
# Poissons Ratio (y) = 0.34461 0.42005
# Poissons Ratio (z) = 0.34867 0.32001
#
# Static dielectric constant tensor:
#      x y z
#    x 1.567300 0.000000 0.000000 
#    y 0.000000 1.573990 0.000000 
#    z 0.000000 0.000000 1.577740 
# 
# From -- ./inp_files/44651.got.cif
#   From: 2010.05.17/outbox.cif.g08.bks.cpg/sg69_23_cif.got.tgz:44651.got - 2010.06.03 19:29:58.
