data_PCOD9512653
_publ_section_title
;
Structure prediction by ZEFSAII (Michael W. Deem and Ramdas Pophale) SiO2 
 PCOD9512653
Probable space group: F M M M
;
_chemical_formula_sum "Si O2"
_cell_formula_units_Z 176
_cell_length_a 26.989554
_cell_length_b 16.251706
_cell_length_c 18.635785
_cell_angle_alpha 90.000000
_cell_angle_beta 90.000000
_cell_angle_gamma 90.000000
_cell_volume 8174.145360
_symmetry_space_group_name_H-M "F M M M"
_symmetry_group_IT_number 69
_symmetry_cell_setting 'orthorhombic'
loop_
_space_group_symop_operation_xyz
x,y,z
-x,-y,z
x,-y,-z
-x,y,-z
-x,-y,-z
x,y,-z
-x,y,z
x,-y,z
x,1/2+y,1/2+z
-x,1/2-y,1/2+z
x,1/2-y,1/2-z
-x,1/2+y,1/2-z
-x,1/2-y,1/2-z
x,1/2+y,1/2-z
-x,1/2+y,1/2+z
x,1/2-y,1/2+z
1/2+x,y,1/2+z
1/2-x,-y,1/2+z
1/2+x,-y,1/2-z
1/2-x,y,1/2-z
1/2-x,-y,1/2-z
1/2+x,y,1/2-z
1/2-x,y,1/2+z
1/2+x,-y,1/2+z
1/2+x,1/2+y,z
1/2-x,1/2-y,z
1/2+x,1/2-y,-z
1/2-x,1/2+y,-z
1/2-x,1/2-y,-z
1/2+x,1/2+y,-z
1/2-x,1/2+y,z
1/2+x,1/2-y,z
loop_
_atom_site_type_symbol
_atom_site_label
_atom_site_fract_x
_atom_site_fract_y
_atom_site_fract_z
Si Si1 0.627223 0.688025 0.918469
Si Si2 0.940963 0.907430 0.500000
Si Si3 0.359965 0.406997 0.713921
Si Si4 0.558584 0.694165 0.647022
Si Si5 0.696459 0.650684 0.583798
Si Si6 0.795255 0.595551 0.655207
O O1 0.582222 0.717068 0.868839
O O2 0.668331 0.761585 0.912732
O O3 0.656575 0.607820 0.894421
O O4 0.610537 0.682756 0.000000
O O5 0.930992 0.856103 0.572237
O O6 0.000000 0.916595 0.500000
O O7 0.919316 0.000000 0.500000
O O8 0.372357 0.500000 0.735607
O O9 0.408465 0.350923 0.706983
O O10 0.336047 0.406591 0.635054
O O11 0.316956 0.375784 0.767879
O O12 0.500000 0.694463 0.660490
O O13 0.699167 0.627386 0.500000
O O14 0.750434 0.645187 0.619606
O O15 0.780259 0.500000 0.661172
#
# Coordination Sequence:
#
# PCOD9512653 Si02
#       6
#    32  16  32  32  32  32
#     4  10  21  38  60  88 119 150 193 247 292 346
#     4   9  16  28  52  86 114 139 173 213 270 346
#     4  10  22  37  55  85 125 157 188 235 289 352
#     4  10  20  36  59  86 116 152 187 230 294 356
#     4  10  21  37  60  88 115 150 192 241 295 353
#     4  11  23  39  57  80 114 159 205 243 289 342
#
# _framework density 21.531303999999999
#
# number of rings (size 3 to 8) (size 9 to 14) (size 15 to 20)
#    0.000    1.909    0.909    2.727    1.273    9.455 
#    0.000    5.455    0.000    1.636    0.000    1.273 
#    0.000    0.000    0.000    0.000    0.000    0.182 
#
# Total GULP energy -245606.666939 kJ/mol
# GULP energy per Si atom -5581.969703 kJ/mol
# Density = 2.148230 g / cm^3
# Si number density = 21.531304 Si / 1000 Ang^3
#
#
#
# Elastic Constant Matrix: (Units=GPa)
#
#
# Indices 1 2 3 4 5 6 
#
# 1 143.2195 14.1462 49.7594 0.0000 0.0000 0.0000
# 2 14.1462 17.0378 12.5689 0.0000 0.0000 0.0000
# 3 49.7594 12.5689 118.1616 0.0000 0.0000 0.0000
# 4 0.0000 0.0000 0.0000 10.7508 0.0000 0.0000
# 5 0.0000 0.0000 0.0000 0.0000 116.9393 0.0000
# 6 0.0000 0.0000 0.0000 0.0000 0.0000 17.9532
#
#
#
# Elastic Compliance Matrix: (Units=1/GPa)
#
#
# Indices 1 2 3 4 5 6 
#
# 1 0.008527 -0.004808 -0.003079 0.000000 0.000000 0.000000
# 2 -0.004808 0.066402 -0.005038 0.000000 0.000000 0.000000
# 3 -0.003079 -0.005038 0.010296 0.000000 0.000000 0.000000
# 4 0.000000 0.000000 0.000000 0.093016 0.000000 0.000000
# 5 0.000000 0.000000 0.000000 0.000000 0.008551 0.000000
# 6 0.000000 0.000000 0.000000 0.000000 0.000000 0.055700
#
#
# Mechanical properties :
#
#
# Convention : Reuss Voigt Hill
#
# Bulk Modulus (GPa) = 16.84272 47.92977 32.38625
# Shear Modulus (GPa) = 17.35293 42.59163 29.97228
#
# Velocity S-wave (km/s) = 2.84199 4.45244 3.73504
# Velocity P-wave (km/s) = 4.31377 6.98148 5.80300
#
# Compressibility (1/GPa) = 0.05937282
#
# Stress axis : x y z
#
# Youngs Moduli (GPa) = 117.27299 15.05977 97.12789
#
# Poissons Ratio (x) = 0.07241 0.29910
# Poissons Ratio (y) = 0.56387 0.48937
# Poissons Ratio (z) = 0.36113 0.07588
#
# Static dielectric constant tensor:
#      x y z
#    x 1.779140 0.000000 0.000000 
#    y 0.000000 1.804670 0.000000 
#    z 0.000000 0.000000 1.854280 
# 
# From -- ./inp_files/26738.got.cif
#   From: 2010.05.17/outbox.cif.g08.bks.cpg/sg69_14_cif.got.tgz:26738.got - 2010.06.03 19:29:58.
