data_PCOD9512217
_publ_section_title
;
Structure prediction by ZEFSAII (Michael W. Deem and Ramdas Pophale) SiO2 
 PCOD9512217
Probable space group: F M M M
;
_chemical_formula_sum "Si O2"
_cell_formula_units_Z 128
_cell_length_a 15.294783
_cell_length_b 21.883448
_cell_length_c 19.757092
_cell_angle_alpha 90.000000
_cell_angle_beta 90.000000
_cell_angle_gamma 90.000000
_cell_volume 6612.749833
_symmetry_space_group_name_H-M "F M M M"
_symmetry_group_IT_number 69
_symmetry_cell_setting 'orthorhombic'
loop_
_space_group_symop_operation_xyz
x,y,z
-x,-y,z
x,-y,-z
-x,y,-z
-x,-y,-z
x,y,-z
-x,y,z
x,-y,z
x,1/2+y,1/2+z
-x,1/2-y,1/2+z
x,1/2-y,1/2-z
-x,1/2+y,1/2-z
-x,1/2-y,1/2-z
x,1/2+y,1/2-z
-x,1/2+y,1/2+z
x,1/2-y,1/2+z
1/2+x,y,1/2+z
1/2-x,-y,1/2+z
1/2+x,-y,1/2-z
1/2-x,y,1/2-z
1/2-x,-y,1/2-z
1/2+x,y,1/2-z
1/2-x,y,1/2+z
1/2+x,-y,1/2+z
1/2+x,1/2+y,z
1/2-x,1/2-y,z
1/2+x,1/2-y,-z
1/2-x,1/2+y,-z
1/2-x,1/2-y,-z
1/2+x,1/2+y,-z
1/2-x,1/2+y,z
1/2+x,1/2-y,z
loop_
_atom_site_type_symbol
_atom_site_label
_atom_site_fract_x
_atom_site_fract_y
_atom_site_fract_z
Si Si1 0.895952 0.066647 0.285604
Si Si2 0.845159 0.689431 0.283372
Si Si3 0.105442 0.735180 0.423669
Si Si4 0.606208 0.879681 0.925324
O O1 0.882629 0.124044 0.236826
O O2 0.860122 0.084350 0.360122
O O3 0.000000 0.061909 0.293362
O O4 0.862803 0.000000 0.263509
O O5 0.890112 0.750000 0.250000
O O6 0.750000 0.688529 0.250000
O O7 0.847763 0.700106 0.363291
O O8 0.130053 0.716607 0.500000
O O9 0.124234 0.807526 0.416861
O O10 0.000000 0.727844 0.416757
O O11 0.500000 0.884865 0.926080
O O12 0.636976 0.899351 0.000000
#
# Coordination Sequence:
#
# PCOD9512217 Si02
#       4
#    32  32  32  32
#     4  10  20  33  52  77 104 140 182 226 277 325
#     4  11  22  35  52  79 112 144 181 220 274 331
#     4   9  17  32  57  83 106 139 183 231 277 315
#     4   8  14  26  46  74 104 132 166 213 271 323
#
# _framework density 19.356546999999999
#
# number of rings (size 3 to 8) (size 9 to 14) (size 15 to 20)
#    0.000    2.500    2.500    2.250    0.000    2.000 
#    0.000    6.250    0.000    0.750    0.000    3.500 
#    0.000    0.000    0.000    0.000    0.000    0.000 
#
# Total GULP energy -178425.242654 kJ/mol
# GULP energy per Si atom -5575.788833 kJ/mol
# Density = 1.931249 g / cm^3
# Si number density = 19.356547 Si / 1000 Ang^3
#
#
#
# Elastic Constant Matrix: (Units=GPa)
#
#
# Indices 1 2 3 4 5 6 
#
# 1 33.0381 15.0418 27.0954 0.0000 0.0000 0.0000
# 2 15.0418 132.3124 66.4014 0.0000 0.0000 0.0000
# 3 27.0954 66.4014 124.8197 0.0000 0.0000 0.0000
# 4 0.0000 0.0000 0.0000 -1.2735 0.0000 0.0000
# 5 0.0000 0.0000 0.0000 0.0000 15.5461 0.0000
# 6 0.0000 0.0000 0.0000 0.0000 0.0000 -26.1919
#
#
#
# Elastic Compliance Matrix: (Units=1/GPa)
#
#
# Indices 1 2 3 4 5 6 
#
# 1 0.036829 -0.000238 -0.007868 0.000000 0.000000 0.000000
# 2 -0.000238 0.010312 -0.005434 0.000000 0.000000 0.000000
# 3 -0.007868 -0.005434 0.012610 0.000000 0.000000 0.000000
# 4 0.000000 0.000000 0.000000 -0.785263 0.000000 0.000000
# 5 0.000000 0.000000 0.000000 0.000000 0.064325 0.000000
# 6 0.000000 0.000000 0.000000 0.000000 0.000000 -0.038180
#
#
# Mechanical properties :
#
#
# Convention : Reuss Voigt Hill
#
# Bulk Modulus (GPa) = 30.60818 56.36082 43.48450
# Shear Modulus (GPa) = -7.55978 9.72491 1.08257
#
# Velocity S-wave (km/s) = -1.97839 2.24388 0.74866
# Velocity P-wave (km/s) = 3.26013 5.99114 4.82298
#
# Compressibility (1/GPa) = 0.03267100
#
# Stress axis : x y z
#
# Youngs Moduli (GPa) = 27.15221 96.97374 79.30003
#
# Poissons Ratio (x) = 0.02311 0.62394
# Poissons Ratio (y) = 0.00647 0.43092
# Poissons Ratio (z) = 0.21363 0.52696
#
# Static dielectric constant tensor:
#      x y z
#    x 1.933460 0.000000 0.000000 
#    y 0.000000 1.708060 0.000000 
#    z 0.000000 0.000000 1.700170 
# 
# From -- ./inp_files/22762.got.cif
#   From: 2010.05.17/outbox.cif.g08.bks.cpg/sg69_12_cif.got.tgz:22762.got - 2010.06.03 19:29:58.
