data_PCOD9512055
_publ_section_title
;
Structure prediction by ZEFSAII (Michael W. Deem and Ramdas Pophale) SiO2 
 PCOD9512055
Probable space group: F M M M
;
_chemical_formula_sum "Si O2"
_cell_formula_units_Z 132
_cell_length_a 15.518525
_cell_length_b 18.718604
_cell_length_c 23.855761
_cell_angle_alpha 90.000000
_cell_angle_beta 90.000000
_cell_angle_gamma 90.000000
_cell_volume 6929.743696
_symmetry_space_group_name_H-M "F M M M"
_symmetry_group_IT_number 69
_symmetry_cell_setting 'orthorhombic'
loop_
_space_group_symop_operation_xyz
x,y,z
-x,-y,z
x,-y,-z
-x,y,-z
-x,-y,-z
x,y,-z
-x,y,z
x,-y,z
x,1/2+y,1/2+z
-x,1/2-y,1/2+z
x,1/2-y,1/2-z
-x,1/2+y,1/2-z
-x,1/2-y,1/2-z
x,1/2+y,1/2-z
-x,1/2+y,1/2+z
x,1/2-y,1/2+z
1/2+x,y,1/2+z
1/2-x,-y,1/2+z
1/2+x,-y,1/2-z
1/2-x,y,1/2-z
1/2-x,-y,1/2-z
1/2+x,y,1/2-z
1/2-x,y,1/2+z
1/2+x,-y,1/2+z
1/2+x,1/2+y,z
1/2-x,1/2-y,z
1/2+x,1/2-y,-z
1/2-x,1/2+y,-z
1/2-x,1/2-y,-z
1/2+x,1/2+y,-z
1/2-x,1/2+y,z
1/2+x,1/2-y,z
loop_
_atom_site_type_symbol
_atom_site_label
_atom_site_fract_x
_atom_site_fract_y
_atom_site_fract_z
Si Si1 0.000000 0.500000 0.000000
Si Si2 0.847465 0.083736 0.000000
Si Si3 0.851565 0.842128 0.120652
Si Si4 0.500000 0.917037 0.689051
Si Si5 0.348777 0.826201 0.878762
Si Si6 0.148879 0.882030 0.500000
Si Si7 0.500000 0.083887 0.176915
O O1 0.074658 0.560909 0.000000
O O2 0.870047 0.127186 0.057447
O O3 0.743403 0.083077 0.000000
O O4 0.877502 0.000000 0.000000
O O5 0.915254 0.882194 0.162343
O O6 0.749493 0.850533 0.133316
O O7 0.864898 0.757535 0.130264
O O8 0.500000 0.910572 0.756092
O O9 0.500000 0.000000 0.674251
O O10 0.416647 0.876274 0.847637
O O11 0.358870 0.835343 0.944945
O O12 0.500000 0.000000 0.160070
#
# Coordination Sequence:
#
# PCOD9512055 Si02
#       7
#     4  16  32  16  32  16  16
#     4  12  20  28  48  88 124 166 182 236 288 354
#     4  10  19  36  60  92 122 162 195 243 294 365
#     4  10  22  40  65  88 125 159 204 245 302 362
#     4  11  25  44  60  86 118 160 206 265 299 351
#     4  10  22  40  62  93 122 164 194 247 305 370
#     4  10  21  32  55  90 131 152 192 234 302 358
#     4  11  26  42  62  87 121 155 206 256 314 363
#
# _framework density 19.048324000000001
#
# number of rings (size 3 to 8) (size 9 to 14) (size 15 to 20)
#    0.000    1.697    0.606    2.909    3.394    8.242 
#    0.000    8.485    0.000    0.000    0.000    0.000 
#    0.000    0.000    0.000    0.000    0.000    0.000 
#
# Total GULP energy -183955.563663 kJ/mol
# GULP energy per Si atom -5574.411020 kJ/mol
# Density = 1.900497 g / cm^3
# Si number density = 19.048324 Si / 1000 Ang^3
#
#
#
# Elastic Constant Matrix: (Units=GPa)
#
#
# Indices 1 2 3 4 5 6 
#
# 1 117.9811 95.0977 63.0020 0.0000 0.0000 0.0000
# 2 95.0977 150.6806 66.2458 0.0000 0.0000 0.0000
# 3 63.0020 66.2458 68.1322 0.0000 0.0000 0.0000
# 4 0.0000 0.0000 0.0000 49.9146 0.0000 0.0000
# 5 0.0000 0.0000 0.0000 0.0000 60.6899 0.0000
# 6 0.0000 0.0000 0.0000 0.0000 0.0000 36.1723
#
#
#
# Elastic Compliance Matrix: (Units=1/GPa)
#
#
# Indices 1 2 3 4 5 6 
#
# 1 0.021529 -0.008445 -0.011697 0.000000 0.000000 0.000000
# 2 -0.008445 0.014904 -0.006682 0.000000 0.000000 0.000000
# 3 -0.011697 -0.006682 0.031991 0.000000 0.000000 0.000000
# 4 0.000000 0.000000 0.000000 0.020034 0.000000 0.000000
# 5 0.000000 0.000000 0.000000 0.000000 0.016477 0.000000
# 6 0.000000 0.000000 0.000000 0.000000 0.000000 0.027645
#
#
# Mechanical properties :
#
#
# Convention : Reuss Voigt Hill
#
# Bulk Modulus (GPa) = 67.67906 87.27609 77.47757
# Shear Modulus (GPa) = 26.15681 36.85190 31.50435
#
# Velocity S-wave (km/s) = 3.70967 4.40324 4.07125
# Velocity P-wave (km/s) = 7.34549 8.47166 7.92860
#
# Compressibility (1/GPa) = 0.01477562
#
# Stress axis : x y z
#
# Youngs Moduli (GPa) = 46.44885 67.09461 31.25901
#
# Poissons Ratio (x) = 0.56662 0.36563
# Poissons Ratio (y) = 0.39226 0.20889
# Poissons Ratio (z) = 0.54330 0.44836
#
# Static dielectric constant tensor:
#      x y z
#    x 1.660170 0.000000 0.000000 
#    y 0.000000 1.552020 0.000000 
#    z 0.000000 0.000000 1.647290 
# 
# From -- ./inp_files/40853.got.cif
#   From: 2010.05.17/outbox.cif.g08.bks.cpg/sg69_21_cif.got.tgz:40853.got - 2010.06.03 19:29:58.
