data_PCOD9512840
_publ_section_title
;
Structure prediction by ZEFSAII (Michael W. Deem and Ramdas Pophale) SiO2 
 PCOD9512840
Probable space group: F M M M
;
_chemical_formula_sum "Si O2"
_cell_formula_units_Z 160
_cell_length_a 28.293493
_cell_length_b 20.555291
_cell_length_c 14.487913
_cell_angle_alpha 90.000000
_cell_angle_beta 90.000000
_cell_angle_gamma 90.000000
_cell_volume 8425.894670
_symmetry_space_group_name_H-M "F M M M"
_symmetry_group_IT_number 69
_symmetry_cell_setting 'orthorhombic'
loop_
_space_group_symop_operation_xyz
x,y,z
-x,-y,z
x,-y,-z
-x,y,-z
-x,-y,-z
x,y,-z
-x,y,z
x,-y,z
x,1/2+y,1/2+z
-x,1/2-y,1/2+z
x,1/2-y,1/2-z
-x,1/2+y,1/2-z
-x,1/2-y,1/2-z
x,1/2+y,1/2-z
-x,1/2+y,1/2+z
x,1/2-y,1/2+z
1/2+x,y,1/2+z
1/2-x,-y,1/2+z
1/2+x,-y,1/2-z
1/2-x,y,1/2-z
1/2-x,-y,1/2-z
1/2+x,y,1/2-z
1/2-x,y,1/2+z
1/2+x,-y,1/2+z
1/2+x,1/2+y,z
1/2-x,1/2-y,z
1/2+x,1/2-y,-z
1/2-x,1/2+y,-z
1/2-x,1/2-y,-z
1/2+x,1/2+y,-z
1/2-x,1/2+y,z
1/2+x,1/2-y,z
loop_
_atom_site_type_symbol
_atom_site_label
_atom_site_fract_x
_atom_site_fract_y
_atom_site_fract_z
Si Si1 0.553446 0.246164 0.888774
Si Si2 0.445432 0.000000 0.686117
Si Si3 0.194356 0.328336 0.743958
Si Si4 0.113477 0.375867 0.389140
Si Si5 0.875135 0.862485 0.395671
Si Si6 0.925319 0.000000 0.602186
O O1 0.500000 0.245658 0.854067
O O2 0.580671 0.312882 0.871179
O O3 0.584702 0.185597 0.855755
O O4 0.550639 0.239409 0.000000
O O5 0.414802 0.062420 0.652584
O O6 0.449482 0.000000 0.797685
O O7 0.500000 0.000000 0.649742
O O8 0.187903 0.250000 0.750000
O O9 0.250000 0.341626 0.750000
O O10 0.163627 0.359217 0.660080
O O11 0.170483 0.357408 0.834400
O O12 0.118882 0.383765 0.500000
O O13 0.864997 0.840955 0.500000
O O14 0.894690 0.934807 0.397103
O O15 0.949491 0.000000 0.500000
#
# Coordination Sequence:
#
# PCOD9512840 Si02
#       6
#    32  16  32  32  32  16
#     4   9  18  34  59  87 118 160 207 252 303 371
#     4  12  25  41  66  97 132 172 212 255 311 379
#     4  11  23  40  65  97 126 159 211 268 325 380
#     4  11  23  42  63  91 129 167 213 263 315 373
#     4  10  20  39  62  88 123 161 206 258 315 375
#     4  10  22  40  63  90 128 167 204 255 312 372
#
# _framework density 18.989080999999999
#
# number of rings (size 3 to 8) (size 9 to 14) (size 15 to 20)
#    0.000    1.600    4.000    0.900    0.000    3.400 
#    0.000    7.000    0.000    2.400    0.000    0.000 
#    0.000    0.000    0.000    0.000    0.000    0.000 
#
# Total GULP energy -223139.516606 kJ/mol
# GULP energy per Si atom -5578.487915 kJ/mol
# Density = 1.894586 g / cm^3
# Si number density = 18.989081 Si / 1000 Ang^3
#
#
#
# Elastic Constant Matrix: (Units=GPa)
#
#
# Indices 1 2 3 4 5 6 
#
# 1 181.8926 75.6276 72.1007 0.0000 0.0000 0.0000
# 2 75.6276 132.5920 35.1923 0.0000 0.0000 0.0000
# 3 72.1007 35.1923 142.8436 0.0000 0.0000 0.0000
# 4 0.0000 0.0000 0.0000 60.4859 0.0000 0.0000
# 5 0.0000 0.0000 0.0000 0.0000 95.7870 0.0000
# 6 0.0000 0.0000 0.0000 0.0000 0.0000 145.6562
#
#
#
# Elastic Compliance Matrix: (Units=1/GPa)
#
#
# Indices 1 2 3 4 5 6 
#
# 1 0.008440 -0.003941 -0.003289 0.000000 0.000000 0.000000
# 2 -0.003941 0.009910 -0.000452 0.000000 0.000000 0.000000
# 3 -0.003289 -0.000452 0.008772 0.000000 0.000000 0.000000
# 4 0.000000 0.000000 0.000000 0.016533 0.000000 0.000000
# 5 0.000000 0.000000 0.000000 0.000000 0.010440 0.000000
# 6 0.000000 0.000000 0.000000 0.000000 0.000000 0.006865
#
#
# Mechanical properties :
#
#
# Convention : Reuss Voigt Hill
#
# Bulk Modulus (GPa) = 85.05353 91.46327 88.25840
# Shear Modulus (GPa) = 62.30939 78.67965 70.49452
#
# Velocity S-wave (km/s) = 5.73450 6.44392 6.09953
# Velocity P-wave (km/s) = 9.41987 10.18019 9.80740
#
# Compressibility (1/GPa) = 0.01175730
#
# Stress axis : x y z
#
# Youngs Moduli (GPa) = 118.48044 100.90952 113.99468
#
# Poissons Ratio (x) = 0.39769 0.37496
# Poissons Ratio (y) = 0.46694 0.05155
# Poissons Ratio (z) = 0.38971 0.04563
#
# Static dielectric constant tensor:
#      x y z
#    x 1.634040 0.000000 0.000000 
#    y 0.000000 1.657950 0.000000 
#    z 0.000000 0.000000 1.714030 
# 
# From -- ./inp_files/19571.got.cif
#   From: 2010.05.17/outbox.cif.g08.bks.cpg/sg69_10_cif.got.tgz:19571.got - 2010.06.03 19:29:58.
