data_PCOD9512089
_publ_section_title
;
Structure prediction by ZEFSAII (Michael W. Deem and Ramdas Pophale) SiO2 
 PCOD9512089
Probable space group: F M M M
;
_chemical_formula_sum "Si O2"
_cell_formula_units_Z 128
_cell_length_a 13.824481
_cell_length_b 23.849388
_cell_length_c 19.697417
_cell_angle_alpha 90.000000
_cell_angle_beta 90.000000
_cell_angle_gamma 90.000000
_cell_volume 6494.344973
_symmetry_space_group_name_H-M "F M M M"
_symmetry_group_IT_number 69
_symmetry_cell_setting 'orthorhombic'
loop_
_space_group_symop_operation_xyz
x,y,z
-x,-y,z
x,-y,-z
-x,y,-z
-x,-y,-z
x,y,-z
-x,y,z
x,-y,z
x,1/2+y,1/2+z
-x,1/2-y,1/2+z
x,1/2-y,1/2-z
-x,1/2+y,1/2-z
-x,1/2-y,1/2-z
x,1/2+y,1/2-z
-x,1/2+y,1/2+z
x,1/2-y,1/2+z
1/2+x,y,1/2+z
1/2-x,-y,1/2+z
1/2+x,-y,1/2-z
1/2-x,y,1/2-z
1/2-x,-y,1/2-z
1/2+x,y,1/2-z
1/2-x,y,1/2+z
1/2+x,-y,1/2+z
1/2+x,1/2+y,z
1/2-x,1/2-y,z
1/2+x,1/2-y,-z
1/2-x,1/2+y,-z
1/2-x,1/2-y,-z
1/2+x,1/2+y,-z
1/2-x,1/2+y,z
1/2+x,1/2-y,z
loop_
_atom_site_type_symbol
_atom_site_label
_atom_site_fract_x
_atom_site_fract_y
_atom_site_fract_z
Si Si1 0.827587 0.116624 0.689939
Si Si2 0.822955 0.500000 0.578303
Si Si3 0.000000 0.798233 0.694827
Si Si4 0.500000 0.790766 0.580865
Si Si5 0.390730 0.500000 0.633360
Si Si6 0.171331 0.123237 0.918202
O O1 0.750000 0.112629 0.750000
O O2 0.876409 0.056345 0.676901
O O3 0.769998 0.133760 0.621636
O O4 0.907212 0.162872 0.704039
O O5 0.851367 0.500000 0.500000
O O6 0.705222 0.500000 0.585309
O O7 0.858288 0.559982 0.605674
O O8 0.000000 0.750000 0.750000
O O9 0.000000 0.766282 0.622775
O O10 0.500000 0.780782 0.500000
O O11 0.592562 0.829701 0.597413
O O12 0.500000 0.500000 0.603726
O O13 0.184082 0.121570 0.000000
#
# Coordination Sequence:
#
# PCOD9512089 Si02
#       6
#    32  16  16  16  16  32
#     4  11  23  40  63  87 117 151 190 240 294 350
#     4   8  16  31  56  89 119 150 190 232 288 350
#     4  12  26  41  58  85 116 154 202 241 284 341
#     4  10  22  39  59  85 119 158 203 243 281 335
#     4  10  19  38  61  86 117 146 183 237 295 352
#     4   9  19  37  60  87 119 153 192 241 291 342
#
# _framework density 19.709454999999998
#
# number of rings (size 3 to 8) (size 9 to 14) (size 15 to 20)
#    0.000    2.000    1.250    1.875    0.000    5.250 
#    0.000    5.000    0.000    0.000    0.000    0.000 
#    0.000    0.000    0.000    0.000    0.000    0.000 
#
# Total GULP energy -178539.825669 kJ/mol
# GULP energy per Si atom -5579.369552 kJ/mol
# Density = 1.966460 g / cm^3
# Si number density = 19.709455 Si / 1000 Ang^3
#
#
#
# Elastic Constant Matrix: (Units=GPa)
#
#
# Indices 1 2 3 4 5 6 
#
# 1 60.9083 24.0236 12.2772 0.0000 0.0000 0.0000
# 2 24.0236 80.4456 19.9212 0.0000 0.0000 0.0000
# 3 12.2772 19.9212 34.8385 0.0000 0.0000 0.0000
# 4 0.0000 0.0000 0.0000 29.4686 0.0000 0.0000
# 5 0.0000 0.0000 0.0000 0.0000 23.6407 0.0000
# 6 0.0000 0.0000 0.0000 0.0000 0.0000 53.5810
#
#
#
# Elastic Compliance Matrix: (Units=1/GPa)
#
#
# Indices 1 2 3 4 5 6 
#
# 1 0.019086 -0.004699 -0.004039 0.000000 0.000000 0.000000
# 2 -0.004699 0.015638 -0.007286 0.000000 0.000000 0.000000
# 3 -0.004039 -0.007286 0.034293 0.000000 0.000000 0.000000
# 4 0.000000 0.000000 0.000000 0.033934 0.000000 0.000000
# 5 0.000000 0.000000 0.000000 0.000000 0.042300 0.000000
# 6 0.000000 0.000000 0.000000 0.000000 0.000000 0.018663
#
#
# Mechanical properties :
#
#
# Convention : Reuss Voigt Hill
#
# Bulk Modulus (GPa) = 27.04967 32.07071 29.56019
# Shear Modulus (GPa) = 24.00531 29.33608 26.67069
#
# Velocity S-wave (km/s) = 3.49371 3.86220 3.68257
# Velocity P-wave (km/s) = 5.47985 6.01630 5.75433
#
# Compressibility (1/GPa) = 0.03696902
#
# Stress axis : x y z
#
# Youngs Moduli (GPa) = 52.39500 63.94480 29.16005
#
# Poissons Ratio (x) = 0.30051 0.11777
# Poissons Ratio (y) = 0.24623 0.21247
# Poissons Ratio (z) = 0.21161 0.46591
#
# Static dielectric constant tensor:
#      x y z
#    x 1.677470 0.000000 0.000000 
#    y 0.000000 1.695260 0.000000 
#    z 0.000000 0.000000 1.708370 
# 
# From -- ./inp_files/29689.got.cif
#   From: 2010.05.17/outbox.cif.g08.bks.cpg/sg69_15_cif.got.tgz:29689.got - 2010.06.03 19:29:58.
