data_PCOD9512757
_publ_section_title
;
Structure prediction by ZEFSAII (Michael W. Deem and Ramdas Pophale) SiO2 
 PCOD9512757
Probable space group: F M M M
;
_chemical_formula_sum "Si O2"
_cell_formula_units_Z 176
_cell_length_a 16.399037
_cell_length_b 19.017717
_cell_length_c 24.974522
_cell_angle_alpha 90.000000
_cell_angle_beta 90.000000
_cell_angle_gamma 90.000000
_cell_volume 7788.860237
_symmetry_space_group_name_H-M "F M M M"
_symmetry_group_IT_number 69
_symmetry_cell_setting 'orthorhombic'
loop_
_space_group_symop_operation_xyz
x,y,z
-x,-y,z
x,-y,-z
-x,y,-z
-x,-y,-z
x,y,-z
-x,y,z
x,-y,z
x,1/2+y,1/2+z
-x,1/2-y,1/2+z
x,1/2-y,1/2-z
-x,1/2+y,1/2-z
-x,1/2-y,1/2-z
x,1/2+y,1/2-z
-x,1/2+y,1/2+z
x,1/2-y,1/2+z
1/2+x,y,1/2+z
1/2-x,-y,1/2+z
1/2+x,-y,1/2-z
1/2-x,y,1/2-z
1/2-x,-y,1/2-z
1/2+x,y,1/2-z
1/2-x,y,1/2+z
1/2+x,-y,1/2+z
1/2+x,1/2+y,z
1/2-x,1/2-y,z
1/2+x,1/2-y,-z
1/2-x,1/2+y,-z
1/2-x,1/2-y,-z
1/2+x,1/2+y,-z
1/2-x,1/2+y,z
1/2+x,1/2-y,z
loop_
_atom_site_type_symbol
_atom_site_label
_atom_site_fract_x
_atom_site_fract_y
_atom_site_fract_z
Si Si1 0.833241 0.915696 0.115835
Si Si2 0.653443 0.922805 0.741828
Si Si3 0.173207 0.641719 0.060639
Si Si4 0.097155 0.291282 0.200216
Si Si5 0.500000 0.419443 0.564941
Si Si6 0.595635 0.723474 0.913416
O O1 0.856448 0.905478 0.178616
O O2 0.743168 0.887277 0.099633
O O3 0.888650 0.859722 0.083536
O O4 0.839191 0.000000 0.104963
O O5 0.750000 0.925353 0.750000
O O6 0.620059 0.870326 0.786147
O O7 0.617721 0.000000 0.749975
O O8 0.084707 0.615553 0.081510
O O9 0.157417 0.725352 0.055977
O O10 0.188005 0.614278 0.000000
O O11 0.135470 0.250000 0.250000
O O12 0.117132 0.250884 0.146339
O O13 0.000000 0.287479 0.202799
O O14 0.500000 0.500000 0.581278
O O15 0.500000 0.415416 0.500000
O O16 0.500000 0.737308 0.925695
#
# Coordination Sequence:
#
# PCOD9512757 Si02
#       6
#    32  32  32  32  16  32
#     4  11  24  40  62  94 128 167 216 265 318 385
#     4  10  21  37  57  85 123 163 205 257 316 376
#     4  11  23  42  66  94 126 164 211 267 329 391
#     4  10  20  37  61  89 119 161 213 261 308 371
#     4   9  18  36  64  92 118 155 201 255 325 389
#     4  11  23  41  65  95 131 170 218 268 318 384
#
# _framework density 22.596374000000001
#
# number of rings (size 3 to 8) (size 9 to 14) (size 15 to 20)
#    0.000    1.545    2.727    2.182    0.000    3.636 
#    0.000    2.727    0.000    0.000    0.000    2.545 
#    0.000    0.000    0.000    0.000    0.000    0.000 
#
# Total GULP energy -245462.117264 kJ/mol
# GULP energy per Si atom -5578.684483 kJ/mol
# Density = 2.254494 g / cm^3
# Si number density = 22.596374 Si / 1000 Ang^3
#
#
#
# Elastic Constant Matrix: (Units=GPa)
#
#
# Indices 1 2 3 4 5 6 
#
# 1 37.8615 15.0631 27.3610 0.0000 0.0000 0.0000
# 2 15.0631 155.4758 34.8554 0.0000 0.0000 0.0000
# 3 27.3610 34.8554 61.5548 0.0000 0.0000 0.0000
# 4 0.0000 0.0000 0.0000 21.4907 0.0000 0.0000
# 5 0.0000 0.0000 0.0000 0.0000 5.5882 0.0000
# 6 0.0000 0.0000 0.0000 0.0000 0.0000 34.9952
#
#
#
# Elastic Compliance Matrix: (Units=1/GPa)
#
#
# Indices 1 2 3 4 5 6 
#
# 1 0.038913 0.000123 -0.017367 0.000000 0.000000 0.000000
# 2 0.000123 0.007367 -0.004227 0.000000 0.000000 0.000000
# 3 -0.017367 -0.004227 0.026358 0.000000 0.000000 0.000000
# 4 0.000000 0.000000 0.000000 0.046532 0.000000 0.000000
# 5 0.000000 0.000000 0.000000 0.000000 0.178949 0.000000
# 6 0.000000 0.000000 0.000000 0.000000 0.000000 0.028575
#
#
# Mechanical properties :
#
#
# Convention : Reuss Voigt Hill
#
# Bulk Modulus (GPa) = 33.67102 45.49458 39.58280
# Shear Modulus (GPa) = 13.17403 24.25566 18.71485
#
# Velocity S-wave (km/s) = 2.41719 3.27988 2.88101
# Velocity P-wave (km/s) = 4.76695 5.87544 5.34998
#
# Compressibility (1/GPa) = 0.02969913
#
# Stress axis : x y z
#
# Youngs Moduli (GPa) = 25.69823 135.73167 37.93849
#
# Poissons Ratio (x) = -0.01673 0.65886
# Poissons Ratio (y) = -0.00317 0.16035
# Poissons Ratio (z) = 0.44629 0.57369
#
# Static dielectric constant tensor:
#      x y z
#    x 1.813160 0.000000 0.000000 
#    y 0.000000 1.918980 0.000000 
#    z 0.000000 0.000000 1.833200 
# 
# From -- ./inp_files/41854.got.cif
#   From: 2010.05.17/outbox.cif.g08.bks.cpg/sg69_21_cif.got.tgz:41854.got - 2010.06.03 19:29:58.
