data_PCOD9512489
_publ_section_title
;
Structure prediction by ZEFSAII (Michael W. Deem and Ramdas Pophale) SiO2 
 PCOD9512489
Probable space group: F M M M
;
_chemical_formula_sum "Si O2"
_cell_formula_units_Z 128
_cell_length_a 23.245642
_cell_length_b 16.081143
_cell_length_c 15.746453
_cell_angle_alpha 90.000000
_cell_angle_beta 90.000000
_cell_angle_gamma 90.000000
_cell_volume 5886.283840
_symmetry_space_group_name_H-M "F M M M"
_symmetry_group_IT_number 69
_symmetry_cell_setting 'orthorhombic'
loop_
_space_group_symop_operation_xyz
x,y,z
-x,-y,z
x,-y,-z
-x,y,-z
-x,-y,-z
x,y,-z
-x,y,z
x,-y,z
x,1/2+y,1/2+z
-x,1/2-y,1/2+z
x,1/2-y,1/2-z
-x,1/2+y,1/2-z
-x,1/2-y,1/2-z
x,1/2+y,1/2-z
-x,1/2+y,1/2+z
x,1/2-y,1/2+z
1/2+x,y,1/2+z
1/2-x,-y,1/2+z
1/2+x,-y,1/2-z
1/2-x,y,1/2-z
1/2-x,-y,1/2-z
1/2+x,y,1/2-z
1/2-x,y,1/2+z
1/2+x,-y,1/2+z
1/2+x,1/2+y,z
1/2-x,1/2-y,z
1/2+x,1/2-y,-z
1/2-x,1/2+y,-z
1/2-x,1/2-y,-z
1/2+x,1/2+y,-z
1/2-x,1/2+y,z
1/2+x,1/2-y,z
loop_
_atom_site_type_symbol
_atom_site_label
_atom_site_fract_x
_atom_site_fract_y
_atom_site_fract_z
Si Si1 0.677462 0.831760 0.308474
Si Si2 0.912700 0.093157 0.595944
Si Si3 0.785674 0.592014 0.141479
Si Si4 0.063926 0.223249 0.897154
O O1 0.682319 0.750000 0.250000
O O2 0.732759 0.845186 0.368378
O O3 0.688889 0.902351 0.237873
O O4 0.616907 0.825763 0.355370
O O5 0.935403 0.090419 0.500000
O O6 0.843956 0.106191 0.590794
O O7 0.933958 0.180078 0.634727
O O8 0.923173 0.000000 0.632995
O O9 0.764473 0.500000 0.122181
O O10 0.000000 0.190350 0.878336
O O11 0.071010 0.224627 0.000000
#
# Coordination Sequence:
#
# PCOD9512489 Si02
#       4
#    32  32  32  32
#     4  11  20  33  54  81 110 139 175 221 272 319
#     4   9  18  33  53  79 110 143 182 225 270 324
#     4  10  20  35  56  81 112 145 175 217 274 334
#     4  10  22  38  55  77 107 146 187 225 268 316
#
# _framework density 21.745469
#
# number of rings (size 3 to 8) (size 9 to 14) (size 15 to 20)
#    0.000    2.000    2.500    3.000    0.000    2.000 
#    0.000    5.000    0.000    5.250    0.000    7.000 
#    0.000    0.000    0.000    0.000    0.000    0.000 
#
# Total GULP energy -178203.719211 kJ/mol
# GULP energy per Si atom -5568.866225 kJ/mol
# Density = 2.169598 g / cm^3
# Si number density = 21.745469 Si / 1000 Ang^3
#
#
#
# Elastic Constant Matrix: (Units=GPa)
#
#
# Indices 1 2 3 4 5 6 
#
# 1 213.9665 53.6452 44.3730 0.0000 0.0000 0.0000
# 2 53.6452 53.4433 5.5066 0.0000 0.0000 0.0000
# 3 44.3730 5.5066 31.6358 0.0000 0.0000 0.0000
# 4 0.0000 0.0000 0.0000 12.8710 0.0000 0.0000
# 5 0.0000 0.0000 0.0000 0.0000 14.6150 0.0000
# 6 0.0000 0.0000 0.0000 0.0000 0.0000 15.0545
#
#
#
# Elastic Compliance Matrix: (Units=1/GPa)
#
#
# Indices 1 2 3 4 5 6 
#
# 1 0.008965 -0.007844 -0.011209 0.000000 0.000000 0.000000
# 2 -0.007844 0.025916 0.006491 0.000000 0.000000 0.000000
# 3 -0.011209 0.006491 0.046202 0.000000 0.000000 0.000000
# 4 0.000000 0.000000 0.000000 0.077694 0.000000 0.000000
# 5 0.000000 0.000000 0.000000 0.000000 0.068423 0.000000
# 6 0.000000 0.000000 0.000000 0.000000 0.000000 0.066425
#
#
# Mechanical properties :
#
#
# Convention : Reuss Voigt Hill
#
# Bulk Modulus (GPa) = 17.87030 56.23280 37.05155
# Shear Modulus (GPa) = 14.81918 21.54284 18.18101
#
# Velocity S-wave (km/s) = 2.61336 3.15092 2.89465
# Velocity P-wave (km/s) = 4.16437 6.25727 5.31486
#
# Compressibility (1/GPa) = 0.05595875
#
# Stress axis : x y z
#
# Youngs Moduli (GPa) = 111.54900 38.58638 21.64426
#
# Poissons Ratio (x) = 0.30266 0.24261
# Poissons Ratio (y) = 0.87495 -0.14049
# Poissons Ratio (z) = 1.25033 -0.25045
#
# Static dielectric constant tensor:
#      x y z
#    x 1.841040 0.000000 0.000000 
#    y 0.000000 1.844970 0.000000 
#    z 0.000000 0.000000 1.909680 
# 
# From -- ./inp_files/22747.got.cif
#   From: 2010.05.17/outbox.cif.g08.bks.cpg/sg69_12_cif.got.tgz:22747.got - 2010.06.03 19:29:58.
