data_PCOD9512220
_publ_section_title
;
Structure prediction by ZEFSAII (Michael W. Deem and Ramdas Pophale) SiO2 
 PCOD9512220
Probable space group: F M M M
;
_chemical_formula_sum "Si O2"
_cell_formula_units_Z 160
_cell_length_a 33.935259
_cell_length_b 9.718010
_cell_length_c 27.602398
_cell_angle_alpha 90.000000
_cell_angle_beta 90.000000
_cell_angle_gamma 90.000000
_cell_volume 9102.806762
_symmetry_space_group_name_H-M "F M M M"
_symmetry_group_IT_number 69
_symmetry_cell_setting 'orthorhombic'
loop_
_space_group_symop_operation_xyz
x,y,z
-x,-y,z
x,-y,-z
-x,y,-z
-x,-y,-z
x,y,-z
-x,y,z
x,-y,z
x,1/2+y,1/2+z
-x,1/2-y,1/2+z
x,1/2-y,1/2-z
-x,1/2+y,1/2-z
-x,1/2-y,1/2-z
x,1/2+y,1/2-z
-x,1/2+y,1/2+z
x,1/2-y,1/2+z
1/2+x,y,1/2+z
1/2-x,-y,1/2+z
1/2+x,-y,1/2-z
1/2-x,y,1/2-z
1/2-x,-y,1/2-z
1/2+x,y,1/2-z
1/2-x,y,1/2+z
1/2+x,-y,1/2+z
1/2+x,1/2+y,z
1/2-x,1/2-y,z
1/2+x,1/2-y,-z
1/2-x,1/2+y,-z
1/2-x,1/2-y,-z
1/2+x,1/2+y,-z
1/2-x,1/2+y,z
1/2+x,1/2-y,z
loop_
_atom_site_type_symbol
_atom_site_label
_atom_site_fract_x
_atom_site_fract_y
_atom_site_fract_z
Si Si1 0.353187 0.839442 0.613402
Si Si2 0.567426 0.148755 0.442118
Si Si3 0.088215 0.164369 0.200579
Si Si4 0.500000 0.163202 0.700686
Si Si5 0.000000 0.651207 0.940940
Si Si6 0.209370 0.664386 0.056315
O O1 0.388083 0.834535 0.573978
O O2 0.376764 0.803886 0.662754
O O3 0.320164 0.735357 0.594501
O O4 0.339488 0.000000 0.616270
O O5 0.565371 0.145240 0.500000
O O6 0.538623 0.267603 0.426213
O O7 0.553378 0.000000 0.423325
O O8 0.092387 0.250000 0.250000
O O9 0.043871 0.191716 0.179585
O O10 0.090298 0.000000 0.209943
O O11 0.500000 0.250000 0.750000
O O12 0.500000 0.000000 0.710565
O O13 0.000000 0.500000 0.920794
O O14 0.000000 0.645287 0.000000
O O15 0.214499 0.500000 0.064748
O O16 0.250000 0.750000 0.059387
O O17 0.195326 0.679528 0.000000
#
# Coordination Sequence:
#
# PCOD9512220 Si02
#       6
#    32  32  32  16  16  32
#     4  10  20  33  52  78 104 133 171 213 258 309
#     4   9  17  29  45  65  92 128 167 204 244 295
#     4   9  18  32  51  75 104 139 178 221 265 308
#     4   8  14  27  46  68  96 132 175 220 264 306
#     4   9  17  28  41  59  89 129 168 206 246 290
#     4  10  21  37  58  83 110 139 169 205 253 310
#
# _framework density 17.576996999999999
#
# number of rings (size 3 to 8) (size 9 to 14) (size 15 to 20)
#    0.000    2.700    0.000    1.500    0.000    5.600 
#    0.000    5.000    0.000    5.400    0.000    4.200 
#    0.000    0.000    0.000    0.000    0.000    0.000 
#
# Total GULP energy -222745.650995 kJ/mol
# GULP energy per Si atom -5568.641275 kJ/mol
# Density = 1.753699 g / cm^3
# Si number density = 17.576997 Si / 1000 Ang^3
#
#
#
# Elastic Constant Matrix: (Units=GPa)
#
#
# Indices 1 2 3 4 5 6 
#
# 1 86.2128 64.5746 50.4554 0.0000 0.0000 0.0001
# 2 64.5746 108.0940 58.1762 0.0000 0.0000 0.0001
# 3 50.4554 58.1762 84.2480 0.0000 0.0000 0.0000
# 4 0.0000 0.0000 0.0000 21.9647 0.0000 0.0000
# 5 0.0000 0.0000 0.0000 0.0000 40.7475 -0.0001
# 6 0.0001 0.0001 0.0000 0.0000 -0.0001 116.2413
#
#
#
# Elastic Compliance Matrix: (Units=1/GPa)
#
#
# Indices 1 2 3 4 5 6 
#
# 1 0.023267 -0.010185 -0.006901 0.000000 0.000000 0.000000
# 2 -0.010185 0.019182 -0.007146 0.000000 0.000000 0.000000
# 3 -0.006901 -0.007146 0.020937 0.000000 0.000000 0.000000
# 4 0.000000 0.000000 0.000000 0.045528 0.000000 0.000000
# 5 0.000000 0.000000 0.000000 0.000000 0.024541 0.000000
# 6 0.000000 0.000000 0.000000 0.000000 0.000000 0.008603
#
#
# Mechanical properties :
#
#
# Convention : Reuss Voigt Hill
#
# Bulk Modulus (GPa) = 67.01743 69.44080 68.22911
# Shear Modulus (GPa) = 25.57601 42.81393 34.19497
#
# Velocity S-wave (km/s) = 3.81870 4.94073 4.41550
# Velocity P-wave (km/s) = 7.59302 8.49354 8.05587
#
# Compressibility (1/GPa) = 0.01492149
#
# Stress axis : x y z
#
# Youngs Moduli (GPa) = 42.97931 52.13301 47.76226
#
# Poissons Ratio (x) = 0.53100 0.32961
# Poissons Ratio (y) = 0.43776 0.34129
# Poissons Ratio (z) = 0.29660 0.37253
#
# Static dielectric constant tensor:
#      x y z
#    x 1.595420 0.000000 0.000000 
#    y 0.000000 1.602040 0.000000 
#    z 0.000000 0.000000 1.626540 
# 
# From -- ./inp_files/44640.got.cif
#   From: 2010.05.17/outbox.cif.g08.bks.cpg/sg69_23_cif.got.tgz:44640.got - 2010.06.03 19:29:58.
