data_PCOD9512198
_publ_section_title
;
Structure prediction by ZEFSAII (Michael W. Deem and Ramdas Pophale) SiO2 
 PCOD9512198
Probable space group: F M M M
;
_chemical_formula_sum "Si O2"
_cell_formula_units_Z 128
_cell_length_a 10.383955
_cell_length_b 25.649937
_cell_length_c 27.789850
_cell_angle_alpha 90.000000
_cell_angle_beta 90.000000
_cell_angle_gamma 90.000000
_cell_volume 7401.765175
_symmetry_space_group_name_H-M "F M M M"
_symmetry_group_IT_number 69
_symmetry_cell_setting 'orthorhombic'
loop_
_space_group_symop_operation_xyz
x,y,z
-x,-y,z
x,-y,-z
-x,y,-z
-x,-y,-z
x,y,-z
-x,y,z
x,-y,z
x,1/2+y,1/2+z
-x,1/2-y,1/2+z
x,1/2-y,1/2-z
-x,1/2+y,1/2-z
-x,1/2-y,1/2-z
x,1/2+y,1/2-z
-x,1/2+y,1/2+z
x,1/2-y,1/2+z
1/2+x,y,1/2+z
1/2-x,-y,1/2+z
1/2+x,-y,1/2-z
1/2-x,y,1/2-z
1/2-x,-y,1/2-z
1/2+x,y,1/2-z
1/2-x,y,1/2+z
1/2+x,-y,1/2+z
1/2+x,1/2+y,z
1/2-x,1/2-y,z
1/2+x,1/2-y,-z
1/2-x,1/2+y,-z
1/2-x,1/2-y,-z
1/2+x,1/2+y,-z
1/2-x,1/2+y,z
1/2+x,1/2-y,z
loop_
_atom_site_type_symbol
_atom_site_label
_atom_site_fract_x
_atom_site_fract_y
_atom_site_fract_z
Si Si1 0.151033 0.099520 0.895752
Si Si2 0.356505 0.441164 0.321432
Si Si3 0.655758 0.440056 0.000000
Si Si4 0.146435 0.295082 0.660885
Si Si5 0.750000 0.141177 0.250000
O O1 0.244805 0.068376 0.860212
O O2 0.159769 0.159604 0.879119
O O3 0.000000 0.084154 0.889815
O O4 0.191044 0.088608 0.950556
O O5 0.500000 0.435947 0.342771
O O6 0.345365 0.500000 0.302027
O O7 0.339636 0.397579 0.280647
O O8 0.701888 0.500000 0.000000
O O9 0.500000 0.441729 0.000000
O O10 0.250000 0.250000 0.654054
O O11 0.174594 0.323323 0.711871
O O12 0.000000 0.275227 0.660294
#
# Coordination Sequence:
#
# PCOD9512198 Si02
#       5
#    32  32  16  32  16
#     4   9  19  35  54  77 103 133 171 211 251 299
#     4  10  20  33  50  75 107 139 169 206 254 304
#     4   9  16  30  56  83 103 129 167 207 244 291
#     4  10  21  35  52  73  98 130 168 212 257 299
#     4  10  20  34  52  72  98 134 176 212 246 296
#
# _framework density 17.293171999999998
#
# number of rings (size 3 to 8) (size 9 to 14) (size 15 to 20)
#    0.000    2.375    0.000    2.250    0.000    8.500 
#    0.000    1.250    0.000    2.250    0.000    0.000 
#    0.000    0.000    0.000    0.000    0.000    0.000 
#
# Total GULP energy -178411.876143 kJ/mol
# GULP energy per Si atom -5575.371129 kJ/mol
# Density = 1.725381 g / cm^3
# Si number density = 17.293172 Si / 1000 Ang^3
#
#
#
# Elastic Constant Matrix: (Units=GPa)
#
#
# Indices 1 2 3 4 5 6 
#
# 1 111.6851 58.3410 37.2260 0.0000 0.0000 0.0000
# 2 58.3410 77.6624 40.0376 0.0000 0.0000 0.0000
# 3 37.2260 40.0376 107.1644 0.0000 0.0000 0.0000
# 4 0.0000 0.0000 0.0000 7.1980 0.0000 0.0000
# 5 0.0000 0.0000 0.0000 0.0000 13.0682 0.0000
# 6 0.0000 0.0000 0.0000 0.0000 0.0000 3.2241
#
#
#
# Elastic Compliance Matrix: (Units=1/GPa)
#
#
# Indices 1 2 3 4 5 6 
#
# 1 0.014866 -0.010534 -0.001228 0.000000 0.000000 0.000000
# 2 -0.010534 0.023413 -0.005088 0.000000 0.000000 0.000000
# 3 -0.001228 -0.005088 0.011659 0.000000 0.000000 0.000000
# 4 0.000000 0.000000 0.000000 0.138928 0.000000 0.000000
# 5 0.000000 0.000000 0.000000 0.000000 0.076522 0.000000
# 6 0.000000 0.000000 0.000000 0.000000 0.000000 0.310169
#
#
# Mechanical properties :
#
#
# Convention : Reuss Voigt Hill
#
# Bulk Modulus (GPa) = 61.58874 63.08011 62.33443
# Shear Modulus (GPa) = 8.13445 15.42520 11.77982
#
# Velocity S-wave (km/s) = 2.17119 2.98985 2.61278
# Velocity P-wave (km/s) = 6.47898 6.96240 6.72504
#
# Compressibility (1/GPa) = 0.01623673
#
# Stress axis : x y z
#
# Youngs Moduli (GPa) = 67.26777 42.71184 85.77045
#
# Poissons Ratio (x) = 0.44994 0.10535
# Poissons Ratio (y) = 0.70862 0.43639
# Poissons Ratio (z) = 0.08263 0.21731
#
# Static dielectric constant tensor:
#      x y z
#    x 1.586910 0.000000 0.000000 
#    y 0.000000 1.583550 0.000000 
#    z 0.000000 0.000000 1.572580 
# 
# From -- ./inp_files/5328.got.cif
#   From: 2010.05.17/outbox.cif.g08.bks.cpg/sg69_3_cif.got.tgz:5328.got - 2010.06.03 19:29:58.
