data_PCOD9512458
_publ_section_title
;
Structure prediction by ZEFSAII (Michael W. Deem and Ramdas Pophale) SiO2 
 PCOD9512458
Probable space group: F M M M
;
_chemical_formula_sum "Si O2"
_cell_formula_units_Z 144
_cell_length_a 7.870544
_cell_length_b 29.065045
_cell_length_c 32.728083
_cell_angle_alpha 90.000000
_cell_angle_beta 90.000000
_cell_angle_gamma 90.000000
_cell_volume 7486.801501
_symmetry_space_group_name_H-M "F M M M"
_symmetry_group_IT_number 69
_symmetry_cell_setting 'orthorhombic'
loop_
_space_group_symop_operation_xyz
x,y,z
-x,-y,z
x,-y,-z
-x,y,-z
-x,-y,-z
x,y,-z
-x,y,z
x,-y,z
x,1/2+y,1/2+z
-x,1/2-y,1/2+z
x,1/2-y,1/2-z
-x,1/2+y,1/2-z
-x,1/2-y,1/2-z
x,1/2+y,1/2-z
-x,1/2+y,1/2+z
x,1/2-y,1/2+z
1/2+x,y,1/2+z
1/2-x,-y,1/2+z
1/2+x,-y,1/2-z
1/2-x,y,1/2-z
1/2-x,-y,1/2-z
1/2+x,y,1/2-z
1/2-x,y,1/2+z
1/2+x,-y,1/2+z
1/2+x,1/2+y,z
1/2-x,1/2-y,z
1/2+x,1/2-y,-z
1/2-x,1/2+y,-z
1/2-x,1/2-y,-z
1/2+x,1/2+y,-z
1/2-x,1/2+y,z
1/2+x,1/2-y,z
loop_
_atom_site_type_symbol
_atom_site_label
_atom_site_fract_x
_atom_site_fract_y
_atom_site_fract_z
Si Si1 0.298363 0.803469 0.204470
Si Si2 0.204841 0.803845 0.454957
Si Si3 0.304559 0.056123 0.500000
Si Si4 0.294622 0.947682 0.411422
Si Si5 0.295813 0.856330 0.874537
O O1 0.500000 0.805819 0.202416
O O2 0.250000 0.819004 0.250000
O O3 0.250000 0.750000 0.200026
O O4 0.228077 0.832772 0.166618
O O5 0.266445 0.819595 0.500000
O O6 0.250000 0.750000 0.450898
O O7 0.270629 0.831282 0.415630
O O8 0.000000 0.807550 0.455204
O O9 0.500000 0.072349 0.500000
O O10 0.226448 0.068163 0.543770
O O11 0.309607 0.000000 0.500000
O O12 0.500000 0.948857 0.414490
O O13 0.244486 0.909991 0.378660
O O14 0.237814 0.000000 0.403542
O O15 0.500000 0.851093 0.874737
#
# Coordination Sequence:
#
# PCOD9512458 Si02
#       5
#    32  32  16  32  32
#     4  10  20  35  55  79 105 131 164 206 254 304
#     4   9  18  32  47  66  97 133 166 199 237 287
#     4   7  12  26  45  65  92 125 164 209 248 281
#     4   9  18  32  50  72  99 133 173 214 251 292
#     4  10  21  33  49  75 103 132 165 206 253 301
#
# _framework density 19.233848999999999
#
# number of rings (size 3 to 8) (size 9 to 14) (size 15 to 20)
#    0.000    2.778    0.000    3.333    1.556    3.111 
#    0.000    0.000    0.000    2.667    0.000    0.000 
#    0.000    0.000    0.000    0.000    0.000    0.000 
#
# Total GULP energy -200785.418310 kJ/mol
# GULP energy per Si atom -5577.372731 kJ/mol
# Density = 1.919007 g / cm^3
# Si number density = 19.233849 Si / 1000 Ang^3
#
#
#
# Elastic Constant Matrix: (Units=GPa)
#
#
# Indices 1 2 3 4 5 6 
#
# 1 26.1384 -0.1495 16.5182 0.0000 0.0000 0.0000
# 2 -0.1495 92.0165 95.5287 0.0000 0.0000 0.0000
# 3 16.5182 95.5287 172.6527 0.0000 0.0000 0.0000
# 4 0.0000 0.0000 0.0000 29.7881 0.0000 0.0000
# 5 0.0000 0.0000 0.0000 0.0000 22.4064 0.0000
# 6 0.0000 0.0000 0.0000 0.0000 0.0000 20.9708
#
#
#
# Elastic Compliance Matrix: (Units=1/GPa)
#
#
# Indices 1 2 3 4 5 6 
#
# 1 0.044733 0.010611 -0.010151 0.000000 0.000000 0.000000
# 2 0.010611 0.028053 -0.016537 0.000000 0.000000 0.000000
# 3 -0.010151 -0.016537 0.015913 0.000000 0.000000 0.000000
# 4 0.000000 0.000000 0.000000 0.033570 0.000000 0.000000
# 5 0.000000 0.000000 0.000000 0.000000 0.044630 0.000000
# 6 0.000000 0.000000 0.000000 0.000000 0.000000 0.047685
#
#
# Mechanical properties :
#
#
# Convention : Reuss Voigt Hill
#
# Bulk Modulus (GPa) = 17.68477 57.17804 37.43140
# Shear Modulus (GPa) = 18.82621 26.56040 22.69331
#
# Velocity S-wave (km/s) = 3.13198 3.72010 3.43864
# Velocity P-wave (km/s) = 4.72161 6.94583 5.93878
#
# Compressibility (1/GPa) = 0.05654584
#
# Stress axis : x y z
#
# Youngs Moduli (GPa) = 22.35465 35.64696 62.84188
#
# Poissons Ratio (x) = -0.37825 0.63790
# Poissons Ratio (y) = -0.23720 1.03921
# Poissons Ratio (z) = 0.22692 0.58949
#
# Static dielectric constant tensor:
#      x y z
#    x 1.708860 0.000000 0.000000 
#    y 0.000000 1.677870 0.000000 
#    z 0.000000 0.000000 1.715090 
# 
# From -- ./inp_files/5577.got.cif
#   From: 2010.05.17/outbox.cif.g08.bks.cpg/sg69_3_cif.got.tgz:5577.got - 2010.06.03 19:29:58.
