data_PCOD9512555
_publ_section_title
;
Structure prediction by ZEFSAII (Michael W. Deem and Ramdas Pophale) SiO2 
 PCOD9512555
Probable space group: F M M M
;
_chemical_formula_sum "Si O2"
_cell_formula_units_Z 192
_cell_length_a 17.895600
_cell_length_b 20.032583
_cell_length_c 28.408654
_cell_angle_alpha 90.000000
_cell_angle_beta 90.000000
_cell_angle_gamma 90.000000
_cell_volume 10184.363039
_symmetry_space_group_name_H-M "F M M M"
_symmetry_group_IT_number 69
_symmetry_cell_setting 'orthorhombic'
loop_
_space_group_symop_operation_xyz
x,y,z
-x,-y,z
x,-y,-z
-x,y,-z
-x,-y,-z
x,y,-z
-x,y,z
x,-y,z
x,1/2+y,1/2+z
-x,1/2-y,1/2+z
x,1/2-y,1/2-z
-x,1/2+y,1/2-z
-x,1/2-y,1/2-z
x,1/2+y,1/2-z
-x,1/2+y,1/2+z
x,1/2-y,1/2+z
1/2+x,y,1/2+z
1/2-x,-y,1/2+z
1/2+x,-y,1/2-z
1/2-x,y,1/2-z
1/2-x,-y,1/2-z
1/2+x,y,1/2-z
1/2-x,y,1/2+z
1/2+x,-y,1/2+z
1/2+x,1/2+y,z
1/2-x,1/2-y,z
1/2+x,1/2-y,-z
1/2-x,1/2+y,-z
1/2-x,1/2-y,-z
1/2+x,1/2+y,-z
1/2-x,1/2+y,z
1/2+x,1/2-y,z
loop_
_atom_site_type_symbol
_atom_site_label
_atom_site_fract_x
_atom_site_fract_y
_atom_site_fract_z
Si Si1 0.581594 0.235070 0.113786
Si Si2 0.132360 0.855337 0.943573
Si Si3 0.713234 0.629055 0.609143
Si Si4 0.200286 0.500000 0.054034
Si Si5 0.703431 0.923431 0.298170
Si Si6 0.585883 0.307279 0.214319
Si Si7 0.882470 0.500000 0.554023
O O1 0.500000 0.201787 0.111020
O O2 0.588262 0.291189 0.073647
O O3 0.650971 0.185340 0.112427
O O4 0.585752 0.274556 0.162895
O O5 0.215018 0.848740 0.921493
O O6 0.098869 0.926886 0.925860
O O7 0.136991 0.859194 0.000000
O O8 0.678639 0.565686 0.582249
O O9 0.746405 0.605850 0.659330
O O10 0.291611 0.500000 0.053654
O O11 0.175793 0.500000 0.000000
O O12 0.750000 0.925022 0.250000
O O13 0.634968 0.873559 0.288865
O O14 0.681946 0.000000 0.310337
O O15 0.500000 0.322035 0.228240
O O16 0.615098 0.250000 0.250000
O O17 0.909341 0.500000 0.500000
#
# Coordination Sequence:
#
# PCOD9512555 Si02
#       7
#    32  32  32  16  32  32  16
#     4  11  24  38  55  84 120 158 201 247 299 357
#     4  10  20  35  59  87 115 153 201 248 298 356
#     4  11  20  37  61  85 117 153 197 251 304 356
#     4   9  18  34  58  84 110 147 196 244 298 361
#     4  11  23  38  63  97 123 148 197 257 299 345
#     4  10  22  41  62  86 124 167 198 235 297 368
#     4   7  14  30  53  80 108 141 183 236 292 345
#
# _framework density 18.852430999999999
#
# number of rings (size 3 to 8) (size 9 to 14) (size 15 to 20)
#    0.000    1.833    2.500    3.000    0.000    4.333 
#    0.000    0.833    0.000    3.000    0.000    0.000 
#    0.000    0.667    0.000    0.000    0.000    0.000 
#
# Total GULP energy -267860.837023 kJ/mol
# GULP energy per Si atom -5580.434105 kJ/mol
# Density = 1.880952 g / cm^3
# Si number density = 18.852431 Si / 1000 Ang^3
#
#
#
# Elastic Constant Matrix: (Units=GPa)
#
#
# Indices 1 2 3 4 5 6 
#
# 1 81.8221 70.6663 25.1263 0.0000 0.0000 0.0000
# 2 70.6663 138.7265 36.6824 0.0000 0.0000 0.0000
# 3 25.1263 36.6824 96.2131 0.0000 0.0000 0.0000
# 4 0.0000 0.0000 0.0000 32.0218 0.0000 0.0000
# 5 0.0000 0.0000 0.0000 0.0000 29.5091 0.0000
# 6 0.0000 0.0000 0.0000 0.0000 0.0000 -7.8838
#
#
#
# Elastic Compliance Matrix: (Units=1/GPa)
#
#
# Indices 1 2 3 4 5 6 
#
# 1 0.022053 -0.010799 -0.001642 0.000000 0.000000 0.000000
# 2 -0.010799 0.013305 -0.002252 0.000000 0.000000 0.000000
# 3 -0.001642 -0.002252 0.011681 0.000000 0.000000 0.000000
# 4 0.000000 0.000000 0.000000 0.031229 0.000000 0.000000
# 5 0.000000 0.000000 0.000000 0.000000 0.033888 0.000000
# 6 0.000000 0.000000 0.000000 0.000000 0.000000 -0.126842
#
#
# Mechanical properties :
#
#
# Convention : Reuss Voigt Hill
#
# Bulk Modulus (GPa) = 56.65128 64.63462 60.64295
# Shear Modulus (GPa) = 242.89539 23.01519 132.95529
#
# Velocity S-wave (km/s) = 11.36310 3.49780 8.40698
# Velocity P-wave (km/s) = 14.22235 7.11841 11.24604
#
# Compressibility (1/GPa) = 0.01765185
#
# Stress axis : x y z
#
# Youngs Moduli (GPa) = 45.34567 75.15863 85.60821
#
# Poissons Ratio (x) = 0.81167 0.14055
# Poissons Ratio (y) = 0.48971 0.19283
# Poissons Ratio (z) = 0.07445 0.16929
#
# Static dielectric constant tensor:
#      x y z
#    x 1.645530 0.000000 0.000000 
#    y 0.000000 1.682660 0.000000 
#    z 0.000000 0.000000 1.657550 
# 
# From -- ./inp_files/46449.got.cif
#   From: 2010.05.17/outbox.cif.g08.bks.cpg/sg69_24_cif.got.tgz:46449.got - 2010.06.03 19:29:58.
