data_PCOD9512272
_publ_section_title
;
Structure prediction by ZEFSAII (Michael W. Deem and Ramdas Pophale) SiO2 
 PCOD9512272
Probable space group: F M M M
;
_chemical_formula_sum "Si O2"
_cell_formula_units_Z 144
_cell_length_a 14.189601
_cell_length_b 33.888784
_cell_length_c 18.856128
_cell_angle_alpha 90.000000
_cell_angle_beta 90.000000
_cell_angle_gamma 90.000000
_cell_volume 9067.314656
_symmetry_space_group_name_H-M "F M M M"
_symmetry_group_IT_number 69
_symmetry_cell_setting 'orthorhombic'
loop_
_space_group_symop_operation_xyz
x,y,z
-x,-y,z
x,-y,-z
-x,y,-z
-x,-y,-z
x,y,-z
-x,y,z
x,-y,z
x,1/2+y,1/2+z
-x,1/2-y,1/2+z
x,1/2-y,1/2-z
-x,1/2+y,1/2-z
-x,1/2-y,1/2-z
x,1/2+y,1/2-z
-x,1/2+y,1/2+z
x,1/2-y,1/2+z
1/2+x,y,1/2+z
1/2-x,-y,1/2+z
1/2+x,-y,1/2-z
1/2-x,y,1/2-z
1/2-x,-y,1/2-z
1/2+x,y,1/2-z
1/2-x,y,1/2+z
1/2+x,-y,1/2+z
1/2+x,1/2+y,z
1/2-x,1/2-y,z
1/2+x,1/2-y,-z
1/2-x,1/2+y,-z
1/2-x,1/2-y,-z
1/2+x,1/2+y,-z
1/2-x,1/2+y,z
1/2+x,1/2-y,z
loop_
_atom_site_type_symbol
_atom_site_label
_atom_site_fract_x
_atom_site_fract_y
_atom_site_fract_z
Si Si1 0.386052 0.413451 0.581880
Si Si2 0.000000 0.237692 0.916262
Si Si3 0.296933 0.793109 0.419504
Si Si4 0.320698 0.845702 0.188344
Si Si5 0.500000 0.707489 0.290967
Si Si6 0.607409 0.000000 0.914140
O O1 0.356355 0.404710 0.500000
O O2 0.500000 0.415492 0.580085
O O3 0.357823 0.381025 0.639148
O O4 0.350055 0.457312 0.603354
O O5 0.094092 0.213390 0.899783
O O6 0.000000 0.278098 0.872797
O O7 0.000000 0.246151 0.000000
O O8 0.291608 0.808999 0.500000
O O9 0.250000 0.750000 0.420402
O O10 0.240564 0.818406 0.363703
O O11 0.250000 0.859180 0.250000
O O12 0.406992 0.819187 0.218949
O O13 0.500000 0.750000 0.250000
O O14 0.500000 0.000000 0.886333
O O15 0.602004 0.000000 0.000000
#
# Coordination Sequence:
#
# PCOD9512272 Si02
#       6
#    32  16  32  32  16  16
#     4   9  17  33  56  82 105 129 164 211 261 314
#     4  10  20  34  52  70  91 123 174 224 271 307
#     4  10  20  34  51  71  94 128 173 222 265 305
#     4  12  24  34  49  72 105 136 177 213 258 306
#     4  12  24  36  48  65  92 140 182 216 260 299
#     4   7  12  26  53  82 106 127 153 199 265 319
#
# _framework density 15.881218000000001
#
# number of rings (size 3 to 8) (size 9 to 14) (size 15 to 20)
#    0.000    1.889    3.333    3.333    0.000    0.889 
#    0.000    0.556    0.000    0.000    0.000    0.000 
#    0.000    0.000    0.000   13.556    0.000    0.000 
#
# Total GULP energy -200603.520227 kJ/mol
# GULP energy per Si atom -5572.320006 kJ/mol
# Density = 1.584507 g / cm^3
# Si number density = 15.881218 Si / 1000 Ang^3
#
#
#
# Elastic Constant Matrix: (Units=GPa)
#
#
# Indices 1 2 3 4 5 6 
#
# 1 90.2615 30.8880 26.8773 0.0000 0.0000 0.0000
# 2 30.8880 98.5217 43.9295 0.0000 0.0000 0.0000
# 3 26.8773 43.9295 63.7145 0.0000 0.0000 0.0000
# 4 0.0000 0.0000 0.0000 23.1172 0.0000 0.0000
# 5 0.0000 0.0000 0.0000 0.0000 44.5915 0.0000
# 6 0.0000 0.0000 0.0000 0.0000 0.0000 9.8952
#
#
#
# Elastic Compliance Matrix: (Units=1/GPa)
#
#
# Indices 1 2 3 4 5 6 
#
# 1 0.013040 -0.002362 -0.003873 0.000000 0.000000 0.000000
# 2 -0.002362 0.015083 -0.009403 0.000000 0.000000 0.000000
# 3 -0.003873 -0.009403 0.023812 0.000000 0.000000 0.000000
# 4 0.000000 0.000000 0.000000 0.043258 0.000000 0.000000
# 5 0.000000 0.000000 0.000000 0.000000 0.022426 0.000000
# 6 0.000000 0.000000 0.000000 0.000000 0.000000 0.101059
#
#
# Mechanical properties :
#
#
# Convention : Reuss Voigt Hill
#
# Bulk Modulus (GPa) = 48.40170 50.65415 49.52793
# Shear Modulus (GPa) = 19.46736 25.57430 22.52083
#
# Velocity S-wave (km/s) = 3.50496 4.01727 3.76983
# Velocity P-wave (km/s) = 6.85004 7.31319 7.08540
#
# Compressibility (1/GPa) = 0.02066043
#
# Stress axis : x y z
#
# Youngs Moduli (GPa) = 76.68579 66.29880 41.99561
#
# Poissons Ratio (x) = 0.15657 0.16264
# Poissons Ratio (y) = 0.18110 0.39490
# Poissons Ratio (z) = 0.29698 0.62343
#
# Static dielectric constant tensor:
#      x y z
#    x 1.535300 0.000000 0.000000 
#    y 0.000000 1.540240 0.000000 
#    z 0.000000 0.000000 1.557480 
# 
# From -- ./inp_files/21784.got.cif
#   From: 2010.05.17/outbox.cif.g08.bks.cpg/sg69_11_cif.got.tgz:21784.got - 2010.06.03 19:29:58.
