data_PCOD9512647
_publ_section_title
;
Structure prediction by ZEFSAII (Michael W. Deem and Ramdas Pophale) SiO2 
 PCOD9512647
Probable space group: F M M M
;
_chemical_formula_sum "Si O2"
_cell_formula_units_Z 144
_cell_length_a 15.598229
_cell_length_b 16.922040
_cell_length_c 28.987146
_cell_angle_alpha 90.000000
_cell_angle_beta 90.000000
_cell_angle_gamma 90.000000
_cell_volume 7651.268934
_symmetry_space_group_name_H-M "F M M M"
_symmetry_group_IT_number 69
_symmetry_cell_setting 'orthorhombic'
loop_
_space_group_symop_operation_xyz
x,y,z
-x,-y,z
x,-y,-z
-x,y,-z
-x,-y,-z
x,y,-z
-x,y,z
x,-y,z
x,1/2+y,1/2+z
-x,1/2-y,1/2+z
x,1/2-y,1/2-z
-x,1/2+y,1/2-z
-x,1/2-y,1/2-z
x,1/2+y,1/2-z
-x,1/2+y,1/2+z
x,1/2-y,1/2+z
1/2+x,y,1/2+z
1/2-x,-y,1/2+z
1/2+x,-y,1/2-z
1/2-x,y,1/2-z
1/2-x,-y,1/2-z
1/2+x,y,1/2-z
1/2-x,y,1/2+z
1/2+x,-y,1/2+z
1/2+x,1/2+y,z
1/2-x,1/2-y,z
1/2+x,1/2-y,-z
1/2-x,1/2+y,-z
1/2-x,1/2-y,-z
1/2+x,1/2+y,-z
1/2-x,1/2+y,z
1/2+x,1/2-y,z
loop_
_atom_site_type_symbol
_atom_site_label
_atom_site_fract_x
_atom_site_fract_y
_atom_site_fract_z
Si Si1 0.896723 0.000000 0.447219
Si Si2 0.103418 0.588026 0.552341
Si Si3 0.763082 0.090006 0.804079
Si Si4 0.840820 0.210514 0.871744
Si Si5 0.597642 0.118684 0.866441
O O1 0.876582 0.923734 0.414976
O O2 0.862185 0.000000 0.500000
O O3 0.000000 0.000000 0.451485
O O4 0.131359 0.604182 0.500000
O O5 0.134036 0.500000 0.565278
O O6 0.133080 0.652673 0.587765
O O7 0.000000 0.586518 0.552341
O O8 0.750000 0.104692 0.750000
O O9 0.824488 0.155611 0.826994
O O10 0.671048 0.095697 0.829915
O O11 0.795437 0.000000 0.810222
O O12 0.750000 0.250000 0.882628
O O13 0.901386 0.286233 0.867867
O O14 0.500000 0.093009 0.855651
#
# Coordination Sequence:
#
# PCOD9512647 Si02
#       5
#    16  32  32  32  32
#     4   9  18  34  57  84 112 144 186 233 280 331
#     4   9  18  34  55  76 104 145 186 224 267 320
#     4  10  21  39  61  82 110 151 188 229 281 339
#     4  10  21  34  54  81 114 144 181 227 282 336
#     4  10  20  36  59  84 112 147 186 233 284 333
#
# _framework density 18.820406999999999
#
# number of rings (size 3 to 8) (size 9 to 14) (size 15 to 20)
#    0.000    2.333    1.111    2.000    0.000    5.333 
#    0.000    8.889    0.000    2.667    0.000    0.000 
#    0.000    0.000    0.000    0.000    0.000    0.000 
#
# Total GULP energy -200685.919798 kJ/mol
# GULP energy per Si atom -5574.608883 kJ/mol
# Density = 1.877757 g / cm^3
# Si number density = 18.820407 Si / 1000 Ang^3
#
#
#
# Elastic Constant Matrix: (Units=GPa)
#
#
# Indices 1 2 3 4 5 6 
#
# 1 31.9314 18.3447 23.8185 0.0000 0.0000 0.0000
# 2 18.3447 165.8666 86.4601 0.0000 0.0000 0.0000
# 3 23.8185 86.4601 143.1304 0.0000 0.0000 0.0000
# 4 0.0000 0.0000 0.0000 -137.4746 0.0000 0.0000
# 5 0.0000 0.0000 0.0000 0.0000 474.1582 0.0000
# 6 0.0000 0.0000 0.0000 0.0000 0.0000 3191.4140
#
#
#
# Elastic Compliance Matrix: (Units=1/GPa)
#
#
# Indices 1 2 3 4 5 6 
#
# 1 0.035933 -0.001251 -0.005224 0.000000 0.000000 0.000000
# 2 -0.001251 0.008843 -0.005134 0.000000 0.000000 0.000000
# 3 -0.005224 -0.005134 0.010957 0.000000 0.000000 0.000000
# 4 0.000000 0.000000 0.000000 -0.007274 0.000000 0.000000
# 5 0.000000 0.000000 0.000000 0.000000 0.002109 0.000000
# 6 0.000000 0.000000 0.000000 0.000000 0.000000 0.000313
#
#
# Mechanical properties :
#
#
# Convention : Reuss Voigt Hill
#
# Bulk Modulus (GPa) = 30.75452 66.46388 48.60920
# Shear Modulus (GPa) = 58.86709 719.77319 389.32014
#
# Velocity S-wave (km/s) = 5.59877 19.57736 14.39825
# Velocity P-wave (km/s) = 7.62702 23.37568 17.38669
#
# Compressibility (1/GPa) = 0.03251554
#
# Stress axis : x y z
#
# Youngs Moduli (GPa) = 27.82996 113.07922 91.26531
#
# Poissons Ratio (x) = 0.14148 0.47675
# Poissons Ratio (y) = 0.03482 0.46853
# Poissons Ratio (z) = 0.14538 0.58052
#
# Static dielectric constant tensor:
#      x y z
#    x 1.682440 0.000000 0.000000 
#    y 0.000000 1.683710 0.000000 
#    z 0.000000 0.000000 1.627350 
# 
# From -- ./inp_files/23015.got.cif
#   From: 2010.05.17/outbox.cif.g08.bks.cpg/sg69_12_cif.got.tgz:23015.got - 2010.06.03 19:29:58.
