data_PCOD9512960
_publ_section_title
;
Structure prediction by ZEFSAII (Michael W. Deem and Ramdas Pophale) SiO2 
 PCOD9512960
Probable space group: F M M M
;
_chemical_formula_sum "Si O2"
_cell_formula_units_Z 160
_cell_length_a 26.394709
_cell_length_b 23.666297
_cell_length_c 14.954921
_cell_angle_alpha 90.000000
_cell_angle_beta 90.000000
_cell_angle_gamma 90.000000
_cell_volume 9341.816062
_symmetry_space_group_name_H-M "F M M M"
_symmetry_group_IT_number 69
_symmetry_cell_setting 'orthorhombic'
loop_
_space_group_symop_operation_xyz
x,y,z
-x,-y,z
x,-y,-z
-x,y,-z
-x,-y,-z
x,y,-z
-x,y,z
x,-y,z
x,1/2+y,1/2+z
-x,1/2-y,1/2+z
x,1/2-y,1/2-z
-x,1/2+y,1/2-z
-x,1/2-y,1/2-z
x,1/2+y,1/2-z
-x,1/2+y,1/2+z
x,1/2-y,1/2+z
1/2+x,y,1/2+z
1/2-x,-y,1/2+z
1/2+x,-y,1/2-z
1/2-x,y,1/2-z
1/2-x,-y,1/2-z
1/2+x,y,1/2-z
1/2-x,y,1/2+z
1/2+x,-y,1/2+z
1/2+x,1/2+y,z
1/2-x,1/2-y,z
1/2+x,1/2-y,-z
1/2-x,1/2+y,-z
1/2-x,1/2-y,-z
1/2+x,1/2+y,-z
1/2-x,1/2+y,z
1/2+x,1/2-y,z
loop_
_atom_site_type_symbol
_atom_site_label
_atom_site_fract_x
_atom_site_fract_y
_atom_site_fract_z
Si Si1 0.374623 0.772186 0.500000
Si Si2 0.058911 0.500000 0.107600
Si Si3 0.377908 0.609561 0.663064
Si Si4 0.299194 0.376424 0.000000
Si Si5 0.301858 0.567570 0.194328
Si Si6 0.057736 0.223487 0.652223
Si Si7 0.685254 0.654905 0.500000
O O1 0.343983 0.830276 0.500000
O O2 0.410244 0.762843 0.414130
O O3 0.336661 0.718339 0.500000
O O4 0.088807 0.445164 0.141082
O O5 0.000000 0.500000 0.136085
O O6 0.059829 0.500000 0.000000
O O7 0.347246 0.599214 0.754106
O O8 0.414445 0.663499 0.659999
O O9 0.336727 0.621788 0.585642
O O10 0.299971 0.412650 0.908527
O O11 0.245348 0.344730 0.000000
O O12 0.309702 0.500000 0.198740
O O13 0.250000 0.579624 0.250000
O O14 0.056844 0.250000 0.750000
O O15 0.000000 0.216515 0.619963
#
# Coordination Sequence:
#
# PCOD9512960 Si02
#       7
#    16  16  32  16  32  32  16
#     4  10  22  37  58  83 117 148 187 246 294 343
#     4  11  22  34  57  91 119 151 189 234 296 354
#     4  11  20  38  57  85 120 154 185 242 293 348
#     4  12  22  39  57  84 114 157 202 237 288 351
#     4  11  23  37  58  84 116 158 200 238 287 345
#     4  10  21  38  60  85 111 148 195 239 291 347
#     4  10  21  35  57  82 117 151 193 237 289 352
#
# _framework density 17.127291
#
# number of rings (size 3 to 8) (size 9 to 14) (size 15 to 20)
#    0.000    1.300    4.000    2.700    0.000    0.000 
#    1.800    0.000    0.000    0.000    0.000    0.700 
#    0.000    0.000    0.000    0.000    0.000    0.000 
#
# Total GULP energy -223326.846233 kJ/mol
# GULP energy per Si atom -5583.171156 kJ/mol
# Density = 1.708831 g / cm^3
# Si number density = 17.127291 Si / 1000 Ang^3
#
#
#
# Elastic Constant Matrix: (Units=GPa)
#
#
# Indices 1 2 3 4 5 6 
#
# 1 120.5671 42.3337 41.5486 0.0000 0.0000 0.0000
# 2 42.3337 74.0265 27.2870 0.0000 0.0000 0.0000
# 3 41.5486 27.2870 115.6623 0.0000 0.0000 0.0000
# 4 0.0000 0.0000 0.0000 26.1192 0.0000 0.0000
# 5 0.0000 0.0000 0.0000 0.0000 27.8817 0.0000
# 6 0.0000 0.0000 0.0000 0.0000 0.0000 32.5092
#
#
#
# Elastic Compliance Matrix: (Units=1/GPa)
#
#
# Indices 1 2 3 4 5 6 
#
# 1 0.011113 -0.005349 -0.002730 0.000000 0.000000 0.000000
# 2 -0.005349 0.017370 -0.002176 0.000000 0.000000 0.000000
# 3 -0.002730 -0.002176 0.010140 0.000000 0.000000 0.000000
# 4 0.000000 0.000000 0.000000 0.038286 0.000000 0.000000
# 5 0.000000 0.000000 0.000000 0.000000 0.035866 0.000000
# 6 0.000000 0.000000 0.000000 0.000000 0.000000 0.030760
#
#
# Mechanical properties :
#
#
# Convention : Reuss Voigt Hill
#
# Bulk Modulus (GPa) = 55.21210 59.17717 57.19463
# Shear Modulus (GPa) = 29.39729 30.57446 29.98587
#
# Velocity S-wave (km/s) = 4.14744 4.22966 4.18875
# Velocity P-wave (km/s) = 7.43245 7.64721 7.54059
#
# Compressibility (1/GPa) = 0.01811197
#
# Stress axis : x y z
#
# Youngs Moduli (GPa) = 89.98405 57.57114 98.61873
#
# Poissons Ratio (x) = 0.30794 0.26925
# Poissons Ratio (y) = 0.48131 0.21464
# Poissons Ratio (z) = 0.24567 0.12530
#
# Static dielectric constant tensor:
#      x y z
#    x 1.572710 0.000000 0.000000 
#    y 0.000000 1.551900 0.000000 
#    z 0.000000 0.000000 1.569530 
# 
# From -- ./inp_files/17833.got.cif
#   From: 2010.05.17/outbox.cif.g08.bks.cpg/sg69_9_cif.got.tgz:17833.got - 2010.06.03 19:29:58.
