data_PCOD9512140
_publ_section_title
;
Structure prediction by ZEFSAII (Michael W. Deem and Ramdas Pophale) SiO2 
 PCOD9512140
Probable space group: F M M M
;
_chemical_formula_sum "Si O2"
_cell_formula_units_Z 208
_cell_length_a 27.951298
_cell_length_b 17.217950
_cell_length_c 24.876860
_cell_angle_alpha 90.000000
_cell_angle_beta 90.000000
_cell_angle_gamma 90.000000
_cell_volume 11972.338430
_symmetry_space_group_name_H-M "F M M M"
_symmetry_group_IT_number 69
_symmetry_cell_setting 'orthorhombic'
loop_
_space_group_symop_operation_xyz
x,y,z
-x,-y,z
x,-y,-z
-x,y,-z
-x,-y,-z
x,y,-z
-x,y,z
x,-y,z
x,1/2+y,1/2+z
-x,1/2-y,1/2+z
x,1/2-y,1/2-z
-x,1/2+y,1/2-z
-x,1/2-y,1/2-z
x,1/2+y,1/2-z
-x,1/2+y,1/2+z
x,1/2-y,1/2+z
1/2+x,y,1/2+z
1/2-x,-y,1/2+z
1/2+x,-y,1/2-z
1/2-x,y,1/2-z
1/2-x,-y,1/2-z
1/2+x,y,1/2-z
1/2-x,y,1/2+z
1/2+x,-y,1/2+z
1/2+x,1/2+y,z
1/2-x,1/2-y,z
1/2+x,1/2-y,-z
1/2-x,1/2+y,-z
1/2-x,1/2-y,-z
1/2+x,1/2+y,-z
1/2-x,1/2+y,z
1/2+x,1/2-y,z
loop_
_atom_site_type_symbol
_atom_site_label
_atom_site_fract_x
_atom_site_fract_y
_atom_site_fract_z
Si Si1 0.055105 0.343627 0.241816
Si Si2 0.829523 0.909957 0.436187
Si Si3 0.231550 0.666253 0.434980
Si Si4 0.412144 0.332996 0.372470
Si Si5 0.942499 0.846995 0.861612
Si Si6 0.365205 0.090153 0.437558
Si Si7 0.500000 0.406957 0.437051
O O1 0.055357 0.250000 0.250000
O O2 0.085544 0.362460 0.189239
O O3 0.068717 0.374125 0.300576
O O4 0.000000 0.365598 0.230140
O O5 0.836359 0.893886 0.500000
O O6 0.773939 0.894302 0.423642
O O7 0.862911 0.854027 0.401460
O O8 0.842079 0.000000 0.426801
O O9 0.227435 0.670000 0.500000
O O10 0.250000 0.750000 0.416086
O O11 0.179409 0.640362 0.415730
O O12 0.424860 0.241789 0.369754
O O13 0.453651 0.373739 0.407108
O O14 0.912946 0.896426 0.903967
O O15 0.000000 0.849039 0.867775
O O16 0.373687 0.111091 0.500000
O O17 0.350910 0.000000 0.435983
O O18 0.500000 0.500000 0.434216
O O19 0.500000 0.384480 0.500000
#
# Coordination Sequence:
#
# PCOD9512140 Si02
#       7
#    32  32  32  32  32  32  16
#     4   8  15  31  53  72  95 128 175 223 264 297
#     4  10  20  32  48  74 110 144 171 205 253 308
#     4   9  17  32  54  78 100 129 174 217 250 303
#     4  11  18  33  52  74 101 139 177 211 252 305
#     4  10  20  35  55  78  99 132 178 225 260 302
#     4  10  21  36  53  75 107 140 166 205 268 321
#     4  11  22  32  43  68 109 145 169 202 251 302
#
# _framework density 17.373380999999998
#
# number of rings (size 3 to 8) (size 9 to 14) (size 15 to 20)
#    0.000    2.231    1.538    3.231    0.000    6.154 
#    0.000    2.308    0.000    0.923    0.000    6.462 
#    0.000    0.000    0.000    0.000    0.000    0.000 
#
# Total GULP energy -289928.596995 kJ/mol
# GULP energy per Si atom -5575.549942 kJ/mol
# Density = 1.733384 g / cm^3
# Si number density = 17.373381 Si / 1000 Ang^3
#
#
#
# Elastic Constant Matrix: (Units=GPa)
#
#
# Indices 1 2 3 4 5 6 
#
# 1 77.2648 16.1075 42.1403 0.0000 0.0000 0.0000
# 2 16.1075 33.4200 23.1411 0.0000 0.0000 0.0000
# 3 42.1403 23.1411 85.9670 0.0000 0.0000 0.0000
# 4 0.0000 0.0000 0.0000 8.9318 0.0000 0.0000
# 5 0.0000 0.0000 0.0000 0.0000 2.0893 0.0000
# 6 0.0000 0.0000 0.0000 0.0000 0.0000 25.5547
#
#
#
# Elastic Compliance Matrix: (Units=1/GPa)
#
#
# Indices 1 2 3 4 5 6 
#
# 1 0.017930 -0.003141 -0.007943 0.000000 0.000000 0.000000
# 2 -0.003141 0.037328 -0.008508 0.000000 0.000000 0.000000
# 3 -0.007943 -0.008508 0.017816 0.000000 0.000000 0.000000
# 4 0.000000 0.000000 0.000000 0.111959 0.000000 0.000000
# 5 0.000000 0.000000 0.000000 0.000000 0.478628 0.000000
# 6 0.000000 0.000000 0.000000 0.000000 0.000000 0.039132
#
#
# Mechanical properties :
#
#
# Convention : Reuss Voigt Hill
#
# Bulk Modulus (GPa) = 29.50906 39.93662 34.72284
# Shear Modulus (GPa) = 6.63768 14.99936 10.81852
#
# Velocity S-wave (km/s) = 1.95676 2.94147 2.49812
# Velocity P-wave (km/s) = 4.70396 5.87992 5.32451
#
# Compressibility (1/GPa) = 0.03388790
#
# Stress axis : x y z
#
# Youngs Moduli (GPa) = 55.77335 26.78976 56.12794
#
# Poissons Ratio (x) = 0.08416 0.44585
# Poissons Ratio (y) = 0.17520 0.47755
# Poissons Ratio (z) = 0.44303 0.22793
#
# Static dielectric constant tensor:
#      x y z
#    x 1.574050 0.000000 0.000000 
#    y 0.000000 1.614040 0.000000 
#    z 0.000000 0.000000 1.590840 
# 
# From -- ./inp_files/38501.got.cif
#   From: 2010.05.17/outbox.cif.g08.bks.cpg/sg69_20_cif.got.tgz:38501.got - 2010.06.03 19:29:58.
