data_PCOD9512696
_publ_section_title
;
Structure prediction by ZEFSAII (Michael W. Deem and Ramdas Pophale) SiO2 
 PCOD9512696
Probable space group: F M M M
;
_chemical_formula_sum "Si O2"
_cell_formula_units_Z 168
_cell_length_a 14.522762
_cell_length_b 18.845366
_cell_length_c 31.154309
_cell_angle_alpha 90.000000
_cell_angle_beta 90.000000
_cell_angle_gamma 90.000000
_cell_volume 8526.522053
_symmetry_space_group_name_H-M "F M M M"
_symmetry_group_IT_number 69
_symmetry_cell_setting 'orthorhombic'
loop_
_space_group_symop_operation_xyz
x,y,z
-x,-y,z
x,-y,-z
-x,y,-z
-x,-y,-z
x,y,-z
-x,y,z
x,-y,z
x,1/2+y,1/2+z
-x,1/2-y,1/2+z
x,1/2-y,1/2-z
-x,1/2+y,1/2-z
-x,1/2-y,1/2-z
x,1/2+y,1/2-z
-x,1/2+y,1/2+z
x,1/2-y,1/2+z
1/2+x,y,1/2+z
1/2-x,-y,1/2+z
1/2+x,-y,1/2-z
1/2-x,y,1/2-z
1/2-x,-y,1/2-z
1/2+x,y,1/2-z
1/2-x,y,1/2+z
1/2+x,-y,1/2+z
1/2+x,1/2+y,z
1/2-x,1/2-y,z
1/2+x,1/2-y,-z
1/2-x,1/2+y,-z
1/2-x,1/2-y,-z
1/2+x,1/2+y,-z
1/2-x,1/2+y,z
1/2+x,1/2-y,z
loop_
_atom_site_type_symbol
_atom_site_label
_atom_site_fract_x
_atom_site_fract_y
_atom_site_fract_z
Si Si1 0.152430 0.083932 0.842521
Si Si2 0.389141 0.710672 0.547963
Si Si3 0.893629 0.622628 0.438478
Si Si4 0.000000 0.805327 0.688632
Si Si5 0.312210 0.820387 0.137080
Si Si6 0.500000 0.357135 0.781082
Si Si7 0.327831 0.500000 0.000000
O O1 0.112100 0.113960 0.887284
O O2 0.254265 0.116105 0.842578
O O3 0.089464 0.108552 0.803104
O O4 0.151985 0.000000 0.844638
O O5 0.364687 0.686310 0.500000
O O6 0.500000 0.701796 0.553627
O O7 0.371539 0.795533 0.550924
O O8 0.334530 0.673458 0.586389
O O9 0.835476 0.563106 0.462749
O O10 0.000000 0.609723 0.451378
O O11 0.090862 0.813700 0.660431
O O12 0.000000 0.724912 0.705304
O O13 0.000000 0.857111 0.729704
O O14 0.250000 0.750000 0.143007
#
# Coordination Sequence:
#
# PCOD9512696 Si02
#       7
#    32  32  32  16  32  16   8
#     4  12  25  42  65 100 139 177 214 275 348 407
#     4  10  20  36  61  93 134 178 230 280 323 383
#     4  11  19  31  53  87 134 177 213 265 328 401
#     4  11  24  46  71  98 127 166 228 278 330 402
#     4  12  23  42  68  99 137 175 226 278 334 400
#     4  11  23  44  72 100 127 167 213 276 344 409
#     4  12  21  28  48  94 140 189 214 255 352 422
#
# _framework density 19.703227999999999
#
# number of rings (size 3 to 8) (size 9 to 14) (size 15 to 20)
#    0.000    0.762    7.619    1.143    0.000    1.143 
#    1.714    3.333    0.000    0.000    0.000    1.333 
#    0.000    0.000    0.000    0.000    0.000    0.000 
#
# Total GULP energy -234316.863209 kJ/mol
# GULP energy per Si atom -5578.972934 kJ/mol
# Density = 1.965838 g / cm^3
# Si number density = 19.703228 Si / 1000 Ang^3
#
#
#
# Elastic Constant Matrix: (Units=GPa)
#
#
# Indices 1 2 3 4 5 6 
#
# 1 114.9754 11.2640 56.5656 0.0000 0.0000 0.0000
# 2 11.2640 32.2360 14.0452 0.0000 0.0000 0.0000
# 3 56.5656 14.0452 124.9940 0.0000 0.0000 0.0000
# 4 0.0000 0.0000 0.0000 20.5549 0.0000 0.0000
# 5 0.0000 0.0000 0.0000 0.0000 7.4870 0.0000
# 6 0.0000 0.0000 0.0000 0.0000 0.0000 24.9919
#
#
#
# Elastic Compliance Matrix: (Units=1/GPa)
#
#
# Indices 1 2 3 4 5 6 
#
# 1 0.011288 -0.001807 -0.004905 0.000000 0.000000 0.000000
# 2 -0.001807 0.032907 -0.002880 0.000000 0.000000 0.000000
# 3 -0.004905 -0.002880 0.010544 0.000000 0.000000 0.000000
# 4 0.000000 0.000000 0.000000 0.048650 0.000000 0.000000
# 5 0.000000 0.000000 0.000000 0.000000 0.133564 0.000000
# 6 0.000000 0.000000 0.000000 0.000000 0.000000 0.040013
#
#
# Mechanical properties :
#
#
# Convention : Reuss Voigt Hill
#
# Bulk Modulus (GPa) = 28.12566 48.43944 38.28255
# Shear Modulus (GPa) = 16.23363 23.29547 19.76455
#
# Velocity S-wave (km/s) = 2.87349 3.44221 3.17063
# Velocity P-wave (km/s) = 5.03139 6.35896 5.73373
#
# Compressibility (1/GPa) = 0.03555472
#
# Stress axis : x y z
#
# Youngs Moduli (GPa) = 88.59116 30.38827 94.84217
#
# Poissons Ratio (x) = 0.05491 0.46522
# Poissons Ratio (y) = 0.16008 0.27314
# Poissons Ratio (z) = 0.43456 0.08752
#
# Static dielectric constant tensor:
#      x y z
#    x 1.712050 0.000000 0.000000 
#    y 0.000000 1.654440 0.000000 
#    z 0.000000 0.000000 1.713780 
# 
# From -- ./inp_files/41010.got.cif
#   From: 2010.05.17/outbox.cif.g08.bks.cpg/sg69_21_cif.got.tgz:41010.got - 2010.06.03 19:29:58.
