data_PCOD9512743
_publ_section_title
;
Structure prediction by ZEFSAII (Michael W. Deem and Ramdas Pophale) SiO2 
 PCOD9512743
Probable space group: F M M M
;
_chemical_formula_sum "Si O2"
_cell_formula_units_Z 160
_cell_length_a 14.010257
_cell_length_b 26.905230
_cell_length_c 21.086092
_cell_angle_alpha 90.000000
_cell_angle_beta 90.000000
_cell_angle_gamma 90.000000
_cell_volume 7948.385235
_symmetry_space_group_name_H-M "F M M M"
_symmetry_group_IT_number 69
_symmetry_cell_setting 'orthorhombic'
loop_
_space_group_symop_operation_xyz
x,y,z
-x,-y,z
x,-y,-z
-x,y,-z
-x,-y,-z
x,y,-z
-x,y,z
x,-y,z
x,1/2+y,1/2+z
-x,1/2-y,1/2+z
x,1/2-y,1/2-z
-x,1/2+y,1/2-z
-x,1/2-y,1/2-z
x,1/2+y,1/2-z
-x,1/2+y,1/2+z
x,1/2-y,1/2+z
1/2+x,y,1/2+z
1/2-x,-y,1/2+z
1/2+x,-y,1/2-z
1/2-x,y,1/2-z
1/2-x,-y,1/2-z
1/2+x,y,1/2-z
1/2-x,y,1/2+z
1/2+x,-y,1/2+z
1/2+x,1/2+y,z
1/2-x,1/2-y,z
1/2+x,1/2-y,-z
1/2-x,1/2+y,-z
1/2-x,1/2-y,-z
1/2+x,1/2+y,-z
1/2-x,1/2+y,z
1/2+x,1/2-y,z
loop_
_atom_site_type_symbol
_atom_site_label
_atom_site_fract_x
_atom_site_fract_y
_atom_site_fract_z
Si Si1 0.709534 0.443244 0.380438
Si Si2 0.000000 0.417737 0.075043
Si Si3 0.390239 0.382828 0.879487
Si Si4 0.646789 0.225975 0.573798
Si Si5 0.500000 0.693238 0.422700
Si Si6 0.108737 0.941660 0.251818
O O1 0.742244 0.500000 0.384552
O O2 0.603385 0.440535 0.409722
O O3 0.794731 0.409274 0.407971
O O4 0.684157 0.430648 0.307063
O O5 0.000000 0.361908 0.102854
O O6 0.000000 0.413905 0.000000
O O7 0.500000 0.392738 0.903358
O O8 0.371693 0.324106 0.887239
O O9 0.389041 0.405541 0.808393
O O10 0.621312 0.214152 0.500000
O O11 0.750000 0.250000 0.573756
O O12 0.586651 0.272641 0.597318
O O13 0.500000 0.690558 0.500000
O O14 0.000000 0.938685 0.278542
O O15 0.121129 0.000000 0.233215
#
# Coordination Sequence:
#
# PCOD9512743 Si02
#       6
#    32  16  32  32  16  32
#     4  11  22  38  60  88 125 166 207 256 307 367
#     4  11  23  40  64  92 119 156 209 267 320 364
#     4  11  22  35  59  93 124 157 203 253 305 368
#     4  10  20  37  60  84 113 152 199 250 301 360
#     4   9  18  35  57  79 104 139 189 242 292 347
#     4   9  18  36  61  88 119 161 212 258 303 362
#
# _framework density 20.129875999999999
#
# number of rings (size 3 to 8) (size 9 to 14) (size 15 to 20)
#    0.000    1.800    2.000    2.700    0.000    6.000 
#    0.000    0.000    0.000   11.400    0.000    8.400 
#    0.000    0.000    0.000    0.000    0.000    0.000 
#
# Total GULP energy -222777.279960 kJ/mol
# GULP energy per Si atom -5569.431999 kJ/mol
# Density = 2.008406 g / cm^3
# Si number density = 20.129876 Si / 1000 Ang^3
#
#
#
# Elastic Constant Matrix: (Units=GPa)
#
#
# Indices 1 2 3 4 5 6 
#
# 1 150.6881 34.8214 4.5670 0.0000 0.0000 0.0000
# 2 34.8214 93.6222 21.2932 0.0000 0.0000 0.0000
# 3 4.5670 21.2932 35.5044 0.0000 0.0000 0.0000
# 4 0.0000 0.0000 0.0000 23.5310 0.0000 0.0000
# 5 0.0000 0.0000 0.0000 0.0000 19.4233 0.0000
# 6 0.0000 0.0000 0.0000 0.0000 0.0000 21.4714
#
#
#
# Elastic Compliance Matrix: (Units=1/GPa)
#
#
# Indices 1 2 3 4 5 6 
#
# 1 0.007280 -0.002889 0.000796 0.000000 0.000000 0.000000
# 2 -0.002889 0.013515 -0.007734 0.000000 0.000000 0.000000
# 3 0.000796 -0.007734 0.032701 0.000000 0.000000 0.000000
# 4 0.000000 0.000000 0.000000 0.042497 0.000000 0.000000
# 5 0.000000 0.000000 0.000000 0.000000 0.051485 0.000000
# 6 0.000000 0.000000 0.000000 0.000000 0.000000 0.046574
#
#
# Mechanical properties :
#
#
# Convention : Reuss Voigt Hill
#
# Bulk Modulus (GPa) = 29.54816 44.57533 37.06175
# Shear Modulus (GPa) = 22.22380 27.49400 24.85890
#
# Velocity S-wave (km/s) = 3.32629 3.69972 3.51796
# Velocity P-wave (km/s) = 5.42797 6.35945 5.91208
#
# Compressibility (1/GPa) = 0.03384306
#
# Stress axis : x y z
#
# Youngs Moduli (GPa) = 137.37020 73.99455 30.57986
#
# Poissons Ratio (x) = 0.21374 -0.02434
# Poissons Ratio (y) = 0.39681 0.23649
# Poissons Ratio (z) = -0.10935 0.57224
#
# Static dielectric constant tensor:
#      x y z
#    x 1.777290 0.000000 0.000000 
#    y 0.000000 1.675640 0.000000 
#    z 0.000000 0.000000 1.745980 
# 
# From -- ./inp_files/35877.got.cif
#   From: 2010.05.17/outbox.cif.g08.bks.cpg/sg69_18_cif.got.tgz:35877.got - 2010.06.03 19:29:58.
