data_PCOD9512378
_publ_section_title
;
Structure prediction by ZEFSAII (Michael W. Deem and Ramdas Pophale) SiO2 
 PCOD9512378
Probable space group: F M M M
;
_chemical_formula_sum "Si O2"
_cell_formula_units_Z 160
_cell_length_a 14.985461
_cell_length_b 18.011229
_cell_length_c 28.810467
_cell_angle_alpha 90.000000
_cell_angle_beta 90.000000
_cell_angle_gamma 90.000000
_cell_volume 7776.134321
_symmetry_space_group_name_H-M "F M M M"
_symmetry_group_IT_number 69
_symmetry_cell_setting 'orthorhombic'
loop_
_space_group_symop_operation_xyz
x,y,z
-x,-y,z
x,-y,-z
-x,y,-z
-x,-y,-z
x,y,-z
-x,y,z
x,-y,z
x,1/2+y,1/2+z
-x,1/2-y,1/2+z
x,1/2-y,1/2-z
-x,1/2+y,1/2-z
-x,1/2-y,1/2-z
x,1/2+y,1/2-z
-x,1/2+y,1/2+z
x,1/2-y,1/2+z
1/2+x,y,1/2+z
1/2-x,-y,1/2+z
1/2+x,-y,1/2-z
1/2-x,y,1/2-z
1/2-x,-y,1/2-z
1/2+x,y,1/2-z
1/2-x,y,1/2+z
1/2+x,-y,1/2+z
1/2+x,1/2+y,z
1/2-x,1/2-y,z
1/2+x,1/2-y,-z
1/2-x,1/2+y,-z
1/2-x,1/2-y,-z
1/2+x,1/2+y,-z
1/2-x,1/2+y,z
1/2+x,1/2-y,z
loop_
_atom_site_type_symbol
_atom_site_label
_atom_site_fract_x
_atom_site_fract_y
_atom_site_fract_z
Si Si1 0.893791 0.856117 0.877653
Si Si2 0.751309 0.084123 0.553208
Si Si3 0.100553 0.418115 0.818985
Si Si4 0.893507 0.816231 0.599110
Si Si5 0.157950 0.587682 0.722070
O O1 0.830444 0.902944 0.911609
O O2 0.881077 0.771062 0.893699
O O3 0.861906 0.868304 0.824547
O O4 0.000000 0.873905 0.880215
O O5 0.720616 0.090670 0.500000
O O6 0.829600 0.143732 0.562378
O O7 0.786494 0.000000 0.560259
O O8 0.144956 0.500000 0.821941
O O9 0.137915 0.356673 0.853036
O O10 0.094484 0.396367 0.765434
O O11 0.000000 0.426799 0.835739
O O12 0.000000 0.826919 0.589972
O O13 0.150989 0.500000 0.710684
O O14 0.250000 0.601159 0.750000
#
# Coordination Sequence:
#
# PCOD9512378 Si02
#       5
#    32  32  32  32  32
#     4  11  24  41  63  92 128 169 208 252 311 377
#     4  11  25  44  66  91 119 156 206 263 319 376
#     4   9  17  31  53  80 112 151 193 238 288 344
#     4  10  22  40  63  93 127 162 202 252 314 379
#     4  10  20  34  55  84 119 162 210 253 293 344
#
# _framework density 20.575776000000001
#
# number of rings (size 3 to 8) (size 9 to 14) (size 15 to 20)
#    0.000    1.800    0.000    3.600    0.000    8.400 
#    0.000    8.000    0.000    0.000    0.000    0.000 
#    0.000    0.000    0.000    0.000    0.000    0.000 
#
# Total GULP energy -222981.458637 kJ/mol
# GULP energy per Si atom -5574.536466 kJ/mol
# Density = 2.052894 g / cm^3
# Si number density = 20.575776 Si / 1000 Ang^3
#
#
#
# Elastic Constant Matrix: (Units=GPa)
#
#
# Indices 1 2 3 4 5 6 
#
# 1 73.1809 20.6993 19.8078 0.0000 0.0000 0.0000
# 2 20.6993 56.2091 25.9929 0.0000 0.0000 0.0000
# 3 19.8078 25.9929 100.0242 0.0000 0.0000 0.0000
# 4 0.0000 0.0000 0.0000 23.9556 0.0000 0.0000
# 5 0.0000 0.0000 0.0000 0.0000 24.3722 0.0000
# 6 0.0000 0.0000 0.0000 0.0000 0.0000 15.0817
#
#
#
# Elastic Compliance Matrix: (Units=1/GPa)
#
#
# Indices 1 2 3 4 5 6 
#
# 1 0.015536 -0.004886 -0.001807 0.000000 0.000000 0.000000
# 2 -0.004886 0.021757 -0.004686 0.000000 0.000000 0.000000
# 3 -0.001807 -0.004686 0.011573 0.000000 0.000000 0.000000
# 4 0.000000 0.000000 0.000000 0.041744 0.000000 0.000000
# 5 0.000000 0.000000 0.000000 0.000000 0.041030 0.000000
# 6 0.000000 0.000000 0.000000 0.000000 0.000000 0.066305
#
#
# Mechanical properties :
#
#
# Convention : Reuss Voigt Hill
#
# Bulk Modulus (GPa) = 38.30219 40.26825 39.28522
# Shear Modulus (GPa) = 21.79539 23.54284 22.66912
#
# Velocity S-wave (km/s) = 3.25818 3.38627 3.32284
# Velocity P-wave (km/s) = 5.72799 5.90782 5.81860
#
# Compressibility (1/GPa) = 0.02610817
#
# Stress axis : x y z
#
# Youngs Moduli (GPa) = 64.36776 45.96226 86.40610
#
# Poissons Ratio (x) = 0.22455 0.15613
# Poissons Ratio (y) = 0.31447 0.40494
# Poissons Ratio (z) = 0.11631 0.21540
#
# Static dielectric constant tensor:
#      x y z
#    x 2.455060 0.000000 0.000000 
#    y 0.000000 1.760160 0.000000 
#    z 0.000000 0.000000 1.718350 
# 
# From -- ./inp_files/46310.got.cif
#   From: 2010.05.17/outbox.cif.g08.bks.cpg/sg69_24_cif.got.tgz:46310.got - 2010.06.03 19:29:58.
