data_PCOD9512020
_publ_section_title
;
Structure prediction by ZEFSAII (Michael W. Deem and Ramdas Pophale) SiO2 
 PCOD9512020
Probable space group: F M M M
;
_chemical_formula_sum "Si O2"
_cell_formula_units_Z 88
_cell_length_a 9.632970
_cell_length_b 14.821712
_cell_length_c 29.116276
_cell_angle_alpha 90.000000
_cell_angle_beta 90.000000
_cell_angle_gamma 90.000000
_cell_volume 4157.137655
_symmetry_space_group_name_H-M "F M M M"
_symmetry_group_IT_number 69
_symmetry_cell_setting 'orthorhombic'
loop_
_space_group_symop_operation_xyz
x,y,z
-x,-y,z
x,-y,-z
-x,y,-z
-x,-y,-z
x,y,-z
-x,y,z
x,-y,z
x,1/2+y,1/2+z
-x,1/2-y,1/2+z
x,1/2-y,1/2-z
-x,1/2+y,1/2-z
-x,1/2-y,1/2-z
x,1/2+y,1/2-z
-x,1/2+y,1/2+z
x,1/2-y,1/2+z
1/2+x,y,1/2+z
1/2-x,-y,1/2+z
1/2+x,-y,1/2-z
1/2-x,y,1/2-z
1/2-x,-y,1/2-z
1/2+x,y,1/2-z
1/2-x,y,1/2+z
1/2+x,-y,1/2+z
1/2+x,1/2+y,z
1/2-x,1/2-y,z
1/2+x,1/2-y,-z
1/2-x,1/2+y,-z
1/2-x,1/2-y,-z
1/2+x,1/2+y,-z
1/2-x,1/2+y,z
1/2+x,1/2-y,z
loop_
_atom_site_type_symbol
_atom_site_label
_atom_site_fract_x
_atom_site_fract_y
_atom_site_fract_z
Si Si1 0.652801 0.599297 0.181667
Si Si2 0.165416 0.844084 0.600073
Si Si3 0.163825 0.657545 0.000000
Si Si4 0.750000 0.750000 0.750000
O O1 0.500000 0.606968 0.159582
O O2 0.659373 0.500000 0.203914
O O3 0.770565 0.604819 0.143173
O O4 0.667999 0.681451 0.217003
O O5 0.250000 0.750000 0.600147
O O6 0.190139 0.887159 0.549524
O O7 0.000000 0.831145 0.605617
O O8 0.250000 0.750000 0.000000
O O9 0.000000 0.679868 0.000000
#
# Coordination Sequence:
#
# PCOD9512020 Si02
#       4
#    32  32  16   8
#     4  11  25  43  64  94 129 162 204 258 314 374
#     4  10  19  35  61  91 127 166 207 253 305 365
#     4   8  16  30  53  88 123 162 206 248 297 359
#     4  12  24  44  72  90 118 164 208 260 318 384
#
# _framework density 21.168412
#
# number of rings (size 3 to 8) (size 9 to 14) (size 15 to 20)
#    0.000    1.818    1.818    2.182    0.000    3.636 
#    0.000    0.909    0.000    5.455    0.000    0.000 
#    0.000    0.000    0.000    0.000    0.000    0.000 
#
# Total GULP energy -122621.549692 kJ/mol
# GULP energy per Si atom -5573.706804 kJ/mol
# Density = 2.112023 g / cm^3
# Si number density = 21.168412 Si / 1000 Ang^3
#
#
#
# Elastic Constant Matrix: (Units=GPa)
#
#
# Indices 1 2 3 4 5 6 
#
# 1 119.8400 31.7420 58.6599 0.0000 0.0000 0.0000
# 2 31.7420 127.3015 42.1578 0.0000 0.0000 0.0000
# 3 58.6599 42.1578 115.0933 0.0000 0.0000 0.0000
# 4 0.0000 0.0000 0.0000 -16.2987 0.0000 0.0000
# 5 0.0000 0.0000 0.0000 0.0000 17.0933 0.0000
# 6 0.0000 0.0000 0.0000 0.0000 0.0000 15.2384
#
#
#
# Elastic Compliance Matrix: (Units=1/GPa)
#
#
# Indices 1 2 3 4 5 6 
#
# 1 0.011236 -0.001030 -0.005349 0.000000 0.000000 0.000000
# 2 -0.001030 0.009034 -0.002784 0.000000 0.000000 0.000000
# 3 -0.005349 -0.002784 0.012435 0.000000 0.000000 0.000000
# 4 0.000000 0.000000 0.000000 -0.061354 0.000000 0.000000
# 5 0.000000 0.000000 0.000000 0.000000 0.058502 0.000000
# 6 0.000000 0.000000 0.000000 0.000000 0.000000 0.065624
#
#
# Mechanical properties :
#
#
# Convention : Reuss Voigt Hill
#
# Bulk Modulus (GPa) = 69.55187 69.70601 69.62894
# Shear Modulus (GPa) = 42.16011 18.51828 30.33919
#
# Velocity S-wave (km/s) = 4.46763 2.96092 3.78991
# Velocity P-wave (km/s) = 7.71627 6.68507 7.21910
#
# Compressibility (1/GPa) = 0.01437776
#
# Stress axis : x y z
#
# Youngs Moduli (GPa) = 89.00243 110.69009 80.41981
#
# Poissons Ratio (x) = 0.11402 0.43018
# Poissons Ratio (y) = 0.09168 0.22390
# Poissons Ratio (z) = 0.47609 0.30818
#
# Static dielectric constant tensor:
#      x y z
#    x 1.728290 0.000000 0.000000 
#    y 0.000000 1.782600 0.000000 
#    z 0.000000 0.000000 1.811640 
# 
# From -- ./inp_files/5042.got.cif
#   From: 2010.05.17/outbox.cif.g08.bks.cpg/sg69_3_cif.got.tgz:5042.got - 2010.06.03 19:29:58.
