data_PCOD9512591
_publ_section_title
;
Structure prediction by ZEFSAII (Michael W. Deem and Ramdas Pophale) SiO2 
 PCOD9512591
Probable space group: F M M M
;
_chemical_formula_sum "Si O2"
_cell_formula_units_Z 176
_cell_length_a 23.092071
_cell_length_b 22.797995
_cell_length_c 16.868992
_cell_angle_alpha 90.000000
_cell_angle_beta 90.000000
_cell_angle_gamma 90.000000
_cell_volume 8880.730082
_symmetry_space_group_name_H-M "F M M M"
_symmetry_group_IT_number 69
_symmetry_cell_setting 'orthorhombic'
loop_
_space_group_symop_operation_xyz
x,y,z
-x,-y,z
x,-y,-z
-x,y,-z
-x,-y,-z
x,y,-z
-x,y,z
x,-y,z
x,1/2+y,1/2+z
-x,1/2-y,1/2+z
x,1/2-y,1/2-z
-x,1/2+y,1/2-z
-x,1/2-y,1/2-z
x,1/2+y,1/2-z
-x,1/2+y,1/2+z
x,1/2-y,1/2+z
1/2+x,y,1/2+z
1/2-x,-y,1/2+z
1/2+x,-y,1/2-z
1/2-x,y,1/2-z
1/2-x,-y,1/2-z
1/2+x,y,1/2-z
1/2-x,y,1/2+z
1/2+x,-y,1/2+z
1/2+x,1/2+y,z
1/2-x,1/2-y,z
1/2+x,1/2-y,-z
1/2-x,1/2+y,-z
1/2-x,1/2-y,-z
1/2+x,1/2+y,-z
1/2-x,1/2+y,z
1/2+x,1/2-y,z
loop_
_atom_site_type_symbol
_atom_site_label
_atom_site_fract_x
_atom_site_fract_y
_atom_site_fract_z
Si Si1 0.908708 0.568036 0.500000
Si Si2 0.781440 0.929379 0.832546
Si Si3 0.566284 0.879747 0.835346
Si Si4 0.903903 0.633324 0.657142
Si Si5 0.569738 0.258150 0.594201
Si Si6 0.570641 0.500000 0.593018
Si Si7 0.266400 0.932409 0.500000
O O1 0.924814 0.500000 0.500000
O O2 0.928887 0.600534 0.579571
O O3 0.837537 0.570435 0.500000
O O4 0.750000 0.919785 0.750000
O O5 0.841079 0.894636 0.830708
O O6 0.792178 0.000000 0.840187
O O7 0.749204 0.909179 0.913519
O O8 0.500000 0.879979 0.865643
O O9 0.565321 0.877058 0.740595
O O10 0.591610 0.819594 0.869948
O O11 0.592955 0.940710 0.865627
O O12 0.903063 0.701804 0.636183
O O13 0.579724 0.256254 0.500000
O O14 0.500000 0.253933 0.607470
O O15 0.500000 0.500000 0.601229
O O16 0.583956 0.500000 0.500000
O O17 0.247854 0.000000 0.500000
#
# Coordination Sequence:
#
# PCOD9512591 Si02
#       7
#    16  32  32  32  32  16  16
#     4   9  18  30  47  76 110 147 179 218 276 340
#     4   9  18  32  54  81 111 147 187 230 280 338
#     4  10  21  34  54  80 110 145 186 235 281 335
#     4  11  19  32  55  81 112 147 187 231 277 333
#     4  10  20  36  56  80 111 149 194 237 278 334
#     4   9  18  34  54  75 100 139 185 224 276 334
#     4   7  12  26  48  71  99 137 175 215 265 327
#
# _framework density 19.818190999999999
#
# number of rings (size 3 to 8) (size 9 to 14) (size 15 to 20)
#    0.000    2.455    0.909    3.273    2.545    3.636 
#    0.000    0.000    4.000    4.364    0.000    1.273 
#    0.000    0.000    0.000    0.000    0.000    0.000 
#
# Total GULP energy -245335.827616 kJ/mol
# GULP energy per Si atom -5575.814264 kJ/mol
# Density = 1.977308 g / cm^3
# Si number density = 19.818191 Si / 1000 Ang^3
#
#
#
# Elastic Constant Matrix: (Units=GPa)
#
#
# Indices 1 2 3 4 5 6 
#
# 1 27.2778 22.5014 29.1925 0.0000 0.0000 0.0000
# 2 22.5014 164.1176 76.8771 0.0000 0.0000 0.0000
# 3 29.1925 76.8771 145.0906 0.0000 0.0000 0.0000
# 4 0.0000 0.0000 0.0000 29.5667 0.0000 0.0000
# 5 0.0000 0.0000 0.0000 0.0000 16.1344 0.0000
# 6 0.0000 0.0000 0.0000 0.0000 0.0000 16.1447
#
#
#
# Elastic Compliance Matrix: (Units=1/GPa)
#
#
# Indices 1 2 3 4 5 6 
#
# 1 0.047612 -0.002714 -0.008141 0.000000 0.000000 0.000000
# 2 -0.002714 0.008260 -0.003830 0.000000 0.000000 0.000000
# 3 -0.008141 -0.003830 0.010560 0.000000 0.000000 0.000000
# 4 0.000000 0.000000 0.000000 0.033822 0.000000 0.000000
# 5 0.000000 0.000000 0.000000 0.000000 0.061979 0.000000
# 6 0.000000 0.000000 0.000000 0.000000 0.000000 0.061940
#
#
# Mechanical properties :
#
#
# Convention : Reuss Voigt Hill
#
# Bulk Modulus (GPa) = 26.98383 65.95866 46.47124
# Shear Modulus (GPa) = 18.80429 26.23017 22.51723
#
# Velocity S-wave (km/s) = 3.08367 3.64200 3.37440
# Velocity P-wave (km/s) = 5.13068 7.14420 6.21947
#
# Compressibility (1/GPa) = 0.03705924
#
# Stress axis : x y z
#
# Youngs Moduli (GPa) = 21.00328 121.07265 94.69864
#
# Poissons Ratio (x) = 0.32860 0.77099
# Poissons Ratio (y) = 0.05701 0.36272
# Poissons Ratio (z) = 0.17100 0.46374
#
# Static dielectric constant tensor:
#      x y z
#    x 1.726860 0.000000 0.000000 
#    y 0.000000 1.687840 0.000000 
#    z 0.000000 0.000000 1.724630 
# 
# From -- ./inp_files/26819.got.cif
#   From: 2010.05.17/outbox.cif.g08.bks.cpg/sg69_14_cif.got.tgz:26819.got - 2010.06.03 19:29:58.
