data_PCOD9512906
_publ_section_title
;
Structure prediction by ZEFSAII (Michael W. Deem and Ramdas Pophale) SiO2 
 PCOD9512906
Probable space group: F M M M
;
_chemical_formula_sum "Si O2"
_cell_formula_units_Z 160
_cell_length_a 20.383628
_cell_length_b 30.088949
_cell_length_c 14.536124
_cell_angle_alpha 90.000000
_cell_angle_beta 90.000000
_cell_angle_gamma 90.000000
_cell_volume 8915.323820
_symmetry_space_group_name_H-M "F M M M"
_symmetry_group_IT_number 69
_symmetry_cell_setting 'orthorhombic'
loop_
_space_group_symop_operation_xyz
x,y,z
-x,-y,z
x,-y,-z
-x,y,-z
-x,-y,-z
x,y,-z
-x,y,z
x,-y,z
x,1/2+y,1/2+z
-x,1/2-y,1/2+z
x,1/2-y,1/2-z
-x,1/2+y,1/2-z
-x,1/2-y,1/2-z
x,1/2+y,1/2-z
-x,1/2+y,1/2+z
x,1/2-y,1/2+z
1/2+x,y,1/2+z
1/2-x,-y,1/2+z
1/2+x,-y,1/2-z
1/2-x,y,1/2-z
1/2-x,-y,1/2-z
1/2+x,y,1/2-z
1/2-x,y,1/2+z
1/2+x,-y,1/2+z
1/2+x,1/2+y,z
1/2-x,1/2-y,z
1/2+x,1/2-y,-z
1/2-x,1/2+y,-z
1/2-x,1/2-y,-z
1/2+x,1/2+y,-z
1/2-x,1/2+y,z
1/2+x,1/2-y,z
loop_
_atom_site_type_symbol
_atom_site_label
_atom_site_fract_x
_atom_site_fract_y
_atom_site_fract_z
Si Si1 0.424246 0.449100 0.610594
Si Si2 0.000000 0.189297 0.656465
Si Si3 0.627483 0.636022 0.309133
Si Si4 0.235899 0.800510 0.394135
Si Si5 0.500000 0.712391 0.872278
Si Si6 0.876270 0.347853 0.401331
O O1 0.423681 0.447228 0.500000
O O2 0.500000 0.439173 0.640057
O O3 0.409904 0.500000 0.637778
O O4 0.373507 0.413017 0.648369
O O5 0.064855 0.160434 0.645095
O O6 0.000000 0.235858 0.604495
O O7 0.000000 0.204188 0.762957
O O8 0.687628 0.668962 0.333314
O O9 0.617527 0.630213 0.199259
O O10 0.209967 0.797819 0.500000
O O11 0.250000 0.750000 0.362130
O O12 0.306087 0.824152 0.398404
O O13 0.565722 0.688223 0.903942
O O14 0.880285 0.373051 0.500000
#
# Coordination Sequence:
#
# PCOD9512906 Si02
#       6
#    32  16  32  32  16  32
#     4   9  18  34  56  83 112 136 166 218 282 338
#     4   9  18  28  47  77 100 129 177 219 262 315
#     4  11  19  33  55  79 106 141 179 220 270 327
#     4  10  21  35  51  76 108 145 186 226 270 320
#     4   9  17  32  48  66  99 139 181 225 260 297
#     4  10  21  34  49  71 103 144 186 223 260 306
#
# _framework density 17.946628
#
# number of rings (size 3 to 8) (size 9 to 14) (size 15 to 20)
#    0.000    2.200    1.000    3.300    0.000    3.200 
#    0.000    3.000    0.000    3.000    0.000    4.200 
#    0.000    0.000    0.000    0.000    0.000    0.000 
#
# Total GULP energy -222809.058421 kJ/mol
# GULP energy per Si atom -5570.226461 kJ/mol
# Density = 1.790578 g / cm^3
# Si number density = 17.946628 Si / 1000 Ang^3
#
#
#
# Elastic Constant Matrix: (Units=GPa)
#
#
# Indices 1 2 3 4 5 6 
#
# 1 92.7954 29.0146 13.2511 0.0000 0.0000 0.0000
# 2 29.0146 102.5248 34.0552 0.0000 0.0000 0.0000
# 3 13.2511 34.0552 90.4081 0.0000 0.0000 0.0000
# 4 0.0000 0.0000 0.0000 12.0825 0.0000 0.0000
# 5 0.0000 0.0000 0.0000 0.0000 17.9664 0.0000
# 6 0.0000 0.0000 0.0000 0.0000 0.0000 13.1438
#
#
#
# Elastic Compliance Matrix: (Units=1/GPa)
#
#
# Indices 1 2 3 4 5 6 
#
# 1 0.011846 -0.003173 -0.000541 0.000000 0.000000 0.000000
# 2 -0.003173 0.011998 -0.004055 0.000000 0.000000 0.000000
# 3 -0.000541 -0.004055 0.012668 0.000000 0.000000 0.000000
# 4 0.000000 0.000000 0.000000 0.082765 0.000000 0.000000
# 5 0.000000 0.000000 0.000000 0.000000 0.055660 0.000000
# 6 0.000000 0.000000 0.000000 0.000000 0.000000 0.076082
#
#
# Mechanical properties :
#
#
# Convention : Reuss Voigt Hill
#
# Bulk Modulus (GPa) = 47.67588 48.70777 48.19182
# Shear Modulus (GPa) = 18.27848 22.59901 20.43874
#
# Velocity S-wave (km/s) = 3.19484 3.55242 3.37836
# Velocity P-wave (km/s) = 6.34290 6.63517 6.49068
#
# Compressibility (1/GPa) = 0.02097497
#
# Stress axis : x y z
#
# Youngs Moduli (GPa) = 84.41913 83.34462 78.94182
#
# Poissons Ratio (x) = 0.26442 0.04272
# Poissons Ratio (y) = 0.26783 0.32008
# Poissons Ratio (z) = 0.04568 0.33793
#
# Static dielectric constant tensor:
#      x y z
#    x 1.611460 0.000000 0.000000 
#    y 0.000000 1.600320 0.000000 
#    z 0.000000 0.000000 1.687800 
# 
# From -- ./inp_files/15666.got.cif
#   From: 2010.05.17/outbox.cif.g08.bks.cpg/sg69_8_cif.got.tgz:15666.got - 2010.06.03 19:29:58.
