data_PCOD9512941
_publ_section_title
;
Structure prediction by ZEFSAII (Michael W. Deem and Ramdas Pophale) SiO2 
 PCOD9512941
Probable space group: F M M M
;
_chemical_formula_sum "Si O2"
_cell_formula_units_Z 144
_cell_length_a 16.047313
_cell_length_b 31.196274
_cell_length_c 14.774268
_cell_angle_alpha 90.000000
_cell_angle_beta 90.000000
_cell_angle_gamma 90.000000
_cell_volume 7396.240464
_symmetry_space_group_name_H-M "F M M M"
_symmetry_group_IT_number 69
_symmetry_cell_setting 'orthorhombic'
loop_
_space_group_symop_operation_xyz
x,y,z
-x,-y,z
x,-y,-z
-x,y,-z
-x,-y,-z
x,y,-z
-x,y,z
x,-y,z
x,1/2+y,1/2+z
-x,1/2-y,1/2+z
x,1/2-y,1/2-z
-x,1/2+y,1/2-z
-x,1/2-y,1/2-z
x,1/2+y,1/2-z
-x,1/2+y,1/2+z
x,1/2-y,1/2+z
1/2+x,y,1/2+z
1/2-x,-y,1/2+z
1/2+x,-y,1/2-z
1/2-x,y,1/2-z
1/2-x,-y,1/2-z
1/2+x,y,1/2-z
1/2-x,y,1/2+z
1/2+x,-y,1/2+z
1/2+x,1/2+y,z
1/2-x,1/2-y,z
1/2+x,1/2-y,-z
1/2-x,1/2+y,-z
1/2-x,1/2-y,-z
1/2+x,1/2+y,-z
1/2-x,1/2+y,z
1/2+x,1/2-y,z
loop_
_atom_site_type_symbol
_atom_site_label
_atom_site_fract_x
_atom_site_fract_y
_atom_site_fract_z
Si Si1 0.651454 0.547201 0.604887
Si Si2 0.000000 0.636433 0.280878
Si Si3 0.177141 0.137747 0.677069
Si Si4 0.500000 0.954358 0.247727
Si Si5 0.500000 0.223364 0.609943
Si Si6 0.833263 0.229971 0.605532
O O1 0.622539 0.549490 0.500000
O O2 0.694395 0.500000 0.613957
O O3 0.695118 0.592271 0.627957
O O4 0.577612 0.546673 0.678321
O O5 0.914691 0.638615 0.222912
O O6 0.000000 0.586744 0.312226
O O7 0.000000 0.675402 0.350729
O O8 0.250000 0.143893 0.750000
O O9 0.173760 0.179092 0.613733
O O10 0.500000 0.000000 0.296158
O O11 0.500000 0.221721 0.500000
O O12 0.581684 0.249423 0.641670
O O13 0.834412 0.241613 0.500000
O O14 0.750000 0.250000 0.646764
#
# Coordination Sequence:
#
# PCOD9512941 Si02
#       6
#    32  16  32  16  16  32
#     4   9  17  31  52  77 105 136 169 207 253 307
#     4  10  21  35  53  78 103 134 170 209 258 304
#     4  11  22  34  52  78 106 136 170 211 259 307
#     4   8  15  29  51  80 109 133 161 203 258 312
#     4  10  21  37  55  74 100 137 177 215 255 301
#     4  10  21  36  53  74 102 136 172 211 255 304
#
# _framework density 19.469352000000001
#
# number of rings (size 3 to 8) (size 9 to 14) (size 15 to 20)
#    0.000    2.222    0.000    3.000    0.000    5.778 
#    0.000    4.444    0.000    0.333    0.000    0.000 
#    0.000    0.000    0.000    0.000    0.000    0.000 
#
# Total GULP energy -200415.149199 kJ/mol
# GULP energy per Si atom -5567.087478 kJ/mol
# Density = 1.942504 g / cm^3
# Si number density = 19.469352 Si / 1000 Ang^3
#
#
#
# Elastic Constant Matrix: (Units=GPa)
#
#
# Indices 1 2 3 4 5 6 
#
# 1 112.3792 40.5714 20.6197 0.0000 0.0000 0.0000
# 2 40.5714 160.9853 27.2376 0.0000 0.0000 0.0000
# 3 20.6197 27.2376 46.1501 0.0000 0.0000 0.0000
# 4 0.0000 0.0000 0.0000 11.7410 0.0000 0.0000
# 5 0.0000 0.0000 0.0000 0.0000 -54.4571 0.0000
# 6 0.0000 0.0000 0.0000 0.0000 0.0000 18.9905
#
#
#
# Elastic Compliance Matrix: (Units=1/GPa)
#
#
# Indices 1 2 3 4 5 6 
#
# 1 0.010246 -0.002008 -0.003393 0.000000 0.000000 0.000000
# 2 -0.002008 0.007294 -0.003408 0.000000 0.000000 0.000000
# 3 -0.003393 -0.003408 0.025196 0.000000 0.000000 0.000000
# 4 0.000000 0.000000 0.000000 0.085172 0.000000 0.000000
# 5 0.000000 0.000000 0.000000 0.000000 -0.018363 0.000000
# 6 0.000000 0.000000 0.000000 0.000000 0.000000 0.052658
#
#
# Mechanical properties :
#
#
# Convention : Reuss Voigt Hill
#
# Bulk Modulus (GPa) = 39.81126 55.15245 47.48185
# Shear Modulus (GPa) = 26.56848 10.66060 18.61454
#
# Velocity S-wave (km/s) = 3.69810 2.34253 3.09543
# Velocity P-wave (km/s) = 6.22311 5.97545 6.10054
#
# Compressibility (1/GPa) = 0.02511852
#
# Stress axis : x y z
#
# Youngs Moduli (GPa) = 97.59976 137.09086 39.68953
#
# Poissons Ratio (x) = 0.27530 0.13465
# Poissons Ratio (y) = 0.19600 0.13526
# Poissons Ratio (z) = 0.33112 0.46719
#
# Static dielectric constant tensor:
#      x y z
#    x 1.684420 0.000000 0.000000 
#    y 0.000000 1.740160 0.000000 
#    z 0.000000 0.000000 1.660350 
# 
# From -- ./inp_files/21821.got.cif
#   From: 2010.05.17/outbox.cif.g08.bks.cpg/sg69_11_cif.got.tgz:21821.got - 2010.06.03 19:29:58.
