data_PCOD9512319
_publ_section_title
;
Structure prediction by ZEFSAII (Michael W. Deem and Ramdas Pophale) SiO2 
 PCOD9512319
Probable space group: F M M M
;
_chemical_formula_sum "Si O2"
_cell_formula_units_Z 160
_cell_length_a 14.634839
_cell_length_b 16.220804
_cell_length_c 29.946261
_cell_angle_alpha 90.000000
_cell_angle_beta 90.000000
_cell_angle_gamma 90.000000
_cell_volume 7108.908610
_symmetry_space_group_name_H-M "F M M M"
_symmetry_group_IT_number 69
_symmetry_cell_setting 'orthorhombic'
loop_
_space_group_symop_operation_xyz
x,y,z
-x,-y,z
x,-y,-z
-x,y,-z
-x,-y,-z
x,y,-z
-x,y,z
x,-y,z
x,1/2+y,1/2+z
-x,1/2-y,1/2+z
x,1/2-y,1/2-z
-x,1/2+y,1/2-z
-x,1/2-y,1/2-z
x,1/2+y,1/2-z
-x,1/2+y,1/2+z
x,1/2-y,1/2+z
1/2+x,y,1/2+z
1/2-x,-y,1/2+z
1/2+x,-y,1/2-z
1/2-x,y,1/2-z
1/2-x,-y,1/2-z
1/2+x,y,1/2-z
1/2-x,y,1/2+z
1/2+x,-y,1/2+z
1/2+x,1/2+y,z
1/2-x,1/2-y,z
1/2+x,1/2-y,-z
1/2-x,1/2+y,-z
1/2-x,1/2-y,-z
1/2+x,1/2+y,-z
1/2-x,1/2+y,z
1/2+x,1/2-y,z
loop_
_atom_site_type_symbol
_atom_site_label
_atom_site_fract_x
_atom_site_fract_y
_atom_site_fract_z
Si Si1 0.798549 0.398763 0.909258
Si Si2 0.402097 0.407891 0.081454
Si Si3 0.891846 0.186414 0.322902
Si Si4 0.600279 0.399954 0.500000
Si Si5 0.750000 0.624195 0.250000
Si Si6 0.099003 0.616728 0.315507
O O1 0.796040 0.500000 0.902701
O O2 0.696848 0.368319 0.922873
O O3 0.843257 0.356040 0.865761
O O4 0.855209 0.378339 0.953189
O O5 0.500000 0.369311 0.068177
O O6 0.398618 0.500000 0.061133
O O7 0.404589 0.417207 0.134934
O O8 0.828327 0.167062 0.280191
O O9 0.890735 0.285353 0.323940
O O10 0.000000 0.161806 0.319749
O O11 0.598322 0.500000 0.500000
O O12 0.500000 0.364950 0.500000
O O13 0.815751 0.585663 0.287312
O O14 0.000000 0.601857 0.293530
#
# Coordination Sequence:
#
# PCOD9512319 Si02
#       6
#    32  32  32  16  16  32
#     4  10  20  36  58  83 110 142 178 219 273 327
#     4   9  18  34  55  78 105 139 178 219 265 318
#     4  11  22  34  53  80 108 142 186 228 267 319
#     4   9  18  34  57  82 109 141 177 219 268 327
#     4  12  21  34  53  78 109 146 185 228 269 318
#     4  10  20  34  53  76 105 142 184 225 268 316
#
# _framework density 22.506971
#
# number of rings (size 3 to 8) (size 9 to 14) (size 15 to 20)
#    0.000    1.900    2.000    3.000    0.000    2.800 
#    0.000    2.500    0.000    7.800    0.000    4.200 
#    0.000    0.000    0.000    0.000    0.000    0.000 
#
# Total GULP energy -222836.694623 kJ/mol
# GULP energy per Si atom -5570.917366 kJ/mol
# Density = 2.245574 g / cm^3
# Si number density = 22.506971 Si / 1000 Ang^3
#
#
#
# Elastic Constant Matrix: (Units=GPa)
#
#
# Indices 1 2 3 4 5 6 
#
# 1 230.6924 31.4489 56.0848 0.0000 0.0000 0.0000
# 2 31.4489 69.0360 22.1907 0.0000 0.0000 0.0000
# 3 56.0848 22.1907 100.9598 0.0000 0.0000 0.0000
# 4 0.0000 0.0000 0.0000 1.9704 0.0000 0.0000
# 5 0.0000 0.0000 0.0000 0.0000 36.5663 0.0000
# 6 0.0000 0.0000 0.0000 0.0000 0.0000 2.5917
#
#
#
# Elastic Compliance Matrix: (Units=1/GPa)
#
#
# Indices 1 2 3 4 5 6 
#
# 1 0.005159 -0.001538 -0.002528 0.000000 0.000000 0.000000
# 2 -0.001538 0.016045 -0.002672 0.000000 0.000000 0.000000
# 3 -0.002528 -0.002672 0.011897 0.000000 0.000000 0.000000
# 4 0.000000 0.000000 0.000000 0.507517 0.000000 0.000000
# 5 0.000000 0.000000 0.000000 0.000000 0.027348 0.000000
# 6 0.000000 0.000000 0.000000 0.000000 0.000000 0.385842
#
#
# Mechanical properties :
#
#
# Convention : Reuss Voigt Hill
#
# Bulk Modulus (GPa) = 50.95701 68.90411 59.93056
# Shear Modulus (GPa) = 5.13440 27.62328 16.37884
#
# Velocity S-wave (km/s) = 1.51202 3.50711 2.70056
# Velocity P-wave (km/s) = 5.07326 6.86155 6.03402
#
# Compressibility (1/GPa) = 0.01962438
#
# Stress axis : x y z
#
# Youngs Moduli (GPa) = 193.83744 62.32615 84.05738
#
# Poissons Ratio (x) = 0.09583 0.21249
# Poissons Ratio (y) = 0.29804 0.22464
# Poissons Ratio (z) = 0.49001 0.16656
#
# Static dielectric constant tensor:
#      x y z
#    x 1.918380 0.000000 0.000000 
#    y 0.000000 1.864650 0.000000 
#    z 0.000000 0.000000 1.790080 
# 
# From -- ./inp_files/45703.got.cif
#   From: 2010.05.17/outbox.cif.g08.bks.cpg/sg69_23_cif.got.tgz:45703.got - 2010.06.03 19:29:58.
