data_PCOD9512031
_publ_section_title
;
Structure prediction by ZEFSAII (Michael W. Deem and Ramdas Pophale) SiO2 
 PCOD9512031
Probable space group: F M M M
;
_chemical_formula_sum "Si O2"
_cell_formula_units_Z 88
_cell_length_a 11.259541
_cell_length_b 13.695622
_cell_length_c 20.772939
_cell_angle_alpha 90.000000
_cell_angle_beta 90.000000
_cell_angle_gamma 90.000000
_cell_volume 3203.320503
_symmetry_space_group_name_H-M "F M M M"
_symmetry_group_IT_number 69
_symmetry_cell_setting 'orthorhombic'
loop_
_space_group_symop_operation_xyz
x,y,z
-x,-y,z
x,-y,-z
-x,y,-z
-x,-y,-z
x,y,-z
-x,y,z
x,-y,z
x,1/2+y,1/2+z
-x,1/2-y,1/2+z
x,1/2-y,1/2-z
-x,1/2+y,1/2-z
-x,1/2-y,1/2-z
x,1/2+y,1/2-z
-x,1/2+y,1/2+z
x,1/2-y,1/2+z
1/2+x,y,1/2+z
1/2-x,-y,1/2+z
1/2+x,-y,1/2-z
1/2-x,y,1/2-z
1/2-x,-y,1/2-z
1/2+x,y,1/2-z
1/2-x,y,1/2+z
1/2+x,-y,1/2+z
1/2+x,1/2+y,z
1/2-x,1/2-y,z
1/2+x,1/2-y,-z
1/2-x,1/2+y,-z
1/2-x,1/2-y,-z
1/2+x,1/2+y,-z
1/2-x,1/2+y,z
1/2+x,1/2-y,z
loop_
_atom_site_type_symbol
_atom_site_label
_atom_site_fract_x
_atom_site_fract_y
_atom_site_fract_z
Si Si1 0.000000 0.860194 0.135110
Si Si2 0.000000 0.165060 0.305484
Si Si3 0.825742 0.889124 0.500000
Si Si4 0.000000 0.295756 0.500000
Si Si5 0.244315 0.865658 0.353159
O O1 0.877697 0.896839 0.165571
O O2 0.000000 0.740943 0.134860
O O3 0.000000 0.870682 0.059234
O O4 0.000000 0.250000 0.250000
O O5 0.876492 0.107755 0.315349
O O6 0.893587 0.784221 0.500000
O O7 0.766594 0.886844 0.570840
O O8 0.879506 0.000000 0.500000
O O9 0.250000 0.750000 0.342408
#
# Coordination Sequence:
#
# PCOD9512031 Si02
#       5
#    16  16  16   8  32
#     4  10  20  31  60  78 115 155 181 235 299 337
#     4  10  20  33  55  84 109 141 194 249 286 333
#     4  12  21  32  55  89 122 157 191 230 286 366
#     4  12  17  34  50  84 117 148 188 222 291 352
#     4  10  19  36  54  81 119 150 190 235 295 338
#
# _framework density 27.471495000000001
#
# number of rings (size 3 to 8) (size 9 to 14) (size 15 to 20)
#    0.000    1.455    7.273    1.909    0.000    6.545 
#    0.000    1.818    0.000    0.000    0.000   30.545 
#    0.000    0.000    0.000    0.000    0.000    0.000 
#
# Total GULP energy -122502.269129 kJ/mol
# GULP energy per Si atom -5568.284960 kJ/mol
# Density = 2.740897 g / cm^3
# Si number density = 27.471495 Si / 1000 Ang^3
#
#
#
# Elastic Constant Matrix: (Units=GPa)
#
#
# Indices 1 2 3 4 5 6 
#
# 1 349.5762 33.5848 65.0258 0.0000 0.0000 0.0000
# 2 33.5848 159.5100 -11.3511 0.0000 0.0000 0.0000
# 3 65.0258 -11.3511 161.9102 0.0000 0.0000 0.0000
# 4 0.0000 0.0000 0.0000 -22.2549 0.0000 0.0000
# 5 0.0000 0.0000 0.0000 0.0000 -2.7845 0.0000
# 6 0.0000 0.0000 0.0000 0.0000 0.0000 -33.2224
#
#
#
# Elastic Compliance Matrix: (Units=1/GPa)
#
#
# Indices 1 2 3 4 5 6 
#
# 1 0.003182 -0.000765 -0.001331 0.000000 0.000000 0.000000
# 2 -0.000765 0.006484 0.000762 0.000000 0.000000 0.000000
# 3 -0.001331 0.000762 0.006764 0.000000 0.000000 0.000000
# 4 0.000000 0.000000 0.000000 -0.044934 0.000000 0.000000
# 5 0.000000 0.000000 0.000000 0.000000 -0.359126 0.000000
# 6 0.000000 0.000000 0.000000 0.000000 0.000000 -0.030100
#
#
# Mechanical properties :
#
#
# Convention : Reuss Voigt Hill
#
# Bulk Modulus (GPa) = 72.66532 93.94618 83.30575
# Shear Modulus (GPa) = -12.18105 27.26342 7.54118
#
# Velocity S-wave (km/s) = -2.10801 3.15370 1.65863
# Velocity P-wave (km/s) = 4.53692 6.89442 5.83595
#
# Compressibility (1/GPa) = 0.01376172
#
# Stress axis : x y z
#
# Youngs Moduli (GPa) = 314.29370 154.21616 147.83290
#
# Poissons Ratio (x) = 0.11792 0.19683
# Poissons Ratio (y) = 0.24033 -0.11260
# Poissons Ratio (z) = 0.41847 -0.11747
#
# Static dielectric constant tensor:
#      x y z
#    x 2.339600 0.000000 0.000000 
#    y 0.000000 2.076260 0.000000 
#    z 0.000000 0.000000 2.221150 
# 
# From -- ./inp_files/28775.got.cif
#   From: 2010.05.17/outbox.cif.g08.bks.cpg/sg69_15_cif.got.tgz:28775.got - 2010.06.03 19:29:58.
