data_PCOD9512953
_publ_section_title
;
Structure prediction by ZEFSAII (Michael W. Deem and Ramdas Pophale) SiO2 
 PCOD9512953
Probable space group: F M M M
;
_chemical_formula_sum "Si O2"
_cell_formula_units_Z 128
_cell_length_a 9.949559
_cell_length_b 26.016367
_cell_length_c 26.949674
_cell_angle_alpha 90.000000
_cell_angle_beta 90.000000
_cell_angle_gamma 90.000000
_cell_volume 6975.960263
_symmetry_space_group_name_H-M "F M M M"
_symmetry_group_IT_number 69
_symmetry_cell_setting 'orthorhombic'
loop_
_space_group_symop_operation_xyz
x,y,z
-x,-y,z
x,-y,-z
-x,y,-z
-x,-y,-z
x,y,-z
-x,y,z
x,-y,z
x,1/2+y,1/2+z
-x,1/2-y,1/2+z
x,1/2-y,1/2-z
-x,1/2+y,1/2-z
-x,1/2-y,1/2-z
x,1/2+y,1/2-z
-x,1/2+y,1/2+z
x,1/2-y,1/2+z
1/2+x,y,1/2+z
1/2-x,-y,1/2+z
1/2+x,-y,1/2-z
1/2-x,y,1/2-z
1/2-x,-y,1/2-z
1/2+x,y,1/2-z
1/2-x,y,1/2+z
1/2+x,-y,1/2+z
1/2+x,1/2+y,z
1/2-x,1/2-y,z
1/2+x,1/2-y,-z
1/2-x,1/2+y,-z
1/2-x,1/2-y,-z
1/2+x,1/2+y,-z
1/2-x,1/2+y,z
1/2+x,1/2-y,z
loop_
_atom_site_type_symbol
_atom_site_label
_atom_site_fract_x
_atom_site_fract_y
_atom_site_fract_z
Si Si1 0.838829 0.698108 0.888026
Si Si2 0.500000 0.437672 0.940870
Si Si3 0.757870 0.090518 0.624414
Si Si4 0.500000 0.061150 0.945501
Si Si5 0.333416 0.500000 0.698991
Si Si6 0.153598 0.202104 0.500000
O O1 0.750000 0.750000 0.881669
O O2 0.780553 0.649355 0.858420
O O3 0.823695 0.679259 0.945657
O O4 0.000000 0.706065 0.879492
O O5 0.500000 0.500000 0.941012
O O6 0.625006 0.418157 0.908208
O O7 0.500000 0.422048 0.000000
O O8 0.782338 0.049855 0.668334
O O9 0.874006 0.076736 0.585931
O O10 0.500000 0.000000 0.950185
O O11 0.500000 0.085339 0.000000
O O12 0.500000 0.500000 0.702652
O O13 0.250000 0.500000 0.750000
O O14 0.250000 0.250000 0.500000
O O15 0.000000 0.219864 0.500000
#
# Coordination Sequence:
#
# PCOD9512953 Si02
#       6
#    32  16  32  16  16  16
#     4  10  21  35  55  83 120 164 210 255 303 364
#     4  11  24  38  57  93 137 172 207 256 313 373
#     4  12  22  41  61  89 129 165 213 254 311 377
#     4  11  20  34  61  91 123 164 207 250 303 377
#     4  12  26  46  71  96 120 156 205 268 331 382
#     4   8  16  30  46  71 108 155 203 240 278 334
#
# _framework density 18.348728999999999
#
# number of rings (size 3 to 8) (size 9 to 14) (size 15 to 20)
#    0.000    1.250    5.000    0.750    7.000    2.000 
#    0.000    0.000    0.000    0.750    0.000    3.500 
#    0.000    0.000    0.000    0.000    0.000    0.000 
#
# Total GULP energy -178237.578302 kJ/mol
# GULP energy per Si atom -5569.924322 kJ/mol
# Density = 1.830697 g / cm^3
# Si number density = 18.348729 Si / 1000 Ang^3
#
#
#
# Elastic Constant Matrix: (Units=GPa)
#
#
# Indices 1 2 3 4 5 6 
#
# 1 152.7947 58.3288 57.8330 0.0000 0.0000 0.0000
# 2 58.3288 159.6493 52.6071 0.0000 0.0000 0.0000
# 3 57.8330 52.6071 106.2645 0.0000 0.0000 0.0000
# 4 0.0000 0.0000 0.0000 9.7939 0.0000 0.0000
# 5 0.0000 0.0000 0.0000 0.0000 -4.3124 0.0000
# 6 0.0000 0.0000 0.0000 0.0000 0.0000 26.1757
#
#
#
# Elastic Compliance Matrix: (Units=1/GPa)
#
#
# Indices 1 2 3 4 5 6 
#
# 1 0.008717 -0.001938 -0.003785 0.000000 0.000000 0.000000
# 2 -0.001938 0.007915 -0.002864 0.000000 0.000000 0.000000
# 3 -0.003785 -0.002864 0.012888 0.000000 0.000000 0.000000
# 4 0.000000 0.000000 0.000000 0.102105 0.000000 0.000000
# 5 0.000000 0.000000 0.000000 0.000000 -0.231892 0.000000
# 6 0.000000 0.000000 0.000000 0.000000 0.000000 0.038203
#
#
# Mechanical properties :
#
#
# Convention : Reuss Voigt Hill
#
# Bulk Modulus (GPa) = 80.98797 84.02736 82.50767
# Shear Modulus (GPa) = -122.62650 22.99410 -49.81620
#
# Velocity S-wave (km/s) = -8.18390 3.54386 -5.21619
# Velocity P-wave (km/s) = 6.71323 7.91450 2.96410
#
# Compressibility (1/GPa) = 0.01234751
#
# Stress axis : x y z
#
# Youngs Moduli (GPa) = 114.71858 126.33593 77.59030
#
# Poissons Ratio (x) = 0.24479 0.29367
# Poissons Ratio (y) = 0.22228 0.22222
# Poissons Ratio (z) = 0.43419 0.36183
#
# Static dielectric constant tensor:
#      x y z
#    x 1.577410 0.000000 0.000000 
#    y 0.000000 1.700960 0.000000 
#    z 0.000000 0.000000 1.645100 
# 
# From -- ./inp_files/44402.got.cif
#   From: 2010.05.17/outbox.cif.g08.bks.cpg/sg69_23_cif.got.tgz:44402.got - 2010.06.03 19:29:58.
