data_PCOD9512257
_publ_section_title
;
Structure prediction by ZEFSAII (Michael W. Deem and Ramdas Pophale) SiO2 
 PCOD9512257
Probable space group: F M M M
;
_chemical_formula_sum "Si O2"
_cell_formula_units_Z 160
_cell_length_a 22.888807
_cell_length_b 22.783757
_cell_length_c 16.351279
_cell_angle_alpha 90.000000
_cell_angle_beta 90.000000
_cell_angle_gamma 90.000000
_cell_volume 8527.077813
_symmetry_space_group_name_H-M "F M M M"
_symmetry_group_IT_number 69
_symmetry_cell_setting 'orthorhombic'
loop_
_space_group_symop_operation_xyz
x,y,z
-x,-y,z
x,-y,-z
-x,y,-z
-x,-y,-z
x,y,-z
-x,y,z
x,-y,z
x,1/2+y,1/2+z
-x,1/2-y,1/2+z
x,1/2-y,1/2-z
-x,1/2+y,1/2-z
-x,1/2-y,1/2-z
x,1/2+y,1/2-z
-x,1/2+y,1/2+z
x,1/2-y,1/2+z
1/2+x,y,1/2+z
1/2-x,-y,1/2+z
1/2+x,-y,1/2-z
1/2-x,y,1/2-z
1/2-x,-y,1/2-z
1/2+x,y,1/2-z
1/2-x,y,1/2+z
1/2+x,-y,1/2+z
1/2+x,1/2+y,z
1/2-x,1/2-y,z
1/2+x,1/2-y,-z
1/2-x,1/2+y,-z
1/2-x,1/2-y,-z
1/2+x,1/2+y,-z
1/2-x,1/2+y,z
1/2+x,1/2-y,z
loop_
_atom_site_type_symbol
_atom_site_label
_atom_site_fract_x
_atom_site_fract_y
_atom_site_fract_z
Si Si1 0.788477 0.148151 0.331252
Si Si2 0.000000 0.746436 0.871897
Si Si3 0.171763 0.620418 0.406400
Si Si4 0.126188 0.252648 0.349468
Si Si5 0.000000 0.356468 0.738178
Si Si6 0.617255 0.067489 0.254499
O O1 0.750000 0.163410 0.250000
O O2 0.741488 0.123293 0.394236
O O3 0.823417 0.204851 0.361902
O O4 0.836325 0.100574 0.303440
O O5 0.932921 0.740476 0.900850
O O6 0.000000 0.692939 0.807556
O O7 0.000000 0.814317 0.841033
O O8 0.155728 0.611781 0.500000
O O9 0.148313 0.683264 0.373772
O O10 0.144615 0.573204 0.345078
O O11 0.113401 0.250000 0.250000
O O12 0.057135 0.396324 0.744735
O O13 0.608727 0.000000 0.231922
#
# Coordination Sequence:
#
# PCOD9512257 Si02
#       6
#    32  16  32  32  16  32
#     4  10  20  33  56  81 111 148 187 236 284 334
#     4  11  16  30  60  83 106 142 184 230 292 336
#     4  11  24  37  55  84 118 154 189 231 282 343
#     4  12  17  33  57  82 111 142 185 233 292 339
#     4  11  17  34  58  92 108 137 186 240 287 335
#     4  11  22  37  58  84 115 153 195 235 273 327
#
# _framework density 18.763753999999999
#
# number of rings (size 3 to 8) (size 9 to 14) (size 15 to 20)
#    0.000    1.000   10.000    0.900    0.000    5.600 
#    0.000    2.000    0.000    1.200    0.000    0.700 
#    0.000    1.600    0.000    0.000    0.000    0.000 
#
# Total GULP energy -223021.025795 kJ/mol
# GULP energy per Si atom -5575.525645 kJ/mol
# Density = 1.872105 g / cm^3
# Si number density = 18.763754 Si / 1000 Ang^3
#
#
#
# Elastic Constant Matrix: (Units=GPa)
#
#
# Indices 1 2 3 4 5 6 
#
# 1 141.6718 39.0997 -0.9535 0.0000 0.0000 0.0000
# 2 39.0997 92.6450 -9.1935 0.0000 0.0000 0.0000
# 3 -0.9535 -9.1935 37.0185 0.0000 0.0000 0.0000
# 4 0.0000 0.0000 0.0000 5.0092 0.0000 0.0000
# 5 0.0000 0.0000 0.0000 0.0000 -1.1508 0.0000
# 6 0.0000 0.0000 0.0000 0.0000 0.0000 11.7482
#
#
#
# Elastic Compliance Matrix: (Units=1/GPa)
#
#
# Indices 1 2 3 4 5 6 
#
# 1 0.008004 -0.003442 -0.000649 0.000000 0.000000 0.000000
# 2 -0.003442 0.012547 0.003027 0.000000 0.000000 0.000000
# 3 -0.000649 0.003027 0.027749 0.000000 0.000000 0.000000
# 4 0.000000 0.000000 0.000000 0.199631 0.000000 0.000000
# 5 0.000000 0.000000 0.000000 0.000000 -0.868987 0.000000
# 6 0.000000 0.000000 0.000000 0.000000 0.000000 0.085119
#
#
# Mechanical properties :
#
#
# Convention : Reuss Voigt Hill
#
# Bulk Modulus (GPa) = 21.65795 36.58232 29.12014
# Shear Modulus (GPa) = -9.64474 19.28018 4.81772
#
# Velocity S-wave (km/s) = -2.26964 3.20898 1.60410
# Velocity P-wave (km/s) = 2.16776 5.76790 4.35705
#
# Compressibility (1/GPa) = 0.04617241
#
# Stress axis : x y z
#
# Youngs Moduli (GPa) = 124.93300 79.69923 36.03774
#
# Poissons Ratio (x) = 0.27436 0.02338
# Poissons Ratio (y) = 0.43008 -0.10910
# Poissons Ratio (z) = 0.08105 -0.24128
#
# Static dielectric constant tensor:
#      x y z
#    x 1.694810 0.000000 0.000000 
#    y 0.000000 1.611690 0.000000 
#    z 0.000000 0.000000 1.685570 
# 
# From -- ./inp_files/24635.got.cif
#   From: 2010.05.17/outbox.cif.g08.bks.cpg/sg69_13_cif.got.tgz:24635.got - 2010.06.03 19:29:58.
