data_PCOD9512175
_publ_section_title
;
Structure prediction by ZEFSAII (Michael W. Deem and Ramdas Pophale) SiO2 
 PCOD9512175
Probable space group: F M M M
;
_chemical_formula_sum "Si O2"
_cell_formula_units_Z 176
_cell_length_a 13.895736
_cell_length_b 30.563694
_cell_length_c 23.784873
_cell_angle_alpha 90.000000
_cell_angle_beta 90.000000
_cell_angle_gamma 90.000000
_cell_volume 10101.555035
_symmetry_space_group_name_H-M "F M M M"
_symmetry_group_IT_number 69
_symmetry_cell_setting 'orthorhombic'
loop_
_space_group_symop_operation_xyz
x,y,z
-x,-y,z
x,-y,-z
-x,y,-z
-x,-y,-z
x,y,-z
-x,y,z
x,-y,z
x,1/2+y,1/2+z
-x,1/2-y,1/2+z
x,1/2-y,1/2-z
-x,1/2+y,1/2-z
-x,1/2-y,1/2-z
x,1/2+y,1/2-z
-x,1/2+y,1/2+z
x,1/2-y,1/2+z
1/2+x,y,1/2+z
1/2-x,-y,1/2+z
1/2+x,-y,1/2-z
1/2-x,y,1/2-z
1/2-x,-y,1/2-z
1/2+x,y,1/2-z
1/2-x,y,1/2+z
1/2+x,-y,1/2+z
1/2+x,1/2+y,z
1/2-x,1/2-y,z
1/2+x,1/2-y,-z
1/2-x,1/2+y,-z
1/2-x,1/2-y,-z
1/2+x,1/2+y,-z
1/2-x,1/2+y,z
1/2+x,1/2-y,z
loop_
_atom_site_type_symbol
_atom_site_label
_atom_site_fract_x
_atom_site_fract_y
_atom_site_fract_z
Si Si1 0.614064 0.274031 0.850879
Si Si2 0.882914 0.000000 0.934634
Si Si3 0.616047 0.408181 0.117814
Si Si4 0.885556 0.327386 0.155947
Si Si5 0.727040 0.671089 0.065392
Si Si6 0.116578 0.643936 0.725290
O O1 0.500000 0.279223 0.861382
O O2 0.629353 0.224416 0.832159
O O3 0.671988 0.287953 0.906216
O O4 0.642111 0.310151 0.804685
O O5 0.852501 0.044083 0.902623
O O6 0.000000 0.000000 0.934827
O O7 0.852323 0.000000 0.000000
O O8 0.500000 0.406078 0.114275
O O9 0.659905 0.370865 0.077963
O O10 0.642954 0.394259 0.181610
O O11 0.824088 0.336757 0.100766
O O12 0.850695 0.354614 0.210319
O O13 0.000000 0.333981 0.147826
O O14 0.743653 0.677267 0.000000
O O15 0.000000 0.643612 0.728586
#
# Coordination Sequence:
#
# PCOD9512175 Si02
#       6
#    32  16  32  32  32  32
#     4   9  18  31  48  70  93 120 158 204 250 294
#     4   9  16  28  50  79 109 135 152 173 223 301
#     4   9  18  32  52  79 104 124 149 186 236 296
#     4  10  20  33  48  65  90 128 171 210 239 269
#     4  11  22  33  46  67  97 132 166 200 244 294
#     4   8  15  30  50  70  94 123 157 198 244 288
#
# _framework density 17.42306
#
# number of rings (size 3 to 8) (size 9 to 14) (size 15 to 20)
#    0.000    2.636    0.000    3.273    0.000    9.091 
#    0.000    5.455    0.000    2.182    0.000    1.909 
#    0.000    2.182    0.000    0.000    0.000    0.000 
#
# Total GULP energy -245427.540714 kJ/mol
# GULP energy per Si atom -5577.898653 kJ/mol
# Density = 1.738340 g / cm^3
# Si number density = 17.423060 Si / 1000 Ang^3
#
#
#
# Elastic Constant Matrix: (Units=GPa)
#
#
# Indices 1 2 3 4 5 6 
#
# 1 58.0294 27.2221 44.1199 0.0000 0.0000 0.0000
# 2 27.2221 76.1311 31.3644 0.0000 0.0000 0.0000
# 3 44.1199 31.3644 154.4180 0.0000 0.0000 0.0000
# 4 0.0000 0.0000 0.0000 16.2041 0.0000 0.0000
# 5 0.0000 0.0000 0.0000 0.0000 24.6959 0.0000
# 6 0.0000 0.0000 0.0000 0.0000 0.0000 12.5247
#
#
#
# Elastic Compliance Matrix: (Units=1/GPa)
#
#
# Indices 1 2 3 4 5 6 
#
# 1 0.024604 -0.006440 -0.005722 0.000000 0.000000 0.000000
# 2 -0.006440 0.016021 -0.001414 0.000000 0.000000 0.000000
# 3 -0.005722 -0.001414 0.008398 0.000000 0.000000 0.000000
# 4 0.000000 0.000000 0.000000 0.061713 0.000000 0.000000
# 5 0.000000 0.000000 0.000000 0.000000 0.040493 0.000000
# 6 0.000000 0.000000 0.000000 0.000000 0.000000 0.079842
#
#
# Mechanical properties :
#
#
# Convention : Reuss Voigt Hill
#
# Bulk Modulus (GPa) = 45.72337 54.88790 50.30564
# Shear Modulus (GPa) = 18.83152 23.07642 20.95397
#
# Velocity S-wave (km/s) = 3.29118 3.64328 3.47170
# Velocity P-wave (km/s) = 6.38298 7.01922 6.70865
#
# Compressibility (1/GPa) = 0.02187065
#
# Stress axis : x y z
#
# Youngs Moduli (GPa) = 40.64367 62.41958 119.07766
#
# Poissons Ratio (x) = 0.40201 0.68132
# Poissons Ratio (y) = 0.26176 0.16836
# Poissons Ratio (z) = 0.23255 0.08825
#
# Static dielectric constant tensor:
#      x y z
#    x 1.638160 0.000000 0.000000 
#    y 0.000000 1.581330 0.000000 
#    z 0.000000 0.000000 1.602370 
# 
# From -- ./inp_files/36178.got.cif
#   From: 2010.05.17/outbox.cif.g08.bks.cpg/sg69_19_cif.got.tgz:36178.got - 2010.06.03 19:29:58.
