data_PCOD9512697
_publ_section_title
;
Structure prediction by ZEFSAII (Michael W. Deem and Ramdas Pophale) SiO2 
 PCOD9512697
Probable space group: F M M M
;
_chemical_formula_sum "Si O2"
_cell_formula_units_Z 208
_cell_length_a 17.684073
_cell_length_b 22.273964
_cell_length_c 26.305204
_cell_angle_alpha 90.000000
_cell_angle_beta 90.000000
_cell_angle_gamma 90.000000
_cell_volume 10361.472688
_symmetry_space_group_name_H-M "F M M M"
_symmetry_group_IT_number 69
_symmetry_cell_setting 'orthorhombic'
loop_
_space_group_symop_operation_xyz
x,y,z
-x,-y,z
x,-y,-z
-x,y,-z
-x,-y,-z
x,y,-z
-x,y,z
x,-y,z
x,1/2+y,1/2+z
-x,1/2-y,1/2+z
x,1/2-y,1/2-z
-x,1/2+y,1/2-z
-x,1/2-y,1/2-z
x,1/2+y,1/2-z
-x,1/2+y,1/2+z
x,1/2-y,1/2+z
1/2+x,y,1/2+z
1/2-x,-y,1/2+z
1/2+x,-y,1/2-z
1/2-x,y,1/2-z
1/2-x,-y,1/2-z
1/2+x,y,1/2-z
1/2-x,y,1/2+z
1/2+x,-y,1/2+z
1/2+x,1/2+y,z
1/2-x,1/2-y,z
1/2+x,1/2-y,-z
1/2-x,1/2+y,-z
1/2-x,1/2-y,-z
1/2+x,1/2+y,-z
1/2-x,1/2+y,z
1/2+x,1/2-y,z
loop_
_atom_site_type_symbol
_atom_site_label
_atom_site_fract_x
_atom_site_fract_y
_atom_site_fract_z
Si Si1 0.346922 0.395207 0.387854
Si Si2 0.408338 0.809533 0.280363
Si Si3 0.194266 0.068012 0.059855
Si Si4 0.332476 0.279262 0.556327
Si Si5 0.411027 0.328428 0.896669
Si Si6 0.000000 0.431637 0.060291
Si Si7 0.408669 0.930958 0.220495
O O1 0.275874 0.427518 0.413550
O O2 0.331491 0.325209 0.396979
O O3 0.424108 0.403809 0.418645
O O4 0.364399 0.418277 0.331719
O O5 0.500000 0.806920 0.278321
O O6 0.380962 0.750000 0.250000
O O7 0.387313 0.809803 0.339568
O O8 0.388059 0.874751 0.256751
O O9 0.137959 0.115428 0.084835
O O10 0.165735 0.000000 0.064668
O O11 0.202990 0.081997 0.000000
O O12 0.345539 0.306961 0.500000
O O13 0.250000 0.250000 0.554764
O O14 0.392744 0.227486 0.567025
O O15 0.500000 0.342298 0.896646
O O16 0.000000 0.500000 0.078601
O O17 0.000000 0.430162 0.000000
O O18 0.500000 0.927322 0.211435
O O19 0.393728 0.000000 0.237929
#
# Coordination Sequence:
#
# PCOD9512697 Si02
#       7
#    32  32  32  32  32  16  32
#     4  12  22  38  62  90 128 169 210 255 317 384
#     4   9  19  38  64  92 125 162 210 264 320 378
#     4  11  24  42  63  87 123 171 213 257 317 373
#     4  11  23  40  62  89 124 166 210 255 314 380
#     4  11  24  42  66  94 124 162 212 266 311 367
#     4  11  22  34  54  90 129 162 207 257 303 380
#     4  10  20  36  61  94 129 168 210 259 322 391
#
# _framework density 20.074366999999999
#
# number of rings (size 3 to 8) (size 9 to 14) (size 15 to 20)
#    0.000    1.308    2.308    4.154    1.077    4.615 
#    0.000    3.077    0.000    1.846    0.000    0.000 
#    0.000    0.000    0.000    0.000    0.000    0.000 
#
# Total GULP energy -290347.890009 kJ/mol
# GULP energy per Si atom -5583.613269 kJ/mol
# Density = 2.002868 g / cm^3
# Si number density = 20.074367 Si / 1000 Ang^3
#
#
#
# Elastic Constant Matrix: (Units=GPa)
#
#
# Indices 1 2 3 4 5 6 
#
# 1 49.7349 10.2974 10.3696 0.0000 0.0000 0.0000
# 2 10.2974 111.6987 29.6928 0.0000 0.0000 0.0000
# 3 10.3696 29.6928 63.5296 0.0000 0.0000 0.0000
# 4 0.0000 0.0000 0.0000 31.4312 0.0000 0.0000
# 5 0.0000 0.0000 0.0000 0.0000 26.5505 0.0000
# 6 0.0000 0.0000 0.0000 0.0000 0.0000 30.4015
#
#
#
# Elastic Compliance Matrix: (Units=1/GPa)
#
#
# Indices 1 2 3 4 5 6 
#
# 1 0.020947 -0.001167 -0.002874 0.000000 0.000000 0.000000
# 2 -0.001167 0.010288 -0.004618 0.000000 0.000000 0.000000
# 3 -0.002874 -0.004618 0.018368 0.000000 0.000000 0.000000
# 4 0.000000 0.000000 0.000000 0.031815 0.000000 0.000000
# 5 0.000000 0.000000 0.000000 0.000000 0.037664 0.000000
# 6 0.000000 0.000000 0.000000 0.000000 0.000000 0.032893
#
#
# Mechanical properties :
#
#
# Convention : Reuss Voigt Hill
#
# Bulk Modulus (GPa) = 30.97326 36.18700 33.58013
# Shear Modulus (GPa) = 27.76927 29.31689 28.54308
#
# Velocity S-wave (km/s) = 3.72334 3.82568 3.77486
# Velocity P-wave (km/s) = 5.82641 6.13026 5.98026
#
# Compressibility (1/GPa) = 0.03228592
#
# Stress axis : x y z
#
# Youngs Moduli (GPa) = 47.73863 97.20223 54.44239
#
# Poissons Ratio (x) = 0.11346 0.15644
# Poissons Ratio (y) = 0.05572 0.25141
# Poissons Ratio (z) = 0.13718 0.44887
#
# Static dielectric constant tensor:
#      x y z
#    x 1.702170 0.000000 0.000000 
#    y 0.000000 1.751080 0.000000 
#    z 0.000000 0.000000 1.702520 
# 
# From -- ./inp_files/42021.got.cif
#   From: 2010.05.17/outbox.cif.g08.bks.cpg/sg69_22_cif.got.tgz:42021.got - 2010.06.03 19:29:58.
