data_PCOD9512441
_publ_section_title
;
Structure prediction by ZEFSAII (Michael W. Deem and Ramdas Pophale) SiO2 
 PCOD9512441
Probable space group: F M M M
;
_chemical_formula_sum "Si O2"
_cell_formula_units_Z 192
_cell_length_a 27.927864
_cell_length_b 21.428993
_cell_length_c 17.941601
_cell_angle_alpha 90.000000
_cell_angle_beta 90.000000
_cell_angle_gamma 90.000000
_cell_volume 10737.438223
_symmetry_space_group_name_H-M "F M M M"
_symmetry_group_IT_number 69
_symmetry_cell_setting 'orthorhombic'
loop_
_space_group_symop_operation_xyz
x,y,z
-x,-y,z
x,-y,-z
-x,y,-z
-x,-y,-z
x,y,-z
-x,y,z
x,-y,z
x,1/2+y,1/2+z
-x,1/2-y,1/2+z
x,1/2-y,1/2-z
-x,1/2+y,1/2-z
-x,1/2-y,1/2-z
x,1/2+y,1/2-z
-x,1/2+y,1/2+z
x,1/2-y,1/2+z
1/2+x,y,1/2+z
1/2-x,-y,1/2+z
1/2+x,-y,1/2-z
1/2-x,y,1/2-z
1/2-x,-y,1/2-z
1/2+x,y,1/2-z
1/2-x,y,1/2+z
1/2+x,-y,1/2+z
1/2+x,1/2+y,z
1/2-x,1/2-y,z
1/2+x,1/2-y,-z
1/2-x,1/2+y,-z
1/2-x,1/2-y,-z
1/2+x,1/2+y,-z
1/2-x,1/2+y,z
1/2+x,1/2-y,z
loop_
_atom_site_type_symbol
_atom_site_label
_atom_site_fract_x
_atom_site_fract_y
_atom_site_fract_z
Si Si1 0.693537 0.000000 0.163837
Si Si2 0.805813 0.128873 0.413256
Si Si3 0.145805 0.252604 0.161334
Si Si4 0.809807 0.129808 0.913189
Si Si5 0.943911 0.704739 0.590040
Si Si6 0.441860 0.566426 0.912506
Si Si7 0.189586 0.500000 0.336306
O O1 0.678647 0.063014 0.121947
O O2 0.751899 0.000000 0.162666
O O3 0.676642 0.000000 0.249298
O O4 0.819490 0.132896 0.500000
O O5 0.827021 0.186705 0.368413
O O6 0.747999 0.131379 0.409605
O O7 0.146239 0.250000 0.250000
O O8 0.170890 0.190640 0.128320
O O9 0.091937 0.251739 0.129284
O O10 0.825446 0.063812 0.877424
O O11 0.823883 0.132049 0.000000
O O12 0.938903 0.706969 0.500000
O O13 0.928675 0.634712 0.616214
O O14 0.000000 0.714116 0.606674
O O15 0.500000 0.566670 0.910746
O O16 0.426247 0.500000 0.878503
O O17 0.428732 0.565366 0.000000
#
# Coordination Sequence:
#
# PCOD9512441 Si02
#       7
#    16  32  32  32  32  32  16
#     4   9  17  31  53  79 104 137 178 215 263 319
#     4  10  20  35  56  78 103 138 182 228 265 307
#     4  12  24  35  50  75 108 142 179 221 272 321
#     4  10  20  35  54  78 108 142 178 216 261 317
#     4   9  18  34  54  74 100 134 174 219 263 315
#     4   7  10  20  42  70  95 120 153 193 238 292
#     4   9  17  31  51  77 112 143 168 207 261 321
#
# _framework density 17.881360000000001
#
# number of rings (size 3 to 8) (size 9 to 14) (size 15 to 20)
#    0.000    2.500    0.000    5.000    0.000    6.333 
#    1.500    0.000    0.000    0.000    0.000    0.583 
#    0.000    2.667    0.000    0.000    0.000    0.000 
#
# Total GULP energy -267852.389879 kJ/mol
# GULP energy per Si atom -5580.258122 kJ/mol
# Density = 1.784066 g / cm^3
# Si number density = 17.881360 Si / 1000 Ang^3
#
#
#
# Elastic Constant Matrix: (Units=GPa)
#
#
# Indices 1 2 3 4 5 6 
#
# 1 54.7132 46.5251 39.8426 0.0000 0.0000 0.0000
# 2 46.5251 133.8966 68.0499 0.0000 0.0000 0.0000
# 3 39.8426 68.0499 127.8155 0.0000 0.0000 0.0000
# 4 0.0000 0.0000 0.0000 26.9859 0.0000 0.0000
# 5 0.0000 0.0000 0.0000 0.0000 16.2620 0.0000
# 6 0.0000 0.0000 0.0000 0.0000 0.0000 22.8405
#
#
#
# Elastic Compliance Matrix: (Units=1/GPa)
#
#
# Indices 1 2 3 4 5 6 
#
# 1 0.027985 -0.007253 -0.004862 0.000000 0.000000 0.000000
# 2 -0.007253 0.012119 -0.004191 0.000000 0.000000 0.000000
# 3 -0.004862 -0.004191 0.011571 0.000000 0.000000 0.000000
# 4 0.000000 0.000000 0.000000 0.037056 0.000000 0.000000
# 5 0.000000 0.000000 0.000000 0.000000 0.061493 0.000000
# 6 0.000000 0.000000 0.000000 0.000000 0.000000 0.043782
#
#
# Mechanical properties :
#
#
# Convention : Reuss Voigt Hill
#
# Bulk Modulus (GPa) = 52.45945 69.47339 60.96642
# Shear Modulus (GPa) = 21.46173 24.01818 22.73995
#
# Velocity S-wave (km/s) = 3.46819 3.66894 3.56998
# Velocity P-wave (km/s) = 6.74084 7.54221 7.15276
#
# Compressibility (1/GPa) = 0.01906234
#
# Stress axis : x y z
#
# Youngs Moduli (GPa) = 35.73306 82.51672 86.42459
#
# Poissons Ratio (x) = 0.59850 0.42020
# Poissons Ratio (y) = 0.25917 0.36222
# Poissons Ratio (z) = 0.17373 0.34584
#
# Static dielectric constant tensor:
#      x y z
#    x 1.643680 0.000000 0.000000 
#    y 0.000000 1.616290 0.000000 
#    z 0.000000 0.000000 1.582350 
# 
# From -- ./inp_files/27814.got.cif
#   From: 2010.05.17/outbox.cif.g08.bks.cpg/sg69_14_cif.got.tgz:27814.got - 2010.06.03 19:29:58.
