data_PCOD9512723
_publ_section_title
;
Structure prediction by ZEFSAII (Michael W. Deem and Ramdas Pophale) SiO2 
 PCOD9512723
Probable space group: F M M M
;
_chemical_formula_sum "Si O2"
_cell_formula_units_Z 176
_cell_length_a 22.555270
_cell_length_b 26.051373
_cell_length_c 15.979436
_cell_angle_alpha 90.000000
_cell_angle_beta 90.000000
_cell_angle_gamma 90.000000
_cell_volume 9389.448711
_symmetry_space_group_name_H-M "F M M M"
_symmetry_group_IT_number 69
_symmetry_cell_setting 'orthorhombic'
loop_
_space_group_symop_operation_xyz
x,y,z
-x,-y,z
x,-y,-z
-x,y,-z
-x,-y,-z
x,y,-z
-x,y,z
x,-y,z
x,1/2+y,1/2+z
-x,1/2-y,1/2+z
x,1/2-y,1/2-z
-x,1/2+y,1/2-z
-x,1/2-y,1/2-z
x,1/2+y,1/2-z
-x,1/2+y,1/2+z
x,1/2-y,1/2+z
1/2+x,y,1/2+z
1/2-x,-y,1/2+z
1/2+x,-y,1/2-z
1/2-x,y,1/2-z
1/2-x,-y,1/2-z
1/2+x,y,1/2-z
1/2-x,y,1/2+z
1/2+x,-y,1/2+z
1/2+x,1/2+y,z
1/2-x,1/2-y,z
1/2+x,1/2-y,-z
1/2-x,1/2+y,-z
1/2-x,1/2-y,-z
1/2+x,1/2+y,-z
1/2-x,1/2+y,z
1/2+x,1/2-y,z
loop_
_atom_site_type_symbol
_atom_site_label
_atom_site_fract_x
_atom_site_fract_y
_atom_site_fract_z
Si Si1 0.335688 0.781310 0.669325
Si Si2 0.433319 0.437977 0.000000
Si Si3 0.871111 0.868152 0.290233
Si Si4 0.247073 0.640035 0.098487
Si Si5 0.433908 0.704634 0.401700
Si Si6 0.152455 0.439225 0.652201
O O1 0.313501 0.750000 0.750000
O O2 0.369851 0.828776 0.712222
O O3 0.284037 0.807652 0.615795
O O4 0.382208 0.744848 0.622344
O O5 0.396208 0.424260 0.082339
O O6 0.436896 0.500000 0.000000
O O7 0.500000 0.417158 0.000000
O O8 0.811010 0.861239 0.344051
O O9 0.922124 0.847584 0.350445
O O10 0.869823 0.922587 0.244177
O O11 0.289032 0.593240 0.128699
O O12 0.233822 0.635821 0.000000
O O13 0.430290 0.694718 0.500000
O O14 0.500000 0.724546 0.381984
O O15 0.163069 0.500000 0.647091
#
# Coordination Sequence:
#
# PCOD9512723 Si02
#       6
#    32  16  32  32  32  32
#     4   9  19  34  53  77 109 143 185 228 279 333
#     4   9  18  34  56  82 110 141 177 221 279 340
#     4  10  22  35  54  82 113 149 188 230 279 336
#     4  11  21  35  55  81 117 149 189 230 280 336
#     4  10  21  38  58  80 109 145 189 237 286 337
#     4  10  20  37  58  82 114 148 184 231 281 333
#
# _framework density 18.744444999999999
#
# number of rings (size 3 to 8) (size 9 to 14) (size 15 to 20)
#    0.000    2.091    0.909    3.273    0.000   10.545 
#    0.000    7.273    0.000    1.636    0.000    1.273 
#    0.000    0.000    0.000    0.000    0.000    0.000 
#
# Total GULP energy -245418.320942 kJ/mol
# GULP energy per Si atom -5577.689112 kJ/mol
# Density = 1.870178 g / cm^3
# Si number density = 18.744445 Si / 1000 Ang^3
#
#
#
# Elastic Constant Matrix: (Units=GPa)
#
#
# Indices 1 2 3 4 5 6 
#
# 1 88.8227 27.0172 41.1736 0.0000 0.0000 0.0000
# 2 27.0172 77.3762 33.3610 0.0000 0.0000 0.0000
# 3 41.1736 33.3610 111.4806 0.0000 0.0000 0.0000
# 4 0.0000 0.0000 0.0000 27.2330 0.0000 0.0000
# 5 0.0000 0.0000 0.0000 0.0000 -0.7328 0.0000
# 6 0.0000 0.0000 0.0000 0.0000 0.0000 19.0691
#
#
#
# Elastic Compliance Matrix: (Units=1/GPa)
#
#
# Indices 1 2 3 4 5 6 
#
# 1 0.014202 -0.003097 -0.004319 0.000000 0.000000 0.000000
# 2 -0.003097 0.015514 -0.003499 0.000000 0.000000 0.000000
# 3 -0.004319 -0.003499 0.011612 0.000000 0.000000 0.000000
# 4 0.000000 0.000000 0.000000 0.036720 0.000000 0.000000
# 5 0.000000 0.000000 0.000000 0.000000 -1.364676 0.000000
# 6 0.000000 0.000000 0.000000 0.000000 0.000000 0.052441
#
#
# Mechanical properties :
#
#
# Convention : Reuss Voigt Hill
#
# Bulk Modulus (GPa) = 51.28319 53.42035 52.35177
# Shear Modulus (GPa) = -4.14642 20.85573 8.35465
#
# Velocity S-wave (km/s) = -1.48892 3.33924 2.11348
# Velocity P-wave (km/s) = 4.94598 6.59003 5.82629
#
# Compressibility (1/GPa) = 0.01949957
#
# Stress axis : x y z
#
# Youngs Moduli (GPa) = 70.41130 64.45912 86.11652
#
# Poissons Ratio (x) = 0.19963 0.37190
# Poissons Ratio (y) = 0.21806 0.30130
# Poissons Ratio (z) = 0.30408 0.22552
#
# Static dielectric constant tensor:
#      x y z
#    x 1.668600 0.000000 0.000000 
#    y 0.000000 1.680940 0.000000 
#    z 0.000000 0.000000 1.649930 
# 
# From -- ./inp_files/18136.got.cif
#   From: 2010.05.17/outbox.cif.g08.bks.cpg/sg69_10_cif.got.tgz:18136.got - 2010.06.03 19:29:58.
