data_PCOD9512395
_publ_section_title
;
Structure prediction by ZEFSAII (Michael W. Deem and Ramdas Pophale) SiO2 
 PCOD9512395
Probable space group: F M M M
;
_chemical_formula_sum "Si O2"
_cell_formula_units_Z 128
_cell_length_a 15.760815
_cell_length_b 15.213528
_cell_length_c 26.209422
_cell_angle_alpha 90.000000
_cell_angle_beta 90.000000
_cell_angle_gamma 90.000000
_cell_volume 6284.432313
_symmetry_space_group_name_H-M "F M M M"
_symmetry_group_IT_number 69
_symmetry_cell_setting 'orthorhombic'
loop_
_space_group_symop_operation_xyz
x,y,z
-x,-y,z
x,-y,-z
-x,y,-z
-x,-y,-z
x,y,-z
-x,y,z
x,-y,z
x,1/2+y,1/2+z
-x,1/2-y,1/2+z
x,1/2-y,1/2-z
-x,1/2+y,1/2-z
-x,1/2-y,1/2-z
x,1/2+y,1/2-z
-x,1/2+y,1/2+z
x,1/2-y,1/2+z
1/2+x,y,1/2+z
1/2-x,-y,1/2+z
1/2+x,-y,1/2-z
1/2-x,y,1/2-z
1/2-x,-y,1/2-z
1/2+x,y,1/2-z
1/2-x,y,1/2+z
1/2+x,-y,1/2+z
1/2+x,1/2+y,z
1/2-x,1/2-y,z
1/2+x,1/2-y,-z
1/2-x,1/2+y,-z
1/2-x,1/2-y,-z
1/2+x,1/2+y,-z
1/2-x,1/2+y,z
1/2+x,1/2-y,z
loop_
_atom_site_type_symbol
_atom_site_label
_atom_site_fract_x
_atom_site_fract_y
_atom_site_fract_z
Si Si1 0.169191 0.858591 0.651554
Si Si2 0.906736 0.895602 0.246490
Si Si3 0.000000 0.403019 0.905771
Si Si4 0.352550 0.846867 0.633319
Si Si5 0.000000 0.304692 0.560039
O O1 0.162086 0.863746 0.712793
O O2 0.259583 0.890615 0.630247
O O3 0.162014 0.756978 0.637870
O O4 0.085658 0.902519 0.628011
O O5 0.890661 0.875222 0.187606
O O6 0.000000 0.859335 0.260805
O O7 0.908401 0.000000 0.251952
O O8 0.000000 0.303668 0.931184
O O9 0.000000 0.500000 0.933190
O O10 0.419259 0.850763 0.587436
O O11 0.000000 0.318554 0.500000
#
# Coordination Sequence:
#
# PCOD9512395 Si02
#       5
#    32  32  16  32  16
#     4  10  20  34  56  86 120 157 191 231 287 357
#     4  11  21  32  52  85 123 159 191 233 289 353
#     4  10  20  36  59  90 122 149 188 243 303 361
#     4  10  21  37  56  84 116 155 204 243 283 344
#     4  10  22  42  66  85 111 154 203 257 299 335
#
# _framework density 20.367789999999999
#
# number of rings (size 3 to 8) (size 9 to 14) (size 15 to 20)
#    0.000    1.750    2.500    2.250    0.000    6.250 
#    0.000   10.000    0.000    1.500    0.000    0.000 
#    0.000    0.000    0.000    0.000    0.000    0.000 
#
# Total GULP energy -178329.716405 kJ/mol
# GULP energy per Si atom -5572.803638 kJ/mol
# Density = 2.032143 g / cm^3
# Si number density = 20.367790 Si / 1000 Ang^3
#
#
#
# Elastic Constant Matrix: (Units=GPa)
#
#
# Indices 1 2 3 4 5 6 
#
# 1 175.0613 29.0841 84.7727 0.0000 0.0000 0.0000
# 2 29.0841 31.6709 2.1921 0.0000 0.0000 0.0000
# 3 84.7727 2.1921 146.4765 0.0000 0.0000 0.0000
# 4 0.0000 0.0000 0.0000 4.5106 0.0000 0.0000
# 5 0.0000 0.0000 0.0000 0.0000 24.3542 0.0000
# 6 0.0000 0.0000 0.0000 0.0000 0.0000 -18.7023
#
#
#
# Elastic Compliance Matrix: (Units=1/GPa)
#
#
# Indices 1 2 3 4 5 6 
#
# 1 0.009848 -0.008658 -0.005570 0.000000 0.000000 0.000000
# 2 -0.008658 0.039219 0.004424 0.000000 0.000000 0.000000
# 3 -0.005570 0.004424 0.009984 0.000000 0.000000 0.000000
# 4 0.000000 0.000000 0.000000 0.221700 0.000000 0.000000
# 5 0.000000 0.000000 0.000000 0.000000 0.041061 0.000000
# 6 0.000000 0.000000 0.000000 0.000000 0.000000 -0.053469
#
#
# Mechanical properties :
#
#
# Convention : Reuss Voigt Hill
#
# Bulk Modulus (GPa) = 25.35264 65.03408 45.19336
# Shear Modulus (GPa) = 16.60585 17.84314 17.22449
#
# Velocity S-wave (km/s) = 2.85844 2.96302 2.91120
# Velocity P-wave (km/s) = 4.83412 6.61099 5.79111
#
# Compressibility (1/GPa) = 0.03944362
#
# Stress axis : x y z
#
# Youngs Moduli (GPa) = 101.54470 25.49757 100.15670
#
# Poissons Ratio (x) = 0.22076 0.55786
# Poissons Ratio (y) = 0.87918 -0.44308
# Poissons Ratio (z) = 0.56559 -0.11280
#
# Static dielectric constant tensor:
#      x y z
#    x 1.813910 0.000000 0.000000 
#    y 0.000000 1.734530 0.000000 
#    z 0.000000 0.000000 1.691450 
# 
# From -- ./inp_files/18614.got.cif
#   From: 2010.05.17/outbox.cif.g08.bks.cpg/sg69_10_cif.got.tgz:18614.got - 2010.06.03 19:29:58.
