data_PCOD9512777
_publ_section_title
;
Structure prediction by ZEFSAII (Michael W. Deem and Ramdas Pophale) SiO2 
 PCOD9512777
Probable space group: F M M M
;
_chemical_formula_sum "Si O2"
_cell_formula_units_Z 128
_cell_length_a 15.480621
_cell_length_b 14.725266
_cell_length_c 29.481340
_cell_angle_alpha 90.000000
_cell_angle_beta 90.000000
_cell_angle_gamma 90.000000
_cell_volume 6720.456067
_symmetry_space_group_name_H-M "F M M M"
_symmetry_group_IT_number 69
_symmetry_cell_setting 'orthorhombic'
loop_
_space_group_symop_operation_xyz
x,y,z
-x,-y,z
x,-y,-z
-x,y,-z
-x,-y,-z
x,y,-z
-x,y,z
x,-y,z
x,1/2+y,1/2+z
-x,1/2-y,1/2+z
x,1/2-y,1/2-z
-x,1/2+y,1/2-z
-x,1/2-y,1/2-z
x,1/2+y,1/2-z
-x,1/2+y,1/2+z
x,1/2-y,1/2+z
1/2+x,y,1/2+z
1/2-x,-y,1/2+z
1/2+x,-y,1/2-z
1/2-x,y,1/2-z
1/2-x,-y,1/2-z
1/2+x,y,1/2-z
1/2-x,y,1/2+z
1/2+x,-y,1/2+z
1/2+x,1/2+y,z
1/2-x,1/2-y,z
1/2+x,1/2-y,-z
1/2-x,1/2+y,-z
1/2-x,1/2-y,-z
1/2+x,1/2+y,-z
1/2-x,1/2+y,z
1/2+x,1/2-y,z
loop_
_atom_site_type_symbol
_atom_site_label
_atom_site_fract_x
_atom_site_fract_y
_atom_site_fract_z
Si Si1 0.500000 0.193377 0.448552
Si Si2 0.897924 0.245106 0.803261
Si Si3 0.500000 0.899303 0.926253
Si Si4 0.136498 0.106747 0.880838
Si Si5 0.329231 0.898959 0.864305
O O1 0.500000 0.157343 0.500000
O O2 0.500000 0.302750 0.450931
O O3 0.581091 0.158602 0.418779
O O4 0.879361 0.250000 0.750000
O O5 0.881454 0.153194 0.831872
O O6 0.842222 0.321929 0.827510
O O7 0.000000 0.265903 0.808936
O O8 0.413157 0.896604 0.896036
O O9 0.500000 0.000000 0.948514
O O10 0.238817 0.115714 0.889731
O O11 0.114175 0.000000 0.880411
O O12 0.324548 0.000000 0.843713
#
# Coordination Sequence:
#
# PCOD9512777 Si02
#       5
#    16  32  16  32  32
#     4  12  25  43  68  93 122 162 206 255 311 375
#     4  11  22  37  61  91 126 169 211 253 309 372
#     4  10  20  40  65  92 122 155 194 249 310 363
#     4  11  23  40  62  90 125 165 207 256 311 365
#     4  10  20  37  64  89 120 162 205 252 309 370
#
# _framework density 19.046327000000002
#
# number of rings (size 3 to 8) (size 9 to 14) (size 15 to 20)
#    0.000    1.250    5.000    1.125    0.000    4.250 
#    0.000    7.500    0.000    4.500    0.000    0.000 
#    0.000    0.000    0.000    0.000    0.000    0.000 
#
# Total GULP energy -178531.442657 kJ/mol
# GULP energy per Si atom -5579.107583 kJ/mol
# Density = 1.900298 g / cm^3
# Si number density = 19.046327 Si / 1000 Ang^3
#
#
#
# Elastic Constant Matrix: (Units=GPa)
#
#
# Indices 1 2 3 4 5 6 
#
# 1 129.6195 44.9202 47.3132 0.0000 0.0000 0.0000
# 2 44.9202 152.4641 64.1788 0.0000 0.0000 0.0000
# 3 47.3132 64.1788 114.0873 0.0000 0.0000 0.0000
# 4 0.0000 0.0000 0.0000 -1.0037 0.0000 0.0000
# 5 0.0000 0.0000 0.0000 0.0000 -52.2014 0.0000
# 6 0.0000 0.0000 0.0000 0.0000 0.0000 40.5506
#
#
#
# Elastic Compliance Matrix: (Units=1/GPa)
#
#
# Indices 1 2 3 4 5 6 
#
# 1 0.009335 -0.001469 -0.003045 0.000000 0.000000 0.000000
# 2 -0.001469 0.008825 -0.004355 0.000000 0.000000 0.000000
# 3 -0.003045 -0.004355 0.012478 0.000000 0.000000 0.000000
# 4 0.000000 0.000000 0.000000 -0.996272 0.000000 0.000000
# 5 0.000000 0.000000 0.000000 0.000000 -0.019157 0.000000
# 6 0.000000 0.000000 0.000000 0.000000 0.000000 0.024661
#
#
# Mechanical properties :
#
#
# Convention : Reuss Voigt Hill
#
# Bulk Modulus (GPa) = 77.51925 78.77726 78.14825
# Shear Modulus (GPa) = -5.32997 13.45301 4.06152
#
# Velocity S-wave (km/s) = -1.67466 2.66057 1.46187
# Velocity P-wave (km/s) = 6.08682 7.13364 6.63092
#
# Compressibility (1/GPa) = 0.01290002
#
# Stress axis : x y z
#
# Youngs Moduli (GPa) = 107.11871 113.31488 80.13938
#
# Poissons Ratio (x) = 0.16641 0.24406
# Poissons Ratio (y) = 0.15731 0.34904
# Poissons Ratio (z) = 0.32622 0.49353
#
# Static dielectric constant tensor:
#      x y z
#    x 1.678340 0.000000 0.000000 
#    y 0.000000 1.684020 0.000000 
#    z 0.000000 0.000000 1.628600 
# 
# From -- ./inp_files/46145.got.cif
#   From: 2010.05.17/outbox.cif.g08.bks.cpg/sg69_24_cif.got.tgz:46145.got - 2010.06.03 19:29:58.
