data_PCOD9512134
_publ_section_title
;
Structure prediction by ZEFSAII (Michael W. Deem and Ramdas Pophale) SiO2 
 PCOD9512134
Probable space group: F M M M
;
_chemical_formula_sum "Si O2"
_cell_formula_units_Z 176
_cell_length_a 14.758302
_cell_length_b 23.217435
_cell_length_c 30.041482
_cell_angle_alpha 90.000000
_cell_angle_beta 90.000000
_cell_angle_gamma 90.000000
_cell_volume 10293.711326
_symmetry_space_group_name_H-M "F M M M"
_symmetry_group_IT_number 69
_symmetry_cell_setting 'orthorhombic'
loop_
_space_group_symop_operation_xyz
x,y,z
-x,-y,z
x,-y,-z
-x,y,-z
-x,-y,-z
x,y,-z
-x,y,z
x,-y,z
x,1/2+y,1/2+z
-x,1/2-y,1/2+z
x,1/2-y,1/2-z
-x,1/2+y,1/2-z
-x,1/2-y,1/2-z
x,1/2+y,1/2-z
-x,1/2+y,1/2+z
x,1/2-y,1/2+z
1/2+x,y,1/2+z
1/2-x,-y,1/2+z
1/2+x,-y,1/2-z
1/2-x,y,1/2-z
1/2-x,-y,1/2-z
1/2+x,y,1/2-z
1/2-x,y,1/2+z
1/2+x,-y,1/2+z
1/2+x,1/2+y,z
1/2-x,1/2-y,z
1/2+x,1/2-y,-z
1/2-x,1/2+y,-z
1/2-x,1/2-y,-z
1/2+x,1/2+y,-z
1/2-x,1/2+y,z
1/2+x,1/2-y,z
loop_
_atom_site_type_symbol
_atom_site_label
_atom_site_fract_x
_atom_site_fract_y
_atom_site_fract_z
Si Si1 0.110002 0.619788 0.094426
Si Si2 0.346637 0.665223 0.266561
Si Si3 0.606426 0.267319 0.644846
Si Si4 0.102972 0.143805 0.831019
Si Si5 0.390279 0.433306 0.500000
Si Si6 0.777765 0.566698 0.827976
O O1 0.137861 0.684464 0.109715
O O2 0.135152 0.600770 0.044736
O O3 0.159987 0.577826 0.128904
O O4 0.000000 0.615799 0.099274
O O5 0.250000 0.687502 0.250000
O O6 0.382463 0.704840 0.306142
O O7 0.402371 0.658351 0.221678
O O8 0.325658 0.603490 0.289018
O O9 0.500000 0.259988 0.636867
O O10 0.642243 0.202189 0.646081
O O11 0.178544 0.094646 0.835704
O O12 0.000000 0.130610 0.846175
O O13 0.358415 0.500000 0.500000
O O14 0.500000 0.435704 0.500000
O O15 0.771107 0.500000 0.817280
#
# Coordination Sequence:
#
# PCOD9512134 Si02
#       6
#    32  32  32  32  16  32
#     4   9  18  32  52  78 103 124 148 186 238 296
#     4   9  18  28  44  66  91 121 159 203 247 286
#     4   9  17  30  47  68  94 123 157 196 242 289
#     4  10  20  32  47  66  91 128 171 209 237 268
#     4   9  16  28  50  79 107 131 152 177 225 301
#     4  10  21  34  47  67  97 131 165 200 244 294
#
# _framework density 17.097816999999999
#
# number of rings (size 3 to 8) (size 9 to 14) (size 15 to 20)
#    0.000    2.636    0.000    1.636    0.000   15.636 
#    0.000    0.000    0.000    2.182    0.000    1.909 
#    0.000    2.182    0.000    0.000    0.000    0.000 
#
# Total GULP energy -245142.414480 kJ/mol
# GULP energy per Si atom -5571.418511 kJ/mol
# Density = 1.705890 g / cm^3
# Si number density = 17.097817 Si / 1000 Ang^3
#
#
#
# Elastic Constant Matrix: (Units=GPa)
#
#
# Indices 1 2 3 4 5 6 
#
# 1 53.9431 21.7729 10.8582 0.0000 0.0000 0.0000
# 2 21.7729 134.5636 27.7876 0.0000 0.0000 0.0000
# 3 10.8582 27.7876 87.7907 0.0000 0.0000 0.0000
# 4 0.0000 0.0000 0.0000 7.3139 0.0000 0.0000
# 5 0.0000 0.0000 0.0000 0.0000 14.0404 0.0000
# 6 0.0000 0.0000 0.0000 0.0000 0.0000 17.4830
#
#
#
# Elastic Compliance Matrix: (Units=1/GPa)
#
#
# Indices 1 2 3 4 5 6 
#
# 1 0.020029 -0.002920 -0.001553 0.000000 0.000000 0.000000
# 2 -0.002920 0.008377 -0.002290 0.000000 0.000000 0.000000
# 3 -0.001553 -0.002290 0.012308 0.000000 0.000000 0.000000
# 4 0.000000 0.000000 0.000000 0.136727 0.000000 0.000000
# 5 0.000000 0.000000 0.000000 0.000000 0.071223 0.000000
# 6 0.000000 0.000000 0.000000 0.000000 0.000000 0.057199
#
#
# Mechanical properties :
#
#
# Convention : Reuss Voigt Hill
#
# Bulk Modulus (GPa) = 36.78218 44.12609 40.45413
# Shear Modulus (GPa) = 15.22295 22.15935 18.69115
#
# Velocity S-wave (km/s) = 2.98710 3.60395 3.30993
# Velocity P-wave (km/s) = 5.78416 6.57130 6.19026
#
# Compressibility (1/GPa) = 0.02718708
#
# Stress axis : x y z
#
# Youngs Moduli (GPa) = 49.92686 119.37648 81.24973
#
# Poissons Ratio (x) = 0.34859 0.12618
# Poissons Ratio (y) = 0.14579 0.18608
# Poissons Ratio (z) = 0.07754 0.27341
#
# Static dielectric constant tensor:
#      x y z
#    x 1.623590 0.000000 0.000000 
#    y 0.000000 1.614110 0.000000 
#    z 0.000000 0.000000 1.578530 
# 
# From -- ./inp_files/36179.got.cif
#   From: 2010.05.17/outbox.cif.g08.bks.cpg/sg69_19_cif.got.tgz:36179.got - 2010.06.03 19:29:58.
