data_PCOD9512468
_publ_section_title
;
Structure prediction by ZEFSAII (Michael W. Deem and Ramdas Pophale) SiO2 
 PCOD9512468
Probable space group: F M M M
;
_chemical_formula_sum "Si O2"
_cell_formula_units_Z 160
_cell_length_a 29.944568
_cell_length_b 9.077251
_cell_length_c 30.735493
_cell_angle_alpha 90.000000
_cell_angle_beta 90.000000
_cell_angle_gamma 90.000000
_cell_volume 8354.348354
_symmetry_space_group_name_H-M "F M M M"
_symmetry_group_IT_number 69
_symmetry_cell_setting 'orthorhombic'
loop_
_space_group_symop_operation_xyz
x,y,z
-x,-y,z
x,-y,-z
-x,y,-z
-x,-y,-z
x,y,-z
-x,y,z
x,-y,z
x,1/2+y,1/2+z
-x,1/2-y,1/2+z
x,1/2-y,1/2-z
-x,1/2+y,1/2-z
-x,1/2-y,1/2-z
x,1/2+y,1/2-z
-x,1/2+y,1/2+z
x,1/2-y,1/2+z
1/2+x,y,1/2+z
1/2-x,-y,1/2+z
1/2+x,-y,1/2-z
1/2-x,y,1/2-z
1/2-x,-y,1/2-z
1/2+x,y,1/2-z
1/2-x,y,1/2+z
1/2+x,-y,1/2+z
1/2+x,1/2+y,z
1/2-x,1/2-y,z
1/2+x,1/2-y,-z
1/2-x,1/2+y,-z
1/2-x,1/2-y,-z
1/2+x,1/2+y,-z
1/2-x,1/2+y,z
1/2+x,1/2-y,z
loop_
_atom_site_type_symbol
_atom_site_label
_atom_site_fract_x
_atom_site_fract_y
_atom_site_fract_z
Si Si1 0.204278 0.676617 0.112517
Si Si2 0.319403 0.825772 0.704909
Si Si3 0.500000 0.169823 0.795626
Si Si4 0.551780 0.320799 0.000000
Si Si5 0.581995 0.837493 0.326977
Si Si6 0.619468 0.169727 0.575707
O O1 0.206668 0.500000 0.114345
O O2 0.250000 0.750000 0.096379
O O3 0.197146 0.742446 0.161486
O O4 0.163139 0.730766 0.082559
O O5 0.305010 0.750000 0.750000
O O6 0.373367 0.816712 0.701246
O O7 0.307392 0.000000 0.703242
O O8 0.500000 0.250000 0.750000
O O9 0.544505 0.218556 0.819945
O O10 0.500000 0.000000 0.788219
O O11 0.582004 0.278948 0.041592
O O12 0.549339 0.500000 0.000000
O O13 0.500000 0.268786 0.000000
O O14 0.597462 0.835729 0.376729
O O15 0.563419 0.000000 0.316781
O O16 0.632361 0.000000 0.564479
#
# Coordination Sequence:
#
# PCOD9512468 Si02
#       6
#    32  32  16  16  32  32
#     4  11  22  38  60  84 115 154 197 242 293 347
#     4  10  20  35  55  81 112 149 193 241 292 343
#     4  12  24  34  48  71 102 141 191 240 283 334
#     4   9  18  34  64  99 124 151 190 235 284 345
#     4   9  19  34  53  75 106 146 186 232 283 337
#     4   9  19  37  61  89 119 150 189 235 286 347
#
# _framework density 19.151703000000001
#
# number of rings (size 3 to 8) (size 9 to 14) (size 15 to 20)
#    0.000    2.100    0.000    5.100    1.400    6.000 
#    0.000    3.000    0.000    0.600    0.000    0.000 
#    0.000    0.000    0.000    0.000    0.000    0.000 
#
# Total GULP energy -223228.820185 kJ/mol
# GULP energy per Si atom -5580.720505 kJ/mol
# Density = 1.910811 g / cm^3
# Si number density = 19.151703 Si / 1000 Ang^3
#
#
#
# Elastic Constant Matrix: (Units=GPa)
#
#
# Indices 1 2 3 4 5 6 
#
# 1 129.0094 74.2161 46.1852 0.0000 0.0000 0.0000
# 2 74.2161 142.4313 25.2937 0.0000 0.0000 -0.0001
# 3 46.1852 25.2937 76.2528 0.0000 0.0000 0.0000
# 4 0.0000 0.0000 0.0000 17.3577 0.0000 0.0000
# 5 0.0000 0.0000 0.0000 0.0000 0.8827 0.0000
# 6 0.0000 -0.0001 0.0000 0.0000 0.0000 28.8408
#
#
#
# Elastic Compliance Matrix: (Units=1/GPa)
#
#
# Indices 1 2 3 4 5 6 
#
# 1 0.013305 -0.005846 -0.006120 0.000000 0.000000 0.000000
# 2 -0.005846 0.010029 0.000214 0.000000 0.000000 0.000000
# 3 -0.006120 0.000214 0.016750 0.000000 0.000000 0.000000
# 4 0.000000 0.000000 0.000000 0.057611 0.000000 0.000000
# 5 0.000000 0.000000 0.000000 0.000000 1.132888 0.000000
# 6 0.000000 0.000000 0.000000 0.000000 0.000000 0.034673
#
#
# Mechanical properties :
#
#
# Convention : Reuss Voigt Hill
#
# Bulk Modulus (GPa) = 60.30986 71.00930 65.65958
# Shear Modulus (GPa) = 3.86313 22.88281 13.37297
#
# Velocity S-wave (km/s) = 1.42179 3.46036 2.64534
# Velocity P-wave (km/s) = 5.85272 7.28857 6.60975
#
# Compressibility (1/GPa) = 0.01658104
#
# Stress axis : x y z
#
# Youngs Moduli (GPa) = 75.15743 99.70920 59.70225
#
# Poissons Ratio (x) = 0.58292 0.36536
# Poissons Ratio (y) = 0.43939 -0.01279
# Poissons Ratio (z) = 0.45994 -0.02136
#
# Static dielectric constant tensor:
#      x y z
#    x 1.666090 0.000000 0.000000 
#    y 0.000000 0.179510 0.000000 
#    z 0.000000 0.000000 1.658180 
# 
# From -- ./inp_files/5777.got.cif
#   From: 2010.05.17/outbox.cif.g08.bks.cpg/sg69_3_cif.got.tgz:5777.got - 2010.06.03 19:29:58.
