data_PCOD9512368
_publ_section_title
;
Structure prediction by ZEFSAII (Michael W. Deem and Ramdas Pophale) SiO2 
 PCOD9512368
Probable space group: F M M M
;
_chemical_formula_sum "Si O2"
_cell_formula_units_Z 192
_cell_length_a 14.755005
_cell_length_b 24.068792
_cell_length_c 27.821589
_cell_angle_alpha 90.000000
_cell_angle_beta 90.000000
_cell_angle_gamma 90.000000
_cell_volume 9880.424080
_symmetry_space_group_name_H-M "F M M M"
_symmetry_group_IT_number 69
_symmetry_cell_setting 'orthorhombic'
loop_
_space_group_symop_operation_xyz
x,y,z
-x,-y,z
x,-y,-z
-x,y,-z
-x,-y,-z
x,y,-z
-x,y,z
x,-y,z
x,1/2+y,1/2+z
-x,1/2-y,1/2+z
x,1/2-y,1/2-z
-x,1/2+y,1/2-z
-x,1/2-y,1/2-z
x,1/2+y,1/2-z
-x,1/2+y,1/2+z
x,1/2-y,1/2+z
1/2+x,y,1/2+z
1/2-x,-y,1/2+z
1/2+x,-y,1/2-z
1/2-x,y,1/2-z
1/2-x,-y,1/2-z
1/2+x,y,1/2-z
1/2-x,y,1/2+z
1/2+x,-y,1/2+z
1/2+x,1/2+y,z
1/2-x,1/2-y,z
1/2+x,1/2-y,-z
1/2-x,1/2+y,-z
1/2-x,1/2-y,-z
1/2+x,1/2+y,-z
1/2-x,1/2+y,z
1/2+x,1/2-y,z
loop_
_atom_site_type_symbol
_atom_site_label
_atom_site_fract_x
_atom_site_fract_y
_atom_site_fract_z
Si Si1 0.808569 0.806078 0.942371
Si Si2 0.783993 0.438482 0.305447
Si Si3 0.108509 0.170768 0.208435
Si Si4 0.500000 0.872620 0.942503
Si Si5 0.820959 0.382566 0.113654
Si Si6 0.500000 0.260638 0.942073
Si Si7 0.890426 0.789981 0.315936
O O1 0.750000 0.750000 0.934769
O O2 0.761352 0.859242 0.918502
O O3 0.909567 0.791195 0.924876
O O4 0.810927 0.814718 0.000000
O O5 0.823737 0.500000 0.312638
O O6 0.750000 0.436804 0.250000
O O7 0.849991 0.386030 0.309714
O O8 0.708833 0.427630 0.346670
O O9 0.131867 0.182889 0.264244
O O10 0.141981 0.226579 0.182458
O O11 0.000000 0.168703 0.205303
O O12 0.591465 0.896604 0.918686
O O13 0.500000 0.805524 0.932670
O O14 0.500000 0.879575 0.000000
O O15 0.850591 0.329125 0.144379
O O16 0.500000 0.264182 0.000000
O O17 0.000000 0.788934 0.318769
#
# Coordination Sequence:
#
# PCOD9512368 Si02
#       7
#    32  32  32  16  32  16  32
#     4  10  20  34  54  86 123 159 197 240 308 387
#     4  11  25  43  58  80 117 163 216 258 298 362
#     4   9  19  37  59  82 122 155 199 250 305 362
#     4  11  22  36  61  92 124 157 204 262 316 378
#     4  12  22  36  61  88 122 162 203 251 318 370
#     4   9  18  34  52  82 129 164 186 232 303 392
#     4   9  18  33  55  91 122 154 190 246 309 384
#
# _framework density 19.432364
#
# number of rings (size 3 to 8) (size 9 to 14) (size 15 to 20)
#    0.000    1.833    4.167    1.500    2.333    0.333 
#    1.500    0.417    0.000    2.500    0.000    0.000 
#    0.000    2.000    0.000    0.000    0.000    0.000 
#
# Total GULP energy -268155.907058 kJ/mol
# GULP energy per Si atom -5586.581397 kJ/mol
# Density = 1.938813 g / cm^3
# Si number density = 19.432364 Si / 1000 Ang^3
#
#
#
# Elastic Constant Matrix: (Units=GPa)
#
#
# Indices 1 2 3 4 5 6 
#
# 1 94.2874 24.7556 28.8386 0.0000 0.0000 0.0000
# 2 24.7556 100.5984 19.9042 0.0000 0.0000 0.0000
# 3 28.8386 19.9042 98.8766 0.0000 0.0000 0.0000
# 4 0.0000 0.0000 0.0000 3.3540 0.0000 0.0000
# 5 0.0000 0.0000 0.0000 0.0000 30.9851 0.0000
# 6 0.0000 0.0000 0.0000 0.0000 0.0000 5.6964
#
#
#
# Elastic Compliance Matrix: (Units=1/GPa)
#
#
# Indices 1 2 3 4 5 6 
#
# 1 0.012172 -0.002388 -0.003069 0.000000 0.000000 0.000000
# 2 -0.002388 0.010821 -0.001482 0.000000 0.000000 0.000000
# 3 -0.003069 -0.001482 0.011307 0.000000 0.000000 0.000000
# 4 0.000000 0.000000 0.000000 0.298155 0.000000 0.000000
# 5 0.000000 0.000000 0.000000 0.000000 0.032274 0.000000
# 6 0.000000 0.000000 0.000000 0.000000 0.000000 0.175548
#
#
# Mechanical properties :
#
#
# Convention : Reuss Voigt Hill
#
# Bulk Modulus (GPa) = 48.96730 48.97325 48.97027
# Shear Modulus (GPa) = 8.91325 22.69137 15.80231
#
# Velocity S-wave (km/s) = 2.14401 3.42088 2.85475
# Velocity P-wave (km/s) = 5.60201 6.39217 6.01009
#
# Compressibility (1/GPa) = 0.02042179
#
# Stress axis : x y z
#
# Youngs Moduli (GPa) = 82.15845 92.40986 88.43984
#
# Poissons Ratio (x) = 0.22067 0.27145
# Poissons Ratio (y) = 0.19619 0.13106
# Poissons Ratio (z) = 0.25217 0.13694
#
# Static dielectric constant tensor:
#      x y z
#    x 1.724040 0.000000 0.000000 
#    y 0.000000 1.635340 0.000000 
#    z 0.000000 0.000000 1.738710 
# 
# From -- ./inp_files/41169.got.cif
#   From: 2010.05.17/outbox.cif.g08.bks.cpg/sg69_21_cif.got.tgz:41169.got - 2010.06.03 19:29:58.
