data_PCOD9512884
_publ_section_title
;
Structure prediction by ZEFSAII (Michael W. Deem and Ramdas Pophale) SiO2 
 PCOD9512884
Probable space group: F M M M
;
_chemical_formula_sum "Si O2"
_cell_formula_units_Z 112
_cell_length_a 14.613726
_cell_length_b 12.677335
_cell_length_c 35.277029
_cell_angle_alpha 90.000000
_cell_angle_beta 90.000000
_cell_angle_gamma 90.000000
_cell_volume 6535.531755
_symmetry_space_group_name_H-M "F M M M"
_symmetry_group_IT_number 69
_symmetry_cell_setting 'orthorhombic'
loop_
_space_group_symop_operation_xyz
x,y,z
-x,-y,z
x,-y,-z
-x,y,-z
-x,-y,-z
x,y,-z
-x,y,z
x,-y,z
x,1/2+y,1/2+z
-x,1/2-y,1/2+z
x,1/2-y,1/2-z
-x,1/2+y,1/2-z
-x,1/2-y,1/2-z
x,1/2+y,1/2-z
-x,1/2+y,1/2+z
x,1/2-y,1/2+z
1/2+x,y,1/2+z
1/2-x,-y,1/2+z
1/2+x,-y,1/2-z
1/2-x,y,1/2-z
1/2-x,-y,1/2-z
1/2+x,y,1/2-z
1/2-x,y,1/2+z
1/2+x,-y,1/2+z
1/2+x,1/2+y,z
1/2-x,1/2-y,z
1/2+x,1/2-y,-z
1/2-x,1/2+y,-z
1/2-x,1/2-y,-z
1/2+x,1/2+y,-z
1/2-x,1/2+y,z
1/2+x,1/2-y,z
loop_
_atom_site_type_symbol
_atom_site_label
_atom_site_fract_x
_atom_site_fract_y
_atom_site_fract_z
Si Si1 0.000000 0.646759 0.273468
Si Si2 0.000000 0.627233 0.636370
Si Si3 0.610170 0.000000 0.851154
Si Si4 0.500000 0.873336 0.955305
Si Si5 0.853617 0.500000 0.238488
Si Si6 0.353467 0.712324 0.602186
O O1 0.000000 0.750000 0.250000
O O2 0.091969 0.593708 0.258185
O O3 0.000000 0.644686 0.318485
O O4 0.087752 0.690939 0.620034
O O5 0.000000 0.500000 0.628854
O O6 0.645054 0.891748 0.870682
O O7 0.500000 0.000000 0.855123
O O8 0.633337 0.000000 0.806656
O O9 0.411065 0.824816 0.934600
O O10 0.500000 0.000000 0.949539
O O11 0.500000 0.852200 0.000000
O O12 0.750000 0.500000 0.250000
O O13 0.250000 0.750000 0.595213
#
# Coordination Sequence:
#
# PCOD9512884 Si02
#       6
#    16  16  16  16  16  32
#     4  11  22  41  55  78 116 159 201 256 320 362
#     4  11  23  39  57  87 126 159 206 256 315 369
#     4  12  20  45  61  86 120 162 225 258 305 373
#     4  10  20  42  70  97 128 159 202 254 303 373
#     4  11  25  38  57  83 116 156 205 267 306 352
#     4  11  24  38  66  93 122 166 202 259 303 368
#
# _framework density 17.137090000000001
#
# number of rings (size 3 to 8) (size 9 to 14) (size 15 to 20)
#    0.000    1.000    7.143    1.714    6.000    1.143 
#    0.000    0.000    0.000    6.857    0.000    0.000 
#    0.000    0.000    0.000    0.000    0.000    0.000 
#
# Total GULP energy -156119.171570 kJ/mol
# GULP energy per Si atom -5575.684699 kJ/mol
# Density = 1.709809 g / cm^3
# Si number density = 17.137090 Si / 1000 Ang^3
#
#
#
# Elastic Constant Matrix: (Units=GPa)
#
#
# Indices 1 2 3 4 5 6 
#
# 1 195.3801 74.0412 78.2448 0.0000 0.0000 0.0000
# 2 74.0412 147.5645 64.3057 0.0000 0.0000 0.0000
# 3 78.2448 64.3057 166.9857 0.0000 0.0000 0.0000
# 4 0.0000 0.0000 0.0000 26.1301 0.0000 0.0000
# 5 0.0000 0.0000 0.0000 0.0000 10.4592 0.0000
# 6 0.0000 0.0000 0.0000 0.0000 0.0000 -351.3035
#
#
#
# Elastic Compliance Matrix: (Units=1/GPa)
#
#
# Indices 1 2 3 4 5 6 
#
# 1 0.006992 -0.002500 -0.002314 0.000000 0.000000 0.000000
# 2 -0.002500 0.009037 -0.002309 0.000000 0.000000 0.000000
# 3 -0.002314 -0.002309 0.007962 0.000000 0.000000 0.000000
# 4 0.000000 0.000000 0.000000 0.038270 0.000000 0.000000
# 5 0.000000 0.000000 0.000000 0.000000 0.095609 0.000000
# 6 0.000000 0.000000 0.000000 0.000000 0.000000 -0.002847
#
#
# Mechanical properties :
#
#
# Convention : Reuss Voigt Hill
#
# Bulk Modulus (GPa) = 102.60317 104.79042 103.69680
# Shear Modulus (GPa) = 28.98256 -43.38694 -7.20219
#
# Velocity S-wave (km/s) = 4.11690 -5.03712 -2.05227
# Velocity P-wave (km/s) = 9.08848 5.23937 7.41794
#
# Compressibility (1/GPa) = 0.00974629
#
# Stress axis : x y z
#
# Youngs Moduli (GPa) = 143.01621 110.65292 125.60169
#
# Poissons Ratio (x) = 0.27665 0.29058
# Poissons Ratio (y) = 0.35757 0.28998
# Poissons Ratio (z) = 0.33087 0.25547
#
# Static dielectric constant tensor:
#      x y z
#    x 1.542320 0.000000 0.000000 
#    y 0.000000 1.594660 0.000000 
#    z 0.000000 0.000000 1.559510 
# 
# From -- ./inp_files/45410.got.cif
#   From: 2010.05.17/outbox.cif.g08.bks.cpg/sg69_23_cif.got.tgz:45410.got - 2010.06.03 19:29:58.
