data_PCOD9512525
_publ_section_title
;
Structure prediction by ZEFSAII (Michael W. Deem and Ramdas Pophale) SiO2 
 PCOD9512525
Probable space group: F M M M
;
_chemical_formula_sum "Si O2"
_cell_formula_units_Z 104
_cell_length_a 27.128603
_cell_length_b 24.168202
_cell_length_c 9.187751
_cell_angle_alpha 90.000000
_cell_angle_beta 90.000000
_cell_angle_gamma 90.000000
_cell_volume 6023.944876
_symmetry_space_group_name_H-M "F M M M"
_symmetry_group_IT_number 69
_symmetry_cell_setting 'orthorhombic'
loop_
_space_group_symop_operation_xyz
x,y,z
-x,-y,z
x,-y,-z
-x,y,-z
-x,-y,-z
x,y,-z
-x,y,z
x,-y,z
x,1/2+y,1/2+z
-x,1/2-y,1/2+z
x,1/2-y,1/2-z
-x,1/2+y,1/2-z
-x,1/2-y,1/2-z
x,1/2+y,1/2-z
-x,1/2+y,1/2+z
x,1/2-y,1/2+z
1/2+x,y,1/2+z
1/2-x,-y,1/2+z
1/2+x,-y,1/2-z
1/2-x,y,1/2-z
1/2-x,-y,1/2-z
1/2+x,y,1/2-z
1/2-x,y,1/2+z
1/2+x,-y,1/2+z
1/2+x,1/2+y,z
1/2-x,1/2-y,z
1/2+x,1/2-y,-z
1/2-x,1/2+y,-z
1/2-x,1/2-y,-z
1/2+x,1/2+y,-z
1/2-x,1/2+y,z
1/2+x,1/2-y,z
loop_
_atom_site_type_symbol
_atom_site_label
_atom_site_fract_x
_atom_site_fract_y
_atom_site_fract_z
Si Si1 0.092997 0.387784 0.174417
Si Si2 0.500000 0.691156 0.672760
Si Si3 0.250000 0.250000 0.750000
Si Si4 0.153448 0.696670 0.664866
Si Si5 0.059209 0.000000 0.173500
O O1 0.047624 0.346210 0.207543
O O2 0.140000 0.357336 0.244134
O O3 0.081420 0.445744 0.250465
O O4 0.096999 0.393643 0.000000
O O5 0.500000 0.700655 0.500000
O O6 0.500000 0.750000 0.750000
O O7 0.211677 0.288794 0.664366
O O8 0.135144 0.693174 0.500000
O O9 0.131549 0.750000 0.750000
O O10 0.000000 0.000000 0.195657
O O11 0.068422 0.000000 0.000000
#
# Coordination Sequence:
#
# PCOD9512525 Si02
#       5
#    32  16   8  32  16
#     4  11  22  37  57  81 114 155 196 238 284 339
#     4  10  22  35  50  77 113 152 186 228 279 334
#     4   8  22  36  62  84 118 152 186 236 296 350
#     4  10  20  35  57  87 117 148 188 234 288 346
#     4  11  23  39  59  82 111 156 203 243 283 331
#
# _framework density 17.264434000000001
#
# number of rings (size 3 to 8) (size 9 to 14) (size 15 to 20)
#    0.923    0.769    1.538    3.692    0.000    5.538 
#    0.000    0.000    0.000    0.923    0.000    0.000 
#    0.000    0.000    0.000    0.000    0.000    0.000 
#
# Total GULP energy -144924.897346 kJ/mol
# GULP energy per Si atom -5574.034513 kJ/mol
# Density = 1.722514 g / cm^3
# Si number density = 17.264434 Si / 1000 Ang^3
#
#
#
# Elastic Constant Matrix: (Units=GPa)
#
#
# Indices 1 2 3 4 5 6 
#
# 1 69.5588 48.6740 36.7312 0.0000 0.0000 0.0000
# 2 48.6740 169.5627 80.8477 0.0000 0.0000 0.0000
# 3 36.7312 80.8477 124.1684 -0.0001 0.0000 0.0000
# 4 0.0000 0.0000 -0.0001 33.8422 0.0000 0.0000
# 5 0.0000 0.0000 0.0000 0.0000 17.3018 0.0000
# 6 0.0000 0.0000 0.0000 0.0000 0.0000 25.4600
#
#
#
# Elastic Compliance Matrix: (Units=1/GPa)
#
#
# Indices 1 2 3 4 5 6 
#
# 1 0.018709 -0.003962 -0.002955 0.000000 0.000000 0.000000
# 2 -0.003962 0.009392 -0.004943 0.000000 0.000000 0.000000
# 3 -0.002955 -0.004943 0.012146 0.000000 0.000000 0.000000
# 4 0.000000 0.000000 0.000000 0.029549 0.000000 0.000000
# 5 0.000000 0.000000 0.000000 0.000000 0.057797 0.000000
# 6 0.000000 0.000000 0.000000 0.000000 0.000000 0.039277
#
#
# Mechanical properties :
#
#
# Convention : Reuss Voigt Hill
#
# Bulk Modulus (GPa) = 60.50558 77.31063 68.90810
# Shear Modulus (GPa) = 25.49738 28.45661 26.97700
#
# Velocity S-wave (km/s) = 3.84718 4.06431 3.95723
# Velocity P-wave (km/s) = 7.40654 8.17938 7.80254
#
# Compressibility (1/GPa) = 0.01652740
#
# Stress axis : x y z
#
# Youngs Moduli (GPa) = 53.45066 106.47834 82.33008
#
# Poissons Ratio (x) = 0.42182 0.24328
# Poissons Ratio (y) = 0.21175 0.40696
# Poissons Ratio (z) = 0.15795 0.52633
#
# Static dielectric constant tensor:
#      x y z
#    x 1.624340 0.000000 0.000000 
#    y 0.000000 1.559010 0.000000 
#    z 0.000000 0.000000 1.582260 
# 
# From -- ./inp_files/5190.got.cif
#   From: 2010.05.17/outbox.cif.g08.bks.cpg/sg69_3_cif.got.tgz:5190.got - 2010.06.03 19:29:58.
