data_PCOD9512742
_publ_section_title
;
Structure prediction by ZEFSAII (Michael W. Deem and Ramdas Pophale) SiO2 
 PCOD9512742
Probable space group: F M M M
;
_chemical_formula_sum "Si O2"
_cell_formula_units_Z 176
_cell_length_a 24.519572
_cell_length_b 25.145110
_cell_length_c 14.891815
_cell_angle_alpha 90.000000
_cell_angle_beta 90.000000
_cell_angle_gamma 90.000000
_cell_volume 9181.508853
_symmetry_space_group_name_H-M "F M M M"
_symmetry_group_IT_number 69
_symmetry_cell_setting 'orthorhombic'
loop_
_space_group_symop_operation_xyz
x,y,z
-x,-y,z
x,-y,-z
-x,y,-z
-x,-y,-z
x,y,-z
-x,y,z
x,-y,z
x,1/2+y,1/2+z
-x,1/2-y,1/2+z
x,1/2-y,1/2-z
-x,1/2+y,1/2-z
-x,1/2-y,1/2-z
x,1/2+y,1/2-z
-x,1/2+y,1/2+z
x,1/2-y,1/2+z
1/2+x,y,1/2+z
1/2-x,-y,1/2+z
1/2+x,-y,1/2-z
1/2-x,y,1/2-z
1/2-x,-y,1/2-z
1/2+x,y,1/2-z
1/2-x,y,1/2+z
1/2+x,-y,1/2+z
1/2+x,1/2+y,z
1/2-x,1/2-y,z
1/2+x,1/2-y,-z
1/2-x,1/2+y,-z
1/2-x,1/2-y,-z
1/2+x,1/2+y,-z
1/2-x,1/2+y,z
1/2+x,1/2-y,z
loop_
_atom_site_type_symbol
_atom_site_label
_atom_site_fract_x
_atom_site_fract_y
_atom_site_fract_z
Si Si1 0.500000 0.061393 0.271494
Si Si2 0.225404 0.940132 0.650904
Si Si3 0.381496 0.835879 0.000000
Si Si4 0.886142 0.198466 0.186991
Si Si5 0.755759 0.637253 0.000000
Si Si6 0.667453 0.217770 0.500000
Si Si7 0.606272 0.105018 0.175972
Si Si8 0.500000 0.334258 0.108692
O O1 0.554235 0.073051 0.212512
O O2 0.500000 0.105403 0.351433
O O3 0.500000 0.000000 0.301363
O O4 0.250000 0.936296 0.750000
O O5 0.255541 0.897652 0.587829
O O6 0.160215 0.929167 0.654933
O O7 0.234029 0.000000 0.617004
O O8 0.409109 0.859108 0.910899
O O9 0.320632 0.858891 0.000000
O O10 0.365656 0.773925 0.000000
O O11 0.876707 0.250000 0.250000
O O12 0.851092 0.196090 0.096756
O O13 0.876557 0.147190 0.248170
O O14 0.947721 0.195077 0.150100
O O15 0.729850 0.695689 0.000000
O O16 0.500000 0.333641 0.000000
#
# Coordination Sequence:
#
# PCOD9512742 Si02
#       8
#    16  32  16  32  16  16  32  16
#     4  10  22  39  62  87 121 158 198 254 309 369
#     4  10  20  37  60  83 114 155 202 251 303 360
#     4  10  21  38  56  81 116 154 194 243 299 361
#     4  11  21  36  58  84 120 157 197 242 295 358
#     4  10  22  36  56  83 115 149 194 244 299 354
#     4  12  21  36  59  84 118 155 194 247 295 359
#     4  10  21  38  58  87 120 156 200 251 306 366
#     4  10  21  38  57  86 116 156 199 245 297 355
#
# _framework density 19.168963000000002
#
# number of rings (size 3 to 8) (size 9 to 14) (size 15 to 20)
#    0.000    1.636    2.727    2.455    0.000    0.545 
#    0.000    2.727    0.000    1.091    0.000    0.000 
#    0.000    0.000    0.000    0.000    0.000    0.000 
#
# Total GULP energy -245091.735159 kJ/mol
# GULP energy per Si atom -5570.266708 kJ/mol
# Density = 1.912533 g / cm^3
# Si number density = 19.168963 Si / 1000 Ang^3
#
#
#
# Elastic Constant Matrix: (Units=GPa)
#
#
# Indices 1 2 3 4 5 6 
#
# 1 41.1154 15.1048 4.7232 0.0000 0.0000 0.0000
# 2 15.1048 89.7513 27.5631 0.0000 0.0000 0.0000
# 3 4.7232 27.5631 115.2778 0.0000 0.0000 0.0000
# 4 0.0000 0.0000 0.0000 13.4139 0.0000 0.0000
# 5 0.0000 0.0000 0.0000 0.0000 46.6827 0.0000
# 6 0.0000 0.0000 0.0000 0.0000 0.0000 7.3951
#
#
#
# Elastic Compliance Matrix: (Units=1/GPa)
#
#
# Indices 1 2 3 4 5 6 
#
# 1 0.025925 -0.004357 -0.000020 0.000000 0.000000 0.000000
# 2 -0.004357 0.012757 -0.002872 0.000000 0.000000 0.000000
# 3 -0.000020 -0.002872 0.009362 0.000000 0.000000 0.000000
# 4 0.000000 0.000000 0.000000 0.074550 0.000000 0.000000
# 5 0.000000 0.000000 0.000000 0.000000 0.021421 0.000000
# 6 0.000000 0.000000 0.000000 0.000000 0.000000 0.135224
#
#
# Mechanical properties :
#
#
# Convention : Reuss Voigt Hill
#
# Bulk Modulus (GPa) = 29.80979 37.88073 33.84526
# Shear Modulus (GPa) = 16.39780 26.74857 21.57318
#
# Velocity S-wave (km/s) = 2.92795 3.73957 3.35837
# Velocity P-wave (km/s) = 5.19763 6.20083 5.72126
#
# Compressibility (1/GPa) = 0.03354602
#
# Stress axis : x y z
#
# Youngs Moduli (GPa) = 38.57326 78.38809 106.81286
#
# Poissons Ratio (x) = 0.34152 0.00219
# Poissons Ratio (y) = 0.16805 0.30674
# Poissons Ratio (z) = 0.00079 0.22511
#
# Static dielectric constant tensor:
#      x y z
#    x 1.661420 0.000000 0.000000 
#    y 0.000000 1.689790 0.000000 
#    z 0.000000 0.000000 1.677520 
# 
# From -- ./inp_files/18177.got.cif
#   From: 2010.05.17/outbox.cif.g08.bks.cpg/sg69_10_cif.got.tgz:18177.got - 2010.06.03 19:29:58.
