data_PCOD9512331
_publ_section_title
;
Structure prediction by ZEFSAII (Michael W. Deem and Ramdas Pophale) SiO2 
 PCOD9512331
Probable space group: F M M M
;
_chemical_formula_sum "Si O2"
_cell_formula_units_Z 112
_cell_length_a 27.155603
_cell_length_b 8.569093
_cell_length_c 24.563684
_cell_angle_alpha 90.000000
_cell_angle_beta 90.000000
_cell_angle_gamma 90.000000
_cell_volume 5715.941942
_symmetry_space_group_name_H-M "F M M M"
_symmetry_group_IT_number 69
_symmetry_cell_setting 'orthorhombic'
loop_
_space_group_symop_operation_xyz
x,y,z
-x,-y,z
x,-y,-z
-x,y,-z
-x,-y,-z
x,y,-z
-x,y,z
x,-y,z
x,1/2+y,1/2+z
-x,1/2-y,1/2+z
x,1/2-y,1/2-z
-x,1/2+y,1/2-z
-x,1/2-y,1/2-z
x,1/2+y,1/2-z
-x,1/2+y,1/2+z
x,1/2-y,1/2+z
1/2+x,y,1/2+z
1/2-x,-y,1/2+z
1/2+x,-y,1/2-z
1/2-x,y,1/2-z
1/2-x,-y,1/2-z
1/2+x,y,1/2-z
1/2-x,y,1/2+z
1/2+x,-y,1/2+z
1/2+x,1/2+y,z
1/2-x,1/2-y,z
1/2+x,1/2-y,-z
1/2-x,1/2+y,-z
1/2-x,1/2-y,-z
1/2+x,1/2+y,-z
1/2-x,1/2+y,z
1/2+x,1/2-y,z
loop_
_atom_site_type_symbol
_atom_site_label
_atom_site_fract_x
_atom_site_fract_y
_atom_site_fract_z
Si Si1 0.113562 0.180062 0.605635
Si Si2 0.195426 0.313022 0.688586
Si Si3 0.941962 0.824511 0.804917
Si Si4 0.941271 0.686937 0.500000
O O1 0.158164 0.256165 0.640953
O O2 0.069199 0.204710 0.647780
O O3 0.091319 0.258376 0.551609
O O4 0.125032 0.000000 0.595120
O O5 0.195924 0.500000 0.690796
O O6 0.184344 0.250000 0.750000
O O7 0.250000 0.250000 0.675690
O O8 0.921951 0.750000 0.750000
O O9 0.000000 0.839922 0.799215
O O10 0.922338 0.000000 0.815283
O O11 0.943727 0.500000 0.500000
O O12 0.000000 0.740357 0.500000
#
# Coordination Sequence:
#
# PCOD9512331 Si02
#       4
#    32  32  32  16
#     4  12  24  39  60  87 119 158 203 249 302 362
#     4  11  22  40  65  95 129 163 202 250 307 367
#     4  10  20  34  53  80 114 151 192 242 300 360
#     4  11  25  45  66  89 120 161 209 259 309 361
#
# _framework density 19.594321000000001
#
# number of rings (size 3 to 8) (size 9 to 14) (size 15 to 20)
#    0.000    1.000    0.000    9.000    0.000    6.286 
#    0.000    0.714    0.000    0.000    0.000    0.000 
#    0.000    0.000    0.000    0.000    0.000    0.000 
#
# Total GULP energy -156139.316213 kJ/mol
# GULP energy per Si atom -5576.404150 kJ/mol
# Density = 1.954972 g / cm^3
# Si number density = 19.594321 Si / 1000 Ang^3
#
#
#
# Elastic Constant Matrix: (Units=GPa)
#
#
# Indices 1 2 3 4 5 6 
#
# 1 144.5357 64.6479 58.6718 0.0000 0.0000 0.0000
# 2 64.6479 147.7587 49.0468 0.0000 0.0000 0.0000
# 3 58.6718 49.0468 166.4906 0.0000 0.0000 0.0000
# 4 0.0000 0.0000 0.0000 30.8994 0.0000 0.0000
# 5 0.0000 0.0000 0.0000 0.0000 117.1947 0.0000
# 6 0.0000 0.0000 0.0000 0.0000 0.0000 21.4634
#
#
#
# Elastic Compliance Matrix: (Units=1/GPa)
#
#
# Indices 1 2 3 4 5 6 
#
# 1 0.009343 -0.003319 -0.002315 0.000000 0.000000 0.000000
# 2 -0.003319 0.008681 -0.001387 0.000000 0.000000 0.000000
# 3 -0.002315 -0.001387 0.007231 0.000000 0.000000 0.000000
# 4 0.000000 0.000000 0.000000 0.032363 0.000000 0.000000
# 5 0.000000 0.000000 0.000000 0.000000 0.008533 0.000000
# 6 0.000000 0.000000 0.000000 0.000000 0.000000 0.046591
#
#
# Mechanical properties :
#
#
# Convention : Reuss Voigt Hill
#
# Bulk Modulus (GPa) = 89.19536 89.27978 89.23757
# Shear Modulus (GPa) = 38.30781 53.00605 45.65693
#
# Velocity S-wave (km/s) = 4.42639 5.20677 4.83236
# Velocity P-wave (km/s) = 8.47017 9.04491 8.76225
#
# Compressibility (1/GPa) = 0.01121135
#
# Stress axis : x y z
#
# Youngs Moduli (GPa) = 107.03177 115.19807 138.29807
#
# Poissons Ratio (x) = 0.38240 0.32011
# Poissons Ratio (y) = 0.35529 0.19188
# Poissons Ratio (z) = 0.24774 0.15983
#
# Static dielectric constant tensor:
#      x y z
#    x 1.735320 0.000000 0.000000 
#    y 0.000000 1.787590 0.000000 
#    z 0.000000 0.000000 1.686940 
# 
# From -- ./inp_files/34488.got.cif
#   From: 2010.05.17/outbox.cif.g08.bks.cpg/sg69_18_cif.got.tgz:34488.got - 2010.06.03 19:29:58.
