data_PCOD9512117
_publ_section_title
;
Structure prediction by ZEFSAII (Michael W. Deem and Ramdas Pophale) SiO2 
 PCOD9512117
Probable space group: F M M M
;
_chemical_formula_sum "Si O2"
_cell_formula_units_Z 192
_cell_length_a 13.430687
_cell_length_b 25.542127
_cell_length_c 27.885258
_cell_angle_alpha 90.000000
_cell_angle_beta 90.000000
_cell_angle_gamma 90.000000
_cell_volume 9565.990716
_symmetry_space_group_name_H-M "F M M M"
_symmetry_group_IT_number 69
_symmetry_cell_setting 'orthorhombic'
loop_
_space_group_symop_operation_xyz
x,y,z
-x,-y,z
x,-y,-z
-x,y,-z
-x,-y,-z
x,y,-z
-x,y,z
x,-y,z
x,1/2+y,1/2+z
-x,1/2-y,1/2+z
x,1/2-y,1/2-z
-x,1/2+y,1/2-z
-x,1/2-y,1/2-z
x,1/2+y,1/2-z
-x,1/2+y,1/2+z
x,1/2-y,1/2+z
1/2+x,y,1/2+z
1/2-x,-y,1/2+z
1/2+x,-y,1/2-z
1/2-x,y,1/2-z
1/2-x,-y,1/2-z
1/2+x,y,1/2-z
1/2-x,y,1/2+z
1/2+x,-y,1/2+z
1/2+x,1/2+y,z
1/2-x,1/2-y,z
1/2+x,1/2-y,-z
1/2-x,1/2+y,-z
1/2-x,1/2-y,-z
1/2+x,1/2+y,-z
1/2-x,1/2+y,z
1/2+x,1/2-y,z
loop_
_atom_site_type_symbol
_atom_site_label
_atom_site_fract_x
_atom_site_fract_y
_atom_site_fract_z
Si Si1 0.619281 0.274661 0.901122
Si Si2 0.796244 0.114814 0.894349
Si Si3 0.817536 0.377237 0.203878
Si Si4 0.500000 0.437250 0.751579
Si Si5 0.884006 0.237099 0.302430
Si Si6 0.884330 0.659053 0.057299
Si Si7 0.000000 0.062479 0.864759
O O1 0.500000 0.278644 0.903999
O O2 0.663713 0.329788 0.915887
O O3 0.654367 0.271605 0.845722
O O4 0.642999 0.218414 0.924654
O O5 0.753687 0.108040 0.840130
O O6 0.691242 0.114502 0.923576
O O7 0.898620 0.081391 0.891331
O O8 0.750000 0.366159 0.250000
O O9 0.869584 0.323625 0.187517
O O10 0.903080 0.416104 0.223105
O O11 0.500000 0.500000 0.752011
O O12 0.500000 0.418890 0.808057
O O13 0.847568 0.250000 0.250000
O O14 0.000000 0.249052 0.301861
O O15 0.000000 0.650254 0.072623
O O16 0.881465 0.660062 0.000000
O O17 0.000000 0.000000 0.863292
#
# Coordination Sequence:
#
# PCOD9512117 Si02
#       7
#    32  32  32  16  32  32  16
#     4  10  20  35  57  91 133 175 213 256 312 385
#     4  12  23  39  68  93 127 175 221 266 331 389
#     4  12  23  35  59  86 121 169 216 259 322 386
#     4  11  26  44  58  83 124 165 221 284 335 388
#     4  10  20  31  50  80 125 167 207 252 305 374
#     4  10  23  42  66 101 142 175 210 260 319 393
#     4  11  26  48  68  93 129 170 226 289 338 383
#
# _framework density 20.071104999999999
#
# number of rings (size 3 to 8) (size 9 to 14) (size 15 to 20)
#    0.000    1.167    5.000    1.500    1.167    4.000 
#    0.000    0.417    0.000    1.000    0.000    1.167 
#    0.000    0.000    0.000    0.000    0.000    0.000 
#
# Total GULP energy -267323.807386 kJ/mol
# GULP energy per Si atom -5569.245987 kJ/mol
# Density = 2.002542 g / cm^3
# Si number density = 20.071105 Si / 1000 Ang^3
#
#
#
# Elastic Constant Matrix: (Units=GPa)
#
#
# Indices 1 2 3 4 5 6 
#
# 1 131.5785 32.8329 28.9760 0.0000 0.0000 0.0000
# 2 32.8329 50.6413 7.9396 0.0000 0.0000 0.0000
# 3 28.9760 7.9396 54.3032 0.0000 0.0000 0.0000
# 4 0.0000 0.0000 0.0000 15.0974 0.0000 0.0000
# 5 0.0000 0.0000 0.0000 0.0000 21.1626 0.0000
# 6 0.0000 0.0000 0.0000 0.0000 0.0000 16.8567
#
#
#
# Elastic Compliance Matrix: (Units=1/GPa)
#
#
# Indices 1 2 3 4 5 6 
#
# 1 0.010041 -0.005803 -0.004509 0.000000 0.000000 0.000000
# 2 -0.005803 0.023564 -0.000349 0.000000 0.000000 0.000000
# 3 -0.004509 -0.000349 0.020872 0.000000 0.000000 0.000000
# 4 0.000000 0.000000 0.000000 0.066236 0.000000 0.000000
# 5 0.000000 0.000000 0.000000 0.000000 0.047253 0.000000
# 6 0.000000 0.000000 0.000000 0.000000 0.000000 0.059324
#
#
# Mechanical properties :
#
#
# Convention : Reuss Voigt Hill
#
# Bulk Modulus (GPa) = 30.16161 41.78000 35.97081
# Shear Modulus (GPa) = 19.25561 21.74164 20.49863
#
# Velocity S-wave (km/s) = 3.10073 3.29482 3.19925
# Velocity P-wave (km/s) = 5.28009 5.94438 5.62205
#
# Compressibility (1/GPa) = 0.03315473
#
# Stress axis : x y z
#
# Youngs Moduli (GPa) = 99.59030 42.43803 47.91031
#
# Poissons Ratio (x) = 0.24627 0.21605
# Poissons Ratio (y) = 0.57793 0.01671
# Poissons Ratio (z) = 0.44910 0.01480
#
# Static dielectric constant tensor:
#      x y z
#    x 1.798250 0.000000 0.000000 
#    y 0.000000 1.692880 0.000000 
#    z 0.000000 0.000000 1.753880 
# 
# From -- ./inp_files/41282.got.cif
#   From: 2010.05.17/outbox.cif.g08.bks.cpg/sg69_21_cif.got.tgz:41282.got - 2010.06.03 19:29:58.
