data_PCOD9512152
_publ_section_title
;
Structure prediction by ZEFSAII (Michael W. Deem and Ramdas Pophale) SiO2 
 PCOD9512152
Probable space group: F M M M
;
_chemical_formula_sum "Si O2"
_cell_formula_units_Z 144
_cell_length_a 32.663273
_cell_length_b 27.173435
_cell_length_c 9.195462
_cell_angle_alpha 90.000000
_cell_angle_beta 90.000000
_cell_angle_gamma 90.000000
_cell_volume 8161.646789
_symmetry_space_group_name_H-M "F M M M"
_symmetry_group_IT_number 69
_symmetry_cell_setting 'orthorhombic'
loop_
_space_group_symop_operation_xyz
x,y,z
-x,-y,z
x,-y,-z
-x,y,-z
-x,-y,-z
x,y,-z
-x,y,z
x,-y,z
x,1/2+y,1/2+z
-x,1/2-y,1/2+z
x,1/2-y,1/2-z
-x,1/2+y,1/2-z
-x,1/2-y,1/2-z
x,1/2+y,1/2-z
-x,1/2+y,1/2+z
x,1/2-y,1/2+z
1/2+x,y,1/2+z
1/2-x,-y,1/2+z
1/2+x,-y,1/2-z
1/2-x,y,1/2-z
1/2-x,-y,1/2-z
1/2+x,y,1/2-z
1/2-x,y,1/2+z
1/2+x,-y,1/2+z
1/2+x,1/2+y,z
1/2-x,1/2-y,z
1/2+x,1/2-y,-z
1/2-x,1/2+y,-z
1/2-x,1/2-y,-z
1/2+x,1/2+y,-z
1/2-x,1/2+y,z
1/2+x,1/2-y,z
loop_
_atom_site_type_symbol
_atom_site_label
_atom_site_fract_x
_atom_site_fract_y
_atom_site_fract_z
Si Si1 0.250000 0.620662 0.750000
Si Si2 0.189144 0.297686 0.664342
Si Si3 0.173203 0.054889 0.329056
Si Si4 0.951380 0.802123 0.828321
Si Si5 0.618535 0.143318 0.176061
O O1 0.222874 0.659051 0.658000
O O2 0.215709 0.584711 0.815566
O O3 0.176964 0.285003 0.500000
O O4 0.204406 0.250000 0.750000
O O5 0.151194 0.318174 0.757912
O O6 0.165779 0.049854 0.500000
O O7 0.136917 0.090466 0.275610
O O8 0.175337 0.000000 0.264131
O O9 0.942652 0.750000 0.750000
O O10 0.924551 0.842878 0.746746
O O11 0.000000 0.811160 0.815166
O O12 0.941254 0.799483 0.000000
O O13 0.617619 0.146128 0.000000
#
# Coordination Sequence:
#
# PCOD9512152 Si02
#       5
#    16  32  32  32  32
#     4  10  20  32  50  72  98 130 170 214 260 304
#     4  11  22  34  49  70 101 138 174 211 252 302
#     4   9  18  33  52  73  97 127 167 214 259 301
#     4  10  20  34  54  80 109 138 167 201 243 294
#     4  10  20  34  53  76 103 135 170 208 251 299
#
# _framework density 17.643498999999998
#
# number of rings (size 3 to 8) (size 9 to 14) (size 15 to 20)
#    0.000    2.000    0.000    4.000    0.000    4.889 
#    0.000    0.000    0.000   14.000    0.000    4.667 
#    0.000    0.000    0.000    0.000    0.000    0.000 
#
# Total GULP energy -200609.664784 kJ/mol
# GULP energy per Si atom -5572.490688 kJ/mol
# Density = 1.760334 g / cm^3
# Si number density = 17.643499 Si / 1000 Ang^3
#
#
#
# Elastic Constant Matrix: (Units=GPa)
#
#
# Indices 1 2 3 4 5 6 
#
# 1 77.9557 51.5994 37.7788 -0.0010 -0.0006 -0.0014
# 2 51.5994 132.9510 41.7395 -0.0002 -0.0028 0.0017
# 3 37.7788 41.7395 98.7207 0.0001 -0.0076 0.0081
# 4 -0.0010 -0.0002 0.0001 17.3798 -0.0038 0.0038
# 5 -0.0006 -0.0028 -0.0076 -0.0038 -72.0775 -0.0039
# 6 -0.0014 0.0017 0.0081 0.0038 -0.0039 -63.4827
#
#
#
# Elastic Compliance Matrix: (Units=1/GPa)
#
#
# Indices 1 2 3 4 5 6 
#
# 1 0.019051 -0.005886 -0.004802 0.000001 0.000001 -0.000001
# 2 -0.005886 0.010492 -0.002183 0.000000 0.000000 0.000000
# 3 -0.004802 -0.002183 0.012890 0.000000 -0.000001 0.000002
# 4 0.000001 0.000000 0.000000 0.057538 -0.000003 0.000003
# 5 0.000001 0.000000 -0.000001 -0.000003 -0.013874 0.000001
# 6 -0.000001 0.000000 0.000002 0.000003 0.000001 -0.015752
#
#
# Mechanical properties :
#
#
# Convention : Reuss Voigt Hill
#
# Bulk Modulus (GPa) = 59.91584 63.54031 61.72808
# Shear Modulus (GPa) = 49.18805 -11.73544 18.72630
#
# Velocity S-wave (km/s) = 5.28577 -2.58183 3.26140
# Velocity P-wave (km/s) = 8.44307 5.21573 7.01745
#
# Compressibility (1/GPa) = 0.01669008
#
# Stress axis : x y z
#
# Youngs Moduli (GPa) = 52.49062 95.31494 77.57823
#
# Poissons Ratio (x) = 0.56106 0.37251
# Poissons Ratio (y) = 0.30898 0.16937
# Poissons Ratio (z) = 0.25205 0.20810
#
# Static dielectric constant tensor:
#      x y z
#    x 1.610760 0.000000 0.000000 
#    y 0.000000 1.644000 0.000000 
#    z 0.000000 0.000000 1.606900 
# 
# From -- ./inp_files/5608.got.cif
#   From: 2010.05.17/outbox.cif.g08.bks.cpg/sg69_3_cif.got.tgz:5608.got - 2010.06.03 19:29:58.
