data_PCOD9512826
_publ_section_title
;
Structure prediction by ZEFSAII (Michael W. Deem and Ramdas Pophale) SiO2 
 PCOD9512826
Probable space group: F M M M
;
_chemical_formula_sum "Si O2"
_cell_formula_units_Z 136
_cell_length_a 20.006885
_cell_length_b 19.885263
_cell_length_c 15.960916
_cell_angle_alpha 90.000000
_cell_angle_beta 90.000000
_cell_angle_gamma 90.000000
_cell_volume 6349.925457
_symmetry_space_group_name_H-M "F M M M"
_symmetry_group_IT_number 69
_symmetry_cell_setting 'orthorhombic'
loop_
_space_group_symop_operation_xyz
x,y,z
-x,-y,z
x,-y,-z
-x,y,-z
-x,-y,-z
x,y,-z
-x,y,z
x,-y,z
x,1/2+y,1/2+z
-x,1/2-y,1/2+z
x,1/2-y,1/2-z
-x,1/2+y,1/2-z
-x,1/2-y,1/2-z
x,1/2+y,1/2-z
-x,1/2+y,1/2+z
x,1/2-y,1/2+z
1/2+x,y,1/2+z
1/2-x,-y,1/2+z
1/2+x,-y,1/2-z
1/2-x,y,1/2-z
1/2-x,-y,1/2-z
1/2+x,y,1/2-z
1/2-x,y,1/2+z
1/2+x,-y,1/2+z
1/2+x,1/2+y,z
1/2-x,1/2-y,z
1/2+x,1/2-y,-z
1/2-x,1/2+y,-z
1/2-x,1/2-y,-z
1/2+x,1/2+y,-z
1/2-x,1/2+y,z
1/2+x,1/2-y,z
loop_
_atom_site_type_symbol
_atom_site_label
_atom_site_fract_x
_atom_site_fract_y
_atom_site_fract_z
Si Si1 0.857775 0.072654 0.600657
Si Si2 0.000000 0.500000 0.351626
Si Si3 0.744727 0.826538 0.650101
Si Si4 0.000000 0.265253 0.348534
Si Si5 0.600382 0.620955 0.100212
Si Si6 0.500000 0.386113 0.597971
O O1 0.862845 0.070762 0.500000
O O2 0.808581 0.131938 0.621462
O O3 0.932031 0.085168 0.635951
O O4 0.832783 0.000000 0.630035
O O5 0.940935 0.559678 0.358650
O O6 0.750000 0.823267 0.750000
O O7 0.750000 0.750000 0.617098
O O8 0.677562 0.866217 0.624012
O O9 0.000000 0.250000 0.250000
O O10 0.063200 0.310107 0.374094
O O11 0.000000 0.193819 0.394009
O O12 0.594839 0.610960 0.000000
O O13 0.500000 0.404892 0.500000
#
# Coordination Sequence:
#
# PCOD9512826 Si02
#       6
#    32   8  32  16  32  16
#     4  10  22  41  65  95 126 167 216 266 325 398
#     4  10  23  46  72 102 130 170 233 286 337 406
#     4  11  26  43  65  95 137 176 223 277 335 402
#     4  11  24  37  65  97 131 167 218 278 337 390
#     4  11  23  43  70  98 133 176 226 281 338 408
#     4  10  20  38  65  90 126 167 214 262 317 399
#
# _framework density 21.417573999999998
#
# number of rings (size 3 to 8) (size 9 to 14) (size 15 to 20)
#    0.000    1.412    0.000    5.294    8.235    5.647 
#    0.000    0.000    0.000    0.000    0.000    0.000 
#    0.000    0.000    0.000    0.000    0.000    0.000 
#
# Total GULP energy -189530.087891 kJ/mol
# GULP energy per Si atom -5574.414350 kJ/mol
# Density = 2.136883 g / cm^3
# Si number density = 21.417574 Si / 1000 Ang^3
#
#
#
# Elastic Constant Matrix: (Units=GPa)
#
#
# Indices 1 2 3 4 5 6 
#
# 1 152.4346 62.8004 10.9576 0.0000 0.0000 0.0000
# 2 62.8004 168.7639 4.2877 0.0000 0.0000 0.0000
# 3 10.9576 4.2877 35.1835 0.0000 0.0000 0.0000
# 4 0.0000 0.0000 0.0000 13.9282 0.0000 0.0000
# 5 0.0000 0.0000 0.0000 0.0000 40.9667 0.0000
# 6 0.0000 0.0000 0.0000 0.0000 0.0000 19.3896
#
#
#
# Elastic Compliance Matrix: (Units=1/GPa)
#
#
# Indices 1 2 3 4 5 6 
#
# 1 0.007901 -0.002887 -0.002109 0.000000 0.000000 0.000000
# 2 -0.002887 0.006998 0.000046 0.000000 0.000000 0.000000
# 3 -0.002109 0.000046 0.029074 0.000000 0.000000 0.000000
# 4 0.000000 0.000000 0.000000 0.071797 0.000000 0.000000
# 5 0.000000 0.000000 0.000000 0.000000 0.024410 0.000000
# 6 0.000000 0.000000 0.000000 0.000000 0.000000 0.051574
#
#
# Mechanical properties :
#
#
# Convention : Reuss Voigt Hill
#
# Bulk Modulus (GPa) = 29.34766 56.94151 43.14459
# Shear Modulus (GPa) = 23.47301 33.41266 28.44283
#
# Velocity S-wave (km/s) = 3.31413 3.95404 3.64815
# Velocity P-wave (km/s) = 5.32701 6.89130 6.15902
#
# Compressibility (1/GPa) = 0.03407426
#
# Stress axis : x y z
#
# Youngs Moduli (GPa) = 126.56636 142.88976 34.39551
#
# Poissons Ratio (x) = 0.41246 0.07254
# Poissons Ratio (y) = 0.36534 -0.00159
# Poissons Ratio (z) = 0.26692 -0.00659
#
# Static dielectric constant tensor:
#      x y z
#    x 1.759330 0.000000 0.000000 
#    y 0.000000 1.755330 0.000000 
#    z 0.000000 0.000000 1.777670 
# 
# From -- ./inp_files/22609.got.cif
#   From: 2010.05.17/outbox.cif.g08.bks.cpg/sg69_12_cif.got.tgz:22609.got - 2010.06.03 19:29:58.
