data_PCOD9512516
_publ_section_title
;
Structure prediction by ZEFSAII (Michael W. Deem and Ramdas Pophale) SiO2 
 PCOD9512516
Probable space group: F M M M
;
_chemical_formula_sum "Si O2"
_cell_formula_units_Z 192
_cell_length_a 28.792128
_cell_length_b 14.530004
_cell_length_c 23.870437
_cell_angle_alpha 90.000000
_cell_angle_beta 90.000000
_cell_angle_gamma 90.000000
_cell_volume 9986.190993
_symmetry_space_group_name_H-M "F M M M"
_symmetry_group_IT_number 69
_symmetry_cell_setting 'orthorhombic'
loop_
_space_group_symop_operation_xyz
x,y,z
-x,-y,z
x,-y,-z
-x,y,-z
-x,-y,-z
x,y,-z
-x,y,z
x,-y,z
x,1/2+y,1/2+z
-x,1/2-y,1/2+z
x,1/2-y,1/2-z
-x,1/2+y,1/2-z
-x,1/2-y,1/2-z
x,1/2+y,1/2-z
-x,1/2+y,1/2+z
x,1/2-y,1/2+z
1/2+x,y,1/2+z
1/2-x,-y,1/2+z
1/2+x,-y,1/2-z
1/2-x,y,1/2-z
1/2-x,-y,1/2-z
1/2+x,y,1/2-z
1/2-x,y,1/2+z
1/2+x,-y,1/2+z
1/2+x,1/2+y,z
1/2-x,1/2-y,z
1/2+x,1/2-y,-z
1/2-x,1/2+y,-z
1/2-x,1/2-y,-z
1/2+x,1/2+y,-z
1/2-x,1/2+y,z
1/2+x,1/2-y,z
loop_
_atom_site_type_symbol
_atom_site_label
_atom_site_fract_x
_atom_site_fract_y
_atom_site_fract_z
Si Si1 0.947412 0.158096 0.933361
Si Si2 0.188899 0.500000 0.165757
Si Si3 0.376971 0.500000 0.563775
Si Si4 0.052020 0.858837 0.611730
Si Si5 0.050464 0.139785 0.256148
Si Si6 0.200569 0.500000 0.660761
Si Si7 0.846179 0.360584 0.742721
Si Si8 0.626185 0.000000 0.566664
O O1 0.942216 0.250231 0.897434
O O2 0.000000 0.121640 0.924039
O O3 0.906889 0.086963 0.920570
O O4 0.944713 0.180653 0.000000
O O5 0.165684 0.500000 0.105612
O O6 0.244081 0.500000 0.160289
O O7 0.170531 0.411867 0.200813
O O8 0.362721 0.500000 0.500000
O O9 0.409456 0.586722 0.578273
O O10 0.054102 0.881703 0.677602
O O11 0.000000 0.882455 0.591810
O O12 0.048832 0.250000 0.250000
O O13 0.099889 0.112735 0.230884
O O14 0.000000 0.105578 0.235459
O O15 0.184099 0.590802 0.694885
O O16 0.172811 0.500000 0.602622
O O17 0.842532 0.250000 0.750000
O O18 0.635391 0.000000 0.500000
#
# Coordination Sequence:
#
# PCOD9512516 Si02
#       8
#    32  16  16  32  32  16  32  16
#     4   9  18  34  56  82 113 150 191 234 276 328
#     4  11  24  44  59  87 114 143 199 256 296 344
#     4  12  24  38  57  84 118 160 203 241 288 348
#     4  10  20  35  57  84 121 161 195 233 277 338
#     4   9  18  32  55  88 124 154 182 220 280 349
#     4  11  26  40  62  88 111 144 201 246 297 354
#     4  10  21  41  67  89 116 150 188 238 292 347
#     4  10  22  38  58  85 117 149 190 239 293 350
#
# _framework density 19.226548999999999
#
# number of rings (size 3 to 8) (size 9 to 14) (size 15 to 20)
#    0.000    2.000    1.667    2.000    4.667    4.000 
#    0.000    2.500    0.000    0.000    0.000    5.833 
#    0.000    0.000    0.000    0.000    0.000    0.000 
#
# Total GULP energy -268036.441214 kJ/mol
# GULP energy per Si atom -5584.092525 kJ/mol
# Density = 1.918279 g / cm^3
# Si number density = 19.226549 Si / 1000 Ang^3
#
#
#
# Elastic Constant Matrix: (Units=GPa)
#
#
# Indices 1 2 3 4 5 6 
#
# 1 184.8957 48.9081 52.7514 0.0000 0.0000 0.0000
# 2 48.9081 102.8342 27.1742 0.0000 0.0000 0.0000
# 3 52.7514 27.1742 83.3587 0.0000 0.0000 0.0000
# 4 0.0000 0.0000 0.0000 -1.5783 0.0000 0.0000
# 5 0.0000 0.0000 0.0000 0.0000 7.9765 0.0000
# 6 0.0000 0.0000 0.0000 0.0000 0.0000 19.0513
#
#
#
# Elastic Compliance Matrix: (Units=1/GPa)
#
#
# Indices 1 2 3 4 5 6 
#
# 1 0.007102 -0.002396 -0.003713 0.000000 0.000000 0.000000
# 2 -0.002396 0.011450 -0.002216 0.000000 0.000000 0.000000
# 3 -0.003713 -0.002216 0.015068 0.000000 0.000000 0.000000
# 4 0.000000 0.000000 0.000000 -0.633595 0.000000 0.000000
# 5 0.000000 0.000000 0.000000 0.000000 0.125368 0.000000
# 6 0.000000 0.000000 0.000000 0.000000 0.000000 0.052490
#
#
# Mechanical properties :
#
#
# Convention : Reuss Voigt Hill
#
# Bulk Modulus (GPa) = 58.93059 69.86178 64.39618
# Shear Modulus (GPa) = -12.50591 21.24024 4.36717
#
# Velocity S-wave (km/s) = -2.55316 3.32736 1.50876
# Velocity P-wave (km/s) = 4.69315 7.15379 6.04989
#
# Compressibility (1/GPa) = 0.01696912
#
# Stress axis : x y z
#
# Youngs Moduli (GPa) = 140.81244 87.33843 66.36429
#
# Poissons Ratio (x) = 0.20930 0.24640
# Poissons Ratio (y) = 0.33745 0.14706
# Poissons Ratio (z) = 0.52282 0.19354
#
# Static dielectric constant tensor:
#      x y z
#    x 1.659520 0.000000 0.000000 
#    y 0.000000 1.684190 0.000000 
#    z 0.000000 0.000000 1.675090 
# 
# From -- ./inp_files/38424.got.cif
#   From: 2010.05.17/outbox.cif.g08.bks.cpg/sg69_20_cif.got.tgz:38424.got - 2010.06.03 19:29:58.
