data_PCOD9512023
_publ_section_title
;
Structure prediction by ZEFSAII (Michael W. Deem and Ramdas Pophale) SiO2 
 PCOD9512023
Probable space group: F M M M
;
_chemical_formula_sum "Si O2"
_cell_formula_units_Z 160
_cell_length_a 27.931335
_cell_length_b 15.463480
_cell_length_c 18.866052
_cell_angle_alpha 90.000000
_cell_angle_beta 90.000000
_cell_angle_gamma 90.000000
_cell_volume 8148.542927
_symmetry_space_group_name_H-M "F M M M"
_symmetry_group_IT_number 69
_symmetry_cell_setting 'orthorhombic'
loop_
_space_group_symop_operation_xyz
x,y,z
-x,-y,z
x,-y,-z
-x,y,-z
-x,-y,-z
x,y,-z
-x,y,z
x,-y,z
x,1/2+y,1/2+z
-x,1/2-y,1/2+z
x,1/2-y,1/2-z
-x,1/2+y,1/2-z
-x,1/2-y,1/2-z
x,1/2+y,1/2-z
-x,1/2+y,1/2+z
x,1/2-y,1/2+z
1/2+x,y,1/2+z
1/2-x,-y,1/2+z
1/2+x,-y,1/2-z
1/2-x,y,1/2-z
1/2-x,-y,1/2-z
1/2+x,y,1/2-z
1/2-x,y,1/2+z
1/2+x,-y,1/2+z
1/2+x,1/2+y,z
1/2-x,1/2-y,z
1/2+x,1/2-y,-z
1/2-x,1/2+y,-z
1/2-x,1/2-y,-z
1/2+x,1/2+y,-z
1/2-x,1/2+y,z
1/2+x,1/2-y,z
loop_
_atom_site_type_symbol
_atom_site_label
_atom_site_fract_x
_atom_site_fract_y
_atom_site_fract_z
Si Si1 0.218927 0.104471 0.319627
Si Si2 0.943452 0.000000 0.921439
Si Si3 0.396908 0.347114 0.836607
Si Si4 0.391285 0.649414 0.672134
Si Si5 0.942792 0.000000 0.584921
Si Si6 0.803590 0.104451 0.919057
O O1 0.250000 0.130145 0.250000
O O2 0.166642 0.144751 0.328614
O O3 0.251638 0.124745 0.387437
O O4 0.212320 0.000000 0.314502
O O5 0.927157 0.914085 0.881812
O O6 0.000000 0.000000 0.926041
O O7 0.921538 0.000000 0.000000
O O8 0.402606 0.370483 0.754246
O O9 0.408335 0.246303 0.844647
O O10 0.342986 0.359880 0.865098
O O11 0.416570 0.582043 0.620392
O O12 0.936650 0.000000 0.500000
O O13 0.000000 0.000000 0.599899
O O14 0.808296 0.000000 0.917753
O O15 0.810254 0.133852 0.000000
#
# Coordination Sequence:
#
# PCOD9512023 Si02
#       6
#    32  16  32  32  16  32
#     4  10  19  35  62  92 128 177 221 265 314 383
#     4  11  25  45  70  97 128 165 213 284 353 402
#     4  11  23  40  66 100 129 168 212 269 334 397
#     4  11  24  42  67  97 133 171 220 269 328 394
#     4  11  27  49  69  90 126 175 222 277 336 390
#     4  10  20  35  59  90 129 170 210 261 324 389
#
# _framework density 19.635411999999999
#
# number of rings (size 3 to 8) (size 9 to 14) (size 15 to 20)
#    0.000    1.400    4.000    1.200    0.000    5.600 
#    0.000    5.000    0.000    0.000    0.000    0.000 
#    0.000    0.000    0.000    0.000    0.000    0.000 
#
# Total GULP energy -223516.198804 kJ/mol
# GULP energy per Si atom -5587.904970 kJ/mol
# Density = 1.959072 g / cm^3
# Si number density = 19.635412 Si / 1000 Ang^3
#
#
#
# Elastic Constant Matrix: (Units=GPa)
#
#
# Indices 1 2 3 4 5 6 
#
# 1 95.9270 49.8475 53.2147 0.0000 0.0000 0.0000
# 2 49.8475 84.9067 81.6269 0.0000 0.0000 0.0000
# 3 53.2147 81.6269 140.7067 0.0000 0.0000 0.0000
# 4 0.0000 0.0000 0.0000 9.7189 0.0000 0.0000
# 5 0.0000 0.0000 0.0000 0.0000 34.8509 0.0000
# 6 0.0000 0.0000 0.0000 0.0000 0.0000 -25.4500
#
#
#
# Elastic Compliance Matrix: (Units=1/GPa)
#
#
# Indices 1 2 3 4 5 6 
#
# 1 0.015103 -0.007632 -0.001284 0.000000 0.000000 0.000000
# 2 -0.007632 0.030485 -0.014799 0.000000 0.000000 0.000000
# 3 -0.001284 -0.014799 0.016178 0.000000 0.000000 0.000000
# 4 0.000000 0.000000 0.000000 0.102892 0.000000 0.000000
# 5 0.000000 0.000000 0.000000 0.000000 0.028694 0.000000
# 6 0.000000 0.000000 0.000000 0.000000 0.000000 -0.039293
#
#
# Mechanical properties :
#
#
# Convention : Reuss Voigt Hill
#
# Bulk Modulus (GPa) = 69.75527 76.76872 73.26199
# Shear Modulus (GPa) = 24.24023 12.94739 18.59381
#
# Velocity S-wave (km/s) = 3.51738 2.57064 3.08060
# Velocity P-wave (km/s) = 7.21792 6.92769 7.07429
#
# Compressibility (1/GPa) = 0.01433583
#
# Stress axis : x y z
#
# Youngs Moduli (GPa) = 66.21212 32.80261 61.81277
#
# Poissons Ratio (x) = 0.25035 0.07940
# Poissons Ratio (y) = 0.50532 0.91476
# Poissons Ratio (z) = 0.08505 0.48544
#
# Static dielectric constant tensor:
#      x y z
#    x 1.676000 0.000000 0.000000 
#    y 0.000000 1.691290 0.000000 
#    z 0.000000 0.000000 1.681990 
# 
# From -- ./inp_files/27526.got.cif
#   From: 2010.05.17/outbox.cif.g08.bks.cpg/sg69_14_cif.got.tgz:27526.got - 2010.06.03 19:29:58.
