data_PCOD9512258
_publ_section_title
;
Structure prediction by ZEFSAII (Michael W. Deem and Ramdas Pophale) SiO2 
 PCOD9512258
Probable space group: F M M M
;
_chemical_formula_sum "Si O2"
_cell_formula_units_Z 148
_cell_length_a 15.783061
_cell_length_b 15.750186
_cell_length_c 29.646712
_cell_angle_alpha 90.000000
_cell_angle_beta 90.000000
_cell_angle_gamma 90.000000
_cell_volume 7369.761889
_symmetry_space_group_name_H-M "F M M M"
_symmetry_group_IT_number 69
_symmetry_cell_setting 'orthorhombic'
loop_
_space_group_symop_operation_xyz
x,y,z
-x,-y,z
x,-y,-z
-x,y,-z
-x,-y,-z
x,y,-z
-x,y,z
x,-y,z
x,1/2+y,1/2+z
-x,1/2-y,1/2+z
x,1/2-y,1/2-z
-x,1/2+y,1/2-z
-x,1/2-y,1/2-z
x,1/2+y,1/2-z
-x,1/2+y,1/2+z
x,1/2-y,1/2+z
1/2+x,y,1/2+z
1/2-x,-y,1/2+z
1/2+x,-y,1/2-z
1/2-x,y,1/2-z
1/2-x,-y,1/2-z
1/2+x,y,1/2-z
1/2-x,y,1/2+z
1/2+x,-y,1/2+z
1/2+x,1/2+y,z
1/2-x,1/2-y,z
1/2+x,1/2-y,-z
1/2-x,1/2+y,-z
1/2-x,1/2-y,-z
1/2+x,1/2+y,-z
1/2-x,1/2+y,z
1/2+x,1/2-y,z
loop_
_atom_site_type_symbol
_atom_site_label
_atom_site_fract_x
_atom_site_fract_y
_atom_site_fract_z
Si Si1 0.598126 0.248274 0.906443
Si Si2 0.147068 0.348613 0.745658
Si Si3 0.369152 0.907920 0.841910
Si Si4 0.500000 0.500000 0.500000
Si Si5 0.595400 0.176962 0.000000
Si Si6 0.665754 0.094499 0.647236
O O1 0.500000 0.272725 0.911457
O O2 0.600188 0.171011 0.870840
O O3 0.633937 0.210820 0.953433
O O4 0.645313 0.329469 0.886521
O O5 0.123260 0.250000 0.750000
O O6 0.250000 0.352885 0.750000
O O7 0.110965 0.396387 0.789074
O O8 0.126425 0.384382 0.696435
O O9 0.267123 0.906631 0.846073
O O10 0.399369 0.000000 0.858367
O O11 0.573746 0.576440 0.500000
O O12 0.500000 0.214574 0.000000
O O13 0.639266 0.000000 0.632699
#
# Coordination Sequence:
#
# PCOD9512258 Si02
#       6
#    32  32  32   4  16  32
#     4  11  22  37  57  81 108 139 180 228 279 328
#     4   9  15  29  53  78 107 145 187 224 258 312
#     4  10  20  33  56  84 110 142 183 228 272 319
#     4   8  16  40  64  80 102 140 188 224 278 344
#     4   8  20  36  58  79 105 141 177 222 272 334
#     4  10  20  36  56  79 112 150 187 220 263 324
#
# _framework density 20.082059999999998
#
# number of rings (size 3 to 8) (size 9 to 14) (size 15 to 20)
#    0.324    1.946    2.162    1.297    1.514    3.459 
#    0.000    4.865    0.000    7.135    0.000    0.000 
#    0.000    0.000    0.000    0.000    0.000    0.000 
#
# Total GULP energy -206058.449233 kJ/mol
# GULP energy per Si atom -5569.147277 kJ/mol
# Density = 2.003635 g / cm^3
# Si number density = 20.082060 Si / 1000 Ang^3
#
#
#
# Elastic Constant Matrix: (Units=GPa)
#
#
# Indices 1 2 3 4 5 6 
#
# 1 29.8549 21.8048 12.3251 0.0000 0.0000 0.0000
# 2 21.8048 181.2284 74.9612 0.0000 0.0000 0.0000
# 3 12.3251 74.9612 127.5176 0.0000 0.0000 0.0000
# 4 0.0000 0.0000 0.0000 4.4925 0.0000 0.0000
# 5 0.0000 0.0000 0.0000 0.0000 17.2263 0.0000
# 6 0.0000 0.0000 0.0000 0.0000 0.0000 1.4300
#
#
#
# Elastic Compliance Matrix: (Units=1/GPa)
#
#
# Indices 1 2 3 4 5 6 
#
# 1 0.036876 -0.003914 -0.001263 0.000000 0.000000 0.000000
# 2 -0.003914 0.007706 -0.004152 0.000000 0.000000 0.000000
# 3 -0.001263 -0.004152 0.010405 0.000000 0.000000 0.000000
# 4 0.000000 0.000000 0.000000 0.222591 0.000000 0.000000
# 5 0.000000 0.000000 0.000000 0.000000 0.058051 0.000000
# 6 0.000000 0.000000 0.000000 0.000000 0.000000 0.699323
#
#
# Mechanical properties :
#
#
# Convention : Reuss Voigt Hill
#
# Bulk Modulus (GPa) = 27.52682 61.86477 44.69580
# Shear Modulus (GPa) = 4.69167 19.93041 12.31104
#
# Velocity S-wave (km/s) = 1.53014 3.15373 2.47864
# Velocity P-wave (km/s) = 4.10593 6.64336 5.52236
#
# Compressibility (1/GPa) = 0.03632821
#
# Stress axis : x y z
#
# Youngs Moduli (GPa) = 27.11813 129.76712 96.11019
#
# Poissons Ratio (x) = 0.50794 0.12141
# Poissons Ratio (y) = 0.10615 0.39902
# Poissons Ratio (z) = 0.03426 0.53875
#
# Static dielectric constant tensor:
#      x y z
#    x 1.749390 0.000000 0.000000 
#    y 0.000000 1.692810 0.000000 
#    z 0.000000 0.000000 1.745380 
# 
# From -- ./inp_files/46201.got.cif
#   From: 2010.05.17/outbox.cif.g08.bks.cpg/sg69_24_cif.got.tgz:46201.got - 2010.06.03 19:29:58.
