data_PCOD9512494
_publ_section_title
;
Structure prediction by ZEFSAII (Michael W. Deem and Ramdas Pophale) SiO2 
 PCOD9512494
Probable space group: F M M M
;
_chemical_formula_sum "Si O2"
_cell_formula_units_Z 104
_cell_length_a 14.656305
_cell_length_b 7.713783
_cell_length_c 36.595866
_cell_angle_alpha 90.000000
_cell_angle_beta 90.000000
_cell_angle_gamma 90.000000
_cell_volume 4137.365991
_symmetry_space_group_name_H-M "F M M M"
_symmetry_group_IT_number 69
_symmetry_cell_setting 'orthorhombic'
loop_
_space_group_symop_operation_xyz
x,y,z
-x,-y,z
x,-y,-z
-x,y,-z
-x,-y,-z
x,y,-z
-x,y,z
x,-y,z
x,1/2+y,1/2+z
-x,1/2-y,1/2+z
x,1/2-y,1/2-z
-x,1/2+y,1/2-z
-x,1/2-y,1/2-z
x,1/2+y,1/2-z
-x,1/2+y,1/2+z
x,1/2-y,1/2+z
1/2+x,y,1/2+z
1/2-x,-y,1/2+z
1/2+x,-y,1/2-z
1/2-x,y,1/2-z
1/2-x,-y,1/2-z
1/2+x,y,1/2-z
1/2-x,y,1/2+z
1/2+x,-y,1/2+z
1/2+x,1/2+y,z
1/2-x,1/2-y,z
1/2+x,1/2-y,-z
1/2-x,1/2+y,-z
1/2-x,1/2-y,-z
1/2+x,1/2+y,-z
1/2-x,1/2+y,z
1/2+x,1/2-y,z
loop_
_atom_site_type_symbol
_atom_site_label
_atom_site_fract_x
_atom_site_fract_y
_atom_site_fract_z
Si Si1 0.327479 0.000000 0.500000
Si Si2 0.105855 0.693188 0.050847
Si Si3 0.642525 0.792269 0.368339
Si Si4 0.642244 0.704598 0.210244
O O1 0.340160 0.153319 0.531619
O O2 0.139462 0.500000 0.040716
O O3 0.106877 0.710713 0.094541
O O4 0.000000 0.708932 0.039647
O O5 0.750000 0.750000 0.368166
O O6 0.607161 0.726862 0.328798
O O7 0.628232 0.000000 0.370755
O O8 0.634299 0.500000 0.207430
O O9 0.603784 0.750000 0.250000
O O10 0.750000 0.750000 0.211407
#
# Coordination Sequence:
#
# PCOD9512494 Si02
#       4
#     8  32  32  32
#     4  12  23  42  66  86 114 146 187 240 283 336
#     4  11  23  39  63  89 112 147 192 234 282 340
#     4  10  20  35  56  82 118 154 187 236 287 336
#     4   9  16  26  45  74 107 145 187 228 273 324
#
# _framework density 25.136762999999998
#
# number of rings (size 3 to 8) (size 9 to 14) (size 15 to 20)
#    0.000    1.846    1.538    4.615    0.000    4.923 
#    0.000    0.769    0.000    0.923    0.000    0.000 
#    0.000    0.000    0.000    0.000    0.000    0.000 
#
# Total GULP energy -144909.962829 kJ/mol
# GULP energy per Si atom -5573.460109 kJ/mol
# Density = 2.507955 g / cm^3
# Si number density = 25.136763 Si / 1000 Ang^3
#
#
#
# Elastic Constant Matrix: (Units=GPa)
#
#
# Indices 1 2 3 4 5 6 
#
# 1 92.4596 9.9590 14.7383 0.0000 0.0000 0.0000
# 2 9.9590 176.7176 57.7845 0.0000 0.0000 0.0000
# 3 14.7383 57.7845 304.3079 0.0000 0.0000 0.0000
# 4 0.0000 0.0000 0.0000 38.4399 0.0000 0.0000
# 5 0.0000 0.0000 0.0000 0.0000 1303.8849 0.0000
# 6 0.0000 0.0000 0.0000 0.0000 0.0000 1.8424
#
#
#
# Elastic Compliance Matrix: (Units=1/GPa)
#
#
# Indices 1 2 3 4 5 6 
#
# 1 0.010937 -0.000472 -0.000440 0.000000 0.000000 0.000000
# 2 -0.000472 0.006054 -0.001127 0.000000 0.000000 0.000000
# 3 -0.000440 -0.001127 0.003521 0.000000 0.000000 0.000000
# 4 0.000000 0.000000 0.000000 0.026015 0.000000 0.000000
# 5 0.000000 0.000000 0.000000 0.000000 0.000767 0.000000
# 6 0.000000 0.000000 0.000000 0.000000 0.000000 0.542781
#
#
# Mechanical properties :
#
#
# Convention : Reuss Voigt Hill
#
# Bulk Modulus (GPa) = 60.85116 82.04985 71.45051
# Shear Modulus (GPa) = 8.33847 301.56699 154.95273
#
# Velocity S-wave (km/s) = 1.82331 10.96499 7.85988
# Velocity P-wave (km/s) = 5.35660 13.89317 10.52885
#
# Compressibility (1/GPa) = 0.01643354
#
# Stress axis : x y z
#
# Youngs Moduli (GPa) = 91.43646 165.18616 283.97854
#
# Poissons Ratio (x) = 0.07805 0.12494
# Poissons Ratio (y) = 0.04320 0.31995
# Poissons Ratio (z) = 0.04023 0.18611
#
# Static dielectric constant tensor:
#      x y z
#    x 2.010710 0.000000 0.000000 
#    y 0.000000 1.909240 0.000000 
#    z 0.000000 0.000000 2.041910 
# 
# From -- ./inp_files/46858.got.cif
#   From: 2010.05.17/outbox.cif.g08.bks.cpg/sg69_24_cif.got.tgz:46858.got - 2010.06.03 19:29:58.
