data_PCOD9512420
_publ_section_title
;
Structure prediction by ZEFSAII (Michael W. Deem and Ramdas Pophale) SiO2 
 PCOD9512420
Probable space group: F M M M
;
_chemical_formula_sum "Si O2"
_cell_formula_units_Z 136
_cell_length_a 18.577382
_cell_length_b 14.304974
_cell_length_c 27.817459
_cell_angle_alpha 90.000000
_cell_angle_beta 90.000000
_cell_angle_gamma 90.000000
_cell_volume 7392.460980
_symmetry_space_group_name_H-M "F M M M"
_symmetry_group_IT_number 69
_symmetry_cell_setting 'orthorhombic'
loop_
_space_group_symop_operation_xyz
x,y,z
-x,-y,z
x,-y,-z
-x,y,-z
-x,-y,-z
x,y,-z
-x,y,z
x,-y,z
x,1/2+y,1/2+z
-x,1/2-y,1/2+z
x,1/2-y,1/2-z
-x,1/2+y,1/2-z
-x,1/2-y,1/2-z
x,1/2+y,1/2-z
-x,1/2+y,1/2+z
x,1/2-y,1/2+z
1/2+x,y,1/2+z
1/2-x,-y,1/2+z
1/2+x,-y,1/2-z
1/2-x,y,1/2-z
1/2-x,-y,1/2-z
1/2+x,y,1/2-z
1/2-x,y,1/2+z
1/2+x,-y,1/2+z
1/2+x,1/2+y,z
1/2-x,1/2-y,z
1/2+x,1/2-y,-z
1/2-x,1/2+y,-z
1/2-x,1/2-y,-z
1/2+x,1/2+y,-z
1/2-x,1/2+y,z
1/2+x,1/2-y,z
loop_
_atom_site_type_symbol
_atom_site_label
_atom_site_fract_x
_atom_site_fract_y
_atom_site_fract_z
Si Si1 0.340835 0.107692 0.444190
Si Si2 0.641219 0.301834 0.298130
Si Si3 0.000000 0.500000 0.324941
Si Si4 0.500000 0.808142 0.553341
Si Si5 0.250000 0.250000 0.121145
Si Si6 0.582047 0.000000 0.231416
Si Si7 0.000000 0.213643 0.155693
O O1 0.317551 0.115775 0.500000
O O2 0.425661 0.133776 0.443723
O O3 0.295476 0.178118 0.411376
O O4 0.332392 0.000000 0.428804
O O5 0.667660 0.250000 0.250000
O O6 0.695436 0.300711 0.342524
O O7 0.620810 0.406710 0.284426
O O8 0.569596 0.246911 0.315355
O O9 0.068387 0.500000 0.288794
O O10 0.000000 0.399374 0.349787
O O11 0.500000 0.762972 0.500000
O O12 0.500000 0.746126 0.601534
O O13 0.500000 0.000000 0.211553
#
# Coordination Sequence:
#
# PCOD9512420 Si02
#       7
#    32  32   8  16  16  16  16
#     4  10  22  42  64  90 120 155 201 250 302 358
#     4  12  23  42  58  91 123 161 205 248 294 357
#     4  10  20  34  65  94 106 164 205 258 306 336
#     4  10  21  38  64  94 116 144 198 260 301 343
#     4  12  26  38  60  88 128 168 192 238 304 370
#     4  10  20  38  64  88 114 155 212 257 292 338
#     4  12  20  38  65  87 124 154 209 250 293 363
#
# _framework density 18.397120999999999
#
# number of rings (size 3 to 8) (size 9 to 14) (size 15 to 20)
#    0.353    0.706    5.882    1.412    3.294    1.412 
#    2.118    1.176    0.000    0.000    0.000    0.824 
#    0.000    0.471    0.000    0.000    0.000    0.000 
#
# Total GULP energy -189729.154476 kJ/mol
# GULP energy per Si atom -5580.269249 kJ/mol
# Density = 1.835525 g / cm^3
# Si number density = 18.397121 Si / 1000 Ang^3
#
#
#
# Elastic Constant Matrix: (Units=GPa)
#
#
# Indices 1 2 3 4 5 6 
#
# 1 101.0217 43.7901 48.2266 0.0000 0.0000 0.0000
# 2 43.7901 108.0834 44.5022 0.0000 0.0000 0.0000
# 3 48.2266 44.5022 124.4697 0.0000 0.0000 0.0000
# 4 0.0000 0.0000 0.0000 21.2755 0.0000 0.0000
# 5 0.0000 0.0000 0.0000 0.0000 25.1628 0.0000
# 6 0.0000 0.0000 0.0000 0.0000 0.0000 -2.7000
#
#
#
# Elastic Compliance Matrix: (Units=1/GPa)
#
#
# Indices 1 2 3 4 5 6 
#
# 1 0.013389 -0.003856 -0.003809 0.000000 0.000000 0.000000
# 2 -0.003856 0.011960 -0.002782 0.000000 0.000000 0.000000
# 3 -0.003809 -0.002782 0.010504 0.000000 0.000000 0.000000
# 4 0.000000 0.000000 0.000000 0.047002 0.000000 0.000000
# 5 0.000000 0.000000 0.000000 0.000000 0.039741 0.000000
# 6 0.000000 0.000000 0.000000 0.000000 0.000000 -0.370373
#
#
# Mechanical properties :
#
#
# Convention : Reuss Voigt Hill
#
# Bulk Modulus (GPa) = 66.84887 67.40141 67.12514
# Shear Modulus (GPa) = -22.53307 21.88472 -0.32417
#
# Velocity S-wave (km/s) = -3.50353 3.45276 -0.42023
# Velocity P-wave (km/s) = 4.47763 7.25340 6.02748
#
# Compressibility (1/GPa) = 0.01495912
#
# Stress axis : x y z
#
# Youngs Moduli (GPa) = 74.68982 83.61272 95.19742
#
# Poissons Ratio (x) = 0.32243 0.36259
# Poissons Ratio (y) = 0.28802 0.26484
# Poissons Ratio (z) = 0.28448 0.23261
#
# Static dielectric constant tensor:
#      x y z
#    x 1.643630 0.000000 0.000000 
#    y 0.000000 1.592520 0.000000 
#    z 0.000000 0.000000 1.658060 
# 
# From -- ./inp_files/42490.got.cif
#   From: 2010.05.17/outbox.cif.g08.bks.cpg/sg69_22_cif.got.tgz:42490.got - 2010.06.03 19:29:58.
