data_PCOD9512799
_publ_section_title
;
Structure prediction by ZEFSAII (Michael W. Deem and Ramdas Pophale) SiO2 
 PCOD9512799
Probable space group: F M M M
;
_chemical_formula_sum "Si O2"
_cell_formula_units_Z 136
_cell_length_a 15.083366
_cell_length_b 13.977171
_cell_length_c 25.648761
_cell_angle_alpha 90.000000
_cell_angle_beta 90.000000
_cell_angle_gamma 90.000000
_cell_volume 5407.343247
_symmetry_space_group_name_H-M "F M M M"
_symmetry_group_IT_number 69
_symmetry_cell_setting 'orthorhombic'
loop_
_space_group_symop_operation_xyz
x,y,z
-x,-y,z
x,-y,-z
-x,y,-z
-x,-y,-z
x,y,-z
-x,y,z
x,-y,z
x,1/2+y,1/2+z
-x,1/2-y,1/2+z
x,1/2-y,1/2-z
-x,1/2+y,1/2-z
-x,1/2-y,1/2-z
x,1/2+y,1/2-z
-x,1/2+y,1/2+z
x,1/2-y,1/2+z
1/2+x,y,1/2+z
1/2-x,-y,1/2+z
1/2+x,-y,1/2-z
1/2-x,y,1/2-z
1/2-x,-y,1/2-z
1/2+x,y,1/2-z
1/2-x,y,1/2+z
1/2+x,-y,1/2+z
1/2+x,1/2+y,z
1/2-x,1/2-y,z
1/2+x,1/2-y,-z
1/2-x,1/2+y,-z
1/2-x,1/2-y,-z
1/2+x,1/2+y,-z
1/2-x,1/2+y,z
1/2+x,1/2-y,z
loop_
_atom_site_type_symbol
_atom_site_label
_atom_site_fract_x
_atom_site_fract_y
_atom_site_fract_z
Si Si1 0.396604 0.603482 0.925558
Si Si2 0.608168 0.227958 0.000000
Si Si3 0.594993 0.000000 0.894440
Si Si4 0.853479 0.363138 0.308360
Si Si5 0.167477 0.500000 0.000000
Si Si6 0.856654 0.863756 0.305342
O O1 0.500000 0.602881 0.939389
O O2 0.359922 0.500000 0.944002
O O3 0.389901 0.603760 0.863249
O O4 0.362849 0.702114 0.951622
O O5 0.500000 0.218297 0.000000
O O6 0.643899 0.119666 0.000000
O O7 0.600228 0.911861 0.855001
O O8 0.500000 0.000000 0.923309
O O9 0.671372 0.000000 0.936626
O O10 0.866227 0.249340 0.308149
O O11 0.888735 0.395521 0.251974
O O12 0.748460 0.384459 0.308164
#
# Coordination Sequence:
#
# PCOD9512799 Si02
#       6
#    32  16  16  32   8  32
#     4  10  21  35  59  92 125 160 199 248 306 363
#     4  10  20  38  60  86 122 161 204 249 300 368
#     4  12  25  39  59  89 119 153 203 255 309 364
#     4   9  19  39  61  86 121 162 204 245 300 364
#     4  12  25  42  64  84 114 166 211 254 311 358
#     4   9  21  38  60  87 119 161 204 249 301 362
#
# _framework density 25.150984000000001
#
# number of rings (size 3 to 8) (size 9 to 14) (size 15 to 20)
#    0.000    2.118    0.000    4.235    3.294    6.118 
#    0.000    3.529    0.000    4.235    0.000    0.000 
#    0.000    0.000    0.000    0.000    0.000    0.000 
#
# Total GULP energy -189563.343602 kJ/mol
# GULP energy per Si atom -5575.392459 kJ/mol
# Density = 2.509374 g / cm^3
# Si number density = 25.150984 Si / 1000 Ang^3
#
#
#
# Elastic Constant Matrix: (Units=GPa)
#
#
# Indices 1 2 3 4 5 6 
#
# 1 62.4608 14.3198 14.7276 0.0000 0.0000 0.0000
# 2 14.3198 221.0886 50.3565 0.0000 0.0000 0.0000
# 3 14.7276 50.3565 200.6219 0.0000 0.0000 0.0000
# 4 0.0000 0.0000 0.0000 47.9127 0.0000 0.0000
# 5 0.0000 0.0000 0.0000 0.0000 12.4130 0.0000
# 6 0.0000 0.0000 0.0000 0.0000 0.0000 13.5769
#
#
#
# Elastic Compliance Matrix: (Units=1/GPa)
#
#
# Indices 1 2 3 4 5 6 
#
# 1 0.016437 -0.000838 -0.000996 0.000000 0.000000 0.000000
# 2 -0.000838 0.004840 -0.001153 0.000000 0.000000 0.000000
# 3 -0.000996 -0.001153 0.005347 0.000000 0.000000 0.000000
# 4 0.000000 0.000000 0.000000 0.020871 0.000000 0.000000
# 5 0.000000 0.000000 0.000000 0.000000 0.080561 0.000000
# 6 0.000000 0.000000 0.000000 0.000000 0.000000 0.073655
#
#
# Mechanical properties :
#
#
# Convention : Reuss Voigt Hill
#
# Bulk Modulus (GPa) = 48.42767 71.44210 59.93488
# Shear Modulus (GPa) = 23.30253 41.76500 32.53377
#
# Velocity S-wave (km/s) = 3.04716 4.07943 3.60048
# Velocity P-wave (km/s) = 5.62822 7.11730 6.41610
#
# Compressibility (1/GPa) = 0.02064935
#
# Stress axis : x y z
#
# Youngs Moduli (GPa) = 60.83831 206.61041 187.01583
#
# Poissons Ratio (x) = 0.17307 0.18634
# Poissons Ratio (y) = 0.05096 0.21570
# Poissons Ratio (z) = 0.06062 0.23830
#
# Static dielectric constant tensor:
#      x y z
#    x 2.103890 0.000000 0.000000 
#    y 0.000000 2.015240 0.000000 
#    z 0.000000 0.000000 1.947610 
# 
# From -- ./inp_files/37092.got.cif
#   From: 2010.05.17/outbox.cif.g08.bks.cpg/sg69_19_cif.got.tgz:37092.got - 2010.06.03 19:29:58.
