data_PCOD9512700
_publ_section_title
;
Structure prediction by ZEFSAII (Michael W. Deem and Ramdas Pophale) SiO2 
 PCOD9512700
Probable space group: F M M M
;
_chemical_formula_sum "Si O2"
_cell_formula_units_Z 96
_cell_length_a 27.677856
_cell_length_b 8.015223
_cell_length_c 21.255108
_cell_angle_alpha 90.000000
_cell_angle_beta 90.000000
_cell_angle_gamma 90.000000
_cell_volume 4715.322175
_symmetry_space_group_name_H-M "F M M M"
_symmetry_group_IT_number 69
_symmetry_cell_setting 'orthorhombic'
loop_
_space_group_symop_operation_xyz
x,y,z
-x,-y,z
x,-y,-z
-x,y,-z
-x,-y,-z
x,y,-z
-x,y,z
x,-y,z
x,1/2+y,1/2+z
-x,1/2-y,1/2+z
x,1/2-y,1/2-z
-x,1/2+y,1/2-z
-x,1/2-y,1/2-z
x,1/2+y,1/2-z
-x,1/2+y,1/2+z
x,1/2-y,1/2+z
1/2+x,y,1/2+z
1/2-x,-y,1/2+z
1/2+x,-y,1/2-z
1/2-x,y,1/2-z
1/2-x,-y,1/2-z
1/2+x,y,1/2-z
1/2-x,y,1/2+z
1/2+x,-y,1/2+z
1/2+x,1/2+y,z
1/2-x,1/2-y,z
1/2+x,1/2-y,-z
1/2-x,1/2+y,-z
1/2-x,1/2-y,-z
1/2+x,1/2+y,-z
1/2-x,1/2+y,z
1/2+x,1/2-y,z
loop_
_atom_site_type_symbol
_atom_site_label
_atom_site_fract_x
_atom_site_fract_y
_atom_site_fract_z
Si Si1 0.445357 0.300128 0.177271
Si Si2 0.778742 0.000000 0.685762
Si Si3 0.650432 0.316078 0.613002
Si Si4 0.294205 0.000000 0.431641
O O1 0.500000 0.248816 0.159570
O O2 0.442081 0.500000 0.172711
O O3 0.438297 0.250000 0.250000
O O4 0.403324 0.221921 0.135699
O O5 0.750000 0.000000 0.750000
O O6 0.814630 0.156379 0.674128
O O7 0.742894 0.000000 0.626036
O O8 0.652152 0.500000 0.582389
O O9 0.672827 0.164138 0.575064
O O10 0.269959 0.000000 0.500000
#
# Coordination Sequence:
#
# PCOD9512700 Si02
#       4
#    32  16  32  16
#     4  10  20  36  61  95 136 174 212 270 343 408
#     4  10  26  44  65  99 137 181 219 279 340 393
#     4  10  24  40  65  96 129 173 216 283 323 402
#     4  12  26  46  67  94 135 182 232 274 330 405
#
# _framework density 20.359158999999998
#
# number of rings (size 3 to 8) (size 9 to 14) (size 15 to 20)
#    1.000    0.667    1.667    2.000    4.667    6.667 
#    0.000    0.000    0.000    2.000    0.000    2.333 
#    0.000    0.000    0.000    0.000    0.000    0.000 
#
# Total GULP energy -133960.861578 kJ/mol
# GULP energy per Si atom -5581.702566 kJ/mol
# Density = 2.031282 g / cm^3
# Si number density = 20.359159 Si / 1000 Ang^3
#
#
#
# Elastic Constant Matrix: (Units=GPa)
#
#
# Indices 1 2 3 4 5 6 
#
# 1 131.1156 43.0372 49.9848 0.0000 0.0000 0.0000
# 2 43.0372 121.1669 22.4907 0.0000 0.0000 0.0000
# 3 49.9848 22.4907 92.7927 0.0000 0.0000 0.0000
# 4 0.0000 0.0000 0.0000 1.6791 0.0000 0.0000
# 5 0.0000 0.0000 0.0000 0.0000 16.9344 0.0000
# 6 0.0000 0.0000 0.0000 0.0000 0.0000 52.8772
#
#
#
# Elastic Compliance Matrix: (Units=1/GPa)
#
#
# Indices 1 2 3 4 5 6 
#
# 1 0.010425 -0.002786 -0.004940 0.000000 0.000000 0.000000
# 2 -0.002786 0.009386 -0.000774 0.000000 0.000000 0.000000
# 3 -0.004940 -0.000774 0.013626 0.000000 0.000000 0.000000
# 4 0.000000 0.000000 0.000000 0.595551 0.000000 0.000000
# 5 0.000000 0.000000 0.000000 0.000000 0.059051 0.000000
# 6 0.000000 0.000000 0.000000 0.000000 0.000000 0.018912
#
#
# Mechanical properties :
#
#
# Convention : Reuss Voigt Hill
#
# Bulk Modulus (GPa) = 60.84315 64.01117 62.42716
# Shear Modulus (GPa) = 6.85466 29.60230 18.22848
#
# Velocity S-wave (km/s) = 1.83689 3.81728 2.99548
# Velocity P-wave (km/s) = 5.86930 7.13709 6.53402
#
# Compressibility (1/GPa) = 0.01643570
#
# Stress axis : x y z
#
# Youngs Moduli (GPa) = 95.92699 106.53845 73.39132
#
# Poissons Ratio (x) = 0.29679 0.36257
# Poissons Ratio (y) = 0.26723 0.05684
# Poissons Ratio (z) = 0.47390 0.08251
#
# Static dielectric constant tensor:
#      x y z
#    x 1.730200 0.000000 0.000000 
#    y 0.000000 1.771840 0.000000 
#    z 0.000000 0.000000 1.699610 
# 
# From -- ./inp_files/38013.got.cif
#   From: 2010.05.17/outbox.cif.g08.bks.cpg/sg69_20_cif.got.tgz:38013.got - 2010.06.03 19:29:58.
