data_PCOD9512261
_publ_section_title
;
Structure prediction by ZEFSAII (Michael W. Deem and Ramdas Pophale) SiO2 
 PCOD9512261
Probable space group: F M M M
;
_chemical_formula_sum "Si O2"
_cell_formula_units_Z 168
_cell_length_a 17.885851
_cell_length_b 14.775745
_cell_length_c 28.886667
_cell_angle_alpha 90.000000
_cell_angle_beta 90.000000
_cell_angle_gamma 90.000000
_cell_volume 7634.075151
_symmetry_space_group_name_H-M "F M M M"
_symmetry_group_IT_number 69
_symmetry_cell_setting 'orthorhombic'
loop_
_space_group_symop_operation_xyz
x,y,z
-x,-y,z
x,-y,-z
-x,y,-z
-x,-y,-z
x,y,-z
-x,y,z
x,-y,z
x,1/2+y,1/2+z
-x,1/2-y,1/2+z
x,1/2-y,1/2-z
-x,1/2+y,1/2-z
-x,1/2-y,1/2-z
x,1/2+y,1/2-z
-x,1/2+y,1/2+z
x,1/2-y,1/2+z
1/2+x,y,1/2+z
1/2-x,-y,1/2+z
1/2+x,-y,1/2-z
1/2-x,y,1/2-z
1/2-x,-y,1/2-z
1/2+x,y,1/2-z
1/2-x,y,1/2+z
1/2+x,-y,1/2+z
1/2+x,1/2+y,z
1/2-x,1/2-y,z
1/2+x,1/2-y,-z
1/2-x,1/2+y,-z
1/2-x,1/2-y,-z
1/2+x,1/2+y,-z
1/2-x,1/2+y,z
1/2+x,1/2-y,z
loop_
_atom_site_type_symbol
_atom_site_label
_atom_site_fract_x
_atom_site_fract_y
_atom_site_fract_z
Si Si1 0.609466 0.162711 0.220671
Si Si2 0.920439 0.398890 0.315260
Si Si3 0.302550 0.109151 0.613256
Si Si4 0.624489 0.108309 0.881468
Si Si5 0.750000 0.250000 0.750000
Si Si6 0.915389 0.727617 0.445149
O O1 0.580004 0.250000 0.250000
O O2 0.590940 0.092711 0.260555
O O3 0.591034 0.135968 0.168927
O O4 0.697132 0.185132 0.220654
O O5 0.925546 0.500000 0.333945
O O6 0.847815 0.359902 0.340255
O O7 0.000000 0.352896 0.325751
O O8 0.214302 0.127399 0.616653
O O9 0.350455 0.162005 0.574563
O O10 0.306912 0.000000 0.606849
O O11 0.591048 0.175719 0.919474
O O12 0.613406 0.000000 0.888261
O O13 0.906329 0.738549 0.500000
O O14 0.000000 0.691358 0.436523
#
# Coordination Sequence:
#
# PCOD9512261 Si02
#       6
#    32  32  32  32   8  32
#     4  10  20  33  56  85 123 166 210 257 305 363
#     4  10  20  34  54  84 125 168 206 249 305 370
#     4  10  22  40  66  99 132 169 215 268 328 389
#     4  11  24  41  66  97 131 172 220 273 325 385
#     4   8  20  32  52  84 118 160 202 258 306 368
#     4  11  26  46  68  94 126 166 211 269 338 401
#
# _framework density 22.006594
#
# number of rings (size 3 to 8) (size 9 to 14) (size 15 to 20)
#    0.571    1.143    0.000    4.000    2.667    4.952 
#    0.000    7.619    0.000    0.000    0.000    0.000 
#    0.000    0.000    0.000    0.000    0.000    0.000 
#
# Total GULP energy -233942.280410 kJ/mol
# GULP energy per Si atom -5570.054295 kJ/mol
# Density = 2.195651 g / cm^3
# Si number density = 22.006594 Si / 1000 Ang^3
#
#
#
# Elastic Constant Matrix: (Units=GPa)
#
#
# Indices 1 2 3 4 5 6 
#
# 1 118.4250 26.5135 38.3688 0.0000 0.0000 0.0000
# 2 26.5135 83.9851 30.6825 0.0000 0.0000 0.0000
# 3 38.3688 30.6825 154.7993 0.0000 0.0000 0.0000
# 4 0.0000 0.0000 0.0000 20.3805 0.0000 0.0000
# 5 0.0000 0.0000 0.0000 0.0000 31.2486 0.0000
# 6 0.0000 0.0000 0.0000 0.0000 0.0000 16.0344
#
#
#
# Elastic Compliance Matrix: (Units=1/GPa)
#
#
# Indices 1 2 3 4 5 6 
#
# 1 0.009585 -0.002327 -0.001915 0.000000 0.000000 0.000000
# 2 -0.002327 0.013401 -0.002080 0.000000 0.000000 0.000000
# 3 -0.001915 -0.002080 0.007347 0.000000 0.000000 0.000000
# 4 0.000000 0.000000 0.000000 0.049067 0.000000 0.000000
# 5 0.000000 0.000000 0.000000 0.000000 0.032001 0.000000
# 6 0.000000 0.000000 0.000000 0.000000 0.000000 0.062366
#
#
# Mechanical properties :
#
#
# Convention : Reuss Voigt Hill
#
# Bulk Modulus (GPa) = 56.52391 60.92655 58.72523
# Shear Modulus (GPa) = 26.00022 30.97566 28.48794
#
# Velocity S-wave (km/s) = 3.44099 3.75582 3.60184
# Velocity P-wave (km/s) = 6.44422 6.82304 6.63633
#
# Compressibility (1/GPa) = 0.01769163
#
# Stress axis : x y z
#
# Youngs Moduli (GPa) = 104.32547 74.62085 136.11471
#
# Poissons Ratio (x) = 0.17361 0.26062
# Poissons Ratio (y) = 0.24272 0.28306
# Poissons Ratio (z) = 0.19975 0.15518
#
# Static dielectric constant tensor:
#      x y z
#    x 1.897890 0.000000 0.000000 
#    y 0.000000 2.009900 0.000000 
#    z 0.000000 0.000000 1.788540 
# 
# From -- ./inp_files/46747.got.cif
#   From: 2010.05.17/outbox.cif.g08.bks.cpg/sg69_24_cif.got.tgz:46747.got - 2010.06.03 19:29:58.
