data_PCOD9512521
_publ_section_title
;
Structure prediction by ZEFSAII (Michael W. Deem and Ramdas Pophale) SiO2 
 PCOD9512521
Probable space group: F M M M
;
_chemical_formula_sum "Si O2"
_cell_formula_units_Z 128
_cell_length_a 24.017841
_cell_length_b 14.449873
_cell_length_c 16.445127
_cell_angle_alpha 90.000000
_cell_angle_beta 90.000000
_cell_angle_gamma 90.000000
_cell_volume 5707.359476
_symmetry_space_group_name_H-M "F M M M"
_symmetry_group_IT_number 69
_symmetry_cell_setting 'orthorhombic'
loop_
_space_group_symop_operation_xyz
x,y,z
-x,-y,z
x,-y,-z
-x,y,-z
-x,-y,-z
x,y,-z
-x,y,z
x,-y,z
x,1/2+y,1/2+z
-x,1/2-y,1/2+z
x,1/2-y,1/2-z
-x,1/2+y,1/2-z
-x,1/2-y,1/2-z
x,1/2+y,1/2-z
-x,1/2+y,1/2+z
x,1/2-y,1/2+z
1/2+x,y,1/2+z
1/2-x,-y,1/2+z
1/2+x,-y,1/2-z
1/2-x,y,1/2-z
1/2-x,-y,1/2-z
1/2+x,y,1/2-z
1/2-x,y,1/2+z
1/2+x,-y,1/2+z
1/2+x,1/2+y,z
1/2-x,1/2-y,z
1/2+x,1/2-y,-z
1/2-x,1/2+y,-z
1/2-x,1/2-y,-z
1/2+x,1/2+y,-z
1/2-x,1/2+y,z
1/2+x,1/2-y,z
loop_
_atom_site_type_symbol
_atom_site_label
_atom_site_fract_x
_atom_site_fract_y
_atom_site_fract_z
Si Si1 0.612057 0.611968 0.405843
Si Si2 0.000000 0.886704 0.315813
Si Si3 0.769281 0.356303 0.164074
Si Si4 0.780201 0.850390 0.000000
Si Si5 0.407914 0.387582 0.000000
Si Si6 0.500000 0.887440 0.370706
O O1 0.616459 0.642022 0.500000
O O2 0.611751 0.500000 0.406896
O O3 0.554946 0.642837 0.364099
O O4 0.665165 0.640573 0.352915
O O5 0.000000 0.856268 0.222124
O O6 0.000000 0.000000 0.315225
O O7 0.750000 0.397090 0.250000
O O8 0.750000 0.250000 0.166691
O O9 0.740461 0.396507 0.083295
O O10 0.750000 0.750000 0.000000
O O11 0.846540 0.846360 0.000000
O O12 0.445198 0.361101 0.921929
O O13 0.402275 0.500000 0.000000
O O14 0.500000 0.000000 0.370342
#
# Coordination Sequence:
#
# PCOD9512521 Si02
#       6
#    32  16  32  16  16  16
#     4  10  20  35  57  86 116 147 189 235 282 340
#     4   9  18  32  54  82 115 148 180 228 288 335
#     4  10  22  39  58  80 110 156 195 235 283 338
#     4  10  21  37  56  80 112 154 187 229 290 337
#     4   9  18  32  55  83 115 147 185 229 276 336
#     4   8  16  32  52  82 114 145 181 227 282 339
#
# _framework density 22.427184
#
# number of rings (size 3 to 8) (size 9 to 14) (size 15 to 20)
#    0.000    2.500    1.250    1.125    3.500    3.000 
#    0.000    0.000    0.000   15.000    0.000    0.000 
#    0.000    0.000    0.000    0.000    0.000    0.000 
#
# Total GULP energy -178880.203889 kJ/mol
# GULP energy per Si atom -5590.006372 kJ/mol
# Density = 2.237614 g / cm^3
# Si number density = 22.427184 Si / 1000 Ang^3
#
#
#
# Elastic Constant Matrix: (Units=GPa)
#
#
# Indices 1 2 3 4 5 6 
#
# 1 263.6879 28.4287 117.9076 0.0000 0.0000 0.0000
# 2 28.4287 91.3457 27.5045 0.0000 0.0000 0.0000
# 3 117.9076 27.5045 237.8486 0.0000 0.0000 0.0000
# 4 0.0000 0.0000 0.0000 -11.8167 0.0000 0.0000
# 5 0.0000 0.0000 0.0000 0.0000 28.0978 0.0000
# 6 0.0000 0.0000 0.0000 0.0000 0.0000 31.6425
#
#
#
# Elastic Compliance Matrix: (Units=1/GPa)
#
#
# Indices 1 2 3 4 5 6 
#
# 1 0.004932 -0.000828 -0.002349 0.000000 0.000000 0.000000
# 2 -0.000828 0.011481 -0.000917 0.000000 0.000000 0.000000
# 3 -0.002349 -0.000917 0.005475 0.000000 0.000000 0.000000
# 4 0.000000 0.000000 0.000000 -0.084626 0.000000 0.000000
# 5 0.000000 0.000000 0.000000 0.000000 0.035590 0.000000
# 6 0.000000 0.000000 0.000000 0.000000 0.000000 0.031603
#
#
# Mechanical properties :
#
#
# Convention : Reuss Voigt Hill
#
# Bulk Modulus (GPa) = 72.99375 104.50707 88.75041
# Shear Modulus (GPa) = 290.52421 37.52080 164.02251
#
# Velocity S-wave (km/s) = 11.39396 4.09468 8.56121
# Velocity P-wave (km/s) = 14.34274 8.30992 11.72111
#
# Compressibility (1/GPa) = 0.01369980
#
# Stress axis : x y z
#
# Youngs Moduli (GPa) = 202.75571 87.09869 182.64778
#
# Poissons Ratio (x) = 0.07208 0.42908
# Poissons Ratio (y) = 0.16780 0.16756
# Poissons Ratio (z) = 0.47632 0.07991
#
# Static dielectric constant tensor:
#      x y z
#    x 1.762060 0.000000 0.000000 
#    y 0.000000 1.816890 0.000000 
#    z 0.000000 0.000000 1.864810 
# 
# From -- ./inp_files/16430.got.cif
#   From: 2010.05.17/outbox.cif.g08.bks.cpg/sg69_9_cif.got.tgz:16430.got - 2010.06.03 19:29:58.
