data_PCOD9512025
_publ_section_title
;
Structure prediction by ZEFSAII (Michael W. Deem and Ramdas Pophale) SiO2 
 PCOD9512025
Probable space group: F M M M
;
_chemical_formula_sum "Si O2"
_cell_formula_units_Z 136
_cell_length_a 14.300917
_cell_length_b 23.963462
_cell_length_c 19.401767
_cell_angle_alpha 90.000000
_cell_angle_beta 90.000000
_cell_angle_gamma 90.000000
_cell_volume 6648.975483
_symmetry_space_group_name_H-M "F M M M"
_symmetry_group_IT_number 69
_symmetry_cell_setting 'orthorhombic'
loop_
_space_group_symop_operation_xyz
x,y,z
-x,-y,z
x,-y,-z
-x,y,-z
-x,-y,-z
x,y,-z
-x,y,z
x,-y,z
x,1/2+y,1/2+z
-x,1/2-y,1/2+z
x,1/2-y,1/2-z
-x,1/2+y,1/2-z
-x,1/2-y,1/2-z
x,1/2+y,1/2-z
-x,1/2+y,1/2+z
x,1/2-y,1/2+z
1/2+x,y,1/2+z
1/2-x,-y,1/2+z
1/2+x,-y,1/2-z
1/2-x,y,1/2-z
1/2-x,-y,1/2-z
1/2+x,y,1/2-z
1/2-x,y,1/2+z
1/2+x,-y,1/2+z
1/2+x,1/2+y,z
1/2-x,1/2-y,z
1/2+x,1/2-y,-z
1/2-x,1/2+y,-z
1/2-x,1/2-y,-z
1/2+x,1/2+y,-z
1/2-x,1/2+y,z
1/2+x,1/2-y,z
loop_
_atom_site_type_symbol
_atom_site_label
_atom_site_fract_x
_atom_site_fract_y
_atom_site_fract_z
Si Si1 0.000000 0.814465 0.764147
Si Si2 0.147707 0.647302 0.626117
Si Si3 0.000000 0.559814 0.418320
Si Si4 0.000000 0.665360 0.000000
Si Si5 0.792195 0.437068 0.827906
Si Si6 0.000000 0.100170 0.643731
Si Si7 0.644131 0.267310 0.000000
O O1 0.000000 0.750000 0.750000
O O2 0.093287 0.830881 0.806669
O O3 0.000000 0.846766 0.693341
O O4 0.089488 0.593682 0.603403
O O5 0.248934 0.619487 0.637740
O O6 0.132017 0.693870 0.567481
O O7 0.000000 0.500000 0.384285
O O8 0.000000 0.555736 0.500000
O O9 0.000000 0.624814 0.066349
O O10 0.915351 0.710517 0.000000
O O11 0.766117 0.500000 0.854451
O O12 0.750000 0.435253 0.750000
O O13 0.904131 0.432048 0.837082
O O14 0.750000 0.250000 0.000000
#
# Coordination Sequence:
#
# PCOD9512025 Si02
#       7
#    16  32  16   8  32  16  16
#     4  11  23  39  67  97 132 171 226 284 331 398
#     4  11  22  41  63  98 134 171 221 277 334 399
#     4  10  19  35  62  96 128 162 203 261 325 388
#     4  12  26  46  73  94 145 182 224 282 352 414
#     4  11  24  44  69 100 137 180 226 284 350 410
#     4  12  24  48  67 103 133 183 232 282 347 413
#     4  12  24  42  65  96 133 184 222 270 334 404
#
# _framework density 20.454279
#
# number of rings (size 3 to 8) (size 9 to 14) (size 15 to 20)
#    0.000    0.824    3.529    5.294    0.000    0.000 
#    0.000    3.529    0.000    0.000    0.000    0.000 
#    0.000    0.000    0.000    0.000    0.000    0.000 
#
# Total GULP energy -189658.304773 kJ/mol
# GULP energy per Si atom -5578.185435 kJ/mol
# Density = 2.040772 g / cm^3
# Si number density = 20.454279 Si / 1000 Ang^3
#
#
#
# Elastic Constant Matrix: (Units=GPa)
#
#
# Indices 1 2 3 4 5 6 
#
# 1 133.2032 25.3696 17.3791 0.0000 0.0000 0.0000
# 2 25.3696 111.9128 34.8283 0.0000 0.0000 0.0000
# 3 17.3791 34.8283 111.6694 0.0000 0.0000 0.0000
# 4 0.0000 0.0000 0.0000 43.1814 0.0000 0.0000
# 5 0.0000 0.0000 0.0000 0.0000 1.4060 0.0000
# 6 0.0000 0.0000 0.0000 0.0000 0.0000 85.1283
#
#
#
# Elastic Compliance Matrix: (Units=1/GPa)
#
#
# Indices 1 2 3 4 5 6 
#
# 1 0.007901 -0.001560 -0.000743 0.000000 0.000000 0.000000
# 2 -0.001560 0.010204 -0.002940 0.000000 0.000000 0.000000
# 3 -0.000743 -0.002940 0.009988 0.000000 0.000000 0.000000
# 4 0.000000 0.000000 0.000000 0.023158 0.000000 0.000000
# 5 0.000000 0.000000 0.000000 0.000000 0.711221 0.000000
# 6 0.000000 0.000000 0.000000 0.000000 0.000000 0.011747
#
#
# Mechanical properties :
#
#
# Convention : Reuss Voigt Hill
#
# Bulk Modulus (GPa) = 56.79458 56.88216 56.83837
# Shear Modulus (GPa) = 6.32452 44.55704 25.44078
#
# Velocity S-wave (km/s) = 1.76032 4.67237 3.53056
# Velocity P-wave (km/s) = 5.65319 7.54836 6.66845
#
# Compressibility (1/GPa) = 0.01760731
#
# Stress axis : x y z
#
# Youngs Moduli (GPa) = 126.56016 98.00063 100.12482
#
# Poissons Ratio (x) = 0.15287 0.07441
# Poissons Ratio (y) = 0.19742 0.29434
# Poissons Ratio (z) = 0.09406 0.28810
#
# Static dielectric constant tensor:
#      x y z
#    x 1.767830 0.000000 0.000000 
#    y 0.000000 1.726110 0.000000 
#    z 0.000000 0.000000 0.222890 
# 
# From -- ./inp_files/29822.got.cif
#   From: 2010.05.17/outbox.cif.g08.bks.cpg/sg69_15_cif.got.tgz:29822.got - 2010.06.03 19:29:58.
