data_PCOD9512153
_publ_section_title
;
Structure prediction by ZEFSAII (Michael W. Deem and Ramdas Pophale) SiO2 
 PCOD9512153
Probable space group: F M M M
;
_chemical_formula_sum "Si O2"
_cell_formula_units_Z 160
_cell_length_a 8.696094
_cell_length_b 30.413324
_cell_length_c 30.819046
_cell_angle_alpha 90.000000
_cell_angle_beta 90.000000
_cell_angle_gamma 90.000000
_cell_volume 8150.932661
_symmetry_space_group_name_H-M "F M M M"
_symmetry_group_IT_number 69
_symmetry_cell_setting 'orthorhombic'
loop_
_space_group_symop_operation_xyz
x,y,z
-x,-y,z
x,-y,-z
-x,y,-z
-x,-y,-z
x,y,-z
-x,y,z
x,-y,z
x,1/2+y,1/2+z
-x,1/2-y,1/2+z
x,1/2-y,1/2-z
-x,1/2+y,1/2-z
-x,1/2-y,1/2-z
x,1/2+y,1/2-z
-x,1/2+y,1/2+z
x,1/2-y,1/2+z
1/2+x,y,1/2+z
1/2-x,-y,1/2+z
1/2+x,-y,1/2-z
1/2-x,y,1/2-z
1/2-x,-y,1/2-z
1/2+x,y,1/2-z
1/2-x,y,1/2+z
1/2+x,-y,1/2+z
1/2+x,1/2+y,z
1/2-x,1/2-y,z
1/2+x,1/2-y,-z
1/2-x,1/2+y,-z
1/2-x,1/2-y,-z
1/2+x,1/2+y,-z
1/2-x,1/2+y,z
1/2+x,1/2-y,z
loop_
_atom_site_type_symbol
_atom_site_label
_atom_site_fract_x
_atom_site_fract_y
_atom_site_fract_z
Si Si1 0.317029 0.662363 0.591169
Si Si2 0.320119 0.428437 0.116689
Si Si3 0.819532 0.796530 0.680998
Si Si4 0.685086 0.896372 0.203915
Si Si5 0.316449 0.297877 0.500000
Si Si6 0.184789 0.000000 0.551261
O O1 0.500000 0.649811 0.591927
O O2 0.212696 0.621150 0.602042
O O3 0.299312 0.698310 0.628969
O O4 0.272096 0.678551 0.544092
O O5 0.500000 0.438619 0.119779
O O6 0.244972 0.427032 0.164706
O O7 0.244088 0.459046 0.080014
O O8 0.750000 0.750000 0.695660
O O9 0.763413 0.844653 0.697741
O O10 0.000000 0.794832 0.690986
O O11 0.500000 0.896267 0.202864
O O12 0.750000 0.911117 0.250000
O O13 0.500000 0.295572 0.500000
O O14 0.250000 0.250000 0.500000
O O15 0.234316 0.000000 0.500000
O O16 0.000000 0.000000 0.550930
#
# Coordination Sequence:
#
# PCOD9512153 Si02
#       6
#    32  32  32  32  16  16
#     4   9  19  35  52  75 110 155 199 241 296 359
#     4  11  23  40  63  92 123 154 193 245 297 352
#     4   9  18  31  49  74 110 152 199 250 297 348
#     4  10  21  39  61  87 120 160 204 247 300 360
#     4  10  20  32  50  75 108 149 198 248 295 350
#     4  11  25  45  70  95 124 161 195 235 293 357
#
# _framework density 19.629655
#
# number of rings (size 3 to 8) (size 9 to 14) (size 15 to 20)
#    0.000    2.100    0.000    4.500    1.400    6.000 
#    0.000    2.500    0.000    0.000    0.000    0.000 
#    0.000    0.000    0.000    0.000    0.000    0.000 
#
# Total GULP energy -223054.586677 kJ/mol
# GULP energy per Si atom -5576.364667 kJ/mol
# Density = 1.958498 g / cm^3
# Si number density = 19.629655 Si / 1000 Ang^3
#
#
#
# Elastic Constant Matrix: (Units=GPa)
#
#
# Indices 1 2 3 4 5 6 
#
# 1 62.6774 31.5478 48.5806 0.0000 0.0000 0.0000
# 2 31.5478 55.5841 31.5732 0.0000 0.0000 0.0000
# 3 48.5806 31.5732 171.1881 0.0000 0.0000 0.0000
# 4 0.0000 0.0000 0.0000 6.7445 0.0000 0.0000
# 5 0.0000 0.0000 0.0000 0.0000 26.9369 0.0000
# 6 0.0000 0.0000 0.0000 0.0000 0.0000 24.0115
#
#
#
# Elastic Compliance Matrix: (Units=1/GPa)
#
#
# Indices 1 2 3 4 5 6 
#
# 1 0.025881 -0.011748 -0.005178 0.000000 0.000000 0.000000
# 2 -0.011748 0.025429 -0.001356 0.000000 0.000000 0.000000
# 3 -0.005178 -0.001356 0.007561 0.000000 0.000000 0.000000
# 4 0.000000 0.000000 0.000000 0.148269 0.000000 0.000000
# 5 0.000000 0.000000 0.000000 0.000000 0.037124 0.000000
# 6 0.000000 0.000000 0.000000 0.000000 0.000000 0.041647
#
#
# Mechanical properties :
#
#
# Convention : Reuss Voigt Hill
#
# Bulk Modulus (GPa) = 44.82913 56.98365 50.90639
# Shear Modulus (GPa) = 15.15562 23.38845 19.27204
#
# Velocity S-wave (km/s) = 2.78164 3.45554 3.13674
# Velocity P-wave (km/s) = 5.76227 6.70920 6.25368
#
# Compressibility (1/GPa) = 0.02230692
#
# Stress axis : x y z
#
# Youngs Moduli (GPa) = 38.63779 39.32529 132.25675
#
# Poissons Ratio (x) = 0.46200 0.68482
# Poissons Ratio (y) = 0.45393 0.17934
# Poissons Ratio (z) = 0.20006 0.05333
#
# Static dielectric constant tensor:
#      x y z
#    x 1.675100 0.000000 0.000000 
#    y 0.000000 1.689980 0.000000 
#    z 0.000000 0.000000 1.734660 
# 
# From -- ./inp_files/44631.got.cif
#   From: 2010.05.17/outbox.cif.g08.bks.cpg/sg69_23_cif.got.tgz:44631.got - 2010.06.03 19:29:58.
