data_PCOD9512488
_publ_section_title
;
Structure prediction by ZEFSAII (Michael W. Deem and Ramdas Pophale) SiO2 
 PCOD9512488
Probable space group: F M M M
;
_chemical_formula_sum "Si O2"
_cell_formula_units_Z 168
_cell_length_a 13.614759
_cell_length_b 19.753407
_cell_length_c 31.418127
_cell_angle_alpha 90.000000
_cell_angle_beta 90.000000
_cell_angle_gamma 90.000000
_cell_volume 8449.524335
_symmetry_space_group_name_H-M "F M M M"
_symmetry_group_IT_number 69
_symmetry_cell_setting 'orthorhombic'
loop_
_space_group_symop_operation_xyz
x,y,z
-x,-y,z
x,-y,-z
-x,y,-z
-x,-y,-z
x,y,-z
-x,y,z
x,-y,z
x,1/2+y,1/2+z
-x,1/2-y,1/2+z
x,1/2-y,1/2-z
-x,1/2+y,1/2-z
-x,1/2-y,1/2-z
x,1/2+y,1/2-z
-x,1/2+y,1/2+z
x,1/2-y,1/2+z
1/2+x,y,1/2+z
1/2-x,-y,1/2+z
1/2+x,-y,1/2-z
1/2-x,y,1/2-z
1/2-x,-y,1/2-z
1/2+x,y,1/2-z
1/2-x,y,1/2+z
1/2+x,-y,1/2+z
1/2+x,1/2+y,z
1/2-x,1/2-y,z
1/2+x,1/2-y,-z
1/2-x,1/2+y,-z
1/2-x,1/2-y,-z
1/2+x,1/2+y,-z
1/2-x,1/2+y,z
1/2+x,1/2-y,z
loop_
_atom_site_type_symbol
_atom_site_label
_atom_site_fract_x
_atom_site_fract_y
_atom_site_fract_z
Si Si1 0.385256 0.424116 0.600888
Si Si2 0.818135 0.573837 0.366684
Si Si3 0.380560 0.135623 0.548054
Si Si4 0.113595 0.291050 0.324156
Si Si5 0.750000 0.750000 0.250000
Si Si6 0.617320 0.223641 0.911709
O O1 0.500000 0.418560 0.614643
O O2 0.376333 0.500000 0.581179
O O3 0.300475 0.422253 0.636727
O O4 0.363109 0.354129 0.575680
O O5 0.851226 0.500000 0.352645
O O6 0.840398 0.584480 0.416760
O O7 0.872335 0.635281 0.344532
O O8 0.350725 0.120682 0.500000
O O9 0.500000 0.133755 0.549941
O O10 0.346876 0.211781 0.561505
O O11 0.179272 0.288774 0.282432
O O12 0.143032 0.238533 0.362111
O O13 0.000000 0.278151 0.314266
O O14 0.500000 0.230032 0.913729
#
# Coordination Sequence:
#
# PCOD9512488 Si02
#       6
#    32  32  32  32   8  32
#     4   9  17  30  50  75 102 136 181 227 265 312
#     4  10  20  35  56  81 111 146 180 217 271 335
#     4   9  18  32  52  80 109 138 178 226 273 323
#     4  10  21  36  56  83 112 143 180 222 273 329
#     4  12  22  36  58  82 106 140 186 238 272 310
#     4   8  15  31  53  75 104 139 173 215 268 322
#
# _framework density 19.882774999999999
#
# number of rings (size 3 to 8) (size 9 to 14) (size 15 to 20)
#    0.000    2.667    0.000    3.143    0.000    4.190 
#    0.000    4.286    0.000    4.571    0.000   12.000 
#    0.000    0.000    0.000    0.000    0.000    0.000 
#
# Total GULP energy -233845.054856 kJ/mol
# GULP energy per Si atom -5567.739401 kJ/mol
# Density = 1.983752 g / cm^3
# Si number density = 19.882775 Si / 1000 Ang^3
#
#
#
# Elastic Constant Matrix: (Units=GPa)
#
#
# Indices 1 2 3 4 5 6 
#
# 1 85.2724 6.4170 16.2551 0.0000 0.0000 0.0000
# 2 6.4170 120.3956 12.1847 0.0000 0.0000 0.0000
# 3 16.2551 12.1847 84.3346 0.0000 0.0000 0.0000
# 4 0.0000 0.0000 0.0000 4.8944 0.0000 0.0000
# 5 0.0000 0.0000 0.0000 0.0000 6.6118 0.0000
# 6 0.0000 0.0000 0.0000 0.0000 0.0000 27.4959
#
#
#
# Elastic Compliance Matrix: (Units=1/GPa)
#
#
# Indices 1 2 3 4 5 6 
#
# 1 0.012195 -0.000418 -0.002290 0.000000 0.000000 0.000000
# 2 -0.000418 0.008444 -0.001139 0.000000 0.000000 0.000000
# 3 -0.002290 -0.001139 0.012464 0.000000 0.000000 0.000000
# 4 0.000000 0.000000 0.000000 0.204316 0.000000 0.000000
# 5 0.000000 0.000000 0.000000 0.000000 0.151244 0.000000
# 6 0.000000 0.000000 0.000000 0.000000 0.000000 0.036369
#
#
# Mechanical properties :
#
#
# Convention : Reuss Voigt Hill
#
# Bulk Modulus (GPa) = 39.35936 39.96845 39.66391
# Shear Modulus (GPa) = 11.33284 24.81015 18.07149
#
# Velocity S-wave (km/s) = 2.39002 3.53628 3.01807
# Velocity P-wave (km/s) = 5.23975 6.06790 5.66897
#
# Compressibility (1/GPa) = 0.02540692
#
# Stress axis : x y z
#
# Youngs Moduli (GPa) = 81.99980 118.43361 80.23394
#
# Poissons Ratio (x) = 0.04953 0.18375
# Poissons Ratio (y) = 0.03429 0.09141
# Poissons Ratio (z) = 0.18779 0.13493
#
# Static dielectric constant tensor:
#      x y z
#    x 1.811700 0.000000 0.000000 
#    y 0.000000 1.716720 0.000000 
#    z 0.000000 0.000000 1.668400 
# 
# From -- ./inp_files/45782.got.cif
#   From: 2010.05.17/outbox.cif.g08.bks.cpg/sg69_23_cif.got.tgz:45782.got - 2010.06.03 19:29:58.
