data_PCOD9512273
_publ_section_title
;
Structure prediction by ZEFSAII (Michael W. Deem and Ramdas Pophale) SiO2 
 PCOD9512273
Probable space group: F M M M
;
_chemical_formula_sum "Si O2"
_cell_formula_units_Z 160
_cell_length_a 14.751775
_cell_length_b 33.723251
_cell_length_c 19.676894
_cell_angle_alpha 90.000000
_cell_angle_beta 90.000000
_cell_angle_gamma 90.000000
_cell_volume 9788.818155
_symmetry_space_group_name_H-M "F M M M"
_symmetry_group_IT_number 69
_symmetry_cell_setting 'orthorhombic'
loop_
_space_group_symop_operation_xyz
x,y,z
-x,-y,z
x,-y,-z
-x,y,-z
-x,-y,-z
x,y,-z
-x,y,z
x,-y,z
x,1/2+y,1/2+z
-x,1/2-y,1/2+z
x,1/2-y,1/2-z
-x,1/2+y,1/2-z
-x,1/2-y,1/2-z
x,1/2+y,1/2-z
-x,1/2+y,1/2+z
x,1/2-y,1/2+z
1/2+x,y,1/2+z
1/2-x,-y,1/2+z
1/2+x,-y,1/2-z
1/2-x,y,1/2-z
1/2-x,-y,1/2-z
1/2+x,y,1/2-z
1/2-x,y,1/2+z
1/2+x,-y,1/2+z
1/2+x,1/2+y,z
1/2-x,1/2-y,z
1/2+x,1/2-y,-z
1/2-x,1/2+y,-z
1/2-x,1/2-y,-z
1/2+x,1/2+y,-z
1/2-x,1/2+y,z
1/2+x,1/2-y,z
loop_
_atom_site_type_symbol
_atom_site_label
_atom_site_fract_x
_atom_site_fract_y
_atom_site_fract_z
Si Si1 0.500000 0.907304 0.301632
Si Si2 0.853467 0.752963 0.832581
Si Si3 0.813978 0.453375 0.686978
Si Si4 0.500000 0.099456 0.861753
Si Si5 0.341447 0.545454 0.580607
Si Si6 0.500000 0.810320 0.156155
Si Si7 0.500000 0.182967 0.678778
O O1 0.592385 0.930183 0.318872
O O2 0.500000 0.904099 0.219679
O O3 0.500000 0.863639 0.334804
O O4 0.852155 0.750000 0.750000
O O5 0.750000 0.750000 0.855999
O O6 0.912285 0.716208 0.859826
O O7 0.911406 0.792860 0.846416
O O8 0.833476 0.500000 0.698918
O O9 0.750000 0.439805 0.750000
O O10 0.752700 0.449445 0.620086
O O11 0.586658 0.076748 0.891436
O O12 0.500000 0.146372 0.876096
O O13 0.331819 0.549363 0.500000
O O14 0.372667 0.500000 0.595139
O O15 0.500000 0.814196 0.238634
#
# Coordination Sequence:
#
# PCOD9512273 Si02
#       7
#    16  32  32  16  32  16  16
#     4  11  20  31  48  77 107 133 166 214 269 308
#     4   8  13  25  40  56  87 134 164 190 241 303
#     4  10  20  34  51  72 102 138 174 213 258 309
#     4  11  19  29  49  76 105 133 164 215 265 310
#     4  10  21  36  52  72 101 139 181 218 257 308
#     4   8  16  25  37  63  95 122 163 199 242 303
#     4   8  16  26  37  63  98 125 162 202 240 306
#
# _framework density 16.345181
#
# number of rings (size 3 to 8) (size 9 to 14) (size 15 to 20)
#    0.000    2.600    2.000    2.100    0.000    3.200 
#    3.600    0.500    0.000    2.400    0.000    0.000 
#    0.000   35.200    0.000    0.000    0.000    0.000 
#
# Total GULP energy -222821.942538 kJ/mol
# GULP energy per Si atom -5570.548563 kJ/mol
# Density = 1.630798 g / cm^3
# Si number density = 16.345181 Si / 1000 Ang^3
#
#
#
# Elastic Constant Matrix: (Units=GPa)
#
#
# Indices 1 2 3 4 5 6 
#
# 1 163.6391 104.1094 23.3510 0.0000 0.0000 0.0000
# 2 104.1094 149.1433 34.7452 0.0000 0.0000 0.0000
# 3 23.3510 34.7452 35.3358 0.0000 0.0000 0.0000
# 4 0.0000 0.0000 0.0000 11.2197 0.0000 0.0000
# 5 0.0000 0.0000 0.0000 0.0000 -744.6511 0.0000
# 6 0.0000 0.0000 0.0000 0.0000 0.0000 -6.6749
#
#
#
# Elastic Compliance Matrix: (Units=1/GPa)
#
#
# Indices 1 2 3 4 5 6 
#
# 1 0.010997 -0.007761 0.000364 0.000000 0.000000 0.000000
# 2 -0.007761 0.014175 -0.008809 0.000000 0.000000 0.000000
# 3 0.000364 -0.008809 0.036721 0.000000 0.000000 0.000000
# 4 0.000000 0.000000 0.000000 0.089129 0.000000 0.000000
# 5 0.000000 0.000000 0.000000 0.000000 -0.001343 0.000000
# 6 0.000000 0.000000 0.000000 0.000000 0.000000 -0.149815
#
#
# Mechanical properties :
#
#
# Convention : Reuss Voigt Hill
#
# Bulk Modulus (GPa) = 33.92031 74.72551 54.32291
# Shear Modulus (GPa) = 118.75843 -135.62708 -8.43433
#
# Velocity S-wave (km/s) = 8.53313 -9.11904 -2.27406
# Velocity P-wave (km/s) = 10.85740 8.06595 5.13925
#
# Compressibility (1/GPa) = 0.02948086
#
# Stress axis : x y z
#
# Youngs Moduli (GPa) = 90.93566 70.54734 27.23245
#
# Poissons Ratio (x) = 0.54753 -0.00992
# Poissons Ratio (y) = 0.70577 0.23989
# Poissons Ratio (z) = -0.03314 0.62146
#
# Static dielectric constant tensor:
#      x y z
#    x 1.537420 0.000000 0.000000 
#    y 0.000000 1.559450 0.000000 
#    z 0.000000 0.000000 1.530970 
# 
# From -- ./inp_files/21919.got.cif
#   From: 2010.05.17/outbox.cif.g08.bks.cpg/sg69_11_cif.got.tgz:21919.got - 2010.06.03 19:29:58.
