data_PCOD9512104
_publ_section_title
;
Structure prediction by ZEFSAII (Michael W. Deem and Ramdas Pophale) SiO2 
 PCOD9512104
Probable space group: F M M M
;
_chemical_formula_sum "Si O2"
_cell_formula_units_Z 192
_cell_length_a 15.296955
_cell_length_b 28.803494
_cell_length_c 25.263258
_cell_angle_alpha 90.000000
_cell_angle_beta 90.000000
_cell_angle_gamma 90.000000
_cell_volume 11131.136778
_symmetry_space_group_name_H-M "F M M M"
_symmetry_group_IT_number 69
_symmetry_cell_setting 'orthorhombic'
loop_
_space_group_symop_operation_xyz
x,y,z
-x,-y,z
x,-y,-z
-x,y,-z
-x,-y,-z
x,y,-z
-x,y,z
x,-y,z
x,1/2+y,1/2+z
-x,1/2-y,1/2+z
x,1/2-y,1/2-z
-x,1/2+y,1/2-z
-x,1/2-y,1/2-z
x,1/2+y,1/2-z
-x,1/2+y,1/2+z
x,1/2-y,1/2+z
1/2+x,y,1/2+z
1/2-x,-y,1/2+z
1/2+x,-y,1/2-z
1/2-x,y,1/2-z
1/2-x,-y,1/2-z
1/2+x,y,1/2-z
1/2-x,y,1/2+z
1/2+x,-y,1/2+z
1/2+x,1/2+y,z
1/2-x,1/2-y,z
1/2+x,1/2-y,-z
1/2-x,1/2+y,-z
1/2-x,1/2-y,-z
1/2+x,1/2+y,-z
1/2-x,1/2+y,z
1/2+x,1/2-y,z
loop_
_atom_site_type_symbol
_atom_site_label
_atom_site_fract_x
_atom_site_fract_y
_atom_site_fract_z
Si Si1 0.249612 0.858791 0.877770
Si Si2 0.318444 0.783438 0.560536
Si Si3 0.604269 0.691895 0.192850
Si Si4 0.500000 0.579704 0.063541
Si Si5 0.103432 0.697865 0.816758
Si Si6 0.303258 0.053580 0.563667
Si Si7 0.000000 0.812670 0.064481
O O1 0.223020 0.833622 0.932948
O O2 0.170755 0.841499 0.839033
O O3 0.336102 0.834729 0.853674
O O4 0.247242 0.912093 0.895961
O O5 0.328327 0.769247 0.500000
O O6 0.250000 0.750000 0.587525
O O7 0.414896 0.785921 0.582349
O O8 0.500000 0.684986 0.182212
O O9 0.615943 0.683019 0.255577
O O10 0.625112 0.746829 0.184055
O O11 0.406707 0.558315 0.078582
O O12 0.500000 0.633702 0.079529
O O13 0.500000 0.577703 0.000000
O O14 0.000000 0.693766 0.829818
O O15 0.295291 0.065022 0.500000
O O16 0.277043 0.000000 0.569414
O O17 0.000000 0.813472 0.000000
#
# Coordination Sequence:
#
# PCOD9512104 Si02
#       7
#    32  32  32  16  32  32  16
#     4  12  20  30  53  78  99 136 175 216 254 309
#     4  10  20  31  43  67 103 139 169 200 245 305
#     4   9  19  33  54  80 109 139 170 212 258 309
#     4   9  15  30  51  68  96 134 167 205 260 318
#     4   9  19  37  53  75 108 140 177 216 254 300
#     4  10  21  35  52  76 106 137 171 216 269 321
#     4   9  16  29  46  63  96 138 166 197 245 301
#
# _framework density 17.248913000000002
#
# number of rings (size 3 to 8) (size 9 to 14) (size 15 to 20)
#    0.000    2.167    1.667    3.750    2.333    2.333 
#    1.500    0.000    0.000    4.000    0.000    3.500 
#    0.000    0.000    0.000    0.000    0.000    0.000 
#
# Total GULP energy -267269.827704 kJ/mol
# GULP energy per Si atom -5568.121410 kJ/mol
# Density = 1.720965 g / cm^3
# Si number density = 17.248913 Si / 1000 Ang^3
#
#
#
# Elastic Constant Matrix: (Units=GPa)
#
#
# Indices 1 2 3 4 5 6 
#
# 1 103.2613 51.1377 36.1017 0.0000 0.0000 0.0000
# 2 51.1377 97.7160 34.6626 0.0000 0.0000 0.0000
# 3 36.1017 34.6626 65.7103 0.0000 0.0000 0.0000
# 4 0.0000 0.0000 0.0000 26.8395 0.0000 0.0000
# 5 0.0000 0.0000 0.0000 0.0000 19.1542 0.0000
# 6 0.0000 0.0000 0.0000 0.0000 0.0000 15.6207
#
#
#
# Elastic Compliance Matrix: (Units=1/GPa)
#
#
# Indices 1 2 3 4 5 6 
#
# 1 0.014193 -0.005734 -0.004773 0.000000 0.000000 0.000000
# 2 -0.005734 0.014906 -0.004713 0.000000 0.000000 0.000000
# 3 -0.004773 -0.004713 0.020326 0.000000 0.000000 0.000000
# 4 0.000000 0.000000 0.000000 0.037258 0.000000 0.000000
# 5 0.000000 0.000000 0.000000 0.000000 0.052208 0.000000
# 6 0.000000 0.000000 0.000000 0.000000 0.000000 0.064018
#
#
# Mechanical properties :
#
#
# Convention : Reuss Voigt Hill
#
# Bulk Modulus (GPa) = 52.67034 56.72126 54.69580
# Shear Modulus (GPa) = 20.86138 21.97527 21.41833
#
# Velocity S-wave (km/s) = 3.48146 3.57320 3.52763
# Velocity P-wave (km/s) = 6.83831 7.06958 6.95491
#
# Compressibility (1/GPa) = 0.01898602
#
# Stress axis : x y z
#
# Youngs Moduli (GPa) = 70.45941 67.08498 49.19723
#
# Poissons Ratio (x) = 0.38469 0.23480
# Poissons Ratio (y) = 0.40405 0.23185
# Poissons Ratio (z) = 0.33627 0.31615
#
# Static dielectric constant tensor:
#      x y z
#    x 1.625740 0.000000 0.000000 
#    y 0.000000 1.609750 0.000000 
#    z 0.000000 0.000000 1.643540 
# 
# From -- ./inp_files/41285.got.cif
#   From: 2010.05.17/outbox.cif.g08.bks.cpg/sg69_21_cif.got.tgz:41285.got - 2010.06.03 19:29:58.
