data_PCOD9512430
_publ_section_title
;
Structure prediction by ZEFSAII (Michael W. Deem and Ramdas Pophale) SiO2 
 PCOD9512430
Probable space group: F M M M
;
_chemical_formula_sum "Si O2"
_cell_formula_units_Z 160
_cell_length_a 30.971725
_cell_length_b 8.669042
_cell_length_c 31.027240
_cell_angle_alpha 90.000000
_cell_angle_beta 90.000000
_cell_angle_gamma 90.000000
_cell_volume 8330.664539
_symmetry_space_group_name_H-M "F M M M"
_symmetry_group_IT_number 69
_symmetry_cell_setting 'orthorhombic'
loop_
_space_group_symop_operation_xyz
x,y,z
-x,-y,z
x,-y,-z
-x,y,-z
-x,-y,-z
x,y,-z
-x,y,z
x,-y,z
x,1/2+y,1/2+z
-x,1/2-y,1/2+z
x,1/2-y,1/2-z
-x,1/2+y,1/2-z
-x,1/2-y,1/2-z
x,1/2+y,1/2-z
-x,1/2+y,1/2+z
x,1/2-y,1/2+z
1/2+x,y,1/2+z
1/2-x,-y,1/2+z
1/2+x,-y,1/2-z
1/2-x,y,1/2-z
1/2-x,-y,1/2-z
1/2+x,y,1/2-z
1/2-x,y,1/2+z
1/2+x,-y,1/2+z
1/2+x,1/2+y,z
1/2-x,1/2-y,z
1/2+x,1/2-y,-z
1/2-x,1/2+y,-z
1/2-x,1/2-y,-z
1/2+x,1/2+y,-z
1/2-x,1/2+y,z
1/2+x,1/2-y,z
loop_
_atom_site_type_symbol
_atom_site_label
_atom_site_fract_x
_atom_site_fract_y
_atom_site_fract_z
Si Si1 0.000000 0.816385 0.797523
Si Si2 0.295243 0.684414 0.108756
Si Si3 0.888147 0.813261 0.080096
Si Si4 0.323690 0.815757 0.704632
Si Si5 0.410786 0.681943 0.671913
Si Si6 0.949514 0.812875 0.000000
O O1 0.000000 0.750000 0.750000
O O2 0.957087 0.751745 0.818690
O O3 0.000000 0.000000 0.798032
O O4 0.292536 0.500000 0.110887
O O5 0.250000 0.750000 0.093260
O O6 0.336642 0.720320 0.078635
O O7 0.303277 0.738175 0.158726
O O8 0.901840 0.722931 0.122520
O O9 0.920117 0.770175 0.041280
O O10 0.891921 0.000000 0.086527
O O11 0.306466 0.750000 0.750000
O O12 0.373463 0.763985 0.699579
O O13 0.320736 0.000000 0.706108
O O14 0.409465 0.500000 0.680090
O O15 0.000000 0.759150 0.000000
O O16 0.951669 0.000000 0.000000
#
# Coordination Sequence:
#
# PCOD9512430 Si02
#       6
#    16  32  32  32  32  16
#     4  12  24  38  54  75 106 145 190 238 279 328
#     4   9  19  34  53  77 110 149 190 235 281 334
#     4   9  19  37  58  85 115 145 184 231 282 337
#     4  10  20  35  53  77 108 146 189 236 285 333
#     4  11  22  36  54  78 109 147 187 229 282 338
#     4   9  18  34  62  93 115 143 186 228 277 344
#
# _framework density 19.206150999999998
#
# number of rings (size 3 to 8) (size 9 to 14) (size 15 to 20)
#    0.000    2.100    0.000    5.100    1.400    4.400 
#    0.000    3.000    0.000    0.600    0.000    0.000 
#    0.000    0.000    0.000    0.000    0.000    0.000 
#
# Total GULP energy -223086.970372 kJ/mol
# GULP energy per Si atom -5577.174259 kJ/mol
# Density = 1.916244 g / cm^3
# Si number density = 19.206151 Si / 1000 Ang^3
#
#
#
# Elastic Constant Matrix: (Units=GPa)
#
#
# Indices 1 2 3 4 5 6 
#
# 1 154.0745 16.7688 38.8426 0.0000 0.0000 -0.0003
# 2 16.7688 34.9136 12.8294 0.0000 0.0000 -0.0003
# 3 38.8426 12.8294 70.7457 0.0000 0.0000 0.0000
# 4 0.0000 0.0000 0.0000 19.4022 0.0000 0.0000
# 5 0.0000 0.0000 0.0000 0.0000 7.1912 0.0000
# 6 -0.0003 -0.0003 0.0000 0.0000 0.0000 28.8371
#
#
#
# Elastic Compliance Matrix: (Units=1/GPa)
#
#
# Indices 1 2 3 4 5 6 
#
# 1 0.007701 -0.002298 -0.003812 0.000000 0.000000 0.000000
# 2 -0.002298 0.031373 -0.004427 0.000000 0.000000 0.000000
# 3 -0.003812 -0.004427 0.017031 0.000000 0.000000 0.000000
# 4 0.000000 0.000000 0.000000 0.051541 0.000000 0.000000
# 5 0.000000 0.000000 0.000000 0.000000 0.139059 0.000000
# 6 0.000000 0.000000 0.000000 0.000000 0.000000 0.034678
#
#
# Mechanical properties :
#
#
# Convention : Reuss Voigt Hill
#
# Bulk Modulus (GPa) = 28.54669 44.06838 36.30754
# Shear Modulus (GPa) = 15.91677 23.83896 19.87787
#
# Velocity S-wave (km/s) = 2.88190 3.52691 3.22059
# Velocity P-wave (km/s) = 5.09601 6.29128 5.72493
#
# Compressibility (1/GPa) = 0.03503033
#
# Stress axis : x y z
#
# Youngs Moduli (GPa) = 129.84600 31.87457 58.71716
#
# Poissons Ratio (x) = 0.07326 0.22381
# Poissons Ratio (y) = 0.29843 0.25997
# Poissons Ratio (z) = 0.49493 0.14112
#
# Static dielectric constant tensor:
#      x y z
#    x 1.661580 0.000000 0.000000 
#    y 0.000000 1.641640 0.000000 
#    z 0.000000 0.000000 1.679670 
# 
# From -- ./inp_files/47498.got.cif
#   From: 2010.05.17/outbox.cif.g08.bks.cpg/sg69_24_cif.got.tgz:47498.got - 2010.06.03 19:29:58.
