data_PCOD9512958
_publ_section_title
;
Structure prediction by ZEFSAII (Michael W. Deem and Ramdas Pophale) SiO2 
 PCOD9512958
Probable space group: F M M M
;
_chemical_formula_sum "Si O2"
_cell_formula_units_Z 160
_cell_length_a 17.254329
_cell_length_b 27.150259
_cell_length_c 17.188307
_cell_angle_alpha 90.000000
_cell_angle_beta 90.000000
_cell_angle_gamma 90.000000
_cell_volume 8052.025724
_symmetry_space_group_name_H-M "F M M M"
_symmetry_group_IT_number 69
_symmetry_cell_setting 'orthorhombic'
loop_
_space_group_symop_operation_xyz
x,y,z
-x,-y,z
x,-y,-z
-x,y,-z
-x,-y,-z
x,y,-z
-x,y,z
x,-y,z
x,1/2+y,1/2+z
-x,1/2-y,1/2+z
x,1/2-y,1/2-z
-x,1/2+y,1/2-z
-x,1/2-y,1/2-z
x,1/2+y,1/2-z
-x,1/2+y,1/2+z
x,1/2-y,1/2+z
1/2+x,y,1/2+z
1/2-x,-y,1/2+z
1/2+x,-y,1/2-z
1/2-x,y,1/2-z
1/2-x,-y,1/2-z
1/2+x,y,1/2-z
1/2-x,y,1/2+z
1/2+x,-y,1/2+z
1/2+x,1/2+y,z
1/2-x,1/2-y,z
1/2+x,1/2-y,-z
1/2-x,1/2+y,-z
1/2-x,1/2-y,-z
1/2+x,1/2+y,-z
1/2-x,1/2+y,z
1/2+x,1/2-y,z
loop_
_atom_site_type_symbol
_atom_site_label
_atom_site_fract_x
_atom_site_fract_y
_atom_site_fract_z
Si Si1 0.784560 0.554432 0.836822
Si Si2 0.617091 0.552939 0.092095
Si Si3 0.588579 0.261265 0.336255
Si Si4 0.809759 0.847580 0.592960
Si Si5 0.627196 0.341127 0.906877
O O1 0.821538 0.500000 0.839660
O O2 0.750000 0.560978 0.750000
O O3 0.709866 0.553208 0.894085
O O4 0.832442 0.601786 0.863386
O O5 0.589717 0.500000 0.124644
O O6 0.593409 0.606624 0.123426
O O7 0.600278 0.552341 0.000000
O O8 0.500000 0.279255 0.330475
O O9 0.618863 0.250000 0.250000
O O10 0.640545 0.301369 0.379203
O O11 0.589503 0.208683 0.378359
O O12 0.816002 0.853485 0.500000
O O13 0.718921 0.838736 0.612457
O O14 0.621256 0.343037 0.000000
#
# Coordination Sequence:
#
# PCOD9512958 Si02
#       5
#    32  32  32  32  32
#     4   9  17  28  48  82 114 140 170 211 267 325
#     4   8  14  26  46  74 107 135 160 202 260 320
#     4  11  25  39  52  73 104 146 191 234 280 326
#     4  10  21  35  56  84 110 142 182 224 275 336
#     4   9  18  33  55  81 106 135 175 220 269 329
#
# _framework density 19.870775999999999
#
# number of rings (size 3 to 8) (size 9 to 14) (size 15 to 20)
#    0.000    2.600    0.000    3.000    5.600    5.200 
#    0.000    0.000    0.000    1.200    0.000    7.000 
#    0.000    0.000    0.000    0.000    0.000    0.000 
#
# Total GULP energy -222918.363003 kJ/mol
# GULP energy per Si atom -5572.959075 kJ/mol
# Density = 1.982555 g / cm^3
# Si number density = 19.870776 Si / 1000 Ang^3
#
#
#
# Elastic Constant Matrix: (Units=GPa)
#
#
# Indices 1 2 3 4 5 6 
#
# 1 33.6894 37.1827 21.1742 0.0000 0.0000 0.0000
# 2 37.1827 204.4069 40.5736 0.0000 0.0000 0.0000
# 3 21.1742 40.5736 36.5009 0.0000 0.0000 0.0000
# 4 0.0000 0.0000 0.0000 25.5801 0.0000 0.0000
# 5 0.0000 0.0000 0.0000 0.0000 30.3922 0.0000
# 6 0.0000 0.0000 0.0000 0.0000 0.0000 -24.5369
#
#
#
# Elastic Compliance Matrix: (Units=1/GPa)
#
#
# Indices 1 2 3 4 5 6 
#
# 1 0.049414 -0.004233 -0.023960 0.000000 0.000000 0.000000
# 2 -0.004233 0.006640 -0.004925 0.000000 0.000000 0.000000
# 3 -0.023960 -0.004925 0.046771 0.000000 0.000000 0.000000
# 4 0.000000 0.000000 0.000000 0.039093 0.000000 0.000000
# 5 0.000000 0.000000 0.000000 0.000000 0.032903 0.000000
# 6 0.000000 0.000000 0.000000 0.000000 0.000000 -0.040755
#
#
# Mechanical properties :
#
#
# Convention : Reuss Voigt Hill
#
# Bulk Modulus (GPa) = 27.33119 52.49534 39.91327
# Shear Modulus (GPa) = 23.52976 17.99819 20.76398
#
# Velocity S-wave (km/s) = 3.44487 3.01285 3.23608
# Velocity P-wave (km/s) = 5.44124 6.21118 5.83892
#
# Compressibility (1/GPa) = 0.03658823
#
# Stress axis : x y z
#
# Youngs Moduli (GPa) = 20.23737 150.60735 21.38095
#
# Poissons Ratio (x) = 0.63747 0.51229
# Poissons Ratio (y) = 0.08566 0.10531
# Poissons Ratio (z) = 0.48489 0.74178
#
# Static dielectric constant tensor:
#      x y z
#    x 1.689270 0.000000 0.000000 
#    y 0.000000 1.782710 0.000000 
#    z 0.000000 0.000000 1.700140 
# 
# From -- ./inp_files/23168.got.cif
#   From: 2010.05.17/outbox.cif.g08.bks.cpg/sg69_12_cif.got.tgz:23168.got - 2010.06.03 19:29:58.
