data_PCOD9512313
_publ_section_title
;
Structure prediction by ZEFSAII (Michael W. Deem and Ramdas Pophale) SiO2 
 PCOD9512313
Probable space group: F M M M
;
_chemical_formula_sum "Si O2"
_cell_formula_units_Z 128
_cell_length_a 8.933033
_cell_length_b 35.073275
_cell_length_c 26.021183
_cell_angle_alpha 90.000000
_cell_angle_beta 90.000000
_cell_angle_gamma 90.000000
_cell_volume 8152.715659
_symmetry_space_group_name_H-M "F M M M"
_symmetry_group_IT_number 69
_symmetry_cell_setting 'orthorhombic'
loop_
_space_group_symop_operation_xyz
x,y,z
-x,-y,z
x,-y,-z
-x,y,-z
-x,-y,-z
x,y,-z
-x,y,z
x,-y,z
x,1/2+y,1/2+z
-x,1/2-y,1/2+z
x,1/2-y,1/2-z
-x,1/2+y,1/2-z
-x,1/2-y,1/2-z
x,1/2+y,1/2-z
-x,1/2+y,1/2+z
x,1/2-y,1/2+z
1/2+x,y,1/2+z
1/2-x,-y,1/2+z
1/2+x,-y,1/2-z
1/2-x,y,1/2-z
1/2-x,-y,1/2-z
1/2+x,y,1/2-z
1/2-x,y,1/2+z
1/2+x,-y,1/2+z
1/2+x,1/2+y,z
1/2-x,1/2-y,z
1/2+x,1/2-y,-z
1/2-x,1/2+y,-z
1/2-x,1/2-y,-z
1/2+x,1/2+y,-z
1/2-x,1/2+y,z
1/2+x,1/2-y,z
loop_
_atom_site_type_symbol
_atom_site_label
_atom_site_fract_x
_atom_site_fract_y
_atom_site_fract_z
Si Si1 0.174680 0.000000 0.937792
Si Si2 0.679840 0.661651 0.406037
Si Si3 0.820858 0.708653 0.195802
Si Si4 0.320769 0.078463 0.060363
Si Si5 0.679001 0.792017 0.500000
O O1 0.248603 0.039398 0.919922
O O2 0.000000 0.000000 0.926169
O O3 0.193540 0.000000 0.000000
O O4 0.500000 0.664282 0.415467
O O5 0.710716 0.679967 0.350728
O O6 0.721801 0.617207 0.410694
O O7 0.763083 0.685324 0.450078
O O8 0.750000 0.696311 0.250000
O O9 0.750000 0.750000 0.183766
O O10 0.000000 0.712584 0.201101
O O11 0.500000 0.074385 0.062509
O O12 0.279836 0.083589 0.000000
O O13 0.500000 0.789483 0.500000
O O14 0.750000 0.750000 0.500000
#
# Coordination Sequence:
#
# PCOD9512313 Si02
#       5
#    16  32  32  32  16
#     4   9  17  27  41  65  98 127 158 195 232 278
#     4  10  20  35  52  72  98 129 164 203 243 291
#     4  10  20  34  53  72  95 125 163 207 249 287
#     4   9  16  29  48  67  93 128 162 193 232 286
#     4  12  24  34  48  69  98 133 164 198 241 292
#
# _framework density 15.700290000000001
#
# number of rings (size 3 to 8) (size 9 to 14) (size 15 to 20)
#    0.000    2.125    1.250    3.750    0.000    6.500 
#    0.000    0.000    0.000    0.000    0.000    0.875 
#    0.000    0.000    0.000    0.000    0.000    0.000 
#
# Total GULP energy -178514.611949 kJ/mol
# GULP energy per Si atom -5578.581623 kJ/mol
# Density = 1.566456 g / cm^3
# Si number density = 15.700290 Si / 1000 Ang^3
#
#
#
# Elastic Constant Matrix: (Units=GPa)
#
#
# Indices 1 2 3 4 5 6 
#
# 1 58.1580 69.4093 51.0392 0.0000 0.0000 0.0000
# 2 69.4093 172.0038 83.1099 0.0000 0.0000 0.0000
# 3 51.0392 83.1099 91.7831 0.0000 0.0000 0.0000
# 4 0.0000 0.0000 0.0000 13.0034 0.0000 0.0000
# 5 0.0000 0.0000 0.0000 0.0000 18.0322 0.0000
# 6 0.0000 0.0000 0.0000 0.0000 0.0000 19.9829
#
#
#
# Elastic Compliance Matrix: (Units=1/GPa)
#
#
# Indices 1 2 3 4 5 6 
#
# 1 0.041295 -0.009900 -0.014000 0.000000 0.000000 0.000000
# 2 -0.009900 0.012709 -0.006003 0.000000 0.000000 0.000000
# 3 -0.014000 -0.006003 0.024116 0.000000 0.000000 0.000000
# 4 0.000000 0.000000 0.000000 0.076903 0.000000 0.000000
# 5 0.000000 0.000000 0.000000 0.000000 0.055456 0.000000
# 6 0.000000 0.000000 0.000000 0.000000 0.000000 0.050043
#
#
# Mechanical properties :
#
#
# Convention : Reuss Voigt Hill
#
# Bulk Modulus (GPa) = 54.59748 81.00686 67.80217
# Shear Modulus (GPa) = 15.31705 18.09613 16.70659
#
# Velocity S-wave (km/s) = 3.12683 3.39868 3.26559
# Velocity P-wave (km/s) = 6.92000 8.19202 7.58273
#
# Compressibility (1/GPa) = 0.01831586
#
# Stress axis : x y z
#
# Youngs Moduli (GPa) = 24.21584 78.68183 41.46582
#
# Poissons Ratio (x) = 0.77892 0.58050
# Poissons Ratio (y) = 0.23973 0.24893
# Poissons Ratio (z) = 0.33901 0.47236
#
# Static dielectric constant tensor:
#      x y z
#    x 1.525590 0.000000 0.000000 
#    y 0.000000 1.521740 0.000000 
#    z 0.000000 0.000000 1.502990 
# 
# From -- ./inp_files/4774.got.cif
#   From: 2010.05.17/outbox.cif.g08.bks.cpg/sg69_3_cif.got.tgz:4774.got - 2010.06.03 19:29:58.
