data_PCOD9512298
_publ_section_title
;
Structure prediction by ZEFSAII (Michael W. Deem and Ramdas Pophale) SiO2 
 PCOD9512298
Probable space group: F M M M
;
_chemical_formula_sum "Si O2"
_cell_formula_units_Z 240
_cell_length_a 29.803078
_cell_length_b 14.317489
_cell_length_c 28.996158
_cell_angle_alpha 90.000000
_cell_angle_beta 90.000000
_cell_angle_gamma 90.000000
_cell_volume 12372.812600
_symmetry_space_group_name_H-M "F M M M"
_symmetry_group_IT_number 69
_symmetry_cell_setting 'orthorhombic'
loop_
_space_group_symop_operation_xyz
x,y,z
-x,-y,z
x,-y,-z
-x,y,-z
-x,-y,-z
x,y,-z
-x,y,z
x,-y,z
x,1/2+y,1/2+z
-x,1/2-y,1/2+z
x,1/2-y,1/2-z
-x,1/2+y,1/2-z
-x,1/2-y,1/2-z
x,1/2+y,1/2-z
-x,1/2+y,1/2+z
x,1/2-y,1/2+z
1/2+x,y,1/2+z
1/2-x,-y,1/2+z
1/2+x,-y,1/2-z
1/2-x,y,1/2-z
1/2-x,-y,1/2-z
1/2+x,y,1/2-z
1/2-x,y,1/2+z
1/2+x,-y,1/2+z
1/2+x,1/2+y,z
1/2-x,1/2-y,z
1/2+x,1/2-y,-z
1/2-x,1/2+y,-z
1/2-x,1/2-y,-z
1/2+x,1/2+y,-z
1/2-x,1/2+y,z
1/2+x,1/2-y,z
loop_
_atom_site_type_symbol
_atom_site_label
_atom_site_fract_x
_atom_site_fract_y
_atom_site_fract_z
Si Si1 0.914915 0.214041 0.088722
Si Si2 0.621651 0.613343 0.820050
Si Si3 0.189594 0.609783 0.878310
Si Si4 0.911838 0.889780 0.643664
Si Si5 0.550719 0.113141 0.243323
Si Si6 0.213761 0.888118 0.140218
Si Si7 0.818483 0.727042 0.447420
Si Si8 0.500000 0.103890 0.554541
O O1 0.899594 0.160324 0.134959
O O2 0.926246 0.319938 0.103368
O O3 0.872010 0.212840 0.055526
O O4 0.956536 0.160096 0.069030
O O5 0.619168 0.500000 0.822585
O O6 0.590804 0.643515 0.777161
O O7 0.674546 0.639483 0.823866
O O8 0.191629 0.500000 0.889118
O O9 0.142195 0.625534 0.852809
O O10 0.234339 0.635376 0.849834
O O11 0.189867 0.671734 0.924469
O O12 0.936711 0.863607 0.690805
O O13 0.919131 0.000000 0.634652
O O14 0.500000 0.143852 0.255664
O O15 0.550354 0.000000 0.245413
O O16 0.202503 0.843116 0.090400
O O17 0.211016 0.000000 0.136201
O O18 0.802989 0.717473 0.500000
O O19 0.500000 0.095535 0.500000
O O20 0.500000 0.000000 0.575569
#
# Coordination Sequence:
#
# PCOD9512298 Si02
#       8
#    32  32  32  32  32  32  32  16
#     4  10  21  36  56  78 105 144 182 217 269 333
#     4   9  18  33  51  76 110 143 177 222 272 328
#     4   9  18  33  52  74 103 140 180 223 271 323
#     4   9  19  36  55  78 109 144 182 226 272 318
#     4   9  18  32  53  80 109 139 178 230 275 319
#     4   9  18  32  50  74 105 141 179 220 270 326
#     4  10  20  34  52  75 104 137 175 221 270 322
#     4  11  24  40  59  84 111 139 178 226 269 321
#
# _framework density 19.397369000000001
#
# number of rings (size 3 to 8) (size 9 to 14) (size 15 to 20)
#    0.000    2.600    0.000    1.200    1.867    2.667 
#    0.000    2.667    0.000    5.600    0.000    5.600 
#    0.000    0.000    0.000    0.000    0.000    0.400 
#
# Total GULP energy -334510.132482 kJ/mol
# GULP energy per Si atom -5575.168875 kJ/mol
# Density = 1.935322 g / cm^3
# Si number density = 19.397369 Si / 1000 Ang^3
#
#
#
# Elastic Constant Matrix: (Units=GPa)
#
#
# Indices 1 2 3 4 5 6 
#
# 1 133.1618 38.5025 30.1921 0.0000 0.0000 0.0000
# 2 38.5025 70.4730 5.7794 0.0000 0.0000 0.0000
# 3 30.1921 5.7794 40.8864 0.0000 0.0000 0.0000
# 4 0.0000 0.0000 0.0000 14.4373 0.0000 0.0000
# 5 0.0000 0.0000 0.0000 0.0000 5.1571 0.0000
# 6 0.0000 0.0000 0.0000 0.0000 0.0000 20.5013
#
#
#
# Elastic Compliance Matrix: (Units=1/GPa)
#
#
# Indices 1 2 3 4 5 6 
#
# 1 0.010634 -0.005226 -0.007114 0.000000 0.000000 0.000000
# 2 -0.005226 0.016925 0.001467 0.000000 0.000000 0.000000
# 3 -0.007114 0.001467 0.029504 0.000000 0.000000 0.000000
# 4 0.000000 0.000000 0.000000 0.069265 0.000000 0.000000
# 5 0.000000 0.000000 0.000000 0.000000 0.193909 0.000000
# 6 0.000000 0.000000 0.000000 0.000000 0.000000 0.048777
#
#
# Mechanical properties :
#
#
# Convention : Reuss Voigt Hill
#
# Bulk Modulus (GPa) = 28.31555 43.71879 36.01717
# Shear Modulus (GPa) = 12.42139 19.35561 15.88850
#
# Velocity S-wave (km/s) = 2.53329 3.16230 2.86511
# Velocity P-wave (km/s) = 4.81519 5.99341 5.43631
#
# Compressibility (1/GPa) = 0.03531628
#
# Stress axis : x y z
#
# Youngs Moduli (GPa) = 94.04096 59.08467 33.89419
#
# Poissons Ratio (x) = 0.30879 0.24111
# Poissons Ratio (y) = 0.49148 -0.04972
# Poissons Ratio (z) = 0.66897 -0.08667
#
# Static dielectric constant tensor:
#      x y z
#    x 1.719340 0.000000 0.000000 
#    y 0.000000 1.706230 0.000000 
#    z 0.000000 0.000000 1.626800 
# 
# From -- ./inp_files/47587.got.cif
#   From: 2010.05.17/outbox.cif.g08.bks.cpg/sg69_24_cif.got.tgz:47587.got - 2010.06.03 19:29:58.
