data_PCOD9512529
_publ_section_title
;
Structure prediction by ZEFSAII (Michael W. Deem and Ramdas Pophale) SiO2 
 PCOD9512529
Probable space group: F M M M
;
_chemical_formula_sum "Si O2"
_cell_formula_units_Z 240
_cell_length_a 24.128041
_cell_length_b 25.096957
_cell_length_c 22.162216
_cell_angle_alpha 90.000000
_cell_angle_beta 90.000000
_cell_angle_gamma 90.000000
_cell_volume 13420.117307
_symmetry_space_group_name_H-M "F M M M"
_symmetry_group_IT_number 69
_symmetry_cell_setting 'orthorhombic'
loop_
_space_group_symop_operation_xyz
x,y,z
-x,-y,z
x,-y,-z
-x,y,-z
-x,-y,-z
x,y,-z
-x,y,z
x,-y,z
x,1/2+y,1/2+z
-x,1/2-y,1/2+z
x,1/2-y,1/2-z
-x,1/2+y,1/2-z
-x,1/2-y,1/2-z
x,1/2+y,1/2-z
-x,1/2+y,1/2+z
x,1/2-y,1/2+z
1/2+x,y,1/2+z
1/2-x,-y,1/2+z
1/2+x,-y,1/2-z
1/2-x,y,1/2-z
1/2-x,-y,1/2-z
1/2+x,y,1/2-z
1/2-x,y,1/2+z
1/2+x,-y,1/2+z
1/2+x,1/2+y,z
1/2-x,1/2-y,z
1/2+x,1/2-y,-z
1/2-x,1/2+y,-z
1/2-x,1/2-y,-z
1/2+x,1/2+y,-z
1/2-x,1/2+y,z
1/2+x,1/2-y,z
loop_
_atom_site_type_symbol
_atom_site_label
_atom_site_fract_x
_atom_site_fract_y
_atom_site_fract_z
Si Si1 0.168026 0.754468 0.430823
Si Si2 0.936560 0.439154 0.072606
Si Si3 0.433479 0.000000 0.570523
Si Si4 0.064117 0.680017 0.568127
Si Si5 0.623264 0.594771 0.142218
Si Si6 0.316067 0.937417 0.235988
Si Si7 0.278790 0.857474 0.430925
Si Si8 0.337457 0.368076 0.381250
O O1 0.181707 0.772830 0.500000
O O2 0.107296 0.728127 0.433410
O O3 0.209432 0.705167 0.415527
O O4 0.163014 0.803835 0.385485
O O5 0.921785 0.500000 0.091807
O O6 0.892759 0.395407 0.093674
O O7 0.000000 0.428680 0.092591
O O8 0.936682 0.439099 0.000000
O O9 0.408023 0.049065 0.606265
O O10 0.500000 0.000000 0.573731
O O11 0.417876 0.000000 0.500000
O O12 0.069230 0.653880 0.500000
O O13 0.084231 0.644883 0.624919
O O14 0.000000 0.694614 0.574293
O O15 0.642602 0.578266 0.208981
O O16 0.680841 0.608500 0.109834
O O17 0.250000 0.933169 0.250000
O O18 0.327440 0.895866 0.182615
O O19 0.325846 0.000000 0.220505
O O20 0.295848 0.862145 0.500000
O O21 0.217122 0.878422 0.421527
#
# Coordination Sequence:
#
# PCOD9512529 Si02
#       8
#    32  32  16  32  32  32  32  32
#     4   9  19  34  56  89 127 154 183 240 304 357
#     4   9  19  36  55  79 113 145 183 248 309 342
#     4  11  22  36  61  96 124 150 193 244 298 363
#     4   9  18  35  61  91 123 156 187 230 297 366
#     4  11  20  38  58  82 121 159 193 241 294 349
#     4  11  24  43  59  78 114 162 203 247 291 343
#     4  10  20  35  57  88 123 152 185 243 310 357
#     4  12  21  35  61  84 109 155 205 240 281 357
#
# _framework density 17.883599
#
# number of rings (size 3 to 8) (size 9 to 14) (size 15 to 20)
#    0.000    1.800    2.000    4.800    0.000    2.667 
#    1.200    5.333    0.000    0.800    0.000    0.000 
#    0.000    0.000    0.000    0.000    0.000    0.000 
#
# Total GULP energy -334157.807538 kJ/mol
# GULP energy per Si atom -5569.296792 kJ/mol
# Density = 1.784290 g / cm^3
# Si number density = 17.883599 Si / 1000 Ang^3
#
#
#
# Elastic Constant Matrix: (Units=GPa)
#
#
# Indices 1 2 3 4 5 6 
#
# 1 98.4220 29.9263 25.8710 0.0000 0.0000 0.0000
# 2 29.9263 89.5994 58.4928 0.0000 0.0000 0.0000
# 3 25.8710 58.4928 87.7778 0.0000 0.0000 0.0000
# 4 0.0000 0.0000 0.0000 27.7371 0.0000 0.0000
# 5 0.0000 0.0000 0.0000 0.0000 26.4171 0.0000
# 6 0.0000 0.0000 0.0000 0.0000 0.0000 54.3184
#
#
#
# Elastic Compliance Matrix: (Units=1/GPa)
#
#
# Indices 1 2 3 4 5 6 
#
# 1 0.011413 -0.002860 -0.001458 0.000000 0.000000 0.000000
# 2 -0.002860 0.020471 -0.012799 0.000000 0.000000 0.000000
# 3 -0.001458 -0.012799 0.020351 0.000000 0.000000 0.000000
# 4 0.000000 0.000000 0.000000 0.036053 0.000000 0.000000
# 5 0.000000 0.000000 0.000000 0.000000 0.037854 0.000000
# 6 0.000000 0.000000 0.000000 0.000000 0.000000 0.018410
#
#
# Mechanical properties :
#
#
# Convention : Reuss Voigt Hill
#
# Bulk Modulus (GPa) = 55.54963 56.04213 55.79588
# Shear Modulus (GPa) = 27.05829 32.46179 29.76004
#
# Velocity S-wave (km/s) = 3.89398 4.26510 4.08376
# Velocity P-wave (km/s) = 7.16566 7.46056 7.31460
#
# Compressibility (1/GPa) = 0.01800192
#
# Stress axis : x y z
#
# Youngs Moduli (GPa) = 87.61755 48.84875 49.13846
#
# Poissons Ratio (x) = 0.13972 0.07163
# Poissons Ratio (y) = 0.25062 0.62890
# Poissons Ratio (z) = 0.12773 0.62519
#
# Static dielectric constant tensor:
#      x y z
#    x 1.628030 0.000000 0.000000 
#    y 0.000000 1.656810 0.000000 
#    z 0.000000 0.000000 1.593610 
# 
# From -- ./inp_files/33053.got.cif
#   From: 2010.05.17/outbox.cif.g08.bks.cpg/sg69_17_cif.got.tgz:33053.got - 2010.06.03 19:29:58.
