data_PCOD9512107
_publ_section_title
;
Structure prediction by ZEFSAII (Michael W. Deem and Ramdas Pophale) SiO2 
 PCOD9512107
Probable space group: F M M M
;
_chemical_formula_sum "Si O2"
_cell_formula_units_Z 160
_cell_length_a 20.117879
_cell_length_b 16.063073
_cell_length_c 28.790150
_cell_angle_alpha 90.000000
_cell_angle_beta 90.000000
_cell_angle_gamma 90.000000
_cell_volume 9303.679742
_symmetry_space_group_name_H-M "F M M M"
_symmetry_group_IT_number 69
_symmetry_cell_setting 'orthorhombic'
loop_
_space_group_symop_operation_xyz
x,y,z
-x,-y,z
x,-y,-z
-x,y,-z
-x,-y,-z
x,y,-z
-x,y,z
x,-y,z
x,1/2+y,1/2+z
-x,1/2-y,1/2+z
x,1/2-y,1/2-z
-x,1/2+y,1/2-z
-x,1/2-y,1/2-z
x,1/2+y,1/2-z
-x,1/2+y,1/2+z
x,1/2-y,1/2+z
1/2+x,y,1/2+z
1/2-x,-y,1/2+z
1/2+x,-y,1/2-z
1/2-x,y,1/2-z
1/2-x,-y,1/2-z
1/2+x,y,1/2-z
1/2-x,y,1/2+z
1/2+x,-y,1/2+z
1/2+x,1/2+y,z
1/2-x,1/2-y,z
1/2+x,1/2-y,-z
1/2-x,1/2+y,-z
1/2-x,1/2-y,-z
1/2+x,1/2+y,-z
1/2-x,1/2+y,z
1/2+x,1/2-y,z
loop_
_atom_site_type_symbol
_atom_site_label
_atom_site_fract_x
_atom_site_fract_y
_atom_site_fract_z
Si Si1 0.424852 0.649748 0.246732
Si Si2 0.713785 0.000000 0.947865
Si Si3 0.289898 0.401342 0.796629
Si Si4 0.925642 0.846983 0.647147
Si Si5 0.431157 0.500000 0.422951
Si Si6 0.780973 0.668289 0.886707
O O1 0.500000 0.627677 0.232258
O O2 0.420175 0.750000 0.250000
O O3 0.367043 0.616665 0.213947
O O4 0.415200 0.621365 0.300151
O O5 0.725841 0.085043 0.918372
O O6 0.634365 0.000000 0.952137
O O7 0.743377 0.000000 0.000000
O O8 0.279914 0.500000 0.804129
O O9 0.250000 0.377270 0.750000
O O10 0.259869 0.352662 0.839955
O O11 0.930462 0.922246 0.611503
O O12 0.856300 0.807837 0.629735
O O13 0.000000 0.804879 0.647363
O O14 0.500000 0.500000 0.449336
O O15 0.750000 0.750000 0.909917
#
# Coordination Sequence:
#
# PCOD9512107 Si02
#       6
#    32  16  32  32  16  32
#     4  10  20  31  45  69 103 145 188 224 260 299
#     4  10  22  39  56  80 110 131 172 235 283 332
#     4  11  22  32  49  77 111 146 184 220 253 314
#     4   9  17  30  48  72 106 140 176 216 259 318
#     4   8  16  29  51  77 100 131 160 201 274 335
#     4  11  21  36  57  80 107 146 186 219 274 332
#
# _framework density 17.197496000000001
#
# number of rings (size 3 to 8) (size 9 to 14) (size 15 to 20)
#    0.000    2.000    3.000    1.200    1.400    1.000 
#    0.000    0.000    0.000    0.000    0.000    0.000 
#    0.000    5.600    0.000    0.000    0.000    0.000 
#
# Total GULP energy -222686.026059 kJ/mol
# GULP energy per Si atom -5567.150651 kJ/mol
# Density = 1.715835 g / cm^3
# Si number density = 17.197496 Si / 1000 Ang^3
#
#
#
# Elastic Constant Matrix: (Units=GPa)
#
#
# Indices 1 2 3 4 5 6 
#
# 1 112.3750 27.5360 25.9672 0.0000 0.0000 0.0000
# 2 27.5360 67.6396 32.0644 0.0000 0.0000 0.0000
# 3 25.9672 32.0644 84.8753 0.0000 0.0000 0.0000
# 4 0.0000 0.0000 0.0000 2.2955 0.0000 0.0000
# 5 0.0000 0.0000 0.0000 0.0000 -1.6183 0.0000
# 6 0.0000 0.0000 0.0000 0.0000 0.0000 25.0029
#
#
#
# Elastic Compliance Matrix: (Units=1/GPa)
#
#
# Indices 1 2 3 4 5 6 
#
# 1 0.010124 -0.003232 -0.001876 0.000000 0.000000 0.000000
# 2 -0.003232 0.019041 -0.006205 0.000000 0.000000 0.000000
# 3 -0.001876 -0.006205 0.014700 0.000000 0.000000 0.000000
# 4 0.000000 0.000000 0.000000 0.435634 0.000000 0.000000
# 5 0.000000 0.000000 0.000000 0.000000 -0.617932 0.000000
# 6 0.000000 0.000000 0.000000 0.000000 0.000000 0.039995
#
#
# Mechanical properties :
#
#
# Convention : Reuss Voigt Hill
#
# Bulk Modulus (GPa) = 47.08235 48.44724 47.76480
# Shear Modulus (GPa) = -72.74791 17.09084 -27.82854
#
# Velocity S-wave (km/s) = -6.51101 3.15588 -4.02702
# Velocity P-wave (km/s) = 5.39328 6.44295 2.49240
#
# Compressibility (1/GPa) = 0.02123938
#
# Stress axis : x y z
#
# Youngs Moduli (GPa) = 98.77163 52.51737 68.02682
#
# Poissons Ratio (x) = 0.16974 0.12765
# Poissons Ratio (y) = 0.31924 0.42208
# Poissons Ratio (z) = 0.18534 0.32585
#
# Static dielectric constant tensor:
#      x y z
#    x 1.652810 0.000000 0.000000 
#    y 0.000000 1.604120 0.000000 
#    z 0.000000 0.000000 1.563110 
# 
# From -- ./inp_files/23183.got.cif
#   From: 2010.05.17/outbox.cif.g08.bks.cpg/sg69_12_cif.got.tgz:23183.got - 2010.06.03 19:29:58.
