data_PCOD9512502
_publ_section_title
;
Structure prediction by ZEFSAII (Michael W. Deem and Ramdas Pophale) SiO2 
 PCOD9512502
Probable space group: F M M M
;
_chemical_formula_sum "Si O2"
_cell_formula_units_Z 144
_cell_length_a 27.807573
_cell_length_b 13.929913
_cell_length_c 18.821470
_cell_angle_alpha 90.000000
_cell_angle_beta 90.000000
_cell_angle_gamma 90.000000
_cell_volume 7290.629522
_symmetry_space_group_name_H-M "F M M M"
_symmetry_group_IT_number 69
_symmetry_cell_setting 'orthorhombic'
loop_
_space_group_symop_operation_xyz
x,y,z
-x,-y,z
x,-y,-z
-x,y,-z
-x,-y,-z
x,y,-z
-x,y,z
x,-y,z
x,1/2+y,1/2+z
-x,1/2-y,1/2+z
x,1/2-y,1/2-z
-x,1/2+y,1/2-z
-x,1/2-y,1/2-z
x,1/2+y,1/2-z
-x,1/2+y,1/2+z
x,1/2-y,1/2+z
1/2+x,y,1/2+z
1/2-x,-y,1/2+z
1/2+x,-y,1/2-z
1/2-x,y,1/2-z
1/2-x,-y,1/2-z
1/2+x,y,1/2-z
1/2-x,y,1/2+z
1/2+x,-y,1/2+z
1/2+x,1/2+y,z
1/2-x,1/2-y,z
1/2+x,1/2-y,-z
1/2-x,1/2+y,-z
1/2-x,1/2-y,-z
1/2+x,1/2+y,-z
1/2-x,1/2+y,z
1/2+x,1/2-y,z
loop_
_atom_site_type_symbol
_atom_site_label
_atom_site_fract_x
_atom_site_fract_y
_atom_site_fract_z
Si Si1 0.056939 0.770102 0.141006
Si Si2 0.368166 0.388436 0.636132
Si Si3 0.942160 0.108877 0.000000
Si Si4 0.194193 0.774570 0.920134
Si Si5 0.362036 0.387850 0.201491
O O1 0.080437 0.665300 0.135805
O O2 0.069195 0.828659 0.068902
O O3 0.087175 0.832323 0.196955
O O4 0.000000 0.768937 0.152442
O O5 0.371428 0.500000 0.618470
O O6 0.334760 0.325147 0.585929
O O7 0.346697 0.379054 0.716337
O O8 0.000000 0.099800 0.000000
O O9 0.922329 0.000000 0.000000
O O10 0.250000 0.750000 0.909849
O O11 0.172925 0.840259 0.856821
O O12 0.187567 0.815407 0.000000
O O13 0.368455 0.500000 0.185796
#
# Coordination Sequence:
#
# PCOD9512502 Si02
#       5
#    32  32  16  32  32
#     4  10  20  35  56  84 117 155 197 241 287 335
#     4  10  23  40  57  84 120 158 196 233 284 349
#     4   9  18  32  51  79 112 145 187 238 290 335
#     4  10  22  40  62  88 115 146 190 243 296 350
#     4  10  22  38  58  87 119 152 194 241 291 347
#
# _framework density 19.751382
#
# number of rings (size 3 to 8) (size 9 to 14) (size 15 to 20)
#    0.000    2.111    0.000    3.333    6.222    7.111 
#    0.000    6.667    0.000    2.000    0.000    0.000 
#    0.000    0.000    0.000    0.000    0.000    0.000 
#
# Total GULP energy -200896.001431 kJ/mol
# GULP energy per Si atom -5580.444484 kJ/mol
# Density = 1.970643 g / cm^3
# Si number density = 19.751382 Si / 1000 Ang^3
#
#
#
# Elastic Constant Matrix: (Units=GPa)
#
#
# Indices 1 2 3 4 5 6 
#
# 1 103.5908 24.1642 18.2855 0.0000 0.0000 0.0000
# 2 24.1642 130.2773 23.6606 0.0000 0.0000 0.0000
# 3 18.2855 23.6606 65.6110 0.0000 0.0000 0.0000
# 4 0.0000 0.0000 0.0000 14.6327 0.0000 0.0000
# 5 0.0000 0.0000 0.0000 0.0000 0.4115 0.0000
# 6 0.0000 0.0000 0.0000 0.0000 0.0000 7.7257
#
#
#
# Elastic Compliance Matrix: (Units=1/GPa)
#
#
# Indices 1 2 3 4 5 6 
#
# 1 0.010421 -0.001504 -0.002362 0.000000 0.000000 0.000000
# 2 -0.001504 0.008431 -0.002621 0.000000 0.000000 0.000000
# 3 -0.002362 -0.002621 0.016845 0.000000 0.000000 0.000000
# 4 0.000000 0.000000 0.000000 0.068340 0.000000 0.000000
# 5 0.000000 0.000000 0.000000 0.000000 2.429955 0.000000
# 6 0.000000 0.000000 0.000000 0.000000 0.000000 0.129438
#
#
# Mechanical properties :
#
#
# Convention : Reuss Voigt Hill
#
# Bulk Modulus (GPa) = 44.00892 47.96662 45.98777
# Shear Modulus (GPa) = 1.86291 20.11192 10.98741
#
# Velocity S-wave (km/s) = 0.97223 3.19447 2.36113
# Velocity P-wave (km/s) = 4.85697 6.15988 5.54681
#
# Compressibility (1/GPa) = 0.02272267
#
# Stress axis : x y z
#
# Youngs Moduli (GPa) = 95.95900 118.61062 59.36527
#
# Poissons Ratio (x) = 0.17839 0.14022
# Poissons Ratio (y) = 0.14432 0.15561
# Poissons Ratio (z) = 0.22665 0.31090
#
# Static dielectric constant tensor:
#      x y z
#    x 1.682620 0.000000 0.000000 
#    y 0.000000 1.679490 0.000000 
#    z 0.000000 0.000000 1.772150 
# 
# From -- ./inp_files/27390.got.cif
#   From: 2010.05.17/outbox.cif.g08.bks.cpg/sg69_14_cif.got.tgz:27390.got - 2010.06.03 19:29:58.
