data_PCOD9512419
_publ_section_title
;
Structure prediction by ZEFSAII (Michael W. Deem and Ramdas Pophale) SiO2 
 PCOD9512419
Probable space group: F M M M
;
_chemical_formula_sum "Si O2"
_cell_formula_units_Z 104
_cell_length_a 14.897702
_cell_length_b 27.066222
_cell_length_c 13.398282
_cell_angle_alpha 90.000000
_cell_angle_beta 90.000000
_cell_angle_gamma 90.000000
_cell_volume 5402.515689
_symmetry_space_group_name_H-M "F M M M"
_symmetry_group_IT_number 69
_symmetry_cell_setting 'orthorhombic'
loop_
_space_group_symop_operation_xyz
x,y,z
-x,-y,z
x,-y,-z
-x,y,-z
-x,-y,-z
x,y,-z
-x,y,z
x,-y,z
x,1/2+y,1/2+z
-x,1/2-y,1/2+z
x,1/2-y,1/2-z
-x,1/2+y,1/2-z
-x,1/2-y,1/2-z
x,1/2+y,1/2-z
-x,1/2+y,1/2+z
x,1/2-y,1/2+z
1/2+x,y,1/2+z
1/2-x,-y,1/2+z
1/2+x,-y,1/2-z
1/2-x,y,1/2-z
1/2-x,-y,1/2-z
1/2+x,y,1/2-z
1/2-x,y,1/2+z
1/2+x,-y,1/2+z
1/2+x,1/2+y,z
1/2-x,1/2-y,z
1/2+x,1/2-y,-z
1/2-x,1/2+y,-z
1/2-x,1/2-y,-z
1/2+x,1/2+y,-z
1/2-x,1/2+y,z
1/2+x,1/2-y,z
loop_
_atom_site_type_symbol
_atom_site_label
_atom_site_fract_x
_atom_site_fract_y
_atom_site_fract_z
Si Si1 0.331622 0.445353 0.675784
Si Si2 0.500000 0.392311 0.726070
Si Si3 0.339755 0.784878 0.500000
Si Si4 0.304318 0.367400 0.500000
Si Si5 0.500000 0.352350 0.500000
Si Si6 0.500000 0.788576 0.659582
O O1 0.351333 0.500000 0.632825
O O2 0.250000 0.449091 0.750000
O O3 0.413719 0.425484 0.740837
O O4 0.310899 0.403894 0.593832
O O5 0.500000 0.379942 0.606534
O O6 0.500000 0.342846 0.790806
O O7 0.250000 0.750000 0.500000
O O8 0.287826 0.837382 0.500000
O O9 0.409487 0.781136 0.593240
O O10 0.395958 0.332584 0.500000
O O11 0.500000 0.750000 0.750000
#
# Coordination Sequence:
#
# PCOD9512419 Si02
#       6
#    32  16  16  16   8  16
#     4  10  20  34  59  91 124 162 210 259 310 375
#     4  10  20  38  60  86 127 166 207 258 322 368
#     4  11  27  45  66  92 127 169 219 268 326 390
#     4  10  20  38  60  86 127 166 207 258 322 368
#     4   8  20  32  61  88 120 160 196 260 301 368
#     4  11  27  45  66  92 127 169 219 268 326 390
#
# _framework density 19.250292000000002
#
# number of rings (size 3 to 8) (size 9 to 14) (size 15 to 20)
#    0.000    1.846    0.000    2.769    8.615    0.615 
#    0.000    4.615    0.000    0.000    0.000   12.923 
#    0.000    0.000    0.000    0.000    0.000    0.000 
#
# Total GULP energy -144734.859519 kJ/mol
# GULP energy per Si atom -5566.725366 kJ/mol
# Density = 1.920648 g / cm^3
# Si number density = 19.250292 Si / 1000 Ang^3
#
#
#
# Elastic Constant Matrix: (Units=GPa)
#
#
# Indices 1 2 3 4 5 6 
#
# 1 194.3994 81.5227 64.9587 0.0000 0.0000 0.0000
# 2 81.5227 125.7610 50.0507 0.0000 0.0000 0.0000
# 3 64.9587 50.0507 80.7775 0.0000 0.0000 0.0000
# 4 0.0000 0.0000 0.0000 16.5596 0.0000 0.0000
# 5 0.0000 0.0000 0.0000 0.0000 22.0783 0.0000
# 6 0.0000 0.0000 0.0000 0.0000 0.0000 74.6945
#
#
#
# Elastic Compliance Matrix: (Units=1/GPa)
#
#
# Indices 1 2 3 4 5 6 
#
# 1 0.008053 -0.003508 -0.004302 0.000000 0.000000 0.000000
# 2 -0.003508 0.012082 -0.004665 0.000000 0.000000 0.000000
# 3 -0.004302 -0.004665 0.018730 0.000000 0.000000 0.000000
# 4 0.000000 0.000000 0.000000 0.060388 0.000000 0.000000
# 5 0.000000 0.000000 0.000000 0.000000 0.045293 0.000000
# 6 0.000000 0.000000 0.000000 0.000000 0.000000 0.013388
#
#
# Mechanical properties :
#
#
# Convention : Reuss Voigt Hill
#
# Bulk Modulus (GPa) = 71.86937 88.22245 80.04591
# Shear Modulus (GPa) = 26.66338 36.29352 31.47845
#
# Velocity S-wave (km/s) = 3.72572 4.34677 4.04817
# Velocity P-wave (km/s) = 7.47818 8.43334 7.97008
#
# Compressibility (1/GPa) = 0.01391413
#
# Stress axis : x y z
#
# Youngs Moduli (GPa) = 124.18254 82.76610 53.38986
#
# Poissons Ratio (x) = 0.29033 0.22969
# Poissons Ratio (y) = 0.43561 0.24909
# Poissons Ratio (z) = 0.53426 0.38614
#
# Static dielectric constant tensor:
#      x y z
#    x 1.710960 0.000000 0.000000 
#    y 0.000000 1.710870 0.000000 
#    z 0.000000 0.000000 1.653830 
# 
# From -- ./inp_files/13391.got.cif
#   From: 2010.05.17/outbox.cif.g08.bks.cpg/sg69_7_cif.got.tgz:13391.got - 2010.06.03 19:29:58.
