data_PCOD9512404
_publ_section_title
;
Structure prediction by ZEFSAII (Michael W. Deem and Ramdas Pophale) SiO2 
 PCOD9512404
Probable space group: F M M M
;
_chemical_formula_sum "Si O2"
_cell_formula_units_Z 200
_cell_length_a 20.659793
_cell_length_b 28.128943
_cell_length_c 19.113299
_cell_angle_alpha 90.000000
_cell_angle_beta 90.000000
_cell_angle_gamma 90.000000
_cell_volume 11107.467024
_symmetry_space_group_name_H-M "F M M M"
_symmetry_group_IT_number 69
_symmetry_cell_setting 'orthorhombic'
loop_
_space_group_symop_operation_xyz
x,y,z
-x,-y,z
x,-y,-z
-x,y,-z
-x,-y,-z
x,y,-z
-x,y,z
x,-y,z
x,1/2+y,1/2+z
-x,1/2-y,1/2+z
x,1/2-y,1/2-z
-x,1/2+y,1/2-z
-x,1/2-y,1/2-z
x,1/2+y,1/2-z
-x,1/2+y,1/2+z
x,1/2-y,1/2+z
1/2+x,y,1/2+z
1/2-x,-y,1/2+z
1/2+x,-y,1/2-z
1/2-x,y,1/2-z
1/2-x,-y,1/2-z
1/2+x,y,1/2-z
1/2-x,y,1/2+z
1/2+x,-y,1/2+z
1/2+x,1/2+y,z
1/2-x,1/2-y,z
1/2+x,1/2-y,-z
1/2-x,1/2+y,-z
1/2-x,1/2-y,-z
1/2+x,1/2+y,-z
1/2-x,1/2+y,z
1/2+x,1/2-y,z
loop_
_atom_site_type_symbol
_atom_site_label
_atom_site_fract_x
_atom_site_fract_y
_atom_site_fract_z
Si Si1 0.640731 0.297792 0.660842
Si Si2 0.280319 0.053538 0.827722
Si Si3 0.769533 0.641546 0.079765
Si Si4 0.358248 0.799970 0.581532
Si Si5 0.573687 0.446147 0.281918
Si Si6 0.426358 0.347456 0.791286
Si Si7 0.250000 0.250000 0.750000
O O1 0.662762 0.338591 0.608313
O O2 0.624951 0.251465 0.614659
O O3 0.594892 0.317533 0.722165
O O4 0.704147 0.282632 0.704157
O O5 0.250000 0.057896 0.750000
O O6 0.252220 0.096445 0.873012
O O7 0.359204 0.057601 0.825480
O O8 0.264983 0.000000 0.852612
O O9 0.717458 0.684724 0.082230
O O10 0.774068 0.626309 0.000000
O O11 0.378865 0.803181 0.500000
O O12 0.387950 0.835289 0.638799
O O13 0.500000 0.441190 0.313769
O O14 0.575690 0.500000 0.252566
O O15 0.578971 0.402876 0.227965
O O16 0.500000 0.334959 0.805258
#
# Coordination Sequence:
#
# PCOD9512404 Si02
#       7
#    32  32  32  32  32  32   8
#     4  12  20  35  56  82 108 141 190 232 275 328
#     4  10  20  34  57  85 114 148 189 237 288 341
#     4  11  22  35  56  83 114 147 184 232 287 340
#     4  11  23  37  53  78 115 153 186 228 282 335
#     4   9  18  34  58  85 110 140 183 234 283 335
#     4  11  22  37  59  84 111 146 190 237 281 334
#     4  12  20  32  60  80 102 140 178 242 276 312
#
# _framework density 18.005904999999998
#
# number of rings (size 3 to 8) (size 9 to 14) (size 15 to 20)
#    0.000    1.280    4.800    1.440    1.120    3.200 
#    0.000    0.000    0.000    4.320    0.000    4.480 
#    0.000    0.000    0.000    0.000    0.000    0.000 
#
# Total GULP energy -278393.019456 kJ/mol
# GULP energy per Si atom -5567.860389 kJ/mol
# Density = 1.796492 g / cm^3
# Si number density = 18.005905 Si / 1000 Ang^3
#
#
#
# Elastic Constant Matrix: (Units=GPa)
#
#
# Indices 1 2 3 4 5 6 
#
# 1 45.5315 0.2209 15.4336 0.0000 0.0000 0.0000
# 2 0.2209 97.3917 36.2736 0.0000 0.0000 0.0000
# 3 15.4336 36.2736 92.0596 0.0000 0.0000 0.0000
# 4 0.0000 0.0000 0.0000 1.9771 0.0000 0.0000
# 5 0.0000 0.0000 0.0000 0.0000 7.0398 0.0000
# 6 0.0000 0.0000 0.0000 0.0000 0.0000 2.3107
#
#
#
# Elastic Compliance Matrix: (Units=1/GPa)
#
#
# Indices 1 2 3 4 5 6 
#
# 1 0.023512 0.001658 -0.004595 0.000000 0.000000 0.000000
# 2 0.001658 0.012151 -0.005066 0.000000 0.000000 0.000000
# 3 -0.004595 -0.005066 0.013629 0.000000 0.000000 0.000000
# 4 0.000000 0.000000 0.000000 0.505791 0.000000 0.000000
# 5 0.000000 0.000000 0.000000 0.000000 0.142049 0.000000
# 6 0.000000 0.000000 0.000000 0.000000 0.000000 0.432760
#
#
# Mechanical properties :
#
#
# Convention : Reuss Voigt Hill
#
# Bulk Modulus (GPa) = 30.04206 37.64878 33.84542
# Shear Modulus (GPa) = 4.32155 14.46919 9.39537
#
# Velocity S-wave (km/s) = 1.55090 2.83782 2.28676
# Velocity P-wave (km/s) = 4.46406 5.62958 5.08035
#
# Compressibility (1/GPa) = 0.03328666
#
# Stress axis : x y z
#
# Youngs Moduli (GPa) = 42.53082 82.29938 73.37358
#
# Poissons Ratio (x) = -0.13646 0.33716
# Poissons Ratio (y) = -0.07052 0.37169
# Poissons Ratio (z) = 0.19544 0.41690
#
# Static dielectric constant tensor:
#      x y z
#    x 1.583970 0.000000 0.000000 
#    y 0.000000 1.655740 0.000000 
#    z 0.000000 0.000000 1.427410 
# 
# From -- ./inp_files/25200.got.cif
#   From: 2010.05.17/outbox.cif.g08.bks.cpg/sg69_13_cif.got.tgz:25200.got - 2010.06.03 19:29:58.
