data_PCOD9512486
_publ_section_title
;
Structure prediction by ZEFSAII (Michael W. Deem and Ramdas Pophale) SiO2 
 PCOD9512486
Probable space group: F M M M
;
_chemical_formula_sum "Si O2"
_cell_formula_units_Z 176
_cell_length_a 18.692545
_cell_length_b 19.155287
_cell_length_c 23.881897
_cell_angle_alpha 90.000000
_cell_angle_beta 90.000000
_cell_angle_gamma 90.000000
_cell_volume 8551.177456
_symmetry_space_group_name_H-M "F M M M"
_symmetry_group_IT_number 69
_symmetry_cell_setting 'orthorhombic'
loop_
_space_group_symop_operation_xyz
x,y,z
-x,-y,z
x,-y,-z
-x,y,-z
-x,-y,-z
x,y,-z
-x,y,z
x,-y,z
x,1/2+y,1/2+z
-x,1/2-y,1/2+z
x,1/2-y,1/2-z
-x,1/2+y,1/2-z
-x,1/2-y,1/2-z
x,1/2+y,1/2-z
-x,1/2+y,1/2+z
x,1/2-y,1/2+z
1/2+x,y,1/2+z
1/2-x,-y,1/2+z
1/2+x,-y,1/2-z
1/2-x,y,1/2-z
1/2-x,-y,1/2-z
1/2+x,y,1/2-z
1/2-x,y,1/2+z
1/2+x,-y,1/2+z
1/2+x,1/2+y,z
1/2-x,1/2-y,z
1/2+x,1/2-y,-z
1/2-x,1/2+y,-z
1/2-x,1/2-y,-z
1/2+x,1/2+y,-z
1/2-x,1/2+y,z
1/2+x,1/2-y,z
loop_
_atom_site_type_symbol
_atom_site_label
_atom_site_fract_x
_atom_site_fract_y
_atom_site_fract_z
Si Si1 0.079636 0.804477 0.108347
Si Si2 0.416820 0.827362 0.740039
Si Si3 0.114957 0.655886 0.936832
Si Si4 0.263565 0.172868 0.395533
Si Si5 0.414885 0.000000 0.935830
Si Si6 0.804030 0.921978 0.698416
O O1 0.084352 0.831977 0.172399
O O2 0.085244 0.719928 0.100503
O O3 0.154998 0.831536 0.083206
O O4 0.000000 0.824113 0.087020
O O5 0.500000 0.829749 0.757359
O O6 0.387301 0.750000 0.750000
O O7 0.371366 0.880415 0.776684
O O8 0.200184 0.666734 0.939890
O O9 0.103444 0.577651 0.913531
O O10 0.084884 0.660156 0.000000
O O11 0.250000 0.250000 0.369865
O O12 0.240733 0.117358 0.349157
O O13 0.500000 0.000000 0.938275
O O14 0.385108 0.000000 0.000000
O O15 0.750000 0.926444 0.750000
O O16 0.823973 0.000000 0.680754
#
# Coordination Sequence:
#
# PCOD9512486 Si02
#       6
#    32  32  32  32  16  32
#     4  10  20  35  56  81 109 147 197 244 288 340
#     4  10  20  36  58  83 115 153 193 237 292 350
#     4  10  21  36  56  86 121 157 193 239 296 360
#     4  10  21  37  59  85 116 158 196 244 291 358
#     4   9  18  34  56  82 114 153 187 223 291 367
#     4  11  23  37  59  88 113 151 200 245 298 362
#
# _framework density 20.581959999999999
#
# number of rings (size 3 to 8) (size 9 to 14) (size 15 to 20)
#    0.000    1.909    1.818    2.727    1.273    4.727 
#    0.000    0.909    0.000    0.545    0.000    0.000 
#    0.000    2.182    0.000    0.182    0.000    0.000 
#
# Total GULP energy -245144.648563 kJ/mol
# GULP energy per Si atom -5571.469286 kJ/mol
# Density = 2.053511 g / cm^3
# Si number density = 20.581960 Si / 1000 Ang^3
#
#
#
# Elastic Constant Matrix: (Units=GPa)
#
#
# Indices 1 2 3 4 5 6 
#
# 1 156.6345 47.4815 13.1070 0.0000 0.0000 0.0000
# 2 47.4815 141.9061 31.2118 0.0000 0.0000 0.0000
# 3 13.1070 31.2118 50.5409 0.0000 0.0000 0.0000
# 4 0.0000 0.0000 0.0000 2.5009 0.0000 0.0000
# 5 0.0000 0.0000 0.0000 0.0000 13.1627 0.0000
# 6 0.0000 0.0000 0.0000 0.0000 0.0000 21.7693
#
#
#
# Elastic Compliance Matrix: (Units=1/GPa)
#
#
# Indices 1 2 3 4 5 6 
#
# 1 0.007113 -0.002285 -0.000434 0.000000 0.000000 0.000000
# 2 -0.002285 0.008888 -0.004897 0.000000 0.000000 0.000000
# 3 -0.000434 -0.004897 0.022922 0.000000 0.000000 0.000000
# 4 0.000000 0.000000 0.000000 0.399862 0.000000 0.000000
# 5 0.000000 0.000000 0.000000 0.000000 0.075972 0.000000
# 6 0.000000 0.000000 0.000000 0.000000 0.000000 0.045936
#
#
# Mechanical properties :
#
#
# Convention : Reuss Voigt Hill
#
# Bulk Modulus (GPa) = 42.20500 59.18689 50.69594
# Shear Modulus (GPa) = 8.56425 24.63864 16.60145
#
# Velocity S-wave (km/s) = 2.04208 3.46367 2.84315
# Velocity P-wave (km/s) = 5.10984 6.69441 5.95506
#
# Compressibility (1/GPa) = 0.02369387
#
# Stress axis : x y z
#
# Youngs Moduli (GPa) = 140.58481 112.50710 43.62553
#
# Poissons Ratio (x) = 0.25704 0.01892
# Poissons Ratio (y) = 0.32118 0.21361
# Poissons Ratio (z) = 0.06099 0.55090
#
# Static dielectric constant tensor:
#      x y z
#    x 1.765660 0.000000 0.000000 
#    y 0.000000 1.745420 0.000000 
#    z 0.000000 0.000000 1.803070 
# 
# From -- ./inp_files/41871.got.cif
#   From: 2010.05.17/outbox.cif.g08.bks.cpg/sg69_21_cif.got.tgz:41871.got - 2010.06.03 19:29:58.
