data_PCOD9512291
_publ_section_title
;
Structure prediction by ZEFSAII (Michael W. Deem and Ramdas Pophale) SiO2 
 PCOD9512291
Probable space group: F M M M
;
_chemical_formula_sum "Si O2"
_cell_formula_units_Z 224
_cell_length_a 34.630329
_cell_length_b 19.024494
_cell_length_c 14.529237
_cell_angle_alpha 90.000000
_cell_angle_beta 90.000000
_cell_angle_gamma 90.000000
_cell_volume 9572.217103
_symmetry_space_group_name_H-M "F M M M"
_symmetry_group_IT_number 69
_symmetry_cell_setting 'orthorhombic'
loop_
_space_group_symop_operation_xyz
x,y,z
-x,-y,z
x,-y,-z
-x,y,-z
-x,-y,-z
x,y,-z
-x,y,z
x,-y,z
x,1/2+y,1/2+z
-x,1/2-y,1/2+z
x,1/2-y,1/2-z
-x,1/2+y,1/2-z
-x,1/2-y,1/2-z
x,1/2+y,1/2-z
-x,1/2+y,1/2+z
x,1/2-y,1/2+z
1/2+x,y,1/2+z
1/2-x,-y,1/2+z
1/2+x,-y,1/2-z
1/2-x,y,1/2-z
1/2-x,-y,1/2-z
1/2+x,y,1/2-z
1/2-x,y,1/2+z
1/2+x,-y,1/2+z
1/2+x,1/2+y,z
1/2-x,1/2-y,z
1/2+x,1/2-y,-z
1/2-x,1/2+y,-z
1/2-x,1/2-y,-z
1/2+x,1/2+y,-z
1/2-x,1/2+y,z
1/2+x,1/2-y,z
loop_
_atom_site_type_symbol
_atom_site_label
_atom_site_fract_x
_atom_site_fract_y
_atom_site_fract_z
Si Si1 0.120415 0.721155 0.892589
Si Si2 0.093583 0.864150 0.113211
Si Si3 0.742174 0.420710 0.357787
Si Si4 0.826371 0.077523 0.107194
Si Si5 0.791718 0.223837 0.356005
Si Si6 0.544103 0.000000 0.387450
Si Si7 0.914542 0.079889 0.386828
Si Si8 0.000000 0.084901 0.604181
O O1 0.092514 0.782991 0.855776
O O2 0.165519 0.743715 0.888997
O O3 0.113103 0.642934 0.855479
O O4 0.110937 0.715866 0.000000
O O5 0.136355 0.886333 0.146156
O O6 0.065553 0.927885 0.140879
O O7 0.091614 0.862632 0.000000
O O8 0.734523 0.500000 0.393275
O O9 0.750000 0.425731 0.250000
O O10 0.783628 0.391991 0.391440
O O11 0.710782 0.360655 0.370934
O O12 0.822208 0.000000 0.149407
O O13 0.835706 0.070182 0.000000
O O14 0.791323 0.250000 0.250000
O O15 0.750000 0.250000 0.393495
O O16 0.500000 0.000000 0.355095
O O17 0.544253 0.000000 0.500000
O O18 0.914960 0.076386 0.500000
O O19 0.958004 0.101251 0.356052
O O20 0.905526 0.000000 0.356076
O O21 0.000000 0.113958 0.500000
O O22 0.000000 0.000000 0.598192
#
# Coordination Sequence:
#
# PCOD9512291 Si02
#       8
#    32  32  32  32  32  16  32  16
#     4  10  21  33  50  76 103 131 169 214 253 299
#     4   9  16  28  44  68  99 131 168 202 240 292
#     4  10  20  34  52  73  95 125 168 216 256 297
#     4   9  16  28  49  73  97 128 165 205 250 303
#     4  11  22  38  53  68  98 136 168 208 262 306
#     4   9  16  28  46  70 107 144 166 198 254 303
#     4   8  14  27  46  72 106 137 161 196 249 302
#     4   7  10  20  42  68  99 135 161 181 227 299
#
# _framework density 23.401057000000002
#
# number of rings (size 3 to 8) (size 9 to 14) (size 15 to 20)
#    0.000    2.714    2.143    1.714    0.000    1.429 
#    1.286    0.000    0.000    0.000    0.000    0.500 
#    0.000    0.000    0.000    0.000    0.000    0.000 
#
# Total GULP energy -311954.856860 kJ/mol
# GULP energy per Si atom -5570.622444 kJ/mol
# Density = 2.334780 g / cm^3
# Si number density = 23.401057 Si / 1000 Ang^3
#
#
#
# Elastic Constant Matrix: (Units=GPa)
#
#
# Indices 1 2 3 4 5 6 
#
# 1 106.9014 90.3768 0.3931 0.0000 0.0000 0.0000
# 2 90.3768 174.4471 10.6523 0.0000 0.0000 0.0000
# 3 0.3931 10.6523 57.0751 0.0000 0.0000 0.0000
# 4 0.0000 0.0000 0.0000 4.7216 0.0000 0.0000
# 5 0.0000 0.0000 0.0000 0.0000 70.7418 0.0000
# 6 0.0000 0.0000 0.0000 0.0000 0.0000 72.1693
#
#
#
# Elastic Compliance Matrix: (Units=1/GPa)
#
#
# Indices 1 2 3 4 5 6 
#
# 1 0.016775 -0.008784 0.001524 0.000000 0.000000 0.000000
# 2 -0.008784 0.010398 -0.001880 0.000000 0.000000 0.000000
# 3 0.001524 -0.001880 0.017861 0.000000 0.000000 0.000000
# 4 0.000000 0.000000 0.000000 0.211795 0.000000 0.000000
# 5 0.000000 0.000000 0.000000 0.000000 0.014136 0.000000
# 6 0.000000 0.000000 0.000000 0.000000 0.000000 0.013856
#
#
# Mechanical properties :
#
#
# Convention : Reuss Voigt Hill
#
# Bulk Modulus (GPa) = 37.37785 60.14090 48.75938
# Shear Modulus (GPa) = 16.02471 45.32663 30.67567
#
# Velocity S-wave (km/s) = 2.61968 4.40585 3.62452
# Velocity P-wave (km/s) = 5.01574 7.18595 6.19660
#
# Compressibility (1/GPa) = 0.02675381
#
# Stress axis : x y z
#
# Youngs Moduli (GPa) = 59.61375 96.17451 55.98734
#
# Poissons Ratio (x) = 0.84476 -0.08531
# Poissons Ratio (y) = 0.52362 0.10526
# Poissons Ratio (z) = -0.09084 0.18082
#
# Static dielectric constant tensor:
#      x y z
#    x 1.888010 0.000000 0.000000 
#    y 0.000000 1.972250 0.000000 
#    z 0.000000 0.000000 1.933890 
# 
# From -- ./inp_files/27970.got.cif
#   From: 2010.05.17/outbox.cif.g08.bks.cpg/sg69_14_cif.got.tgz:27970.got - 2010.06.03 19:29:58.
