data_PCOD9512813
_publ_section_title
;
Structure prediction by ZEFSAII (Michael W. Deem and Ramdas Pophale) SiO2 
 PCOD9512813
Probable space group: F M M M
;
_chemical_formula_sum "Si O2"
_cell_formula_units_Z 160
_cell_length_a 28.458833
_cell_length_b 15.270640
_cell_length_c 18.117507
_cell_angle_alpha 90.000000
_cell_angle_beta 90.000000
_cell_angle_gamma 90.000000
_cell_volume 7873.589416
_symmetry_space_group_name_H-M "F M M M"
_symmetry_group_IT_number 69
_symmetry_cell_setting 'orthorhombic'
loop_
_space_group_symop_operation_xyz
x,y,z
-x,-y,z
x,-y,-z
-x,y,-z
-x,-y,-z
x,y,-z
-x,y,z
x,-y,z
x,1/2+y,1/2+z
-x,1/2-y,1/2+z
x,1/2-y,1/2-z
-x,1/2+y,1/2-z
-x,1/2-y,1/2-z
x,1/2+y,1/2-z
-x,1/2+y,1/2+z
x,1/2-y,1/2+z
1/2+x,y,1/2+z
1/2-x,-y,1/2+z
1/2+x,-y,1/2-z
1/2-x,y,1/2-z
1/2-x,-y,1/2-z
1/2+x,y,1/2-z
1/2-x,y,1/2+z
1/2+x,-y,1/2+z
1/2+x,1/2+y,z
1/2-x,1/2-y,z
1/2+x,1/2-y,-z
1/2-x,1/2+y,-z
1/2-x,1/2-y,-z
1/2+x,1/2+y,-z
1/2-x,1/2+y,z
1/2+x,1/2-y,z
loop_
_atom_site_type_symbol
_atom_site_label
_atom_site_fract_x
_atom_site_fract_y
_atom_site_fract_z
Si Si1 0.622902 0.397360 0.500000
Si Si2 0.136318 0.660800 0.627266
Si Si3 0.802145 0.897794 0.262936
Si Si4 0.805528 0.753506 0.500000
Si Si5 0.553831 0.500000 0.255909
Si Si6 0.607736 0.842959 0.160032
Si Si7 0.075035 0.000000 0.082498
O O1 0.627612 0.500000 0.500000
O O2 0.673523 0.350961 0.500000
O O3 0.597677 0.367878 0.575217
O O4 0.168037 0.615154 0.688878
O O5 0.171288 0.705925 0.569866
O O6 0.103836 0.737421 0.663575
O O7 0.105915 0.587874 0.586901
O O8 0.750000 0.860959 0.250000
O O9 0.836608 0.856992 0.323376
O O10 0.797266 0.000000 0.281116
O O11 0.750000 0.750000 0.500000
O O12 0.500000 0.500000 0.281773
O O13 0.580321 0.586955 0.288283
O O14 0.553049 0.500000 0.166048
O O15 0.052193 0.000000 0.000000
#
# Coordination Sequence:
#
# PCOD9512813 Si02
#       7
#    16  32  32  16  16  32  16
#     4  10  20  38  63  87 128 174 206 268 338 384
#     4  11  22  39  65  91 134 183 223 270 328 391
#     4  11  22  36  60  93 132 179 229 271 323 391
#     4  10  24  37  52  96 136 178 234 272 320 389
#     4  12  26  48  76 104 131 163 217 287 352 421
#     4  11  22  42  65  98 132 171 218 273 339 399
#     4  12  24  47  67  97 132 178 219 268 338 395
#
# _framework density 20.321100999999999
#
# number of rings (size 3 to 8) (size 9 to 14) (size 15 to 20)
#    0.000    1.000    6.000    0.600    5.600    1.000 
#    1.800    3.000    0.000    0.000    0.000    0.000 
#    0.000    0.000    0.000    0.000    0.000    0.000 
#
# Total GULP energy -223063.521771 kJ/mol
# GULP energy per Si atom -5576.588044 kJ/mol
# Density = 2.027485 g / cm^3
# Si number density = 20.321101 Si / 1000 Ang^3
#
#
#
# Elastic Constant Matrix: (Units=GPa)
#
#
# Indices 1 2 3 4 5 6 
#
# 1 97.9248 38.5596 26.7830 0.0000 0.0000 0.0000
# 2 38.5596 117.7188 1.4202 0.0000 0.0000 0.0000
# 3 26.7830 1.4202 121.9121 0.0000 0.0000 0.0000
# 4 0.0000 0.0000 0.0000 -20.8107 0.0000 0.0000
# 5 0.0000 0.0000 0.0000 0.0000 -45.3036 0.0000
# 6 0.0000 0.0000 0.0000 0.0000 0.0000 4.8737
#
#
#
# Elastic Compliance Matrix: (Units=1/GPa)
#
#
# Indices 1 2 3 4 5 6 
#
# 1 0.012561 -0.004082 -0.002712 0.000000 0.000000 0.000000
# 2 -0.004082 0.009822 0.000782 0.000000 0.000000 0.000000
# 3 -0.002712 0.000782 0.008789 0.000000 0.000000 0.000000
# 4 0.000000 0.000000 0.000000 -0.048052 0.000000 0.000000
# 5 0.000000 0.000000 0.000000 0.000000 -0.022073 0.000000
# 6 0.000000 0.000000 0.000000 0.000000 0.000000 0.205182
#
#
# Mechanical properties :
#
#
# Convention : Reuss Voigt Hill
#
# Bulk Modulus (GPa) = 52.21977 52.34236 52.28106
# Shear Modulus (GPa) = 27.08050 5.80476 16.44263
#
# Velocity S-wave (km/s) = 3.65448 1.69196 2.84763
# Velocity P-wave (km/s) = 6.60001 5.44339 6.04940
#
# Compressibility (1/GPa) = 0.01914984
#
# Stress axis : x y z
#
# Youngs Moduli (GPa) = 79.61220 101.80845 113.77457
#
# Poissons Ratio (x) = 0.41555 0.30855
# Poissons Ratio (y) = 0.32495 -0.08900
# Poissons Ratio (z) = 0.21591 -0.07964
#
# Static dielectric constant tensor:
#      x y z
#    x 1.690310 0.000000 0.000000 
#    y 0.000000 1.751090 0.000000 
#    z 0.000000 0.000000 1.794630 
# 
# From -- ./inp_files/15739.got.cif
#   From: 2010.05.17/outbox.cif.g08.bks.cpg/sg69_8_cif.got.tgz:15739.got - 2010.06.03 19:29:58.
