data_PCOD9512279
_publ_section_title
;
Structure prediction by ZEFSAII (Michael W. Deem and Ramdas Pophale) SiO2 
 PCOD9512279
Probable space group: F M M M
;
_chemical_formula_sum "Si O2"
_cell_formula_units_Z 160
_cell_length_a 15.294526
_cell_length_b 28.519935
_cell_length_c 18.414695
_cell_angle_alpha 90.000000
_cell_angle_beta 90.000000
_cell_angle_gamma 90.000000
_cell_volume 8032.469470
_symmetry_space_group_name_H-M "F M M M"
_symmetry_group_IT_number 69
_symmetry_cell_setting 'orthorhombic'
loop_
_space_group_symop_operation_xyz
x,y,z
-x,-y,z
x,-y,-z
-x,y,-z
-x,-y,-z
x,y,-z
-x,y,z
x,-y,z
x,1/2+y,1/2+z
-x,1/2-y,1/2+z
x,1/2-y,1/2-z
-x,1/2+y,1/2-z
-x,1/2-y,1/2-z
x,1/2+y,1/2-z
-x,1/2+y,1/2+z
x,1/2-y,1/2+z
1/2+x,y,1/2+z
1/2-x,-y,1/2+z
1/2+x,-y,1/2-z
1/2-x,y,1/2-z
1/2-x,-y,1/2-z
1/2+x,y,1/2-z
1/2-x,y,1/2+z
1/2+x,-y,1/2+z
1/2+x,1/2+y,z
1/2-x,1/2-y,z
1/2+x,1/2-y,-z
1/2-x,1/2+y,-z
1/2-x,1/2-y,-z
1/2+x,1/2+y,-z
1/2-x,1/2+y,z
1/2+x,1/2-y,z
loop_
_atom_site_type_symbol
_atom_site_label
_atom_site_fract_x
_atom_site_fract_y
_atom_site_fract_z
Si Si1 0.649464 0.151630 0.724335
Si Si2 0.606510 0.293105 0.082565
Si Si3 0.898978 0.191107 0.372171
Si Si4 0.647263 0.550577 0.267164
Si Si5 0.894058 0.089400 0.419835
O O1 0.750000 0.150237 0.750000
O O2 0.640440 0.172424 0.644715
O O3 0.605112 0.184497 0.785273
O O4 0.612622 0.098728 0.731666
O O5 0.500000 0.293568 0.087069
O O6 0.638344 0.240359 0.101715
O O7 0.630946 0.304922 0.000000
O O8 0.862231 0.142803 0.405155
O O9 0.000000 0.191952 0.395480
O O10 0.609312 0.500000 0.245837
O O11 0.750000 0.549238 0.250000
O O12 0.636674 0.558154 0.353241
O O13 0.867356 0.073967 0.500000
O O14 0.000000 0.089874 0.417048
#
# Coordination Sequence:
#
# PCOD9512279 Si02
#       5
#    32  32  32  32  32
#     4  10  20  34  51  74 101 130 167 209 252 294
#     4  10  20  34  53  75 101 136 174 206 237 283
#     4   9  17  31  51  74 102 137 170 196 234 295
#     4   9  19  36  53  69  95 133 172 204 242 300
#     4   9  17  30  51  80 108 127 151 199 257 302
#
# _framework density 19.919153999999999
#
# number of rings (size 3 to 8) (size 9 to 14) (size 15 to 20)
#    0.000    2.600    0.000    1.800    0.000    7.200 
#    0.000   12.000    0.000    1.800    0.000    1.400 
#    0.000    0.000    0.000    0.000    0.000    0.000 
#
# Total GULP energy -223131.268274 kJ/mol
# GULP energy per Si atom -5578.281707 kJ/mol
# Density = 1.987382 g / cm^3
# Si number density = 19.919154 Si / 1000 Ang^3
#
#
#
# Elastic Constant Matrix: (Units=GPa)
#
#
# Indices 1 2 3 4 5 6 
#
# 1 39.8232 12.5624 20.2081 0.0000 0.0000 0.0000
# 2 12.5624 103.7962 56.1566 0.0000 0.0000 0.0000
# 3 20.2081 56.1566 126.7749 0.0000 0.0000 0.0000
# 4 0.0000 0.0000 0.0000 0.2798 0.0000 0.0000
# 5 0.0000 0.0000 0.0000 0.0000 5.6320 0.0000
# 6 0.0000 0.0000 0.0000 0.0000 0.0000 16.1969
#
#
#
# Elastic Compliance Matrix: (Units=1/GPa)
#
#
# Indices 1 2 3 4 5 6 
#
# 1 0.027445 -0.001256 -0.003819 0.000000 0.000000 0.000000
# 2 -0.001256 0.012728 -0.005438 0.000000 0.000000 0.000000
# 3 -0.003819 -0.005438 0.010906 0.000000 0.000000 0.000000
# 4 0.000000 0.000000 0.000000 3.574596 0.000000 0.000000
# 5 0.000000 0.000000 0.000000 0.000000 0.177557 0.000000
# 6 0.000000 0.000000 0.000000 0.000000 0.000000 0.061740
#
#
# Mechanical properties :
#
#
# Convention : Reuss Voigt Hill
#
# Bulk Modulus (GPa) = 33.27323 49.80539 41.53931
# Shear Modulus (GPa) = 1.28336 16.51953 8.90145
#
# Velocity S-wave (km/s) = 0.80354 2.88293 2.11624
# Velocity P-wave (km/s) = 4.19539 6.01164 5.18368
#
# Compressibility (1/GPa) = 0.03005419
#
# Stress axis : x y z
#
# Youngs Moduli (GPa) = 36.43672 78.56471 91.69670
#
# Poissons Ratio (x) = 0.09866 0.35015
# Poissons Ratio (y) = 0.04575 0.49865
# Poissons Ratio (z) = 0.13913 0.42724
#
# Static dielectric constant tensor:
#      x y z
#    x 1.738180 0.000000 0.000000 
#    y 0.000000 1.739970 0.000000 
#    z 0.000000 0.000000 1.686450 
# 
# From -- ./inp_files/23103.got.cif
#   From: 2010.05.17/outbox.cif.g08.bks.cpg/sg69_12_cif.got.tgz:23103.got - 2010.06.03 19:29:58.
