data_PCOD9512249
_publ_section_title
;
Structure prediction by ZEFSAII (Michael W. Deem and Ramdas Pophale) SiO2 
 PCOD9512249
Probable space group: F M M M
;
_chemical_formula_sum "Si O2"
_cell_formula_units_Z 176
_cell_length_a 29.058087
_cell_length_b 16.691947
_cell_length_c 20.661273
_cell_angle_alpha 90.000000
_cell_angle_beta 90.000000
_cell_angle_gamma 90.000000
_cell_volume 10021.462205
_symmetry_space_group_name_H-M "F M M M"
_symmetry_group_IT_number 69
_symmetry_cell_setting 'orthorhombic'
loop_
_space_group_symop_operation_xyz
x,y,z
-x,-y,z
x,-y,-z
-x,y,-z
-x,-y,-z
x,y,-z
-x,y,z
x,-y,z
x,1/2+y,1/2+z
-x,1/2-y,1/2+z
x,1/2-y,1/2-z
-x,1/2+y,1/2-z
-x,1/2-y,1/2-z
x,1/2+y,1/2-z
-x,1/2+y,1/2+z
x,1/2-y,1/2+z
1/2+x,y,1/2+z
1/2-x,-y,1/2+z
1/2+x,-y,1/2-z
1/2-x,y,1/2-z
1/2-x,-y,1/2-z
1/2+x,y,1/2-z
1/2-x,y,1/2+z
1/2+x,-y,1/2+z
1/2+x,1/2+y,z
1/2-x,1/2-y,z
1/2+x,1/2-y,-z
1/2-x,1/2+y,-z
1/2-x,1/2-y,-z
1/2+x,1/2+y,-z
1/2-x,1/2+y,z
1/2+x,1/2-y,z
loop_
_atom_site_type_symbol
_atom_site_label
_atom_site_fract_x
_atom_site_fract_y
_atom_site_fract_z
Si Si1 0.551936 0.814716 0.191051
Si Si2 0.943971 0.902700 0.000000
Si Si3 0.618904 0.088086 0.272390
Si Si4 0.285713 0.408218 0.303524
Si Si5 0.702119 0.201863 0.071250
Si Si6 0.889450 0.798262 0.106313
O O1 0.500000 0.834329 0.173269
O O2 0.550828 0.750000 0.250000
O O3 0.579208 0.887828 0.222363
O O4 0.578814 0.774532 0.131723
O O5 0.918978 0.856947 0.059911
O O6 0.000000 0.891158 0.000000
O O7 0.936225 0.000000 0.000000
O O8 0.665868 0.089265 0.232830
O O9 0.622306 0.151054 0.329888
O O10 0.610606 0.000000 0.299716
O O11 0.270930 0.500000 0.318510
O O12 0.250000 0.374620 0.250000
O O13 0.293118 0.358071 0.368468
O O14 0.750000 0.250000 0.071380
O O15 0.657935 0.260577 0.079426
O O16 0.697610 0.162845 0.000000
#
# Coordination Sequence:
#
# PCOD9512249 Si02
#       6
#    32  16  32  32  32  32
#     4   9  18  32  53  79 107 144 190 239 291 344
#     4  11  24  40  59  84 117 159 202 247 306 370
#     4  10  20  33  54  83 114 148 189 240 294 345
#     4  10  21  38  60  87 118 154 196 243 297 352
#     4  11  23  38  60  88 118 154 199 242 292 357
#     4  11  20  37  57  82 115 154 197 245 291 356
#
# _framework density 17.562307000000001
#
# number of rings (size 3 to 8) (size 9 to 14) (size 15 to 20)
#    0.000    1.727    2.727    2.182    0.000    3.273 
#    0.000    0.909    0.000    0.000    0.000    0.000 
#    0.000    5.818    0.000    0.000    0.000    0.000 
#
# Total GULP energy -245228.772282 kJ/mol
# GULP energy per Si atom -5573.381188 kJ/mol
# Density = 1.752233 g / cm^3
# Si number density = 17.562307 Si / 1000 Ang^3
#
#
#
# Elastic Constant Matrix: (Units=GPa)
#
#
# Indices 1 2 3 4 5 6 
#
# 1 128.5875 29.8703 40.7703 0.0000 0.0000 0.0000
# 2 29.8703 53.4852 47.2508 0.0000 0.0000 0.0000
# 3 40.7703 47.2508 118.7431 0.0000 0.0000 0.0000
# 4 0.0000 0.0000 0.0000 23.0433 0.0000 0.0000
# 5 0.0000 0.0000 0.0000 0.0000 22.3466 0.0000
# 6 0.0000 0.0000 0.0000 0.0000 0.0000 34.7980
#
#
#
# Elastic Compliance Matrix: (Units=1/GPa)
#
#
# Indices 1 2 3 4 5 6 
#
# 1 0.009156 -0.003603 -0.001710 0.000000 0.000000 0.000000
# 2 -0.003603 0.030250 -0.010800 0.000000 0.000000 0.000000
# 3 -0.001710 -0.010800 0.013306 0.000000 0.000000 0.000000
# 4 0.000000 0.000000 0.000000 0.043397 0.000000 0.000000
# 5 0.000000 0.000000 0.000000 0.000000 0.044750 0.000000
# 6 0.000000 0.000000 0.000000 0.000000 0.000000 0.028737
#
#
# Mechanical properties :
#
#
# Convention : Reuss Voigt Hill
#
# Bulk Modulus (GPa) = 48.81288 59.62208 54.21748
# Shear Modulus (GPa) = 23.96351 28.23255 26.09803
#
# Velocity S-wave (km/s) = 3.69790 4.01379 3.85908
# Velocity P-wave (km/s) = 6.78875 7.45005 7.12708
#
# Compressibility (1/GPa) = 0.02048640
#
# Stress axis : x y z
#
# Youngs Moduli (GPa) = 109.21944 33.05773 75.15179
#
# Poissons Ratio (x) = 0.11909 0.12852
# Poissons Ratio (y) = 0.39347 0.81166
# Poissons Ratio (z) = 0.18678 0.35703
#
# Static dielectric constant tensor:
#      x y z
#    x 1.596950 0.000000 0.000000 
#    y 0.000000 1.604400 0.000000 
#    z 0.000000 0.000000 1.602170 
# 
# From -- ./inp_files/23539.got.cif
#   From: 2010.05.17/outbox.cif.g08.bks.cpg/sg69_12_cif.got.tgz:23539.got - 2010.06.03 19:29:58.
