data_PCOD9512536
_publ_section_title
;
Structure prediction by ZEFSAII (Michael W. Deem and Ramdas Pophale) SiO2 
 PCOD9512536
Probable space group: F M M M
;
_chemical_formula_sum "Si O2"
_cell_formula_units_Z 192
_cell_length_a 17.415656
_cell_length_b 31.593446
_cell_length_c 20.006048
_cell_angle_alpha 90.000000
_cell_angle_beta 90.000000
_cell_angle_gamma 90.000000
_cell_volume 11007.739482
_symmetry_space_group_name_H-M "F M M M"
_symmetry_group_IT_number 69
_symmetry_cell_setting 'orthorhombic'
loop_
_space_group_symop_operation_xyz
x,y,z
-x,-y,z
x,-y,-z
-x,y,-z
-x,-y,-z
x,y,-z
-x,y,z
x,-y,z
x,1/2+y,1/2+z
-x,1/2-y,1/2+z
x,1/2-y,1/2-z
-x,1/2+y,1/2-z
-x,1/2-y,1/2-z
x,1/2+y,1/2-z
-x,1/2+y,1/2+z
x,1/2-y,1/2+z
1/2+x,y,1/2+z
1/2-x,-y,1/2+z
1/2+x,-y,1/2-z
1/2-x,y,1/2-z
1/2-x,-y,1/2-z
1/2+x,y,1/2-z
1/2-x,y,1/2+z
1/2+x,-y,1/2+z
1/2+x,1/2+y,z
1/2-x,1/2-y,z
1/2+x,1/2-y,-z
1/2-x,1/2+y,-z
1/2-x,1/2-y,-z
1/2+x,1/2+y,-z
1/2-x,1/2+y,z
1/2+x,1/2-y,z
loop_
_atom_site_type_symbol
_atom_site_label
_atom_site_fract_x
_atom_site_fract_y
_atom_site_fract_z
Si Si1 0.841449 0.500000 0.762813
Si Si2 0.907883 0.912097 0.315868
Si Si3 0.086744 0.648487 0.309496
Si Si4 0.139148 0.591161 0.573779
Si Si5 0.694621 0.368912 0.578441
Si Si6 0.767353 0.701012 0.671998
Si Si7 0.908477 0.000000 0.114053
O O1 0.750000 0.500000 0.750000
O O2 0.867791 0.456969 0.799719
O O3 0.884125 0.500000 0.691486
O O4 0.889683 0.878227 0.256550
O O5 0.874132 0.892598 0.383834
O O6 0.000000 0.917451 0.317124
O O7 0.091997 0.614683 0.369167
O O8 0.144452 0.685601 0.331102
O O9 0.000000 0.663553 0.299669
O O10 0.116570 0.606062 0.500000
O O11 0.228717 0.602209 0.583204
O O12 0.124939 0.541791 0.580871
O O13 0.680249 0.360404 0.500000
O O14 0.717927 0.327565 0.621409
O O15 0.750000 0.692833 0.750000
O O16 0.750000 0.750000 0.658681
O O17 0.000000 0.000000 0.108266
#
# Coordination Sequence:
#
# PCOD9512536 Si02
#       7
#    16  32  32  32  32  32  16
#     4  12  24  35  58  85 114 156 201 254 290 331
#     4  11  22  38  58  85 117 153 197 244 291 340
#     4  10  20  35  58  84 117 152 190 234 287 352
#     4  10  21  34  52  80 116 155 192 235 290 349
#     4  10  22  40  61  84 112 153 201 241 286 345
#     4  10  20  37  62  89 119 149 187 238 295 358
#     4  12  21  32  50  79 117 149 188 236 289 346
#
# _framework density 17.442274000000001
#
# number of rings (size 3 to 8) (size 9 to 14) (size 15 to 20)
#    0.000    1.500    3.333    2.500    2.333    2.333 
#    0.000    3.750    0.000    1.000    0.000    0.000 
#    0.000    0.000    0.000    0.000    0.000    0.000 
#
# Total GULP energy -267840.979380 kJ/mol
# GULP energy per Si atom -5580.020404 kJ/mol
# Density = 1.740257 g / cm^3
# Si number density = 17.442274 Si / 1000 Ang^3
#
#
#
# Elastic Constant Matrix: (Units=GPa)
#
#
# Indices 1 2 3 4 5 6 
#
# 1 75.5539 72.1618 31.8286 0.0000 0.0000 0.0000
# 2 72.1618 123.8859 47.5339 0.0000 0.0000 0.0000
# 3 31.8286 47.5339 117.3766 0.0000 0.0000 0.0000
# 4 0.0000 0.0000 0.0000 11.1234 0.0000 0.0000
# 5 0.0000 0.0000 0.0000 0.0000 17.3084 0.0000
# 6 0.0000 0.0000 0.0000 0.0000 0.0000 10.7567
#
#
#
# Elastic Compliance Matrix: (Units=1/GPa)
#
#
# Indices 1 2 3 4 5 6 
#
# 1 0.029987 -0.016986 -0.001252 0.000000 0.000000 0.000000
# 2 -0.016986 0.019179 -0.003161 0.000000 0.000000 0.000000
# 3 -0.001252 -0.003161 0.010139 0.000000 0.000000 0.000000
# 4 0.000000 0.000000 0.000000 0.089901 0.000000 0.000000
# 5 0.000000 0.000000 0.000000 0.000000 0.057775 0.000000
# 6 0.000000 0.000000 0.000000 0.000000 0.000000 0.092965
#
#
# Mechanical properties :
#
#
# Convention : Reuss Voigt Hill
#
# Bulk Modulus (GPa) = 60.58440 68.87389 64.72914
# Shear Modulus (GPa) = 14.35759 18.85718 16.60738
#
# Velocity S-wave (km/s) = 2.87217 3.29160 3.08901
# Velocity P-wave (km/s) = 6.76822 7.34974 7.06497
#
# Compressibility (1/GPa) = 0.01650590
#
# Stress axis : x y z
#
# Youngs Moduli (GPa) = 33.34777 52.14019 98.62672
#
# Poissons Ratio (x) = 0.88568 0.12353
# Poissons Ratio (y) = 0.56646 0.31174
# Poissons Ratio (z) = 0.04177 0.16480
#
# Static dielectric constant tensor:
#      x y z
#    x 1.605150 0.000000 0.000000 
#    y 0.000000 1.610770 0.000000 
#    z 0.000000 0.000000 1.589150 
# 
# From -- ./inp_files/23740.got.cif
#   From: 2010.05.17/outbox.cif.g08.bks.cpg/sg69_12_cif.got.tgz:23740.got - 2010.06.03 19:29:58.
