data_PCOD9512338
_publ_section_title
;
Structure prediction by ZEFSAII (Michael W. Deem and Ramdas Pophale) SiO2 
 PCOD9512338
Probable space group: F M M M
;
_chemical_formula_sum "Si O2"
_cell_formula_units_Z 240
_cell_length_a 26.314943
_cell_length_b 27.540856
_cell_length_c 19.414216
_cell_angle_alpha 90.000000
_cell_angle_beta 90.000000
_cell_angle_gamma 90.000000
_cell_volume 14070.182331
_symmetry_space_group_name_H-M "F M M M"
_symmetry_group_IT_number 69
_symmetry_cell_setting 'orthorhombic'
loop_
_space_group_symop_operation_xyz
x,y,z
-x,-y,z
x,-y,-z
-x,y,-z
-x,-y,-z
x,y,-z
-x,y,z
x,-y,z
x,1/2+y,1/2+z
-x,1/2-y,1/2+z
x,1/2-y,1/2-z
-x,1/2+y,1/2-z
-x,1/2-y,1/2-z
x,1/2+y,1/2-z
-x,1/2+y,1/2+z
x,1/2-y,1/2+z
1/2+x,y,1/2+z
1/2-x,-y,1/2+z
1/2+x,-y,1/2-z
1/2-x,y,1/2-z
1/2-x,-y,1/2-z
1/2+x,y,1/2-z
1/2-x,y,1/2+z
1/2+x,-y,1/2+z
1/2+x,1/2+y,z
1/2-x,1/2-y,z
1/2+x,1/2-y,-z
1/2-x,1/2+y,-z
1/2-x,1/2-y,-z
1/2+x,1/2+y,-z
1/2-x,1/2+y,z
1/2+x,1/2-y,z
loop_
_atom_site_type_symbol
_atom_site_label
_atom_site_fract_x
_atom_site_fract_y
_atom_site_fract_z
Si Si1 0.058155 0.651824 0.199466
Si Si2 0.691545 0.740379 0.831590
Si Si3 0.399092 0.281103 0.417866
Si Si4 0.189741 0.943458 0.252347
Si Si5 0.943647 0.827082 0.080966
Si Si6 0.601515 0.556824 0.647161
Si Si7 0.364794 0.643929 0.180512
Si Si8 0.558548 0.441517 0.500000
O O1 0.072357 0.679010 0.128362
O O2 0.066722 0.594146 0.189369
O O3 0.099453 0.665057 0.257786
O O4 0.000000 0.662815 0.217491
O O5 0.683884 0.750000 0.750000
O O6 0.750000 0.750000 0.847613
O O7 0.655134 0.771973 0.880779
O O8 0.676172 0.684299 0.840025
O O9 0.396235 0.291836 0.500000
O O10 0.427617 0.229265 0.409594
O O11 0.250000 0.933755 0.250000
O O12 0.159342 0.937155 0.325099
O O13 0.161804 0.905159 0.203693
O O14 0.182703 0.000000 0.232898
O O15 0.903520 0.861027 0.118117
O O16 0.000000 0.834343 0.108829
O O17 0.943553 0.835901 0.000000
O O18 0.588288 0.500000 0.656643
O O19 0.590129 0.570394 0.568295
O O20 0.553935 0.500000 0.500000
O O21 0.500000 0.422313 0.500000
#
# Coordination Sequence:
#
# PCOD9512338 Si02
#       8
#    32  32  32  32  32  32  32  16
#     4  11  21  31  48  74 102 135 171 207 254 300
#     4  10  20  34  54  75  98 132 171 211 260 302
#     4  10  21  35  48  72 106 136 169 210 256 308
#     4   9  19  35  56  77 100 133 171 214 263 306
#     4   9  18  34  55  76 102 137 170 205 258 316
#     4   9  19  33  48  69  97 131 173 212 247 301
#     4  10  20  34  55  77 104 130 173 218 252 305
#     4   9  16  28  46  66  94 132 165 198 243 293
#
# _framework density 17.057348000000001
#
# number of rings (size 3 to 8) (size 9 to 14) (size 15 to 20)
#    0.000    2.333    1.333    1.200    2.800    1.867 
#    0.000    2.000    1.467    1.600    0.000    0.933 
#    0.000    0.000    0.000    0.000    0.000    0.000 
#
# Total GULP energy -334215.999261 kJ/mol
# GULP energy per Si atom -5570.266654 kJ/mol
# Density = 1.701852 g / cm^3
# Si number density = 17.057348 Si / 1000 Ang^3
#
#
#
# Elastic Constant Matrix: (Units=GPa)
#
#
# Indices 1 2 3 4 5 6 
#
# 1 148.3961 55.4216 49.4131 0.0000 0.0000 0.0000
# 2 55.4216 53.2977 27.4359 0.0000 0.0000 0.0000
# 3 49.4131 27.4359 63.5063 0.0000 0.0000 0.0000
# 4 0.0000 0.0000 0.0000 18.4646 0.0000 0.0000
# 5 0.0000 0.0000 0.0000 0.0000 21.9160 0.0000
# 6 0.0000 0.0000 0.0000 0.0000 0.0000 13.0125
#
#
#
# Elastic Compliance Matrix: (Units=1/GPa)
#
#
# Indices 1 2 3 4 5 6 
#
# 1 0.012205 -0.010034 -0.005161 0.000000 0.000000 0.000000
# 2 -0.010034 0.032378 -0.006180 0.000000 0.000000 0.000000
# 3 -0.005161 -0.006180 0.022432 0.000000 0.000000 0.000000
# 4 0.000000 0.000000 0.000000 0.054158 0.000000 0.000000
# 5 0.000000 0.000000 0.000000 0.000000 0.045629 0.000000
# 6 0.000000 0.000000 0.000000 0.000000 0.000000 0.076849
#
#
# Mechanical properties :
#
#
# Convention : Reuss Voigt Hill
#
# Bulk Modulus (GPa) = 41.21453 58.86015 50.03734
# Shear Modulus (GPa) = 16.97843 19.54060 18.25951
#
# Velocity S-wave (km/s) = 3.15838 3.38832 3.27537
# Velocity P-wave (km/s) = 6.12497 7.06327 6.61079
#
# Compressibility (1/GPa) = 0.02426329
#
# Stress axis : x y z
#
# Youngs Moduli (GPa) = 81.93415 30.88491 44.57819
#
# Poissons Ratio (x) = 0.30991 0.23009
# Poissons Ratio (y) = 0.82216 0.27551
# Poissons Ratio (z) = 0.42289 0.19088
#
# Static dielectric constant tensor:
#      x y z
#    x 1.579690 0.000000 0.000000 
#    y 0.000000 1.575360 0.000000 
#    z 0.000000 0.000000 1.593330 
# 
# From -- ./inp_files/33055.got.cif
#   From: 2010.05.17/outbox.cif.g08.bks.cpg/sg69_17_cif.got.tgz:33055.got - 2010.06.03 19:29:58.
