data_PCOD9512344
_publ_section_title
;
Structure prediction by ZEFSAII (Michael W. Deem and Ramdas Pophale) SiO2 
 PCOD9512344
Probable space group: F M M M
;
_chemical_formula_sum "Si O2"
_cell_formula_units_Z 144
_cell_length_a 31.911913
_cell_length_b 18.411350
_cell_length_c 14.244100
_cell_angle_alpha 90.000000
_cell_angle_beta 90.000000
_cell_angle_gamma 90.000000
_cell_volume 8368.998447
_symmetry_space_group_name_H-M "F M M M"
_symmetry_group_IT_number 69
_symmetry_cell_setting 'orthorhombic'
loop_
_space_group_symop_operation_xyz
x,y,z
-x,-y,z
x,-y,-z
-x,y,-z
-x,-y,-z
x,y,-z
-x,y,z
x,-y,z
x,1/2+y,1/2+z
-x,1/2-y,1/2+z
x,1/2-y,1/2-z
-x,1/2+y,1/2-z
-x,1/2-y,1/2-z
x,1/2+y,1/2-z
-x,1/2+y,1/2+z
x,1/2-y,1/2+z
1/2+x,y,1/2+z
1/2-x,-y,1/2+z
1/2+x,-y,1/2-z
1/2-x,y,1/2-z
1/2-x,-y,1/2-z
1/2+x,y,1/2-z
1/2-x,y,1/2+z
1/2+x,-y,1/2+z
1/2+x,1/2+y,z
1/2-x,1/2-y,z
1/2+x,1/2-y,-z
1/2-x,1/2+y,-z
1/2-x,1/2-y,-z
1/2+x,1/2+y,-z
1/2-x,1/2+y,z
1/2+x,1/2-y,z
loop_
_atom_site_type_symbol
_atom_site_label
_atom_site_fract_x
_atom_site_fract_y
_atom_site_fract_z
Si Si1 0.083922 0.639455 0.782231
Si Si2 0.251659 0.161595 0.394594
Si Si3 0.449752 0.500000 0.390849
Si Si4 0.179686 0.338090 0.751421
Si Si5 0.549940 0.721089 0.109857
O O1 0.066118 0.570324 0.835563
O O2 0.133345 0.632418 0.763696
O O3 0.062097 0.657235 0.682223
O O4 0.074185 0.708915 0.849049
O O5 0.250424 0.134881 0.500000
O O6 0.250000 0.250000 0.395009
O O7 0.210962 0.139884 0.335237
O O8 0.294367 0.141060 0.341479
O O9 0.500000 0.500000 0.391142
O O10 0.435777 0.500000 0.500000
O O11 0.176087 0.250000 0.750000
O O12 0.500000 0.734661 0.116756
O O13 0.559945 0.708322 0.000000
#
# Coordination Sequence:
#
# PCOD9512344 Si02
#       5
#    32  32  16  32  32
#     4  11  20  35  55  79 109 140 177 228 268 316
#     4   8  15  26  44  69 105 142 167 206 261 313
#     4  11  24  40  57  78 107 145 182 220 275 333
#     4   9  16  29  45  75 107 133 174 215 260 313
#     4  10  20  34  54  79 104 135 176 223 277 325
#
# _framework density 17.206358999999999
#
# number of rings (size 3 to 8) (size 9 to 14) (size 15 to 20)
#    0.000    2.333    2.222    4.667    0.000    4.444 
#    0.000    0.556    0.000    4.667    0.000    1.556 
#    0.000    0.000    0.000    0.000    0.000    0.000 
#
# Total GULP energy -200662.863318 kJ/mol
# GULP energy per Si atom -5573.968425 kJ/mol
# Density = 1.716720 g / cm^3
# Si number density = 17.206359 Si / 1000 Ang^3
#
#
#
# Elastic Constant Matrix: (Units=GPa)
#
#
# Indices 1 2 3 4 5 6 
#
# 1 124.5442 20.7284 62.3311 0.0000 0.0000 0.0000
# 2 20.7284 56.8806 44.0568 0.0000 0.0000 0.0000
# 3 62.3311 44.0568 175.3863 0.0000 0.0000 0.0000
# 4 0.0000 0.0000 0.0000 10.2221 0.0000 0.0000
# 5 0.0000 0.0000 0.0000 0.0000 3.7266 0.0000
# 6 0.0000 0.0000 0.0000 0.0000 0.0000 19.7554
#
#
#
# Elastic Compliance Matrix: (Units=1/GPa)
#
#
# Indices 1 2 3 4 5 6 
#
# 1 0.009820 -0.001087 -0.003217 0.000000 0.000000 0.000000
# 2 -0.001087 0.021948 -0.005127 0.000000 0.000000 0.000000
# 3 -0.003217 -0.005127 0.008133 0.000000 0.000000 0.000000
# 4 0.000000 0.000000 0.000000 0.097827 0.000000 0.000000
# 5 0.000000 0.000000 0.000000 0.000000 0.268338 0.000000
# 6 0.000000 0.000000 0.000000 0.000000 0.000000 0.050619
#
#
# Mechanical properties :
#
#
# Convention : Reuss Voigt Hill
#
# Bulk Modulus (GPa) = 47.53052 67.89376 57.71214
# Shear Modulus (GPa) = 10.36141 22.05382 16.20761
#
# Velocity S-wave (km/s) = 2.45661 3.58400 3.07246
# Velocity P-wave (km/s) = 5.97749 7.52801 6.79711
#
# Compressibility (1/GPa) = 0.02103911
#
# Stress axis : x y z
#
# Youngs Moduli (GPa) = 101.83083 45.56250 122.95763
#
# Poissons Ratio (x) = 0.04952 0.39555
# Poissons Ratio (y) = 0.11069 0.63040
# Poissons Ratio (z) = 0.32759 0.23360
#
# Static dielectric constant tensor:
#      x y z
#    x 1.569840 0.000000 0.000000 
#    y 0.000000 1.541180 0.000000 
#    z 0.000000 0.000000 1.592540 
# 
# From -- ./inp_files/19441.got.cif
#   From: 2010.05.17/outbox.cif.g08.bks.cpg/sg69_10_cif.got.tgz:19441.got - 2010.06.03 19:29:58.
