data_PCOD9512747
_publ_section_title
;
Structure prediction by ZEFSAII (Michael W. Deem and Ramdas Pophale) SiO2 
 PCOD9512747
Probable space group: F M M M
;
_chemical_formula_sum "Si O2"
_cell_formula_units_Z 160
_cell_length_a 27.947228
_cell_length_b 10.299232
_cell_length_c 28.333441
_cell_angle_alpha 90.000000
_cell_angle_beta 90.000000
_cell_angle_gamma 90.000000
_cell_volume 8155.355563
_symmetry_space_group_name_H-M "F M M M"
_symmetry_group_IT_number 69
_symmetry_cell_setting 'orthorhombic'
loop_
_space_group_symop_operation_xyz
x,y,z
-x,-y,z
x,-y,-z
-x,y,-z
-x,-y,-z
x,y,-z
-x,y,z
x,-y,z
x,1/2+y,1/2+z
-x,1/2-y,1/2+z
x,1/2-y,1/2-z
-x,1/2+y,1/2-z
-x,1/2-y,1/2-z
x,1/2+y,1/2-z
-x,1/2+y,1/2+z
x,1/2-y,1/2+z
1/2+x,y,1/2+z
1/2-x,-y,1/2+z
1/2+x,-y,1/2-z
1/2-x,y,1/2-z
1/2-x,-y,1/2-z
1/2+x,y,1/2-z
1/2-x,y,1/2+z
1/2+x,-y,1/2+z
1/2+x,1/2+y,z
1/2-x,1/2-y,z
1/2+x,1/2-y,-z
1/2-x,1/2+y,-z
1/2-x,1/2-y,-z
1/2+x,1/2+y,-z
1/2-x,1/2+y,z
1/2+x,1/2-y,z
loop_
_atom_site_type_symbol
_atom_site_label
_atom_site_fract_x
_atom_site_fract_y
_atom_site_fract_z
Si Si1 0.310037 0.000000 0.445080
Si Si2 0.056444 0.147566 0.367258
Si Si3 0.192367 0.746370 0.886484
Si Si4 0.638387 0.345246 0.294612
Si Si5 0.306651 0.000000 0.946905
Si Si6 0.441631 0.149584 0.446926
O O1 0.323494 0.874806 0.414311
O O2 0.251662 0.000000 0.447857
O O3 0.326169 0.000000 0.500000
O O4 0.086465 0.160576 0.319509
O O5 0.072681 0.251501 0.406132
O O6 0.000000 0.165594 0.358779
O O7 0.063552 0.000000 0.384904
O O8 0.250000 0.750000 0.883811
O O9 0.172644 0.715325 0.834814
O O10 0.177988 0.625814 0.918839
O O11 0.648939 0.500000 0.285736
O O12 0.640626 0.250000 0.250000
O O13 0.324129 0.000000 0.000000
O O14 0.425858 0.185695 0.500000
O O15 0.500000 0.151419 0.447525
O O16 0.427512 0.000000 0.437903
#
# Coordination Sequence:
#
# PCOD9512747 Si02
#       6
#    16  32  32  32  16  32
#     4   9  18  32  57  91 122 155 191 229 279 339
#     4   9  19  37  60  83 110 145 189 240 291 346
#     4  10  20  37  60  88 120 154 193 235 283 344
#     4  11  25  43  61  83 113 151 196 249 301 344
#     4   9  16  32  59  87 120 157 189 229 283 343
#     4   8  14  27  50  80 113 148 183 222 274 336
#
# _framework density 19.619009999999999
#
# number of rings (size 3 to 8) (size 9 to 14) (size 15 to 20)
#    0.000    2.600    1.000    1.200    1.400    4.400 
#    0.000    5.000    0.000    0.000    0.000    0.000 
#    0.000    0.000    0.000    0.000    0.000    0.000 
#
# Total GULP energy -223304.108403 kJ/mol
# GULP energy per Si atom -5582.602710 kJ/mol
# Density = 1.957436 g / cm^3
# Si number density = 19.619010 Si / 1000 Ang^3
#
#
#
# Elastic Constant Matrix: (Units=GPa)
#
#
# Indices 1 2 3 4 5 6 
#
# 1 65.8502 39.1741 34.9386 0.0000 0.0000 0.0000
# 2 39.1741 191.6650 129.7891 0.0000 0.0000 -0.0001
# 3 34.9386 129.7891 186.9795 0.0000 0.0000 0.0000
# 4 0.0000 0.0000 0.0000 42.7693 0.0000 0.0000
# 5 0.0000 0.0000 0.0000 0.0000 27.9625 0.0000
# 6 0.0000 -0.0001 0.0000 0.0000 0.0000 21.2085
#
#
#
# Elastic Compliance Matrix: (Units=1/GPa)
#
#
# Indices 1 2 3 4 5 6 
#
# 1 0.017504 -0.002571 -0.001486 0.000000 0.000000 0.000000
# 2 -0.002571 0.010223 -0.006616 0.000000 0.000000 0.000000
# 3 -0.001486 -0.006616 0.010218 0.000000 0.000000 0.000000
# 4 0.000000 0.000000 0.000000 0.023381 0.000000 0.000000
# 5 0.000000 0.000000 0.000000 0.000000 0.035762 0.000000
# 6 0.000000 0.000000 0.000000 0.000000 0.000000 0.047151
#
#
# Mechanical properties :
#
#
# Convention : Reuss Voigt Hill
#
# Bulk Modulus (GPa) = 60.24409 94.69982 77.47195
# Shear Modulus (GPa) = 29.21964 34.42760 31.82362
#
# Velocity S-wave (km/s) = 3.86340 4.19359 4.03188
# Velocity P-wave (km/s) = 7.11862 8.47481 7.82615
#
# Compressibility (1/GPa) = 0.01659914
#
# Stress axis : x y z
#
# Youngs Moduli (GPa) = 57.12953 97.82033 97.86763
#
# Poissons Ratio (x) = 0.25154 0.14541
# Poissons Ratio (y) = 0.14691 0.64745
# Poissons Ratio (z) = 0.08488 0.64713
#
# Static dielectric constant tensor:
#      x y z
#    x 1.763600 0.000000 0.000000 
#    y 0.000000 1.671800 0.000000 
#    z 0.000000 0.000000 1.635540 
# 
# From -- ./inp_files/47458.got.cif
#   From: 2010.05.17/outbox.cif.g08.bks.cpg/sg69_24_cif.got.tgz:47458.got - 2010.06.03 19:29:58.
