data_PCOD9512183
_publ_section_title
;
Structure prediction by ZEFSAII (Michael W. Deem and Ramdas Pophale) SiO2 
 PCOD9512183
Probable space group: F M M M
;
_chemical_formula_sum "Si O2"
_cell_formula_units_Z 200
_cell_length_a 30.742498
_cell_length_b 19.908343
_cell_length_c 19.137146
_cell_angle_alpha 90.000000
_cell_angle_beta 90.000000
_cell_angle_gamma 90.000000
_cell_volume 11712.549470
_symmetry_space_group_name_H-M "F M M M"
_symmetry_group_IT_number 69
_symmetry_cell_setting 'orthorhombic'
loop_
_space_group_symop_operation_xyz
x,y,z
-x,-y,z
x,-y,-z
-x,y,-z
-x,-y,-z
x,y,-z
-x,y,z
x,-y,z
x,1/2+y,1/2+z
-x,1/2-y,1/2+z
x,1/2-y,1/2-z
-x,1/2+y,1/2-z
-x,1/2-y,1/2-z
x,1/2+y,1/2-z
-x,1/2+y,1/2+z
x,1/2-y,1/2+z
1/2+x,y,1/2+z
1/2-x,-y,1/2+z
1/2+x,-y,1/2-z
1/2-x,y,1/2-z
1/2-x,-y,1/2-z
1/2+x,y,1/2-z
1/2-x,y,1/2+z
1/2+x,-y,1/2+z
1/2+x,1/2+y,z
1/2-x,1/2-y,z
1/2+x,1/2-y,-z
1/2-x,1/2+y,-z
1/2-x,1/2-y,-z
1/2+x,1/2+y,-z
1/2-x,1/2+y,z
1/2+x,1/2-y,z
loop_
_atom_site_type_symbol
_atom_site_label
_atom_site_fract_x
_atom_site_fract_y
_atom_site_fract_z
Si Si1 0.750000 0.750000 0.750000
Si Si2 0.381375 0.245370 0.080481
Si Si3 0.666530 0.886194 0.579133
Si Si4 0.322932 0.845982 0.819963
Si Si5 0.737605 0.920524 0.079210
Si Si6 0.051324 0.802897 0.813171
Si Si7 0.884224 0.422965 0.289045
O O1 0.715805 0.797030 0.792707
O O2 0.349976 0.310080 0.078255
O O3 0.357378 0.193477 0.131616
O O4 0.424794 0.271792 0.118971
O O5 0.388031 0.222807 0.000000
O O6 0.664187 0.913085 0.500000
O O7 0.716592 0.888852 0.601206
O O8 0.636793 0.924301 0.633944
O O9 0.299703 0.900242 0.868487
O O10 0.349143 0.883250 0.758597
O O11 0.743817 0.000000 0.078492
O O12 0.727691 0.897644 0.000000
O O13 0.058414 0.750000 0.750000
O O14 0.074243 0.873576 0.793818
O O15 0.000000 0.811018 0.823841
O O16 0.892194 0.500000 0.265994
#
# Coordination Sequence:
#
# PCOD9512183 Si02
#       7
#     8  32  32  32  32  32  32
#     4  12  24  32  52  76 110 156 204 240 276 300
#     4  10  20  35  57  83 109 141 182 229 281 333
#     4   9  19  34  52  75 105 144 188 230 274 322
#     4  12  21  35  49  77 110 148 190 236 272 316
#     4  10  20  33  49  70 102 146 189 229 273 318
#     4  10  20  39  62  84 108 137 174 222 276 337
#     4  11  22  35  56  83 112 146 182 224 280 339
#
# _framework density 17.075702
#
# number of rings (size 3 to 8) (size 9 to 14) (size 15 to 20)
#    0.000    1.600    1.600    5.280    0.000    1.600 
#    0.000    5.600    0.000    0.000    0.000    4.480 
#    0.000    2.560    0.000    0.000    0.000    0.000 
#
# Total GULP energy -278904.259880 kJ/mol
# GULP energy per Si atom -5578.085198 kJ/mol
# Density = 1.703684 g / cm^3
# Si number density = 17.075702 Si / 1000 Ang^3
#
#
#
# Elastic Constant Matrix: (Units=GPa)
#
#
# Indices 1 2 3 4 5 6 
#
# 1 120.0683 46.2179 55.0934 0.0000 0.0000 0.0000
# 2 46.2179 71.7093 45.4514 0.0000 0.0000 0.0000
# 3 55.0934 45.4514 71.6549 0.0000 0.0000 0.0000
# 4 0.0000 0.0000 0.0000 20.9213 0.0000 0.0000
# 5 0.0000 0.0000 0.0000 0.0000 9.3981 0.0000
# 6 0.0000 0.0000 0.0000 0.0000 0.0000 -22.3517
#
#
#
# Elastic Compliance Matrix: (Units=1/GPa)
#
#
# Indices 1 2 3 4 5 6 
#
# 1 0.013379 -0.003517 -0.008056 0.000000 0.000000 0.000000
# 2 -0.003517 0.024246 -0.012675 0.000000 0.000000 0.000000
# 3 -0.008056 -0.012675 0.028190 0.000000 0.000000 0.000000
# 4 0.000000 0.000000 0.000000 0.047798 0.000000 0.000000
# 5 0.000000 0.000000 0.000000 0.000000 0.106404 0.000000
# 6 0.000000 0.000000 0.000000 0.000000 0.000000 -0.044739
#
#
# Mechanical properties :
#
#
# Convention : Reuss Voigt Hill
#
# Bulk Modulus (GPa) = 57.74216 61.88420 59.81318
# Shear Modulus (GPa) = 21.78213 9.37155 15.57684
#
# Velocity S-wave (km/s) = 3.57546 2.34524 3.02358
# Velocity P-wave (km/s) = 7.13681 6.60706 6.87704
#
# Compressibility (1/GPa) = 0.01731837
#
# Stress axis : x y z
#
# Youngs Moduli (GPa) = 74.74555 41.24416 35.47397
#
# Poissons Ratio (x) = 0.14505 0.28577
# Poissons Ratio (y) = 0.26287 0.44964
# Poissons Ratio (z) = 0.60213 0.52278
#
# Static dielectric constant tensor:
#      x y z
#    x 1.547680 0.000000 0.000000 
#    y 0.000000 1.589730 0.000000 
#    z 0.000000 0.000000 1.606270 
# 
# From -- ./inp_files/27919.got.cif
#   From: 2010.05.17/outbox.cif.g08.bks.cpg/sg69_14_cif.got.tgz:27919.got - 2010.06.03 19:29:58.
