data_PCOD9512564
_publ_section_title
;
Structure prediction by ZEFSAII (Michael W. Deem and Ramdas Pophale) SiO2 
 PCOD9512564
Probable space group: F M M M
;
_chemical_formula_sum "Si O2"
_cell_formula_units_Z 144
_cell_length_a 24.429188
_cell_length_b 18.070227
_cell_length_c 15.082183
_cell_angle_alpha 90.000000
_cell_angle_beta 90.000000
_cell_angle_gamma 90.000000
_cell_volume 6657.893532
_symmetry_space_group_name_H-M "F M M M"
_symmetry_group_IT_number 69
_symmetry_cell_setting 'orthorhombic'
loop_
_space_group_symop_operation_xyz
x,y,z
-x,-y,z
x,-y,-z
-x,y,-z
-x,-y,-z
x,y,-z
-x,y,z
x,-y,z
x,1/2+y,1/2+z
-x,1/2-y,1/2+z
x,1/2-y,1/2-z
-x,1/2+y,1/2-z
-x,1/2-y,1/2-z
x,1/2+y,1/2-z
-x,1/2+y,1/2+z
x,1/2-y,1/2+z
1/2+x,y,1/2+z
1/2-x,-y,1/2+z
1/2+x,-y,1/2-z
1/2-x,y,1/2-z
1/2-x,-y,1/2-z
1/2+x,y,1/2-z
1/2-x,y,1/2+z
1/2+x,-y,1/2+z
1/2+x,1/2+y,z
1/2-x,1/2-y,z
1/2+x,1/2-y,-z
1/2-x,1/2+y,-z
1/2-x,1/2-y,-z
1/2+x,1/2+y,-z
1/2-x,1/2+y,z
1/2+x,1/2-y,z
loop_
_atom_site_type_symbol
_atom_site_label
_atom_site_fract_x
_atom_site_fract_y
_atom_site_fract_z
Si Si1 0.061550 0.089645 0.901545
Si Si2 0.159339 0.585839 0.277710
Si Si3 0.000000 0.085824 0.606505
Si Si4 0.619231 0.648754 0.601408
Si Si5 0.693212 0.224460 0.352875
O O1 0.100606 0.106987 0.820604
O O2 0.000000 0.117692 0.889448
O O3 0.059181 0.000000 0.903637
O O4 0.081209 0.112706 0.000000
O O5 0.170381 0.500000 0.288230
O O6 0.155914 0.606812 0.174618
O O7 0.196509 0.636622 0.340018
O O8 0.943904 0.130097 0.626644
O O9 0.000000 0.078823 0.500000
O O10 0.000000 0.000000 0.642633
O O11 0.626660 0.623358 0.500000
O O12 0.640806 0.733709 0.606344
O O13 0.691373 0.250000 0.250000
O O14 0.750000 0.250000 0.394611
#
# Coordination Sequence:
#
# PCOD9512564 Si02
#       5
#    32  32  16  32  32
#     4   8  15  29  49  77 115 152 185 228 285 345
#     4  10  20  35  60  91 118 152 198 251 303 358
#     4   9  18  34  55  82 122 164 203 247 286 340
#     4  10  21  37  58  87 123 166 204 240 299 367
#     4   9  20  41  60  81 116 158 205 255 310 366
#
# _framework density 21.628461999999999
#
# number of rings (size 3 to 8) (size 9 to 14) (size 15 to 20)
#    0.000    2.778    0.000    1.333    1.556    2.667 
#    2.000   11.667    0.000    0.000    0.000    0.000 
#    0.000    0.000    0.000    0.000    0.000    0.000 
#
# Total GULP energy -200405.816532 kJ/mol
# GULP energy per Si atom -5566.828237 kJ/mol
# Density = 2.157923 g / cm^3
# Si number density = 21.628462 Si / 1000 Ang^3
#
#
#
# Elastic Constant Matrix: (Units=GPa)
#
#
# Indices 1 2 3 4 5 6 
#
# 1 81.5179 51.1720 24.3213 0.0000 0.0000 0.0000
# 2 51.1720 133.2833 23.9996 0.0000 0.0000 0.0000
# 3 24.3213 23.9996 97.5373 0.0000 0.0000 0.0000
# 4 0.0000 0.0000 0.0000 7.1743 0.0000 0.0000
# 5 0.0000 0.0000 0.0000 0.0000 -66.8493 0.0000
# 6 0.0000 0.0000 0.0000 0.0000 0.0000 26.5613
#
#
#
# Elastic Compliance Matrix: (Units=1/GPa)
#
#
# Indices 1 2 3 4 5 6 
#
# 1 0.016829 -0.005970 -0.002727 0.000000 0.000000 0.000000
# 2 -0.005970 0.009968 -0.000964 0.000000 0.000000 0.000000
# 3 -0.002727 -0.000964 0.011170 0.000000 0.000000 0.000000
# 4 0.000000 0.000000 0.000000 0.139386 0.000000 0.000000
# 5 0.000000 0.000000 0.000000 0.000000 -0.014959 0.000000
# 6 0.000000 0.000000 0.000000 0.000000 0.000000 0.037649
#
#
# Mechanical properties :
#
#
# Convention : Reuss Voigt Hill
#
# Bulk Modulus (GPa) = 53.63675 56.81381 55.22528
# Shear Modulus (GPa) = 22.16508 7.56698 14.86603
#
# Velocity S-wave (km/s) = 3.20474 1.87249 2.62455
# Velocity P-wave (km/s) = 6.20861 5.56777 5.89690
#
# Compressibility (1/GPa) = 0.01864394
#
# Stress axis : x y z
#
# Youngs Moduli (GPa) = 59.42289 100.31609 89.52711
#
# Poissons Ratio (x) = 0.59888 0.24417
# Poissons Ratio (y) = 0.35475 0.08632
# Poissons Ratio (z) = 0.16207 0.09672
#
# Static dielectric constant tensor:
#      x y z
#    x 1.868790 0.000000 0.000000 
#    y 0.000000 1.859970 0.000000 
#    z 0.000000 0.000000 1.787660 
# 
# From -- ./inp_files/22844.got.cif
#   From: 2010.05.17/outbox.cif.g08.bks.cpg/sg69_12_cif.got.tgz:22844.got - 2010.06.03 19:29:58.
