data_PCOD9512024
_publ_section_title
;
Structure prediction by ZEFSAII (Michael W. Deem and Ramdas Pophale) SiO2 
 PCOD9512024
Probable space group: F M M M
;
_chemical_formula_sum "Si O2"
_cell_formula_units_Z 136
_cell_length_a 10.846524
_cell_length_b 25.910220
_cell_length_c 22.421783
_cell_angle_alpha 90.000000
_cell_angle_beta 90.000000
_cell_angle_gamma 90.000000
_cell_volume 6301.324240
_symmetry_space_group_name_H-M "F M M M"
_symmetry_group_IT_number 69
_symmetry_cell_setting 'orthorhombic'
loop_
_space_group_symop_operation_xyz
x,y,z
-x,-y,z
x,-y,-z
-x,y,-z
-x,-y,-z
x,y,-z
-x,y,z
x,-y,z
x,1/2+y,1/2+z
-x,1/2-y,1/2+z
x,1/2-y,1/2-z
-x,1/2+y,1/2-z
-x,1/2-y,1/2-z
x,1/2+y,1/2-z
-x,1/2+y,1/2+z
x,1/2-y,1/2+z
1/2+x,y,1/2+z
1/2-x,-y,1/2+z
1/2+x,-y,1/2-z
1/2-x,y,1/2-z
1/2-x,-y,1/2-z
1/2+x,y,1/2-z
1/2-x,y,1/2+z
1/2+x,-y,1/2+z
1/2+x,1/2+y,z
1/2-x,1/2-y,z
1/2+x,1/2-y,-z
1/2-x,1/2+y,-z
1/2-x,1/2-y,-z
1/2+x,1/2+y,-z
1/2-x,1/2+y,z
1/2+x,1/2-y,z
loop_
_atom_site_type_symbol
_atom_site_label
_atom_site_fract_x
_atom_site_fract_y
_atom_site_fract_z
Si Si1 0.727252 0.500000 0.069646
Si Si2 0.137437 0.786283 0.072106
Si Si3 0.750000 0.134129 0.750000
Si Si4 0.000000 0.114886 0.376124
Si Si5 0.232837 0.107137 0.117029
Si Si6 0.000000 0.309655 0.766487
Si Si7 0.500000 0.500000 0.376856
O O1 0.677614 0.553347 0.096009
O O2 0.873769 0.500000 0.085546
O O3 0.709192 0.500000 0.000000
O O4 0.250000 0.750000 0.093085
O O5 0.156037 0.842986 0.099123
O O6 0.000000 0.767027 0.087665
O O7 0.144413 0.789500 0.000000
O O8 0.742757 0.103884 0.812034
O O9 0.872347 0.167921 0.758046
O O10 0.870418 0.115884 0.410615
O O11 0.000000 0.164327 0.332581
O O12 0.000000 0.056749 0.345975
O O13 0.000000 0.250000 0.750000
#
# Coordination Sequence:
#
# PCOD9512024 Si02
#       7
#    16  32  16  16  32  16   8
#     4  10  19  35  62  93 123 163 206 259 321 372
#     4  10  23  42  64  91 125 167 214 264 317 377
#     4  10  23  39  58  88 124 167 207 252 320 368
#     4   8  18  33  54  86 119 160 201 260 310 360
#     4  10  21  38  61  90 128 162 212 260 314 383
#     4  10  20  36  57  85 120 158 207 256 303 369
#     4   8  15  32  54  84 120 152 204 252 305 368
#
# _framework density 21.582765999999999
#
# number of rings (size 3 to 8) (size 9 to 14) (size 15 to 20)
#    0.000    2.353    0.000    1.235    3.294    4.235 
#    0.000    2.941    0.000    2.118    0.000    0.000 
#    0.000    0.000    0.000    0.000    0.000    0.000 
#
# Total GULP energy -189550.287541 kJ/mol
# GULP energy per Si atom -5575.008457 kJ/mol
# Density = 2.153364 g / cm^3
# Si number density = 21.582766 Si / 1000 Ang^3
#
#
#
# Elastic Constant Matrix: (Units=GPa)
#
#
# Indices 1 2 3 4 5 6 
#
# 1 117.7884 40.3744 20.0733 0.0000 0.0000 0.0000
# 2 40.3744 174.2262 69.4997 0.0000 0.0000 0.0000
# 3 20.0733 69.4997 67.5723 0.0000 0.0000 0.0000
# 4 0.0000 0.0000 0.0000 25.1351 0.0000 0.0000
# 5 0.0000 0.0000 0.0000 0.0000 17.9503 0.0000
# 6 0.0000 0.0000 0.0000 0.0000 0.0000 28.2612
#
#
#
# Elastic Compliance Matrix: (Units=1/GPa)
#
#
# Indices 1 2 3 4 5 6 
#
# 1 0.009256 -0.001777 -0.000922 0.000000 0.000000 0.000000
# 2 -0.001777 0.010074 -0.009834 0.000000 0.000000 0.000000
# 3 -0.000922 -0.009834 0.025187 0.000000 0.000000 0.000000
# 4 0.000000 0.000000 0.000000 0.039785 0.000000 0.000000
# 5 0.000000 0.000000 0.000000 0.000000 0.055709 0.000000
# 6 0.000000 0.000000 0.000000 0.000000 0.000000 0.035384
#
#
# Mechanical properties :
#
#
# Convention : Reuss Voigt Hill
#
# Bulk Modulus (GPa) = 51.40853 68.83131 60.11992
# Shear Modulus (GPa) = 24.16104 29.57862 26.86983
#
# Velocity S-wave (km/s) = 3.34946 3.70601 3.53224
# Velocity P-wave (km/s) = 6.23133 7.09039 6.67470
#
# Compressibility (1/GPa) = 0.01945203
#
# Stress axis : x y z
#
# Youngs Moduli (GPa) = 108.03714 99.26355 39.70334
#
# Poissons Ratio (x) = 0.17642 0.03659
# Poissons Ratio (y) = 0.19202 0.39043
# Poissons Ratio (z) = 0.09957 0.97611
#
# Static dielectric constant tensor:
#      x y z
#    x 1.827060 0.000000 0.000000 
#    y 0.000000 1.784930 0.000000 
#    z 0.000000 0.000000 1.791390 
# 
# From -- ./inp_files/40076.got.cif
#   From: 2010.05.17/outbox.cif.g08.bks.cpg/sg69_21_cif.got.tgz:40076.got - 2010.06.03 19:29:58.
