data_PCOD9512362
_publ_section_title
;
Structure prediction by ZEFSAII (Michael W. Deem and Ramdas Pophale) SiO2 
 PCOD9512362
Probable space group: F M M M
;
_chemical_formula_sum "Si O2"
_cell_formula_units_Z 160
_cell_length_a 24.380668
_cell_length_b 21.324504
_cell_length_c 15.508055
_cell_angle_alpha 90.000000
_cell_angle_beta 90.000000
_cell_angle_gamma 90.000000
_cell_volume 8062.725451
_symmetry_space_group_name_H-M "F M M M"
_symmetry_group_IT_number 69
_symmetry_cell_setting 'orthorhombic'
loop_
_space_group_symop_operation_xyz
x,y,z
-x,-y,z
x,-y,-z
-x,y,-z
-x,-y,-z
x,y,-z
-x,y,z
x,-y,z
x,1/2+y,1/2+z
-x,1/2-y,1/2+z
x,1/2-y,1/2-z
-x,1/2+y,1/2-z
-x,1/2-y,1/2-z
x,1/2+y,1/2-z
-x,1/2+y,1/2+z
x,1/2-y,1/2+z
1/2+x,y,1/2+z
1/2-x,-y,1/2+z
1/2+x,-y,1/2-z
1/2-x,y,1/2-z
1/2-x,-y,1/2-z
1/2+x,y,1/2-z
1/2-x,y,1/2+z
1/2+x,-y,1/2+z
1/2+x,1/2+y,z
1/2-x,1/2-y,z
1/2+x,1/2-y,-z
1/2-x,1/2+y,-z
1/2-x,1/2-y,-z
1/2+x,1/2+y,-z
1/2-x,1/2+y,z
1/2+x,1/2-y,z
loop_
_atom_site_type_symbol
_atom_site_label
_atom_site_fract_x
_atom_site_fract_y
_atom_site_fract_z
Si Si1 0.682281 0.929548 0.658773
Si Si2 0.500000 0.349137 0.094335
Si Si3 0.622493 0.191290 0.596514
Si Si4 0.306079 0.429869 0.634576
Si Si5 0.000000 0.175903 0.280656
Si Si6 0.393742 0.175499 0.899235
O O1 0.642426 0.871987 0.640349
O O2 0.689571 0.931368 0.761552
O O3 0.741939 0.916837 0.616860
O O4 0.664193 0.000000 0.631410
O O5 0.443527 0.311028 0.092091
O O6 0.500000 0.369091 0.195480
O O7 0.500000 0.384846 0.000000
O O8 0.645337 0.188943 0.500000
O O9 0.634756 0.259778 0.633072
O O10 0.318603 0.500000 0.603143
O O11 0.349353 0.379399 0.603413
O O12 0.000000 0.250000 0.250000
O O13 0.053971 0.164309 0.338265
O O14 0.410166 0.184465 0.000000
#
# Coordination Sequence:
#
# PCOD9512362 Si02
#       6
#    32  16  32  32  16  32
#     4   9  19  37  58  82 112 153 207 252 297 362
#     4  10  20  35  55  85 118 147 188 241 295 360
#     4  10  20  34  54  82 115 148 189 244 300 354
#     4   9  20  38  59  81 113 158 202 249 302 353
#     4  12  21  35  63  85 113 160 191 231 308 356
#     4  11  23  37  57  89 123 155 202 251 292 359
#
# _framework density 19.844405999999999
#
# number of rings (size 3 to 8) (size 9 to 14) (size 15 to 20)
#    0.000    2.000    2.000    2.700    0.000    2.400 
#    0.000    7.000    0.000    6.600    0.000    0.000 
#    0.000    0.000    0.000    0.000    0.000    0.000 
#
# Total GULP energy -222752.128734 kJ/mol
# GULP energy per Si atom -5568.803218 kJ/mol
# Density = 1.979924 g / cm^3
# Si number density = 19.844406 Si / 1000 Ang^3
#
#
#
# Elastic Constant Matrix: (Units=GPa)
#
#
# Indices 1 2 3 4 5 6 
#
# 1 84.6682 79.6103 25.0566 0.0000 0.0000 0.0000
# 2 79.6103 130.0738 27.0605 0.0000 0.0000 0.0000
# 3 25.0566 27.0605 98.0263 0.0000 0.0000 0.0000
# 4 0.0000 0.0000 0.0000 17.9670 0.0000 0.0000
# 5 0.0000 0.0000 0.0000 0.0000 0.4376 0.0000
# 6 0.0000 0.0000 0.0000 0.0000 0.0000 32.5902
#
#
#
# Elastic Compliance Matrix: (Units=1/GPa)
#
#
# Indices 1 2 3 4 5 6 
#
# 1 0.028439 -0.016862 -0.002615 0.000000 0.000000 0.000000
# 2 -0.016862 0.018154 -0.000701 0.000000 0.000000 0.000000
# 3 -0.002615 -0.000701 0.011063 0.000000 0.000000 0.000000
# 4 0.000000 0.000000 0.000000 0.055658 0.000000 0.000000
# 5 0.000000 0.000000 0.000000 0.000000 2.284950 0.000000
# 6 0.000000 0.000000 0.000000 0.000000 0.000000 0.030684
#
#
# Mechanical properties :
#
#
# Convention : Reuss Voigt Hill
#
# Bulk Modulus (GPa) = 57.80117 64.02478 60.91297
# Shear Modulus (GPa) = 2.02014 22.26836 12.14425
#
# Velocity S-wave (km/s) = 1.01005 3.35348 2.47649
# Velocity P-wave (km/s) = 5.52727 6.87953 6.24014
#
# Compressibility (1/GPa) = 0.01730069
#
# Stress axis : x y z
#
# Youngs Moduli (GPa) = 35.16256 55.08394 90.38914
#
# Poissons Ratio (x) = 0.92883 0.23633
# Poissons Ratio (y) = 0.59291 0.06340
# Poissons Ratio (z) = 0.09194 0.03863
#
# Static dielectric constant tensor:
#      x y z
#    x 1.673010 0.000000 0.000000 
#    y 0.000000 1.710770 0.000000 
#    z 0.000000 0.000000 1.785490 
# 
# From -- ./inp_files/24672.got.cif
#   From: 2010.05.17/outbox.cif.g08.bks.cpg/sg69_13_cif.got.tgz:24672.got - 2010.06.03 19:29:58.
