data_PCOD9512565
_publ_section_title
;
Structure prediction by ZEFSAII (Michael W. Deem and Ramdas Pophale) SiO2 
 PCOD9512565
Probable space group: F M M M
;
_chemical_formula_sum "Si O2"
_cell_formula_units_Z 176
_cell_length_a 15.087141
_cell_length_b 18.636273
_cell_length_c 27.633925
_cell_angle_alpha 90.000000
_cell_angle_beta 90.000000
_cell_angle_gamma 90.000000
_cell_volume 7769.777593
_symmetry_space_group_name_H-M "F M M M"
_symmetry_group_IT_number 69
_symmetry_cell_setting 'orthorhombic'
loop_
_space_group_symop_operation_xyz
x,y,z
-x,-y,z
x,-y,-z
-x,y,-z
-x,-y,-z
x,y,-z
-x,y,z
x,-y,z
x,1/2+y,1/2+z
-x,1/2-y,1/2+z
x,1/2-y,1/2-z
-x,1/2+y,1/2-z
-x,1/2-y,1/2-z
x,1/2+y,1/2-z
-x,1/2+y,1/2+z
x,1/2-y,1/2+z
1/2+x,y,1/2+z
1/2-x,-y,1/2+z
1/2+x,-y,1/2-z
1/2-x,y,1/2-z
1/2-x,-y,1/2-z
1/2+x,y,1/2-z
1/2-x,y,1/2+z
1/2+x,-y,1/2+z
1/2+x,1/2+y,z
1/2-x,1/2-y,z
1/2+x,1/2-y,-z
1/2-x,1/2+y,-z
1/2-x,1/2-y,-z
1/2+x,1/2+y,-z
1/2-x,1/2+y,z
1/2+x,1/2-y,z
loop_
_atom_site_type_symbol
_atom_site_label
_atom_site_fract_x
_atom_site_fract_y
_atom_site_fract_z
Si Si1 0.849827 0.690089 0.348871
Si Si2 0.711823 0.143396 0.444127
Si Si3 0.101004 0.579536 0.721057
Si Si4 0.899370 0.914580 0.588403
Si Si5 0.899160 0.000000 0.058179
Si Si6 0.649544 0.840574 0.184319
O O1 0.832909 0.697864 0.406041
O O2 0.899585 0.620322 0.329882
O O3 0.751536 0.672884 0.329083
O O4 0.889777 0.761420 0.325129
O O5 0.697671 0.162451 0.500000
O O6 0.816098 0.126857 0.435459
O O7 0.659423 0.069942 0.431414
O O8 0.141380 0.500000 0.717517
O O9 0.143317 0.629020 0.762213
O O10 0.000000 0.572626 0.737066
O O11 0.890465 0.895449 0.645342
O O12 0.000000 0.895396 0.572634
O O13 0.888102 0.000000 0.580627
O O14 0.000000 0.000000 0.078155
O O15 0.907935 0.000000 0.000000
#
# Coordination Sequence:
#
# PCOD9512565 Si02
#       6
#    32  32  32  32  16  32
#     4  10  23  39  60  89 122 163 211 258 306 376
#     4  10  21  39  62  89 125 167 211 264 322 371
#     4  11  24  39  59  90 124 158 201 258 318 379
#     4  10  20  35  60  92 124 162 213 266 316 381
#     4   9  18  34  57  83 112 155 206 254 307 361
#     4  10  21  40  60  86 122 163 205 251 319 381
#
# _framework density 22.651871
#
# number of rings (size 3 to 8) (size 9 to 14) (size 15 to 20)
#    0.000    1.909    0.909    2.182    1.273    8.364 
#    0.000    8.182    0.000    0.000    0.000    0.000 
#    0.000    0.000    0.000    0.000    0.000    0.000 
#
# Total GULP energy -245625.377888 kJ/mol
# GULP energy per Si atom -5582.394952 kJ/mol
# Density = 2.260031 g / cm^3
# Si number density = 22.651871 Si / 1000 Ang^3
#
#
#
# Elastic Constant Matrix: (Units=GPa)
#
#
# Indices 1 2 3 4 5 6 
#
# 1 101.1084 13.9090 9.1036 0.0000 0.0000 0.0000
# 2 13.9090 105.0605 37.4618 0.0000 0.0000 0.0000
# 3 9.1036 37.4618 140.4604 0.0000 0.0000 0.0000
# 4 0.0000 0.0000 0.0000 7971.8461 0.0000 0.0000
# 5 0.0000 0.0000 0.0000 0.0000 16.8911 0.0000
# 6 0.0000 0.0000 0.0000 0.0000 0.0000 38.1554
#
#
#
# Elastic Compliance Matrix: (Units=1/GPa)
#
#
# Indices 1 2 3 4 5 6 
#
# 1 0.010088 -0.001218 -0.000329 0.000000 0.000000 0.000000
# 2 -0.001218 0.010666 -0.002766 0.000000 0.000000 0.000000
# 3 -0.000329 -0.002766 0.007878 0.000000 0.000000 0.000000
# 4 0.000000 0.000000 0.000000 0.000125 0.000000 0.000000
# 5 0.000000 0.000000 0.000000 0.000000 0.059203 0.000000
# 6 0.000000 0.000000 0.000000 0.000000 0.000000 0.026209
#
#
# Mechanical properties :
#
#
# Convention : Reuss Voigt Hill
#
# Bulk Modulus (GPa) = 49.98465 51.95312 50.96888
# Shear Modulus (GPa) = 38.62110 1624.45549 831.53830
#
# Velocity S-wave (km/s) = 4.13363 26.80852 19.18050
# Velocity P-wave (km/s) = 6.70051 31.32487 22.65109
#
# Compressibility (1/GPa) = 0.02000614
#
# Stress axis : x y z
#
# Youngs Moduli (GPa) = 99.13186 93.75778 126.92951
#
# Poissons Ratio (x) = 0.11422 0.04175
# Poissons Ratio (y) = 0.12076 0.35105
# Poissons Ratio (z) = 0.03260 0.25930
#
# Static dielectric constant tensor:
#      x y z
#    x 1.895570 0.000000 0.000000 
#    y 0.000000 1.959570 0.000000 
#    z 0.000000 0.000000 1.841780 
# 
# From -- ./inp_files/41868.got.cif
#   From: 2010.05.17/outbox.cif.g08.bks.cpg/sg69_21_cif.got.tgz:41868.got - 2010.06.03 19:29:58.
