data_PCOD9512800
_publ_section_title
;
Structure prediction by ZEFSAII (Michael W. Deem and Ramdas Pophale) SiO2 
 PCOD9512800
Probable space group: F M M M
;
_chemical_formula_sum "Si O2"
_cell_formula_units_Z 136
_cell_length_a 22.741037
_cell_length_b 10.488608
_cell_length_c 28.184190
_cell_angle_alpha 90.000000
_cell_angle_beta 90.000000
_cell_angle_gamma 90.000000
_cell_volume 6722.544367
_symmetry_space_group_name_H-M "F M M M"
_symmetry_group_IT_number 69
_symmetry_cell_setting 'orthorhombic'
loop_
_space_group_symop_operation_xyz
x,y,z
-x,-y,z
x,-y,-z
-x,y,-z
-x,-y,-z
x,y,-z
-x,y,z
x,-y,z
x,1/2+y,1/2+z
-x,1/2-y,1/2+z
x,1/2-y,1/2-z
-x,1/2+y,1/2-z
-x,1/2-y,1/2-z
x,1/2+y,1/2-z
-x,1/2+y,1/2+z
x,1/2-y,1/2+z
1/2+x,y,1/2+z
1/2-x,-y,1/2+z
1/2+x,-y,1/2-z
1/2-x,y,1/2-z
1/2-x,-y,1/2-z
1/2+x,y,1/2-z
1/2-x,y,1/2+z
1/2+x,-y,1/2+z
1/2+x,1/2+y,z
1/2-x,1/2-y,z
1/2+x,1/2-y,-z
1/2-x,1/2+y,-z
1/2-x,1/2-y,-z
1/2+x,1/2+y,-z
1/2-x,1/2+y,z
1/2+x,1/2-y,z
loop_
_atom_site_type_symbol
_atom_site_label
_atom_site_fract_x
_atom_site_fract_y
_atom_site_fract_z
Si Si1 0.200055 0.000000 0.289114
Si Si2 0.098168 0.199829 0.700341
Si Si3 0.302518 0.500000 0.395945
Si Si4 0.880809 0.256693 0.601523
Si Si5 0.000000 0.851663 0.442460
Si Si6 0.680383 0.000000 0.555545
Si Si7 0.000000 0.000000 0.331538
O O1 0.250000 0.000000 0.250000
O O2 0.156712 0.878744 0.285913
O O3 0.223947 0.000000 0.342780
O O4 0.074099 0.250000 0.750000
O O5 0.112544 0.293876 0.657126
O O6 0.051390 0.108572 0.675376
O O7 0.342175 0.373282 0.400602
O O8 0.249323 0.500000 0.432240
O O9 0.848994 0.372879 0.576241
O O10 0.942267 0.220029 0.576167
O O11 0.000000 0.859789 0.500000
O O12 0.000000 0.000000 0.421324
O O13 0.671375 0.000000 0.500000
#
# Coordination Sequence:
#
# PCOD9512800 Si02
#       7
#    16  32  16  32  16  16   8
#     4   9  21  37  61  89 130 166 220 278 315 388
#     4  10  22  37  62  95 126 178 214 273 331 393
#     4  10  23  44  70  98 130 182 228 279 332 403
#     4  11  24  44  69  99 137 171 231 281 341 405
#     4  11  23  41  73  98 122 168 222 279 333 407
#     4  12  28  45  65  96 142 181 221 290 350 405
#     4  10  20  38  60  88 131 164 227 268 320 394
#
# _framework density 20.230436000000001
#
# number of rings (size 3 to 8) (size 9 to 14) (size 15 to 20)
#    0.000    1.529    1.176    3.176    4.941    4.706 
#    0.000    1.176    0.000    0.000    0.000    0.000 
#    0.000    0.000    0.000    0.000    0.000    0.000 
#
# Total GULP energy -189460.236804 kJ/mol
# GULP energy per Si atom -5572.359906 kJ/mol
# Density = 2.018439 g / cm^3
# Si number density = 20.230436 Si / 1000 Ang^3
#
#
#
# Elastic Constant Matrix: (Units=GPa)
#
#
# Indices 1 2 3 4 5 6 
#
# 1 113.8031 25.3251 26.6971 0.0000 0.0000 0.0000
# 2 25.3251 77.2930 31.1839 0.0000 0.0000 0.0000
# 3 26.6971 31.1839 58.0319 0.0000 0.0000 0.0000
# 4 0.0000 0.0000 0.0000 22.2256 0.0000 0.0000
# 5 0.0000 0.0000 0.0000 0.0000 31.0384 0.0000
# 6 0.0000 0.0000 0.0000 0.0000 0.0000 29.9460
#
#
#
# Elastic Compliance Matrix: (Units=1/GPa)
#
#
# Indices 1 2 3 4 5 6 
#
# 1 0.010047 -0.001822 -0.003643 0.000000 0.000000 0.000000
# 2 -0.001822 0.016850 -0.008216 0.000000 0.000000 0.000000
# 3 -0.003643 -0.008216 0.023323 0.000000 0.000000 0.000000
# 4 0.000000 0.000000 0.000000 0.044993 0.000000 0.000000
# 5 0.000000 0.000000 0.000000 0.000000 0.032218 0.000000
# 6 0.000000 0.000000 0.000000 0.000000 0.000000 0.033393
#
#
# Mechanical properties :
#
#
# Convention : Reuss Voigt Hill
#
# Bulk Modulus (GPa) = 43.74980 46.17113 44.96047
# Shear Modulus (GPa) = 25.53555 27.70346 26.61951
#
# Velocity S-wave (km/s) = 3.55665 3.70455 3.63135
# Velocity P-wave (km/s) = 6.20798 6.41642 6.31306
#
# Compressibility (1/GPa) = 0.02285725
#
# Stress axis : x y z
#
# Youngs Moduli (GPa) = 99.53002 59.34879 42.87673
#
# Poissons Ratio (x) = 0.10815 0.15620
# Poissons Ratio (y) = 0.18137 0.35227
# Poissons Ratio (z) = 0.36258 0.48760
#
# Static dielectric constant tensor:
#      x y z
#    x 1.664570 0.000000 0.000000 
#    y 0.000000 1.697860 0.000000 
#    z 0.000000 0.000000 1.869090 
# 
# From -- ./inp_files/11207.got.cif
#   From: 2010.05.17/outbox.cif.g08.bks.cpg/sg69_6_cif.got.tgz:11207.got - 2010.06.03 19:29:58.
