data_PCOD9512328
_publ_section_title
;
Structure prediction by ZEFSAII (Michael W. Deem and Ramdas Pophale) SiO2 
 PCOD9512328
Probable space group: F M M M
;
_chemical_formula_sum "Si O2"
_cell_formula_units_Z 176
_cell_length_a 26.237897
_cell_length_b 17.984135
_cell_length_c 16.883925
_cell_angle_alpha 90.000000
_cell_angle_beta 90.000000
_cell_angle_gamma 90.000000
_cell_volume 7966.948158
_symmetry_space_group_name_H-M "F M M M"
_symmetry_group_IT_number 69
_symmetry_cell_setting 'orthorhombic'
loop_
_space_group_symop_operation_xyz
x,y,z
-x,-y,z
x,-y,-z
-x,y,-z
-x,-y,-z
x,y,-z
-x,y,z
x,-y,z
x,1/2+y,1/2+z
-x,1/2-y,1/2+z
x,1/2-y,1/2-z
-x,1/2+y,1/2-z
-x,1/2-y,1/2-z
x,1/2+y,1/2-z
-x,1/2+y,1/2+z
x,1/2-y,1/2+z
1/2+x,y,1/2+z
1/2-x,-y,1/2+z
1/2+x,-y,1/2-z
1/2-x,y,1/2-z
1/2-x,-y,1/2-z
1/2+x,y,1/2-z
1/2-x,y,1/2+z
1/2+x,-y,1/2+z
1/2+x,1/2+y,z
1/2-x,1/2-y,z
1/2+x,1/2-y,-z
1/2-x,1/2+y,-z
1/2-x,1/2-y,-z
1/2+x,1/2+y,-z
1/2-x,1/2+y,z
1/2+x,1/2-y,z
loop_
_atom_site_type_symbol
_atom_site_label
_atom_site_fract_x
_atom_site_fract_y
_atom_site_fract_z
Si Si1 0.390360 0.088777 0.843455
Si Si2 0.000000 0.089688 0.409241
Si Si3 0.876768 0.579210 0.406842
Si Si4 0.183364 0.200618 0.589528
Si Si5 0.239403 0.915696 0.844321
Si Si6 0.381542 0.190801 0.302441
O O1 0.448866 0.107490 0.861648
O O2 0.357950 0.133954 0.907555
O O3 0.371594 0.124710 0.760768
O O4 0.383197 0.000000 0.844432
O O5 0.000000 0.118654 0.500000
O O6 0.000000 0.000000 0.415891
O O7 0.872596 0.581422 0.500000
O O8 0.898724 0.500000 0.381826
O O9 0.819366 0.584726 0.371906
O O10 0.907557 0.648705 0.374079
O O11 0.186844 0.231083 0.500000
O O12 0.233482 0.154994 0.615203
O O13 0.163506 0.260080 0.655571
O O14 0.250000 0.909204 0.750000
O O15 0.258250 0.000000 0.866458
O O16 0.411181 0.250000 0.250000
#
# Coordination Sequence:
#
# PCOD9512328 Si02
#       6
#    32  16  32  32  32  32
#     4  10  20  36  59  84 110 141 177 219 269 326
#     4   9  18  34  59  92 121 141 171 221 276 327
#     4  10  20  35  55  77 103 140 189 239 280 320
#     4  11  22  35  53  79 113 148 183 228 279 332
#     4  10  20  34  53  78 109 145 188 238 288 336
#     4  10  21  36  52  76 109 144 182 221 266 325
#
# _framework density 22.091270000000002
#
# number of rings (size 3 to 8) (size 9 to 14) (size 15 to 20)
#    0.000    1.909    0.000    4.909    0.000    5.091 
#    0.000    9.545    0.000    0.000    0.000    1.909 
#    0.000   10.182    0.000    0.000    0.000    3.818 
#
# Total GULP energy -245152.021600 kJ/mol
# GULP energy per Si atom -5571.636855 kJ/mol
# Density = 2.204099 g / cm^3
# Si number density = 22.091270 Si / 1000 Ang^3
#
#
#
# Elastic Constant Matrix: (Units=GPa)
#
#
# Indices 1 2 3 4 5 6 
#
# 1 56.1260 20.8259 17.3427 0.0000 0.0000 0.0000
# 2 20.8259 135.9601 54.1458 0.0000 0.0000 0.0000
# 3 17.3427 54.1458 122.6717 0.0000 0.0000 0.0000
# 4 0.0000 0.0000 0.0000 40.7350 0.0000 0.0000
# 5 0.0000 0.0000 0.0000 0.0000 4.3896 0.0000
# 6 0.0000 0.0000 0.0000 0.0000 0.0000 12.1361
#
#
#
# Elastic Compliance Matrix: (Units=1/GPa)
#
#
# Indices 1 2 3 4 5 6 
#
# 1 0.019184 -0.002255 -0.001717 0.000000 0.000000 0.000000
# 2 -0.002255 0.009189 -0.003737 0.000000 0.000000 0.000000
# 3 -0.001717 -0.003737 0.010044 0.000000 0.000000 0.000000
# 4 0.000000 0.000000 0.000000 0.024549 0.000000 0.000000
# 5 0.000000 0.000000 0.000000 0.000000 0.227814 0.000000
# 6 0.000000 0.000000 0.000000 0.000000 0.000000 0.082398
#
#
# Mechanical properties :
#
#
# Convention : Reuss Voigt Hill
#
# Bulk Modulus (GPa) = 43.47917 55.48738 49.48328
# Shear Modulus (GPa) = 12.61791 26.28171 19.44981
#
# Velocity S-wave (km/s) = 2.39251 3.45293 2.97042
# Velocity P-wave (km/s) = 5.23034 6.40849 5.84916
#
# Compressibility (1/GPa) = 0.02299952
#
# Stress axis : x y z
#
# Youngs Moduli (GPa) = 52.12611 108.82880 99.56151
#
# Poissons Ratio (x) = 0.24539 0.17094
# Poissons Ratio (y) = 0.11753 0.37206
# Poissons Ratio (z) = 0.08950 0.40670
#
# Static dielectric constant tensor:
#      x y z
#    x 1.823440 0.000000 0.000000 
#    y 0.000000 1.942070 0.000000 
#    z 0.000000 0.000000 1.865010 
# 
# From -- ./inp_files/27654.got.cif
#   From: 2010.05.17/outbox.cif.g08.bks.cpg/sg69_14_cif.got.tgz:27654.got - 2010.06.03 19:29:58.
