data_PCOD9512006
_publ_section_title
;
Structure prediction by ZEFSAII (Michael W. Deem and Ramdas Pophale) SiO2 
 PCOD9512006
Probable space group: F M M M
;
_chemical_formula_sum "Si O2"
_cell_formula_units_Z 192
_cell_length_a 17.606205
_cell_length_b 17.999657
_cell_length_c 31.405387
_cell_angle_alpha 90.000000
_cell_angle_beta 90.000000
_cell_angle_gamma 90.000000
_cell_volume 9952.544614
_symmetry_space_group_name_H-M "F M M M"
_symmetry_group_IT_number 69
_symmetry_cell_setting 'orthorhombic'
loop_
_space_group_symop_operation_xyz
x,y,z
-x,-y,z
x,-y,-z
-x,y,-z
-x,-y,-z
x,y,-z
-x,y,z
x,-y,z
x,1/2+y,1/2+z
-x,1/2-y,1/2+z
x,1/2-y,1/2-z
-x,1/2+y,1/2-z
-x,1/2-y,1/2-z
x,1/2+y,1/2-z
-x,1/2+y,1/2+z
x,1/2-y,1/2+z
1/2+x,y,1/2+z
1/2-x,-y,1/2+z
1/2+x,-y,1/2-z
1/2-x,y,1/2-z
1/2-x,-y,1/2-z
1/2+x,y,1/2-z
1/2-x,y,1/2+z
1/2+x,-y,1/2+z
1/2+x,1/2+y,z
1/2-x,1/2-y,z
1/2+x,1/2-y,-z
1/2-x,1/2+y,-z
1/2-x,1/2-y,-z
1/2+x,1/2+y,-z
1/2-x,1/2+y,z
1/2+x,1/2-y,z
loop_
_atom_site_type_symbol
_atom_site_label
_atom_site_fract_x
_atom_site_fract_y
_atom_site_fract_z
Si Si1 0.910962 0.330040 0.413070
Si Si2 0.583759 0.162563 0.741641
Si Si3 0.646358 0.087235 0.172779
Si Si4 0.910800 0.911920 0.500000
Si Si5 0.703319 0.329948 0.165940
Si Si6 0.586994 0.153454 0.085272
Si Si7 0.092030 0.414919 0.500000
O O1 0.849137 0.340229 0.375785
O O2 0.911563 0.241578 0.420536
O O3 0.887936 0.372384 0.456352
O O4 0.000000 0.350204 0.402297
O O5 0.500000 0.134802 0.728442
O O6 0.577107 0.250000 0.750000
O O7 0.609300 0.121772 0.784822
O O8 0.646603 0.160845 0.705337
O O9 0.735056 0.105997 0.172359
O O10 0.618659 0.129276 0.130482
O O11 0.630348 0.000000 0.170194
O O12 0.875320 0.882474 0.543690
O O13 0.000000 0.886156 0.500000
O O14 0.910521 0.000000 0.500000
O O15 0.750000 0.250000 0.165726
O O16 0.500000 0.127207 0.086293
O O17 0.119575 0.500000 0.500000
O O18 0.000000 0.416403 0.500000
#
# Coordination Sequence:
#
# PCOD9512006 Si02
#       7
#    32  32  32  16  32  32  16
#     4  10  20  38  66  96 123 163 217 263 314 378
#     4  11  23  41  67  93 120 163 215 260 311 380
#     4  12  26  41  62  93 130 167 207 263 331 387
#     4   9  17  29  50  81 120 165 205 247 304 367
#     4  12  23  41  64  91 126 168 206 261 316 383
#     4  10  19  35  59  89 125 165 211 260 309 377
#     4   9  19  37  63  96 132 167 212 276 328 359
#
# _framework density 19.291550000000001
#
# number of rings (size 3 to 8) (size 9 to 14) (size 15 to 20)
#    0.000    1.333    3.333    2.500    0.000    8.667 
#    0.000    1.250    0.000    4.000    0.000    0.000 
#    0.000    0.000    0.000    0.000    0.000    0.000 
#
# Total GULP energy -267741.147457 kJ/mol
# GULP energy per Si atom -5577.940572 kJ/mol
# Density = 1.924764 g / cm^3
# Si number density = 19.291550 Si / 1000 Ang^3
#
#
#
# Elastic Constant Matrix: (Units=GPa)
#
#
# Indices 1 2 3 4 5 6 
#
# 1 88.8232 20.1964 66.0956 0.0000 0.0000 0.0000
# 2 20.1964 88.6280 59.0612 0.0000 0.0000 0.0000
# 3 66.0956 59.0612 176.6376 0.0000 0.0000 0.0000
# 4 0.0000 0.0000 0.0000 8.7226 0.0000 0.0000
# 5 0.0000 0.0000 0.0000 0.0000 3013.6968 0.0000
# 6 0.0000 0.0000 0.0000 0.0000 0.0000 13.0483
#
#
#
# Elastic Compliance Matrix: (Units=1/GPa)
#
#
# Indices 1 2 3 4 5 6 
#
# 1 0.015616 0.000432 -0.005987 0.000000 0.000000 0.000000
# 2 0.000432 0.014530 -0.005020 0.000000 0.000000 0.000000
# 3 -0.005987 -0.005020 0.009580 0.000000 0.000000 0.000000
# 4 0.000000 0.000000 0.000000 0.114644 0.000000 0.000000
# 5 0.000000 0.000000 0.000000 0.000000 0.000332 0.000000
# 6 0.000000 0.000000 0.000000 0.000000 0.000000 0.076638
#
#
# Mechanical properties :
#
#
# Convention : Reuss Voigt Hill
#
# Bulk Modulus (GPa) = 53.83766 71.64390 62.74078
# Shear Modulus (GPa) = 19.32870 621.00926 320.16898
#
# Velocity S-wave (km/s) = 3.16875 17.96124 12.89665
# Velocity P-wave (km/s) = 6.43086 21.61850 15.94860
#
# Compressibility (1/GPa) = 0.01857436
#
# Stress axis : x y z
#
# Youngs Moduli (GPa) = 64.03844 68.82354 104.38240
#
# Poissons Ratio (x) = -0.02970 0.62499
# Poissons Ratio (y) = -0.02764 0.52397
# Poissons Ratio (z) = 0.38343 0.34548
#
# Static dielectric constant tensor:
#      x y z
#    x 1.759990 0.000000 0.000000 
#    y 0.000000 1.666620 0.000000 
#    z 0.000000 0.000000 1.787330 
# 
# From -- ./inp_files/46403.got.cif
#   From: 2010.05.17/outbox.cif.g08.bks.cpg/sg69_24_cif.got.tgz:46403.got - 2010.06.03 19:29:58.
