data_PCOD9512984
_publ_section_title
;
Structure prediction by ZEFSAII (Michael W. Deem and Ramdas Pophale) SiO2 
 PCOD9512984
Probable space group: F M M M
;
_chemical_formula_sum "Si O2"
_cell_formula_units_Z 160
_cell_length_a 17.627475
_cell_length_b 30.875414
_cell_length_c 15.679769
_cell_angle_alpha 90.000000
_cell_angle_beta 90.000000
_cell_angle_gamma 90.000000
_cell_volume 8533.801903
_symmetry_space_group_name_H-M "F M M M"
_symmetry_group_IT_number 69
_symmetry_cell_setting 'orthorhombic'
loop_
_space_group_symop_operation_xyz
x,y,z
-x,-y,z
x,-y,-z
-x,y,-z
-x,-y,-z
x,y,-z
-x,y,z
x,-y,z
x,1/2+y,1/2+z
-x,1/2-y,1/2+z
x,1/2-y,1/2-z
-x,1/2+y,1/2-z
-x,1/2-y,1/2-z
x,1/2+y,1/2-z
-x,1/2+y,1/2+z
x,1/2-y,1/2+z
1/2+x,y,1/2+z
1/2-x,-y,1/2+z
1/2+x,-y,1/2-z
1/2-x,y,1/2-z
1/2-x,-y,1/2-z
1/2+x,y,1/2-z
1/2-x,y,1/2+z
1/2+x,-y,1/2+z
1/2+x,1/2+y,z
1/2-x,1/2-y,z
1/2+x,1/2-y,-z
1/2-x,1/2+y,-z
1/2-x,1/2-y,-z
1/2+x,1/2+y,-z
1/2-x,1/2+y,z
1/2+x,1/2-y,z
loop_
_atom_site_type_symbol
_atom_site_label
_atom_site_fract_x
_atom_site_fract_y
_atom_site_fract_z
Si Si1 0.088987 0.069289 0.591541
Si Si2 0.909607 0.679072 0.500000
Si Si3 0.910332 0.670128 0.860752
Si Si4 0.338541 0.047495 0.733107
Si Si5 0.834695 0.270345 0.000000
Si Si6 0.091775 0.136267 0.824231
O O1 0.121756 0.056617 0.500000
O O2 0.095279 0.121275 0.602804
O O3 0.125002 0.048192 0.673360
O O4 0.000000 0.059174 0.591794
O O5 0.889403 0.729088 0.500000
O O6 0.881483 0.657617 0.587790
O O7 0.000000 0.673615 0.500000
O O8 0.857069 0.700971 0.917024
O O9 0.889835 0.664539 0.760563
O O10 0.000000 0.683102 0.867671
O O11 0.250000 0.054130 0.750000
O O12 0.373590 0.088469 0.685061
O O13 0.350915 0.000000 0.693336
O O14 0.750000 0.250000 0.000000
O O15 0.000000 0.132562 0.823729
#
# Coordination Sequence:
#
# PCOD9512984 Si02
#       6
#    32  16  32  32  16  32
#     4   9  17  32  59  88 109 139 186 238 290 341
#     4  10  22  40  57  80 110 143 193 243 276 317
#     4   9  17  35  60  82 108 145 184 227 282 337
#     4  10  21  36  53  81 117 152 186 224 283 350
#     4  12  24  34  52  87 118 147 184 223 274 343
#     4   9  20  39  62  82 106 146 193 239 283 326
#
# _framework density 18.748971000000001
#
# number of rings (size 3 to 8) (size 9 to 14) (size 15 to 20)
#    0.000    2.400    1.000    2.700    0.000    6.000 
#    1.800    5.500    0.000    1.800    0.000    0.000 
#    0.000    0.000    0.000    0.000    0.000    0.000 
#
# Total GULP energy -223059.533743 kJ/mol
# GULP energy per Si atom -5576.488344 kJ/mol
# Density = 1.870630 g / cm^3
# Si number density = 18.748971 Si / 1000 Ang^3
#
#
#
# Elastic Constant Matrix: (Units=GPa)
#
#
# Indices 1 2 3 4 5 6 
#
# 1 40.8485 33.6092 29.4583 0.0000 0.0000 0.0000
# 2 33.6092 109.5653 56.6632 0.0000 0.0000 0.0000
# 3 29.4583 56.6632 117.6133 0.0000 0.0000 0.0000
# 4 0.0000 0.0000 0.0000 0.5610 0.0000 0.0000
# 5 0.0000 0.0000 0.0000 0.0000 -15.0395 0.0000
# 6 0.0000 0.0000 0.0000 0.0000 0.0000 22.1545
#
#
#
# Elastic Compliance Matrix: (Units=1/GPa)
#
#
# Indices 1 2 3 4 5 6 
#
# 1 0.034617 -0.008171 -0.004734 0.000000 0.000000 0.000000
# 2 -0.008171 0.014084 -0.004739 0.000000 0.000000 0.000000
# 3 -0.004734 -0.004739 0.011971 0.000000 0.000000 0.000000
# 4 0.000000 0.000000 0.000000 1.782686 0.000000 0.000000
# 5 0.000000 0.000000 0.000000 0.000000 -0.066491 0.000000
# 6 0.000000 0.000000 0.000000 0.000000 0.000000 0.045138
#
#
# Mechanical properties :
#
#
# Convention : Reuss Voigt Hill
#
# Bulk Modulus (GPa) = 39.39259 56.38761 47.89010
# Shear Modulus (GPa) = 2.67988 11.42161 7.05075
#
# Velocity S-wave (km/s) = 1.19685 2.47085 1.94133
# Velocity P-wave (km/s) = 4.79229 6.18712 5.53383
#
# Compressibility (1/GPa) = 0.02538549
#
# Stress axis : x y z
#
# Youngs Moduli (GPa) = 28.88730 71.00212 83.53330
#
# Poissons Ratio (x) = 0.58013 0.39546
# Poissons Ratio (y) = 0.23602 0.39586
# Poissons Ratio (z) = 0.13676 0.33647
#
# Static dielectric constant tensor:
#      x y z
#    x 1.621320 0.000000 0.000000 
#    y 0.000000 1.648070 0.000000 
#    z 0.000000 0.000000 1.700150 
# 
# From -- ./inp_files/15685.got.cif
#   From: 2010.05.17/outbox.cif.g08.bks.cpg/sg69_8_cif.got.tgz:15685.got - 2010.06.03 19:29:58.
