data_PCOD9512380
_publ_section_title
;
Structure prediction by ZEFSAII (Michael W. Deem and Ramdas Pophale) SiO2 
 PCOD9512380
Probable space group: F M M M
;
_chemical_formula_sum "Si O2"
_cell_formula_units_Z 176
_cell_length_a 30.304934
_cell_length_b 11.533352
_cell_length_c 24.412314
_cell_angle_alpha 90.000000
_cell_angle_beta 90.000000
_cell_angle_gamma 90.000000
_cell_volume 8532.530254
_symmetry_space_group_name_H-M "F M M M"
_symmetry_group_IT_number 69
_symmetry_cell_setting 'orthorhombic'
loop_
_space_group_symop_operation_xyz
x,y,z
-x,-y,z
x,-y,-z
-x,y,-z
-x,-y,-z
x,y,-z
-x,y,z
x,-y,z
x,1/2+y,1/2+z
-x,1/2-y,1/2+z
x,1/2-y,1/2-z
-x,1/2+y,1/2-z
-x,1/2-y,1/2-z
x,1/2+y,1/2-z
-x,1/2+y,1/2+z
x,1/2-y,1/2+z
1/2+x,y,1/2+z
1/2-x,-y,1/2+z
1/2+x,-y,1/2-z
1/2-x,y,1/2-z
1/2-x,-y,1/2-z
1/2+x,y,1/2-z
1/2-x,y,1/2+z
1/2+x,-y,1/2+z
1/2+x,1/2+y,z
1/2-x,1/2-y,z
1/2+x,1/2-y,-z
1/2-x,1/2+y,-z
1/2-x,1/2-y,-z
1/2+x,1/2+y,-z
1/2-x,1/2+y,z
1/2+x,1/2-y,z
loop_
_atom_site_type_symbol
_atom_site_label
_atom_site_fract_x
_atom_site_fract_y
_atom_site_fract_z
Si Si1 0.548935 0.864914 0.100678
Si Si2 0.774595 0.874232 0.000000
Si Si3 0.822663 0.375516 0.733886
Si Si4 0.861072 0.361996 0.938993
Si Si5 0.298757 0.802064 0.617035
Si Si6 0.925386 0.372137 0.228092
O O1 0.500000 0.813531 0.096126
O O2 0.589287 0.814310 0.066555
O O3 0.565722 0.866048 0.163286
O O4 0.545266 0.000000 0.083928
O O5 0.750000 0.750000 0.000000
O O6 0.798581 0.869443 0.941062
O O7 0.749901 0.000000 0.000000
O O8 0.804281 0.500000 0.754183
O O9 0.803186 0.250000 0.750000
O O10 0.817039 0.372067 0.668360
O O11 0.873588 0.373262 0.754721
O O12 0.862092 0.500000 0.931881
O O13 0.830677 0.306417 0.893445
O O14 0.844181 0.337587 0.000000
O O15 0.250000 0.750000 0.626892
O O16 0.942847 0.500000 0.246062
O O17 0.943947 0.250000 0.250000
#
# Coordination Sequence:
#
# PCOD9512380 Si02
#       6
#    32  16  32  32  32  32
#     4   9  18  33  54  81 115 155 197 247 313 376
#     4  10  22  40  62  88 119 158 209 263 312 363
#     4  10  21  38  59  83 115 156 201 247 301 361
#     4  10  20  34  55  85 120 158 202 256 315 371
#     4  11  23  39  58  85 119 163 207 256 305 366
#     4   9  17  31  52  78 109 145 185 234 290 352
#
# _framework density 20.626940999999999
#
# number of rings (size 3 to 8) (size 9 to 14) (size 15 to 20)
#    0.000    2.182    0.909    2.727    0.000    6.909 
#    0.000    2.727    0.000    0.000    0.000    0.000 
#    0.000    0.727    0.000    0.000    0.000    0.000 
#
# Total GULP energy -244977.806912 kJ/mol
# GULP energy per Si atom -5567.677430 kJ/mol
# Density = 2.057999 g / cm^3
# Si number density = 20.626941 Si / 1000 Ang^3
#
#
#
# Elastic Constant Matrix: (Units=GPa)
#
#
# Indices 1 2 3 4 5 6 
#
# 1 123.6786 10.3084 16.1412 0.0000 0.0000 0.0000
# 2 10.3084 149.2325 26.0203 0.0000 0.0000 0.0000
# 3 16.1412 26.0203 42.0513 0.0000 0.0000 0.0000
# 4 0.0000 0.0000 0.0000 20.9197 0.0000 0.0000
# 5 0.0000 0.0000 0.0000 0.0000 -18.5420 0.0000
# 6 0.0000 0.0000 0.0000 0.0000 0.0000 12.9260
#
#
#
# Elastic Compliance Matrix: (Units=1/GPa)
#
#
# Indices 1 2 3 4 5 6 
#
# 1 0.008512 -0.000021 -0.003255 0.000000 0.000000 0.000000
# 2 -0.000021 0.007511 -0.004640 0.000000 0.000000 0.000000
# 3 -0.003255 -0.004640 0.027901 0.000000 0.000000 0.000000
# 4 0.000000 0.000000 0.000000 0.047802 0.000000 0.000000
# 5 0.000000 0.000000 0.000000 0.000000 -0.053932 0.000000
# 6 0.000000 0.000000 0.000000 0.000000 0.000000 0.077363
#
#
# Mechanical properties :
#
#
# Convention : Reuss Voigt Hill
#
# Bulk Modulus (GPa) = 35.59475 46.65580 41.12528
# Shear Modulus (GPa) = 35.62461 20.56025 28.09243
#
# Velocity S-wave (km/s) = 4.16034 3.16059 3.69444
# Velocity P-wave (km/s) = 6.35388 5.99892 6.17895
#
# Compressibility (1/GPa) = 0.02809403
#
# Stress axis : x y z
#
# Youngs Moduli (GPa) = 117.48212 133.13092 35.84122
#
# Poissons Ratio (x) = 0.00273 0.11665
# Poissons Ratio (y) = 0.00241 0.16630
# Poissons Ratio (z) = 0.38235 0.61773
#
# Static dielectric constant tensor:
#      x y z
#    x 1.788740 0.000000 0.000000 
#    y 0.000000 1.798160 0.000000 
#    z 0.000000 0.000000 1.761250 
# 
# From -- ./inp_files/38911.got.cif
#   From: 2010.05.17/outbox.cif.g08.bks.cpg/sg69_20_cif.got.tgz:38911.got - 2010.06.03 19:29:58.
