data_PCOD9512342
_publ_section_title
;
Structure prediction by ZEFSAII (Michael W. Deem and Ramdas Pophale) SiO2 
 PCOD9512342
Probable space group: F M M M
;
_chemical_formula_sum "Si O2"
_cell_formula_units_Z 128
_cell_length_a 27.902950
_cell_length_b 27.031221
_cell_length_c 8.742086
_cell_angle_alpha 90.000000
_cell_angle_beta 90.000000
_cell_angle_gamma 90.000000
_cell_volume 6593.725429
_symmetry_space_group_name_H-M "F M M M"
_symmetry_group_IT_number 69
_symmetry_cell_setting 'orthorhombic'
loop_
_space_group_symop_operation_xyz
x,y,z
-x,-y,z
x,-y,-z
-x,y,-z
-x,-y,-z
x,y,-z
-x,y,z
x,-y,z
x,1/2+y,1/2+z
-x,1/2-y,1/2+z
x,1/2-y,1/2-z
-x,1/2+y,1/2-z
-x,1/2-y,1/2-z
x,1/2+y,1/2-z
-x,1/2+y,1/2+z
x,1/2-y,1/2+z
1/2+x,y,1/2+z
1/2-x,-y,1/2+z
1/2+x,-y,1/2-z
1/2-x,y,1/2-z
1/2-x,-y,1/2-z
1/2+x,y,1/2-z
1/2-x,y,1/2+z
1/2+x,-y,1/2+z
1/2+x,1/2+y,z
1/2-x,1/2-y,z
1/2+x,1/2-y,-z
1/2-x,1/2+y,-z
1/2-x,1/2-y,-z
1/2+x,1/2+y,-z
1/2-x,1/2+y,z
1/2+x,1/2-y,z
loop_
_atom_site_type_symbol
_atom_site_label
_atom_site_fract_x
_atom_site_fract_y
_atom_site_fract_z
Si Si1 0.500000 0.305537 0.815447
Si Si2 0.660858 0.941919 0.816609
Si Si3 0.750000 0.382877 0.750000
Si Si4 0.902330 0.639602 0.682138
Si Si5 0.819061 0.299291 0.830852
O O1 0.500000 0.250000 0.750000
O O2 0.452770 0.336526 0.770915
O O3 0.500000 0.301549 0.000000
O O4 0.705703 0.920004 0.718669
O O5 0.614649 0.909973 0.768853
O O6 0.655193 0.000000 0.789050
O O7 0.670580 0.935262 0.000000
O O8 0.779317 0.342006 0.846053
O O9 0.902673 0.631033 0.500000
O O10 0.861140 0.678623 0.726953
O O11 0.801398 0.250000 0.750000
O O12 0.837472 0.287721 0.000000
#
# Coordination Sequence:
#
# PCOD9512342 Si02
#       5
#    16  32  16  32  32
#     4  10  22  38  59  88 117 147 184 225 273 330
#     4  10  22  40  60  83 112 146 187 234 281 331
#     4  10  20  34  54  78 108 144 182 228 274 322
#     4  10  21  38  59  84 114 147 186 231 279 333
#     4  11  23  37  54  80 114 151 190 231 277 333
#
# _framework density 19.412395
#
# number of rings (size 3 to 8) (size 9 to 14) (size 15 to 20)
#    0.000    1.750    0.000    5.250    0.000   15.500 
#    0.000    0.625    0.000    3.750    0.000    0.000 
#    0.000    0.000    0.000    0.000    0.000    0.000 
#
# Total GULP energy -178164.249974 kJ/mol
# GULP energy per Si atom -5567.632812 kJ/mol
# Density = 1.936821 g / cm^3
# Si number density = 19.412395 Si / 1000 Ang^3
#
#
#
# Elastic Constant Matrix: (Units=GPa)
#
#
# Indices 1 2 3 4 5 6 
#
# 1 140.3332 78.6158 30.1363 -0.0021 -0.0042 0.0009
# 2 78.6158 191.6907 33.1545 -0.0102 -0.0173 0.0050
# 3 30.1363 33.1545 29.3096 -0.0087 -0.0252 0.0056
# 4 -0.0021 -0.0102 -0.0087 27.4257 -0.0191 0.0065
# 5 -0.0042 -0.0173 -0.0252 -0.0191 101.3977 0.0112
# 6 0.0009 0.0050 0.0056 0.0065 0.0112 19.3784
#
#
#
# Elastic Compliance Matrix: (Units=1/GPa)
#
#
# Indices 1 2 3 4 5 6 
#
# 1 0.010364 -0.002993 -0.007271 -0.000003 -0.000002 0.000002
# 2 -0.002993 0.007350 -0.005237 0.000001 0.000000 0.000000
# 3 -0.007271 -0.005237 0.047518 0.000012 0.000011 -0.000012
# 4 -0.000003 0.000001 0.000012 0.036462 0.000007 -0.000012
# 5 -0.000002 0.000000 0.000011 0.000007 0.009862 -0.000006
# 6 0.000002 0.000000 -0.000012 -0.000012 -0.000006 0.051604
#
#
# Mechanical properties :
#
#
# Convention : Reuss Voigt Hill
#
# Bulk Modulus (GPa) = 29.21322 71.68297 50.44810
# Shear Modulus (GPa) = 24.32247 44.26883 34.29565
#
# Velocity S-wave (km/s) = 3.54352 4.78058 4.20776
# Velocity P-wave (km/s) = 5.64123 8.21453 7.04634
#
# Compressibility (1/GPa) = 0.03423107
#
# Stress axis : x y z
#
# Youngs Moduli (GPa) = 96.48868 136.05582 21.04464
#
# Poissons Ratio (x) = 0.40720 0.15301
# Poissons Ratio (y) = 0.28878 0.11021
# Poissons Ratio (z) = 0.70154 0.71250
#
# Static dielectric constant tensor:
#      x y z
#    x 1.681820 0.000000 0.000000 
#    y 0.000000 1.677810 0.000000 
#    z 0.000000 0.000000 1.692390 
# 
# From -- ./inp_files/5361.got.cif
#   From: 2010.05.17/outbox.cif.g08.bks.cpg/sg69_3_cif.got.tgz:5361.got - 2010.06.03 19:29:58.
