data_PCOD9512850
_publ_section_title
;
Structure prediction by ZEFSAII (Michael W. Deem and Ramdas Pophale) SiO2 
 PCOD9512850
Probable space group: F M M M
;
_chemical_formula_sum "Si O2"
_cell_formula_units_Z 100
_cell_length_a 23.363356
_cell_length_b 10.172173
_cell_length_c 22.570800
_cell_angle_alpha 90.000000
_cell_angle_beta 90.000000
_cell_angle_gamma 90.000000
_cell_volume 5364.088281
_symmetry_space_group_name_H-M "F M M M"
_symmetry_group_IT_number 69
_symmetry_cell_setting 'orthorhombic'
loop_
_space_group_symop_operation_xyz
x,y,z
-x,-y,z
x,-y,-z
-x,y,-z
-x,-y,-z
x,y,-z
-x,y,z
x,-y,z
x,1/2+y,1/2+z
-x,1/2-y,1/2+z
x,1/2-y,1/2-z
-x,1/2+y,1/2-z
-x,1/2-y,1/2-z
x,1/2+y,1/2-z
-x,1/2+y,1/2+z
x,1/2-y,1/2+z
1/2+x,y,1/2+z
1/2-x,-y,1/2+z
1/2+x,-y,1/2-z
1/2-x,y,1/2-z
1/2-x,-y,1/2-z
1/2+x,y,1/2-z
1/2-x,y,1/2+z
1/2+x,-y,1/2+z
1/2+x,1/2+y,z
1/2-x,1/2-y,z
1/2+x,1/2-y,-z
1/2-x,1/2+y,-z
1/2-x,1/2-y,-z
1/2+x,1/2+y,-z
1/2-x,1/2+y,z
1/2+x,1/2-y,z
loop_
_atom_site_type_symbol
_atom_site_label
_atom_site_fract_x
_atom_site_fract_y
_atom_site_fract_z
Si Si1 0.173026 0.000000 0.819433
Si Si2 0.305156 0.500000 0.321237
Si Si3 0.000000 0.000000 0.500000
Si Si4 0.500000 0.841369 0.190763
Si Si5 0.116628 0.148527 0.500000
Si Si6 0.879845 0.735994 0.130663
O O1 0.138486 0.873664 0.841444
O O2 0.239012 0.000000 0.840133
O O3 0.182430 0.000000 0.748897
O O4 0.336198 0.372112 0.345303
O O5 0.949949 0.888690 0.500000
O O6 0.500000 0.750000 0.250000
O O7 0.556822 0.806854 0.152824
O O8 0.500000 0.000000 0.203237
O O9 0.126939 0.227787 0.440031
O O10 0.144926 0.000000 0.500000
#
# Coordination Sequence:
#
# PCOD9512850 Si02
#       6
#    16  16   4  16  16  32
#     4  11  26  40  66  97 134 164 213 279 325 374
#     4  11  21  46  67  91 126 180 219 255 322 394
#     4   8  16  36  64  90 108 172 228 250 280 408
#     4  12  25  40  67  97 131 168 208 273 331 389
#     4  10  20  39  66  90 124 172 222 255 312 389
#     4  12  24  41  67  97 129 170 217 265 319 393
#
# _framework density 18.642496999999999
#
# number of rings (size 3 to 8) (size 9 to 14) (size 15 to 20)
#    0.480    0.320    3.200    4.800    4.480    3.200 
#    0.000    4.800    0.000    2.880    0.000    0.000 
#    0.000    0.000    0.000    0.000    0.000    0.000 
#
# Total GULP energy -139275.271225 kJ/mol
# GULP energy per Si atom -5571.010849 kJ/mol
# Density = 1.860007 g / cm^3
# Si number density = 18.642497 Si / 1000 Ang^3
#
#
#
# Elastic Constant Matrix: (Units=GPa)
#
#
# Indices 1 2 3 4 5 6 
#
# 1 113.7261 52.2681 32.2755 0.0000 0.0000 0.0000
# 2 52.2681 152.8052 42.5347 0.0000 0.0000 0.0000
# 3 32.2755 42.5347 117.0746 0.0000 0.0000 0.0000
# 4 0.0000 0.0000 0.0000 15.8711 0.0000 0.0000
# 5 0.0000 0.0000 0.0000 0.0000 -13.8513 0.0000
# 6 0.0000 0.0000 0.0000 0.0000 0.0000 37.8897
#
#
#
# Elastic Compliance Matrix: (Units=1/GPa)
#
#
# Indices 1 2 3 4 5 6 
#
# 1 0.010769 -0.003179 -0.001814 0.000000 0.000000 0.000000
# 2 -0.003179 0.008219 -0.002110 0.000000 0.000000 0.000000
# 3 -0.001814 -0.002110 0.009808 0.000000 0.000000 0.000000
# 4 0.000000 0.000000 0.000000 0.063008 0.000000 0.000000
# 5 0.000000 0.000000 0.000000 0.000000 -0.072195 0.000000
# 6 0.000000 0.000000 0.000000 0.000000 0.000000 0.026392
#
#
# Mechanical properties :
#
#
# Convention : Reuss Voigt Hill
#
# Bulk Modulus (GPa) = 68.53462 70.86251 69.69857
# Shear Modulus (GPa) = 76.84219 25.08375 50.96297
#
# Velocity S-wave (km/s) = 6.42715 3.67210 5.23415
# Velocity P-wave (km/s) = 9.58750 7.48819 8.60212
#
# Compressibility (1/GPa) = 0.01459117
#
# Stress axis : x y z
#
# Youngs Moduli (GPa) = 92.86150 121.67231 101.95642
#
# Poissons Ratio (x) = 0.38675 0.18494
# Poissons Ratio (y) = 0.29517 0.21510
# Poissons Ratio (z) = 0.16844 0.25669
#
# Static dielectric constant tensor:
#      x y z
#    x 1.628140 0.000000 0.000000 
#    y 0.000000 1.617850 0.000000 
#    z 0.000000 0.000000 1.684920 
# 
# From -- ./inp_files/33138.got.cif
#   From: 2010.05.17/outbox.cif.g08.bks.cpg/sg69_17_cif.got.tgz:33138.got - 2010.06.03 19:29:58.
