data_PCOD9512639
_publ_section_title
;
Structure prediction by ZEFSAII (Michael W. Deem and Ramdas Pophale) SiO2 
 PCOD9512639
Probable space group: F M M M
;
_chemical_formula_sum "Si O2"
_cell_formula_units_Z 144
_cell_length_a 18.404476
_cell_length_b 22.913061
_cell_length_c 17.497168
_cell_angle_alpha 90.000000
_cell_angle_beta 90.000000
_cell_angle_gamma 90.000000
_cell_volume 7378.606160
_symmetry_space_group_name_H-M "F M M M"
_symmetry_group_IT_number 69
_symmetry_cell_setting 'orthorhombic'
loop_
_space_group_symop_operation_xyz
x,y,z
-x,-y,z
x,-y,-z
-x,y,-z
-x,-y,-z
x,y,-z
-x,y,z
x,-y,z
x,1/2+y,1/2+z
-x,1/2-y,1/2+z
x,1/2-y,1/2-z
-x,1/2+y,1/2-z
-x,1/2-y,1/2-z
x,1/2+y,1/2-z
-x,1/2+y,1/2+z
x,1/2-y,1/2+z
1/2+x,y,1/2+z
1/2-x,-y,1/2+z
1/2+x,-y,1/2-z
1/2-x,y,1/2-z
1/2-x,-y,1/2-z
1/2+x,y,1/2-z
1/2-x,y,1/2+z
1/2+x,-y,1/2+z
1/2+x,1/2+y,z
1/2-x,1/2-y,z
1/2+x,1/2-y,-z
1/2-x,1/2+y,-z
1/2-x,1/2-y,-z
1/2+x,1/2+y,-z
1/2-x,1/2+y,z
1/2+x,1/2-y,z
loop_
_atom_site_type_symbol
_atom_site_label
_atom_site_fract_x
_atom_site_fract_y
_atom_site_fract_z
Si Si1 0.913917 0.065765 0.500000
Si Si2 0.847726 0.855413 0.369540
Si Si3 0.916233 0.237342 0.912582
Si Si4 0.721163 0.564170 0.162638
Si Si5 0.584958 0.628602 0.201216
O O1 0.889872 0.101394 0.574071
O O2 0.000000 0.062632 0.500000
O O3 0.884301 0.000000 0.500000
O O4 0.860737 0.789830 0.397516
O O5 0.766423 0.881514 0.370747
O O6 0.881849 0.859082 0.284881
O O7 0.908168 0.185917 0.851609
O O8 0.000000 0.260110 0.904788
O O9 0.908632 0.216413 0.000000
O O10 0.735164 0.500000 0.128211
O O11 0.750000 0.561155 0.250000
O O12 0.636331 0.579146 0.165263
O O13 0.500000 0.613462 0.206707
#
# Coordination Sequence:
#
# PCOD9512639 Si02
#       5
#    16  32  32  32  32
#     4  11  22  34  54  89 127 159 194 237 293 363
#     4  11  20  36  59  86 121 158 192 239 299 361
#     4  10  20  36  58  86 122 156 192 247 301 348
#     4   9  20  38  57  81 116 153 194 245 294 342
#     4  10  21  37  61  88 115 156 206 245 290 355
#
# _framework density 19.515881
#
# number of rings (size 3 to 8) (size 9 to 14) (size 15 to 20)
#    0.000    1.889    1.111    3.333    0.000    4.000 
#    2.000    4.444    0.000    0.000    0.000    3.111 
#    0.000    0.000    0.000    0.000    0.000    0.000 
#
# Total GULP energy -200847.705775 kJ/mol
# GULP energy per Si atom -5579.102938 kJ/mol
# Density = 1.947146 g / cm^3
# Si number density = 19.515881 Si / 1000 Ang^3
#
#
#
# Elastic Constant Matrix: (Units=GPa)
#
#
# Indices 1 2 3 4 5 6 
#
# 1 93.3817 30.4788 23.7246 0.0000 0.0000 0.0000
# 2 30.4788 75.0087 31.2585 0.0000 0.0000 0.0000
# 3 23.7246 31.2585 95.1667 0.0000 0.0000 0.0000
# 4 0.0000 0.0000 0.0000 -19.6850 0.0000 0.0000
# 5 0.0000 0.0000 0.0000 0.0000 19.3838 0.0000
# 6 0.0000 0.0000 0.0000 0.0000 0.0000 17.2206
#
#
#
# Elastic Compliance Matrix: (Units=1/GPa)
#
#
# Indices 1 2 3 4 5 6 
#
# 1 0.012576 -0.004407 -0.001688 0.000000 0.000000 0.000000
# 2 -0.004407 0.016990 -0.004482 0.000000 0.000000 0.000000
# 3 -0.001688 -0.004482 0.012401 0.000000 0.000000 0.000000
# 4 0.000000 0.000000 0.000000 -0.050800 0.000000 0.000000
# 5 0.000000 0.000000 0.000000 0.000000 0.051590 0.000000
# 6 0.000000 0.000000 0.000000 0.000000 0.000000 0.058070
#
#
# Mechanical properties :
#
#
# Convention : Reuss Voigt Hill
#
# Bulk Modulus (GPa) = 48.04464 48.27563 48.16014
# Shear Modulus (GPa) = 38.78465 15.25689 27.02077
#
# Velocity S-wave (km/s) = 4.46279 2.79904 3.72500
# Velocity P-wave (km/s) = 7.15731 5.93603 6.57509
#
# Compressibility (1/GPa) = 0.02081398
#
# Stress axis : x y z
#
# Youngs Moduli (GPa) = 79.51777 58.85744 80.64008
#
# Poissons Ratio (x) = 0.25937 0.13609
# Poissons Ratio (y) = 0.35041 0.36143
# Poissons Ratio (z) = 0.13420 0.26380
#
# Static dielectric constant tensor:
#      x y z
#    x 1.706550 0.000000 0.000000 
#    y 0.000000 1.669730 0.000000 
#    z 0.000000 0.000000 1.681200 
# 
# From -- ./inp_files/22843.got.cif
#   From: 2010.05.17/outbox.cif.g08.bks.cpg/sg69_12_cif.got.tgz:22843.got - 2010.06.03 19:29:58.
