data_PCOD9512355
_publ_section_title
;
Structure prediction by ZEFSAII (Michael W. Deem and Ramdas Pophale) SiO2 
 PCOD9512355
Probable space group: F M M M
;
_chemical_formula_sum "Si O2"
_cell_formula_units_Z 144
_cell_length_a 15.547410
_cell_length_b 25.660583
_cell_length_c 16.399869
_cell_angle_alpha 90.000000
_cell_angle_beta 90.000000
_cell_angle_gamma 90.000000
_cell_volume 6542.819655
_symmetry_space_group_name_H-M "F M M M"
_symmetry_group_IT_number 69
_symmetry_cell_setting 'orthorhombic'
loop_
_space_group_symop_operation_xyz
x,y,z
-x,-y,z
x,-y,-z
-x,y,-z
-x,-y,-z
x,y,-z
-x,y,z
x,-y,z
x,1/2+y,1/2+z
-x,1/2-y,1/2+z
x,1/2-y,1/2-z
-x,1/2+y,1/2-z
-x,1/2-y,1/2-z
x,1/2+y,1/2-z
-x,1/2+y,1/2+z
x,1/2-y,1/2+z
1/2+x,y,1/2+z
1/2-x,-y,1/2+z
1/2+x,-y,1/2-z
1/2-x,y,1/2-z
1/2-x,-y,1/2-z
1/2+x,y,1/2-z
1/2-x,y,1/2+z
1/2+x,-y,1/2+z
1/2+x,1/2+y,z
1/2-x,1/2-y,z
1/2+x,1/2-y,-z
1/2-x,1/2+y,-z
1/2-x,1/2-y,-z
1/2+x,1/2+y,-z
1/2-x,1/2+y,z
1/2+x,1/2-y,z
loop_
_atom_site_type_symbol
_atom_site_label
_atom_site_fract_x
_atom_site_fract_y
_atom_site_fract_z
Si Si1 0.100338 0.726533 0.909952
Si Si2 0.261932 0.086441 0.404736
Si Si3 0.099072 0.000000 0.901113
Si Si4 0.327485 0.320349 0.813674
Si Si5 0.404924 0.616479 0.324488
O O1 0.142382 0.764936 0.845226
O O2 0.102337 0.666133 0.885402
O O3 0.000000 0.741305 0.911528
O O4 0.137294 0.733630 0.000000
O O5 0.242229 0.077207 0.500000
O O6 0.295446 0.144894 0.388998
O O7 0.176466 0.081029 0.348948
O O8 0.340710 0.049073 0.379356
O O9 0.000000 0.000000 0.870334
O O10 0.092951 0.000000 0.000000
O O11 0.250000 0.315942 0.750000
O O12 0.394974 0.355488 0.763224
O O13 0.500000 0.593005 0.332373
#
# Coordination Sequence:
#
# PCOD9512355 Si02
#       5
#    32  32  16  32  32
#     4  10  20  34  54  80 111 152 201 244 279 322
#     4  10  21  38  61  86 111 143 187 237 289 345
#     4   9  20  40  64  89 115 141 177 236 302 348
#     4  10  21  35  53  81 116 153 194 237 284 336
#     4  10  21  37  55  80 120 162 193 228 280 341
#
# _framework density 22.008859999999999
#
# number of rings (size 3 to 8) (size 9 to 14) (size 15 to 20)
#    0.000    2.111    0.000    2.667    0.000   11.111 
#    0.000   13.333    0.000    2.000    0.000    0.000 
#    0.000    0.000    0.000    0.000    0.000    0.444 
#
# Total GULP energy -201046.296417 kJ/mol
# GULP energy per Si atom -5584.619345 kJ/mol
# Density = 2.195877 g / cm^3
# Si number density = 22.008860 Si / 1000 Ang^3
#
#
#
# Elastic Constant Matrix: (Units=GPa)
#
#
# Indices 1 2 3 4 5 6 
#
# 1 167.4306 36.0766 19.3014 0.0000 0.0000 0.0000
# 2 36.0766 42.7292 2.1186 0.0000 0.0000 0.0000
# 3 19.3014 2.1186 71.7517 0.0000 0.0000 0.0000
# 4 0.0000 0.0000 0.0000 20.9678 0.0000 0.0000
# 5 0.0000 0.0000 0.0000 0.0000 25.0534 0.0000
# 6 0.0000 0.0000 0.0000 0.0000 0.0000 30.3539
#
#
#
# Elastic Compliance Matrix: (Units=1/GPa)
#
#
# Indices 1 2 3 4 5 6 
#
# 1 0.007536 -0.006272 -0.001842 0.000000 0.000000 0.000000
# 2 -0.006272 0.028657 0.000841 0.000000 0.000000 0.000000
# 3 -0.001842 0.000841 0.014408 0.000000 0.000000 0.000000
# 4 0.000000 0.000000 0.000000 0.047692 0.000000 0.000000
# 5 0.000000 0.000000 0.000000 0.000000 0.039915 0.000000
# 6 0.000000 0.000000 0.000000 0.000000 0.000000 0.032945
#
#
# Mechanical properties :
#
#
# Convention : Reuss Voigt Hill
#
# Bulk Modulus (GPa) = 27.73535 44.10052 35.91793
# Shear Modulus (GPa) = 25.28876 30.23603 27.76240
#
# Velocity S-wave (km/s) = 3.39341 3.71052 3.55550
# Velocity P-wave (km/s) = 5.28988 6.19987 5.76287
#
# Compressibility (1/GPa) = 0.03605508
#
# Stress axis : x y z
#
# Youngs Moduli (GPa) = 132.69017 34.89581 69.40758
#
# Poissons Ratio (x) = 0.21886 0.12786
# Poissons Ratio (y) = 0.83219 -0.05837
# Poissons Ratio (z) = 0.24443 -0.02935
#
# Static dielectric constant tensor:
#      x y z
#    x 1.875630 0.000000 0.000000 
#    y 0.000000 1.803480 0.000000 
#    z 0.000000 0.000000 1.836730 
# 
# From -- ./inp_files/22856.got.cif
#   From: 2010.05.17/outbox.cif.g08.bks.cpg/sg69_12_cif.got.tgz:22856.got - 2010.06.03 19:29:58.
