data_PCOD9512310
_publ_section_title
;
Structure prediction by ZEFSAII (Michael W. Deem and Ramdas Pophale) SiO2 
 PCOD9512310
Probable space group: F M M M
;
_chemical_formula_sum "Si O2"
_cell_formula_units_Z 224
_cell_length_a 31.082942
_cell_length_b 23.943750
_cell_length_c 17.163363
_cell_angle_alpha 90.000000
_cell_angle_beta 90.000000
_cell_angle_gamma 90.000000
_cell_volume 12773.698910
_symmetry_space_group_name_H-M "F M M M"
_symmetry_group_IT_number 69
_symmetry_cell_setting 'orthorhombic'
loop_
_space_group_symop_operation_xyz
x,y,z
-x,-y,z
x,-y,-z
-x,y,-z
-x,-y,-z
x,y,-z
-x,y,z
x,-y,z
x,1/2+y,1/2+z
-x,1/2-y,1/2+z
x,1/2-y,1/2-z
-x,1/2+y,1/2-z
-x,1/2-y,1/2-z
x,1/2+y,1/2-z
-x,1/2+y,1/2+z
x,1/2-y,1/2+z
1/2+x,y,1/2+z
1/2-x,-y,1/2+z
1/2+x,-y,1/2-z
1/2-x,y,1/2-z
1/2-x,-y,1/2-z
1/2+x,y,1/2-z
1/2-x,y,1/2+z
1/2+x,-y,1/2+z
1/2+x,1/2+y,z
1/2-x,1/2-y,z
1/2+x,1/2-y,-z
1/2-x,1/2+y,-z
1/2-x,1/2-y,-z
1/2+x,1/2+y,-z
1/2-x,1/2+y,z
1/2+x,1/2-y,z
loop_
_atom_site_type_symbol
_atom_site_label
_atom_site_fract_x
_atom_site_fract_y
_atom_site_fract_z
Si Si1 0.160268 0.434447 0.180043
Si Si2 0.743963 0.067638 0.087792
Si Si3 0.913703 0.869178 0.409099
Si Si4 0.925419 0.627918 0.590770
Si Si5 0.950392 0.748078 0.905481
Si Si6 0.000000 0.934059 0.630423
Si Si7 0.839713 0.934348 0.866495
Si Si8 0.500000 0.565864 0.817085
O O1 0.154380 0.500000 0.158475
O O2 0.206823 0.415811 0.147787
O O3 0.122963 0.398667 0.140862
O O4 0.158631 0.431230 0.272977
O O5 0.792485 0.085291 0.107020
O O6 0.745385 0.000000 0.090619
O O7 0.732199 0.084418 0.000000
O O8 0.900847 0.866885 0.500000
O O9 0.925074 0.806930 0.379770
O O10 0.957573 0.904614 0.402373
O O11 0.938985 0.623923 0.500000
O O12 0.928837 0.692926 0.614087
O O13 0.878217 0.602125 0.599527
O O14 0.958302 0.593693 0.644242
O O15 0.000000 0.747306 0.877983
O O16 0.951868 0.744645 0.000000
O O17 0.000000 0.926795 0.724106
O O18 0.000000 0.000000 0.613247
O O19 0.845054 0.000000 0.888788
O O20 0.500000 0.500000 0.833387
#
# Coordination Sequence:
#
# PCOD9512310 Si02
#       8
#    32  32  32  32  32  16  32  16
#     4  10  20  34  52  78 113 145 171 209 265 317
#     4   9  17  31  53  80 107 138 179 217 251 307
#     4  11  21  35  56  77 101 136 179 221 260 310
#     4  11  21  35  56  77 101 136 179 221 260 310
#     4   9  18  36  56  75 100 133 176 226 271 305
#     4  11  23  36  49  72 108 141 168 209 266 317
#     4  10  20  34  52  78 113 145 171 209 265 317
#     4  11  23  36  49  72 108 141 168 209 266 317
#
# _framework density 17.536033
#
# number of rings (size 3 to 8) (size 9 to 14) (size 15 to 20)
#    0.000    1.857    1.429    3.429    0.000    8.000 
#    0.000    3.571    0.000    0.857    0.000    6.000 
#    0.000    0.000    0.000    0.000    0.000    0.000 
#
# Total GULP energy -312681.713524 kJ/mol
# GULP energy per Si atom -5583.602027 kJ/mol
# Density = 1.749612 g / cm^3
# Si number density = 17.536033 Si / 1000 Ang^3
#
#
#
# Elastic Constant Matrix: (Units=GPa)
#
#
# Indices 1 2 3 4 5 6 
#
# 1 79.9854 29.5645 3.8847 0.0000 0.0000 0.0000
# 2 29.5645 90.4807 20.7401 0.0000 0.0000 0.0000
# 3 3.8847 20.7401 35.6648 0.0000 0.0000 0.0000
# 4 0.0000 0.0000 0.0000 3.1454 0.0000 0.0000
# 5 0.0000 0.0000 0.0000 0.0000 17.1184 0.0000
# 6 0.0000 0.0000 0.0000 0.0000 0.0000 -6.3450
#
#
#
# Elastic Compliance Matrix: (Units=1/GPa)
#
#
# Indices 1 2 3 4 5 6 
#
# 1 0.014275 -0.004970 0.001336 0.000000 0.000000 0.000000
# 2 -0.004970 0.014483 -0.007881 0.000000 0.000000 0.000000
# 3 0.001336 -0.007881 0.032476 0.000000 0.000000 0.000000
# 4 0.000000 0.000000 0.000000 0.317925 0.000000 0.000000
# 5 0.000000 0.000000 0.000000 0.000000 0.058417 0.000000
# 6 0.000000 0.000000 0.000000 0.000000 0.000000 -0.157604
#
#
# Mechanical properties :
#
#
# Convention : Reuss Voigt Hill
#
# Bulk Modulus (GPa) = 26.17629 34.94548 30.56089
# Shear Modulus (GPa) = 15.83602 12.91319 14.37460
#
# Velocity S-wave (km/s) = 3.00835 2.71658 2.86618
# Velocity P-wave (km/s) = 5.19870 5.45993 5.33091
#
# Compressibility (1/GPa) = 0.03820251
#
# Stress axis : x y z
#
# Youngs Moduli (GPa) = 70.05460 69.04859 30.79180
#
# Poissons Ratio (x) = 0.34320 -0.04113
# Poissons Ratio (y) = 0.34820 0.24266
# Poissons Ratio (z) = -0.09356 0.54415
#
# Static dielectric constant tensor:
#      x y z
#    x 1.578450 0.000000 0.000000 
#    y 0.000000 1.579540 0.000000 
#    z 0.000000 0.000000 1.606300 
# 
# From -- ./inp_files/28004.got.cif
#   From: 2010.05.17/outbox.cif.g08.bks.cpg/sg69_15_cif.got.tgz:28004.got - 2010.06.03 19:29:58.
