data_PCOD9512469
_publ_section_title
;
Structure prediction by ZEFSAII (Michael W. Deem and Ramdas Pophale) SiO2 
 PCOD9512469
Probable space group: F M M M
;
_chemical_formula_sum "Si O2"
_cell_formula_units_Z 240
_cell_length_a 28.713137
_cell_length_b 19.679441
_cell_length_c 21.302538
_cell_angle_alpha 90.000000
_cell_angle_beta 90.000000
_cell_angle_gamma 90.000000
_cell_volume 12037.179860
_symmetry_space_group_name_H-M "F M M M"
_symmetry_group_IT_number 69
_symmetry_cell_setting 'orthorhombic'
loop_
_space_group_symop_operation_xyz
x,y,z
-x,-y,z
x,-y,-z
-x,y,-z
-x,-y,-z
x,y,-z
-x,y,z
x,-y,z
x,1/2+y,1/2+z
-x,1/2-y,1/2+z
x,1/2-y,1/2-z
-x,1/2+y,1/2-z
-x,1/2-y,1/2-z
x,1/2+y,1/2-z
-x,1/2+y,1/2+z
x,1/2-y,1/2+z
1/2+x,y,1/2+z
1/2-x,-y,1/2+z
1/2+x,-y,1/2-z
1/2-x,y,1/2-z
1/2-x,-y,1/2-z
1/2+x,y,1/2-z
1/2-x,y,1/2+z
1/2+x,-y,1/2+z
1/2+x,1/2+y,z
1/2-x,1/2-y,z
1/2+x,1/2-y,-z
1/2-x,1/2+y,-z
1/2-x,1/2-y,-z
1/2+x,1/2+y,-z
1/2-x,1/2+y,z
1/2+x,1/2-y,z
loop_
_atom_site_type_symbol
_atom_site_label
_atom_site_fract_x
_atom_site_fract_y
_atom_site_fract_z
Si Si1 0.806351 0.672601 0.749975
Si Si2 0.946019 0.810170 0.173851
Si Si3 0.801584 0.419265 0.370596
Si Si4 0.947008 0.148592 0.307385
Si Si5 0.389230 0.131084 0.571118
Si Si6 0.599065 0.419486 0.429760
Si Si7 0.307206 0.578803 0.632910
Si Si8 0.948024 0.500000 0.423979
O O1 0.825122 0.750000 0.750000
O O2 0.750000 0.677873 0.750000
O O3 0.815565 0.625145 0.690131
O O4 0.819740 0.631064 0.811872
O O5 0.930074 0.854674 0.234607
O O6 0.948747 0.729905 0.185932
O O7 0.908155 0.814436 0.119128
O O8 0.000000 0.830600 0.158100
O O9 0.808768 0.500000 0.360890
O O10 0.835833 0.390733 0.423274
O O11 0.746787 0.409552 0.384351
O O12 0.922062 0.116143 0.367777
O O13 0.000000 0.122231 0.307606
O O14 0.400768 0.148792 0.500000
O O15 0.419139 0.065956 0.592561
O O16 0.585149 0.395139 0.500000
O O17 0.587870 0.500000 0.426438
O O18 0.654990 0.413342 0.421487
O O19 0.310198 0.500000 0.655522
O O20 0.950558 0.500000 0.500000
O O21 0.000000 0.500000 0.398542
#
# Coordination Sequence:
#
# PCOD9512469 Si02
#       8
#    32  32  32  32  32  32  32  16
#     4   9  18  33  54  80 109 145 192 243 294 343
#     4   9  20  40  63  87 116 152 193 237 293 356
#     4  10  20  35  55  81 115 155 199 241 285 341
#     4   9  20  41  65  87 115 149 190 244 296 349
#     4  11  22  35  54  84 118 152 194 240 282 337
#     4  10  22  39  59  87 120 155 197 242 296 355
#     4   9  19  36  57  80 114 157 196 239 289 347
#     4   9  18  34  52  72 107 148 181 227 285 332
#
# _framework density 19.938224999999999
#
# number of rings (size 3 to 8) (size 9 to 14) (size 15 to 20)
#    0.000    2.467    0.667    1.600    1.867    5.067 
#    1.200    3.333    0.000    0.000    0.000    5.600 
#    0.000    0.000    0.000    0.000    0.000    0.000 
#
# Total GULP energy -334210.720867 kJ/mol
# GULP energy per Si atom -5570.178681 kJ/mol
# Density = 1.989284 g / cm^3
# Si number density = 19.938225 Si / 1000 Ang^3
#
#
#
# Elastic Constant Matrix: (Units=GPa)
#
#
# Indices 1 2 3 4 5 6 
#
# 1 69.4788 15.0771 42.5461 0.0000 0.0000 0.0000
# 2 15.0771 46.2482 34.1850 0.0000 0.0000 0.0000
# 3 42.5461 34.1850 119.6166 0.0000 0.0000 0.0000
# 4 0.0000 0.0000 0.0000 19.1392 0.0000 0.0000
# 5 0.0000 0.0000 0.0000 0.0000 26.9856 0.0000
# 6 0.0000 0.0000 0.0000 0.0000 0.0000 35.4210
#
#
#
# Elastic Compliance Matrix: (Units=1/GPa)
#
#
# Indices 1 2 3 4 5 6 
#
# 1 0.018480 -0.001478 -0.006151 0.000000 0.000000 0.000000
# 2 -0.001478 0.027532 -0.007342 0.000000 0.000000 0.000000
# 3 -0.006151 -0.007342 0.012646 0.000000 0.000000 0.000000
# 4 0.000000 0.000000 0.000000 0.052249 0.000000 0.000000
# 5 0.000000 0.000000 0.000000 0.000000 0.037057 0.000000
# 6 0.000000 0.000000 0.000000 0.000000 0.000000 0.028232
#
#
# Mechanical properties :
#
#
# Convention : Reuss Voigt Hill
#
# Bulk Modulus (GPa) = 34.82475 46.55111 40.68793
# Shear Modulus (GPa) = 23.17930 25.87818 24.52874
#
# Velocity S-wave (km/s) = 3.41333 3.60657 3.51128
# Velocity P-wave (km/s) = 5.74792 6.38291 6.07372
#
# Compressibility (1/GPa) = 0.02871521
#
# Stress axis : x y z
#
# Youngs Moduli (GPa) = 54.11232 36.32189 79.07555
#
# Poissons Ratio (x) = 0.05369 0.48637
# Poissons Ratio (y) = 0.07999 0.58061
# Poissons Ratio (z) = 0.33283 0.26669
#
# Static dielectric constant tensor:
#      x y z
#    x 1.743070 0.000000 0.000000 
#    y 0.000000 1.740540 0.000000 
#    z 0.000000 0.000000 1.725320 
# 
# From -- ./inp_files/33574.got.cif
#   From: 2010.05.17/outbox.cif.g08.bks.cpg/sg69_17_cif.got.tgz:33574.got - 2010.06.03 19:29:58.
