data_PCOD9512541
_publ_section_title
;
Structure prediction by ZEFSAII (Michael W. Deem and Ramdas Pophale) SiO2 
 PCOD9512541
Probable space group: F M M M
;
_chemical_formula_sum "Si O2"
_cell_formula_units_Z 144
_cell_length_a 20.749085
_cell_length_b 19.333561
_cell_length_c 18.974196
_cell_angle_alpha 90.000000
_cell_angle_beta 90.000000
_cell_angle_gamma 90.000000
_cell_volume 7611.568940
_symmetry_space_group_name_H-M "F M M M"
_symmetry_group_IT_number 69
_symmetry_cell_setting 'orthorhombic'
loop_
_space_group_symop_operation_xyz
x,y,z
-x,-y,z
x,-y,-z
-x,y,-z
-x,-y,-z
x,y,-z
-x,y,z
x,-y,z
x,1/2+y,1/2+z
-x,1/2-y,1/2+z
x,1/2-y,1/2-z
-x,1/2+y,1/2-z
-x,1/2-y,1/2-z
x,1/2+y,1/2-z
-x,1/2+y,1/2+z
x,1/2-y,1/2+z
1/2+x,y,1/2+z
1/2-x,-y,1/2+z
1/2+x,-y,1/2-z
1/2-x,y,1/2-z
1/2-x,-y,1/2-z
1/2+x,y,1/2-z
1/2-x,y,1/2+z
1/2+x,-y,1/2+z
1/2+x,1/2+y,z
1/2-x,1/2-y,z
1/2+x,1/2-y,-z
1/2-x,1/2+y,-z
1/2-x,1/2-y,-z
1/2+x,1/2+y,-z
1/2-x,1/2+y,z
1/2+x,1/2-y,z
loop_
_atom_site_type_symbol
_atom_site_label
_atom_site_fract_x
_atom_site_fract_y
_atom_site_fract_z
Si Si1 0.575736 0.421401 0.500000
Si Si2 0.127912 0.921817 0.643114
Si Si3 0.074618 0.289993 0.823310
Si Si4 0.726839 0.579253 0.170297
Si Si5 0.318737 0.209588 0.414964
O O1 0.602144 0.500000 0.500000
O O2 0.500000 0.424619 0.500000
O O3 0.599192 0.390665 0.571645
O O4 0.102759 0.865854 0.697117
O O5 0.203732 0.924331 0.632940
O O6 0.104601 0.000000 0.656178
O O7 0.074653 0.250000 0.750000
O O8 0.123884 0.252233 0.877156
O O9 0.000000 0.294171 0.848305
O O10 0.700132 0.500000 0.173510
O O11 0.750000 0.598224 0.250000
O O12 0.687597 0.636821 0.127765
O O13 0.328177 0.201257 0.500000
O O14 0.250000 0.250000 0.405501
#
# Coordination Sequence:
#
# PCOD9512541 Si02
#       5
#    16  32  32  32  32
#     4   9  18  30  48  79 114 148 178 215 288 369
#     4  10  20  35  58  86 119 151 185 239 307 369
#     4  11  24  40  60  87 121 164 209 252 305 366
#     4  10  21  37  61  90 118 156 204 251 304 360
#     4  11  24  39  60  91 122 162 204 242 304 373
#
# _framework density 18.918569999999999
#
# number of rings (size 3 to 8) (size 9 to 14) (size 15 to 20)
#    0.000    1.667    2.222    2.000    3.111    2.222 
#    0.000    0.000    0.000    2.000    0.000    1.556 
#    0.000    0.000    0.000    0.000    0.000    0.000 
#
# Total GULP energy -200494.938832 kJ/mol
# GULP energy per Si atom -5569.303856 kJ/mol
# Density = 1.887551 g / cm^3
# Si number density = 18.918570 Si / 1000 Ang^3
#
#
#
# Elastic Constant Matrix: (Units=GPa)
#
#
# Indices 1 2 3 4 5 6 
#
# 1 95.0842 44.7469 25.2353 0.0000 0.0000 0.0000
# 2 44.7469 154.8096 47.3121 0.0000 0.0000 0.0000
# 3 25.2353 47.3121 64.5665 0.0000 0.0000 0.0000
# 4 0.0000 0.0000 0.0000 32.9527 0.0000 0.0000
# 5 0.0000 0.0000 0.0000 0.0000 30.4022 0.0000
# 6 0.0000 0.0000 0.0000 0.0000 0.0000 14.4524
#
#
#
# Elastic Compliance Matrix: (Units=1/GPa)
#
#
# Indices 1 2 3 4 5 6 
#
# 1 0.012581 -0.002749 -0.002903 0.000000 0.000000 0.000000
# 2 -0.002749 0.008924 -0.005465 0.000000 0.000000 0.000000
# 3 -0.002903 -0.005465 0.020627 0.000000 0.000000 0.000000
# 4 0.000000 0.000000 0.000000 0.030347 0.000000 0.000000
# 5 0.000000 0.000000 0.000000 0.000000 0.032892 0.000000
# 6 0.000000 0.000000 0.000000 0.000000 0.000000 0.069193
#
#
# Mechanical properties :
#
#
# Convention : Reuss Voigt Hill
#
# Bulk Modulus (GPa) = 50.25472 61.00545 55.63008
# Shear Modulus (GPa) = 24.57836 28.70586 26.64211
#
# Velocity S-wave (km/s) = 3.60830 3.89953 3.75674
# Velocity P-wave (km/s) = 6.63183 7.25199 6.94883
#
# Compressibility (1/GPa) = 0.01989863
#
# Stress axis : x y z
#
# Youngs Moduli (GPa) = 79.48342 112.05213 48.48056
#
# Poissons Ratio (x) = 0.30808 0.14072
# Poissons Ratio (y) = 0.21854 0.26494
# Poissons Ratio (z) = 0.23071 0.61235
#
# Static dielectric constant tensor:
#      x y z
#    x 1.670320 0.000000 0.000000 
#    y 0.000000 1.729800 0.000000 
#    z 0.000000 0.000000 1.752920 
# 
# From -- ./inp_files/31685.got.cif
#   From: 2010.05.17/outbox.cif.g08.bks.cpg/sg69_16_cif.got.tgz:31685.got - 2010.06.03 19:29:58.
