data_PCOD9512878
_publ_section_title
;
Structure prediction by ZEFSAII (Michael W. Deem and Ramdas Pophale) SiO2 
 PCOD9512878
Probable space group: F M M M
;
_chemical_formula_sum "Si O2"
_cell_formula_units_Z 128
_cell_length_a 20.207284
_cell_length_b 15.648603
_cell_length_c 18.479042
_cell_angle_alpha 90.000000
_cell_angle_beta 90.000000
_cell_angle_gamma 90.000000
_cell_volume 5843.364403
_symmetry_space_group_name_H-M "F M M M"
_symmetry_group_IT_number 69
_symmetry_cell_setting 'orthorhombic'
loop_
_space_group_symop_operation_xyz
x,y,z
-x,-y,z
x,-y,-z
-x,y,-z
-x,-y,-z
x,y,-z
-x,y,z
x,-y,z
x,1/2+y,1/2+z
-x,1/2-y,1/2+z
x,1/2-y,1/2-z
-x,1/2+y,1/2-z
-x,1/2-y,1/2-z
x,1/2+y,1/2-z
-x,1/2+y,1/2+z
x,1/2-y,1/2+z
1/2+x,y,1/2+z
1/2-x,-y,1/2+z
1/2+x,-y,1/2-z
1/2-x,y,1/2-z
1/2-x,-y,1/2-z
1/2+x,y,1/2-z
1/2-x,y,1/2+z
1/2+x,-y,1/2+z
1/2+x,1/2+y,z
1/2-x,1/2-y,z
1/2+x,1/2-y,-z
1/2-x,1/2+y,-z
1/2-x,1/2-y,-z
1/2+x,1/2+y,-z
1/2-x,1/2+y,z
1/2+x,1/2-y,z
loop_
_atom_site_type_symbol
_atom_site_label
_atom_site_fract_x
_atom_site_fract_y
_atom_site_fract_z
Si Si1 0.500000 0.827577 0.808984
Si Si2 0.723546 0.895963 0.920687
Si Si3 0.500000 0.813127 0.414460
Si Si4 0.136628 0.403352 0.374734
Si Si5 0.355782 0.347860 0.278990
O O1 0.500000 0.750000 0.750000
O O2 0.500000 0.783731 0.887108
O O3 0.431204 0.873706 0.797107
O O4 0.800479 0.868243 0.917790
O O5 0.686342 0.858879 0.851175
O O6 0.722922 0.000000 0.914516
O O7 0.695713 0.873386 0.000000
O O8 0.500000 0.823430 0.500000
O O9 0.567806 0.853546 0.383211
O O10 0.123629 0.500000 0.398385
O O11 0.161763 0.401510 0.291809
O O12 0.352921 0.250000 0.250000
#
# Coordination Sequence:
#
# PCOD9512878 Si02
#       5
#    16  32  16  32  32
#     4  10  20  42  60  84 123 157 199 247 303 355
#     4  10  23  42  62  90 127 163 203 255 310 363
#     4  12  23  39  62  90 120 158 203 250 308 367
#     4  11  22  39  63  91 122 160 203 251 305 365
#     4  11  21  41  66  88 122 162 205 250 301 367
#
# _framework density 21.905189
#
# number of rings (size 3 to 8) (size 9 to 14) (size 15 to 20)
#    0.000    1.250    5.000    2.625    0.000    7.000 
#    0.000    3.125    0.000    1.500    0.000    0.000 
#    0.000    0.000    0.000    0.000    0.000    0.000 
#
# Total GULP energy -178752.081115 kJ/mol
# GULP energy per Si atom -5586.002535 kJ/mol
# Density = 2.185533 g / cm^3
# Si number density = 21.905189 Si / 1000 Ang^3
#
#
#
# Elastic Constant Matrix: (Units=GPa)
#
#
# Indices 1 2 3 4 5 6 
#
# 1 105.4457 1.4056 63.5295 0.0000 0.0000 0.0000
# 2 1.4056 22.3477 15.8116 0.0000 0.0000 0.0000
# 3 63.5295 15.8116 177.4147 0.0000 0.0000 0.0000
# 4 0.0000 0.0000 0.0000 21.1402 0.0000 0.0000
# 5 0.0000 0.0000 0.0000 0.0000 26.2609 0.0000
# 6 0.0000 0.0000 0.0000 0.0000 0.0000 10.7280
#
#
#
# Elastic Compliance Matrix: (Units=1/GPa)
#
#
# Indices 1 2 3 4 5 6 
#
# 1 0.012220 0.002484 -0.004597 0.000000 0.000000 0.000000
# 2 0.002484 0.048264 -0.005191 0.000000 0.000000 0.000000
# 3 -0.004597 -0.005191 0.007745 0.000000 0.000000 0.000000
# 4 0.000000 0.000000 0.000000 0.047303 0.000000 0.000000
# 5 0.000000 0.000000 0.000000 0.000000 0.038079 0.000000
# 6 0.000000 0.000000 0.000000 0.000000 0.000000 0.093214
#
#
# Mechanical properties :
#
#
# Convention : Reuss Voigt Hill
#
# Bulk Modulus (GPa) = 18.64936 51.85571 35.25253
# Shear Modulus (GPa) = 17.90140 26.58992 22.24566
#
# Velocity S-wave (km/s) = 2.86181 3.48783 3.19022
# Velocity P-wave (km/s) = 4.41045 6.32014 5.44960
#
# Compressibility (1/GPa) = 0.05362115
#
# Stress axis : x y z
#
# Youngs Moduli (GPa) = 81.83155 20.71949 129.10987
#
# Poissons Ratio (x) = -0.05147 0.59355
# Poissons Ratio (y) = -0.20327 0.67019
# Poissons Ratio (z) = 0.37620 0.10755
#
# Static dielectric constant tensor:
#      x y z
#    x 1.799430 0.000000 0.000000 
#    y 0.000000 1.836920 0.000000 
#    z 0.000000 0.000000 1.825620 
# 
# From -- ./inp_files/24386.got.cif
#   From: 2010.05.17/outbox.cif.g08.bks.cpg/sg69_13_cif.got.tgz:24386.got - 2010.06.03 19:29:58.
