data_PCOD9512010
_publ_section_title
;
Structure prediction by ZEFSAII (Michael W. Deem and Ramdas Pophale) SiO2 
 PCOD9512010
Probable space group: F M M M
;
_chemical_formula_sum "Si O2"
_cell_formula_units_Z 224
_cell_length_a 33.028530
_cell_length_b 21.070206
_cell_length_c 15.049075
_cell_angle_alpha 90.000000
_cell_angle_beta 90.000000
_cell_angle_gamma 90.000000
_cell_volume 10472.921137
_symmetry_space_group_name_H-M "F M M M"
_symmetry_group_IT_number 69
_symmetry_cell_setting 'orthorhombic'
loop_
_space_group_symop_operation_xyz
x,y,z
-x,-y,z
x,-y,-z
-x,y,-z
-x,-y,-z
x,y,-z
-x,y,z
x,-y,z
x,1/2+y,1/2+z
-x,1/2-y,1/2+z
x,1/2-y,1/2-z
-x,1/2+y,1/2-z
-x,1/2-y,1/2-z
x,1/2+y,1/2-z
-x,1/2+y,1/2+z
x,1/2-y,1/2+z
1/2+x,y,1/2+z
1/2-x,-y,1/2+z
1/2+x,-y,1/2-z
1/2-x,y,1/2-z
1/2-x,-y,1/2-z
1/2+x,y,1/2-z
1/2-x,y,1/2+z
1/2+x,-y,1/2+z
1/2+x,1/2+y,z
1/2-x,1/2-y,z
1/2+x,1/2-y,-z
1/2-x,1/2+y,-z
1/2-x,1/2-y,-z
1/2+x,1/2+y,-z
1/2-x,1/2+y,z
1/2+x,1/2-y,z
loop_
_atom_site_type_symbol
_atom_site_label
_atom_site_fract_x
_atom_site_fract_y
_atom_site_fract_z
Si Si1 0.136123 0.312838 0.608262
Si Si2 0.590934 0.311700 0.398249
Si Si3 0.641855 0.928069 0.890924
Si Si4 0.273446 0.807742 0.343639
Si Si5 0.766851 0.431079 0.894987
Si Si6 0.500000 0.794442 0.133978
Si Si7 0.578705 0.926019 0.607714
Si Si8 0.000000 0.347924 0.333937
O O1 0.141789 0.311980 0.500000
O O2 0.104828 0.257068 0.636345
O O3 0.178846 0.297614 0.653876
O O4 0.116919 0.381157 0.630244
O O5 0.605210 0.310504 0.500000
O O6 0.612863 0.372530 0.356728
O O7 0.542974 0.319013 0.399225
O O8 0.688049 0.914340 0.861593
O O9 0.631409 0.000000 0.863251
O O10 0.640439 0.928765 0.000000
O O11 0.250000 0.811348 0.250000
O O12 0.250000 0.750000 0.391825
O O13 0.265179 0.876564 0.382276
O O14 0.754846 0.500000 0.859243
O O15 0.772163 0.436930 0.000000
O O16 0.500000 0.718824 0.112918
O O17 0.500000 0.818632 0.235530
O O18 0.574726 0.924803 0.500000
O O19 0.539191 0.890638 0.646287
O O20 0.581840 0.000000 0.634535
#
# Coordination Sequence:
#
# PCOD9512010 Si02
#       8
#    32  32  32  32  32  16  32  16
#     4  10  21  38  63  91 119 155 207 263 308 362
#     4  10  19  35  60  87 117 158 206 255 303 352
#     4   8  15  30  52  78 105 139 190 242 288 339
#     4  11  24  40  54  86 125 162 199 244 305 378
#     4   9  18  35  60  84 108 147 199 251 300 353
#     4  11  23  37  55  88 125 165 198 246 294 366
#     4  10  21  40  68  97 124 159 206 263 319 367
#     4  11  22  40  57  89 126 165 197 239 304 373
#
# _framework density 21.388491999999999
#
# number of rings (size 3 to 8) (size 9 to 14) (size 15 to 20)
#    0.000    2.143    1.429    2.786    0.000    4.286 
#    7.714    3.214    0.000    1.714    0.000    0.000 
#    0.000    0.000    0.000    0.000    0.000    0.000 
#
# Total GULP energy -312319.371310 kJ/mol
# GULP energy per Si atom -5577.131631 kJ/mol
# Density = 2.133981 g / cm^3
# Si number density = 21.388492 Si / 1000 Ang^3
#
#
#
# Elastic Constant Matrix: (Units=GPa)
#
#
# Indices 1 2 3 4 5 6 
#
# 1 106.5255 46.7678 2.0558 0.0000 0.0000 0.0000
# 2 46.7678 120.9268 2.2131 0.0000 0.0000 0.0000
# 3 2.0558 2.2131 42.2862 0.0000 0.0000 0.0000
# 4 0.0000 0.0000 0.0000 10.5054 0.0000 0.0000
# 5 0.0000 0.0000 0.0000 0.0000 8.2405 0.0000
# 6 0.0000 0.0000 0.0000 0.0000 0.0000 30.0859
#
#
#
# Elastic Compliance Matrix: (Units=1/GPa)
#
#
# Indices 1 2 3 4 5 6 
#
# 1 0.011312 -0.004369 -0.000321 0.000000 0.000000 0.000000
# 2 -0.004369 0.009965 -0.000309 0.000000 0.000000 0.000000
# 3 -0.000321 -0.000309 0.023680 0.000000 0.000000 0.000000
# 4 0.000000 0.000000 0.000000 0.095189 0.000000 0.000000
# 5 0.000000 0.000000 0.000000 0.000000 0.121352 0.000000
# 6 0.000000 0.000000 0.000000 0.000000 0.000000 0.033238
#
#
# Mechanical properties :
#
#
# Convention : Reuss Voigt Hill
#
# Bulk Modulus (GPa) = 28.60568 41.31244 34.95906
# Shear Modulus (GPa) = 15.80343 24.34649 20.07496
#
# Velocity S-wave (km/s) = 2.72118 3.37753 3.06696
# Velocity P-wave (km/s) = 4.82456 5.87941 5.37791
#
# Compressibility (1/GPa) = 0.03495810
#
# Stress axis : x y z
#
# Youngs Moduli (GPa) = 88.40419 100.35367 42.22942
#
# Poissons Ratio (x) = 0.43843 0.01357
# Poissons Ratio (y) = 0.38623 0.01305
# Poissons Ratio (z) = 0.02840 0.03102
#
# Static dielectric constant tensor:
#      x y z
#    x 1.742700 0.000000 0.000000 
#    y 0.000000 1.853920 0.000000 
#    z 0.000000 0.000000 1.762070 
# 
# From -- ./inp_files/27992.got.cif
#   From: 2010.05.17/outbox.cif.g08.bks.cpg/sg69_14_cif.got.tgz:27992.got - 2010.06.03 19:29:58.
