data_PCOD9512570
_publ_section_title
;
Structure prediction by ZEFSAII (Michael W. Deem and Ramdas Pophale) SiO2 
 PCOD9512570
Probable space group: F M M M
;
_chemical_formula_sum "Si O2"
_cell_formula_units_Z 168
_cell_length_a 20.762339
_cell_length_b 26.831833
_cell_length_c 18.058642
_cell_angle_alpha 90.000000
_cell_angle_beta 90.000000
_cell_angle_gamma 90.000000
_cell_volume 10060.317996
_symmetry_space_group_name_H-M "F M M M"
_symmetry_group_IT_number 69
_symmetry_cell_setting 'orthorhombic'
loop_
_space_group_symop_operation_xyz
x,y,z
-x,-y,z
x,-y,-z
-x,y,-z
-x,-y,-z
x,y,-z
-x,y,z
x,-y,z
x,1/2+y,1/2+z
-x,1/2-y,1/2+z
x,1/2-y,1/2-z
-x,1/2+y,1/2-z
-x,1/2-y,1/2-z
x,1/2+y,1/2-z
-x,1/2+y,1/2+z
x,1/2-y,1/2+z
1/2+x,y,1/2+z
1/2-x,-y,1/2+z
1/2+x,-y,1/2-z
1/2-x,y,1/2-z
1/2-x,-y,1/2-z
1/2+x,y,1/2-z
1/2-x,y,1/2+z
1/2+x,-y,1/2+z
1/2+x,1/2+y,z
1/2-x,1/2-y,z
1/2+x,1/2-y,-z
1/2-x,1/2+y,-z
1/2-x,1/2-y,-z
1/2+x,1/2+y,-z
1/2-x,1/2+y,z
1/2+x,1/2-y,z
loop_
_atom_site_type_symbol
_atom_site_label
_atom_site_fract_x
_atom_site_fract_y
_atom_site_fract_z
Si Si1 0.823206 0.762706 0.662929
Si Si2 0.573133 0.308732 0.912114
Si Si3 0.812702 0.872956 0.301921
Si Si4 0.392558 0.088048 0.333415
Si Si5 0.500000 0.000000 0.328142
Si Si6 0.739223 0.558935 0.914333
O O1 0.828609 0.750000 0.750000
O O2 0.750000 0.750000 0.639343
O O3 0.874268 0.729476 0.619302
O O4 0.833786 0.821846 0.659463
O O5 0.500000 0.290732 0.898959
O O6 0.581384 0.361896 0.872115
O O7 0.581964 0.315274 0.000000
O O8 0.750000 0.860957 0.250000
O O9 0.865468 0.896065 0.247147
O O10 0.789053 0.911773 0.362995
O O11 0.331199 0.070294 0.381418
O O12 0.443950 0.044086 0.329440
O O13 0.750820 0.500000 0.909907
O O14 0.742485 0.574489 0.000000
#
# Coordination Sequence:
#
# PCOD9512570 Si02
#       6
#    32  32  32  32   8  32
#     4  11  19  37  60  87 113 144 190 238 285 338
#     4  11  24  40  57  83 120 153 188 234 287 345
#     4  10  20  35  62  85 113 143 185 240 283 334
#     4  11  21  38  56  84 114 151 190 232 275 338
#     4  12  24  36  55  82 117 152 200 228 272 332
#     4  10  21  36  56  85 116 147 184 232 291 341
#
# _framework density 16.699273000000002
#
# number of rings (size 3 to 8) (size 9 to 14) (size 15 to 20)
#    0.000    1.333    5.714    1.714    1.333    2.667 
#    1.714    1.905    0.000    0.000    0.000    0.667 
#    0.000    0.000    0.000    0.000    0.000    0.000 
#
# Total GULP energy -233944.840582 kJ/mol
# GULP energy per Si atom -5570.115252 kJ/mol
# Density = 1.666126 g / cm^3
# Si number density = 16.699273 Si / 1000 Ang^3
#
#
#
# Elastic Constant Matrix: (Units=GPa)
#
#
# Indices 1 2 3 4 5 6 
#
# 1 131.5491 78.7080 76.5199 0.0000 0.0000 0.0000
# 2 78.7080 129.1500 67.3066 0.0000 0.0000 0.0000
# 3 76.5199 67.3066 95.4591 0.0000 0.0000 0.0000
# 4 0.0000 0.0000 0.0000 22.0012 0.0000 0.0000
# 5 0.0000 0.0000 0.0000 0.0000********** 0.0000
# 6 0.0000 0.0000 0.0000 0.0000 0.0000 10.3304
#
#
#
# Elastic Compliance Matrix: (Units=1/GPa)
#
#
# Indices 1 2 3 4 5 6 
#
# 1 0.015947 -0.004832 -0.009376 0.000000 0.000000 0.000000
# 2 -0.004832 0.013705 -0.005790 0.000000 0.000000 0.000000
# 3 -0.009376 -0.005790 0.022073 0.000000 0.000000 0.000000
# 4 0.000000 0.000000 0.000000 0.045452 0.000000 0.000000
# 5 0.000000 0.000000 0.000000 0.000000 -0.000061 0.000000
# 6 0.000000 0.000000 0.000000 0.000000 0.000000 0.096801
#
#
# Mechanical properties :
#
#
# Convention : Reuss Voigt Hill
#
# Bulk Modulus (GPa) = 85.25200 89.02528 87.13864
# Shear Modulus (GPa) = 21.02403 -3278.07683 -1628.52640
#
# Velocity S-wave (km/s) = 3.55206 -44.35389 -31.26220
# Velocity P-wave (km/s) = 8.24530 50.69119 35.36673
#
# Compressibility (1/GPa) = 0.01172993
#
# Stress axis : x y z
#
# Youngs Moduli (GPa) = 62.70944 72.96501 45.30322
#
# Poissons Ratio (x) = 0.35258 0.42475
# Poissons Ratio (y) = 0.30303 0.26230
# Poissons Ratio (z) = 0.58794 0.42245
#
# Static dielectric constant tensor:
#      x y z
#    x 1.552500 0.000000 0.000000 
#    y 0.000000 1.560050 0.000000 
#    z 0.000000 0.000000 1.544690 
# 
# From -- ./inp_files/16900.got.cif
#   From: 2010.05.17/outbox.cif.g08.bks.cpg/sg69_9_cif.got.tgz:16900.got - 2010.06.03 19:29:58.
