data_PCOD9512481
_publ_section_title
;
Structure prediction by ZEFSAII (Michael W. Deem and Ramdas Pophale) SiO2 
 PCOD9512481
Probable space group: F M M M
;
_chemical_formula_sum "Si O2"
_cell_formula_units_Z 160
_cell_length_a 16.415806
_cell_length_b 14.942682
_cell_length_c 29.124448
_cell_angle_alpha 90.000000
_cell_angle_beta 90.000000
_cell_angle_gamma 90.000000
_cell_volume 7144.115514
_symmetry_space_group_name_H-M "F M M M"
_symmetry_group_IT_number 69
_symmetry_cell_setting 'orthorhombic'
loop_
_space_group_symop_operation_xyz
x,y,z
-x,-y,z
x,-y,-z
-x,y,-z
-x,-y,-z
x,y,-z
-x,y,z
x,-y,z
x,1/2+y,1/2+z
-x,1/2-y,1/2+z
x,1/2-y,1/2-z
-x,1/2+y,1/2-z
-x,1/2-y,1/2-z
x,1/2+y,1/2-z
-x,1/2+y,1/2+z
x,1/2-y,1/2+z
1/2+x,y,1/2+z
1/2-x,-y,1/2+z
1/2+x,-y,1/2-z
1/2-x,y,1/2-z
1/2-x,-y,1/2-z
1/2+x,y,1/2-z
1/2-x,y,1/2+z
1/2+x,-y,1/2+z
1/2+x,1/2+y,z
1/2-x,1/2-y,z
1/2+x,1/2-y,-z
1/2-x,1/2+y,-z
1/2-x,1/2-y,-z
1/2+x,1/2+y,-z
1/2-x,1/2+y,z
1/2+x,1/2-y,z
loop_
_atom_site_type_symbol
_atom_site_label
_atom_site_fract_x
_atom_site_fract_y
_atom_site_fract_z
Si Si1 0.241555 0.390937 0.448648
Si Si2 0.344901 0.400765 0.860607
Si Si3 0.910242 0.608294 0.731934
Si Si4 0.092407 0.891712 0.398798
Si Si5 0.693057 0.336719 0.684336
O O1 0.223159 0.360499 0.500000
O O2 0.235793 0.500000 0.447618
O O3 0.180087 0.356967 0.408935
O O4 0.334628 0.370442 0.434269
O O5 0.378035 0.500000 0.870433
O O6 0.400302 0.360080 0.820648
O O7 0.258023 0.408410 0.834450
O O8 0.903047 0.500000 0.731877
O O9 0.842718 0.646314 0.765731
O O10 0.000000 0.631626 0.748952
O O11 0.119479 0.844100 0.351732
O O12 0.000000 0.868382 0.412397
O O13 0.094096 0.000000 0.391676
O O14 0.750000 0.250000 0.681562
#
# Coordination Sequence:
#
# PCOD9512481 Si02
#       5
#    32  32  32  32  32
#     4   8  14  26  48  80 112 137 166 212 266 312
#     4   9  18  33  52  73 101 140 180 213 251 310
#     4  10  20  35  56  78 102 135 176 222 266 311
#     4   9  17  31  53  80 111 145 178 214 258 311
#     4  11  21  32  48  74 107 140 177 214 259 315
#
# _framework density 22.396053999999999
#
# number of rings (size 3 to 8) (size 9 to 14) (size 15 to 20)
#    0.000    2.600    0.000    4.200    0.000    5.200 
#    0.000    5.000    0.000   10.200    0.000    4.200 
#    0.000    0.000    0.000    0.000    0.000    0.000 
#
# Total GULP energy -223165.576288 kJ/mol
# GULP energy per Si atom -5579.139407 kJ/mol
# Density = 2.234508 g / cm^3
# Si number density = 22.396054 Si / 1000 Ang^3
#
#
#
# Elastic Constant Matrix: (Units=GPa)
#
#
# Indices 1 2 3 4 5 6 
#
# 1 47.7240 0.9907 32.0295 0.0000 0.0000 0.0000
# 2 0.9907 68.0106 13.6253 0.0000 0.0000 0.0000
# 3 32.0295 13.6253 170.5970 0.0000 0.0000 0.0000
# 4 0.0000 0.0000 0.0000 2.8526 0.0000 0.0000
# 5 0.0000 0.0000 0.0000 0.0000 23.4368 0.0000
# 6 0.0000 0.0000 0.0000 0.0000 0.0000 14.5793
#
#
#
# Elastic Compliance Matrix: (Units=1/GPa)
#
#
# Indices 1 2 3 4 5 6 
#
# 1 0.023996 0.000562 -0.004550 0.000000 0.000000 0.000000
# 2 0.000562 0.014956 -0.001300 0.000000 0.000000 0.000000
# 3 -0.004550 -0.001300 0.006820 0.000000 0.000000 0.000000
# 4 0.000000 0.000000 0.000000 0.350559 0.000000 0.000000
# 5 0.000000 0.000000 0.000000 0.000000 0.042668 0.000000
# 6 0.000000 0.000000 0.000000 0.000000 0.000000 0.068590
#
#
# Mechanical properties :
#
#
# Convention : Reuss Voigt Hill
#
# Bulk Modulus (GPa) = 28.41277 42.18030 35.29654
# Shear Modulus (GPa) = 9.43580 24.15282 16.79431
#
# Velocity S-wave (km/s) = 2.05482 3.28753 2.74136
# Velocity P-wave (km/s) = 4.28296 5.76933 5.08079
#
# Compressibility (1/GPa) = 0.03519544
#
# Stress axis : x y z
#
# Youngs Moduli (GPa) = 41.67378 66.86346 146.63006
#
# Poissons Ratio (x) = -0.03758 0.66718
# Poissons Ratio (y) = -0.02342 0.19062
# Poissons Ratio (z) = 0.18962 0.08692
#
# Static dielectric constant tensor:
#      x y z
#    x 1.820690 0.000000 0.000000 
#    y 0.000000 1.946980 0.000000 
#    z 0.000000 0.000000 1.850840 
# 
# From -- ./inp_files/41753.got.cif
#   From: 2010.05.17/outbox.cif.g08.bks.cpg/sg69_21_cif.got.tgz:41753.got - 2010.06.03 19:29:58.
