data_PCOD9512950
_publ_section_title
;
Structure prediction by ZEFSAII (Michael W. Deem and Ramdas Pophale) SiO2 
 PCOD9512950
Probable space group: F M M M
;
_chemical_formula_sum "Si O2"
_cell_formula_units_Z 200
_cell_length_a 26.025434
_cell_length_b 23.231667
_cell_length_c 18.502997
_cell_angle_alpha 90.000000
_cell_angle_beta 90.000000
_cell_angle_gamma 90.000000
_cell_volume 11187.175029
_symmetry_space_group_name_H-M "F M M M"
_symmetry_group_IT_number 69
_symmetry_cell_setting 'orthorhombic'
loop_
_space_group_symop_operation_xyz
x,y,z
-x,-y,z
x,-y,-z
-x,y,-z
-x,-y,-z
x,y,-z
-x,y,z
x,-y,z
x,1/2+y,1/2+z
-x,1/2-y,1/2+z
x,1/2-y,1/2-z
-x,1/2+y,1/2-z
-x,1/2-y,1/2-z
x,1/2+y,1/2-z
-x,1/2+y,1/2+z
x,1/2-y,1/2+z
1/2+x,y,1/2+z
1/2-x,-y,1/2+z
1/2+x,-y,1/2-z
1/2-x,y,1/2-z
1/2-x,-y,1/2-z
1/2+x,y,1/2-z
1/2-x,y,1/2+z
1/2+x,-y,1/2+z
1/2+x,1/2+y,z
1/2-x,1/2-y,z
1/2+x,1/2-y,-z
1/2-x,1/2+y,-z
1/2-x,1/2-y,-z
1/2+x,1/2+y,-z
1/2-x,1/2+y,z
1/2+x,1/2-y,z
loop_
_atom_site_type_symbol
_atom_site_label
_atom_site_fract_x
_atom_site_fract_y
_atom_site_fract_z
Si Si1 0.104046 0.564440 0.195574
Si Si2 0.943463 0.933566 0.913307
Si Si3 0.346004 0.384964 0.162881
Si Si4 0.350080 0.855699 0.085626
Si Si5 0.749548 0.933813 0.583177
Si Si6 0.690317 0.744424 0.163327
Si Si7 0.500000 0.500000 0.272598
O O1 0.125897 0.500000 0.181382
O O2 0.137464 0.596865 0.256511
O O3 0.107673 0.604821 0.125412
O O4 0.046340 0.549683 0.221980
O O5 0.895929 0.899385 0.883857
O O6 0.000000 0.912507 0.891159
O O7 0.939681 0.000000 0.887421
O O8 0.942123 0.934811 0.000000
O O9 0.297500 0.421712 0.136176
O O10 0.330546 0.319256 0.150168
O O11 0.296755 0.891028 0.096065
O O12 0.341857 0.794285 0.124030
O O13 0.359047 0.849698 0.000000
O O14 0.731702 0.924896 0.500000
O O15 0.766092 0.000000 0.589186
O O16 0.688870 0.750000 0.250000
O O17 0.750000 0.750000 0.140101
#
# Coordination Sequence:
#
# PCOD9512950 Si02
#       7
#    32  32  32  32  32  32   8
#     4  10  22  40  64  96 121 157 204 260 321 375
#     4   9  19  34  55  87 125 162 200 249 312 377
#     4  12  21  34  63  88 125 169 205 256 311 376
#     4  11  23  41  63  88 124 168 216 260 303 367
#     4  10  21  35  54  90 133 167 202 253 314 375
#     4  11  23  42  60  85 125 168 207 247 301 367
#     4   8  24  44  65  96 129 152 210 256 328 394
#
# _framework density 17.877614999999999
#
# number of rings (size 3 to 8) (size 9 to 14) (size 15 to 20)
#    0.480    1.120    3.200    2.880    1.120    4.480 
#    0.000    2.400    1.760    1.440    0.000    0.000 
#    0.000    0.000    0.000    0.000    0.000    0.000 
#
# Total GULP energy -278429.503333 kJ/mol
# GULP energy per Si atom -5568.590067 kJ/mol
# Density = 1.783692 g / cm^3
# Si number density = 17.877615 Si / 1000 Ang^3
#
#
#
# Elastic Constant Matrix: (Units=GPa)
#
#
# Indices 1 2 3 4 5 6 
#
# 1 56.3422 19.7660 19.7729 0.0000 0.0000 0.0000
# 2 19.7660 111.6909 25.6531 0.0000 0.0000 0.0000
# 3 19.7729 25.6531 69.0500 0.0000 0.0000 0.0000
# 4 0.0000 0.0000 0.0000 28.8984 0.0000 0.0000
# 5 0.0000 0.0000 0.0000 0.0000 20.6815 0.0000
# 6 0.0000 0.0000 0.0000 0.0000 0.0000 11.7523
#
#
#
# Elastic Compliance Matrix: (Units=1/GPa)
#
#
# Indices 1 2 3 4 5 6 
#
# 1 0.020338 -0.002473 -0.004905 0.000000 0.000000 0.000000
# 2 -0.002473 0.010089 -0.003040 0.000000 0.000000 0.000000
# 3 -0.004905 -0.003040 0.017016 0.000000 0.000000 0.000000
# 4 0.000000 0.000000 0.000000 0.034604 0.000000 0.000000
# 5 0.000000 0.000000 0.000000 0.000000 0.048352 0.000000
# 6 0.000000 0.000000 0.000000 0.000000 0.000000 0.085089
#
#
# Mechanical properties :
#
#
# Convention : Reuss Voigt Hill
#
# Bulk Modulus (GPa) = 37.58393 40.82969 39.20681
# Shear Modulus (GPa) = 20.39203 23.72586 22.05895
#
# Velocity S-wave (km/s) = 3.38101 3.64693 3.51648
# Velocity P-wave (km/s) = 6.02579 6.37350 6.20208
#
# Compressibility (1/GPa) = 0.02660711
#
# Stress axis : x y z
#
# Youngs Moduli (GPa) = 49.17017 99.11670 58.76688
#
# Poissons Ratio (x) = 0.24507 0.28826
# Poissons Ratio (y) = 0.12157 0.17866
# Poissons Ratio (z) = 0.24119 0.30134
#
# Static dielectric constant tensor:
#      x y z
#    x 1.591630 0.000000 0.000000 
#    y 0.000000 1.575560 0.000000 
#    z 0.000000 0.000000 1.661530 
# 
# From -- ./inp_files/27951.got.cif
#   From: 2010.05.17/outbox.cif.g08.bks.cpg/sg69_14_cif.got.tgz:27951.got - 2010.06.03 19:29:58.
