data_PCOD9512012
_publ_section_title
;
Structure prediction by ZEFSAII (Michael W. Deem and Ramdas Pophale) SiO2 
 PCOD9512012
Probable space group: F M M M
;
_chemical_formula_sum "Si O2"
_cell_formula_units_Z 192
_cell_length_a 29.082036
_cell_length_b 14.091216
_cell_length_c 24.047384
_cell_angle_alpha 90.000000
_cell_angle_beta 90.000000
_cell_angle_gamma 90.000000
_cell_volume 9854.648046
_symmetry_space_group_name_H-M "F M M M"
_symmetry_group_IT_number 69
_symmetry_cell_setting 'orthorhombic'
loop_
_space_group_symop_operation_xyz
x,y,z
-x,-y,z
x,-y,-z
-x,y,-z
-x,-y,-z
x,y,-z
-x,y,z
x,-y,z
x,1/2+y,1/2+z
-x,1/2-y,1/2+z
x,1/2-y,1/2-z
-x,1/2+y,1/2-z
-x,1/2-y,1/2-z
x,1/2+y,1/2-z
-x,1/2+y,1/2+z
x,1/2-y,1/2+z
1/2+x,y,1/2+z
1/2-x,-y,1/2+z
1/2+x,-y,1/2-z
1/2-x,y,1/2-z
1/2-x,-y,1/2-z
1/2+x,y,1/2-z
1/2-x,y,1/2+z
1/2+x,-y,1/2+z
1/2+x,1/2+y,z
1/2-x,1/2-y,z
1/2+x,1/2-y,-z
1/2-x,1/2+y,-z
1/2-x,1/2-y,-z
1/2+x,1/2+y,-z
1/2-x,1/2+y,z
1/2+x,1/2-y,z
loop_
_atom_site_type_symbol
_atom_site_label
_atom_site_fract_x
_atom_site_fract_y
_atom_site_fract_z
Si Si1 0.769332 0.115688 0.000000
Si Si2 0.144509 0.885701 0.314098
Si Si3 0.408699 0.388503 0.880028
Si Si4 0.317222 0.387848 0.194045
Si Si5 0.550151 0.722566 0.685234
Si Si6 0.267648 0.884161 0.119972
Si Si7 0.874915 0.115183 0.000000
O O1 0.744885 0.143727 0.057305
O O2 0.822208 0.148775 0.000000
O O3 0.770476 0.000000 0.000000
O O4 0.165774 0.854848 0.254441
O O5 0.094693 0.841981 0.324563
O O6 0.181921 0.855956 0.359816
O O7 0.140757 0.000000 0.313278
O O8 0.421500 0.500000 0.877368
O O9 0.359913 0.378838 0.848050
O O10 0.443325 0.318834 0.849526
O O11 0.400526 0.358739 0.943535
O O12 0.308421 0.500000 0.202276
O O13 0.271430 0.351237 0.163780
O O14 0.500000 0.679396 0.673174
O O15 0.551324 0.750000 0.750000
O O16 0.266472 0.000000 0.121191
O O17 0.872544 0.000000 0.000000
#
# Coordination Sequence:
#
# PCOD9512012 Si02
#       7
#    16  32  32  32  32  32  16
#     4   9  14  24  47  81 112 147 189 220 262 324
#     4  10  20  35  55  81 114 152 191 229 274 331
#     4  10  19  35  60  88 117 149 183 226 285 350
#     4   9  15  27  51  82 115 148 180 217 267 332
#     4  11  24  40  58  80 108 143 190 247 296 337
#     4   9  16  27  49  80 115 151 184 221 268 327
#     4   9  16  30  58  88 117 152 184 220 278 351
#
# _framework density 19.483193
#
# number of rings (size 3 to 8) (size 9 to 14) (size 15 to 20)
#    0.000    2.333    3.333    0.500    0.000    2.667 
#    0.000    3.750    0.000    2.500    0.000    0.000 
#    0.000    4.667    0.000    0.000    0.000    0.000 
#
# Total GULP energy -268040.373928 kJ/mol
# GULP energy per Si atom -5584.174457 kJ/mol
# Density = 1.943885 g / cm^3
# Si number density = 19.483193 Si / 1000 Ang^3
#
#
#
# Elastic Constant Matrix: (Units=GPa)
#
#
# Indices 1 2 3 4 5 6 
#
# 1 143.2145 38.2442 59.5566 0.0000 0.0000 0.0000
# 2 38.2442 71.7934 26.1563 0.0000 0.0000 0.0000
# 3 59.5566 26.1563 138.4504 0.0000 0.0000 0.0000
# 4 0.0000 0.0000 0.0000 2.7945 0.0000 0.0000
# 5 0.0000 0.0000 0.0000 0.0000 114.2958 0.0000
# 6 0.0000 0.0000 0.0000 0.0000 0.0000 11.4738
#
#
#
# Elastic Compliance Matrix: (Units=1/GPa)
#
#
# Indices 1 2 3 4 5 6 
#
# 1 0.009372 -0.003784 -0.003317 0.000000 0.000000 0.000000
# 2 -0.003784 0.016486 -0.001487 0.000000 0.000000 0.000000
# 3 -0.003317 -0.001487 0.008930 0.000000 0.000000 0.000000
# 4 0.000000 0.000000 0.000000 0.357845 0.000000 0.000000
# 5 0.000000 0.000000 0.000000 0.000000 0.008749 0.000000
# 6 0.000000 0.000000 0.000000 0.000000 0.000000 0.087155
#
#
# Mechanical properties :
#
#
# Convention : Reuss Voigt Hill
#
# Bulk Modulus (GPa) = 56.77417 66.81914 61.79665
# Shear Modulus (GPa) = 9.77353 41.01289 25.39321
#
# Velocity S-wave (km/s) = 2.24216 4.59305 3.61410
# Velocity P-wave (km/s) = 5.99219 7.90559 7.01444
#
# Compressibility (1/GPa) = 0.01761364
#
# Stress axis : x y z
#
# Youngs Moduli (GPa) = 106.69652 60.65606 111.97667
#
# Poissons Ratio (x) = 0.22954 0.37140
# Poissons Ratio (y) = 0.40377 0.16648
# Poissons Ratio (z) = 0.35388 0.09018
#
# Static dielectric constant tensor:
#      x y z
#    x 1.659540 0.000000 0.000000 
#    y 0.000000 1.745790 0.000000 
#    z 0.000000 0.000000 1.675290 
# 
# From -- ./inp_files/38411.got.cif
#   From: 2010.05.17/outbox.cif.g08.bks.cpg/sg69_20_cif.got.tgz:38411.got - 2010.06.03 19:29:58.
