data_PCOD9512923
_publ_section_title
;
Structure prediction by ZEFSAII (Michael W. Deem and Ramdas Pophale) SiO2 
 PCOD9512923
Probable space group: F M M M
;
_chemical_formula_sum "Si O2"
_cell_formula_units_Z 144
_cell_length_a 13.356650
_cell_length_b 27.513181
_cell_length_c 22.827531
_cell_angle_alpha 90.000000
_cell_angle_beta 90.000000
_cell_angle_gamma 90.000000
_cell_volume 8388.750781
_symmetry_space_group_name_H-M "F M M M"
_symmetry_group_IT_number 69
_symmetry_cell_setting 'orthorhombic'
loop_
_space_group_symop_operation_xyz
x,y,z
-x,-y,z
x,-y,-z
-x,y,-z
-x,-y,-z
x,y,-z
-x,y,z
x,-y,z
x,1/2+y,1/2+z
-x,1/2-y,1/2+z
x,1/2-y,1/2-z
-x,1/2+y,1/2-z
-x,1/2-y,1/2-z
x,1/2+y,1/2-z
-x,1/2+y,1/2+z
x,1/2-y,1/2+z
1/2+x,y,1/2+z
1/2-x,-y,1/2+z
1/2+x,-y,1/2-z
1/2-x,y,1/2-z
1/2-x,-y,1/2-z
1/2+x,y,1/2-z
1/2-x,y,1/2+z
1/2+x,-y,1/2+z
1/2+x,1/2+y,z
1/2-x,1/2-y,z
1/2+x,1/2-y,-z
1/2-x,1/2+y,-z
1/2-x,1/2-y,-z
1/2+x,1/2+y,-z
1/2-x,1/2+y,z
1/2+x,1/2-y,z
loop_
_atom_site_type_symbol
_atom_site_label
_atom_site_fract_x
_atom_site_fract_y
_atom_site_fract_z
Si Si1 0.750000 0.090935 0.250000
Si Si2 0.620612 0.274753 0.659671
Si Si3 0.118606 0.554784 0.853802
Si Si4 0.621822 0.353459 0.566771
Si Si5 0.380993 0.324041 0.786826
O O1 0.819381 0.061532 0.294330
O O2 0.679412 0.126352 0.288720
O O3 0.500000 0.270439 0.653854
O O4 0.654519 0.307158 0.605260
O O5 0.634527 0.303749 0.720647
O O6 0.655105 0.219467 0.670773
O O7 0.132179 0.500000 0.876756
O O8 0.148496 0.596977 0.899210
O O9 0.000000 0.561601 0.841370
O O10 0.657754 0.352338 0.500000
O O11 0.500000 0.352539 0.565369
O O12 0.500000 0.331357 0.794541
#
# Coordination Sequence:
#
# PCOD9512923 Si02
#       5
#    16  32  32  32  32
#     4  12  19  29  50  70  94 128 166 194 242 286
#     4   8  14  27  43  66  96 123 156 190 226 274
#     4  10  21  35  48  68  98 125 158 204 246 289
#     4   9  16  29  50  71  95 128 159 192 238 287
#     4   9  17  28  45  68  97 127 157 195 230 278
#
# _framework density 17.165845000000001
#
# number of rings (size 3 to 8) (size 9 to 14) (size 15 to 20)
#    0.000    2.667    2.222    2.333    0.000    2.222 
#    0.000    2.222    0.000    2.667    0.000    0.000 
#    0.000    2.667    0.000   10.889    0.000    0.889 
#
# Total GULP energy -200753.915465 kJ/mol
# GULP energy per Si atom -5576.497652 kJ/mol
# Density = 1.712677 g / cm^3
# Si number density = 17.165845 Si / 1000 Ang^3
#
#
#
# Elastic Constant Matrix: (Units=GPa)
#
#
# Indices 1 2 3 4 5 6 
#
# 1 49.2507 25.4719 20.9516 0.0000 0.0000 0.0000
# 2 25.4719 83.0026 52.4879 0.0000 0.0000 0.0000
# 3 20.9516 52.4879 112.4572 0.0000 0.0000 0.0000
# 4 0.0000 0.0000 0.0000 10.8530 0.0000 0.0000
# 5 0.0000 0.0000 0.0000 0.0000 15.8913 0.0000
# 6 0.0000 0.0000 0.0000 0.0000 0.0000 19.6204
#
#
#
# Elastic Compliance Matrix: (Units=1/GPa)
#
#
# Indices 1 2 3 4 5 6 
#
# 1 0.024309 -0.006520 -0.001486 0.000000 0.000000 0.000000
# 2 -0.006520 0.018842 -0.007579 0.000000 0.000000 0.000000
# 3 -0.001486 -0.007579 0.012707 0.000000 0.000000 0.000000
# 4 0.000000 0.000000 0.000000 0.092141 0.000000 0.000000
# 5 0.000000 0.000000 0.000000 0.000000 0.062927 0.000000
# 6 0.000000 0.000000 0.000000 0.000000 0.000000 0.050967
#
#
# Mechanical properties :
#
#
# Convention : Reuss Voigt Hill
#
# Bulk Modulus (GPa) = 40.50837 49.17038 44.83938
# Shear Modulus (GPa) = 16.59522 18.99287 17.79405
#
# Velocity S-wave (km/s) = 3.11265 3.32992 3.22311
# Velocity P-wave (km/s) = 6.04711 6.59477 6.32687
#
# Compressibility (1/GPa) = 0.02468626
#
# Stress axis : x y z
#
# Youngs Moduli (GPa) = 41.13784 53.07376 78.69932
#
# Poissons Ratio (x) = 0.34606 0.11691
# Poissons Ratio (y) = 0.26824 0.59649
# Poissons Ratio (z) = 0.06111 0.40226
#
# Static dielectric constant tensor:
#      x y z
#    x 1.632580 0.000000 0.000000 
#    y 0.000000 1.600240 0.000000 
#    z 0.000000 0.000000 1.554770 
# 
# From -- ./inp_files/21763.got.cif
#   From: 2010.05.17/outbox.cif.g08.bks.cpg/sg69_11_cif.got.tgz:21763.got - 2010.06.03 19:29:58.
