data_PCOD9512463
_publ_section_title
;
Structure prediction by ZEFSAII (Michael W. Deem and Ramdas Pophale) SiO2 
 PCOD9512463
Probable space group: F M M M
;
_chemical_formula_sum "Si O2"
_cell_formula_units_Z 192
_cell_length_a 21.147912
_cell_length_b 28.105664
_cell_length_c 18.546133
_cell_angle_alpha 90.000000
_cell_angle_beta 90.000000
_cell_angle_gamma 90.000000
_cell_volume 11023.378369
_symmetry_space_group_name_H-M "F M M M"
_symmetry_group_IT_number 69
_symmetry_cell_setting 'orthorhombic'
loop_
_space_group_symop_operation_xyz
x,y,z
-x,-y,z
x,-y,-z
-x,y,-z
-x,-y,-z
x,y,-z
-x,y,z
x,-y,z
x,1/2+y,1/2+z
-x,1/2-y,1/2+z
x,1/2-y,1/2-z
-x,1/2+y,1/2-z
-x,1/2-y,1/2-z
x,1/2+y,1/2-z
-x,1/2+y,1/2+z
x,1/2-y,1/2+z
1/2+x,y,1/2+z
1/2-x,-y,1/2+z
1/2+x,-y,1/2-z
1/2-x,y,1/2-z
1/2-x,-y,1/2-z
1/2+x,y,1/2-z
1/2-x,y,1/2+z
1/2+x,-y,1/2+z
1/2+x,1/2+y,z
1/2-x,1/2-y,z
1/2+x,1/2-y,-z
1/2-x,1/2+y,-z
1/2-x,1/2-y,-z
1/2+x,1/2+y,-z
1/2-x,1/2+y,z
1/2+x,1/2-y,z
loop_
_atom_site_type_symbol
_atom_site_label
_atom_site_fract_x
_atom_site_fract_y
_atom_site_fract_z
Si Si1 0.785488 0.370933 0.628050
Si Si2 0.155905 0.128348 0.287004
Si Si3 0.427085 0.280651 0.323167
Si Si4 0.265477 0.557375 0.000000
Si Si5 0.682431 0.732664 0.916742
Si Si6 0.069191 0.943144 0.346669
Si Si7 0.114201 0.442920 0.000000
O O1 0.821462 0.371608 0.704638
O O2 0.713110 0.365448 0.656020
O O3 0.789374 0.415291 0.572402
O O4 0.811675 0.324175 0.588460
O O5 0.104214 0.168669 0.303953
O O6 0.124469 0.077529 0.299438
O O7 0.500000 0.284719 0.349057
O O8 0.428066 0.250000 0.250000
O O9 0.377913 0.254001 0.376067
O O10 0.189253 0.564796 0.000000
O O11 0.277258 0.500000 0.000000
O O12 0.750000 0.750000 0.884614
O O13 0.679915 0.748072 0.000000
O O14 0.082109 0.924755 0.427552
O O15 0.000000 0.928023 0.321754
O O16 0.071053 0.000000 0.347995
O O17 0.104792 0.500000 0.000000
#
# Coordination Sequence:
#
# PCOD9512463 Si02
#       7
#    32  32  32  16  32  32  16
#     4  11  22  36  60  87 112 157 204 242 298 361
#     4  11  22  36  58  86 119 153 198 247 296 358
#     4  11  23  39  60  87 121 158 197 244 303 358
#     4  11  22  39  59  84 121 156 196 255 308 349
#     4  11  22  38  63  87 118 158 200 244 288 352
#     4  10  20  35  55  79 112 154 196 237 290 357
#     4   9  17  32  53  77 110 151 188 223 281 357
#
# _framework density 17.417527
#
# number of rings (size 3 to 8) (size 9 to 14) (size 15 to 20)
#    0.000    1.333    5.833    0.750    0.000    2.333 
#    1.500    1.667    0.000    0.000    0.000    0.000 
#    0.000    4.667    0.000    0.000    0.000    0.000 
#
# Total GULP energy -267537.692966 kJ/mol
# GULP energy per Si atom -5573.701937 kJ/mol
# Density = 1.737788 g / cm^3
# Si number density = 17.417527 Si / 1000 Ang^3
#
#
#
# Elastic Constant Matrix: (Units=GPa)
#
#
# Indices 1 2 3 4 5 6 
#
# 1 125.2357 39.7146 40.9450 0.0000 0.0000 0.0000
# 2 39.7146 75.3371 26.4002 0.0000 0.0000 0.0000
# 3 40.9450 26.4002 64.2952 0.0000 0.0000 0.0000
# 4 0.0000 0.0000 0.0000 28.0731 0.0000 0.0000
# 5 0.0000 0.0000 0.0000 0.0000 21.5422 0.0000
# 6 0.0000 0.0000 0.0000 0.0000 0.0000 27.0982
#
#
#
# Elastic Compliance Matrix: (Units=1/GPa)
#
#
# Indices 1 2 3 4 5 6 
#
# 1 0.010986 -0.003901 -0.005394 0.000000 0.000000 0.000000
# 2 -0.003901 0.016890 -0.004451 0.000000 0.000000 0.000000
# 3 -0.005394 -0.004451 0.020816 0.000000 0.000000 0.000000
# 4 0.000000 0.000000 0.000000 0.035621 0.000000 0.000000
# 5 0.000000 0.000000 0.000000 0.000000 0.046420 0.000000
# 6 0.000000 0.000000 0.000000 0.000000 0.000000 0.036903
#
#
# Mechanical properties :
#
#
# Convention : Reuss Voigt Hill
#
# Bulk Modulus (GPa) = 47.17112 53.22085 50.19598
# Shear Modulus (GPa) = 24.72868 25.86325 25.29596
#
# Velocity S-wave (km/s) = 3.77206 3.85762 3.81508
# Velocity P-wave (km/s) = 6.79062 7.10379 6.94897
#
# Compressibility (1/GPa) = 0.02119941
#
# Stress axis : x y z
#
# Youngs Moduli (GPa) = 91.02846 59.20740 48.03992
#
# Poissons Ratio (x) = 0.23096 0.25914
# Poissons Ratio (y) = 0.35509 0.21382
# Poissons Ratio (z) = 0.49102 0.26353
#
# Static dielectric constant tensor:
#      x y z
#    x 1.596540 0.000000 0.000000 
#    y 0.000000 1.608170 0.000000 
#    z 0.000000 0.000000 1.606110 
# 
# From -- ./inp_files/32177.got.cif
#   From: 2010.05.17/outbox.cif.g08.bks.cpg/sg69_17_cif.got.tgz:32177.got - 2010.06.03 19:29:58.
