data_PCOD9512366
_publ_section_title
;
Structure prediction by ZEFSAII (Michael W. Deem and Ramdas Pophale) SiO2 
 PCOD9512366
Probable space group: F M M M
;
_chemical_formula_sum "Si O2"
_cell_formula_units_Z 208
_cell_length_a 19.091786
_cell_length_b 19.585978
_cell_length_c 29.137406
_cell_angle_alpha 90.000000
_cell_angle_beta 90.000000
_cell_angle_gamma 90.000000
_cell_volume 10895.388121
_symmetry_space_group_name_H-M "F M M M"
_symmetry_group_IT_number 69
_symmetry_cell_setting 'orthorhombic'
loop_
_space_group_symop_operation_xyz
x,y,z
-x,-y,z
x,-y,-z
-x,y,-z
-x,-y,-z
x,y,-z
-x,y,z
x,-y,z
x,1/2+y,1/2+z
-x,1/2-y,1/2+z
x,1/2-y,1/2-z
-x,1/2+y,1/2-z
-x,1/2-y,1/2-z
x,1/2+y,1/2-z
-x,1/2+y,1/2+z
x,1/2-y,1/2+z
1/2+x,y,1/2+z
1/2-x,-y,1/2+z
1/2+x,-y,1/2-z
1/2-x,y,1/2-z
1/2-x,-y,1/2-z
1/2+x,y,1/2-z
1/2-x,y,1/2+z
1/2+x,-y,1/2+z
1/2+x,1/2+y,z
1/2-x,1/2-y,z
1/2+x,1/2-y,-z
1/2-x,1/2+y,-z
1/2-x,1/2-y,-z
1/2+x,1/2+y,-z
1/2-x,1/2+y,z
1/2+x,1/2-y,z
loop_
_atom_site_type_symbol
_atom_site_label
_atom_site_fract_x
_atom_site_fract_y
_atom_site_fract_z
Si Si1 0.679215 0.204773 0.945627
Si Si2 0.372739 0.077852 0.401457
Si Si3 0.919754 0.314934 0.281947
Si Si4 0.288659 0.419729 0.621136
Si Si5 0.578086 0.782986 0.377891
Si Si6 0.825910 0.579713 0.226302
Si Si7 0.419641 0.918832 0.500000
O O1 0.750000 0.250000 0.941780
O O2 0.686900 0.133576 0.917719
O O3 0.620445 0.247535 0.918350
O O4 0.664723 0.195400 0.000000
O O5 0.296178 0.084673 0.379516
O O6 0.423809 0.135532 0.384191
O O7 0.373146 0.094782 0.455571
O O8 0.396521 0.000000 0.395136
O O9 0.924194 0.250000 0.250000
O O10 0.886254 0.282746 0.328111
O O11 0.877493 0.373417 0.255874
O O12 0.000000 0.337491 0.291777
O O13 0.305261 0.500000 0.611426
O O14 0.317929 0.402811 0.672016
O O15 0.500000 0.753705 0.375708
O O16 0.846948 0.500000 0.228765
O O17 0.750000 0.585653 0.250000
O O18 0.500000 0.889360 0.500000
O O19 0.429679 0.000000 0.500000
#
# Coordination Sequence:
#
# PCOD9512366 Si02
#       7
#    32  32  32  32  32  32  16
#     4  11  24  40  59  87 122 160 206 257 303 359
#     4  10  20  34  54  83 121 158 193 237 286 354
#     4  10  22  40  60  85 117 152 195 247 305 371
#     4  10  21  38  61  86 118 159 206 255 305 359
#     4  11  23  38  60  87 119 159 197 245 306 366
#     4  10  21  37  59  90 123 157 200 251 300 359
#     4   9  18  30  46  73 112 158 198 229 274 347
#
# _framework density 19.090646
#
# number of rings (size 3 to 8) (size 9 to 14) (size 15 to 20)
#    0.000    1.769    1.538    2.308    2.154    4.000 
#    0.000    1.538    0.000    1.385    0.000    1.077 
#    0.000    0.000    0.000    0.000    0.000    0.000 
#
# Total GULP energy -289726.247904 kJ/mol
# GULP energy per Si atom -5571.658614 kJ/mol
# Density = 1.904720 g / cm^3
# Si number density = 19.090646 Si / 1000 Ang^3
#
#
#
# Elastic Constant Matrix: (Units=GPa)
#
#
# Indices 1 2 3 4 5 6 
#
# 1 66.5592 36.9142 39.1258 0.0000 0.0000 0.0000
# 2 36.9142 100.5113 59.5778 0.0000 0.0000 0.0000
# 3 39.1258 59.5778 152.3023 0.0000 0.0000 0.0000
# 4 0.0000 0.0000 0.0000 32.1572 0.0000 0.0000
# 5 0.0000 0.0000 0.0000 0.0000 30.8760 0.0000
# 6 0.0000 0.0000 0.0000 0.0000 0.0000 24.0042
#
#
#
# Elastic Compliance Matrix: (Units=1/GPa)
#
#
# Indices 1 2 3 4 5 6 
#
# 1 0.019818 -0.005547 -0.002921 0.000000 0.000000 0.000000
# 2 -0.005547 0.014505 -0.004249 0.000000 0.000000 0.000000
# 3 -0.002921 -0.004249 0.008979 0.000000 0.000000 0.000000
# 4 0.000000 0.000000 0.000000 0.031097 0.000000 0.000000
# 5 0.000000 0.000000 0.000000 0.000000 0.032388 0.000000
# 6 0.000000 0.000000 0.000000 0.000000 0.000000 0.041659
#
#
# Mechanical properties :
#
#
# Convention : Reuss Voigt Hill
#
# Bulk Modulus (GPa) = 55.96964 65.62318 60.79641
# Shear Modulus (GPa) = 27.80320 29.65780 28.73050
#
# Velocity S-wave (km/s) = 3.82039 3.94575 3.88358
# Velocity P-wave (km/s) = 6.98871 7.43019 7.21283
#
# Compressibility (1/GPa) = 0.01786683
#
# Stress axis : x y z
#
# Youngs Moduli (GPa) = 50.45985 68.94218 111.37680
#
# Poissons Ratio (x) = 0.38241 0.32537
# Poissons Ratio (y) = 0.27989 0.47325
# Poissons Ratio (z) = 0.14741 0.29294
#
# Static dielectric constant tensor:
#      x y z
#    x 1.750240 0.000000 0.000000 
#    y 0.000000 1.672750 0.000000 
#    z 0.000000 0.000000 1.854690 
# 
# From -- ./inp_files/41989.got.cif
#   From: 2010.05.17/outbox.cif.g08.bks.cpg/sg69_21_cif.got.tgz:41989.got - 2010.06.03 19:29:58.
