data_PCOD9512316
_publ_section_title
;
Structure prediction by ZEFSAII (Michael W. Deem and Ramdas Pophale) SiO2 
 PCOD9512316
Probable space group: F M M M
;
_chemical_formula_sum "Si O2"
_cell_formula_units_Z 208
_cell_length_a 21.646911
_cell_length_b 20.276237
_cell_length_c 25.018319
_cell_angle_alpha 90.000000
_cell_angle_beta 90.000000
_cell_angle_gamma 90.000000
_cell_volume 10980.987981
_symmetry_space_group_name_H-M "F M M M"
_symmetry_group_IT_number 69
_symmetry_cell_setting 'orthorhombic'
loop_
_space_group_symop_operation_xyz
x,y,z
-x,-y,z
x,-y,-z
-x,y,-z
-x,-y,-z
x,y,-z
-x,y,z
x,-y,z
x,1/2+y,1/2+z
-x,1/2-y,1/2+z
x,1/2-y,1/2-z
-x,1/2+y,1/2-z
-x,1/2-y,1/2-z
x,1/2+y,1/2-z
-x,1/2+y,1/2+z
x,1/2-y,1/2+z
1/2+x,y,1/2+z
1/2-x,-y,1/2+z
1/2+x,-y,1/2-z
1/2-x,y,1/2-z
1/2-x,-y,1/2-z
1/2+x,y,1/2-z
1/2-x,y,1/2+z
1/2+x,-y,1/2+z
1/2+x,1/2+y,z
1/2-x,1/2-y,z
1/2+x,1/2-y,-z
1/2-x,1/2+y,-z
1/2-x,1/2-y,-z
1/2+x,1/2+y,-z
1/2-x,1/2+y,z
1/2+x,1/2-y,z
loop_
_atom_site_type_symbol
_atom_site_label
_atom_site_fract_x
_atom_site_fract_y
_atom_site_fract_z
Si Si1 0.431035 0.813744 0.436421
Si Si2 0.703363 0.072149 0.106505
Si Si3 0.339833 0.073828 0.563884
Si Si4 0.394212 0.328608 0.399707
Si Si5 0.319102 0.075692 0.766648
Si Si6 0.573399 0.176948 0.774696
Si Si7 0.000000 0.573802 0.936356
O O1 0.435381 0.824230 0.500000
O O2 0.500000 0.817536 0.413203
O O3 0.386016 0.870393 0.416036
O O4 0.405383 0.741006 0.427007
O O5 0.775703 0.076621 0.095349
O O6 0.670676 0.137923 0.085985
O O7 0.685598 0.071612 0.168937
O O8 0.683062 0.000000 0.084068
O O9 0.327439 0.082929 0.500000
O O10 0.366012 0.000000 0.569887
O O11 0.408200 0.318145 0.337114
O O12 0.441903 0.384148 0.418235
O O13 0.250000 0.098665 0.750000
O O14 0.376373 0.123811 0.752257
O O15 0.327537 0.000000 0.746501
O O16 0.500000 0.158408 0.769854
O O17 0.580589 0.250000 0.750000
O O18 0.000000 0.500000 0.913657
O O19 0.000000 0.570085 0.000000
#
# Coordination Sequence:
#
# PCOD9512316 Si02
#       7
#    32  32  32  32  32  32  16
#     4  10  20  34  53  75 104 142 182 225 275 330
#     4   9  19  35  55  78 106 141 179 219 271 329
#     4   9  19  35  53  75 103 137 181 230 275 324
#     4  11  20  36  55  79 112 148 180 223 273 330
#     4   9  19  36  57  81 107 138 179 227 277 329
#     4  10  21  37  56  81 111 145 187 229 274 328
#     4  11  22  34  53  84 117 149 184 221 265 324
#
# _framework density 18.94183
#
# number of rings (size 3 to 8) (size 9 to 14) (size 15 to 20)
#    0.000    2.231    1.538    0.923    0.000    4.615 
#    0.000    7.692    0.000    0.000    0.000    6.462 
#    0.000    0.000    0.000    0.000    0.000    0.000 
#
# Total GULP energy -289767.096571 kJ/mol
# GULP energy per Si atom -5572.444165 kJ/mol
# Density = 1.889872 g / cm^3
# Si number density = 18.941830 Si / 1000 Ang^3
#
#
#
# Elastic Constant Matrix: (Units=GPa)
#
#
# Indices 1 2 3 4 5 6 
#
# 1 115.3280 91.7991 2.2028 0.0000 0.0000 0.0000
# 2 91.7991 146.8643 12.9539 0.0000 0.0000 0.0000
# 3 2.2028 12.9539 15.4898 0.0000 0.0000 0.0000
# 4 0.0000 0.0000 0.0000 40.6959 0.0000 0.0000
# 5 0.0000 0.0000 0.0000 0.0000 21.7201 0.0000
# 6 0.0000 0.0000 0.0000 0.0000 0.0000 41.5788
#
#
#
# Elastic Compliance Matrix: (Units=1/GPa)
#
#
# Indices 1 2 3 4 5 6 
#
# 1 0.018009 -0.011910 0.007399 0.000000 0.000000 0.000000
# 2 -0.011910 0.015227 -0.011041 0.000000 0.000000 0.000000
# 3 0.007399 -0.011041 0.072740 0.000000 0.000000 0.000000
# 4 0.000000 0.000000 0.000000 0.024572 0.000000 0.000000
# 5 0.000000 0.000000 0.000000 0.000000 0.046040 0.000000
# 6 0.000000 0.000000 0.000000 0.000000 0.000000 0.024051
#
#
# Mechanical properties :
#
#
# Convention : Reuss Voigt Hill
#
# Bulk Modulus (GPa) = 13.35591 54.62154 33.98872
# Shear Modulus (GPa) = 19.47799 32.18071 25.82935
#
# Velocity S-wave (km/s) = 3.21020 4.12627 3.69672
# Velocity P-wave (km/s) = 4.56145 7.18335 6.01695
#
# Compressibility (1/GPa) = 0.07487322
#
# Stress axis : x y z
#
# Youngs Moduli (GPa) = 55.52652 65.67273 13.74767
#
# Poissons Ratio (x) = 0.78213 -0.10171
# Poissons Ratio (y) = 0.66130 0.15178
# Poissons Ratio (z) = -0.41082 0.72506
#
# Static dielectric constant tensor:
#      x y z
#    x 1.739270 0.000000 0.000000 
#    y 0.000000 1.696460 0.000000 
#    z 0.000000 0.000000 1.679570 
# 
# From -- ./inp_files/43287.got.cif
#   From: 2010.05.17/outbox.cif.g08.bks.cpg/sg69_22_cif.got.tgz:43287.got - 2010.06.03 19:29:58.
