data_PCOD9512818
_publ_section_title
;
Structure prediction by ZEFSAII (Michael W. Deem and Ramdas Pophale) SiO2 
 PCOD9512818
Probable space group: F M M M
;
_chemical_formula_sum "Si O2"
_cell_formula_units_Z 200
_cell_length_a 30.985369
_cell_length_b 20.048615
_cell_length_c 18.691723
_cell_angle_alpha 90.000000
_cell_angle_beta 90.000000
_cell_angle_gamma 90.000000
_cell_volume 11611.555034
_symmetry_space_group_name_H-M "F M M M"
_symmetry_group_IT_number 69
_symmetry_cell_setting 'orthorhombic'
loop_
_space_group_symop_operation_xyz
x,y,z
-x,-y,z
x,-y,-z
-x,y,-z
-x,-y,-z
x,y,-z
-x,y,z
x,-y,z
x,1/2+y,1/2+z
-x,1/2-y,1/2+z
x,1/2-y,1/2-z
-x,1/2+y,1/2-z
-x,1/2-y,1/2-z
x,1/2+y,1/2-z
-x,1/2+y,1/2+z
x,1/2-y,1/2+z
1/2+x,y,1/2+z
1/2-x,-y,1/2+z
1/2+x,-y,1/2-z
1/2-x,y,1/2-z
1/2-x,-y,1/2-z
1/2+x,y,1/2-z
1/2-x,y,1/2+z
1/2+x,-y,1/2+z
1/2+x,1/2+y,z
1/2-x,1/2-y,z
1/2+x,1/2-y,-z
1/2-x,1/2+y,-z
1/2-x,1/2-y,-z
1/2+x,1/2+y,-z
1/2-x,1/2+y,z
1/2+x,1/2-y,z
loop_
_atom_site_type_symbol
_atom_site_label
_atom_site_fract_x
_atom_site_fract_y
_atom_site_fract_z
Si Si1 0.750000 0.750000 0.750000
Si Si2 0.381764 0.243609 0.081162
Si Si3 0.670243 0.880054 0.581015
Si Si4 0.323873 0.846201 0.818852
Si Si5 0.750191 0.924800 0.163046
Si Si6 0.050827 0.803836 0.813641
Si Si7 0.884611 0.422759 0.293582
O O1 0.715097 0.796268 0.793109
O O2 0.349201 0.306150 0.078961
O O3 0.358542 0.190889 0.132577
O O4 0.424753 0.272066 0.118369
O O5 0.388926 0.220253 0.000000
O O6 0.676256 0.903832 0.500000
O O7 0.714434 0.879875 0.625133
O O8 0.636338 0.922151 0.627460
O O9 0.297250 0.902990 0.859898
O O10 0.349668 0.882969 0.755159
O O11 0.750000 0.922308 0.250000
O O12 0.761118 0.000000 0.143020
O O13 0.057371 0.750000 0.750000
O O14 0.073897 0.874195 0.795130
O O15 0.000000 0.812502 0.824948
O O16 0.891032 0.500000 0.271279
#
# Coordination Sequence:
#
# PCOD9512818 Si02
#       7
#     8  32  32  32  32  32  32
#     4  12  20  28  52  80 110 152 204 244 280 308
#     4  10  22  38  57  83 113 147 189 236 287 341
#     4  10  21  36  54  79 111 150 193 236 282 333
#     4  12  20  34  51  80 108 153 195 240 280 328
#     4  11  21  33  49  72 106 150 196 236 278 329
#     4  10  20  38  63  90 112 139 183 230 281 347
#     4  11  21  35  58  86 118 152 185 229 288 350
#
# _framework density 17.224222000000001
#
# number of rings (size 3 to 8) (size 9 to 14) (size 15 to 20)
#    0.000    1.280    4.000    3.840    0.000    2.560 
#    0.000    2.000    0.000    1.440    0.000    4.480 
#    0.000    2.560    0.000    0.000    0.000    0.000 
#
# Total GULP energy -278685.267661 kJ/mol
# GULP energy per Si atom -5573.705353 kJ/mol
# Density = 1.718502 g / cm^3
# Si number density = 17.224222 Si / 1000 Ang^3
#
#
#
# Elastic Constant Matrix: (Units=GPa)
#
#
# Indices 1 2 3 4 5 6 
#
# 1 128.8466 42.6677 59.2092 0.0000 0.0000 0.0000
# 2 42.6677 78.4941 45.1043 0.0000 0.0000 0.0000
# 3 59.2092 45.1043 99.5137 0.0000 0.0000 0.0000
# 4 0.0000 0.0000 0.0000 12.4857 0.0000 0.0000
# 5 0.0000 0.0000 0.0000 0.0000 13.7494 0.0000
# 6 0.0000 0.0000 0.0000 0.0000 0.0000 10.7524
#
#
#
# Elastic Compliance Matrix: (Units=1/GPa)
#
#
# Indices 1 2 3 4 5 6 
#
# 1 0.011198 -0.003054 -0.005279 0.000000 0.000000 0.000000
# 2 -0.003054 0.018059 -0.006368 0.000000 0.000000 0.000000
# 3 -0.005279 -0.006368 0.016076 0.000000 0.000000 0.000000
# 4 0.000000 0.000000 0.000000 0.080092 0.000000 0.000000
# 5 0.000000 0.000000 0.000000 0.000000 0.072731 0.000000
# 6 0.000000 0.000000 0.000000 0.000000 0.000000 0.093003
#
#
# Mechanical properties :
#
#
# Convention : Reuss Voigt Hill
#
# Bulk Modulus (GPa) = 62.76744 66.75742 64.76243
# Shear Modulus (GPa) = 15.34354 18.05570 16.69962
#
# Velocity S-wave (km/s) = 2.98788 3.24122 3.11713
# Velocity P-wave (km/s) = 6.95872 7.26975 7.11594
#
# Compressibility (1/GPa) = 0.01593183
#
# Stress axis : x y z
#
# Youngs Moduli (GPa) = 89.30051 55.37348 62.20479
#
# Poissons Ratio (x) = 0.16911 0.32835
# Poissons Ratio (y) = 0.27272 0.39614
# Poissons Ratio (z) = 0.47138 0.35263
#
# Static dielectric constant tensor:
#      x y z
#    x 1.577990 0.000000 0.000000 
#    y 0.000000 1.645560 0.000000 
#    z 0.000000 0.000000 1.608200 
# 
# From -- ./inp_files/27918.got.cif
#   From: 2010.05.17/outbox.cif.g08.bks.cpg/sg69_14_cif.got.tgz:27918.got - 2010.06.03 19:29:58.
