data_PCOD9512646
_publ_section_title
;
Structure prediction by ZEFSAII (Michael W. Deem and Ramdas Pophale) SiO2 
 PCOD9512646
Probable space group: F M M M
;
_chemical_formula_sum "Si O2"
_cell_formula_units_Z 96
_cell_length_a 13.417373
_cell_length_b 12.120468
_cell_length_c 23.181648
_cell_angle_alpha 90.000000
_cell_angle_beta 90.000000
_cell_angle_gamma 90.000000
_cell_volume 3769.911799
_symmetry_space_group_name_H-M "F M M M"
_symmetry_group_IT_number 69
_symmetry_cell_setting 'orthorhombic'
loop_
_space_group_symop_operation_xyz
x,y,z
-x,-y,z
x,-y,-z
-x,y,-z
-x,-y,-z
x,y,-z
-x,y,z
x,-y,z
x,1/2+y,1/2+z
-x,1/2-y,1/2+z
x,1/2-y,1/2-z
-x,1/2+y,1/2-z
-x,1/2-y,1/2-z
x,1/2+y,1/2-z
-x,1/2+y,1/2+z
x,1/2-y,1/2+z
1/2+x,y,1/2+z
1/2-x,-y,1/2+z
1/2+x,-y,1/2-z
1/2-x,y,1/2-z
1/2-x,-y,1/2-z
1/2+x,y,1/2-z
1/2-x,y,1/2+z
1/2+x,-y,1/2+z
1/2+x,1/2+y,z
1/2-x,1/2-y,z
1/2+x,1/2-y,-z
1/2-x,1/2+y,-z
1/2-x,1/2-y,-z
1/2+x,1/2+y,-z
1/2-x,1/2+y,z
1/2+x,1/2-y,z
loop_
_atom_site_type_symbol
_atom_site_label
_atom_site_fract_x
_atom_site_fract_y
_atom_site_fract_z
Si Si1 0.670342 0.377979 0.433891
Si Si2 0.614541 0.877658 0.742029
Si Si3 0.110367 0.657108 0.607864
O O1 0.647503 0.346782 0.500000
O O2 0.633305 0.500000 0.423141
O O3 0.790487 0.377599 0.426288
O O4 0.622295 0.289411 0.392132
O O5 0.500000 0.873660 0.761236
O O6 0.651221 0.750000 0.750000
O O7 0.618169 0.885239 0.672601
O O8 0.651413 0.000000 0.764445
O O9 0.000000 0.629311 0.584978
#
# Coordination Sequence:
#
# PCOD9512646 Si02
#       3
#    32  32  32
#     4  10  22  38  55  81 117 152 191 242 294 346
#     4   9  18  33  55  84 116 150 192 242 293 348
#     4  10  20  36  59  83 110 149 194 238 289 348
#
# _framework density 25.464787999999999
#
# number of rings (size 3 to 8) (size 9 to 14) (size 15 to 20)
#    0.000    2.333    0.000    3.000    0.000    6.667 
#    0.000   10.000    0.000   10.000    0.000    0.000 
#    0.000    0.000    0.000    0.000    0.000    0.000 
#
# Total GULP energy -133818.429948 kJ/mol
# GULP energy per Si atom -5575.767914 kJ/mol
# Density = 2.540683 g / cm^3
# Si number density = 25.464788 Si / 1000 Ang^3
#
#
#
# Elastic Constant Matrix: (Units=GPa)
#
#
# Indices 1 2 3 4 5 6 
#
# 1 127.1067 23.3739 -5.6738 0.0000 0.0000 0.0000
# 2 23.3739 255.3938 24.1369 0.0000 0.0000 0.0000
# 3 -5.6738 24.1369 45.2229 0.0000 0.0000 0.0000
# 4 0.0000 0.0000 0.0000 66.0791 0.0000 0.0000
# 5 0.0000 0.0000 0.0000 0.0000 20.1284 0.0000
# 6 0.0000 0.0000 0.0000 0.0000 0.0000 -34.1617
#
#
#
# Elastic Compliance Matrix: (Units=1/GPa)
#
#
# Indices 1 2 3 4 5 6 
#
# 1 0.008096 -0.000881 0.001486 0.000000 0.000000 0.000000
# 2 -0.000881 0.004219 -0.002363 0.000000 0.000000 0.000000
# 3 0.001486 -0.002363 0.023560 0.000000 0.000000 0.000000
# 4 0.000000 0.000000 0.000000 0.015133 0.000000 0.000000
# 5 0.000000 0.000000 0.000000 0.000000 0.049681 0.000000
# 6 0.000000 0.000000 0.000000 0.000000 0.000000 -0.029273
#
#
# Mechanical properties :
#
#
# Convention : Reuss Voigt Hill
#
# Bulk Modulus (GPa) = 30.90264 56.82192 43.86228
# Shear Modulus (GPa) = 58.32970 36.13494 47.23232
#
# Velocity S-wave (km/s) = 4.79122 3.77107 4.31142
# Velocity P-wave (km/s) = 6.53984 6.42835 6.48433
#
# Compressibility (1/GPa) = 0.03235969
#
# Stress axis : x y z
#
# Youngs Moduli (GPa) = 123.52045 236.99611 42.44450
#
# Poissons Ratio (x) = 0.20889 -0.06308
# Poissons Ratio (y) = 0.10887 0.10028
# Poissons Ratio (z) = -0.18357 0.55994
#
# Static dielectric constant tensor:
#      x y z
#    x 1.973070 0.000000 0.000000 
#    y 0.000000 2.124680 0.000000 
#    z 0.000000 0.000000 1.910580 
# 
# From -- ./inp_files/29398.got.cif
#   From: 2010.05.17/outbox.cif.g08.bks.cpg/sg69_15_cif.got.tgz:29398.got - 2010.06.03 19:29:58.
