data_PCOD9512453
_publ_section_title
;
Structure prediction by ZEFSAII (Michael W. Deem and Ramdas Pophale) SiO2 
 PCOD9512453
Probable space group: F M M M
;
_chemical_formula_sum "Si O2"
_cell_formula_units_Z 160
_cell_length_a 14.692068
_cell_length_b 33.102665
_cell_length_c 17.834660
_cell_angle_alpha 90.000000
_cell_angle_beta 90.000000
_cell_angle_gamma 90.000000
_cell_volume 8673.826345
_symmetry_space_group_name_H-M "F M M M"
_symmetry_group_IT_number 69
_symmetry_cell_setting 'orthorhombic'
loop_
_space_group_symop_operation_xyz
x,y,z
-x,-y,z
x,-y,-z
-x,y,-z
-x,-y,-z
x,y,-z
-x,y,z
x,-y,z
x,1/2+y,1/2+z
-x,1/2-y,1/2+z
x,1/2-y,1/2-z
-x,1/2+y,1/2-z
-x,1/2-y,1/2-z
x,1/2+y,1/2-z
-x,1/2+y,1/2+z
x,1/2-y,1/2+z
1/2+x,y,1/2+z
1/2-x,-y,1/2+z
1/2+x,-y,1/2-z
1/2-x,y,1/2-z
1/2-x,-y,1/2-z
1/2+x,y,1/2-z
1/2-x,y,1/2+z
1/2+x,-y,1/2+z
1/2+x,1/2+y,z
1/2-x,1/2-y,z
1/2+x,1/2-y,-z
1/2-x,1/2+y,-z
1/2-x,1/2-y,-z
1/2+x,1/2+y,-z
1/2-x,1/2+y,z
1/2+x,1/2-y,z
loop_
_atom_site_type_symbol
_atom_site_label
_atom_site_fract_x
_atom_site_fract_y
_atom_site_fract_z
Si Si1 0.000000 0.287102 0.307837
Si Si2 0.327548 0.156301 0.313472
Si Si3 0.344034 0.064969 0.703448
Si Si4 0.781902 0.000000 0.089872
Si Si5 0.295252 0.707591 0.589749
Si Si6 0.000000 0.218377 0.588837
Si Si7 0.405040 0.500000 0.318198
O O1 0.000000 0.250000 0.250000
O O2 0.910277 0.313566 0.299235
O O3 0.000000 0.265436 0.388839
O O4 0.250000 0.159000 0.250000
O O5 0.366772 0.110949 0.315374
O O6 0.271054 0.171653 0.385412
O O7 0.250000 0.067083 0.750000
O O8 0.329757 0.038805 0.628312
O O9 0.401300 0.038367 0.762025
O O10 0.680438 0.000000 0.126079
O O11 0.782582 0.000000 0.000000
O O12 0.298432 0.709979 0.500000
O O13 0.250000 0.750000 0.617547
O O14 0.400761 0.702545 0.616176
O O15 0.000000 0.212616 0.500000
O O16 0.500000 0.500000 0.360648
#
# Coordination Sequence:
#
# PCOD9512453 Si02
#       7
#    16  32  32  16  32  16  16
#     4  12  24  34  52  81 110 144 188 242 288 325
#     4  11  23  36  55  80 112 144 190 235 285 334
#     4   8  18  36  53  80 107 148 187 220 271 343
#     4   9  17  34  60  84 113 145 180 226 282 340
#     4  10  20  35  55  75 103 145 187 230 283 337
#     4  10  20  36  54  74 101 141 192 228 277 347
#     4   9  17  32  60  84 115 145 182 220 276 343
#
# _framework density 18.446300000000001
#
# number of rings (size 3 to 8) (size 9 to 14) (size 15 to 20)
#    0.000    2.200    2.000    2.400    1.400    1.000 
#    0.000    0.000    2.200    4.800    0.000    0.000 
#    0.000    0.000    0.000    0.000    0.000    0.000 
#
# Total GULP energy -222744.624139 kJ/mol
# GULP energy per Si atom -5568.615603 kJ/mol
# Density = 1.840432 g / cm^3
# Si number density = 18.446300 Si / 1000 Ang^3
#
#
#
# Elastic Constant Matrix: (Units=GPa)
#
#
# Indices 1 2 3 4 5 6 
#
# 1 103.9964 36.4807 12.3314 0.0000 0.0000 0.0000
# 2 36.4807 107.2371 6.7621 0.0000 0.0000 0.0000
# 3 12.3314 6.7621 58.2396 0.0000 0.0000 0.0000
# 4 0.0000 0.0000 0.0000 15.5489 0.0000 0.0000
# 5 0.0000 0.0000 0.0000 0.0000 12.1127 0.0000
# 6 0.0000 0.0000 0.0000 0.0000 0.0000 -21.7758
#
#
#
# Elastic Compliance Matrix: (Units=1/GPa)
#
#
# Indices 1 2 3 4 5 6 
#
# 1 0.011130 -0.003665 -0.001931 0.000000 0.000000 0.000000
# 2 -0.003665 0.010600 -0.000455 0.000000 0.000000 0.000000
# 3 -0.001931 -0.000455 0.017632 0.000000 0.000000 0.000000
# 4 0.000000 0.000000 0.000000 0.064313 0.000000 0.000000
# 5 0.000000 0.000000 0.000000 0.000000 0.082558 0.000000
# 6 0.000000 0.000000 0.000000 0.000000 0.000000 -0.045923
#
#
# Mechanical properties :
#
#
# Convention : Reuss Voigt Hill
#
# Bulk Modulus (GPa) = 36.68172 42.29129 39.48651
# Shear Modulus (GPa) = 30.95984 15.43710 23.19847
#
# Velocity S-wave (km/s) = 4.10124 2.89600 3.55014
# Velocity P-wave (km/s) = 6.50813 5.84456 6.18525
#
# Compressibility (1/GPa) = 0.02726154
#
# Stress axis : x y z
#
# Youngs Moduli (GPa) = 89.84569 94.33560 56.71458
#
# Poissons Ratio (x) = 0.34570 0.10953
# Poissons Ratio (y) = 0.32925 0.02580
# Poissons Ratio (z) = 0.17351 0.04291
#
# Static dielectric constant tensor:
#      x y z
#    x 1.676650 0.000000 0.000000 
#    y 0.000000 1.647570 0.000000 
#    z 0.000000 0.000000 1.644460 
# 
# From -- ./inp_files/21891.got.cif
#   From: 2010.05.17/outbox.cif.g08.bks.cpg/sg69_11_cif.got.tgz:21891.got - 2010.06.03 19:29:58.
