data_PCOD9512022
_publ_section_title
;
Structure prediction by ZEFSAII (Michael W. Deem and Ramdas Pophale) SiO2 
 PCOD9512022
Probable space group: F M M M
;
_chemical_formula_sum "Si O2"
_cell_formula_units_Z 132
_cell_length_a 18.263249
_cell_length_b 29.041010
_cell_length_c 14.503699
_cell_angle_alpha 90.000000
_cell_angle_beta 90.000000
_cell_angle_gamma 90.000000
_cell_volume 7692.518242
_symmetry_space_group_name_H-M "F M M M"
_symmetry_group_IT_number 69
_symmetry_cell_setting 'orthorhombic'
loop_
_space_group_symop_operation_xyz
x,y,z
-x,-y,z
x,-y,-z
-x,y,-z
-x,-y,-z
x,y,-z
-x,y,z
x,-y,z
x,1/2+y,1/2+z
-x,1/2-y,1/2+z
x,1/2-y,1/2-z
-x,1/2+y,1/2-z
-x,1/2-y,1/2-z
x,1/2+y,1/2-z
-x,1/2+y,1/2+z
x,1/2-y,1/2+z
1/2+x,y,1/2+z
1/2-x,-y,1/2+z
1/2+x,-y,1/2-z
1/2-x,y,1/2-z
1/2-x,-y,1/2-z
1/2+x,y,1/2-z
1/2-x,y,1/2+z
1/2+x,-y,1/2+z
1/2+x,1/2+y,z
1/2-x,1/2-y,z
1/2+x,1/2-y,-z
1/2-x,1/2+y,-z
1/2-x,1/2-y,-z
1/2+x,1/2+y,-z
1/2-x,1/2+y,z
1/2+x,1/2-y,z
loop_
_atom_site_type_symbol
_atom_site_label
_atom_site_fract_x
_atom_site_fract_y
_atom_site_fract_z
Si Si1 0.309146 0.111649 0.676126
Si Si2 0.283193 0.945068 0.500000
Si Si3 0.282413 0.200509 0.110425
Si Si4 0.415244 0.648712 0.678687
Si Si5 0.113058 0.914906 0.500000
Si Si6 0.500000 0.500000 0.500000
O O1 0.250000 0.092446 0.750000
O O2 0.317861 0.077429 0.591257
O O3 0.271525 0.159091 0.640361
O O4 0.382447 0.123453 0.731645
O O5 0.198319 0.928659 0.500000
O O6 0.287525 0.000000 0.500000
O O7 0.250000 0.250000 0.134716
O O8 0.360164 0.190714 0.157978
O O9 0.291396 0.198312 0.000000
O O10 0.500000 0.660782 0.687708
O O11 0.404370 0.615166 0.590674
O O12 0.063370 0.959728 0.500000
#
# Coordination Sequence:
#
# PCOD9512022 Si02
#       6
#    32  16  32  32  16   4
#     4  10  20  37  57  85 116 153 198 250 287 350
#     4  12  22  38  59  85 118 155 206 247 294 355
#     4  10  19  35  62  88 115 154 195 243 298 353
#     4  11  21  37  60  85 122 156 192 239 306 356
#     4  12  20  36  56  88 118 152 187 252 309 350
#     4  12  24  32  56  92 136 142 182 268 336 344
#
# _framework density 17.159531000000001
#
# number of rings (size 3 to 8) (size 9 to 14) (size 15 to 20)
#    0.000    1.212    9.091    0.000    0.000    4.848 
#    2.182    3.030    0.000    2.182    0.000    0.000 
#    0.000    0.000    0.000    0.000    0.000    0.000 
#
# Total GULP energy -183976.821749 kJ/mol
# GULP energy per Si atom -5575.055205 kJ/mol
# Density = 1.712047 g / cm^3
# Si number density = 17.159531 Si / 1000 Ang^3
#
#
#
# Elastic Constant Matrix: (Units=GPa)
#
#
# Indices 1 2 3 4 5 6 
#
# 1 128.2041 52.6517 49.2090 0.0000 0.0000 0.0000
# 2 52.6517 104.1248 45.9735 0.0000 0.0000 0.0000
# 3 49.2090 45.9735 116.2902 0.0000 0.0000 0.0000
# 4 0.0000 0.0000 0.0000 2.3874 0.0000 0.0000
# 5 0.0000 0.0000 0.0000 0.0000 14.2834 0.0000
# 6 0.0000 0.0000 0.0000 0.0000 0.0000 24.7891
#
#
#
# Elastic Compliance Matrix: (Units=1/GPa)
#
#
# Indices 1 2 3 4 5 6 
#
# 1 0.010575 -0.004085 -0.002860 0.000000 0.000000 0.000000
# 2 -0.004085 0.013212 -0.003495 0.000000 0.000000 0.000000
# 3 -0.002860 -0.003495 0.011191 0.000000 0.000000 0.000000
# 4 0.000000 0.000000 0.000000 0.418867 0.000000 0.000000
# 5 0.000000 0.000000 0.000000 0.000000 0.070011 0.000000
# 6 0.000000 0.000000 0.000000 0.000000 0.000000 0.040340
#
#
# Mechanical properties :
#
#
# Convention : Reuss Voigt Hill
#
# Bulk Modulus (GPa) = 70.92509 71.58751 71.25630
# Shear Modulus (GPa) = 8.47778 21.67766 15.07772
#
# Velocity S-wave (km/s) = 2.22515 3.55815 2.96747
# Velocity P-wave (km/s) = 6.92995 7.66094 7.30459
#
# Compressibility (1/GPa) = 0.01409938
#
# Stress axis : x y z
#
# Youngs Moduli (GPa) = 94.55859 75.68659 89.35643
#
# Poissons Ratio (x) = 0.30916 0.25558
# Poissons Ratio (y) = 0.38624 0.31229
# Poissons Ratio (z) = 0.27046 0.26451
#
# Static dielectric constant tensor:
#      x y z
#    x 1.570470 0.000000 0.000000 
#    y 0.000000 1.569920 0.000000 
#    z 0.000000 0.000000 1.609080 
# 
# From -- ./inp_files/15401.got.cif
#   From: 2010.05.17/outbox.cif.g08.bks.cpg/sg69_8_cif.got.tgz:15401.got - 2010.06.03 19:29:58.
