data_PCOD9512301
_publ_section_title
;
Structure prediction by ZEFSAII (Michael W. Deem and Ramdas Pophale) SiO2 
 PCOD9512301
Probable space group: F M M M
;
_chemical_formula_sum "Si O2"
_cell_formula_units_Z 160
_cell_length_a 15.108067
_cell_length_b 32.084686
_cell_length_c 14.769699
_cell_angle_alpha 90.000000
_cell_angle_beta 90.000000
_cell_angle_gamma 90.000000
_cell_volume 7159.428236
_symmetry_space_group_name_H-M "F M M M"
_symmetry_group_IT_number 69
_symmetry_cell_setting 'orthorhombic'
loop_
_space_group_symop_operation_xyz
x,y,z
-x,-y,z
x,-y,-z
-x,y,-z
-x,-y,-z
x,y,-z
-x,y,z
x,-y,z
x,1/2+y,1/2+z
-x,1/2-y,1/2+z
x,1/2-y,1/2-z
-x,1/2+y,1/2-z
-x,1/2-y,1/2-z
x,1/2+y,1/2-z
-x,1/2+y,1/2+z
x,1/2-y,1/2+z
1/2+x,y,1/2+z
1/2-x,-y,1/2+z
1/2+x,-y,1/2-z
1/2-x,y,1/2-z
1/2-x,-y,1/2-z
1/2+x,y,1/2-z
1/2-x,y,1/2+z
1/2+x,-y,1/2+z
1/2+x,1/2+y,z
1/2-x,1/2-y,z
1/2+x,1/2-y,-z
1/2-x,1/2+y,-z
1/2-x,1/2-y,-z
1/2+x,1/2+y,-z
1/2-x,1/2+y,z
1/2+x,1/2-y,z
loop_
_atom_site_type_symbol
_atom_site_label
_atom_site_fract_x
_atom_site_fract_y
_atom_site_fract_z
Si Si1 0.406461 0.151813 0.635972
Si Si2 0.898252 0.367373 0.849981
Si Si3 0.760244 0.297813 0.139508
Si Si4 0.205053 0.046207 0.610068
Si Si5 0.096369 0.556644 0.603050
O O1 0.500000 0.172673 0.616109
O O2 0.401757 0.142527 0.743188
O O3 0.324913 0.178115 0.605194
O O4 0.403650 0.106154 0.596414
O O5 0.843419 0.327229 0.886264
O O6 0.847172 0.411675 0.862020
O O7 0.000000 0.370396 0.882939
O O8 0.750000 0.297714 0.250000
O O9 0.750000 0.250000 0.111094
O O10 0.208760 0.048154 0.500000
O O11 0.307645 0.046467 0.644429
O O12 0.167486 0.000000 0.633603
O O13 0.096061 0.541299 0.500000
O O14 0.000000 0.545543 0.645494
#
# Coordination Sequence:
#
# PCOD9512301 Si02
#       5
#    32  32  32  32  32
#     4   9  17  31  53  77 104 134 169 213 261 311
#     4  10  20  34  52  75 107 141 176 217 258 303
#     4   9  17  30  51  78 107 137 171 212 261 313
#     4  10  21  36  55  78 103 137 179 217 257 308
#     4   9  17  31  53  78 103 133 168 210 262 312
#
# _framework density 22.348153
#
# number of rings (size 3 to 8) (size 9 to 14) (size 15 to 20)
#    0.000    2.600    2.000    0.000    0.000    2.000 
#    0.000    9.000    0.000    6.000    0.000    2.800 
#    0.000    0.000    0.000    0.000    0.000    0.000 
#
# Total GULP energy -222915.092941 kJ/mol
# GULP energy per Si atom -5572.877324 kJ/mol
# Density = 2.229729 g / cm^3
# Si number density = 22.348153 Si / 1000 Ang^3
#
#
#
# Elastic Constant Matrix: (Units=GPa)
#
#
# Indices 1 2 3 4 5 6 
#
# 1 201.3398 118.2588 11.4917 0.0000 0.0000 0.0000
# 2 118.2588 211.2526 6.7786 0.0000 0.0000 0.0000
# 3 11.4917 6.7786 49.8756 0.0000 0.0000 0.0000
# 4 0.0000 0.0000 0.0000 78.6589 0.0000 0.0000
# 5 0.0000 0.0000 0.0000 0.0000 -0.8428 0.0000
# 6 0.0000 0.0000 0.0000 0.0000 0.0000 -14.9556
#
#
#
# Elastic Compliance Matrix: (Units=1/GPa)
#
#
# Indices 1 2 3 4 5 6 
#
# 1 0.007466 -0.004142 -0.001157 0.000000 0.000000 0.000000
# 2 -0.004142 0.007053 -0.000004 0.000000 0.000000 0.000000
# 3 -0.001157 -0.000004 0.020317 0.000000 0.000000 0.000000
# 4 0.000000 0.000000 0.000000 0.012713 0.000000 0.000000
# 5 0.000000 0.000000 0.000000 0.000000 -1.186548 0.000000
# 6 0.000000 0.000000 0.000000 0.000000 0.000000 -0.066865
#
#
# Mechanical properties :
#
#
# Convention : Reuss Voigt Hill
#
# Bulk Modulus (GPa) = 41.27387 81.72512 61.49950
# Shear Modulus (GPa) = -4.21166 34.30137 15.04486
#
# Velocity S-wave (km/s) = -1.37428 3.92198 2.59743
# Velocity P-wave (km/s) = 3.99881 7.56027 6.04765
#
# Compressibility (1/GPa) = 0.02422840
#
# Stress axis : x y z
#
# Youngs Moduli (GPa) = 133.94564 141.79210 49.21965
#
# Poissons Ratio (x) = 0.58733 0.05696
# Poissons Ratio (y) = 0.55482 0.00020
# Poissons Ratio (z) = 0.15500 0.00059
#
# Static dielectric constant tensor:
#      x y z
#    x 1.864410 0.000000 0.000000 
#    y 0.000000 1.798310 0.000000 
#    z 0.000000 0.000000 1.906000 
# 
# From -- ./inp_files/18888.got.cif
#   From: 2010.05.17/outbox.cif.g08.bks.cpg/sg69_10_cif.got.tgz:18888.got - 2010.06.03 19:29:58.
