data_PCOD9512106
_publ_section_title
;
Structure prediction by ZEFSAII (Michael W. Deem and Ramdas Pophale) SiO2 
 PCOD9512106
Probable space group: F M M M
;
_chemical_formula_sum "Si O2"
_cell_formula_units_Z 144
_cell_length_a 32.863205
_cell_length_b 25.489169
_cell_length_c 10.347179
_cell_angle_alpha 90.000000
_cell_angle_beta 90.000000
_cell_angle_gamma 90.000000
_cell_volume 8667.374359
_symmetry_space_group_name_H-M "F M M M"
_symmetry_group_IT_number 69
_symmetry_cell_setting 'orthorhombic'
loop_
_space_group_symop_operation_xyz
x,y,z
-x,-y,z
x,-y,-z
-x,y,-z
-x,-y,-z
x,y,-z
-x,y,z
x,-y,z
x,1/2+y,1/2+z
-x,1/2-y,1/2+z
x,1/2-y,1/2-z
-x,1/2+y,1/2-z
-x,1/2-y,1/2-z
x,1/2+y,1/2-z
-x,1/2+y,1/2+z
x,1/2-y,1/2+z
1/2+x,y,1/2+z
1/2-x,-y,1/2+z
1/2+x,-y,1/2-z
1/2-x,y,1/2-z
1/2-x,-y,1/2-z
1/2+x,y,1/2-z
1/2-x,y,1/2+z
1/2+x,-y,1/2+z
1/2+x,1/2+y,z
1/2-x,1/2-y,z
1/2+x,1/2-y,-z
1/2-x,1/2+y,-z
1/2-x,1/2-y,-z
1/2+x,1/2+y,-z
1/2-x,1/2+y,z
1/2+x,1/2-y,z
loop_
_atom_site_type_symbol
_atom_site_label
_atom_site_fract_x
_atom_site_fract_y
_atom_site_fract_z
Si Si1 0.250000 0.619472 0.750000
Si Si2 0.195996 0.292478 0.640754
Si Si3 0.170201 0.062613 0.350309
Si Si4 0.952076 0.796817 0.849261
Si Si5 0.621477 0.130956 0.350845
O O1 0.226998 0.659056 0.653415
O O2 0.214933 0.584991 0.815498
O O3 0.199230 0.267625 0.500000
O O4 0.203028 0.250000 0.750000
O O5 0.151830 0.318995 0.656346
O O6 0.161091 0.075544 0.500000
O O7 0.138690 0.089709 0.251784
O O8 0.169897 0.000000 0.335537
O O9 0.942333 0.750000 0.750000
O O10 0.923257 0.846562 0.824177
O O11 0.000000 0.808885 0.835340
O O12 0.945074 0.781307 0.000000
O O13 0.623690 0.111717 0.500000
#
# Coordination Sequence:
#
# PCOD9512106 Si02
#       5
#    16  32  32  32  32
#     4  10  20  34  50  68  94 124 158 198 246 292
#     4  10  20  31  45  66  94 127 160 192 229 278
#     4  10  21  36  54  74  94 121 162 210 254 295
#     4   9  17  30  50  77 107 136 166 199 236 284
#     4   9  19  34  50  71  99 131 164 199 243 291
#
# _framework density 16.614028000000001
#
# number of rings (size 3 to 8) (size 9 to 14) (size 15 to 20)
#    0.000    2.444    0.000    2.000    0.000    7.556 
#    0.000    0.000    0.000    0.667    0.000    4.667 
#    0.000    0.000    0.000    0.000    0.000    0.000 
#
# Total GULP energy -200746.377538 kJ/mol
# GULP energy per Si atom -5576.288265 kJ/mol
# Density = 1.657621 g / cm^3
# Si number density = 16.614028 Si / 1000 Ang^3
#
#
#
# Elastic Constant Matrix: (Units=GPa)
#
#
# Indices 1 2 3 4 5 6 
#
# 1 73.9960 39.6252 51.1076 -0.0001 0.0000 0.0000
# 2 39.6252 82.1632 79.6831 -0.0003 0.0001 0.0001
# 3 51.1076 79.6831 145.6154 -0.0006 0.0002 0.0001
# 4 -0.0001 -0.0003 -0.0006 28.0819 0.0002 0.0001
# 5 0.0000 0.0001 0.0002 0.0002 1.4801 0.0000
# 6 0.0000 0.0001 0.0001 0.0001 0.0000 16.2661
#
#
#
# Elastic Compliance Matrix: (Units=1/GPa)
#
#
# Indices 1 2 3 4 5 6 
#
# 1 0.019035 -0.005755 -0.003532 0.000000 0.000001 0.000000
# 2 -0.005755 0.027674 -0.013124 0.000000 0.000001 0.000000
# 3 -0.003532 -0.013124 0.015288 0.000000 -0.000002 0.000000
# 4 0.000000 0.000000 0.000000 0.035610 -0.000004 0.000000
# 5 0.000001 0.000001 -0.000002 -0.000004 0.675622 -0.000001
# 6 0.000000 0.000000 0.000000 0.000000 -0.000001 0.061478
#
#
# Mechanical properties :
#
#
# Convention : Reuss Voigt Hill
#
# Bulk Modulus (GPa) = 58.21835 71.40069 64.80952
# Shear Modulus (GPa) = 5.64809 17.92288 11.78548
#
# Velocity S-wave (km/s) = 1.84580 3.28804 2.66629
# Velocity P-wave (km/s) = 6.29765 7.58185 6.96939
#
# Compressibility (1/GPa) = 0.01717672
#
# Stress axis : x y z
#
# Youngs Moduli (GPa) = 52.53363 36.13478 65.40880
#
# Poissons Ratio (x) = 0.20797 0.23100
# Poissons Ratio (y) = 0.30235 0.85841
# Poissons Ratio (z) = 0.18553 0.47422
#
# Static dielectric constant tensor:
#      x y z
#    x 1.577200 0.000000 0.000000 
#    y 0.000000 1.525760 0.000000 
#    z 0.000000 0.000000 1.573450 
# 
# From -- ./inp_files/5607.got.cif
#   From: 2010.05.17/outbox.cif.g08.bks.cpg/sg69_3_cif.got.tgz:5607.got - 2010.06.03 19:29:58.
