data_PCOD9512688
_publ_section_title
;
Structure prediction by ZEFSAII (Michael W. Deem and Ramdas Pophale) SiO2 
 PCOD9512688
Probable space group: F M M M
;
_chemical_formula_sum "Si O2"
_cell_formula_units_Z 88
_cell_length_a 9.094788
_cell_length_b 18.729789
_cell_length_c 27.335117
_cell_angle_alpha 90.000000
_cell_angle_beta 90.000000
_cell_angle_gamma 90.000000
_cell_volume 4656.358416
_symmetry_space_group_name_H-M "F M M M"
_symmetry_group_IT_number 69
_symmetry_cell_setting 'orthorhombic'
loop_
_space_group_symop_operation_xyz
x,y,z
-x,-y,z
x,-y,-z
-x,y,-z
-x,-y,-z
x,y,-z
-x,y,z
x,-y,z
x,1/2+y,1/2+z
-x,1/2-y,1/2+z
x,1/2-y,1/2-z
-x,1/2+y,1/2-z
-x,1/2-y,1/2-z
x,1/2+y,1/2-z
-x,1/2+y,1/2+z
x,1/2-y,1/2+z
1/2+x,y,1/2+z
1/2-x,-y,1/2+z
1/2+x,-y,1/2-z
1/2-x,y,1/2-z
1/2-x,-y,1/2-z
1/2+x,y,1/2-z
1/2-x,y,1/2+z
1/2+x,-y,1/2+z
1/2+x,1/2+y,z
1/2-x,1/2-y,z
1/2+x,1/2-y,-z
1/2-x,1/2+y,-z
1/2-x,1/2-y,-z
1/2+x,1/2+y,-z
1/2-x,1/2+y,z
1/2+x,1/2-y,z
loop_
_atom_site_type_symbol
_atom_site_label
_atom_site_fract_x
_atom_site_fract_y
_atom_site_fract_z
Si Si1 0.833502 0.680679 0.154003
Si Si2 0.326081 0.915479 0.587291
Si Si3 0.176781 0.671943 0.000000
Si Si4 0.750000 0.750000 0.750000
O O1 0.750000 0.750000 0.132015
O O2 0.738405 0.612986 0.138558
O O3 0.834128 0.699244 0.211761
O O4 0.000000 0.675174 0.136434
O O5 0.500000 0.900028 0.583474
O O6 0.236392 0.872138 0.546589
O O7 0.305727 0.000000 0.581427
O O8 0.250000 0.750000 0.000000
O O9 0.000000 0.676816 0.000000
#
# Coordination Sequence:
#
# PCOD9512688 Si02
#       4
#    32  32  16   8
#     4  10  20  36  61  89 118 154 200 248 296 354
#     4  11  24  41  61  88 125 162 198 245 300 355
#     4  12  25  42  65  91 121 159 203 246 291 352
#     4   8  22  36  64  90 118 156 196 256 302 350
#
# _framework density 18.898889
#
# number of rings (size 3 to 8) (size 9 to 14) (size 15 to 20)
#    1.091    0.364    0.000    6.000    0.000    5.091 
#    0.000    0.909    0.000    0.000    0.000    0.000 
#    0.000    0.000    0.000    0.000    0.000    0.000 
#
# Total GULP energy -122637.549291 kJ/mol
# GULP energy per Si atom -5574.434059 kJ/mol
# Density = 1.885587 g / cm^3
# Si number density = 18.898889 Si / 1000 Ang^3
#
#
#
# Elastic Constant Matrix: (Units=GPa)
#
#
# Indices 1 2 3 4 5 6 
#
# 1 189.1273 91.8566 46.5483 0.0000 0.0000 0.0000
# 2 91.8566 114.0374 44.6693 0.0000 0.0000 0.0000
# 3 46.5483 44.6693 91.2630 0.0000 0.0000 0.0000
# 4 0.0000 0.0000 0.0000 23.2310 0.0000 0.0000
# 5 0.0000 0.0000 0.0000 0.0000 24.4680 0.0000
# 6 0.0000 0.0000 0.0000 0.0000 0.0000 26.3941
#
#
#
# Elastic Compliance Matrix: (Units=1/GPa)
#
#
# Indices 1 2 3 4 5 6 
#
# 1 0.008801 -0.006595 -0.001261 0.000000 0.000000 0.000000
# 2 -0.006595 0.015791 -0.004365 0.000000 0.000000 0.000000
# 3 -0.001261 -0.004365 0.013737 0.000000 0.000000 0.000000
# 4 0.000000 0.000000 0.000000 0.043046 0.000000 0.000000
# 5 0.000000 0.000000 0.000000 0.000000 0.040870 0.000000
# 6 0.000000 0.000000 0.000000 0.000000 0.000000 0.037887
#
#
# Mechanical properties :
#
#
# Convention : Reuss Voigt Hill
#
# Bulk Modulus (GPa) = 72.01158 84.50844 78.26001
# Shear Modulus (GPa) = 26.42646 28.90885 27.66765
#
# Velocity S-wave (km/s) = 3.74345 3.91533 3.83035
# Velocity P-wave (km/s) = 7.54128 8.07793 7.81421
#
# Compressibility (1/GPa) = 0.01388666
#
# Stress axis : x y z
#
# Youngs Moduli (GPa) = 113.62343 63.32533 72.79581
#
# Poissons Ratio (x) = 0.41765 0.09178
# Poissons Ratio (y) = 0.74938 0.31778
# Poissons Ratio (z) = 0.14326 0.27644
#
# Static dielectric constant tensor:
#      x y z
#    x 1.643520 0.000000 0.000000 
#    y 0.000000 1.633800 0.000000 
#    z 0.000000 0.000000 1.732660 
# 
# From -- ./inp_files/44188.got.cif
#   From: 2010.05.17/outbox.cif.g08.bks.cpg/sg69_23_cif.got.tgz:44188.got - 2010.06.03 19:29:58.
