data_PCOD9512472
_publ_section_title
;
Structure prediction by ZEFSAII (Michael W. Deem and Ramdas Pophale) SiO2 
 PCOD9512472
Probable space group: F M M M
;
_chemical_formula_sum "Si O2"
_cell_formula_units_Z 176
_cell_length_a 13.628034
_cell_length_b 24.359744
_cell_length_c 28.851926
_cell_angle_alpha 90.000000
_cell_angle_beta 90.000000
_cell_angle_gamma 90.000000
_cell_volume 9578.130236
_symmetry_space_group_name_H-M "F M M M"
_symmetry_group_IT_number 69
_symmetry_cell_setting 'orthorhombic'
loop_
_space_group_symop_operation_xyz
x,y,z
-x,-y,z
x,-y,-z
-x,y,-z
-x,-y,-z
x,y,-z
-x,y,z
x,-y,z
x,1/2+y,1/2+z
-x,1/2-y,1/2+z
x,1/2-y,1/2-z
-x,1/2+y,1/2-z
-x,1/2-y,1/2-z
x,1/2+y,1/2-z
-x,1/2+y,1/2+z
x,1/2-y,1/2+z
1/2+x,y,1/2+z
1/2-x,-y,1/2+z
1/2+x,-y,1/2-z
1/2-x,y,1/2-z
1/2-x,-y,1/2-z
1/2+x,y,1/2-z
1/2-x,y,1/2+z
1/2+x,-y,1/2+z
1/2+x,1/2+y,z
1/2-x,1/2-y,z
1/2+x,1/2-y,-z
1/2-x,1/2+y,-z
1/2-x,1/2-y,-z
1/2+x,1/2+y,-z
1/2-x,1/2+y,z
1/2+x,1/2-y,z
loop_
_atom_site_type_symbol
_atom_site_label
_atom_site_fract_x
_atom_site_fract_y
_atom_site_fract_z
Si Si1 0.618359 0.772880 0.946662
Si Si2 0.253905 0.436007 0.914390
Si Si3 0.613246 0.134452 0.870574
Si Si4 0.755601 0.315360 0.197629
Si Si5 0.610599 0.565313 0.500000
Si Si6 0.117663 0.162950 0.110215
O O1 0.500000 0.771734 0.948786
O O2 0.641395 0.822695 0.911723
O O3 0.646551 0.715304 0.922103
O O4 0.652692 0.779530 0.000000
O O5 0.280909 0.500000 0.915105
O O6 0.182753 0.418614 0.872250
O O7 0.343629 0.393526 0.912832
O O8 0.179375 0.423652 0.956488
O O9 0.500000 0.120493 0.875218
O O10 0.641047 0.166643 0.824344
O O11 0.750000 0.336924 0.250000
O O12 0.750000 0.250000 0.199302
O O13 0.672461 0.332499 0.159967
O O14 0.596516 0.500000 0.500000
O O15 0.500000 0.590582 0.500000
O O16 0.000000 0.163396 0.115218
#
# Coordination Sequence:
#
# PCOD9512472 Si02
#       6
#    32  32  32  32  16  32
#     4   9  18  32  52  80 112 147 184 220 269 329
#     4  10  22  36  53  80 111 149 194 235 275 323
#     4  10  20  35  56  82 112 144 184 229 278 337
#     4  10  20  35  55  83 116 144 176 226 287 344
#     4   9  18  34  53  76 109 147 191 237 278 319
#     4  10  21  38  58  81 114 152 191 232 277 336
#
# _framework density 18.375194
#
# number of rings (size 3 to 8) (size 9 to 14) (size 15 to 20)
#    0.000    2.273    1.818    0.545    2.545    2.182 
#    0.000    5.455    0.000   10.364    0.000   10.182 
#    0.000    0.000    0.000    0.000    0.000    0.000 
#
# Total GULP energy -245157.049279 kJ/mol
# GULP energy per Si atom -5571.751120 kJ/mol
# Density = 1.833337 g / cm^3
# Si number density = 18.375194 Si / 1000 Ang^3
#
#
#
# Elastic Constant Matrix: (Units=GPa)
#
#
# Indices 1 2 3 4 5 6 
#
# 1 72.2664 12.6998 13.0657 0.0000 0.0000 0.0000
# 2 12.6998 101.7061 30.0835 0.0000 0.0000 0.0000
# 3 13.0657 30.0835 114.3454 0.0000 0.0000 0.0000
# 4 0.0000 0.0000 0.0000 10.6842 0.0000 0.0000
# 5 0.0000 0.0000 0.0000 0.0000 20.5693 0.0000
# 6 0.0000 0.0000 0.0000 0.0000 0.0000 24.3975
#
#
#
# Elastic Compliance Matrix: (Units=1/GPa)
#
#
# Indices 1 2 3 4 5 6 
#
# 1 0.014315 -0.001414 -0.001264 0.000000 0.000000 0.000000
# 2 -0.001414 0.010802 -0.002680 0.000000 0.000000 0.000000
# 3 -0.001264 -0.002680 0.009595 0.000000 0.000000 0.000000
# 4 0.000000 0.000000 0.000000 0.093596 0.000000 0.000000
# 5 0.000000 0.000000 0.000000 0.000000 0.048616 0.000000
# 6 0.000000 0.000000 0.000000 0.000000 0.000000 0.040988
#
#
# Mechanical properties :
#
#
# Convention : Reuss Voigt Hill
#
# Bulk Modulus (GPa) = 41.67388 44.44620 43.06004
# Shear Modulus (GPa) = 21.13044 26.62813 23.87928
#
# Velocity S-wave (km/s) = 3.39476 3.81088 3.60882
# Velocity P-wave (km/s) = 6.17208 6.60336 6.39136
#
# Compressibility (1/GPa) = 0.02399585
#
# Stress axis : x y z
#
# Youngs Moduli (GPa) = 69.85876 92.57923 104.22095
#
# Poissons Ratio (x) = 0.13087 0.13171
# Poissons Ratio (y) = 0.09875 0.27934
# Poissons Ratio (z) = 0.08828 0.24814
#
# Static dielectric constant tensor:
#      x y z
#    x 1.663200 0.000000 0.000000 
#    y 0.000000 1.650930 0.000000 
#    z 0.000000 0.000000 0.460450 
# 
# From -- ./inp_files/38351.got.cif
#   From: 2010.05.17/outbox.cif.g08.bks.cpg/sg69_20_cif.got.tgz:38351.got - 2010.06.03 19:29:58.
