data_PCOD9512889
_publ_section_title
;
Structure prediction by ZEFSAII (Michael W. Deem and Ramdas Pophale) SiO2 
 PCOD9512889
Probable space group: F M M M
;
_chemical_formula_sum "Si O2"
_cell_formula_units_Z 152
_cell_length_a 30.718595
_cell_length_b 13.900934
_cell_length_c 19.363267
_cell_angle_alpha 90.000000
_cell_angle_beta 90.000000
_cell_angle_gamma 90.000000
_cell_volume 8268.447315
_symmetry_space_group_name_H-M "F M M M"
_symmetry_group_IT_number 69
_symmetry_cell_setting 'orthorhombic'
loop_
_space_group_symop_operation_xyz
x,y,z
-x,-y,z
x,-y,-z
-x,y,-z
-x,-y,-z
x,y,-z
-x,y,z
x,-y,z
x,1/2+y,1/2+z
-x,1/2-y,1/2+z
x,1/2-y,1/2-z
-x,1/2+y,1/2-z
-x,1/2-y,1/2-z
x,1/2+y,1/2-z
-x,1/2+y,1/2+z
x,1/2-y,1/2+z
1/2+x,y,1/2+z
1/2-x,-y,1/2+z
1/2+x,-y,1/2-z
1/2-x,y,1/2-z
1/2-x,-y,1/2-z
1/2+x,y,1/2-z
1/2-x,y,1/2+z
1/2+x,-y,1/2+z
1/2+x,1/2+y,z
1/2-x,1/2-y,z
1/2+x,1/2-y,-z
1/2-x,1/2+y,-z
1/2-x,1/2-y,-z
1/2+x,1/2+y,-z
1/2-x,1/2+y,z
1/2+x,1/2-y,z
loop_
_atom_site_type_symbol
_atom_site_label
_atom_site_fract_x
_atom_site_fract_y
_atom_site_fract_z
Si Si1 0.750000 0.250000 0.750000
Si Si2 0.883520 0.308141 0.388873
Si Si3 0.823381 0.889983 0.781792
Si Si4 0.449000 0.884971 0.500000
Si Si5 0.153074 0.390471 0.121221
Si Si6 0.817018 0.115557 0.000000
Si Si7 0.719074 0.115646 0.000000
O O1 0.782395 0.180798 0.793642
O O2 0.868234 0.351367 0.315540
O O3 0.925043 0.345223 0.431237
O O4 0.882568 0.192900 0.385671
O O5 0.843201 0.345619 0.434892
O O6 0.829359 0.889725 0.699158
O O7 0.814774 0.000000 0.804481
O O8 0.500000 0.862407 0.500000
O O9 0.443253 0.000000 0.500000
O O10 0.138893 0.500000 0.105220
O O11 0.191034 0.362624 0.067759
O O12 0.768002 0.151680 0.000000
O O13 0.818863 0.000000 0.000000
O O14 0.723504 0.000000 0.000000
#
# Coordination Sequence:
#
# PCOD9512889 Si02
#       7
#     8  32  32  16  32  16  16
#     4  12  22  36  48  80 118 164 206 242 276 318
#     4  11  20  37  57  81 108 143 183 231 292 343
#     4  11  23  36  53  78 115 158 204 244 279 326
#     4  10  22  41  67  94 114 135 173 229 296 362
#     4  10  21  36  52  76 110 153 196 233 270 325
#     4  10  21  31  47  73 104 142 186 234 282 327
#     4   9  19  32  45  66 103 146 189 230 266 304
#
# _framework density 18.383137999999999
#
# number of rings (size 3 to 8) (size 9 to 14) (size 15 to 20)
#    0.000    1.579    2.105    4.105    2.947    1.684 
#    0.000    0.000    0.000    3.789    0.000    2.947 
#    0.000    0.000    0.000    0.000    0.000    0.000 
#
# Total GULP energy -212072.155489 kJ/mol
# GULP energy per Si atom -5580.846197 kJ/mol
# Density = 1.834130 g / cm^3
# Si number density = 18.383138 Si / 1000 Ang^3
#
#
#
# Elastic Constant Matrix: (Units=GPa)
#
#
# Indices 1 2 3 4 5 6 
#
# 1 106.1684 56.9963 35.7409 0.0000 0.0000 0.0000
# 2 56.9963 151.9951 12.5602 0.0000 0.0000 0.0000
# 3 35.7409 12.5602 92.2115 0.0000 0.0000 0.0000
# 4 0.0000 0.0000 0.0000 51.5619 0.0000 0.0000
# 5 0.0000 0.0000 0.0000 0.0000 9.8935 0.0000
# 6 0.0000 0.0000 0.0000 0.0000 0.0000 23.0430
#
#
#
# Elastic Compliance Matrix: (Units=1/GPa)
#
#
# Indices 1 2 3 4 5 6 
#
# 1 0.013471 -0.004673 -0.004585 0.000000 0.000000 0.000000
# 2 -0.004673 0.008275 0.000684 0.000000 0.000000 0.000000
# 3 -0.004585 0.000684 0.012529 0.000000 0.000000 0.000000
# 4 0.000000 0.000000 0.000000 0.019394 0.000000 0.000000
# 5 0.000000 0.000000 0.000000 0.000000 0.101076 0.000000
# 6 0.000000 0.000000 0.000000 0.000000 0.000000 0.043397
#
#
# Mechanical properties :
#
#
# Convention : Reuss Voigt Hill
#
# Bulk Modulus (GPa) = 58.38610 62.33000 60.35805
# Shear Modulus (GPa) = 22.62469 33.23820 27.93145
#
# Velocity S-wave (km/s) = 3.51198 4.25677 3.90218
# Velocity P-wave (km/s) = 6.94802 7.62494 7.29434
#
# Compressibility (1/GPa) = 0.01712737
#
# Stress axis : x y z
#
# Youngs Moduli (GPa) = 74.23400 120.84889 79.81776
#
# Poissons Ratio (x) = 0.56467 0.36595
# Poissons Ratio (y) = 0.34686 -0.05459
# Poissons Ratio (z) = 0.34035 -0.08266
#
# Static dielectric constant tensor:
#      x y z
#    x 1.594780 0.000000 0.000000 
#    y 0.000000 1.701510 0.000000 
#    z 0.000000 0.000000 1.909300 
# 
# From -- ./inp_files/33380.got.cif
#   From: 2010.05.17/outbox.cif.g08.bks.cpg/sg69_17_cif.got.tgz:33380.got - 2010.06.03 19:29:58.
