data_PCOD9512084
_publ_section_title
;
Structure prediction by ZEFSAII (Michael W. Deem and Ramdas Pophale) SiO2 
 PCOD9512084
Probable space group: F M M M
;
_chemical_formula_sum "Si O2"
_cell_formula_units_Z 160
_cell_length_a 24.509695
_cell_length_b 21.543054
_cell_length_c 16.732201
_cell_angle_alpha 90.000000
_cell_angle_beta 90.000000
_cell_angle_gamma 90.000000
_cell_volume 8834.831073
_symmetry_space_group_name_H-M "F M M M"
_symmetry_group_IT_number 69
_symmetry_cell_setting 'orthorhombic'
loop_
_space_group_symop_operation_xyz
x,y,z
-x,-y,z
x,-y,-z
-x,y,-z
-x,-y,-z
x,y,-z
-x,y,z
x,-y,z
x,1/2+y,1/2+z
-x,1/2-y,1/2+z
x,1/2-y,1/2-z
-x,1/2+y,1/2-z
-x,1/2-y,1/2-z
x,1/2+y,1/2-z
-x,1/2+y,1/2+z
x,1/2-y,1/2+z
1/2+x,y,1/2+z
1/2-x,-y,1/2+z
1/2+x,-y,1/2-z
1/2-x,y,1/2-z
1/2-x,-y,1/2-z
1/2+x,y,1/2-z
1/2-x,y,1/2+z
1/2+x,-y,1/2+z
1/2+x,1/2+y,z
1/2-x,1/2-y,z
1/2+x,1/2-y,-z
1/2-x,1/2+y,-z
1/2-x,1/2-y,-z
1/2+x,1/2+y,-z
1/2-x,1/2+y,z
1/2+x,1/2-y,z
loop_
_atom_site_type_symbol
_atom_site_label
_atom_site_fract_x
_atom_site_fract_y
_atom_site_fract_z
Si Si1 0.194375 0.290693 0.500000
Si Si2 0.732785 0.930106 0.500000
Si Si3 0.103447 0.219749 0.129392
Si Si4 0.603848 0.151386 0.203194
Si Si5 0.790338 0.928359 0.674762
Si Si6 0.000000 0.426866 0.752961
Si Si7 0.500000 0.360929 0.085084
O O1 0.250000 0.250000 0.500000
O O2 0.200780 0.365362 0.500000
O O3 0.157254 0.276017 0.423653
O O4 0.764405 0.926841 0.585533
O O5 0.706730 0.000000 0.500000
O O6 0.115302 0.181832 0.210277
O O7 0.086989 0.289916 0.149907
O O8 0.053251 0.182700 0.090971
O O9 0.658152 0.116868 0.175577
O O10 0.553909 0.104117 0.210325
O O11 0.750000 0.912856 0.750000
O O12 0.807334 0.000000 0.689198
O O13 0.000000 0.500000 0.762394
O O14 0.000000 0.406764 0.659914
O O15 0.500000 0.393926 0.000000
#
# Coordination Sequence:
#
# PCOD9512084 Si02
#       7
#    16  16  32  32  32  16  16
#     4  12  22  35  55  84 115 144 192 246 292 344
#     4  10  22  38  55  81 117 156 196 242 300 360
#     4  10  21  35  57  81 109 149 186 236 292 342
#     4  10  20  36  56  82 111 144 191 236 285 346
#     4  10  20  36  58  80 111 156 196 235 290 355
#     4  10  21  36  59  86 113 146 187 239 290 347
#     4  10  19  38  57  77 113 144 186 231 285 360
#
# _framework density 18.110137000000002
#
# number of rings (size 3 to 8) (size 9 to 14) (size 15 to 20)
#    0.000    1.800    1.000    3.600    0.000    2.600 
#    0.000    6.000    0.000    0.000    0.000    3.500 
#    0.000    0.000    0.000    0.000    0.000    0.000 
#
# Total GULP energy -222968.793687 kJ/mol
# GULP energy per Si atom -5574.219842 kJ/mol
# Density = 1.806892 g / cm^3
# Si number density = 18.110137 Si / 1000 Ang^3
#
#
#
# Elastic Constant Matrix: (Units=GPa)
#
#
# Indices 1 2 3 4 5 6 
#
# 1 63.7851 35.0611 23.2445 0.0000 0.0000 0.0000
# 2 35.0611 121.5991 33.7186 0.0000 0.0000 0.0000
# 3 23.2445 33.7186 72.2283 0.0000 0.0000 0.0000
# 4 0.0000 0.0000 0.0000 -1.6393 0.0000 0.0000
# 5 0.0000 0.0000 0.0000 0.0000 17.3872 0.0000
# 6 0.0000 0.0000 0.0000 0.0000 0.0000 30.9529
#
#
#
# Elastic Compliance Matrix: (Units=1/GPa)
#
#
# Indices 1 2 3 4 5 6 
#
# 1 0.019698 -0.004505 -0.004236 0.000000 0.000000 0.000000
# 2 -0.004505 0.010477 -0.003441 0.000000 0.000000 0.000000
# 3 -0.004236 -0.003441 0.016815 0.000000 0.000000 0.000000
# 4 0.000000 0.000000 0.000000 -0.610006 0.000000 0.000000
# 5 0.000000 0.000000 0.000000 0.000000 0.057514 0.000000
# 6 0.000000 0.000000 0.000000 0.000000 0.000000 0.032307
#
#
# Mechanical properties :
#
#
# Convention : Reuss Voigt Hill
#
# Bulk Modulus (GPa) = 44.19906 49.07344 46.63625
# Shear Modulus (GPa) = -11.33043 20.37935 4.52446
#
# Velocity S-wave (km/s) = -2.50399 3.35819 1.58232
# Velocity P-wave (km/s) = 4.01232 6.49559 5.39867
#
# Compressibility (1/GPa) = 0.02262491
#
# Stress axis : x y z
#
# Youngs Moduli (GPa) = 50.76771 95.44838 59.47177
#
# Poissons Ratio (x) = 0.42998 0.25193
# Poissons Ratio (y) = 0.22870 0.20465
# Poissons Ratio (z) = 0.21506 0.32846
#
# Static dielectric constant tensor:
#      x y z
#    x 1.592360 0.000000 0.000000 
#    y 0.000000 1.611290 0.000000 
#    z 0.000000 0.000000 1.647990 
# 
# From -- ./inp_files/26715.got.cif
#   From: 2010.05.17/outbox.cif.g08.bks.cpg/sg69_14_cif.got.tgz:26715.got - 2010.06.03 19:29:58.
