data_PCOD9512208
_publ_section_title
;
Structure prediction by ZEFSAII (Michael W. Deem and Ramdas Pophale) SiO2 
 PCOD9512208
Probable space group: F M M M
;
_chemical_formula_sum "Si O2"
_cell_formula_units_Z 160
_cell_length_a 29.814075
_cell_length_b 16.905783
_cell_length_c 18.190691
_cell_angle_alpha 90.000000
_cell_angle_beta 90.000000
_cell_angle_gamma 90.000000
_cell_volume 9168.659120
_symmetry_space_group_name_H-M "F M M M"
_symmetry_group_IT_number 69
_symmetry_cell_setting 'orthorhombic'
loop_
_space_group_symop_operation_xyz
x,y,z
-x,-y,z
x,-y,-z
-x,y,-z
-x,-y,-z
x,y,-z
-x,y,z
x,-y,z
x,1/2+y,1/2+z
-x,1/2-y,1/2+z
x,1/2-y,1/2-z
-x,1/2+y,1/2-z
-x,1/2-y,1/2-z
x,1/2+y,1/2-z
-x,1/2+y,1/2+z
x,1/2-y,1/2+z
1/2+x,y,1/2+z
1/2-x,-y,1/2+z
1/2+x,-y,1/2-z
1/2-x,y,1/2-z
1/2-x,-y,1/2-z
1/2+x,y,1/2-z
1/2-x,y,1/2+z
1/2+x,-y,1/2+z
1/2+x,1/2+y,z
1/2-x,1/2-y,z
1/2+x,1/2-y,-z
1/2-x,1/2+y,-z
1/2-x,1/2-y,-z
1/2+x,1/2+y,-z
1/2-x,1/2+y,z
1/2+x,1/2-y,z
loop_
_atom_site_type_symbol
_atom_site_label
_atom_site_fract_x
_atom_site_fract_y
_atom_site_fract_z
Si Si1 0.698315 0.092344 0.276265
Si Si2 0.126575 0.500000 0.918225
Si Si3 0.795513 0.200461 0.085114
Si Si4 0.948943 0.000000 0.707085
Si Si5 0.949108 0.328774 0.797544
Si Si6 0.854361 0.660077 0.139948
O O1 0.750000 0.096332 0.250000
O O2 0.698031 0.129928 0.357172
O O3 0.667730 0.143506 0.220144
O O4 0.684055 0.000000 0.274190
O O5 0.087346 0.500000 0.857682
O O6 0.154652 0.579275 0.904284
O O7 0.108123 0.500000 0.000000
O O8 0.750000 0.250000 0.100709
O O9 0.833743 0.264636 0.101176
O O10 0.794819 0.175631 0.000000
O O11 0.944108 0.086122 0.744743
O O12 0.000000 0.000000 0.678418
O O13 0.944344 0.250000 0.750000
O O14 0.907723 0.329072 0.853053
O O15 0.000000 0.327594 0.827920
#
# Coordination Sequence:
#
# PCOD9512208 Si02
#       6
#    32  16  32  16  32  32
#     4  11  22  37  56  79 106 143 184 225 271 322
#     4  10  20  33  51  77 109 140 178 217 265 327
#     4  11  23  37  55  79 108 143 183 225 269 319
#     4   8  16  29  46  71 104 138 176 217 266 328
#     4   9  17  30  50  76 106 140 177 221 272 320
#     4  11  20  36  55  80 109 143 180 223 271 321
#
# _framework density 17.450752000000001
#
# number of rings (size 3 to 8) (size 9 to 14) (size 15 to 20)
#    0.000    1.800    3.000    2.400    0.000    0.600 
#    0.000    0.000    0.000    1.800    0.000    0.000 
#    0.000    0.000    0.000    8.400    0.000    0.400 
#
# Total GULP energy -222762.263318 kJ/mol
# GULP energy per Si atom -5569.056583 kJ/mol
# Density = 1.741103 g / cm^3
# Si number density = 17.450752 Si / 1000 Ang^3
#
#
#
# Elastic Constant Matrix: (Units=GPa)
#
#
# Indices 1 2 3 4 5 6 
#
# 1 54.6366 7.3597 -5.6370 0.0000 0.0000 0.0000
# 2 7.3597 92.6751 23.6120 0.0000 0.0000 0.0000
# 3 -5.6370 23.6120 63.0253 0.0000 0.0000 0.0000
# 4 0.0000 0.0000 0.0000 21.6458 0.0000 0.0000
# 5 0.0000 0.0000 0.0000 0.0000 -0.7591 0.0000
# 6 0.0000 0.0000 0.0000 0.0000 0.0000 20.3153
#
#
#
# Elastic Compliance Matrix: (Units=1/GPa)
#
#
# Indices 1 2 3 4 5 6 
#
# 1 0.018846 -0.002129 0.002483 0.000000 0.000000 0.000000
# 2 -0.002129 0.012170 -0.004750 0.000000 0.000000 0.000000
# 3 0.002483 -0.004750 0.017868 0.000000 0.000000 0.000000
# 4 0.000000 0.000000 0.000000 0.046198 0.000000 0.000000
# 5 0.000000 0.000000 0.000000 0.000000 -1.317344 0.000000
# 6 0.000000 0.000000 0.000000 0.000000 0.000000 0.049224
#
#
# Mechanical properties :
#
#
# Convention : Reuss Voigt Hill
#
# Bulk Modulus (GPa) = 24.94252 29.00068 26.97160
# Shear Modulus (GPa) = -4.34449 20.57388 8.11469
#
# Velocity S-wave (km/s) = -1.57955 3.43734 2.15874
# Velocity P-wave (km/s) = 3.31624 5.69283 4.65864
#
# Compressibility (1/GPa) = 0.04009219
#
# Stress axis : x y z
#
# Youngs Moduli (GPa) = 53.06225 82.17178 55.96533
#
# Poissons Ratio (x) = 0.17497 -0.13898
# Poissons Ratio (y) = 0.11299 0.26582
# Poissons Ratio (z) = -0.13177 0.39029
#
# Static dielectric constant tensor:
#      x y z
#    x 1.615870 0.000000 0.000000 
#    y 0.000000 1.651050 0.000000 
#    z 0.000000 0.000000 1.574770 
# 
# From -- ./inp_files/15678.got.cif
#   From: 2010.05.17/outbox.cif.g08.bks.cpg/sg69_8_cif.got.tgz:15678.got - 2010.06.03 19:29:58.
