data_PCOD9512177
_publ_section_title
;
Structure prediction by ZEFSAII (Michael W. Deem and Ramdas Pophale) SiO2 
 PCOD9512177
Probable space group: F M M M
;
_chemical_formula_sum "Si O2"
_cell_formula_units_Z 144
_cell_length_a 34.182827
_cell_length_b 8.947464
_cell_length_c 25.819881
_cell_angle_alpha 90.000000
_cell_angle_beta 90.000000
_cell_angle_gamma 90.000000
_cell_volume 7897.000637
_symmetry_space_group_name_H-M "F M M M"
_symmetry_group_IT_number 69
_symmetry_cell_setting 'orthorhombic'
loop_
_space_group_symop_operation_xyz
x,y,z
-x,-y,z
x,-y,-z
-x,y,-z
-x,-y,-z
x,y,-z
-x,y,z
x,-y,z
x,1/2+y,1/2+z
-x,1/2-y,1/2+z
x,1/2-y,1/2-z
-x,1/2+y,1/2-z
-x,1/2-y,1/2-z
x,1/2+y,1/2-z
-x,1/2+y,1/2+z
x,1/2-y,1/2+z
1/2+x,y,1/2+z
1/2-x,-y,1/2+z
1/2+x,-y,1/2-z
1/2-x,y,1/2-z
1/2-x,-y,1/2-z
1/2+x,y,1/2-z
1/2-x,y,1/2+z
1/2+x,-y,1/2+z
1/2+x,1/2+y,z
1/2-x,1/2-y,z
1/2+x,1/2-y,-z
1/2-x,1/2+y,-z
1/2-x,1/2-y,-z
1/2+x,1/2+y,-z
1/2-x,1/2+y,z
1/2+x,1/2-y,z
loop_
_atom_site_type_symbol
_atom_site_label
_atom_site_fract_x
_atom_site_fract_y
_atom_site_fract_z
Si Si1 0.045635 0.178624 0.500000
Si Si2 0.818436 0.675471 0.056407
Si Si3 0.626946 0.821039 0.302359
Si Si4 0.709899 0.823152 0.169509
Si Si5 0.600338 0.177706 0.415506
O O1 0.067519 0.242745 0.550489
O O2 0.000000 0.219407 0.500000
O O3 0.049210 0.000000 0.500000
O O4 0.829902 0.500000 0.057797
O O5 0.792663 0.699374 0.107172
O O6 0.857552 0.772060 0.062467
O O7 0.800399 0.705233 0.000000
O O8 0.610416 0.750000 0.250000
O O9 0.670632 0.754358 0.309651
O O10 0.602809 0.783496 0.354446
O O11 0.629414 0.000000 0.298368
O O12 0.750000 0.750000 0.188385
O O13 0.708999 0.000000 0.180545
O O14 0.596102 0.000000 0.420345
#
# Coordination Sequence:
#
# PCOD9512177 Si02
#       5
#    16  32  32  32  32
#     4  11  23  37  57  87 120 151 178 207 253 313
#     4   9  17  30  49  71  99 139 181 219 266 324
#     4  10  21  37  57  81 106 138 183 228 273 323
#     4  10  20  33  48  70 102 139 181 230 280 326
#     4  10  20  34  55  83 112 141 177 222 265 311
#
# _framework density 18.234770999999999
#
# number of rings (size 3 to 8) (size 9 to 14) (size 15 to 20)
#    0.000    2.111    1.111    2.333    0.000    5.333 
#    0.000    2.222    0.000    0.667    0.000    0.000 
#    0.000    0.000    0.000    0.000    0.000    0.000 
#
# Total GULP energy -200930.608271 kJ/mol
# GULP energy per Si atom -5581.405785 kJ/mol
# Density = 1.819327 g / cm^3
# Si number density = 18.234771 Si / 1000 Ang^3
#
#
#
# Elastic Constant Matrix: (Units=GPa)
#
#
# Indices 1 2 3 4 5 6 
#
# 1 90.0286 55.3290 38.5206 0.0000 0.0000 0.0000
# 2 55.3290 63.6308 58.6165 0.0000 0.0005 -0.0001
# 3 38.5206 58.6165 147.7936 0.0000 0.0000 0.0000
# 4 0.0000 0.0000 0.0000 28.5664 0.0000 0.0000
# 5 0.0000 0.0005 0.0000 0.0000 -184.7445 -0.0002
# 6 0.0000 -0.0001 0.0000 0.0000 -0.0002 20.5939
#
#
#
# Elastic Compliance Matrix: (Units=1/GPa)
#
#
# Indices 1 2 3 4 5 6 
#
# 1 0.024835 -0.024631 0.003296 0.000000 0.000000 0.000000
# 2 -0.024631 0.049192 -0.013090 0.000000 0.000000 0.000000
# 3 0.003296 -0.013090 0.011099 0.000000 0.000000 0.000000
# 4 0.000000 0.000000 0.000000 0.035006 0.000000 0.000000
# 5 0.000000 0.000000 0.000000 0.000000 -0.005413 0.000000
# 6 0.000000 0.000000 0.000000 0.000000 0.000000 0.048558
#
#
# Mechanical properties :
#
#
# Convention : Reuss Voigt Hill
#
# Bulk Modulus (GPa) = 61.44356 67.37612 64.40984
# Shear Modulus (GPa) = 21.04802 -17.18439 1.93181
#
# Velocity S-wave (km/s) = 3.40115 -3.07318 1.03039
# Velocity P-wave (km/s) = 7.01376 4.94337 6.06752
#
# Compressibility (1/GPa) = 0.01627510
#
# Stress axis : x y z
#
# Youngs Moduli (GPa) = 40.26608 20.32862 90.09951
#
# Poissons Ratio (x) = 0.50071 -0.29697
# Poissons Ratio (y) = 0.99179 1.17942
# Poissons Ratio (z) = -0.13272 0.26611
#
# Static dielectric constant tensor:
#      x y z
#    x 1.579960 0.000000 0.000000 
#    y 0.000000 1.608250 0.000000 
#    z 0.000000 0.000000 1.687560 
# 
# From -- ./inp_files/47389.got.cif
#   From: 2010.05.17/outbox.cif.g08.bks.cpg/sg69_24_cif.got.tgz:47389.got - 2010.06.03 19:29:58.
