data_PCOD9512323
_publ_section_title
;
Structure prediction by ZEFSAII (Michael W. Deem and Ramdas Pophale) SiO2 
 PCOD9512323
Probable space group: F M M M
;
_chemical_formula_sum "Si O2"
_cell_formula_units_Z 160
_cell_length_a 15.182913
_cell_length_b 15.990161
_cell_length_c 30.027098
_cell_angle_alpha 90.000000
_cell_angle_beta 90.000000
_cell_angle_gamma 90.000000
_cell_volume 7289.895477
_symmetry_space_group_name_H-M "F M M M"
_symmetry_group_IT_number 69
_symmetry_cell_setting 'orthorhombic'
loop_
_space_group_symop_operation_xyz
x,y,z
-x,-y,z
x,-y,-z
-x,y,-z
-x,-y,-z
x,y,-z
-x,y,z
x,-y,z
x,1/2+y,1/2+z
-x,1/2-y,1/2+z
x,1/2-y,1/2-z
-x,1/2+y,1/2-z
-x,1/2-y,1/2-z
x,1/2+y,1/2-z
-x,1/2+y,1/2+z
x,1/2-y,1/2+z
1/2+x,y,1/2+z
1/2-x,-y,1/2+z
1/2+x,-y,1/2-z
1/2-x,y,1/2-z
1/2-x,-y,1/2-z
1/2+x,y,1/2-z
1/2-x,y,1/2+z
1/2+x,-y,1/2+z
1/2+x,1/2+y,z
1/2-x,1/2-y,z
1/2+x,1/2-y,-z
1/2-x,1/2+y,-z
1/2-x,1/2-y,-z
1/2+x,1/2+y,-z
1/2-x,1/2+y,z
1/2+x,1/2-y,z
loop_
_atom_site_type_symbol
_atom_site_label
_atom_site_fract_x
_atom_site_fract_y
_atom_site_fract_z
Si Si1 0.893021 0.404438 0.634809
Si Si2 0.900753 0.874674 0.548473
Si Si3 0.392448 0.245422 0.698931
Si Si4 0.107721 0.090761 0.645462
Si Si5 0.660211 0.196726 0.549937
O O1 0.865904 0.500000 0.643116
O O2 0.866011 0.338545 0.672975
O O3 0.856680 0.368979 0.588317
O O4 0.000000 0.402725 0.632432
O O5 0.859300 0.893191 0.500000
O O6 0.859689 0.905508 0.594368
O O7 0.906520 0.774438 0.552867
O O8 0.000000 0.907483 0.547093
O O9 0.500000 0.246443 0.698946
O O10 0.363633 0.250000 0.750000
O O11 0.362753 0.327839 0.672137
O O12 0.000000 0.095055 0.643891
O O13 0.130754 0.000000 0.664851
O O14 0.656246 0.161361 0.500000
O O15 0.750000 0.250000 0.554993
#
# Coordination Sequence:
#
# PCOD9512323 Si02
#       5
#    32  32  32  32  32
#     4  10  20  35  58  87 116 148 190 237 285 339
#     4   9  16  28  48  72 100 133 170 216 268 321
#     4   9  17  30  49  76 110 142 176 227 286 334
#     4   9  16  26  43  69  99 130 166 208 259 318
#     4  10  20  34  53  77 108 148 188 225 272 331
#
# _framework density 21.948188999999999
#
# number of rings (size 3 to 8) (size 9 to 14) (size 15 to 20)
#    0.000    2.600    2.000    0.600    0.000    2.800 
#    0.000    8.000    0.000    4.200    0.000    1.400 
#    0.000    0.000    0.000    0.000    0.000    0.000 
#
# Total GULP energy -223223.960820 kJ/mol
# GULP energy per Si atom -5580.599021 kJ/mol
# Density = 2.189823 g / cm^3
# Si number density = 21.948189 Si / 1000 Ang^3
#
#
#
# Elastic Constant Matrix: (Units=GPa)
#
#
# Indices 1 2 3 4 5 6 
#
# 1 53.0101 14.7405 5.9478 0.0000 0.0000 0.0000
# 2 14.7405 211.8931 125.8790 0.0000 0.0000 0.0000
# 3 5.9478 125.8790 195.7589 0.0000 0.0000 0.0000
# 4 0.0000 0.0000 0.0000 -1.4005 0.0000 0.0000
# 5 0.0000 0.0000 0.0000 0.0000 -8.6372 0.0000
# 6 0.0000 0.0000 0.0000 0.0000 0.0000 4.6847
#
#
#
# Elastic Compliance Matrix: (Units=1/GPa)
#
#
# Indices 1 2 3 4 5 6 
#
# 1 0.019261 -0.001606 0.000447 0.000000 0.000000 0.000000
# 2 -0.001606 0.007770 -0.004948 0.000000 0.000000 0.000000
# 3 0.000447 -0.004948 0.008276 0.000000 0.000000 0.000000
# 4 0.000000 0.000000 0.000000 -0.714043 0.000000 0.000000
# 5 0.000000 0.000000 0.000000 0.000000 -0.115778 0.000000
# 6 0.000000 0.000000 0.000000 0.000000 0.000000 0.213463
#
#
# Mechanical properties :
#
#
# Convention : Reuss Voigt Hill
#
# Bulk Modulus (GPa) = 43.29935 83.75518 63.52727
# Shear Modulus (GPa) = -8.91043 19.86905 5.47931
#
# Velocity S-wave (km/s) = -2.01707 3.01204 1.58174
# Velocity P-wave (km/s) = 3.78762 7.09505 5.68708
#
# Compressibility (1/GPa) = 0.02309503
#
# Stress axis : x y z
#
# Youngs Moduli (GPa) = 51.91943 128.69354 120.82641
#
# Poissons Ratio (x) = 0.20662 -0.05404
# Poissons Ratio (y) = 0.08336 0.59783
# Poissons Ratio (z) = -0.02322 0.63675
#
# Static dielectric constant tensor:
#      x y z
#    x 1.910250 0.000000 0.000000 
#    y 0.000000 1.794160 0.000000 
#    z 0.000000 0.000000 1.789340 
# 
# From -- ./inp_files/46307.got.cif
#   From: 2010.05.17/outbox.cif.g08.bks.cpg/sg69_24_cif.got.tgz:46307.got - 2010.06.03 19:29:58.
