data_PCOD9512312
_publ_section_title
;
Structure prediction by ZEFSAII (Michael W. Deem and Ramdas Pophale) SiO2 
 PCOD9512312
Probable space group: F M M M
;
_chemical_formula_sum "Si O2"
_cell_formula_units_Z 160
_cell_length_a 25.566053
_cell_length_b 31.946202
_cell_length_c 10.493613
_cell_angle_alpha 90.000000
_cell_angle_beta 90.000000
_cell_angle_gamma 90.000000
_cell_volume 8570.535574
_symmetry_space_group_name_H-M "F M M M"
_symmetry_group_IT_number 69
_symmetry_cell_setting 'orthorhombic'
loop_
_space_group_symop_operation_xyz
x,y,z
-x,-y,z
x,-y,-z
-x,y,-z
-x,-y,-z
x,y,-z
-x,y,z
x,-y,z
x,1/2+y,1/2+z
-x,1/2-y,1/2+z
x,1/2-y,1/2-z
-x,1/2+y,1/2-z
-x,1/2-y,1/2-z
x,1/2+y,1/2-z
-x,1/2+y,1/2+z
x,1/2-y,1/2+z
1/2+x,y,1/2+z
1/2-x,-y,1/2+z
1/2+x,-y,1/2-z
1/2-x,y,1/2-z
1/2-x,-y,1/2-z
1/2+x,y,1/2-z
1/2-x,y,1/2+z
1/2+x,-y,1/2+z
1/2+x,1/2+y,z
1/2-x,1/2-y,z
1/2+x,1/2-y,-z
1/2-x,1/2+y,-z
1/2-x,1/2-y,-z
1/2+x,1/2+y,-z
1/2-x,1/2+y,z
1/2+x,1/2-y,z
loop_
_atom_site_type_symbol
_atom_site_label
_atom_site_fract_x
_atom_site_fract_y
_atom_site_fract_z
Si Si1 0.308024 0.074341 0.000000
Si Si2 0.171306 0.133788 0.740033
Si Si3 0.805784 0.724756 0.857903
Si Si4 0.304974 0.586702 0.000000
Si Si5 0.557524 0.897748 0.249558
Si Si6 0.582258 0.549127 0.000000
Si Si7 0.078723 0.452952 0.000000
O O1 0.314709 0.102059 0.126877
O O2 0.248240 0.060227 0.000000
O O3 0.358054 0.044971 0.000000
O O4 0.194926 0.177904 0.696251
O O5 0.192011 0.116225 0.874687
O O6 0.107823 0.132830 0.749600
O O7 0.836669 0.750000 0.750000
O O8 0.750000 0.750000 0.868895
O O9 0.827821 0.724044 0.000000
O O10 0.355308 0.557037 0.000000
O O11 0.500000 0.877690 0.249343
O O12 0.562194 0.927329 0.373854
O O13 0.562500 0.927016 0.124782
O O14 0.569834 0.500000 0.000000
O O15 0.058388 0.500000 0.000000
#
# Coordination Sequence:
#
# PCOD9512312 Si02
#       7
#    16  32  32  16  32  16  16
#     4  10  20  34  53  72 108 156 181 217 276 337
#     4  10  21  37  53  79 116 143 185 229 267 330
#     4  10  22  34  52  82 112 143 172 218 272 330
#     4  10  22  32  55  80 108 158 191 223 270 337
#     4  10  21  37  58  82 106 147 191 230 284 328
#     4  10  21  37  54  83 117 145 191 244 284 327
#     4  10  21  35  52  81 111 137 185 240 278 325
#
# _framework density 18.668612
#
# number of rings (size 3 to 8) (size 9 to 14) (size 15 to 20)
#    0.000    2.000    1.000    1.800    7.000    2.800 
#    0.000    0.000    0.000    7.800    0.000    0.000 
#    0.000    0.000    0.000    0.000    0.000    0.000 
#
# Total GULP energy -222922.561161 kJ/mol
# GULP energy per Si atom -5573.064029 kJ/mol
# Density = 1.862612 g / cm^3
# Si number density = 18.668612 Si / 1000 Ang^3
#
#
#
# Elastic Constant Matrix: (Units=GPa)
#
#
# Indices 1 2 3 4 5 6 
#
# 1 149.2189 11.7922 6.5891 0.0004 0.0005 0.0001
# 2 11.7922 72.9059 26.7324 0.0001 0.0001 0.0002
# 3 6.5891 26.7324 170.3548 0.0017 0.0016 0.0008
# 4 0.0004 0.0001 0.0017 -38.0655 -0.0017 -0.0002
# 5 0.0005 0.0001 0.0016 -0.0017 19.5919 -0.0002
# 6 0.0001 0.0002 0.0008 -0.0002 -0.0002 0.2206
#
#
#
# Elastic Compliance Matrix: (Units=1/GPa)
#
#
# Indices 1 2 3 4 5 6 
#
# 1 0.006790 -0.001063 -0.000096 0.000000 0.000000 -0.000003
# 2 -0.001063 0.014720 -0.002269 0.000000 0.000000 -0.000004
# 3 -0.000096 -0.002269 0.006230 0.000000 0.000000 -0.000021
# 4 0.000000 0.000000 0.000000 -0.026271 -0.000002 -0.000021
# 5 0.000000 0.000000 0.000000 -0.000002 0.051041 0.000056
# 6 -0.000003 -0.000004 -0.000021 -0.000021 0.000056 4.533528
#
#
# Mechanical properties :
#
#
# Convention : Reuss Voigt Hill
#
# Bulk Modulus (GPa) = 47.88256 53.63409 50.75832
# Shear Modulus (GPa) = 1.08699 19.50713 10.29706
#
# Velocity S-wave (km/s) = 0.76388 3.23602 2.35110
# Velocity P-wave (km/s) = 5.14611 6.53868 5.88374
#
# Compressibility (1/GPa) = 0.02088443
#
# Stress axis : x y z
#
# Youngs Moduli (GPa) = 147.27960 67.93403 160.51800
#
# Poissons Ratio (x) = 0.07222 0.01538
# Poissons Ratio (y) = 0.15657 0.36418
# Poissons Ratio (z) = 0.01411 0.15413
#
# Static dielectric constant tensor:
#      x y z
#    x 1.711620 0.000000 0.000000 
#    y 0.000000 1.627880 0.000000 
#    z 0.000000 0.000000 1.669460 
# 
# From -- ./inp_files/10603.got.cif
#   From: 2010.05.17/outbox.cif.g08.bks.cpg/sg69_6_cif.got.tgz:10603.got - 2010.06.03 19:29:58.
