data_PCOD9512094
_publ_section_title
;
Structure prediction by ZEFSAII (Michael W. Deem and Ramdas Pophale) SiO2 
 PCOD9512094
Probable space group: F M M M
;
_chemical_formula_sum "Si O2"
_cell_formula_units_Z 176
_cell_length_a 23.697119
_cell_length_b 29.520201
_cell_length_c 13.986439
_cell_angle_alpha 90.000000
_cell_angle_beta 90.000000
_cell_angle_gamma 90.000000
_cell_volume 9784.125512
_symmetry_space_group_name_H-M "F M M M"
_symmetry_group_IT_number 69
_symmetry_cell_setting 'orthorhombic'
loop_
_space_group_symop_operation_xyz
x,y,z
-x,-y,z
x,-y,-z
-x,y,-z
-x,-y,-z
x,y,-z
-x,y,z
x,-y,z
x,1/2+y,1/2+z
-x,1/2-y,1/2+z
x,1/2-y,1/2-z
-x,1/2+y,1/2-z
-x,1/2-y,1/2-z
x,1/2+y,1/2-z
-x,1/2+y,1/2+z
x,1/2-y,1/2+z
1/2+x,y,1/2+z
1/2-x,-y,1/2+z
1/2+x,-y,1/2-z
1/2-x,y,1/2-z
1/2-x,-y,1/2-z
1/2+x,y,1/2-z
1/2-x,y,1/2+z
1/2+x,-y,1/2+z
1/2+x,1/2+y,z
1/2-x,1/2-y,z
1/2+x,1/2-y,-z
1/2-x,1/2+y,-z
1/2-x,1/2-y,-z
1/2+x,1/2+y,-z
1/2-x,1/2+y,z
1/2+x,1/2-y,z
loop_
_atom_site_type_symbol
_atom_site_label
_atom_site_fract_x
_atom_site_fract_y
_atom_site_fract_z
Si Si1 0.619665 0.713763 0.334371
Si Si2 0.686921 0.947058 0.791907
Si Si3 0.202544 0.405598 0.000000
Si Si4 0.000000 0.253421 0.864289
Si Si5 0.500000 0.645977 0.891667
Si Si6 0.189271 0.349443 0.500000
Si Si7 0.620523 0.368659 0.807915
Si Si8 0.301741 0.801859 0.000000
O O1 0.622780 0.750000 0.250000
O O2 0.558962 0.721528 0.386040
O O3 0.624883 0.666196 0.280081
O O4 0.670765 0.719699 0.407128
O O5 0.750000 0.940647 0.750000
O O6 0.687135 0.931064 0.902522
O O7 0.646525 0.915465 0.728760
O O8 0.672635 0.000000 0.785765
O O9 0.269613 0.393613 0.000000
O O10 0.177018 0.354730 0.000000
O O11 0.000000 0.250000 0.750000
O O12 0.000000 0.201125 0.895850
O O13 0.444422 0.629947 0.837805
O O14 0.500000 0.629131 0.000000
O O15 0.153186 0.350779 0.402909
O O16 0.234478 0.308234 0.500000
#
# Coordination Sequence:
#
# PCOD9512094 Si02
#       8
#    32  32  16  16  16  16  32  16
#     4  11  22  37  62  84 123 162 210 261 311 367
#     4  11  22  38  67  97 125 163 203 254 314 375
#     4  10  19  40  62  93 125 162 206 252 306 383
#     4  10  20  38  56  88 109 153 218 266 293 367
#     4  12  24  38  67  88 117 164 214 262 319 362
#     4  10  22  37  62  85 128 161 211 255 309 388
#     4  12  21  41  62  90 126 164 205 262 315 375
#     4  10  22  37  58  89 121 167 196 259 318 361
#
# _framework density 17.988322
#
# number of rings (size 3 to 8) (size 9 to 14) (size 15 to 20)
#    0.545    0.545    8.182    0.273    1.273    0.727 
#    0.000    3.636    0.000    1.091    0.000    1.273 
#    0.000    0.000    0.000    0.000    0.000    0.000 
#
# Total GULP energy -245503.617189 kJ/mol
# GULP energy per Si atom -5579.627663 kJ/mol
# Density = 1.794738 g / cm^3
# Si number density = 17.988322 Si / 1000 Ang^3
#
#
#
# Elastic Constant Matrix: (Units=GPa)
#
#
# Indices 1 2 3 4 5 6 
#
# 1 133.9587 41.4283 57.8678 0.0000 0.0000 0.0000
# 2 41.4283 84.5230 24.8283 0.0000 0.0000 0.0000
# 3 57.8678 24.8283 120.0476 0.0000 0.0000 0.0000
# 4 0.0000 0.0000 0.0000 29.0472 0.0000 0.0000
# 5 0.0000 0.0000 0.0000 0.0000 -21.4907 0.0000
# 6 0.0000 0.0000 0.0000 0.0000 0.0000 24.7457
#
#
#
# Elastic Compliance Matrix: (Units=1/GPa)
#
#
# Indices 1 2 3 4 5 6 
#
# 1 0.010512 -0.003901 -0.004260 0.000000 0.000000 0.000000
# 2 -0.003901 0.014044 -0.001024 0.000000 0.000000 0.000000
# 3 -0.004260 -0.001024 0.010595 0.000000 0.000000 0.000000
# 4 0.000000 0.000000 0.000000 0.034427 0.000000 0.000000
# 5 0.000000 0.000000 0.000000 0.000000 -0.046532 0.000000
# 6 0.000000 0.000000 0.000000 0.000000 0.000000 0.040411
#
#
# Mechanical properties :
#
#
# Convention : Reuss Voigt Hill
#
# Bulk Modulus (GPa) = 59.59308 65.19755 62.39532
# Shear Modulus (GPa) = 57.19423 20.75410 38.97416
#
# Velocity S-wave (km/s) = 5.64484 3.40038 4.65976
# Velocity P-wave (km/s) = 8.69979 7.19304 7.98205
#
# Compressibility (1/GPa) = 0.01678047
#
# Stress axis : x y z
#
# Youngs Moduli (GPa) = 95.13180 71.20530 94.37970
#
# Poissons Ratio (x) = 0.27776 0.40209
# Poissons Ratio (y) = 0.37109 0.09667
# Poissons Ratio (z) = 0.40529 0.07293
#
# Static dielectric constant tensor:
#      x y z
#    x 1.632600 0.000000 0.000000 
#    y 0.000000 1.621160 0.000000 
#    z 0.000000 0.000000 1.609970 
# 
# From -- ./inp_files/18182.got.cif
#   From: 2010.05.17/outbox.cif.g08.bks.cpg/sg69_10_cif.got.tgz:18182.got - 2010.06.03 19:29:58.
