data_PCOD9512804
_publ_section_title
;
Structure prediction by ZEFSAII (Michael W. Deem and Ramdas Pophale) SiO2 
 PCOD9512804
Probable space group: F M M M
;
_chemical_formula_sum "Si O2"
_cell_formula_units_Z 88
_cell_length_a 7.408759
_cell_length_b 15.199381
_cell_length_c 34.863167
_cell_angle_alpha 90.000000
_cell_angle_beta 90.000000
_cell_angle_gamma 90.000000
_cell_volume 3925.890711
_symmetry_space_group_name_H-M "F M M M"
_symmetry_group_IT_number 69
_symmetry_cell_setting 'orthorhombic'
loop_
_space_group_symop_operation_xyz
x,y,z
-x,-y,z
x,-y,-z
-x,y,-z
-x,-y,-z
x,y,-z
-x,y,z
x,-y,z
x,1/2+y,1/2+z
-x,1/2-y,1/2+z
x,1/2-y,1/2-z
-x,1/2+y,1/2-z
-x,1/2-y,1/2-z
x,1/2+y,1/2-z
-x,1/2+y,1/2+z
x,1/2-y,1/2+z
1/2+x,y,1/2+z
1/2-x,-y,1/2+z
1/2+x,-y,1/2-z
1/2-x,y,1/2-z
1/2-x,-y,1/2-z
1/2+x,y,1/2-z
1/2-x,y,1/2+z
1/2+x,-y,1/2+z
1/2+x,1/2+y,z
1/2-x,1/2-y,z
1/2+x,1/2-y,-z
1/2-x,1/2+y,-z
1/2-x,1/2-y,-z
1/2+x,1/2+y,-z
1/2-x,1/2+y,z
1/2+x,1/2-y,z
loop_
_atom_site_type_symbol
_atom_site_label
_atom_site_fract_x
_atom_site_fract_y
_atom_site_fract_z
Si Si1 0.283733 0.000000 0.295037
Si Si2 0.285767 0.604662 0.061755
Si Si3 0.000000 0.166287 0.500000
Si Si4 0.285376 0.648366 0.851614
O O1 0.250000 0.000000 0.250000
O O2 0.214719 0.084862 0.318341
O O3 0.500000 0.000000 0.298332
O O4 0.500000 0.626328 0.057170
O O5 0.266415 0.500000 0.053734
O O6 0.226647 0.622403 0.105544
O O7 0.158212 0.656455 0.033200
O O8 0.500000 0.635750 0.852926
O O9 0.250000 0.750000 0.844060
#
# Coordination Sequence:
#
# PCOD9512804 Si02
#       4
#    16  32   8  32
#     4  10  22  44  68  98 131 167 210 268 333 394
#     4  10  20  38  61  88 129 175 217 275 334 387
#     4  12  23  34  62 102 126 163 238 277 330 398
#     4  10  22  41  66  92 129 176 218 262 331 396
#
# _framework density 22.415296999999999
#
# number of rings (size 3 to 8) (size 9 to 14) (size 15 to 20)
#    0.000    1.818    1.818    2.182    2.545    3.636 
#    0.000    4.545    0.000    0.000    0.000    0.000 
#    0.000    0.000    0.000    0.000    0.000    0.000 
#
# Total GULP energy -122566.173053 kJ/mol
# GULP energy per Si atom -5571.189684 kJ/mol
# Density = 2.236428 g / cm^3
# Si number density = 22.415297 Si / 1000 Ang^3
#
#
#
# Elastic Constant Matrix: (Units=GPa)
#
#
# Indices 1 2 3 4 5 6 
#
# 1 107.9226 29.6752 57.1559 0.0000 0.0000 0.0000
# 2 29.6752 112.7492 68.0664 0.0000 0.0000 0.0000
# 3 57.1559 68.0664 222.9945 0.0000 0.0000 0.0000
# 4 0.0000 0.0000 0.0000 49.4577 0.0000 0.0000
# 5 0.0000 0.0000 0.0000 0.0000 26.3681 0.0000
# 6 0.0000 0.0000 0.0000 0.0000 0.0000 13.0933
#
#
#
# Elastic Compliance Matrix: (Units=1/GPa)
#
#
# Indices 1 2 3 4 5 6 
#
# 1 0.010911 -0.001451 -0.002354 0.000000 0.000000 0.000000
# 2 -0.001451 0.011066 -0.003006 0.000000 0.000000 0.000000
# 3 -0.002354 -0.003006 0.006005 0.000000 0.000000 0.000000
# 4 0.000000 0.000000 0.000000 0.020219 0.000000 0.000000
# 5 0.000000 0.000000 0.000000 0.000000 0.037925 0.000000
# 6 0.000000 0.000000 0.000000 0.000000 0.000000 0.076375
#
#
# Mechanical properties :
#
#
# Convention : Reuss Voigt Hill
#
# Bulk Modulus (GPa) = 69.63134 83.71791 76.67463
# Shear Modulus (GPa) = 27.63817 37.03507 32.33662
#
# Velocity S-wave (km/s) = 3.51523 4.06916 3.80230
# Velocity P-wave (km/s) = 6.89981 7.71409 7.31828
#
# Compressibility (1/GPa) = 0.01436135
#
# Stress axis : x y z
#
# Youngs Moduli (GPa) = 91.64693 90.36943 166.52171
#
# Poissons Ratio (x) = 0.13111 0.39197
# Poissons Ratio (y) = 0.13296 0.50053
# Poissons Ratio (z) = 0.21573 0.27163
#
# Static dielectric constant tensor:
#      x y z
#    x 1.869370 0.000000 0.000000 
#    y 0.000000 1.723240 0.000000 
#    z 0.000000 0.000000 1.790420 
# 
# From -- ./inp_files/44192.got.cif
#   From: 2010.05.17/outbox.cif.g08.bks.cpg/sg69_23_cif.got.tgz:44192.got - 2010.06.03 19:29:58.
