data_PCOD9512517
_publ_section_title
;
Structure prediction by ZEFSAII (Michael W. Deem and Ramdas Pophale) SiO2 
 PCOD9512517
Probable space group: F M M M
;
_chemical_formula_sum "Si O2"
_cell_formula_units_Z 160
_cell_length_a 30.292865
_cell_length_b 8.659873
_cell_length_c 33.338527
_cell_angle_alpha 90.000000
_cell_angle_beta 90.000000
_cell_angle_gamma 90.000000
_cell_volume 8745.774590
_symmetry_space_group_name_H-M "F M M M"
_symmetry_group_IT_number 69
_symmetry_cell_setting 'orthorhombic'
loop_
_space_group_symop_operation_xyz
x,y,z
-x,-y,z
x,-y,-z
-x,y,-z
-x,-y,-z
x,y,-z
-x,y,z
x,-y,z
x,1/2+y,1/2+z
-x,1/2-y,1/2+z
x,1/2-y,1/2-z
-x,1/2+y,1/2-z
-x,1/2-y,1/2-z
x,1/2+y,1/2-z
-x,1/2+y,1/2+z
x,1/2-y,1/2+z
1/2+x,y,1/2+z
1/2-x,-y,1/2+z
1/2+x,-y,1/2-z
1/2-x,y,1/2-z
1/2-x,-y,1/2-z
1/2+x,y,1/2-z
1/2-x,y,1/2+z
1/2+x,-y,1/2+z
1/2+x,1/2+y,z
1/2-x,1/2-y,z
1/2+x,1/2-y,-z
1/2-x,1/2+y,-z
1/2-x,1/2-y,-z
1/2+x,1/2+y,-z
1/2-x,1/2+y,z
1/2+x,1/2-y,z
loop_
_atom_site_type_symbol
_atom_site_label
_atom_site_fract_x
_atom_site_fract_y
_atom_site_fract_z
Si Si1 0.864101 0.314194 0.633986
Si Si2 0.420640 0.818911 0.000000
Si Si3 0.049672 0.685642 0.586344
Si Si4 0.707842 0.180124 0.078357
Si Si5 0.825411 0.322161 0.500000
Si Si6 0.298342 0.684563 0.205615
O O1 0.858381 0.500000 0.627265
O O2 0.914434 0.277317 0.621061
O O3 0.835619 0.215328 0.603070
O O4 0.839824 0.280284 0.676270
O O5 0.438319 0.749122 0.041976
O O6 0.368447 0.784664 0.000000
O O7 0.429756 0.000000 0.000000
O O8 0.050129 0.500000 0.582656
O O9 0.000000 0.736137 0.596609
O O10 0.750000 0.250000 0.100781
O O11 0.712793 0.000000 0.070066
O O12 0.702586 0.281549 0.038687
O O13 0.839451 0.500000 0.500000
O O14 0.294059 0.500000 0.207264
O O15 0.306791 0.750000 0.250000
O O16 0.250000 0.750000 0.193118
#
# Coordination Sequence:
#
# PCOD9512517 Si02
#       6
#    32  16  32  32  16  32
#     4  10  21  37  57  82 112 145 184 230 278 333
#     4  12  23  36  55  82 110 145 190 240 294 336
#     4  10  21  38  60  82 108 148 192 235 286 339
#     4  12  24  37  54  78 108 146 186 227 276 329
#     4  12  23  38  55  73 105 146 187 232 274 328
#     4  10  20  35  57  85 115 148 183 223 272 329
#
# _framework density 18.294550000000001
#
# number of rings (size 3 to 8) (size 9 to 14) (size 15 to 20)
#    0.000    1.200    2.000    6.000    0.000    4.800 
#    0.000    0.000    0.000    0.600    0.000    0.000 
#    0.000    0.000    0.000    0.000    0.000    0.800 
#
# Total GULP energy -223165.084241 kJ/mol
# GULP energy per Si atom -5579.127106 kJ/mol
# Density = 1.825291 g / cm^3
# Si number density = 18.294550 Si / 1000 Ang^3
#
#
#
# Elastic Constant Matrix: (Units=GPa)
#
#
# Indices 1 2 3 4 5 6 
#
# 1 151.2896 20.2266 56.6828 0.0000 0.0000 0.0000
# 2 20.2266 35.6097 27.6384 0.0001 -0.0001 -0.0004
# 3 56.6828 27.6384 116.0891 0.0000 0.0000 0.0001
# 4 0.0000 0.0001 0.0000 -0.8979 0.0000 0.0000
# 5 0.0000 -0.0001 0.0000 0.0000 11.7782 0.0000
# 6 0.0000 -0.0004 0.0001 0.0000 0.0000 17.3507
#
#
#
# Elastic Compliance Matrix: (Units=1/GPa)
#
#
# Indices 1 2 3 4 5 6 
#
# 1 0.008193 -0.001900 -0.003548 0.000000 0.000000 0.000000
# 2 -0.001900 0.034888 -0.007378 0.000005 0.000000 0.000001
# 3 -0.003548 -0.007378 0.012103 -0.000001 0.000000 0.000000
# 4 0.000000 0.000005 -0.000001 -1.113756 0.000003 0.000002
# 5 0.000000 0.000000 0.000000 0.000003 0.084902 0.000000
# 6 0.000000 0.000001 0.000000 0.000002 0.000000 0.057635
#
#
# Mechanical properties :
#
#
# Convention : Reuss Voigt Hill
#
# Bulk Modulus (GPa) = 33.86217 56.89823 45.38020
# Shear Modulus (GPa) = -5.67835 18.87558 6.59862
#
# Velocity S-wave (km/s) = -1.76368 3.21559 1.90124
# Velocity P-wave (km/s) = 3.79502 6.70488 5.44782
#
# Compressibility (1/GPa) = 0.02953148
#
# Stress axis : x y z
#
# Youngs Moduli (GPa) = 122.05214 28.66300 82.62278
#
# Poissons Ratio (x) = 0.05446 0.29316
# Poissons Ratio (y) = 0.23189 0.60963
# Poissons Ratio (z) = 0.43306 0.21149
#
# Static dielectric constant tensor:
#      x y z
#    x 1.662590 0.000000 0.000000 
#    y 0.000000 1.609730 0.000000 
#    z 0.000000 0.000000 1.653710 
# 
# From -- ./inp_files/47507.got.cif
#   From: 2010.05.17/outbox.cif.g08.bks.cpg/sg69_24_cif.got.tgz:47507.got - 2010.06.03 19:29:58.
