data_PCOD9512609
_publ_section_title
;
Structure prediction by ZEFSAII (Michael W. Deem and Ramdas Pophale) SiO2 
 PCOD9512609
Probable space group: F M M M
;
_chemical_formula_sum "Si O2"
_cell_formula_units_Z 200
_cell_length_a 16.302958
_cell_length_b 19.086407
_cell_length_c 31.546525
_cell_angle_alpha 90.000000
_cell_angle_beta 90.000000
_cell_angle_gamma 90.000000
_cell_volume 9816.171035
_symmetry_space_group_name_H-M "F M M M"
_symmetry_group_IT_number 69
_symmetry_cell_setting 'orthorhombic'
loop_
_space_group_symop_operation_xyz
x,y,z
-x,-y,z
x,-y,-z
-x,y,-z
-x,-y,-z
x,y,-z
-x,y,z
x,-y,z
x,1/2+y,1/2+z
-x,1/2-y,1/2+z
x,1/2-y,1/2-z
-x,1/2+y,1/2-z
-x,1/2-y,1/2-z
x,1/2+y,1/2-z
-x,1/2+y,1/2+z
x,1/2-y,1/2+z
1/2+x,y,1/2+z
1/2-x,-y,1/2+z
1/2+x,-y,1/2-z
1/2-x,y,1/2-z
1/2-x,-y,1/2-z
1/2+x,y,1/2-z
1/2-x,y,1/2+z
1/2+x,-y,1/2+z
1/2+x,1/2+y,z
1/2-x,1/2-y,z
1/2+x,1/2-y,-z
1/2-x,1/2+y,-z
1/2-x,1/2-y,-z
1/2+x,1/2+y,-z
1/2-x,1/2+y,z
1/2+x,1/2-y,z
loop_
_atom_site_type_symbol
_atom_site_label
_atom_site_fract_x
_atom_site_fract_y
_atom_site_fract_z
Si Si1 0.594626 0.733377 0.952912
Si Si2 0.596567 0.822885 0.767550
Si Si3 0.858741 0.385846 0.074466
Si Si4 0.294223 0.177652 0.622469
Si Si5 0.905460 0.575358 0.834848
Si Si6 0.153303 0.500000 0.000000
Si Si7 0.903701 0.083572 0.815226
O O1 0.500000 0.712119 0.952230
O O2 0.601528 0.816139 0.944697
O O3 0.642037 0.699952 0.914008
O O4 0.628857 0.717249 0.000000
O O5 0.500000 0.806575 0.776513
O O6 0.632579 0.750000 0.750000
O O7 0.632170 0.858652 0.809922
O O8 0.601487 0.882199 0.731478
O O9 0.773362 0.366155 0.096949
O O10 0.907562 0.413967 0.115051
O O11 0.848762 0.440021 0.037183
O O12 0.250000 0.250000 0.637887
O O13 0.342517 0.129849 0.656069
O O14 0.865831 0.500000 0.825206
O O15 0.000000 0.571810 0.820118
O O16 0.000000 0.092110 0.828536
O O17 0.885912 0.000000 0.815490
#
# Coordination Sequence:
#
# PCOD9512609 Si02
#       7
#    32  32  32  32  32   8  32
#     4  10  21  39  61  86 115 151 199 258 313 365
#     4   9  19  34  60  91 121 160 209 259 311 370
#     4  11  23  39  59  87 121 164 204 246 306 375
#     4  10  24  39  63  88 122 164 209 252 311 375
#     4  10  20  36  57  86 122 162 202 253 311 370
#     4  12  24  40  59  88 127 168 208 244 306 388
#     4  10  21  40  65  95 125 160 208 267 316 365
#
# _framework density 20.374542000000002
#
# number of rings (size 3 to 8) (size 9 to 14) (size 15 to 20)
#    0.000    1.920    1.600    1.440    6.720    2.880 
#    0.000    2.400    0.000    1.920    0.000    3.360 
#    0.000    0.000    0.000    0.000    0.000    0.000 
#
# Total GULP energy -278421.255387 kJ/mol
# GULP energy per Si atom -5568.425108 kJ/mol
# Density = 2.032817 g / cm^3
# Si number density = 20.374542 Si / 1000 Ang^3
#
#
#
# Elastic Constant Matrix: (Units=GPa)
#
#
# Indices 1 2 3 4 5 6 
#
# 1 55.0959 28.0641 21.0502 0.0000 0.0000 0.0000
# 2 28.0641 123.9978 61.0237 0.0000 0.0000 0.0000
# 3 21.0502 61.0237 106.2560 0.0000 0.0000 0.0000
# 4 0.0000 0.0000 0.0000 57.8383 0.0000 0.0000
# 5 0.0000 0.0000 0.0000 0.0000 -12.4318 0.0000
# 6 0.0000 0.0000 0.0000 0.0000 0.0000 13.9917
#
#
#
# Elastic Compliance Matrix: (Units=1/GPa)
#
#
# Indices 1 2 3 4 5 6 
#
# 1 0.020809 -0.003737 -0.001976 0.000000 0.000000 0.000000
# 2 -0.003737 0.011913 -0.006102 0.000000 0.000000 0.000000
# 3 -0.001976 -0.006102 0.013307 0.000000 0.000000 0.000000
# 4 0.000000 0.000000 0.000000 0.017290 0.000000 0.000000
# 5 0.000000 0.000000 0.000000 0.000000 -0.080439 0.000000
# 6 0.000000 0.000000 0.000000 0.000000 0.000000 0.071471
#
#
# Mechanical properties :
#
#
# Convention : Reuss Voigt Hill
#
# Bulk Modulus (GPa) = 44.64414 56.18064 50.41239
# Shear Modulus (GPa) = 58.51606 23.56040 41.03823
#
# Velocity S-wave (km/s) = 5.36494 3.40423 4.49284
# Velocity P-wave (km/s) = 7.76763 6.56395 7.19102
#
# Compressibility (1/GPa) = 0.02239936
#
# Stress axis : x y z
#
# Youngs Moduli (GPa) = 48.05677 83.94024 75.14906
#
# Poissons Ratio (x) = 0.31369 0.14851
# Poissons Ratio (y) = 0.17959 0.45852
# Poissons Ratio (z) = 0.09497 0.51216
#
# Static dielectric constant tensor:
#      x y z
#    x 1.797530 0.000000 0.000000 
#    y 0.000000 1.734100 0.000000 
#    z 0.000000 0.000000 1.719680 
# 
# From -- ./inp_files/42039.got.cif
#   From: 2010.05.17/outbox.cif.g08.bks.cpg/sg69_22_cif.got.tgz:42039.got - 2010.06.03 19:29:58.
