data_PCOD9512680
_publ_section_title
;
Structure prediction by ZEFSAII (Michael W. Deem and Ramdas Pophale) SiO2 
 PCOD9512680
Probable space group: F M M M
;
_chemical_formula_sum "Si O2"
_cell_formula_units_Z 224
_cell_length_a 20.047614
_cell_length_b 26.985903
_cell_length_c 22.974627
_cell_angle_alpha 90.000000
_cell_angle_beta 90.000000
_cell_angle_gamma 90.000000
_cell_volume 12429.341368
_symmetry_space_group_name_H-M "F M M M"
_symmetry_group_IT_number 69
_symmetry_cell_setting 'orthorhombic'
loop_
_space_group_symop_operation_xyz
x,y,z
-x,-y,z
x,-y,-z
-x,y,-z
-x,-y,-z
x,y,-z
-x,y,z
x,-y,z
x,1/2+y,1/2+z
-x,1/2-y,1/2+z
x,1/2-y,1/2-z
-x,1/2+y,1/2-z
-x,1/2-y,1/2-z
x,1/2+y,1/2-z
-x,1/2+y,1/2+z
x,1/2-y,1/2+z
1/2+x,y,1/2+z
1/2-x,-y,1/2+z
1/2+x,-y,1/2-z
1/2-x,y,1/2-z
1/2-x,-y,1/2-z
1/2+x,y,1/2-z
1/2-x,y,1/2+z
1/2+x,-y,1/2+z
1/2+x,1/2+y,z
1/2-x,1/2-y,z
1/2+x,1/2-y,-z
1/2-x,1/2+y,-z
1/2-x,1/2-y,-z
1/2+x,1/2+y,-z
1/2-x,1/2+y,z
1/2+x,1/2-y,z
loop_
_atom_site_type_symbol
_atom_site_label
_atom_site_fract_x
_atom_site_fract_y
_atom_site_fract_z
Si Si1 0.922902 0.691218 0.256390
Si Si2 0.380862 0.657806 0.878172
Si Si3 0.500000 0.840472 0.069752
Si Si4 0.743436 0.809019 0.068371
Si Si5 0.872272 0.861083 0.639973
Si Si6 0.578619 0.943625 0.330939
Si Si7 0.679395 0.058151 0.222888
Si Si8 0.500000 0.723376 0.930328
O O1 0.921290 0.750000 0.250000
O O2 0.878549 0.674534 0.310737
O O3 0.898442 0.667636 0.196841
O O4 0.000000 0.676340 0.268336
O O5 0.311681 0.665890 0.910472
O O6 0.402763 0.600366 0.875143
O O7 0.436005 0.693827 0.906692
O O8 0.434926 0.865652 0.097126
O O9 0.500000 0.781518 0.087301
O O10 0.500000 0.842415 0.000000
O O11 0.750000 0.750000 0.076398
O O12 0.683323 0.829871 0.106436
O O13 0.731797 0.818355 0.000000
O O14 0.841161 0.911021 0.666372
O O15 0.500000 0.939689 0.317360
O O16 0.622726 0.936972 0.272689
O O17 0.591193 0.000000 0.352129
O O18 0.750000 0.075516 0.250000
O O19 0.686434 0.000000 0.209226
O O20 0.500000 0.722229 0.000000
#
# Coordination Sequence:
#
# PCOD9512680 Si02
#       8
#    32  32  16  32  32  32  32  16
#     4  11  21  33  54  89 127 156 184 237 306 366
#     4  12  21  37  61  87 124 159 200 256 309 360
#     4  11  24  41  60  85 120 165 213 248 290 364
#     4  11  25  43  61  85 120 164 214 255 293 355
#     4  12  23  38  63  88 120 160 198 251 306 358
#     4  10  20  36  60  91 127 162 198 245 307 373
#     4  10  22  40  61  90 124 160 201 243 300 376
#     4  11  22  37  60  85 114 167 217 246 292 362
#
# _framework density 18.021871999999998
#
# number of rings (size 3 to 8) (size 9 to 14) (size 15 to 20)
#    0.000    1.000    3.571    4.286    1.000    2.286 
#    0.000    1.429    0.000    5.143    0.000    0.000 
#    0.000    0.000    0.000    0.000    0.000    0.000 
#
# Total GULP energy -312966.035619 kJ/mol
# GULP energy per Si atom -5588.679207 kJ/mol
# Density = 1.798085 g / cm^3
# Si number density = 18.021872 Si / 1000 Ang^3
#
#
#
# Elastic Constant Matrix: (Units=GPa)
#
#
# Indices 1 2 3 4 5 6 
#
# 1 78.0912 28.7142 20.8360 0.0000 0.0000 0.0000
# 2 28.7142 102.6474 39.6451 0.0000 0.0000 0.0000
# 3 20.8360 39.6451 77.0542 0.0000 0.0000 0.0000
# 4 0.0000 0.0000 0.0000 17.6274 0.0000 0.0000
# 5 0.0000 0.0000 0.0000 0.0000 -42.6736 0.0000
# 6 0.0000 0.0000 0.0000 0.0000 0.0000 25.7961
#
#
#
# Elastic Compliance Matrix: (Units=1/GPa)
#
#
# Indices 1 2 3 4 5 6 
#
# 1 0.014594 -0.003193 -0.002304 0.000000 0.000000 0.000000
# 2 -0.003193 0.012857 -0.005751 0.000000 0.000000 0.000000
# 3 -0.002304 -0.005751 0.016560 0.000000 0.000000 0.000000
# 4 0.000000 0.000000 0.000000 0.056730 0.000000 0.000000
# 5 0.000000 0.000000 0.000000 0.000000 -0.023434 0.000000
# 6 0.000000 0.000000 0.000000 0.000000 0.000000 0.038766
#
#
# Mechanical properties :
#
#
# Convention : Reuss Voigt Hill
#
# Bulk Modulus (GPa) = 46.47935 48.46480 47.47207
# Shear Modulus (GPa) = 34.30768 11.38981 22.84875
#
# Velocity S-wave (km/s) = 4.36784 2.51669 3.56453
# Velocity P-wave (km/s) = 7.16128 5.94942 6.58329
#
# Compressibility (1/GPa) = 0.02151493
#
# Stress axis : x y z
#
# Youngs Moduli (GPa) = 68.52045 77.78110 60.38657
#
# Poissons Ratio (x) = 0.24834 0.13911
# Poissons Ratio (y) = 0.21877 0.34731
# Poissons Ratio (z) = 0.15785 0.44736
#
# Static dielectric constant tensor:
#      x y z
#    x 1.648980 0.000000 0.000000 
#    y 0.000000 1.632610 0.000000 
#    z 0.000000 0.000000 1.590310 
# 
# From -- ./inp_files/31222.got.cif
#   From: 2010.05.17/outbox.cif.g08.bks.cpg/sg69_16_cif.got.tgz:31222.got - 2010.06.03 19:29:58.
