data_PCOD9512000
_publ_section_title
;
Structure prediction by ZEFSAII (Michael W. Deem and Ramdas Pophale) SiO2 
 PCOD9512000
Probable space group: F M M M
;
_chemical_formula_sum "Si O2"
_cell_formula_units_Z 208
_cell_length_a 21.768753
_cell_length_b 15.740624
_cell_length_c 29.328685
_cell_angle_alpha 90.000000
_cell_angle_beta 90.000000
_cell_angle_gamma 90.000000
_cell_volume 10049.584071
_symmetry_space_group_name_H-M "F M M M"
_symmetry_group_IT_number 69
_symmetry_cell_setting 'orthorhombic'
loop_
_space_group_symop_operation_xyz
x,y,z
-x,-y,z
x,-y,-z
-x,y,-z
-x,-y,-z
x,y,-z
-x,y,z
x,-y,z
x,1/2+y,1/2+z
-x,1/2-y,1/2+z
x,1/2-y,1/2-z
-x,1/2+y,1/2-z
-x,1/2-y,1/2-z
x,1/2+y,1/2-z
-x,1/2+y,1/2+z
x,1/2-y,1/2+z
1/2+x,y,1/2+z
1/2-x,-y,1/2+z
1/2+x,-y,1/2-z
1/2-x,y,1/2-z
1/2-x,-y,1/2-z
1/2+x,y,1/2-z
1/2-x,y,1/2+z
1/2+x,-y,1/2+z
1/2+x,1/2+y,z
1/2-x,1/2-y,z
1/2+x,1/2-y,-z
1/2-x,1/2+y,-z
1/2-x,1/2-y,-z
1/2+x,1/2+y,-z
1/2-x,1/2+y,z
1/2+x,1/2-y,z
loop_
_atom_site_type_symbol
_atom_site_label
_atom_site_fract_x
_atom_site_fract_y
_atom_site_fract_z
Si Si1 0.328549 0.899004 0.549990
Si Si2 0.841984 0.102040 0.802056
Si Si3 0.069523 0.104037 0.114970
Si Si4 0.932623 0.603907 0.773567
Si Si5 0.099372 0.897596 0.625727
Si Si6 0.258898 0.650763 0.631869
Si Si7 0.000000 0.395810 0.052644
O O1 0.313628 0.863689 0.500000
O O2 0.392812 0.866676 0.570701
O O3 0.278122 0.887168 0.589087
O O4 0.335503 0.000000 0.545649
O O5 0.889562 0.129182 0.841722
O O6 0.873802 0.133340 0.755618
O O7 0.774634 0.124955 0.820755
O O8 0.842281 0.000000 0.800019
O O9 0.000000 0.134096 0.116950
O O10 0.068240 0.000000 0.115157
O O11 0.931333 0.500000 0.773071
O O12 0.928004 0.631624 0.825887
O O13 0.000000 0.628153 0.754499
O O14 0.170519 0.873393 0.626955
O O15 0.059403 0.868707 0.582439
O O16 0.095575 0.000000 0.625592
O O17 0.250000 0.750000 0.628366
O O18 0.000000 0.500000 0.051731
O O19 0.000000 0.367681 0.000000
#
# Coordination Sequence:
#
# PCOD9512000 Si02
#       7
#    32  32  32  32  32  32  16
#     4   9  18  33  53  77 103 132 176 230 280 334
#     4   9  17  31  52  79 108 140 184 228 274 331
#     4   8  13  23  43  72 103 132 163 206 257 312
#     4   9  16  29  55  87 113 140 178 234 291 335
#     4  10  19  35  59  85 112 142 184 238 293 340
#     4  11  23  37  53  74 110 154 189 229 276 335
#     4   9  18  34  60  92 115 134 175 237 297 350
#
# _framework density 20.697374
#
# number of rings (size 3 to 8) (size 9 to 14) (size 15 to 20)
#    0.000    2.692    0.769    2.769    0.000    3.692 
#    0.000    6.923    8.462    0.923    0.000    0.000 
#    0.000    0.000    0.000    0.000    0.000    0.000 
#
# Total GULP energy -289888.071575 kJ/mol
# GULP energy per Si atom -5574.770607 kJ/mol
# Density = 2.065027 g / cm^3
# Si number density = 20.697374 Si / 1000 Ang^3
#
#
#
# Elastic Constant Matrix: (Units=GPa)
#
#
# Indices 1 2 3 4 5 6 
#
# 1 157.9861 -1.7189 63.2214 0.0000 0.0000 0.0000
# 2 -1.7189 9.6205 12.2858 0.0000 0.0000 0.0000
# 3 63.2214 12.2858 130.9053 0.0000 0.0000 0.0000
# 4 0.0000 0.0000 0.0000 -4.7736 0.0000 0.0000
# 5 0.0000 0.0000 0.0000 0.0000 -5.1637 0.0000
# 6 0.0000 0.0000 0.0000 0.0000 0.0000 -8.9317
#
#
#
# Elastic Compliance Matrix: (Units=1/GPa)
#
#
# Indices 1 2 3 4 5 6 
#
# 1 0.008296 0.007498 -0.004710 0.000000 0.000000 0.000000
# 2 0.007498 0.124875 -0.015341 0.000000 0.000000 0.000000
# 3 -0.004710 -0.015341 0.011354 0.000000 0.000000 0.000000
# 4 0.000000 0.000000 0.000000 -0.209487 0.000000 0.000000
# 5 0.000000 0.000000 0.000000 0.000000 -0.193658 0.000000
# 6 0.000000 0.000000 0.000000 0.000000 0.000000 -0.111961
#
#
# Mechanical properties :
#
#
# Convention : Reuss Voigt Hill
#
# Bulk Modulus (GPa) = 8.37398 49.56540 28.96969
# Shear Modulus (GPa) = -16.35759 11.20779 -2.57490
#
# Velocity S-wave (km/s) = -2.81432 2.32956 -1.11659
# Velocity P-wave (km/s) = 2.55065 5.58887 3.51636
#
# Compressibility (1/GPa) = 0.11941759
#
# Stress axis : x y z
#
# Youngs Moduli (GPa) = 120.53726 8.00802 88.07639
#
# Poissons Ratio (x) = -0.06004 0.41487
# Poissons Ratio (y) = -0.90374 1.35117
# Poissons Ratio (z) = 0.56777 0.12285
#
# Static dielectric constant tensor:
#      x y z
#    x 1.733960 0.000000 0.000000 
#    y 0.000000 1.732310 0.000000 
#    z 0.000000 0.000000 1.696290 
# 
# From -- ./inp_files/42705.got.cif
#   From: 2010.05.17/outbox.cif.g08.bks.cpg/sg69_22_cif.got.tgz:42705.got - 2010.06.03 19:29:58.
