data_PCOD9512337
_publ_section_title
;
Structure prediction by ZEFSAII (Michael W. Deem and Ramdas Pophale) SiO2 
 PCOD9512337
Probable space group: F M M M
;
_chemical_formula_sum "Si O2"
_cell_formula_units_Z 232
_cell_length_a 27.974582
_cell_length_b 14.971363
_cell_length_c 27.799183
_cell_angle_alpha 90.000000
_cell_angle_beta 90.000000
_cell_angle_gamma 90.000000
_cell_volume 11642.787715
_symmetry_space_group_name_H-M "F M M M"
_symmetry_group_IT_number 69
_symmetry_cell_setting 'orthorhombic'
loop_
_space_group_symop_operation_xyz
x,y,z
-x,-y,z
x,-y,-z
-x,y,-z
-x,-y,-z
x,y,-z
-x,y,z
x,-y,z
x,1/2+y,1/2+z
-x,1/2-y,1/2+z
x,1/2-y,1/2-z
-x,1/2+y,1/2-z
-x,1/2-y,1/2-z
x,1/2+y,1/2-z
-x,1/2+y,1/2+z
x,1/2-y,1/2+z
1/2+x,y,1/2+z
1/2-x,-y,1/2+z
1/2+x,-y,1/2-z
1/2-x,y,1/2-z
1/2-x,-y,1/2-z
1/2+x,y,1/2-z
1/2-x,y,1/2+z
1/2+x,-y,1/2+z
1/2+x,1/2+y,z
1/2-x,1/2-y,z
1/2+x,1/2-y,-z
1/2-x,1/2+y,-z
1/2-x,1/2-y,-z
1/2+x,1/2+y,-z
1/2-x,1/2+y,z
1/2+x,1/2-y,z
loop_
_atom_site_type_symbol
_atom_site_label
_atom_site_fract_x
_atom_site_fract_y
_atom_site_fract_z
Si Si1 0.637271 0.103293 0.371884
Si Si2 0.332120 0.391701 0.554177
Si Si3 0.774949 0.346406 0.798761
Si Si4 0.118723 0.231701 0.303099
Si Si5 0.238627 0.101420 0.099351
Si Si6 0.500000 0.000000 0.096289
Si Si7 0.074110 0.662451 0.105996
Si Si8 0.554278 0.348643 0.943202
O O1 0.629406 0.173227 0.328886
O O2 0.685476 0.138410 0.397724
O O3 0.593568 0.105850 0.409243
O O4 0.644837 0.000000 0.356195
O O5 0.345750 0.369016 0.500000
O O6 0.331400 0.500000 0.558479
O O7 0.279595 0.356316 0.566957
O O8 0.371702 0.354978 0.589531
O O9 0.750000 0.383517 0.750000
O O10 0.750000 0.250000 0.804620
O O11 0.831758 0.325506 0.797096
O O12 0.760417 0.398354 0.846710
O O13 0.100236 0.250000 0.250000
O O14 0.080160 0.185269 0.337755
O O15 0.232475 0.000000 0.081995
O O16 0.458527 0.922000 0.096722
O O17 0.055799 0.746265 0.075185
O O18 0.500000 0.382332 0.936295
O O19 0.565504 0.354902 0.000000
#
# Coordination Sequence:
#
# PCOD9512337 Si02
#       8
#    32  32  32  32  32   8  32  32
#     4  10  22  39  61  88 124 163 212 259 307 370
#     4  10  20  34  53  85 127 167 201 241 299 371
#     4  11  18  31  56  86 121 159 205 247 310 371
#     4  11  21  39  64  89 124 168 203 260 317 377
#     4  10  20  34  53  84 124 167 202 248 303 367
#     4  12  24  44  67  96 124 170 204 272 309 360
#     4  11  22  40  65  90 128 159 209 252 318 374
#     4  10  22  41  64  91 120 155 204 263 318 369
#
# _framework density 19.926500000000001
#
# number of rings (size 3 to 8) (size 9 to 14) (size 15 to 20)
#    0.000    1.517    5.517    0.414    0.000    1.379 
#    1.241    3.793    0.000    3.310    0.000    0.000 
#    0.000    0.000    0.000    0.000    0.000    0.000 
#
# Total GULP energy -323107.915151 kJ/mol
# GULP energy per Si atom -5570.826123 kJ/mol
# Density = 1.988115 g / cm^3
# Si number density = 19.926500 Si / 1000 Ang^3
#
#
#
# Elastic Constant Matrix: (Units=GPa)
#
#
# Indices 1 2 3 4 5 6 
#
# 1 69.3092 13.9065 30.2108 0.0000 0.0000 0.0000
# 2 13.9065 61.0899 -5.1254 0.0000 0.0000 0.0000
# 3 30.2108 -5.1254 87.2204 0.0000 0.0000 0.0000
# 4 0.0000 0.0000 0.0000 11.1741 0.0000 0.0000
# 5 0.0000 0.0000 0.0000 0.0000 17.6423 0.0000
# 6 0.0000 0.0000 0.0000 0.0000 0.0000 23.4103
#
#
#
# Elastic Compliance Matrix: (Units=1/GPa)
#
#
# Indices 1 2 3 4 5 6 
#
# 1 0.018248 -0.004708 -0.006597 0.000000 0.000000 0.000000
# 2 -0.004708 0.017665 0.002669 0.000000 0.000000 0.000000
# 3 -0.006597 0.002669 0.013907 0.000000 0.000000 0.000000
# 4 0.000000 0.000000 0.000000 0.089493 0.000000 0.000000
# 5 0.000000 0.000000 0.000000 0.000000 0.056682 0.000000
# 6 0.000000 0.000000 0.000000 0.000000 0.000000 0.042716
#
#
# Mechanical properties :
#
#
# Convention : Reuss Voigt Hill
#
# Bulk Modulus (GPa) = 30.72408 32.84480 31.78444
# Shear Modulus (GPa) = 18.73832 22.35385 20.54609
#
# Velocity S-wave (km/s) = 3.06988 3.35298 3.21455
# Velocity P-wave (km/s) = 5.29317 5.61327 5.45557
#
# Compressibility (1/GPa) = 0.03254776
#
# Stress axis : x y z
#
# Youngs Moduli (GPa) = 54.79945 56.60954 71.90530
#
# Poissons Ratio (x) = 0.26649 0.47439
# Poissons Ratio (y) = 0.25797 -0.19189
# Poissons Ratio (z) = 0.36153 -0.15107
#
# Static dielectric constant tensor:
#      x y z
#    x 1.721160 0.000000 0.000000 
#    y 0.000000 1.723490 0.000000 
#    z 0.000000 0.000000 1.713730 
# 
# From -- ./inp_files/43694.got.cif
#   From: 2010.05.17/outbox.cif.g08.bks.cpg/sg69_22_cif.got.tgz:43694.got - 2010.06.03 19:29:58.
