data_PCOD9512985
_publ_section_title
;
Structure prediction by ZEFSAII (Michael W. Deem and Ramdas Pophale) SiO2 
 PCOD9512985
Probable space group: F M M M
;
_chemical_formula_sum "Si O2"
_cell_formula_units_Z 168
_cell_length_a 21.405453
_cell_length_b 13.994609
_cell_length_c 28.059498
_cell_angle_alpha 90.000000
_cell_angle_beta 90.000000
_cell_angle_gamma 90.000000
_cell_volume 8405.529743
_symmetry_space_group_name_H-M "F M M M"
_symmetry_group_IT_number 69
_symmetry_cell_setting 'orthorhombic'
loop_
_space_group_symop_operation_xyz
x,y,z
-x,-y,z
x,-y,-z
-x,y,-z
-x,-y,-z
x,y,-z
-x,y,z
x,-y,z
x,1/2+y,1/2+z
-x,1/2-y,1/2+z
x,1/2-y,1/2-z
-x,1/2+y,1/2-z
-x,1/2-y,1/2-z
x,1/2+y,1/2-z
-x,1/2+y,1/2+z
x,1/2-y,1/2+z
1/2+x,y,1/2+z
1/2-x,-y,1/2+z
1/2+x,-y,1/2-z
1/2-x,y,1/2-z
1/2-x,-y,1/2-z
1/2+x,y,1/2-z
1/2-x,y,1/2+z
1/2+x,-y,1/2+z
1/2+x,1/2+y,z
1/2-x,1/2-y,z
1/2+x,1/2-y,-z
1/2-x,1/2+y,-z
1/2-x,1/2-y,-z
1/2+x,1/2+y,-z
1/2-x,1/2+y,z
1/2+x,1/2-y,z
loop_
_atom_site_type_symbol
_atom_site_label
_atom_site_fract_x
_atom_site_fract_y
_atom_site_fract_z
Si Si1 0.773857 0.887224 0.100475
Si Si2 0.568375 0.384270 0.187004
Si Si3 0.596174 0.692288 0.081571
Si Si4 0.796796 0.115879 0.790869
Si Si5 0.363587 0.391015 0.442751
Si Si6 0.000000 0.860398 0.000000
O O1 0.831022 0.834744 0.075111
O O2 0.774449 0.857360 0.156014
O O3 0.706287 0.875277 0.077307
O O4 0.788640 0.000000 0.099216
O O5 0.500000 0.356348 0.205844
O O6 0.569647 0.500000 0.184016
O O7 0.576635 0.343963 0.133639
O O8 0.630954 0.354199 0.214816
O O9 0.592628 0.807036 0.076749
O O10 0.554010 0.644481 0.041668
O O11 0.750000 0.147822 0.750000
O O12 0.796327 0.000000 0.789730
O O13 0.362840 0.383767 0.500000
O O14 0.382025 0.500000 0.430132
#
# Coordination Sequence:
#
# PCOD9512985 Si02
#       6
#    32  32  32  32  32   8
#     4   9  19  34  53  80 110 139 175 224 280 331
#     4   9  17  31  50  77 115 152 180 214 275 341
#     4  11  20  35  50  73 109 146 184 224 265 320
#     4   8  14  27  50  80 110 140 176 219 266 324
#     4  10  21  36  54  74  98 134 185 238 283 321
#     4  12  24  32  48  76 104 148 200 222 250 332
#
# _framework density 19.986841999999999
#
# number of rings (size 3 to 8) (size 9 to 14) (size 15 to 20)
#    0.000    2.476    1.905    2.286    1.333    0.762 
#    0.000    4.286    0.000    9.143    2.476    1.333 
#    0.000    0.000    0.000    0.000    0.000    0.381 
#
# Total GULP energy -233821.012900 kJ/mol
# GULP energy per Si atom -5567.166974 kJ/mol
# Density = 1.994135 g / cm^3
# Si number density = 19.986842 Si / 1000 Ang^3
#
#
#
# Elastic Constant Matrix: (Units=GPa)
#
#
# Indices 1 2 3 4 5 6 
#
# 1 72.6900 16.7251 50.6271 0.0000 0.0000 0.0000
# 2 16.7251 61.7021 10.7361 0.0000 0.0000 0.0000
# 3 50.6271 10.7361 66.5611 0.0000 0.0000 0.0000
# 4 0.0000 0.0000 0.0000 -15.7290 0.0000 0.0000
# 5 0.0000 0.0000 0.0000 0.0000 38.0960 0.0000
# 6 0.0000 0.0000 0.0000 0.0000 0.0000 -2.8763
#
#
#
# Elastic Compliance Matrix: (Units=1/GPa)
#
#
# Indices 1 2 3 4 5 6 
#
# 1 0.030339 -0.004330 -0.022378 0.000000 0.000000 0.000000
# 2 -0.004330 0.017293 0.000504 0.000000 0.000000 0.000000
# 3 -0.022378 0.000504 0.031963 0.000000 0.000000 0.000000
# 4 0.000000 0.000000 0.000000 -0.063577 0.000000 0.000000
# 5 0.000000 0.000000 0.000000 0.000000 0.026249 0.000000
# 6 0.000000 0.000000 0.000000 0.000000 0.000000 -0.347671
#
#
# Mechanical properties :
#
#
# Convention : Reuss Voigt Hill
#
# Bulk Modulus (GPa) = 36.78107 39.68110 38.23109
# Shear Modulus (GPa) = -20.49739 12.08913 -4.20413
#
# Velocity S-wave (km/s) = -3.20589 2.46205 -1.45190
# Velocity P-wave (km/s) = 2.17692 5.28951 4.04462
#
# Compressibility (1/GPa) = 0.02718790
#
# Stress axis : x y z
#
# Youngs Moduli (GPa) = 32.96089 57.82723 31.28597
#
# Poissons Ratio (x) = 0.25040 0.70011
# Poissons Ratio (y) = 0.14272 -0.01578
# Poissons Ratio (z) = 0.73759 -0.02916
#
# Static dielectric constant tensor:
#      x y z
#    x 1.715510 0.000000 0.000000 
#    y 0.000000 1.751580 0.000000 
#    z 0.000000 0.000000 1.667040 
# 
# From -- ./inp_files/46741.got.cif
#   From: 2010.05.17/outbox.cif.g08.bks.cpg/sg69_24_cif.got.tgz:46741.got - 2010.06.03 19:29:58.
