data_PCOD9512622
_publ_section_title
;
Structure prediction by ZEFSAII (Michael W. Deem and Ramdas Pophale) SiO2 
 PCOD9512622
Probable space group: F M M M
;
_chemical_formula_sum "Si O2"
_cell_formula_units_Z 176
_cell_length_a 17.534156
_cell_length_b 23.845513
_cell_length_c 23.524193
_cell_angle_alpha 90.000000
_cell_angle_beta 90.000000
_cell_angle_gamma 90.000000
_cell_volume 9835.722562
_symmetry_space_group_name_H-M "F M M M"
_symmetry_group_IT_number 69
_symmetry_cell_setting 'orthorhombic'
loop_
_space_group_symop_operation_xyz
x,y,z
-x,-y,z
x,-y,-z
-x,y,-z
-x,-y,-z
x,y,-z
-x,y,z
x,-y,z
x,1/2+y,1/2+z
-x,1/2-y,1/2+z
x,1/2-y,1/2-z
-x,1/2+y,1/2-z
-x,1/2-y,1/2-z
x,1/2+y,1/2-z
-x,1/2+y,1/2+z
x,1/2-y,1/2+z
1/2+x,y,1/2+z
1/2-x,-y,1/2+z
1/2+x,-y,1/2-z
1/2-x,y,1/2-z
1/2-x,-y,1/2-z
1/2+x,y,1/2-z
1/2-x,y,1/2+z
1/2+x,-y,1/2+z
1/2+x,1/2+y,z
1/2-x,1/2-y,z
1/2+x,1/2-y,-z
1/2-x,1/2+y,-z
1/2-x,1/2-y,-z
1/2+x,1/2+y,-z
1/2-x,1/2+y,z
1/2+x,1/2-y,z
loop_
_atom_site_type_symbol
_atom_site_label
_atom_site_fract_x
_atom_site_fract_y
_atom_site_fract_z
Si Si1 0.842278 0.936452 0.249454
Si Si2 0.000000 0.566920 0.434760
Si Si3 0.183433 0.934401 0.377202
Si Si4 0.645732 0.887716 0.367230
Si Si5 0.163769 0.772832 0.933582
Si Si6 0.584664 0.659178 0.567880
O O1 0.750000 0.936867 0.250000
O O2 0.856754 0.925015 0.315575
O O3 0.869415 0.894629 0.200406
O O4 0.867798 0.000000 0.235054
O O5 0.924381 0.586477 0.401935
O O6 0.000000 0.500000 0.436281
O O7 0.000000 0.588051 0.500000
O O8 0.273788 0.920404 0.375672
O O9 0.143160 0.889757 0.417209
O O10 0.174141 0.000000 0.391754
O O11 0.656345 0.825583 0.392157
O O12 0.250000 0.750000 0.933371
O O13 0.112491 0.720631 0.913508
O O14 0.145551 0.787610 0.000000
O O15 0.582089 0.662835 0.500000
O O16 0.500000 0.646547 0.589593
#
# Coordination Sequence:
#
# PCOD9512622 Si02
#       6
#    32  16  32  32  32  32
#     4   8  16  33  57  82 108 143 188 234 280 337
#     4  11  24  36  50  84 125 152 186 240 293 346
#     4  10  20  37  62  86 111 148 192 236 287 347
#     4  11  20  36  59  81 113 153 193 234 281 339
#     4  10  20  36  58  82 107 146 197 234 275 339
#     4  10  22  39  58  83 116 148 184 239 292 333
#
# _framework density 17.893957
#
# number of rings (size 3 to 8) (size 9 to 14) (size 15 to 20)
#    0.000    2.091    1.818    3.273    1.273    1.455 
#    1.636    1.818    0.000    1.091    0.000    0.000 
#    0.000    0.000    0.000    0.000    0.000    0.000 
#
# Total GULP energy -245180.572967 kJ/mol
# GULP energy per Si atom -5572.285749 kJ/mol
# Density = 1.785323 g / cm^3
# Si number density = 17.893957 Si / 1000 Ang^3
#
#
#
# Elastic Constant Matrix: (Units=GPa)
#
#
# Indices 1 2 3 4 5 6 
#
# 1 76.6487 29.8388 30.7747 0.0000 0.0000 0.0000
# 2 29.8388 121.8214 54.4126 0.0000 0.0000 0.0000
# 3 30.7747 54.4126 71.1397 0.0000 0.0000 0.0000
# 4 0.0000 0.0000 0.0000 31.3889 0.0000 0.0000
# 5 0.0000 0.0000 0.0000 0.0000 41.1151 0.0000
# 6 0.0000 0.0000 0.0000 0.0000 0.0000 15.5411
#
#
#
# Elastic Compliance Matrix: (Units=1/GPa)
#
#
# Indices 1 2 3 4 5 6 
#
# 1 0.015913 -0.001250 -0.005928 0.000000 0.000000 0.000000
# 2 -0.001250 0.012567 -0.009071 0.000000 0.000000 0.000000
# 3 -0.005928 -0.009071 0.023559 0.000000 0.000000 0.000000
# 4 0.000000 0.000000 0.000000 0.031858 0.000000 0.000000
# 5 0.000000 0.000000 0.000000 0.000000 0.024322 0.000000
# 6 0.000000 0.000000 0.000000 0.000000 0.000000 0.064345
#
#
# Mechanical properties :
#
#
# Convention : Reuss Voigt Hill
#
# Bulk Modulus (GPa) = 51.17367 55.51799 53.34583
# Shear Modulus (GPa) = 23.63211 27.91460 25.77335
#
# Velocity S-wave (km/s) = 3.63805 3.95397 3.79930
# Velocity P-wave (km/s) = 6.80497 7.20685 7.00879
#
# Compressibility (1/GPa) = 0.01954130
#
# Stress axis : x y z
#
# Youngs Moduli (GPa) = 62.84089 79.57618 42.44597
#
# Poissons Ratio (x) = 0.09947 0.25161
# Poissons Ratio (y) = 0.07855 0.38503
# Poissons Ratio (z) = 0.37251 0.72184
#
# Static dielectric constant tensor:
#      x y z
#    x 1.623090 0.000000 0.000000 
#    y 0.000000 1.588730 0.000000 
#    z 0.000000 0.000000 1.647310 
# 
# From -- ./inp_files/35883.got.cif
#   From: 2010.05.17/outbox.cif.g08.bks.cpg/sg69_18_cif.got.tgz:35883.got - 2010.06.03 19:29:58.
