data_PCOD9512883
_publ_section_title
;
Structure prediction by ZEFSAII (Michael W. Deem and Ramdas Pophale) SiO2 
 PCOD9512883
Probable space group: F M M M
;
_chemical_formula_sum "Si O2"
_cell_formula_units_Z 136
_cell_length_a 15.285804
_cell_length_b 17.449248
_cell_length_c 26.305937
_cell_angle_alpha 90.000000
_cell_angle_beta 90.000000
_cell_angle_gamma 90.000000
_cell_volume 7016.471693
_symmetry_space_group_name_H-M "F M M M"
_symmetry_group_IT_number 69
_symmetry_cell_setting 'orthorhombic'
loop_
_space_group_symop_operation_xyz
x,y,z
-x,-y,z
x,-y,-z
-x,y,-z
-x,-y,-z
x,y,-z
-x,y,z
x,-y,z
x,1/2+y,1/2+z
-x,1/2-y,1/2+z
x,1/2-y,1/2-z
-x,1/2+y,1/2-z
-x,1/2-y,1/2-z
x,1/2+y,1/2-z
-x,1/2+y,1/2+z
x,1/2-y,1/2+z
1/2+x,y,1/2+z
1/2-x,-y,1/2+z
1/2+x,-y,1/2-z
1/2-x,y,1/2-z
1/2-x,-y,1/2-z
1/2+x,y,1/2-z
1/2-x,y,1/2+z
1/2+x,-y,1/2+z
1/2+x,1/2+y,z
1/2-x,1/2-y,z
1/2+x,1/2-y,-z
1/2-x,1/2+y,-z
1/2-x,1/2-y,-z
1/2+x,1/2+y,-z
1/2-x,1/2+y,z
1/2+x,1/2-y,z
loop_
_atom_site_type_symbol
_atom_site_label
_atom_site_fract_x
_atom_site_fract_y
_atom_site_fract_z
Si Si1 0.103937 0.910969 0.752630
Si Si2 0.000000 0.588925 0.905441
Si Si3 0.355047 0.344526 0.862558
Si Si4 0.500000 0.703094 0.500000
Si Si5 0.500000 0.137450 0.443451
Si Si6 0.655546 0.164697 0.846404
O O1 0.121086 0.887250 0.810515
O O2 0.154885 0.857359 0.713026
O O3 0.000000 0.902321 0.743002
O O4 0.127567 0.000000 0.744607
O O5 0.915385 0.611412 0.872742
O O6 0.000000 0.500000 0.916649
O O7 0.000000 0.638650 0.955742
O O8 0.414646 0.375578 0.908523
O O9 0.370463 0.253397 0.854265
O O10 0.250931 0.350107 0.870035
O O11 0.500000 0.772260 0.456848
O O12 0.500000 0.100053 0.500000
#
# Coordination Sequence:
#
# PCOD9512883 Si02
#       6
#    32  16  32   8  16  32
#     4  11  23  37  59  90 128 168 201 251 319 380
#     4  12  23  41  64  92 132 165 201 258 321 382
#     4  11  22  39  64  91 124 162 215 260 303 374
#     4  10  21  42  66  90 123 164 206 262 319 370
#     4  10  20  42  67  91 118 163 209 268 315 350
#     4  11  22  38  61  97 122 164 206 254 313 374
#
# _framework density 19.382961999999999
#
# number of rings (size 3 to 8) (size 9 to 14) (size 15 to 20)
#    0.353    0.706    4.706    2.294    0.000    5.647 
#    2.118    2.353    0.000    1.412    0.000    0.000 
#    0.000    0.000    0.000    0.000    0.000    0.000 
#
# Total GULP energy -189404.677888 kJ/mol
# GULP energy per Si atom -5570.725820 kJ/mol
# Density = 1.933885 g / cm^3
# Si number density = 19.382962 Si / 1000 Ang^3
#
#
#
# Elastic Constant Matrix: (Units=GPa)
#
#
# Indices 1 2 3 4 5 6 
#
# 1 75.3157 8.6067 30.8398 0.0000 0.0000 0.0000
# 2 8.6067 17.4126 -9.9178 0.0000 0.0000 0.0000
# 3 30.8398 -9.9178 130.9186 0.0000 0.0000 0.0000
# 4 0.0000 0.0000 0.0000 5.0750 0.0000 0.0000
# 5 0.0000 0.0000 0.0000 0.0000 8.4804 0.0000
# 6 0.0000 0.0000 0.0000 0.0000 0.0000 -7.1096
#
#
#
# Elastic Compliance Matrix: (Units=1/GPa)
#
#
# Indices 1 2 3 4 5 6 
#
# 1 0.016430 -0.010791 -0.004688 0.000000 0.000000 0.000000
# 2 -0.010791 0.067107 0.007626 0.000000 0.000000 0.000000
# 3 -0.004688 0.007626 0.009320 0.000000 0.000000 0.000000
# 4 0.000000 0.000000 0.000000 0.197043 0.000000 0.000000
# 5 0.000000 0.000000 0.000000 0.000000 0.117919 0.000000
# 6 0.000000 0.000000 0.000000 0.000000 0.000000 -0.140656
#
#
# Mechanical properties :
#
#
# Convention : Reuss Voigt Hill
#
# Bulk Modulus (GPa) = 12.96164 31.41160 22.18662
# Shear Modulus (GPa) = 16.20283 14.23037 15.21660
#
# Velocity S-wave (km/s) = 2.89438 2.71250 2.80491
# Velocity P-wave (km/s) = 4.22748 5.10403 4.68630
#
# Compressibility (1/GPa) = 0.07715075
#
# Stress axis : x y z
#
# Youngs Moduli (GPa) = 60.86361 14.90159 107.29243
#
# Poissons Ratio (x) = 0.16081 0.50297
# Poissons Ratio (y) = 0.65679 -0.81818
# Poissons Ratio (z) = 0.28532 -0.11364
#
# Static dielectric constant tensor:
#      x y z
#    x 1.701160 0.000000 0.000000 
#    y 0.000000 1.653870 0.000000 
#    z 0.000000 0.000000 1.674470 
# 
# From -- ./inp_files/35732.got.cif
#   From: 2010.05.17/outbox.cif.g08.bks.cpg/sg69_18_cif.got.tgz:35732.got - 2010.06.03 19:29:58.
