data_PCOD9512951
_publ_section_title
;
Structure prediction by ZEFSAII (Michael W. Deem and Ramdas Pophale) SiO2 
 PCOD9512951
Probable space group: F M M M
;
_chemical_formula_sum "Si O2"
_cell_formula_units_Z 208
_cell_length_a 28.872835
_cell_length_b 22.408501
_cell_length_c 18.061119
_cell_angle_alpha 90.000000
_cell_angle_beta 90.000000
_cell_angle_gamma 90.000000
_cell_volume 11685.488942
_symmetry_space_group_name_H-M "F M M M"
_symmetry_group_IT_number 69
_symmetry_cell_setting 'orthorhombic'
loop_
_space_group_symop_operation_xyz
x,y,z
-x,-y,z
x,-y,-z
-x,y,-z
-x,-y,-z
x,y,-z
-x,y,z
x,-y,z
x,1/2+y,1/2+z
-x,1/2-y,1/2+z
x,1/2-y,1/2-z
-x,1/2+y,1/2-z
-x,1/2-y,1/2-z
x,1/2+y,1/2-z
-x,1/2+y,1/2+z
x,1/2-y,1/2+z
1/2+x,y,1/2+z
1/2-x,-y,1/2+z
1/2+x,-y,1/2-z
1/2-x,y,1/2-z
1/2-x,-y,1/2-z
1/2+x,y,1/2-z
1/2-x,y,1/2+z
1/2+x,-y,1/2+z
1/2+x,1/2+y,z
1/2-x,1/2-y,z
1/2+x,1/2-y,-z
1/2-x,1/2+y,-z
1/2-x,1/2-y,-z
1/2+x,1/2+y,-z
1/2-x,1/2+y,z
1/2+x,1/2-y,z
loop_
_atom_site_type_symbol
_atom_site_label
_atom_site_fract_x
_atom_site_fract_y
_atom_site_fract_z
Si Si1 0.554949 0.500000 0.416909
Si Si2 0.734385 0.572366 0.082125
Si Si3 0.444913 0.646650 0.187815
Si Si4 0.680091 0.569979 0.681373
Si Si5 0.587315 0.373866 0.645609
Si Si6 0.444738 0.254582 0.419070
Si Si7 0.142995 0.069366 0.151301
O O1 0.500000 0.500000 0.422673
O O2 0.575428 0.500000 0.500000
O O3 0.568009 0.561173 0.376244
O O4 0.731373 0.500000 0.083370
O O5 0.770258 0.587076 0.147776
O O6 0.682142 0.594331 0.096399
O O7 0.750955 0.589892 0.000000
O O8 0.500000 0.633309 0.175959
O O9 0.434335 0.645189 0.275330
O O10 0.434340 0.709440 0.147763
O O11 0.406412 0.601506 0.155315
O O12 0.672130 0.500000 0.659759
O O13 0.641825 0.614142 0.649268
O O14 0.669427 0.571893 0.768944
O O15 0.575943 0.319984 0.591584
O O16 0.431538 0.229673 0.500000
O O17 0.500000 0.261882 0.418239
O O18 0.134331 0.000000 0.134889
#
# Coordination Sequence:
#
# PCOD9512951 Si02
#       7
#    16  32  32  32  32  32  32
#     4  11  22  32  46  76 116 149 171 205 266 329
#     4   9  17  29  48  73 102 138 176 216 261 317
#     4  10  21  35  55  79 105 140 187 229 264 318
#     4   9  17  31  48  75 107 139 172 208 261 321
#     4  11  20  34  53  80 110 144 180 219 263 320
#     4  10  21  37  54  73 102 144 189 230 272 315
#     4   9  18  32  51  76 106 137 173 219 274 320
#
# _framework density 17.799854
#
# number of rings (size 3 to 8) (size 9 to 14) (size 15 to 20)
#    0.000    2.231    0.769    2.769    1.077    6.462 
#    0.000    0.000    0.000    0.923    0.000   10.769 
#    0.000    0.000    0.000    0.000    0.000    0.000 
#
# Total GULP energy -289532.268098 kJ/mol
# GULP energy per Si atom -5567.928233 kJ/mol
# Density = 1.775934 g / cm^3
# Si number density = 17.799854 Si / 1000 Ang^3
#
#
#
# Elastic Constant Matrix: (Units=GPa)
#
#
# Indices 1 2 3 4 5 6 
#
# 1 97.0039 31.4407 20.4139 0.0000 0.0000 0.0000
# 2 31.4407 72.0802 41.0379 0.0000 0.0000 0.0000
# 3 20.4139 41.0379 64.5369 0.0000 0.0000 0.0000
# 4 0.0000 0.0000 0.0000 17.8828 0.0000 0.0000
# 5 0.0000 0.0000 0.0000 0.0000 13.9548 0.0000
# 6 0.0000 0.0000 0.0000 0.0000 0.0000 13.2045
#
#
#
# Elastic Compliance Matrix: (Units=1/GPa)
#
#
# Indices 1 2 3 4 5 6 
#
# 1 0.012028 -0.004829 -0.000734 0.000000 0.000000 0.000000
# 2 -0.004829 0.023685 -0.013533 0.000000 0.000000 0.000000
# 3 -0.000734 -0.013533 0.024333 0.000000 0.000000 0.000000
# 4 0.000000 0.000000 0.000000 0.055920 0.000000 0.000000
# 5 0.000000 0.000000 0.000000 0.000000 0.071660 0.000000
# 6 0.000000 0.000000 0.000000 0.000000 0.000000 0.075732
#
#
# Mechanical properties :
#
#
# Convention : Reuss Voigt Hill
#
# Bulk Modulus (GPa) = 45.75929 46.60065 46.17997
# Shear Modulus (GPa) = 16.18993 18.39033 17.29013
#
# Velocity S-wave (km/s) = 3.01915 3.21779 3.12005
# Velocity P-wave (km/s) = 6.15769 6.32793 6.24339
#
# Compressibility (1/GPa) = 0.02185349
#
# Stress axis : x y z
#
# Youngs Moduli (GPa) = 83.13633 42.22150 41.09672
#
# Poissons Ratio (x) = 0.20387 0.03018
# Poissons Ratio (y) = 0.40143 0.55617
# Poissons Ratio (z) = 0.06105 0.57140
#
# Static dielectric constant tensor:
#      x y z
#    x 1.618200 0.000000 0.000000 
#    y 0.000000 1.588410 0.000000 
#    z 0.000000 0.000000 1.667130 
# 
# From -- ./inp_files/27907.got.cif
#   From: 2010.05.17/outbox.cif.g08.bks.cpg/sg69_14_cif.got.tgz:27907.got - 2010.06.03 19:29:58.
