data_PCOD9512994
_publ_section_title
;
Structure prediction by ZEFSAII (Michael W. Deem and Ramdas Pophale) SiO2 
 PCOD9512994
Probable space group: F M M M
;
_chemical_formula_sum "Si O2"
_cell_formula_units_Z 160
_cell_length_a 14.432593
_cell_length_b 28.962388
_cell_length_c 19.006015
_cell_angle_alpha 90.000000
_cell_angle_beta 90.000000
_cell_angle_gamma 90.000000
_cell_volume 7944.559092
_symmetry_space_group_name_H-M "F M M M"
_symmetry_group_IT_number 69
_symmetry_cell_setting 'orthorhombic'
loop_
_space_group_symop_operation_xyz
x,y,z
-x,-y,z
x,-y,-z
-x,y,-z
-x,-y,-z
x,y,-z
-x,y,z
x,-y,z
x,1/2+y,1/2+z
-x,1/2-y,1/2+z
x,1/2-y,1/2-z
-x,1/2+y,1/2-z
-x,1/2-y,1/2-z
x,1/2+y,1/2-z
-x,1/2+y,1/2+z
x,1/2-y,1/2+z
1/2+x,y,1/2+z
1/2-x,-y,1/2+z
1/2+x,-y,1/2-z
1/2-x,y,1/2-z
1/2-x,-y,1/2-z
1/2+x,y,1/2-z
1/2-x,y,1/2+z
1/2+x,-y,1/2+z
1/2+x,1/2+y,z
1/2-x,1/2-y,z
1/2+x,1/2-y,-z
1/2-x,1/2+y,-z
1/2-x,1/2-y,-z
1/2+x,1/2+y,-z
1/2-x,1/2+y,z
1/2+x,1/2-y,z
loop_
_atom_site_type_symbol
_atom_site_label
_atom_site_fract_x
_atom_site_fract_y
_atom_site_fract_z
Si Si1 0.710153 0.401892 0.583080
Si Si2 0.612242 0.775705 0.679993
Si Si3 0.645904 0.448678 0.280775
Si Si4 0.394852 0.118962 0.341792
Si Si5 0.393812 0.693580 0.583248
O O1 0.699137 0.412104 0.500000
O O2 0.655023 0.434283 0.637763
O O3 0.818043 0.402491 0.606288
O O4 0.669397 0.350667 0.597085
O O5 0.500000 0.777245 0.681672
O O6 0.643786 0.750000 0.750000
O O7 0.638994 0.828870 0.673742
O O8 0.638652 0.741157 0.617713
O O9 0.606010 0.500000 0.273257
O O10 0.750000 0.450537 0.250000
O O11 0.602244 0.409900 0.230750
O O12 0.500000 0.120246 0.370631
O O13 0.396788 0.699735 0.500000
O O14 0.500000 0.684296 0.608196
#
# Coordination Sequence:
#
# PCOD9512994 Si02
#       5
#    32  32  32  32  32
#     4  10  21  36  56  84 115 148 186 229 281 336
#     4   9  17  30  50  75 104 142 188 234 275 318
#     4   9  19  37  58  78 103 139 184 230 275 325
#     4  10  21  36  55  82 115 149 186 229 279 339
#     4   9  18  33  52  75 108 149 188 227 273 323
#
# _framework density 20.139569000000002
#
# number of rings (size 3 to 8) (size 9 to 14) (size 15 to 20)
#    0.000    2.600    0.000    1.200    0.000    5.200 
#    0.000    5.000    0.000    0.000    0.000    9.800 
#    0.000    0.000    0.000    0.000    0.000    0.000 
#
# Total GULP energy -223078.155203 kJ/mol
# GULP energy per Si atom -5576.953880 kJ/mol
# Density = 2.009373 g / cm^3
# Si number density = 20.139569 Si / 1000 Ang^3
#
#
#
# Elastic Constant Matrix: (Units=GPa)
#
#
# Indices 1 2 3 4 5 6 
#
# 1 79.5680 11.0766 21.8174 0.0000 0.0000 0.0000
# 2 11.0766 91.7495 47.5611 0.0000 0.0000 0.0000
# 3 21.8174 47.5611 83.5802 0.0000 0.0000 0.0000
# 4 0.0000 0.0000 0.0000 28.8990 0.0000 0.0000
# 5 0.0000 0.0000 0.0000 0.0000 5.8826 0.0000
# 6 0.0000 0.0000 0.0000 0.0000 0.0000 25.4160
#
#
#
# Elastic Compliance Matrix: (Units=1/GPa)
#
#
# Indices 1 2 3 4 5 6 
#
# 1 0.013542 0.000280 -0.003694 0.000000 0.000000 0.000000
# 2 0.000280 0.015465 -0.008874 0.000000 0.000000 0.000000
# 3 -0.003694 -0.008874 0.017978 0.000000 0.000000 0.000000
# 4 0.000000 0.000000 0.000000 0.034603 0.000000 0.000000
# 5 0.000000 0.000000 0.000000 0.000000 0.169992 0.000000
# 6 0.000000 0.000000 0.000000 0.000000 0.000000 0.039345
#
#
# Mechanical properties :
#
#
# Convention : Reuss Voigt Hill
#
# Bulk Modulus (GPa) = 44.62286 46.20087 45.41187
# Shear Modulus (GPa) = 15.48122 23.66903 19.57513
#
# Velocity S-wave (km/s) = 2.77555 3.43191 3.12103
# Velocity P-wave (km/s) = 5.69881 6.22046 5.96534
#
# Compressibility (1/GPa) = 0.02241004
#
# Stress axis : x y z
#
# Youngs Moduli (GPa) = 73.84520 64.66071 55.62213
#
# Poissons Ratio (x) = -0.01812 0.20549
# Poissons Ratio (y) = -0.02069 0.49357
# Poissons Ratio (z) = 0.27281 0.57378
#
# Static dielectric constant tensor:
#      x y z
#    x 1.771450 0.000000 0.000000 
#    y 0.000000 1.719310 0.000000 
#    z 0.000000 0.000000 1.635790 
# 
# From -- ./inp_files/23115.got.cif
#   From: 2010.05.17/outbox.cif.g08.bks.cpg/sg69_12_cif.got.tgz:23115.got - 2010.06.03 19:29:58.
