data_PCOD9512408
_publ_section_title
;
Structure prediction by ZEFSAII (Michael W. Deem and Ramdas Pophale) SiO2 
 PCOD9512408
Probable space group: F M M M
;
_chemical_formula_sum "Si O2"
_cell_formula_units_Z 208
_cell_length_a 22.188645
_cell_length_b 25.835132
_cell_length_c 18.093007
_cell_angle_alpha 90.000000
_cell_angle_beta 90.000000
_cell_angle_gamma 90.000000
_cell_volume 10371.754249
_symmetry_space_group_name_H-M "F M M M"
_symmetry_group_IT_number 69
_symmetry_cell_setting 'orthorhombic'
loop_
_space_group_symop_operation_xyz
x,y,z
-x,-y,z
x,-y,-z
-x,y,-z
-x,-y,-z
x,y,-z
-x,y,z
x,-y,z
x,1/2+y,1/2+z
-x,1/2-y,1/2+z
x,1/2-y,1/2-z
-x,1/2+y,1/2-z
-x,1/2-y,1/2-z
x,1/2+y,1/2-z
-x,1/2+y,1/2+z
x,1/2-y,1/2+z
1/2+x,y,1/2+z
1/2-x,-y,1/2+z
1/2+x,-y,1/2-z
1/2-x,y,1/2-z
1/2-x,-y,1/2-z
1/2+x,y,1/2-z
1/2-x,y,1/2+z
1/2+x,-y,1/2+z
1/2+x,1/2+y,z
1/2-x,1/2-y,z
1/2+x,1/2-y,-z
1/2-x,1/2+y,-z
1/2-x,1/2-y,-z
1/2+x,1/2+y,-z
1/2-x,1/2+y,z
1/2+x,1/2-y,z
loop_
_atom_site_type_symbol
_atom_site_label
_atom_site_fract_x
_atom_site_fract_y
_atom_site_fract_z
Si Si1 0.500000 0.937294 0.086007
Si Si2 0.755765 0.939683 0.587060
Si Si3 0.355972 0.862457 0.413092
Si Si4 0.567673 0.900465 0.289924
Si Si5 0.818825 0.754683 0.160680
Si Si6 0.623777 0.559642 0.658586
Si Si7 0.065991 0.797006 0.691076
O O1 0.437604 0.918528 0.122188
O O2 0.500000 0.000000 0.095168
O O3 0.500000 0.925413 0.000000
O O4 0.771919 0.939433 0.500000
O O5 0.698823 0.902756 0.596715
O O6 0.812932 0.918185 0.632285
O O7 0.743008 0.000000 0.607243
O O8 0.364535 0.852938 0.500000
O O9 0.412919 0.887749 0.372388
O O10 0.341091 0.809772 0.369620
O O11 0.500000 0.921213 0.285361
O O12 0.613694 0.936686 0.245939
O O13 0.571173 0.847595 0.242086
O O14 0.813919 0.750000 0.250000
O O15 0.750000 0.750000 0.131983
O O16 0.873389 0.713994 0.143944
O O17 0.626783 0.500000 0.634269
O O18 0.063313 0.750000 0.750000
O O19 0.000000 0.798230 0.652723
#
# Coordination Sequence:
#
# PCOD9512408 Si02
#       7
#    16  32  32  32  32  32  32
#     4   9  16  30  54  84 116 151 191 233 282 348
#     4   9  20  39  60  85 122 163 201 247 305 363
#     4  11  24  40  60  87 117 158 210 253 299 360
#     4  11  22  37  59  87 118 156 196 250 301 353
#     4  10  20  35  60  90 114 147 191 253 305 368
#     4  10  20  34  57  89 120 156 197 242 297 361
#     4   9  17  34  58  83 107 147 192 232 290 358
#
# _framework density 20.054466999999999
#
# number of rings (size 3 to 8) (size 9 to 14) (size 15 to 20)
#    0.000    2.077    3.846    0.462    2.154    3.692 
#    0.000    1.538    0.000    0.000    0.000    3.231 
#    0.000    0.000    0.000    0.000    0.000    0.000 
#
# Total GULP energy -289687.987471 kJ/mol
# GULP energy per Si atom -5570.922836 kJ/mol
# Density = 2.000882 g / cm^3
# Si number density = 20.054467 Si / 1000 Ang^3
#
#
#
# Elastic Constant Matrix: (Units=GPa)
#
#
# Indices 1 2 3 4 5 6 
#
# 1 112.6077 12.6399 28.7883 0.0000 0.0000 0.0000
# 2 12.6399 34.4424 19.5780 0.0000 0.0000 0.0000
# 3 28.7883 19.5780 77.8849 0.0000 0.0000 0.0000
# 4 0.0000 0.0000 0.0000 27.1746 0.0000 0.0000
# 5 0.0000 0.0000 0.0000 0.0000 23.2681 0.0000
# 6 0.0000 0.0000 0.0000 0.0000 0.0000 16.2837
#
#
#
# Elastic Compliance Matrix: (Units=1/GPa)
#
#
# Indices 1 2 3 4 5 6 
#
# 1 0.009903 -0.001813 -0.003205 0.000000 0.000000 0.000000
# 2 -0.001813 0.034206 -0.007928 0.000000 0.000000 0.000000
# 3 -0.003205 -0.007928 0.016017 0.000000 0.000000 0.000000
# 4 0.000000 0.000000 0.000000 0.036799 0.000000 0.000000
# 5 0.000000 0.000000 0.000000 0.000000 0.042977 0.000000
# 6 0.000000 0.000000 0.000000 0.000000 0.000000 0.061411
#
#
# Mechanical properties :
#
#
# Convention : Reuss Voigt Hill
#
# Bulk Modulus (GPa) = 29.21038 38.54970 33.88004
# Shear Modulus (GPa) = 20.95411 24.27386 22.61398
#
# Velocity S-wave (km/s) = 3.23594 3.48285 3.36166
# Velocity P-wave (km/s) = 5.34405 5.95297 5.65671
#
# Compressibility (1/GPa) = 0.03423441
#
# Stress axis : x y z
#
# Youngs Moduli (GPa) = 100.97777 29.23477 62.43359
#
# Poissons Ratio (x) = 0.05299 0.20009
# Poissons Ratio (y) = 0.18303 0.49500
# Poissons Ratio (z) = 0.32362 0.23178
#
# Static dielectric constant tensor:
#      x y z
#    x 1.767170 0.000000 0.000000 
#    y 0.000000 1.739610 0.000000 
#    z 0.000000 0.000000 1.693860 
# 
# From -- ./inp_files/26141.got.cif
#   From: 2010.05.17/outbox.cif.g08.bks.cpg/sg69_14_cif.got.tgz:26141.got - 2010.06.03 19:29:58.
