data_PCOD9512267
_publ_section_title
;
Structure prediction by ZEFSAII (Michael W. Deem and Ramdas Pophale) SiO2 
 PCOD9512267
Probable space group: F M M M
;
_chemical_formula_sum "Si O2"
_cell_formula_units_Z 160
_cell_length_a 31.629451
_cell_length_b 17.708274
_cell_length_c 16.502446
_cell_angle_alpha 90.000000
_cell_angle_beta 90.000000
_cell_angle_gamma 90.000000
_cell_volume 9243.069261
_symmetry_space_group_name_H-M "F M M M"
_symmetry_group_IT_number 69
_symmetry_cell_setting 'orthorhombic'
loop_
_space_group_symop_operation_xyz
x,y,z
-x,-y,z
x,-y,-z
-x,y,-z
-x,-y,-z
x,y,-z
-x,y,z
x,-y,z
x,1/2+y,1/2+z
-x,1/2-y,1/2+z
x,1/2-y,1/2-z
-x,1/2+y,1/2-z
-x,1/2-y,1/2-z
x,1/2+y,1/2-z
-x,1/2+y,1/2+z
x,1/2-y,1/2+z
1/2+x,y,1/2+z
1/2-x,-y,1/2+z
1/2+x,-y,1/2-z
1/2-x,y,1/2-z
1/2-x,-y,1/2-z
1/2+x,y,1/2-z
1/2-x,y,1/2+z
1/2+x,-y,1/2+z
1/2+x,1/2+y,z
1/2-x,1/2-y,z
1/2+x,1/2-y,-z
1/2-x,1/2+y,-z
1/2-x,1/2-y,-z
1/2+x,1/2+y,-z
1/2-x,1/2+y,z
1/2+x,1/2-y,z
loop_
_atom_site_type_symbol
_atom_site_label
_atom_site_fract_x
_atom_site_fract_y
_atom_site_fract_z
Si Si1 0.781546 0.415579 0.327610
Si Si2 0.500000 0.815261 0.681486
Si Si3 0.649920 0.166336 0.230665
Si Si4 0.938007 0.589964 0.220186
Si Si5 0.000000 0.332706 0.905540
Si Si6 0.719539 0.318124 0.592665
O O1 0.797302 0.500000 0.339274
O O2 0.750000 0.414337 0.250000
O O3 0.820038 0.361614 0.303703
O O4 0.751501 0.388363 0.399492
O O5 0.500000 0.750000 0.750000
O O6 0.460126 0.868807 0.702368
O O7 0.500000 0.759113 0.605087
O O8 0.633434 0.250000 0.250000
O O9 0.611216 0.109973 0.219112
O O10 0.680050 0.171171 0.151816
O O11 0.945316 0.500000 0.220609
O O12 0.960571 0.629461 0.142664
O O13 0.000000 0.351544 0.000000
O O14 0.707089 0.304300 0.500000
O O15 0.750000 0.250000 0.621924
#
# Coordination Sequence:
#
# PCOD9512267 Si02
#       6
#    32  16  32  32  16  32
#     4   9  18  31  49  71  96 130 171 218 267 311
#     4   8  16  35  56  78 108 143 175 212 250 314
#     4  11  19  32  54  77 102 137 181 227 260 307
#     4  10  20  34  55  83 112 143 178 218 267 318
#     4  10  20  36  58  84 114 144 172 212 266 324
#     4  10  20  34  50  72 102 138 176 218 272 326
#
# _framework density 17.310267
#
# number of rings (size 3 to 8) (size 9 to 14) (size 15 to 20)
#    0.000    2.400    2.000    3.600    0.000    2.800 
#    0.000    0.000    0.000    1.200    0.000    0.000 
#    0.000    0.000    0.000    0.000    0.000    0.000 
#
# Total GULP energy -222687.641257 kJ/mol
# GULP energy per Si atom -5567.191031 kJ/mol
# Density = 1.727087 g / cm^3
# Si number density = 17.310267 Si / 1000 Ang^3
#
#
#
# Elastic Constant Matrix: (Units=GPa)
#
#
# Indices 1 2 3 4 5 6 
#
# 1 91.8014 26.6258 25.3858 0.0000 0.0000 0.0000
# 2 26.6258 116.0644 15.6711 0.0000 0.0000 0.0000
# 3 25.3858 15.6711 40.4775 0.0000 0.0000 0.0000
# 4 0.0000 0.0000 0.0000 13.4878 0.0000 0.0000
# 5 0.0000 0.0000 0.0000 0.0000 9.4635 0.0000
# 6 0.0000 0.0000 0.0000 0.0000 0.0000 28.3087
#
#
#
# Elastic Compliance Matrix: (Units=1/GPa)
#
#
# Indices 1 2 3 4 5 6 
#
# 1 0.013640 -0.002083 -0.007748 0.000000 0.000000 0.000000
# 2 -0.002083 0.009409 -0.002337 0.000000 0.000000 0.000000
# 3 -0.007748 -0.002337 0.030469 0.000000 0.000000 0.000000
# 4 0.000000 0.000000 0.000000 0.074141 0.000000 0.000000
# 5 0.000000 0.000000 0.000000 0.000000 0.105669 0.000000
# 6 0.000000 0.000000 0.000000 0.000000 0.000000 0.035325
#
#
# Mechanical properties :
#
#
# Convention : Reuss Voigt Hill
#
# Bulk Modulus (GPa) = 34.26631 42.63430 38.45030
# Shear Modulus (GPa) = 16.51719 22.29603 19.40661
#
# Velocity S-wave (km/s) = 3.09234 3.59280 3.35192
# Velocity P-wave (km/s) = 5.70863 6.47255 6.10255
#
# Compressibility (1/GPa) = 0.02918319
#
# Stress axis : x y z
#
# Youngs Moduli (GPa) = 73.31542 106.27874 32.82049
#
# Poissons Ratio (x) = 0.22137 0.25429
# Poissons Ratio (y) = 0.15271 0.07669
# Poissons Ratio (z) = 0.56803 0.24832
#
# Static dielectric constant tensor:
#      x y z
#    x 1.590830 0.000000 0.000000 
#    y 0.000000 1.640730 0.000000 
#    z 0.000000 0.000000 1.586980 
# 
# From -- ./inp_files/27644.got.cif
#   From: 2010.05.17/outbox.cif.g08.bks.cpg/sg69_14_cif.got.tgz:27644.got - 2010.06.03 19:29:58.
