data_PCOD9512209
_publ_section_title
;
Structure prediction by ZEFSAII (Michael W. Deem and Ramdas Pophale) SiO2 
 PCOD9512209
Probable space group: F M M M
;
_chemical_formula_sum "Si O2"
_cell_formula_units_Z 192
_cell_length_a 25.486531
_cell_length_b 18.632370
_cell_length_c 22.532963
_cell_angle_alpha 90.000000
_cell_angle_beta 90.000000
_cell_angle_gamma 90.000000
_cell_volume 10700.328989
_symmetry_space_group_name_H-M "F M M M"
_symmetry_group_IT_number 69
_symmetry_cell_setting 'orthorhombic'
loop_
_space_group_symop_operation_xyz
x,y,z
-x,-y,z
x,-y,-z
-x,y,-z
-x,-y,-z
x,y,-z
-x,y,z
x,-y,z
x,1/2+y,1/2+z
-x,1/2-y,1/2+z
x,1/2-y,1/2-z
-x,1/2+y,1/2-z
-x,1/2-y,1/2-z
x,1/2+y,1/2-z
-x,1/2+y,1/2+z
x,1/2-y,1/2+z
1/2+x,y,1/2+z
1/2-x,-y,1/2+z
1/2+x,-y,1/2-z
1/2-x,y,1/2-z
1/2-x,-y,1/2-z
1/2+x,y,1/2-z
1/2-x,y,1/2+z
1/2+x,-y,1/2+z
1/2+x,1/2+y,z
1/2-x,1/2-y,z
1/2+x,1/2-y,-z
1/2-x,1/2+y,-z
1/2-x,1/2-y,-z
1/2+x,1/2+y,-z
1/2-x,1/2+y,z
1/2+x,1/2-y,z
loop_
_atom_site_type_symbol
_atom_site_label
_atom_site_fract_x
_atom_site_fract_y
_atom_site_fract_z
Si Si1 0.341886 0.080827 0.070917
Si Si2 0.940088 0.163795 0.380054
Si Si3 0.626172 0.914469 0.644270
Si Si4 0.560363 0.835212 0.743214
Si Si5 0.061846 0.183279 0.933536
Si Si6 0.726378 0.412490 0.068951
O O1 0.393459 0.123577 0.087595
O O2 0.284783 0.111998 0.087558
O O3 0.345934 0.000000 0.095340
O O4 0.339330 0.076309 0.000000
O O5 0.938417 0.140380 0.311543
O O6 0.929712 0.248609 0.390445
O O7 0.000000 0.151046 0.402128
O O8 0.602644 0.874715 0.702091
O O9 0.588437 0.887349 0.591713
O O10 0.683083 0.892638 0.617941
O O11 0.625097 0.000000 0.652731
O O12 0.500000 0.845387 0.720412
O O13 0.569212 0.750000 0.750000
O O14 0.000000 0.172270 0.935810
O O15 0.080577 0.201185 0.000000
O O16 0.727740 0.500000 0.067254
O O17 0.715059 0.390029 0.000000
#
# Coordination Sequence:
#
# PCOD9512209 Si02
#       6
#    32  32  32  32  32  32
#     4   9  18  34  56  81 110 144 184 230 277 328
#     4  10  20  35  56  78 108 147 187 230 277 329
#     4  11  21  34  56  83 109 142 186 229 268 321
#     4  10  20  37  57  75 105 152 190 220 269 325
#     4  10  20  33  51  78 111 145 178 219 279 340
#     4   8  16  33  55  79 111 148 179 217 278 338
#
# _framework density 17.943373999999999
#
# number of rings (size 3 to 8) (size 9 to 14) (size 15 to 20)
#    0.000    2.333    1.667    2.500    0.000    4.333 
#    0.000    5.000    0.000    7.000    0.000    0.000 
#    0.000    0.000    0.000    0.000    0.000    0.000 
#
# Total GULP energy -267257.773901 kJ/mol
# GULP energy per Si atom -5567.870290 kJ/mol
# Density = 1.790253 g / cm^3
# Si number density = 17.943374 Si / 1000 Ang^3
#
#
#
# Elastic Constant Matrix: (Units=GPa)
#
#
# Indices 1 2 3 4 5 6 
#
# 1 111.6585 48.1765 40.4100 0.0000 0.0000 0.0000
# 2 48.1765 40.9787 14.0293 0.0000 0.0000 0.0000
# 3 40.4100 14.0293 65.2731 0.0000 0.0000 0.0000
# 4 0.0000 0.0000 0.0000 29.3986 0.0000 0.0000
# 5 0.0000 0.0000 0.0000 0.0000 28.2541 0.0000
# 6 0.0000 0.0000 0.0000 0.0000 0.0000 61.9877
#
#
#
# Elastic Compliance Matrix: (Units=1/GPa)
#
#
# Indices 1 2 3 4 5 6 
#
# 1 0.021949 -0.022832 -0.008681 0.000000 0.000000 0.000000
# 2 -0.022832 0.050092 0.003369 0.000000 0.000000 0.000000
# 3 -0.008681 0.003369 0.019971 0.000000 0.000000 0.000000
# 4 0.000000 0.000000 0.000000 0.034015 0.000000 0.000000
# 5 0.000000 0.000000 0.000000 0.000000 0.035393 0.000000
# 6 0.000000 0.000000 0.000000 0.000000 0.000000 0.016132
#
#
# Mechanical properties :
#
#
# Convention : Reuss Voigt Hill
#
# Bulk Modulus (GPa) = 27.99332 47.01576 37.50454
# Shear Modulus (GPa) = 20.34605 31.61437 25.98021
#
# Velocity S-wave (km/s) = 3.37100 4.20205 3.80926
# Velocity P-wave (km/s) = 5.54854 7.05706 6.34777
#
# Compressibility (1/GPa) = 0.03572281
#
# Stress axis : x y z
#
# Youngs Moduli (GPa) = 45.56068 19.96325 50.07382
#
# Poissons Ratio (x) = 0.45580 0.43469
# Poissons Ratio (y) = 1.04024 -0.16869
# Poissons Ratio (z) = 0.39551 -0.06725
#
# Static dielectric constant tensor:
#      x y z
#    x 1.634750 0.000000 0.000000 
#    y 0.000000 1.621100 0.000000 
#    z 0.000000 0.000000 1.648410 
# 
# From -- ./inp_files/32841.got.cif
#   From: 2010.05.17/outbox.cif.g08.bks.cpg/sg69_17_cif.got.tgz:32841.got - 2010.06.03 19:29:58.
