data_PCOD9512641
_publ_section_title
;
Structure prediction by ZEFSAII (Michael W. Deem and Ramdas Pophale) SiO2 
 PCOD9512641
Probable space group: F M M M
;
_chemical_formula_sum "Si O2"
_cell_formula_units_Z 192
_cell_length_a 21.855075
_cell_length_b 16.100964
_cell_length_c 26.705798
_cell_angle_alpha 90.000000
_cell_angle_beta 90.000000
_cell_angle_gamma 90.000000
_cell_volume 9397.443859
_symmetry_space_group_name_H-M "F M M M"
_symmetry_group_IT_number 69
_symmetry_cell_setting 'orthorhombic'
loop_
_space_group_symop_operation_xyz
x,y,z
-x,-y,z
x,-y,-z
-x,y,-z
-x,-y,-z
x,y,-z
-x,y,z
x,-y,z
x,1/2+y,1/2+z
-x,1/2-y,1/2+z
x,1/2-y,1/2-z
-x,1/2+y,1/2-z
-x,1/2-y,1/2-z
x,1/2+y,1/2-z
-x,1/2+y,1/2+z
x,1/2-y,1/2+z
1/2+x,y,1/2+z
1/2-x,-y,1/2+z
1/2+x,-y,1/2-z
1/2-x,y,1/2-z
1/2-x,-y,1/2-z
1/2+x,y,1/2-z
1/2-x,y,1/2+z
1/2+x,-y,1/2+z
1/2+x,1/2+y,z
1/2-x,1/2-y,z
1/2+x,1/2-y,-z
1/2-x,1/2+y,-z
1/2-x,1/2-y,-z
1/2+x,1/2+y,-z
1/2-x,1/2+y,z
1/2+x,1/2-y,z
loop_
_atom_site_type_symbol
_atom_site_label
_atom_site_fract_x
_atom_site_fract_y
_atom_site_fract_z
Si Si1 0.238168 0.904327 0.604914
Si Si2 0.112068 0.663544 0.940975
Si Si3 0.302749 0.319223 0.697510
Si Si4 0.000000 0.344151 0.230237
Si Si5 0.639932 0.195055 0.376538
Si Si6 0.121700 0.904650 0.781643
Si Si7 0.000000 0.595195 0.879002
O O1 0.179977 0.870056 0.573936
O O2 0.219886 0.895412 0.663561
O O3 0.296781 0.843440 0.601878
O O4 0.251209 0.000000 0.592365
O O5 0.106563 0.759077 0.921833
O O6 0.060134 0.612616 0.911838
O O7 0.103921 0.656952 0.000000
O O8 0.250000 0.250000 0.699073
O O9 0.351748 0.271717 0.662784
O O10 0.329688 0.351109 0.749372
O O11 0.000000 0.250000 0.250000
O O12 0.059215 0.389664 0.252055
O O13 0.000000 0.348241 0.170397
O O14 0.614401 0.125793 0.338866
O O15 0.140063 0.000000 0.781074
O O16 0.000000 0.500000 0.861680
#
# Coordination Sequence:
#
# PCOD9512641 Si02
#       7
#    32  32  32  16  32  32  16
#     4  10  20  36  58  88 124 158 200 255 310 360
#     4  11  24  42  64  88 119 162 206 254 316 379
#     4   9  19  34  54  81 118 163 201 237 294 365
#     4  12  24  41  65  93 128 173 207 234 288 365
#     4  10  22  38  57  83 118 161 206 248 292 355
#     4  12  23  37  59  90 126 162 206 253 301 358
#     4  12  25  42  66  98 131 157 195 251 306 362
#
# _framework density 20.431087999999999
#
# number of rings (size 3 to 8) (size 9 to 14) (size 15 to 20)
#    0.000    1.333    0.000    8.500    0.000    9.000 
#    0.000    4.167    0.000    1.500    0.000    0.000 
#    0.000    8.000    0.000    0.000    0.000    0.000 
#
# Total GULP energy -268052.468737 kJ/mol
# GULP energy per Si atom -5584.426432 kJ/mol
# Density = 2.038459 g / cm^3
# Si number density = 20.431088 Si / 1000 Ang^3
#
#
#
# Elastic Constant Matrix: (Units=GPa)
#
#
# Indices 1 2 3 4 5 6 
#
# 1 49.3940 12.1715 23.1796 0.0000 0.0000 0.0000
# 2 12.1715 114.3153 32.9046 0.0000 0.0000 0.0000
# 3 23.1796 32.9046 111.1737 0.0000 0.0000 0.0000
# 4 0.0000 0.0000 0.0000 15.3178 0.0000 0.0000
# 5 0.0000 0.0000 0.0000 0.0000 20.7530 0.0000
# 6 0.0000 0.0000 0.0000 0.0000 0.0000 27.5831
#
#
#
# Elastic Compliance Matrix: (Units=1/GPa)
#
#
# Indices 1 2 3 4 5 6 
#
# 1 0.022578 -0.001147 -0.004368 0.000000 0.000000 0.000000
# 2 -0.001147 0.009621 -0.002608 0.000000 0.000000 0.000000
# 3 -0.004368 -0.002608 0.010678 0.000000 0.000000 0.000000
# 4 0.000000 0.000000 0.000000 0.065284 0.000000 0.000000
# 5 0.000000 0.000000 0.000000 0.000000 0.048186 0.000000
# 6 0.000000 0.000000 0.000000 0.000000 0.000000 0.036254
#
#
# Mechanical properties :
#
#
# Convention : Reuss Voigt Hill
#
# Bulk Modulus (GPa) = 37.55175 45.71049 41.63112
# Shear Modulus (GPa) = 22.96503 26.50593 24.73548
#
# Velocity S-wave (km/s) = 3.35628 3.60576 3.48326
# Velocity P-wave (km/s) = 5.78266 6.30531 6.04963
#
# Compressibility (1/GPa) = 0.02662992
#
# Stress axis : x y z
#
# Youngs Moduli (GPa) = 44.29136 103.94340 93.65320
#
# Poissons Ratio (x) = 0.11918 0.40908
# Poissons Ratio (y) = 0.05079 0.24428
# Poissons Ratio (z) = 0.19347 0.27113
#
# Static dielectric constant tensor:
#      x y z
#    x 1.812050 0.000000 0.000000 
#    y 0.000000 1.746430 0.000000 
#    z 0.000000 0.000000 1.760060 
# 
# From -- ./inp_files/43206.got.cif
#   From: 2010.05.17/outbox.cif.g08.bks.cpg/sg69_22_cif.got.tgz:43206.got - 2010.06.03 19:29:58.
