data_PCOD9512703
_publ_section_title
;
Structure prediction by ZEFSAII (Michael W. Deem and Ramdas Pophale) SiO2 
 PCOD9512703
Probable space group: F M M M
;
_chemical_formula_sum "Si O2"
_cell_formula_units_Z 192
_cell_length_a 29.743326
_cell_length_b 19.130169
_cell_length_c 18.609601
_cell_angle_alpha 90.000000
_cell_angle_beta 90.000000
_cell_angle_gamma 90.000000
_cell_volume 10588.767185
_symmetry_space_group_name_H-M "F M M M"
_symmetry_group_IT_number 69
_symmetry_cell_setting 'orthorhombic'
loop_
_space_group_symop_operation_xyz
x,y,z
-x,-y,z
x,-y,-z
-x,y,-z
-x,-y,-z
x,y,-z
-x,y,z
x,-y,z
x,1/2+y,1/2+z
-x,1/2-y,1/2+z
x,1/2-y,1/2-z
-x,1/2+y,1/2-z
-x,1/2-y,1/2-z
x,1/2+y,1/2-z
-x,1/2+y,1/2+z
x,1/2-y,1/2+z
1/2+x,y,1/2+z
1/2-x,-y,1/2+z
1/2+x,-y,1/2-z
1/2-x,y,1/2-z
1/2-x,-y,1/2-z
1/2+x,y,1/2-z
1/2-x,y,1/2+z
1/2+x,-y,1/2+z
1/2+x,1/2+y,z
1/2-x,1/2-y,z
1/2+x,1/2-y,-z
1/2-x,1/2+y,-z
1/2-x,1/2-y,-z
1/2+x,1/2+y,-z
1/2-x,1/2+y,z
1/2+x,1/2-y,z
loop_
_atom_site_type_symbol
_atom_site_label
_atom_site_fract_x
_atom_site_fract_y
_atom_site_fract_z
Si Si1 0.500000 0.849272 0.685314
Si Si2 0.068721 0.917090 0.920372
Si Si3 0.321632 0.418238 0.413390
Si Si4 0.152668 0.675397 0.583137
Si Si5 0.743615 0.833186 0.333904
Si Si6 0.098007 0.316517 0.913830
Si Si7 0.500000 0.815771 0.155356
O O1 0.458083 0.882414 0.644059
O O2 0.500000 0.858765 0.770436
O O3 0.500000 0.766751 0.672055
O O4 0.119222 0.889881 0.917248
O O5 0.064853 0.000000 0.916422
O O6 0.051750 0.894561 0.000000
O O7 0.317694 0.413877 0.500000
O O8 0.321802 0.500000 0.393311
O O9 0.280393 0.376546 0.378247
O O10 0.367872 0.378663 0.393156
O O11 0.167604 0.688801 0.500000
O O12 0.194012 0.657237 0.634040
O O13 0.123246 0.743517 0.606718
O O14 0.750000 0.850630 0.250000
O O15 0.750000 0.750000 0.341974
O O16 0.047757 0.326993 0.884057
O O17 0.094388 0.314195 0.000000
#
# Coordination Sequence:
#
# PCOD9512703 Si02
#       7
#    16  32  32  32  32  32  16
#     4  11  22  36  53  85 124 161 197 239 294 363
#     4  10  21  38  61  90 123 157 197 249 305 362
#     4  10  22  41  64  88 116 155 202 251 301 351
#     4  10  20  36  62  89 116 155 205 250 293 353
#     4  11  23  38  58  91 125 160 194 239 298 367
#     4  10  20  38  63  87 114 151 203 256 297 345
#     4  11  23  37  57  88 119 159 202 252 292 345
#
# _framework density 18.132421999999998
#
# number of rings (size 3 to 8) (size 9 to 14) (size 15 to 20)
#    0.000    1.667    3.333    1.250    0.000    4.333 
#    0.000    5.417    0.000    2.000    0.000    0.000 
#    0.000    0.000    0.000    0.000    0.000    0.000 
#
# Total GULP energy -267755.958414 kJ/mol
# GULP energy per Si atom -5578.249134 kJ/mol
# Density = 1.809115 g / cm^3
# Si number density = 18.132422 Si / 1000 Ang^3
#
#
#
# Elastic Constant Matrix: (Units=GPa)
#
#
# Indices 1 2 3 4 5 6 
#
# 1 170.9615 45.1760 76.2944 0.0000 0.0000 0.0000
# 2 45.1760 68.4198 39.2521 0.0000 0.0000 0.0000
# 3 76.2944 39.2521 81.8904 0.0000 0.0000 0.0000
# 4 0.0000 0.0000 0.0000 23.1507 0.0000 0.0000
# 5 0.0000 0.0000 0.0000 0.0000 21.1285 0.0000
# 6 0.0000 0.0000 0.0000 0.0000 0.0000 61.5054
#
#
#
# Elastic Compliance Matrix: (Units=1/GPa)
#
#
# Indices 1 2 3 4 5 6 
#
# 1 0.010164 -0.001763 -0.008624 0.000000 0.000000 0.000000
# 2 -0.001763 0.020465 -0.008167 0.000000 0.000000 0.000000
# 3 -0.008624 -0.008167 0.024161 0.000000 0.000000 0.000000
# 4 0.000000 0.000000 0.000000 0.043195 0.000000 0.000000
# 5 0.000000 0.000000 0.000000 0.000000 0.047330 0.000000
# 6 0.000000 0.000000 0.000000 0.000000 0.000000 0.016259
#
#
# Mechanical properties :
#
#
# Convention : Reuss Voigt Hill
#
# Bulk Modulus (GPa) = 56.55613 71.41297 63.98455
# Shear Modulus (GPa) = 24.44093 31.86021 28.15057
#
# Velocity S-wave (km/s) = 3.67538 4.19631 3.94445
# Velocity P-wave (km/s) = 7.01922 7.93400 7.49059
#
# Compressibility (1/GPa) = 0.01768155
#
# Stress axis : x y z
#
# Youngs Moduli (GPa) = 98.38764 48.86377 41.38964
#
# Poissons Ratio (x) = 0.08616 0.35695
# Poissons Ratio (y) = 0.17349 0.33801
# Poissons Ratio (z) = 0.84850 0.39905
#
# Static dielectric constant tensor:
#      x y z
#    x 1.632930 0.000000 0.000000 
#    y 0.000000 1.614160 0.000000 
#    z 0.000000 0.000000 1.627230 
# 
# From -- ./inp_files/27823.got.cif
#   From: 2010.05.17/outbox.cif.g08.bks.cpg/sg69_14_cif.got.tgz:27823.got - 2010.06.03 19:29:58.
