data_PCOD9512287
_publ_section_title
;
Structure prediction by ZEFSAII (Michael W. Deem and Ramdas Pophale) SiO2 
 PCOD9512287
Probable space group: F M M M
;
_chemical_formula_sum "Si O2"
_cell_formula_units_Z 144
_cell_length_a 28.806184
_cell_length_b 37.206855
_cell_length_c 9.061928
_cell_angle_alpha 90.000000
_cell_angle_beta 90.000000
_cell_angle_gamma 90.000000
_cell_volume 9712.461258
_symmetry_space_group_name_H-M "F M M M"
_symmetry_group_IT_number 69
_symmetry_cell_setting 'orthorhombic'
loop_
_space_group_symop_operation_xyz
x,y,z
-x,-y,z
x,-y,-z
-x,y,-z
-x,-y,-z
x,y,-z
-x,y,z
x,-y,z
x,1/2+y,1/2+z
-x,1/2-y,1/2+z
x,1/2-y,1/2-z
-x,1/2+y,1/2-z
-x,1/2-y,1/2-z
x,1/2+y,1/2-z
-x,1/2+y,1/2+z
x,1/2-y,1/2+z
1/2+x,y,1/2+z
1/2-x,-y,1/2+z
1/2+x,-y,1/2-z
1/2-x,y,1/2-z
1/2-x,-y,1/2-z
1/2+x,y,1/2-z
1/2-x,y,1/2+z
1/2+x,-y,1/2+z
1/2+x,1/2+y,z
1/2-x,1/2-y,z
1/2+x,1/2-y,-z
1/2-x,1/2+y,-z
1/2-x,1/2-y,-z
1/2+x,1/2+y,-z
1/2-x,1/2+y,z
1/2+x,1/2-y,z
loop_
_atom_site_type_symbol
_atom_site_label
_atom_site_fract_x
_atom_site_fract_y
_atom_site_fract_z
Si Si1 0.107420 0.066784 0.322427
Si Si2 0.945886 0.860162 0.323271
Si Si3 0.055623 0.000000 0.826136
Si Si4 0.200828 0.043064 0.174670
Si Si5 0.556500 0.213640 0.670058
O O1 0.108509 0.062914 0.500000
O O2 0.084209 0.105008 0.285430
O O3 0.076847 0.034977 0.251961
O O4 0.158581 0.062736 0.255069
O O5 0.944595 0.855484 0.500000
O O6 0.929453 0.823338 0.248329
O O7 0.000000 0.866383 0.281781
O O8 0.000000 0.000000 0.813969
O O9 0.068297 0.000000 0.000000
O O10 0.250000 0.051610 0.250000
O O11 0.193258 0.000000 0.192265
O O12 0.201756 0.050667 0.000000
O O13 0.570515 0.213841 0.500000
O O14 0.500000 0.214030 0.675477
O O15 0.572423 0.250000 0.750000
#
# Coordination Sequence:
#
# PCOD9512287 Si02
#       5
#    32  32  16  32  32
#     4  11  21  33  50  69  92 122 157 195 237 281
#     4   9  18  31  45  64  92 125 159 193 228 270
#     4  11  23  35  46  63  90 125 163 199 231 269
#     4  10  20  34  52  71  92 116 149 193 241 287
#     4   9  16  26  42  63  87 118 154 191 230 271
#
# _framework density 14.826314
#
# number of rings (size 3 to 8) (size 9 to 14) (size 15 to 20)
#    0.000    2.111    1.111    3.000    0.000    7.111 
#    0.000    2.222    0.000    0.000    0.000    0.000 
#    0.000    0.889    0.000    9.333    0.000    4.444 
#
# Total GULP energy -200848.271977 kJ/mol
# GULP energy per Si atom -5579.118666 kJ/mol
# Density = 1.479257 g / cm^3
# Si number density = 14.826314 Si / 1000 Ang^3
#
#
#
# Elastic Constant Matrix: (Units=GPa)
#
#
# Indices 1 2 3 4 5 6 
#
# 1 83.3760 64.7864 53.7018 -0.0070 0.0130 0.0042
# 2 64.7864 149.7981 81.1356 -0.0056 0.0059 0.0021
# 3 53.7018 81.1356 90.1655 -0.0126 0.0124 0.0035
# 4 -0.0070 -0.0056 -0.0126 26.9427 0.0088 0.0025
# 5 0.0130 0.0059 0.0124 0.0088 22.1978 -0.0039
# 6 0.0042 0.0021 0.0035 0.0025 -0.0039 3.5299
#
#
#
# Elastic Compliance Matrix: (Units=1/GPa)
#
#
# Indices 1 2 3 4 5 6 
#
# 1 0.020893 -0.004479 -0.008413 0.000001 -0.000006 -0.000014
# 2 -0.004479 0.013983 -0.009915 -0.000003 0.000004 0.000007
# 3 -0.008413 -0.009915 0.025023 0.000007 -0.000006 -0.000009
# 4 0.000001 -0.000003 0.000007 0.037116 -0.000015 -0.000026
# 5 -0.000006 0.000004 -0.000006 -0.000015 0.045049 0.000050
# 6 -0.000014 0.000007 -0.000009 -0.000026 0.000050 0.283295
#
#
# Mechanical properties :
#
#
# Convention : Reuss Voigt Hill
#
# Bulk Modulus (GPa) = 70.00276 80.28747 75.14511
# Shear Modulus (GPa) = 10.51001 18.78181 14.64591
#
# Velocity S-wave (km/s) = 2.66536 3.56306 3.14639
# Velocity P-wave (km/s) = 7.53591 8.43782 7.99958
#
# Compressibility (1/GPa) = 0.01428515
#
# Stress axis : x y z
#
# Youngs Moduli (GPa) = 47.86212 71.51447 39.96246
#
# Poissons Ratio (x) = 0.32034 0.33621
# Poissons Ratio (y) = 0.21439 0.39622
# Poissons Ratio (z) = 0.40267 0.70906
#
# Static dielectric constant tensor:
#      x y z
#    x 1.469410 0.000000 0.000000 
#    y 0.000000 1.472790 0.000000 
#    z 0.000000 0.000000 1.495390 
# 
# From -- ./inp_files/5591.got.cif
#   From: 2010.05.17/outbox.cif.g08.bks.cpg/sg69_3_cif.got.tgz:5591.got - 2010.06.03 19:29:58.
