data_PCOD9512394
_publ_section_title
;
Structure prediction by ZEFSAII (Michael W. Deem and Ramdas Pophale) SiO2 
 PCOD9512394
Probable space group: F M M M
;
_chemical_formula_sum "Si O2"
_cell_formula_units_Z 192
_cell_length_a 30.783410
_cell_length_b 18.050559
_cell_length_c 17.759838
_cell_angle_alpha 90.000000
_cell_angle_beta 90.000000
_cell_angle_gamma 90.000000
_cell_volume 9868.391773
_symmetry_space_group_name_H-M "F M M M"
_symmetry_group_IT_number 69
_symmetry_cell_setting 'orthorhombic'
loop_
_space_group_symop_operation_xyz
x,y,z
-x,-y,z
x,-y,-z
-x,y,-z
-x,-y,-z
x,y,-z
-x,y,z
x,-y,z
x,1/2+y,1/2+z
-x,1/2-y,1/2+z
x,1/2-y,1/2-z
-x,1/2+y,1/2-z
-x,1/2-y,1/2-z
x,1/2+y,1/2-z
-x,1/2+y,1/2+z
x,1/2-y,1/2+z
1/2+x,y,1/2+z
1/2-x,-y,1/2+z
1/2+x,-y,1/2-z
1/2-x,y,1/2-z
1/2-x,-y,1/2-z
1/2+x,y,1/2-z
1/2-x,y,1/2+z
1/2+x,-y,1/2+z
1/2+x,1/2+y,z
1/2-x,1/2-y,z
1/2+x,1/2-y,-z
1/2-x,1/2+y,-z
1/2-x,1/2-y,-z
1/2+x,1/2+y,-z
1/2-x,1/2+y,z
1/2+x,1/2-y,z
loop_
_atom_site_type_symbol
_atom_site_label
_atom_site_fract_x
_atom_site_fract_y
_atom_site_fract_z
Si Si1 0.500000 0.912354 0.857032
Si Si2 0.591184 0.648795 0.414807
Si Si3 0.338965 0.589464 0.135198
Si Si4 0.333286 0.089356 0.809786
Si Si5 0.243638 0.409830 0.916474
Si Si6 0.922920 0.323297 0.415094
Si Si7 0.500000 0.171618 0.704405
O O1 0.457008 0.878359 0.894253
O O2 0.500000 0.889927 0.769257
O O3 0.500000 0.000000 0.866507
O O4 0.602016 0.625201 0.500000
O O5 0.625440 0.616622 0.356306
O O6 0.591030 0.737498 0.411127
O O7 0.342361 0.500000 0.130332
O O8 0.336240 0.611511 0.222971
O O9 0.293339 0.612121 0.097872
O O10 0.380884 0.626372 0.098684
O O11 0.289672 0.115395 0.852313
O O12 0.332779 0.000000 0.810786
O O13 0.243299 0.500000 0.914683
O O14 0.229376 0.386539 0.000000
O O15 0.940181 0.336368 0.500000
O O16 0.958454 0.334637 0.350042
O O17 0.500000 0.250000 0.750000
#
# Coordination Sequence:
#
# PCOD9512394 Si02
#       7
#    16  32  32  32  32  32  16
#     4  12  25  40  63  94 121 153 201 247 295 360
#     4  11  23  39  58  85 120 158 197 245 305 367
#     4  10  21  37  60  88 120 156 203 256 303 355
#     4  10  20  34  56  86 119 156 200 249 304 368
#     4   9  17  32  55  83 117 158 200 248 309 366
#     4  11  24  41  63  88 117 158 203 242 296 366
#     4  12  23  43  67  85 117 162 192 239 297 357
#
# _framework density 19.456057999999999
#
# number of rings (size 3 to 8) (size 9 to 14) (size 15 to 20)
#    0.000    1.500    1.667    3.500    0.000    8.667 
#    0.000    0.833    0.000    6.500    0.000    0.000 
#    0.000    0.000    0.000    0.000    0.000    0.000 
#
# Total GULP energy -268241.439696 kJ/mol
# GULP energy per Si atom -5588.363327 kJ/mol
# Density = 1.941177 g / cm^3
# Si number density = 19.456058 Si / 1000 Ang^3
#
#
#
# Elastic Constant Matrix: (Units=GPa)
#
#
# Indices 1 2 3 4 5 6 
#
# 1 87.0623 15.3565 10.2553 0.0000 0.0000 0.0000
# 2 15.3565 33.0044 17.3633 0.0000 0.0000 0.0000
# 3 10.2553 17.3633 93.5441 0.0000 0.0000 0.0000
# 4 0.0000 0.0000 0.0000 7.8443 0.0000 0.0000
# 5 0.0000 0.0000 0.0000 0.0000 39.2929 0.0000
# 6 0.0000 0.0000 0.0000 0.0000 0.0000 30.1945
#
#
#
# Elastic Compliance Matrix: (Units=1/GPa)
#
#
# Indices 1 2 3 4 5 6 
#
# 1 0.012522 -0.005656 -0.000323 0.000000 0.000000 0.000000
# 2 -0.005656 0.036133 -0.006087 0.000000 0.000000 0.000000
# 3 -0.000323 -0.006087 0.011855 0.000000 0.000000 0.000000
# 4 0.000000 0.000000 0.000000 0.127482 0.000000 0.000000
# 5 0.000000 0.000000 0.000000 0.000000 0.025450 0.000000
# 6 0.000000 0.000000 0.000000 0.000000 0.000000 0.033119
#
#
# Mechanical properties :
#
#
# Convention : Reuss Voigt Hill
#
# Bulk Modulus (GPa) = 27.48903 33.28456 30.38680
# Shear Modulus (GPa) = 17.67921 26.84206 22.26063
#
# Velocity S-wave (km/s) = 3.01769 3.71836 3.38620
# Velocity P-wave (km/s) = 5.12849 5.96487 5.56242
#
# Compressibility (1/GPa) = 0.03637815
#
# Stress axis : x y z
#
# Youngs Moduli (GPa) = 79.86103 27.67556 84.35019
#
# Poissons Ratio (x) = 0.15654 0.02723
# Poissons Ratio (y) = 0.45172 0.51342
# Poissons Ratio (z) = 0.02578 0.16845
#
# Static dielectric constant tensor:
#      x y z
#    x 1.651930 0.000000 0.000000 
#    y 0.000000 1.656670 0.000000 
#    z 0.000000 0.000000 1.679250 
# 
# From -- ./inp_files/27777.got.cif
#   From: 2010.05.17/outbox.cif.g08.bks.cpg/sg69_14_cif.got.tgz:27777.got - 2010.06.03 19:29:58.
