data_PCOD9512594
_publ_section_title
;
Structure prediction by ZEFSAII (Michael W. Deem and Ramdas Pophale) SiO2 
 PCOD9512594
Probable space group: F M M M
;
_chemical_formula_sum "Si O2"
_cell_formula_units_Z 112
_cell_length_a 22.582065
_cell_length_b 27.536704
_cell_length_c 7.854642
_cell_angle_alpha 90.000000
_cell_angle_beta 90.000000
_cell_angle_gamma 90.000000
_cell_volume 4884.296332
_symmetry_space_group_name_H-M "F M M M"
_symmetry_group_IT_number 69
_symmetry_cell_setting 'orthorhombic'
loop_
_space_group_symop_operation_xyz
x,y,z
-x,-y,z
x,-y,-z
-x,y,-z
-x,-y,-z
x,y,-z
-x,y,z
x,-y,z
x,1/2+y,1/2+z
-x,1/2-y,1/2+z
x,1/2-y,1/2-z
-x,1/2+y,1/2-z
-x,1/2-y,1/2-z
x,1/2+y,1/2-z
-x,1/2+y,1/2+z
x,1/2-y,1/2+z
1/2+x,y,1/2+z
1/2-x,-y,1/2+z
1/2+x,-y,1/2-z
1/2-x,y,1/2-z
1/2-x,-y,1/2-z
1/2+x,y,1/2-z
1/2-x,y,1/2+z
1/2+x,-y,1/2+z
1/2+x,1/2+y,z
1/2-x,1/2-y,z
1/2+x,1/2-y,-z
1/2-x,1/2+y,-z
1/2-x,1/2-y,-z
1/2+x,1/2+y,-z
1/2-x,1/2+y,z
1/2+x,1/2-y,z
loop_
_atom_site_type_symbol
_atom_site_label
_atom_site_fract_x
_atom_site_fract_y
_atom_site_fract_z
Si Si1 0.869978 0.693627 0.296059
Si Si2 0.500000 0.807212 0.704432
Si Si3 0.936037 0.442023 0.205236
Si Si4 0.685109 0.900268 0.804236
O O1 0.868695 0.689656 0.500000
O O2 0.862146 0.750000 0.250000
O O3 0.935506 0.676420 0.231759
O O4 0.822041 0.657526 0.219492
O O5 0.500000 0.812116 0.500000
O O6 0.500000 0.750000 0.750000
O O7 0.935005 0.500000 0.229077
O O8 0.874715 0.421526 0.279346
O O9 0.000000 0.423754 0.273262
O O10 0.937248 0.433556 0.000000
O O11 0.750000 0.916448 0.750000
O O12 0.681228 0.913527 0.000000
#
# Coordination Sequence:
#
# PCOD9512594 Si02
#       4
#    32  16  32  32
#     4  10  20  36  56  81 114 152 193 237 285 338
#     4   8  16  30  50  76 105 138 177 227 280 329
#     4   8  16  34  60  88 115 145 186 235 285 339
#     4  11  23  37  56  84 117 154 194 236 285 340
#
# _framework density 22.930633
#
# number of rings (size 3 to 8) (size 9 to 14) (size 15 to 20)
#    0.000    2.571    0.000    2.571    2.000    2.286 
#    0.000    2.857    0.000    2.571    0.000    8.000 
#    0.000    0.000    0.000    0.000    0.000    0.000 
#
# Total GULP energy -156226.750005 kJ/mol
# GULP energy per Si atom -5579.526786 kJ/mol
# Density = 2.287844 g / cm^3
# Si number density = 22.930633 Si / 1000 Ang^3
#
#
#
# Elastic Constant Matrix: (Units=GPa)
#
#
# Indices 1 2 3 4 5 6 
#
# 1 217.6897 51.9365 22.1223 0.0030 -0.0030 0.0027
# 2 51.9365 38.2985 -9.9060 0.0011 -0.0012 0.0011
# 3 22.1223 -9.9060 34.8279 0.0025 -0.0009 0.0018
# 4 0.0030 0.0011 0.0025 5.5061 -0.0019 0.0037
# 5 -0.0030 -0.0012 -0.0009 -0.0019 23.5802 -0.0004
# 6 0.0027 0.0011 0.0018 0.0037 -0.0004 8.3548
#
#
#
# Elastic Compliance Matrix: (Units=1/GPa)
#
#
# Indices 1 2 3 4 5 6 
#
# 1 0.009253 -0.015185 -0.010196 0.000003 0.000000 0.000001
# 2 -0.015185 0.053104 0.024749 -0.000014 0.000002 -0.000007
# 3 -0.010196 0.024749 0.042228 -0.000019 0.000001 -0.000009
# 4 0.000003 -0.000014 -0.000019 0.181616 0.000015 -0.000081
# 5 0.000000 0.000002 0.000001 0.000015 0.042408 0.000002
# 6 0.000001 -0.000007 -0.000009 -0.000081 0.000002 0.119691
#
#
# Mechanical properties :
#
#
# Convention : Reuss Voigt Hill
#
# Bulk Modulus (GPa) = 9.67847 46.56908 28.12378
# Shear Modulus (GPa) = 10.33050 22.59913 16.46481
#
# Velocity S-wave (km/s) = 2.12483 3.14274 2.68251
# Velocity P-wave (km/s) = 3.20153 5.78981 4.67823
#
# Compressibility (1/GPa) = 0.10332206
#
# Stress axis : x y z
#
# Youngs Moduli (GPa) = 108.07766 18.83100 23.68075
#
# Poissons Ratio (x) = 0.28594 0.24145
# Poissons Ratio (y) = 1.64112 -0.58608
# Poissons Ratio (z) = 1.10197 -0.46605
#
# Static dielectric constant tensor:
#      x y z
#    x 1.946660 0.000000 0.000010 
#    y 0.000000 1.850220 0.000000 
#    z 0.000010 0.000000 1.825630 
# 
# From -- ./inp_files/3707.got.cif
#   From: 2010.05.17/outbox.cif.g08.bks.cpg/sg69_2_cif.got.tgz:3707.got - 2010.06.03 19:29:58.
