data_PCOD9512333
_publ_section_title
;
Structure prediction by ZEFSAII (Michael W. Deem and Ramdas Pophale) SiO2 
 PCOD9512333
Probable space group: F M M M
;
_chemical_formula_sum "Si O2"
_cell_formula_units_Z 200
_cell_length_a 19.049966
_cell_length_b 19.859671
_cell_length_c 30.725481
_cell_angle_alpha 90.000000
_cell_angle_beta 90.000000
_cell_angle_gamma 90.000000
_cell_volume 11624.250086
_symmetry_space_group_name_H-M "F M M M"
_symmetry_group_IT_number 69
_symmetry_cell_setting 'orthorhombic'
loop_
_space_group_symop_operation_xyz
x,y,z
-x,-y,z
x,-y,-z
-x,y,-z
-x,-y,-z
x,y,-z
-x,y,z
x,-y,z
x,1/2+y,1/2+z
-x,1/2-y,1/2+z
x,1/2-y,1/2-z
-x,1/2+y,1/2-z
-x,1/2-y,1/2-z
x,1/2+y,1/2-z
-x,1/2+y,1/2+z
x,1/2-y,1/2+z
1/2+x,y,1/2+z
1/2-x,-y,1/2+z
1/2+x,-y,1/2-z
1/2-x,y,1/2-z
1/2-x,-y,1/2-z
1/2+x,y,1/2-z
1/2-x,y,1/2+z
1/2+x,-y,1/2+z
1/2+x,1/2+y,z
1/2-x,1/2-y,z
1/2+x,1/2-y,-z
1/2-x,1/2+y,-z
1/2-x,1/2-y,-z
1/2+x,1/2+y,-z
1/2-x,1/2+y,z
1/2+x,1/2-y,z
loop_
_atom_site_type_symbol
_atom_site_label
_atom_site_fract_x
_atom_site_fract_y
_atom_site_fract_z
Si Si1 0.213543 0.078014 0.618211
Si Si2 0.083421 0.672929 0.741159
Si Si3 0.580938 0.920712 0.174672
Si Si4 0.919147 0.386400 0.423686
Si Si5 0.644819 0.923533 0.668692
Si Si6 0.405260 0.500000 0.000000
Si Si7 0.282175 0.677300 0.051092
O O1 0.138217 0.095337 0.638068
O O2 0.273685 0.084264 0.655210
O O3 0.238695 0.123323 0.578612
O O4 0.213370 0.000000 0.604597
O O5 0.106369 0.750000 0.750000
O O6 0.092231 0.627546 0.784222
O O7 0.121647 0.633514 0.702318
O O8 0.000000 0.675093 0.730974
O O9 0.500000 0.912754 0.160338
O O10 0.590630 0.000000 0.186451
O O11 0.898173 0.415689 0.376465
O O12 0.908679 0.441747 0.461528
O O13 0.862705 0.328554 0.433727
O O14 0.000000 0.365373 0.423769
O O15 0.633642 0.000000 0.685453
O O16 0.250000 0.750000 0.059229
O O17 0.278225 0.662371 0.000000
#
# Coordination Sequence:
#
# PCOD9512333 Si02
#       7
#    32  32  32  32  32   8  32
#     4   9  20  36  56  81 104 134 180 226 276 329
#     4  10  21  35  51  74 106 142 181 220 262 316
#     4   9  18  35  57  75  95 131 178 228 273 312
#     4  11  21  33  56  86 119 151 183 222 272 335
#     4  10  20  34  53  81 114 144 176 220 274 332
#     4  12  21  32  54  92 126 150 183 226 275 344
#     4  10  22  37  53  76 112 148 182 218 267 330
#
# _framework density 17.205411000000002
#
# number of rings (size 3 to 8) (size 9 to 14) (size 15 to 20)
#    0.000    2.080    1.600    1.680    1.120    5.120 
#    0.000    5.600    0.000    1.440    0.000    2.240 
#    0.000    0.000    0.000    0.000    0.000    0.000 
#
# Total GULP energy -278357.471698 kJ/mol
# GULP energy per Si atom -5567.149434 kJ/mol
# Density = 1.716625 g / cm^3
# Si number density = 17.205411 Si / 1000 Ang^3
#
#
#
# Elastic Constant Matrix: (Units=GPa)
#
#
# Indices 1 2 3 4 5 6 
#
# 1 111.7816 62.1518 45.0357 0.0000 0.0000 0.0000
# 2 62.1518 97.0683 55.9391 0.0000 0.0000 0.0000
# 3 45.0357 55.9391 47.9269 0.0000 0.0000 0.0000
# 4 0.0000 0.0000 0.0000 -47.9028 0.0000 0.0000
# 5 0.0000 0.0000 0.0000 0.0000 5.7042 0.0000
# 6 0.0000 0.0000 0.0000 0.0000 0.0000 10.4249
#
#
#
# Elastic Compliance Matrix: (Units=1/GPa)
#
#
# Indices 1 2 3 4 5 6 
#
# 1 0.015022 -0.004532 -0.008826 0.000000 0.000000 0.000000
# 2 -0.004532 0.032836 -0.034067 0.000000 0.000000 0.000000
# 3 -0.008826 -0.034067 0.068920 0.000000 0.000000 0.000000
# 4 0.000000 0.000000 0.000000 -0.020876 0.000000 0.000000
# 5 0.000000 0.000000 0.000000 0.000000 0.175308 0.000000
# 6 0.000000 0.000000 0.000000 0.000000 0.000000 0.095925
#
#
# Mechanical properties :
#
#
# Convention : Reuss Voigt Hill
#
# Bulk Modulus (GPa) = 45.60198 64.78111 55.19155
# Shear Modulus (GPa) = 10.65429 -0.11140 5.27145
#
# Velocity S-wave (km/s) = 2.49115 -0.25473 1.75228
# Velocity P-wave (km/s) = 5.90224 6.13570 6.02010
#
# Compressibility (1/GPa) = 0.02192887
#
# Stress axis : x y z
#
# Youngs Moduli (GPa) = 66.57023 30.45427 14.50948
#
# Poissons Ratio (x) = 0.13802 0.12806
# Poissons Ratio (y) = 0.30170 0.49429
# Poissons Ratio (z) = 0.58754 1.03748
#
# Static dielectric constant tensor:
#      x y z
#    x 1.598660 0.000000 0.000000 
#    y 0.000000 1.579700 0.000000 
#    z 0.000000 0.000000 1.559570 
# 
# From -- ./inp_files/41988.got.cif
#   From: 2010.05.17/outbox.cif.g08.bks.cpg/sg69_21_cif.got.tgz:41988.got - 2010.06.03 19:29:58.
