data_PCOD9512266
_publ_section_title
;
Structure prediction by ZEFSAII (Michael W. Deem and Ramdas Pophale) SiO2 
 PCOD9512266
Probable space group: F M M M
;
_chemical_formula_sum "Si O2"
_cell_formula_units_Z 160
_cell_length_a 25.524956
_cell_length_b 20.411116
_cell_length_c 18.919333
_cell_angle_alpha 90.000000
_cell_angle_beta 90.000000
_cell_angle_gamma 90.000000
_cell_volume 9856.836989
_symmetry_space_group_name_H-M "F M M M"
_symmetry_group_IT_number 69
_symmetry_cell_setting 'orthorhombic'
loop_
_space_group_symop_operation_xyz
x,y,z
-x,-y,z
x,-y,-z
-x,y,-z
-x,-y,-z
x,y,-z
-x,y,z
x,-y,z
x,1/2+y,1/2+z
-x,1/2-y,1/2+z
x,1/2-y,1/2-z
-x,1/2+y,1/2-z
-x,1/2-y,1/2-z
x,1/2+y,1/2-z
-x,1/2+y,1/2+z
x,1/2-y,1/2+z
1/2+x,y,1/2+z
1/2-x,-y,1/2+z
1/2+x,-y,1/2-z
1/2-x,y,1/2-z
1/2-x,-y,1/2-z
1/2+x,y,1/2-z
1/2-x,y,1/2+z
1/2+x,-y,1/2+z
1/2+x,1/2+y,z
1/2-x,1/2-y,z
1/2+x,1/2-y,-z
1/2-x,1/2+y,-z
1/2-x,1/2-y,-z
1/2+x,1/2+y,-z
1/2-x,1/2+y,z
1/2+x,1/2-y,z
loop_
_atom_site_type_symbol
_atom_site_label
_atom_site_fract_x
_atom_site_fract_y
_atom_site_fract_z
Si Si1 0.087566 0.702586 0.583899
Si Si2 0.000000 0.220989 0.330584
Si Si3 0.909047 0.426520 0.328030
Si Si4 0.290354 0.195147 0.583781
Si Si5 0.000000 0.074376 0.712909
Si Si6 0.287621 0.924748 0.316032
O O1 0.076824 0.705738 0.500000
O O2 0.050330 0.750285 0.628286
O O3 0.079545 0.629390 0.614765
O O4 0.149342 0.716049 0.595787
O O5 0.000000 0.250000 0.250000
O O6 0.000000 0.141786 0.331013
O O7 0.913479 0.500000 0.358403
O O8 0.849686 0.419071 0.299601
O O9 0.949696 0.421362 0.264193
O O10 0.284076 0.186422 0.500000
O O11 0.250000 0.250000 0.608758
O O12 0.278837 0.127521 0.622852
O O13 0.000000 0.000000 0.680946
O O14 0.250000 0.911004 0.250000
O O15 0.278120 0.000000 0.337969
#
# Coordination Sequence:
#
# PCOD9512266 Si02
#       6
#    32  16  32  32  16  32
#     4  10  20  34  53  76 103 134 168 210 259 305
#     4  12  21  34  53  78 105 133 170 209 249 304
#     4   9  17  31  50  74 104 133 163 200 253 313
#     4   9  19  35  51  72 102 134 169 210 256 303
#     4  10  20  34  50  70 101 137 166 204 251 293
#     4   9  18  31  48  73 102 131 168 209 248 299
#
# _framework density 16.232388
#
# number of rings (size 3 to 8) (size 9 to 14) (size 15 to 20)
#    0.000    2.400    2.000    0.300    0.000    2.800 
#    0.000    4.000    0.000    4.200    0.000    2.800 
#    0.000    0.000    0.000    0.000    0.000    0.600 
#
# Total GULP energy -222844.766617 kJ/mol
# GULP energy per Si atom -5571.119165 kJ/mol
# Density = 1.619544 g / cm^3
# Si number density = 16.232388 Si / 1000 Ang^3
#
#
#
# Elastic Constant Matrix: (Units=GPa)
#
#
# Indices 1 2 3 4 5 6 
#
# 1 73.9993 74.0840 51.0255 0.0000 0.0000 0.0000
# 2 74.0840 131.0723 61.5967 0.0000 0.0000 0.0000
# 3 51.0255 61.5967 68.2019 0.0000 0.0000 0.0000
# 4 0.0000 0.0000 0.0000 23.3648 0.0000 0.0000
# 5 0.0000 0.0000 0.0000 0.0000 25.1255 0.0000
# 6 0.0000 0.0000 0.0000 0.0000 0.0000 29.2895
#
#
#
# Elastic Compliance Matrix: (Units=1/GPa)
#
#
# Indices 1 2 3 4 5 6 
#
# 1 0.039320 -0.014594 -0.016237 0.000000 0.000000 0.000000
# 2 -0.014594 0.018672 -0.005945 0.000000 0.000000 0.000000
# 3 -0.016237 -0.005945 0.032180 0.000000 0.000000 0.000000
# 4 0.000000 0.000000 0.000000 0.042799 0.000000 0.000000
# 5 0.000000 0.000000 0.000000 0.000000 0.039800 0.000000
# 6 0.000000 0.000000 0.000000 0.000000 0.000000 0.034142
#
#
# Mechanical properties :
#
#
# Convention : Reuss Voigt Hill
#
# Bulk Modulus (GPa) = 60.17015 71.85398 66.01206
# Shear Modulus (GPa) = 17.48216 21.32711 19.40463
#
# Velocity S-wave (km/s) = 3.28532 3.62866 3.46125
# Velocity P-wave (km/s) = 7.17910 7.86880 7.53185
#
# Compressibility (1/GPa) = 0.01661954
#
# Stress axis : x y z
#
# Youngs Moduli (GPa) = 25.43207 53.55629 31.07562
#
# Poissons Ratio (x) = 0.78160 0.50458
# Poissons Ratio (y) = 0.37115 0.18475
# Poissons Ratio (z) = 0.41294 0.31840
#
# Static dielectric constant tensor:
#      x y z
#    x 1.559040 0.000000 0.000000 
#    y 0.000000 1.551640 0.000000 
#    z 0.000000 0.000000 1.507620 
# 
# From -- ./inp_files/19603.got.cif
#   From: 2010.05.17/outbox.cif.g08.bks.cpg/sg69_10_cif.got.tgz:19603.got - 2010.06.03 19:29:58.
