data_PCOD9512540
_publ_section_title
;
Structure prediction by ZEFSAII (Michael W. Deem and Ramdas Pophale) SiO2 
 PCOD9512540
Probable space group: F M M M
;
_chemical_formula_sum "Si O2"
_cell_formula_units_Z 160
_cell_length_a 24.293743
_cell_length_b 20.931913
_cell_length_c 15.554593
_cell_angle_alpha 90.000000
_cell_angle_beta 90.000000
_cell_angle_gamma 90.000000
_cell_volume 7909.736314
_symmetry_space_group_name_H-M "F M M M"
_symmetry_group_IT_number 69
_symmetry_cell_setting 'orthorhombic'
loop_
_space_group_symop_operation_xyz
x,y,z
-x,-y,z
x,-y,-z
-x,y,-z
-x,-y,-z
x,y,-z
-x,y,z
x,-y,z
x,1/2+y,1/2+z
-x,1/2-y,1/2+z
x,1/2-y,1/2-z
-x,1/2+y,1/2-z
-x,1/2-y,1/2-z
x,1/2+y,1/2-z
-x,1/2+y,1/2+z
x,1/2-y,1/2+z
1/2+x,y,1/2+z
1/2-x,-y,1/2+z
1/2+x,-y,1/2-z
1/2-x,y,1/2-z
1/2-x,-y,1/2-z
1/2+x,y,1/2-z
1/2-x,y,1/2+z
1/2+x,-y,1/2+z
1/2+x,1/2+y,z
1/2-x,1/2-y,z
1/2+x,1/2-y,-z
1/2-x,1/2+y,-z
1/2-x,1/2-y,-z
1/2+x,1/2+y,-z
1/2-x,1/2+y,z
1/2+x,1/2-y,z
loop_
_atom_site_type_symbol
_atom_site_label
_atom_site_fract_x
_atom_site_fract_y
_atom_site_fract_z
Si Si1 0.867180 0.626015 0.830440
Si Si2 0.436252 0.000000 0.199843
Si Si3 0.240783 0.319872 0.096844
Si Si4 0.436638 0.753464 0.855410
Si Si5 0.586102 0.000000 0.404499
Si Si6 0.137865 0.635989 0.626047
O O1 0.902052 0.560954 0.834218
O O2 0.804928 0.633667 0.863638
O O3 0.902215 0.682778 0.873569
O O4 0.861542 0.637487 0.729037
O O5 0.500000 0.000000 0.171783
O O6 0.438473 0.000000 0.305959
O O7 0.250000 0.250000 0.139940
O O8 0.300934 0.349984 0.095698
O O9 0.221100 0.307079 0.000000
O O10 0.500000 0.756274 0.882978
O O11 0.437314 0.750000 0.750000
O O12 0.405261 0.692439 0.894577
O O13 0.619140 0.933635 0.403101
O O14 0.558125 0.000000 0.500000
#
# Coordination Sequence:
#
# PCOD9512540 Si02
#       6
#    32  16  32  32  16  32
#     4  10  20  36  60  87 117 155 202 254 303 360
#     4  10  22  40  64  93 123 162 210 256 300 360
#     4  11  22  36  58  86 120 154 196 257 319 370
#     4   9  17  31  54  82 110 145 194 248 296 348
#     4  10  22  38  57  86 128 165 196 241 306 372
#     4  10  20  35  58  86 116 156 204 246 297 364
#
# _framework density 20.228234
#
# number of rings (size 3 to 8) (size 9 to 14) (size 15 to 20)
#    0.000    2.000    2.000    1.800    0.000    6.600 
#    0.000    4.500    0.000    7.200    0.000    0.000 
#    0.000    0.000    0.000    0.000    0.000    0.000 
#
# Total GULP energy -222893.136342 kJ/mol
# GULP energy per Si atom -5572.328409 kJ/mol
# Density = 2.018219 g / cm^3
# Si number density = 20.228234 Si / 1000 Ang^3
#
#
#
# Elastic Constant Matrix: (Units=GPa)
#
#
# Indices 1 2 3 4 5 6 
#
# 1 180.0363 83.9335 25.8716 0.0000 0.0000 0.0000
# 2 83.9335 152.3050 32.1460 0.0000 0.0000 0.0000
# 3 25.8716 32.1460 48.8520 0.0000 0.0000 0.0000
# 4 0.0000 0.0000 0.0000 -12.7148 0.0000 0.0000
# 5 0.0000 0.0000 0.0000 0.0000 -91.1484 0.0000
# 6 0.0000 0.0000 0.0000 0.0000 0.0000 12.4262
#
#
#
# Elastic Compliance Matrix: (Units=1/GPa)
#
#
# Indices 1 2 3 4 5 6 
#
# 1 0.007564 -0.003859 -0.001467 0.000000 0.000000 0.000000
# 2 -0.003859 0.009593 -0.004269 0.000000 0.000000 0.000000
# 3 -0.001467 -0.004269 0.024056 0.000000 0.000000 0.000000
# 4 0.000000 0.000000 0.000000 -0.078649 0.000000 0.000000
# 5 0.000000 0.000000 0.000000 0.000000 -0.010971 0.000000
# 6 0.000000 0.000000 0.000000 0.000000 0.000000 0.080475
#
#
# Mechanical properties :
#
#
# Convention : Reuss Voigt Hill
#
# Bulk Modulus (GPa) = 45.40468 73.89952 59.65210
# Shear Modulus (GPa) = 85.32485 -2.33792 41.49347
#
# Velocity S-wave (km/s) = 6.50174 -1.07623 4.53400
# Velocity P-wave (km/s) = 8.88023 5.92181 7.54739
#
# Compressibility (1/GPa) = 0.02202416
#
# Stress axis : x y z
#
# Youngs Moduli (GPa) = 132.20007 104.23730 41.56992
#
# Poissons Ratio (x) = 0.40226 0.06097
# Poissons Ratio (y) = 0.51017 0.17747
# Poissons Ratio (z) = 0.19389 0.44500
#
# Static dielectric constant tensor:
#      x y z
#    x 1.684650 0.000000 0.000000 
#    y 0.000000 1.705000 0.000000 
#    z 0.000000 0.000000 1.752700 
# 
# From -- ./inp_files/25830.got.cif
#   From: 2010.05.17/outbox.cif.g08.bks.cpg/sg69_13_cif.got.tgz:25830.got - 2010.06.03 19:29:58.
