data_PCOD9512745
_publ_section_title
;
Structure prediction by ZEFSAII (Michael W. Deem and Ramdas Pophale) SiO2 
 PCOD9512745
Probable space group: F M M M
;
_chemical_formula_sum "Si O2"
_cell_formula_units_Z 128
_cell_length_a 28.806685
_cell_length_b 26.989827
_cell_length_c 8.323987
_cell_angle_alpha 90.000000
_cell_angle_beta 90.000000
_cell_angle_gamma 90.000000
_cell_volume 6471.795381
_symmetry_space_group_name_H-M "F M M M"
_symmetry_group_IT_number 69
_symmetry_cell_setting 'orthorhombic'
loop_
_space_group_symop_operation_xyz
x,y,z
-x,-y,z
x,-y,-z
-x,y,-z
-x,-y,-z
x,y,-z
-x,y,z
x,-y,z
x,1/2+y,1/2+z
-x,1/2-y,1/2+z
x,1/2-y,1/2-z
-x,1/2+y,1/2-z
-x,1/2-y,1/2-z
x,1/2+y,1/2-z
-x,1/2+y,1/2+z
x,1/2-y,1/2+z
1/2+x,y,1/2+z
1/2-x,-y,1/2+z
1/2+x,-y,1/2-z
1/2-x,y,1/2-z
1/2-x,-y,1/2-z
1/2+x,y,1/2-z
1/2-x,y,1/2+z
1/2+x,-y,1/2+z
1/2+x,1/2+y,z
1/2-x,1/2-y,z
1/2+x,1/2-y,-z
1/2-x,1/2+y,-z
1/2-x,1/2-y,-z
1/2+x,1/2+y,-z
1/2-x,1/2+y,z
1/2+x,1/2-y,z
loop_
_atom_site_type_symbol
_atom_site_label
_atom_site_fract_x
_atom_site_fract_y
_atom_site_fract_z
Si Si1 0.556494 0.943822 0.500000
Si Si2 0.697149 0.107461 0.308748
Si Si3 0.696245 0.000000 0.694337
Si Si4 0.944398 0.381759 0.184043
Si Si5 0.867996 0.805413 0.687120
O O1 0.500000 0.945405 0.500000
O O2 0.569894 0.916254 0.665292
O O3 0.574291 0.000000 0.500000
O O4 0.697816 0.105097 0.500000
O O5 0.750000 0.112926 0.250000
O O6 0.666859 0.154324 0.260184
O O7 0.678158 0.053705 0.248636
O O8 0.750000 0.000000 0.750000
O O9 0.694109 0.000000 0.500000
O O10 0.918832 0.329522 0.209328
O O11 0.000000 0.377249 0.190247
O O12 0.932587 0.398671 0.000000
O O13 0.857770 0.803733 0.500000
O O14 0.864401 0.750000 0.750000
#
# Coordination Sequence:
#
# PCOD9512745 Si02
#       5
#    16  32  16  32  32
#     4   9  18  34  60  90 120 159 198 239 297 356
#     4  10  20  37  60  86 118 152 190 236 287 348
#     4   8  16  32  56  84 111 146 183 227 281 336
#     4   9  20  39  60  86 122 158 199 247 295 351
#     4  11  24  40  59  84 114 151 196 246 299 351
#
# _framework density 19.778129
#
# number of rings (size 3 to 8) (size 9 to 14) (size 15 to 20)
#    0.000    2.375    0.000    1.500    3.500    2.500 
#    2.250    5.000    0.000    0.000    0.000    0.000 
#    0.000    0.000    0.000    0.000    0.000    0.000 
#
# Total GULP energy -178447.005185 kJ/mol
# GULP energy per Si atom -5576.468912 kJ/mol
# Density = 1.973311 g / cm^3
# Si number density = 19.778129 Si / 1000 Ang^3
#
#
#
# Elastic Constant Matrix: (Units=GPa)
#
#
# Indices 1 2 3 4 5 6 
#
# 1 55.4512 49.8513 38.1211 -0.0040 0.0029 0.0020
# 2 49.8513 201.8534 96.3096 -0.0018 0.0033 0.0015
# 3 38.1211 96.3096 106.4881 -0.0037 0.0030 -0.0078
# 4 -0.0040 -0.0018 -0.0037 30.7680 0.0032 -0.0024
# 5 0.0029 0.0033 0.0030 0.0032 20.3749 0.0016
# 6 0.0020 0.0015 -0.0078 -0.0024 0.0016 26.9314
#
#
#
# Elastic Compliance Matrix: (Units=1/GPa)
#
#
# Indices 1 2 3 4 5 6 
#
# 1 0.025161 -0.003371 -0.005958 0.000002 -0.000002 -0.000003
# 2 -0.003371 0.009166 -0.007083 -0.000001 0.000000 -0.000002
# 3 -0.005958 -0.007083 0.017930 0.000001 -0.000001 0.000006
# 4 0.000002 -0.000001 0.000001 0.032501 -0.000005 0.000003
# 5 -0.000002 0.000000 -0.000001 -0.000005 0.049080 -0.000003
# 6 -0.000003 -0.000002 0.000006 0.000003 -0.000003 0.037131
#
#
# Mechanical properties :
#
#
# Convention : Reuss Voigt Hill
#
# Bulk Modulus (GPa) = 51.46274 81.37296 66.41785
# Shear Modulus (GPa) = 23.77870 27.58223 25.68047
#
# Velocity S-wave (km/s) = 3.47114 3.73846 3.60728
# Velocity P-wave (km/s) = 6.49166 7.73738 7.14173
#
# Compressibility (1/GPa) = 0.01943154
#
# Stress axis : x y z
#
# Youngs Moduli (GPa) = 39.74465 109.09544 55.77231
#
# Poissons Ratio (x) = 0.36776 0.33231
# Poissons Ratio (y) = 0.13398 0.39506
# Poissons Ratio (z) = 0.23681 0.77276
#
# Static dielectric constant tensor:
#      x y z
#    x 1.779500 0.000170 0.000010 
#    y 0.000170 -0.349310 -0.000050 
#    z 0.000010 -0.000050 1.695970 
# 
# From -- ./inp_files/5316.got.cif
#   From: 2010.05.17/outbox.cif.g08.bks.cpg/sg69_3_cif.got.tgz:5316.got - 2010.06.03 19:29:58.
