data_PCOD9512737
_publ_section_title
;
Structure prediction by ZEFSAII (Michael W. Deem and Ramdas Pophale) SiO2 
 PCOD9512737
Probable space group: F M M M
;
_chemical_formula_sum "Si O2"
_cell_formula_units_Z 112
_cell_length_a 14.412091
_cell_length_b 13.200302
_cell_length_c 25.279092
_cell_angle_alpha 90.000000
_cell_angle_beta 90.000000
_cell_angle_gamma 90.000000
_cell_volume 4809.194407
_symmetry_space_group_name_H-M "F M M M"
_symmetry_group_IT_number 69
_symmetry_cell_setting 'orthorhombic'
loop_
_space_group_symop_operation_xyz
x,y,z
-x,-y,z
x,-y,-z
-x,y,-z
-x,-y,-z
x,y,-z
-x,y,z
x,-y,z
x,1/2+y,1/2+z
-x,1/2-y,1/2+z
x,1/2-y,1/2-z
-x,1/2+y,1/2-z
-x,1/2-y,1/2-z
x,1/2+y,1/2-z
-x,1/2+y,1/2+z
x,1/2-y,1/2+z
1/2+x,y,1/2+z
1/2-x,-y,1/2+z
1/2+x,-y,1/2-z
1/2-x,y,1/2-z
1/2-x,-y,1/2-z
1/2+x,y,1/2-z
1/2-x,y,1/2+z
1/2+x,-y,1/2+z
1/2+x,1/2+y,z
1/2-x,1/2-y,z
1/2+x,1/2-y,-z
1/2-x,1/2+y,-z
1/2-x,1/2-y,-z
1/2+x,1/2+y,-z
1/2-x,1/2+y,z
1/2+x,1/2-y,z
loop_
_atom_site_type_symbol
_atom_site_label
_atom_site_fract_x
_atom_site_fract_y
_atom_site_fract_z
Si Si1 0.887725 0.000000 0.250069
Si Si2 0.352711 0.794845 0.801914
Si Si3 0.113887 0.619565 0.000000
Si Si4 0.104518 0.217946 0.914113
Si Si5 0.113612 0.500000 0.375808
O O1 0.849171 0.091280 0.284400
O O2 0.863154 0.000000 0.187291
O O3 0.000000 0.000000 0.252013
O O4 0.400338 0.750000 0.750000
O O5 0.250000 0.750000 0.806458
O O6 0.399844 0.766367 0.856038
O O7 0.144030 0.692116 0.049083
O O8 0.144342 0.500000 0.000000
O O9 0.000000 0.613769 0.000000
O O10 0.145524 0.104647 0.904307
O O11 0.000000 0.199609 0.934333
O O12 0.000000 0.500000 0.377059
#
# Coordination Sequence:
#
# PCOD9512737 Si02
#       5
#    16  32  16  32  16
#     4  11  22  38  63  94 128 172 224 266 313 382
#     4  11  24  38  58  92 131 173 208 261 323 389
#     4   9  20  37  60  89 121 156 209 276 328 378
#     4  10  20  37  59  88 122 162 213 267 324 381
#     4   9  18  32  57  87 118 155 206 263 306 376
#
# _framework density 23.288723999999998
#
# number of rings (size 3 to 8) (size 9 to 14) (size 15 to 20)
#    0.000    1.857    2.857    0.857    2.000    5.143 
#    0.000    3.571    0.000    0.000    0.000    0.000 
#    0.000    0.000    0.000    0.000    0.000    0.000 
#
# Total GULP energy -156119.728110 kJ/mol
# GULP energy per Si atom -5575.704575 kJ/mol
# Density = 2.323572 g / cm^3
# Si number density = 23.288724 Si / 1000 Ang^3
#
#
#
# Elastic Constant Matrix: (Units=GPa)
#
#
# Indices 1 2 3 4 5 6 
#
# 1 89.8559 20.8513 9.4914 0.0000 0.0000 0.0000
# 2 20.8513 292.1635 92.5704 0.0000 0.0000 0.0000
# 3 9.4914 92.5704 158.1848 0.0000 0.0000 0.0000
# 4 0.0000 0.0000 0.0000 42.5576 0.0000 0.0000
# 5 0.0000 0.0000 0.0000 0.0000 -2.5133 0.0000
# 6 0.0000 0.0000 0.0000 0.0000 0.0000 21.5691
#
#
#
# Elastic Compliance Matrix: (Units=1/GPa)
#
#
# Indices 1 2 3 4 5 6 
#
# 1 0.011325 -0.000728 -0.000254 0.000000 0.000000 0.000000
# 2 -0.000728 0.004249 -0.002443 0.000000 0.000000 0.000000
# 3 -0.000254 -0.002443 0.007766 0.000000 0.000000 0.000000
# 4 0.000000 0.000000 0.000000 0.023498 0.000000 0.000000
# 5 0.000000 0.000000 0.000000 0.000000 -0.397883 0.000000
# 6 0.000000 0.000000 0.000000 0.000000 0.000000 0.046363
#
#
# Mechanical properties :
#
#
# Convention : Reuss Voigt Hill
#
# Bulk Modulus (GPa) = 60.63733 87.33671 73.98702
# Shear Modulus (GPa) = -17.10350 40.14210 11.51930
#
# Velocity S-wave (km/s) = -2.71294 4.15622 2.22644
# Velocity P-wave (km/s) = 4.03489 7.78558 6.20063
#
# Compressibility (1/GPa) = 0.01649149
#
# Stress axis : x y z
#
# Youngs Moduli (GPa) = 88.30318 235.37020 128.76018
#
# Poissons Ratio (x) = 0.17132 0.03265
# Poissons Ratio (y) = 0.06428 0.31451
# Poissons Ratio (z) = 0.02239 0.57492
#
# Static dielectric constant tensor:
#      x y z
#    x 1.926160 0.000000 0.000000 
#    y 0.000000 1.719410 0.000000 
#    z 0.000000 0.000000 1.852070 
# 
# From -- ./inp_files/8347.got.cif
#   From: 2010.05.17/outbox.cif.g08.bks.cpg/sg69_5_cif.got.tgz:8347.got - 2010.06.03 19:29:58.
