data_PCOD9512277
_publ_section_title
;
Structure prediction by ZEFSAII (Michael W. Deem and Ramdas Pophale) SiO2 
 PCOD9512277
Probable space group: F M M M
;
_chemical_formula_sum "Si O2"
_cell_formula_units_Z 144
_cell_length_a 32.824663
_cell_length_b 8.800592
_cell_length_c 27.619885
_cell_angle_alpha 90.000000
_cell_angle_beta 90.000000
_cell_angle_gamma 90.000000
_cell_volume 7978.734787
_symmetry_space_group_name_H-M "F M M M"
_symmetry_group_IT_number 69
_symmetry_cell_setting 'orthorhombic'
loop_
_space_group_symop_operation_xyz
x,y,z
-x,-y,z
x,-y,-z
-x,y,-z
-x,-y,-z
x,y,-z
-x,y,z
x,-y,z
x,1/2+y,1/2+z
-x,1/2-y,1/2+z
x,1/2-y,1/2-z
-x,1/2+y,1/2-z
-x,1/2-y,1/2-z
x,1/2+y,1/2-z
-x,1/2+y,1/2+z
x,1/2-y,1/2+z
1/2+x,y,1/2+z
1/2-x,-y,1/2+z
1/2+x,-y,1/2-z
1/2-x,y,1/2-z
1/2-x,-y,1/2-z
1/2+x,y,1/2-z
1/2-x,y,1/2+z
1/2+x,-y,1/2+z
1/2+x,1/2+y,z
1/2-x,1/2-y,z
1/2+x,1/2-y,-z
1/2-x,1/2+y,-z
1/2-x,1/2-y,-z
1/2+x,1/2+y,-z
1/2-x,1/2+y,z
1/2+x,1/2-y,z
loop_
_atom_site_type_symbol
_atom_site_label
_atom_site_fract_x
_atom_site_fract_y
_atom_site_fract_z
Si Si1 0.000000 0.816950 0.303535
Si Si2 0.914131 0.682292 0.849471
Si Si3 0.621108 0.316623 0.945075
Si Si4 0.665792 0.317643 0.801528
Si Si5 0.207089 0.181815 0.098790
O O1 0.000000 0.750000 0.250000
O O2 0.041321 0.771595 0.330968
O O3 0.000000 0.000000 0.300523
O O4 0.910520 0.500000 0.846941
O O5 0.905722 0.738632 0.903883
O O6 0.878770 0.755834 0.816498
O O7 0.618243 0.500000 0.939621
O O8 0.668141 0.274598 0.933589
O O9 0.610438 0.276602 0.000000
O O10 0.664384 0.500000 0.799118
O O11 0.678060 0.250000 0.750000
O O12 0.695276 0.273442 0.846066
O O13 0.250000 0.250000 0.083889
O O14 0.210063 0.000000 0.097409
#
# Coordination Sequence:
#
# PCOD9512277 Si02
#       5
#    16  32  32  32  32
#     4  10  22  36  53  80 111 139 168 207 251 298
#     4  10  20  35  54  78 106 135 171 212 255 304
#     4   9  19  37  57  76 102 136 172 212 258 305
#     4  10  20  34  51  73 102 137 174 212 256 304
#     4   9  19  33  49  72 102 133 168 212 257 303
#
# _framework density 18.047974
#
# number of rings (size 3 to 8) (size 9 to 14) (size 15 to 20)
#    0.000    2.444    0.000    3.333    0.000    9.333 
#    0.000    2.778    0.000    3.333    0.000    0.000 
#    0.000    0.000    0.000    0.000    0.000    0.000 
#
# Total GULP energy -200914.805385 kJ/mol
# GULP energy per Si atom -5580.966816 kJ/mol
# Density = 1.800690 g / cm^3
# Si number density = 18.047974 Si / 1000 Ang^3
#
#
#
# Elastic Constant Matrix: (Units=GPa)
#
#
# Indices 1 2 3 4 5 6 
#
# 1 93.7552 14.9541 20.0626 0.0000 0.0000 -0.0002
# 2 14.9541 23.3609 19.8488 0.0000 0.0000 -0.0001
# 3 20.0626 19.8488 89.8902 0.0000 0.0000 -0.0001
# 4 0.0000 0.0000 0.0000 26.8010 0.0000 0.0000
# 5 0.0000 0.0000 0.0000 0.0000 5.9739 0.0000
# 6 -0.0002 -0.0001 -0.0001 0.0000 0.0000 25.9475
#
#
#
# Elastic Compliance Matrix: (Units=1/GPa)
#
#
# Indices 1 2 3 4 5 6 
#
# 1 0.011984 -0.006646 -0.001207 0.000000 0.000000 0.000000
# 2 -0.006646 0.056378 -0.010966 0.000000 0.000000 0.000000
# 3 -0.001207 -0.010966 0.013815 0.000000 0.000000 0.000000
# 4 0.000000 0.000000 0.000000 0.037312 0.000000 0.000000
# 5 0.000000 0.000000 0.000000 0.000000 0.167396 0.000000
# 6 0.000000 0.000000 0.000000 0.000000 0.000000 0.038539
#
#
# Mechanical properties :
#
#
# Convention : Reuss Voigt Hill
#
# Bulk Modulus (GPa) = 22.45164 35.19303 28.82234
# Shear Modulus (GPa) = 13.23070 21.88719 17.55895
#
# Velocity S-wave (km/s) = 2.71049 3.48620 3.12252
# Velocity P-wave (km/s) = 4.71833 5.97886 5.38560
#
# Compressibility (1/GPa) = 0.04454017
#
# Stress axis : x y z
#
# Youngs Moduli (GPa) = 83.44145 17.73751 72.38261
#
# Poissons Ratio (x) = 0.11788 0.08739
# Poissons Ratio (y) = 0.55454 0.79372
# Poissons Ratio (z) = 0.10074 0.19450
#
# Static dielectric constant tensor:
#      x y z
#    x 1.601830 0.000000 0.000000 
#    y 0.000000 1.608550 0.000000 
#    z 0.000000 0.000000 1.610740 
# 
# From -- ./inp_files/5536.got.cif
#   From: 2010.05.17/outbox.cif.g08.bks.cpg/sg69_3_cif.got.tgz:5536.got - 2010.06.03 19:29:58.
