data_PCOD9512716
_publ_section_title
;
Structure prediction by ZEFSAII (Michael W. Deem and Ramdas Pophale) SiO2 
 PCOD9512716
Probable space group: F M M M
;
_chemical_formula_sum "Si O2"
_cell_formula_units_Z 160
_cell_length_a 16.304767
_cell_length_b 18.500324
_cell_length_c 28.505545
_cell_angle_alpha 90.000000
_cell_angle_beta 90.000000
_cell_angle_gamma 90.000000
_cell_volume 8598.511572
_symmetry_space_group_name_H-M "F M M M"
_symmetry_group_IT_number 69
_symmetry_cell_setting 'orthorhombic'
loop_
_space_group_symop_operation_xyz
x,y,z
-x,-y,z
x,-y,-z
-x,y,-z
-x,-y,-z
x,y,-z
-x,y,z
x,-y,z
x,1/2+y,1/2+z
-x,1/2-y,1/2+z
x,1/2-y,1/2-z
-x,1/2+y,1/2-z
-x,1/2-y,1/2-z
x,1/2+y,1/2-z
-x,1/2+y,1/2+z
x,1/2-y,1/2+z
1/2+x,y,1/2+z
1/2-x,-y,1/2+z
1/2+x,-y,1/2-z
1/2-x,y,1/2-z
1/2-x,-y,1/2-z
1/2+x,y,1/2-z
1/2-x,y,1/2+z
1/2+x,-y,1/2+z
1/2+x,1/2+y,z
1/2-x,1/2-y,z
1/2+x,1/2-y,-z
1/2-x,1/2+y,-z
1/2-x,1/2-y,-z
1/2+x,1/2+y,-z
1/2-x,1/2+y,z
1/2+x,1/2-y,z
loop_
_atom_site_type_symbol
_atom_site_label
_atom_site_fract_x
_atom_site_fract_y
_atom_site_fract_z
Si Si1 0.906376 0.826248 0.776731
Si Si2 0.500000 0.300350 0.553318
Si Si3 0.591794 0.343167 0.054427
Si Si4 0.795225 0.174400 0.135711
Si Si5 0.500000 0.583038 0.365036
Si Si6 0.165052 0.415543 0.804683
O O1 0.905839 0.750000 0.750000
O O2 0.869678 0.813189 0.827922
O O3 0.850216 0.879165 0.745781
O O4 0.000000 0.852975 0.779096
O O5 0.500000 0.328564 0.500000
O O6 0.424193 0.243884 0.558095
O O7 0.500000 0.360647 0.592539
O O8 0.500000 0.373210 0.066052
O O9 0.664194 0.360810 0.089775
O O10 0.608349 0.359959 0.000000
O O11 0.750000 0.250000 0.125374
O O12 0.732226 0.124190 0.163792
O O13 0.500000 0.500000 0.382150
O O14 0.420634 0.593211 0.332566
O O15 0.183327 0.500000 0.799732
#
# Coordination Sequence:
#
# PCOD9512716 Si02
#       6
#    32  16  32  32  16  32
#     4  11  23  37  57  84 115 155 200 241 286 349
#     4   8  16  31  55  85 111 144 189 239 287 337
#     4   8  18  36  59  86 118 150 187 242 300 348
#     4  12  22  34  58  90 117 149 198 249 294 342
#     4  10  20  37  56  76 111 162 198 226 289 352
#     4  11  24  40  57  82 120 158 194 241 293 353
#
# _framework density 18.607870999999999
#
# number of rings (size 3 to 8) (size 9 to 14) (size 15 to 20)
#    0.600    1.200    3.000    2.400    0.000    2.200 
#    0.000    1.000    0.000    3.600    0.000    1.400 
#    0.000    0.000    0.000    0.000    0.000    0.000 
#
# Total GULP energy -223145.018849 kJ/mol
# GULP energy per Si atom -5578.625471 kJ/mol
# Density = 1.856552 g / cm^3
# Si number density = 18.607871 Si / 1000 Ang^3
#
#
#
# Elastic Constant Matrix: (Units=GPa)
#
#
# Indices 1 2 3 4 5 6 
#
# 1 102.6614 10.5306 40.3179 0.0000 0.0000 0.0000
# 2 10.5306 19.9527 -7.9479 0.0000 0.0000 0.0000
# 3 40.3179 -7.9479 64.2394 0.0000 0.0000 0.0000
# 4 0.0000 0.0000 0.0000 17.4136 0.0000 0.0000
# 5 0.0000 0.0000 0.0000 0.0000 37.9960 0.0000
# 6 0.0000 0.0000 0.0000 0.0000 0.0000 16.4718
#
#
#
# Elastic Compliance Matrix: (Units=1/GPa)
#
#
# Indices 1 2 3 4 5 6 
#
# 1 0.015465 -0.012652 -0.011272 0.000000 0.000000 0.000000
# 2 -0.012652 0.063067 0.015744 0.000000 0.000000 0.000000
# 3 -0.011272 0.015744 0.024589 0.000000 0.000000 0.000000
# 4 0.000000 0.000000 0.000000 0.057427 0.000000 0.000000
# 5 0.000000 0.000000 0.000000 0.000000 0.026319 0.000000
# 6 0.000000 0.000000 0.000000 0.000000 0.000000 0.060710
#
#
# Mechanical properties :
#
#
# Convention : Reuss Voigt Hill
#
# Bulk Modulus (GPa) = 11.52590 30.29495 20.91042
# Shear Modulus (GPa) = 17.07317 23.97313 20.52315
#
# Velocity S-wave (km/s) = 3.03235 3.59323 3.32464
# Velocity P-wave (km/s) = 4.29741 5.79061 5.09896
#
# Compressibility (1/GPa) = 0.08676114
#
# Stress axis : x y z
#
# Youngs Moduli (GPa) = 64.66108 15.85609 40.66866
#
# Poissons Ratio (x) = 0.20061 0.45840
# Poissons Ratio (y) = 0.81810 -0.64027
# Poissons Ratio (z) = 0.72884 -0.24963
#
# Static dielectric constant tensor:
#      x y z
#    x 1.676520 0.000000 0.000000 
#    y 0.000000 1.628170 0.000000 
#    z 0.000000 0.000000 1.626100 
# 
# From -- ./inp_files/36627.got.cif
#   From: 2010.05.17/outbox.cif.g08.bks.cpg/sg69_19_cif.got.tgz:36627.got - 2010.06.03 19:29:58.
