data_PCOD9512644
_publ_section_title
;
Structure prediction by ZEFSAII (Michael W. Deem and Ramdas Pophale) SiO2 
 PCOD9512644
Probable space group: F M M M
;
_chemical_formula_sum "Si O2"
_cell_formula_units_Z 200
_cell_length_a 17.215161
_cell_length_b 22.821062
_cell_length_c 21.795836
_cell_angle_alpha 90.000000
_cell_angle_beta 90.000000
_cell_angle_gamma 90.000000
_cell_volume 8562.892089
_symmetry_space_group_name_H-M "F M M M"
_symmetry_group_IT_number 69
_symmetry_cell_setting 'orthorhombic'
loop_
_space_group_symop_operation_xyz
x,y,z
-x,-y,z
x,-y,-z
-x,y,-z
-x,-y,-z
x,y,-z
-x,y,z
x,-y,z
x,1/2+y,1/2+z
-x,1/2-y,1/2+z
x,1/2-y,1/2-z
-x,1/2+y,1/2-z
-x,1/2-y,1/2-z
x,1/2+y,1/2-z
-x,1/2+y,1/2+z
x,1/2-y,1/2+z
1/2+x,y,1/2+z
1/2-x,-y,1/2+z
1/2+x,-y,1/2-z
1/2-x,y,1/2-z
1/2-x,-y,1/2-z
1/2+x,y,1/2-z
1/2-x,y,1/2+z
1/2+x,-y,1/2+z
1/2+x,1/2+y,z
1/2-x,1/2-y,z
1/2+x,1/2-y,-z
1/2-x,1/2+y,-z
1/2-x,1/2-y,-z
1/2+x,1/2+y,-z
1/2-x,1/2+y,z
1/2+x,1/2-y,z
loop_
_atom_site_type_symbol
_atom_site_label
_atom_site_fract_x
_atom_site_fract_y
_atom_site_fract_z
Si Si1 0.089060 0.814459 0.737737
Si Si2 0.086540 0.170961 0.590444
Si Si3 0.683460 0.562616 0.405823
Si Si4 0.637102 0.588769 0.925550
Si Si5 0.324193 0.217072 0.430684
Si Si6 0.158679 0.436810 0.238169
Si Si7 0.000000 0.000000 0.890382
O O1 0.125041 0.750000 0.750000
O O2 0.089345 0.821878 0.664187
O O3 0.125383 0.875317 0.761682
O O4 0.000000 0.812180 0.759948
O O5 0.146975 0.121968 0.568935
O O6 0.109839 0.234362 0.566822
O O7 0.000000 0.153401 0.573349
O O8 0.658960 0.500000 0.432362
O O9 0.776480 0.565845 0.409884
O O10 0.653830 0.562469 0.335557
O O11 0.642489 0.656790 0.905057
O O12 0.568820 0.551117 0.896181
O O13 0.625897 0.584980 0.000000
O O14 0.298392 0.201502 0.500000
O O15 0.250000 0.250000 0.400254
O O16 0.125419 0.500000 0.260615
O O17 0.250000 0.436945 0.250000
#
# Coordination Sequence:
#
# PCOD9512644 Si02
#       7
#    32  32  32  32  32  32   8
#     4   9  19  36  56  81 112 145 184 230 283 337
#     4  10  21  37  57  85 115 147 190 238 285 342
#     4  10  20  36  59  82 111 150 186 234 291 342
#     4  11  22  37  58  84 116 151 196 241 287 349
#     4  10  21  37  57  81 112 153 192 233 288 344
#     4   9  19  35  56  80 109 142 185 232 276 338
#     4  12  25  40  60  88 116 158 206 246 294 360
#
# _framework density 23.356594999999999
#
# number of rings (size 3 to 8) (size 9 to 14) (size 15 to 20)
#    0.000    2.080    2.400    0.720    1.120    2.560 
#    0.000    3.200    1.760    0.000    0.000    2.240 
#    0.000    0.000    0.000    0.000    0.000    0.000 
#
# Total GULP energy -278600.482436 kJ/mol
# GULP energy per Si atom -5572.009649 kJ/mol
# Density = 2.330343 g / cm^3
# Si number density = 23.356595 Si / 1000 Ang^3
#
#
#
# Elastic Constant Matrix: (Units=GPa)
#
#
# Indices 1 2 3 4 5 6 
#
# 1 115.2893 83.6275 -2.1872 0.0000 0.0000 0.0000
# 2 83.6275 278.4578 19.8446 0.0000 0.0000 0.0000
# 3 -2.1872 19.8446 60.1190 0.0000 0.0000 0.0000
# 4 0.0000 0.0000 0.0000 59.5822 0.0000 0.0000
# 5 0.0000 0.0000 0.0000 0.0000 9.6186 0.0000
# 6 0.0000 0.0000 0.0000 0.0000 0.0000 47.8816
#
#
#
# Elastic Compliance Matrix: (Units=1/GPa)
#
#
# Indices 1 2 3 4 5 6 
#
# 1 0.011230 -0.003484 0.001559 0.000000 0.000000 0.000000
# 2 -0.003484 0.004758 -0.001697 0.000000 0.000000 0.000000
# 3 0.001559 -0.001697 0.017251 0.000000 0.000000 0.000000
# 4 0.000000 0.000000 0.000000 0.016784 0.000000 0.000000
# 5 0.000000 0.000000 0.000000 0.000000 0.103966 0.000000
# 6 0.000000 0.000000 0.000000 0.000000 0.000000 0.020885
#
#
# Mechanical properties :
#
#
# Convention : Reuss Voigt Hill
#
# Bulk Modulus (GPa) = 38.47023 72.93734 55.70379
# Shear Modulus (GPa) = 26.20766 46.92187 36.56477
#
# Velocity S-wave (km/s) = 3.35336 4.48698 3.96093
# Velocity P-wave (km/s) = 5.61248 7.62492 6.69475
#
# Compressibility (1/GPa) = 0.02599413
#
# Stress axis : x y z
#
# Youngs Moduli (GPa) = 89.04330 210.15175 57.96866
#
# Poissons Ratio (x) = 0.73214 -0.09035
# Poissons Ratio (y) = 0.31021 0.09840
# Poissons Ratio (z) = -0.13878 0.35672
#
# Static dielectric constant tensor:
#      x y z
#    x 1.837310 0.000000 0.000000 
#    y 0.000000 1.931380 0.000000 
#    z 0.000000 0.000000 1.995190 
# 
# From -- ./inp_files/42007.got.cif
#   From: 2010.05.17/outbox.cif.g08.bks.cpg/sg69_22_cif.got.tgz:42007.got - 2010.06.03 19:29:58.
