data_PCOD9512640
_publ_section_title
;
Structure prediction by ZEFSAII (Michael W. Deem and Ramdas Pophale) SiO2 
 PCOD9512640
Probable space group: F M M M
;
_chemical_formula_sum "Si O2"
_cell_formula_units_Z 176
_cell_length_a 27.964827
_cell_length_b 17.118484
_cell_length_c 17.665648
_cell_angle_alpha 90.000000
_cell_angle_beta 90.000000
_cell_angle_gamma 90.000000
_cell_volume 8456.818518
_symmetry_space_group_name_H-M "F M M M"
_symmetry_group_IT_number 69
_symmetry_cell_setting 'orthorhombic'
loop_
_space_group_symop_operation_xyz
x,y,z
-x,-y,z
x,-y,-z
-x,y,-z
-x,-y,-z
x,y,-z
-x,y,z
x,-y,z
x,1/2+y,1/2+z
-x,1/2-y,1/2+z
x,1/2-y,1/2-z
-x,1/2+y,1/2-z
-x,1/2-y,1/2-z
x,1/2+y,1/2-z
-x,1/2+y,1/2+z
x,1/2-y,1/2+z
1/2+x,y,1/2+z
1/2-x,-y,1/2+z
1/2+x,-y,1/2-z
1/2-x,y,1/2-z
1/2-x,-y,1/2-z
1/2+x,y,1/2-z
1/2-x,y,1/2+z
1/2+x,-y,1/2+z
1/2+x,1/2+y,z
1/2-x,1/2-y,z
1/2+x,1/2-y,-z
1/2-x,1/2+y,-z
1/2-x,1/2-y,-z
1/2+x,1/2+y,-z
1/2-x,1/2+y,z
1/2+x,1/2-y,z
loop_
_atom_site_type_symbol
_atom_site_label
_atom_site_fract_x
_atom_site_fract_y
_atom_site_fract_z
Si Si1 0.823749 0.684685 0.086328
Si Si2 0.943792 0.000000 0.416250
Si Si3 0.755919 0.088920 0.836735
Si Si4 0.944918 0.170377 0.152168
Si Si5 0.083343 0.845033 0.672459
Si Si6 0.653537 0.368317 0.915806
O O1 0.773465 0.646843 0.108959
O O2 0.860747 0.660029 0.151973
O O3 0.828478 0.778184 0.086010
O O4 0.836714 0.659777 0.000000
O O5 0.932478 0.077638 0.369949
O O6 0.920888 0.000000 0.500000
O O7 0.000000 0.000000 0.425628
O O8 0.750000 0.113765 0.750000
O O9 0.811667 0.089765 0.857703
O O10 0.737389 0.000000 0.844855
O O11 0.930795 0.153703 0.239595
O O12 0.939666 0.264332 0.141438
O O13 0.902587 0.131694 0.103917
O O14 0.000000 0.147742 0.137943
O O15 0.661177 0.399249 0.000000
#
# Coordination Sequence:
#
# PCOD9512640 Si02
#       6
#    32  16  32  32  32  32
#     4  10  21  37  60  89 120 158 197 239 296 365
#     4  11  22  34  52  84 128 167 193 239 315 377
#     4  11  24  40  60  87 120 155 198 244 301 364
#     4  10  20  38  63  87 115 162 217 259 298 351
#     4  10  20  36  58  86 124 160 204 250 297 364
#     4  10  22  40  61  88 120 155 199 251 302 352
#
# _framework density 20.811609000000001
#
# number of rings (size 3 to 8) (size 9 to 14) (size 15 to 20)
#    0.000    1.727    0.000    4.909    1.273    6.909 
#    1.636    0.000    0.000    0.000    0.000    1.273 
#    0.000    0.000    0.000    0.000    0.000    0.000 
#
# Total GULP energy -245607.605177 kJ/mol
# GULP energy per Si atom -5581.991027 kJ/mol
# Density = 2.076424 g / cm^3
# Si number density = 20.811609 Si / 1000 Ang^3
#
#
#
# Elastic Constant Matrix: (Units=GPa)
#
#
# Indices 1 2 3 4 5 6 
#
# 1 131.0266 15.4741 33.3932 0.0000 0.0000 0.0000
# 2 15.4741 62.3134 35.9019 0.0000 0.0000 0.0000
# 3 33.3932 35.9019 89.4750 0.0000 0.0000 0.0000
# 4 0.0000 0.0000 0.0000 3.2449 0.0000 0.0000
# 5 0.0000 0.0000 0.0000 0.0000 26.5789 0.0000
# 6 0.0000 0.0000 0.0000 0.0000 0.0000 15.2840
#
#
#
# Elastic Compliance Matrix: (Units=1/GPa)
#
#
# Indices 1 2 3 4 5 6 
#
# 1 0.008441 -0.000366 -0.003003 0.000000 0.000000 0.000000
# 2 -0.000366 0.020889 -0.008245 0.000000 0.000000 0.000000
# 3 -0.003003 -0.008245 0.015606 0.000000 0.000000 0.000000
# 4 0.000000 0.000000 0.000000 0.308176 0.000000 0.000000
# 5 0.000000 0.000000 0.000000 0.000000 0.037624 0.000000
# 6 0.000000 0.000000 0.000000 0.000000 0.000000 0.065428
#
#
# Mechanical properties :
#
#
# Convention : Reuss Voigt Hill
#
# Bulk Modulus (GPa) = 46.06862 50.26149 48.16505
# Shear Modulus (GPa) = 10.27479 22.22462 16.24970
#
# Velocity S-wave (km/s) = 2.22436 3.27141 2.79731
# Velocity P-wave (km/s) = 5.36480 6.20263 5.79887
#
# Compressibility (1/GPa) = 0.02170675
#
# Stress axis : x y z
#
# Youngs Moduli (GPa) = 118.47396 47.87142 64.07909
#
# Poissons Ratio (x) = 0.01750 0.19246
# Poissons Ratio (y) = 0.04331 0.52836
# Poissons Ratio (z) = 0.35583 0.39472
#
# Static dielectric constant tensor:
#      x y z
#    x 1.761390 0.000000 0.000000 
#    y 0.000000 1.707760 0.000000 
#    z 0.000000 0.000000 1.734960 
# 
# From -- ./inp_files/26782.got.cif
#   From: 2010.05.17/outbox.cif.g08.bks.cpg/sg69_14_cif.got.tgz:26782.got - 2010.06.03 19:29:58.
