data_PCOD9512673
_publ_section_title
;
Structure prediction by ZEFSAII (Michael W. Deem and Ramdas Pophale) SiO2 
 PCOD9512673
Probable space group: F M M M
;
_chemical_formula_sum "Si O2"
_cell_formula_units_Z 112
_cell_length_a 34.070501
_cell_length_b 11.107312
_cell_length_c 14.591413
_cell_angle_alpha 90.000000
_cell_angle_beta 90.000000
_cell_angle_gamma 90.000000
_cell_volume 5521.853002
_symmetry_space_group_name_H-M "F M M M"
_symmetry_group_IT_number 69
_symmetry_cell_setting 'orthorhombic'
loop_
_space_group_symop_operation_xyz
x,y,z
-x,-y,z
x,-y,-z
-x,y,-z
-x,-y,-z
x,y,-z
-x,y,z
x,-y,z
x,1/2+y,1/2+z
-x,1/2-y,1/2+z
x,1/2-y,1/2-z
-x,1/2+y,1/2-z
-x,1/2-y,1/2-z
x,1/2+y,1/2-z
-x,1/2+y,1/2+z
x,1/2-y,1/2+z
1/2+x,y,1/2+z
1/2-x,-y,1/2+z
1/2+x,-y,1/2-z
1/2-x,y,1/2-z
1/2-x,-y,1/2-z
1/2+x,y,1/2-z
1/2-x,y,1/2+z
1/2+x,-y,1/2+z
1/2+x,1/2+y,z
1/2-x,1/2-y,z
1/2+x,1/2-y,-z
1/2-x,1/2+y,-z
1/2-x,1/2-y,-z
1/2+x,1/2+y,-z
1/2-x,1/2+y,z
1/2+x,1/2-y,z
loop_
_atom_site_type_symbol
_atom_site_label
_atom_site_fract_x
_atom_site_fract_y
_atom_site_fract_z
Si Si1 0.046711 0.630907 0.357496
Si Si2 0.222054 0.134687 0.500000
Si Si3 0.082037 0.130143 0.652973
Si Si4 0.675038 0.134742 0.189569
O O1 0.058387 0.500000 0.395198
O O2 0.067388 0.749506 0.395521
O O3 0.059036 0.626937 0.250166
O O4 0.000000 0.642685 0.365634
O O5 0.250000 0.250000 0.500000
O O6 0.195659 0.140989 0.591111
O O7 0.241012 0.000000 0.500000
O O8 0.128132 0.140957 0.674789
O O9 0.075376 0.000000 0.608233
O O10 0.687042 0.250000 0.250000
O O11 0.683624 0.000000 0.228874
#
# Coordination Sequence:
#
# PCOD9512673 Si02
#       4
#    32  16  32  32
#     4   9  15  22  36  65 104 139 177 225 269 315
#     4  10  24  44  62  86 117 148 183 227 282 343
#     4   9  15  24  41  67  99 134 174 220 264 315
#     4  10  20  36  60  86 114 147 186 231 280 333
#
# _framework density 20.283045000000001
#
# number of rings (size 3 to 8) (size 9 to 14) (size 15 to 20)
#    0.000    2.571    2.857    1.714    0.000    3.429 
#    0.000    2.857    0.000    0.000    0.000    4.000 
#    0.000   27.429    0.000    0.000    0.000    0.000 
#
# Total GULP energy -156026.232976 kJ/mol
# GULP energy per Si atom -5572.365463 kJ/mol
# Density = 2.023688 g / cm^3
# Si number density = 20.283045 Si / 1000 Ang^3
#
#
#
# Elastic Constant Matrix: (Units=GPa)
#
#
# Indices 1 2 3 4 5 6 
#
# 1 19.4801 45.6087 7.6181 0.0000 0.0000 0.0000
# 2 45.6087 269.6303 58.1636 0.0000 0.0000 0.0000
# 3 7.6181 58.1636 77.9301 0.0000 0.0000 0.0000
# 4 0.0000 0.0000 0.0000 4.1576 0.0000 0.0000
# 5 0.0000 0.0000 0.0000 0.0000 -173.0460 0.0000
# 6 0.0000 0.0000 0.0000 0.0000 0.0000 30.9024
#
#
#
# Elastic Compliance Matrix: (Units=1/GPa)
#
#
# Indices 1 2 3 4 5 6 
#
# 1 0.085545 -0.015097 0.002905 0.000000 0.000000 0.000000
# 2 -0.015097 0.007085 -0.003812 0.000000 0.000000 0.000000
# 3 0.002905 -0.003812 0.015393 0.000000 0.000000 0.000000
# 4 0.000000 0.000000 0.000000 0.240524 0.000000 0.000000
# 5 0.000000 0.000000 0.000000 0.000000 -0.005779 0.000000
# 6 0.000000 0.000000 0.000000 0.000000 0.000000 0.032360
#
#
# Mechanical properties :
#
#
# Convention : Reuss Voigt Hill
#
# Bulk Modulus (GPa) = 13.15526 65.53570 39.34548
# Shear Modulus (GPa) = 11.56140 -10.55386 0.50377
#
# Velocity S-wave (km/s) = 2.39006 -2.28355 0.49891
# Velocity P-wave (km/s) = 3.75719 5.04261 4.44659
#
# Compressibility (1/GPa) = 0.07601522
#
# Stress axis : x y z
#
# Youngs Moduli (GPa) = 11.68981 141.14835 64.96425
#
# Poissons Ratio (x) = 2.13089 -0.18873
# Poissons Ratio (y) = 0.17648 0.24764
# Poissons Ratio (z) = -0.03396 0.53805
#
# Static dielectric constant tensor:
#      x y z
#    x 1.662830 0.000000 0.000000 
#    y 0.000000 1.819900 0.000000 
#    z 0.000000 0.000000 1.672310 
# 
# From -- ./inp_files/11921.got.cif
#   From: 2010.05.17/outbox.cif.g08.bks.cpg/sg69_6_cif.got.tgz:11921.got - 2010.06.03 19:29:58.
