data_PCOD9512780
_publ_section_title
;
Structure prediction by ZEFSAII (Michael W. Deem and Ramdas Pophale) SiO2 
 PCOD9512780
Probable space group: F M M M
;
_chemical_formula_sum "Si O2"
_cell_formula_units_Z 168
_cell_length_a 22.972595
_cell_length_b 24.675177
_cell_length_c 13.478089
_cell_angle_alpha 90.000000
_cell_angle_beta 90.000000
_cell_angle_gamma 90.000000
_cell_volume 7640.093132
_symmetry_space_group_name_H-M "F M M M"
_symmetry_group_IT_number 69
_symmetry_cell_setting 'orthorhombic'
loop_
_space_group_symop_operation_xyz
x,y,z
-x,-y,z
x,-y,-z
-x,y,-z
-x,-y,-z
x,y,-z
-x,y,z
x,-y,z
x,1/2+y,1/2+z
-x,1/2-y,1/2+z
x,1/2-y,1/2-z
-x,1/2+y,1/2-z
-x,1/2-y,1/2-z
x,1/2+y,1/2-z
-x,1/2+y,1/2+z
x,1/2-y,1/2+z
1/2+x,y,1/2+z
1/2-x,-y,1/2+z
1/2+x,-y,1/2-z
1/2-x,y,1/2-z
1/2-x,-y,1/2-z
1/2+x,y,1/2-z
1/2-x,y,1/2+z
1/2+x,-y,1/2+z
1/2+x,1/2+y,z
1/2-x,1/2-y,z
1/2+x,1/2-y,-z
1/2-x,1/2+y,-z
1/2-x,1/2-y,-z
1/2+x,1/2+y,-z
1/2-x,1/2+y,z
1/2+x,1/2-y,z
loop_
_atom_site_type_symbol
_atom_site_label
_atom_site_fract_x
_atom_site_fract_y
_atom_site_fract_z
Si Si1 0.500000 0.812961 0.500000
Si Si2 0.342287 0.562220 0.118912
Si Si3 0.711227 0.437129 0.620068
Si Si4 0.588813 0.337964 0.179734
Si Si5 0.684887 0.237867 0.388650
Si Si6 0.386869 0.848757 0.112159
O O1 0.549778 0.815396 0.589999
O O2 0.351838 0.500000 0.147267
O O3 0.276908 0.578537 0.152669
O O4 0.393243 0.601159 0.152974
O O5 0.341614 0.564480 0.000000
O O6 0.713639 0.436581 0.500000
O O7 0.701319 0.500000 0.648793
O O8 0.658295 0.396671 0.642507
O O9 0.648063 0.303054 0.176634
O O10 0.569896 0.338883 0.295077
O O11 0.689093 0.213533 0.500000
O O12 0.750000 0.250000 0.356690
O O13 0.650435 0.293971 0.395833
O O14 0.410272 0.859447 0.000000
#
# Coordination Sequence:
#
# PCOD9512780 Si02
#       6
#     8  32  32  32  32  32
#     4  12  28  48  67  88 112 166 219 268 320 358
#     4   9  17  32  57  91 128 167 210 252 302 367
#     4   8  15  30  54  90 135 170 195 235 302 381
#     4  12  23  42  64  86 125 165 211 262 316 366
#     4  10  20  37  64  97 131 161 199 254 318 383
#     4  10  22  37  59  91 127 160 203 246 303 381
#
# _framework density 21.989260999999999
#
# number of rings (size 3 to 8) (size 9 to 14) (size 15 to 20)
#    0.000    2.095    1.905    2.857    0.000    7.619 
#    0.000    5.238    0.000    0.000    0.000    0.000 
#    0.000    4.571    0.000    0.000    0.000    0.000 
#
# Total GULP energy -233942.446459 kJ/mol
# GULP energy per Si atom -5570.058249 kJ/mol
# Density = 2.193921 g / cm^3
# Si number density = 21.989261 Si / 1000 Ang^3
#
#
#
# Elastic Constant Matrix: (Units=GPa)
#
#
# Indices 1 2 3 4 5 6 
#
# 1 67.5948 10.7980 36.0637 0.0000 0.0000 0.0000
# 2 10.7980 57.5706 -3.5539 0.0000 0.0000 0.0000
# 3 36.0637 -3.5539 141.0273 0.0000 0.0000 0.0000
# 4 0.0000 0.0000 0.0000 58.1052 0.0000 0.0000
# 5 0.0000 0.0000 0.0000 0.0000 17.6859 0.0000
# 6 0.0000 0.0000 0.0000 0.0000 0.0000 -15.4188
#
#
#
# Elastic Compliance Matrix: (Units=1/GPa)
#
#
# Indices 1 2 3 4 5 6 
#
# 1 0.017861 -0.003638 -0.004659 0.000000 0.000000 0.000000
# 2 -0.003638 0.018138 0.001387 0.000000 0.000000 0.000000
# 3 -0.004659 0.001387 0.008317 0.000000 0.000000 0.000000
# 4 0.000000 0.000000 0.000000 0.017210 0.000000 0.000000
# 5 0.000000 0.000000 0.000000 0.000000 0.056542 0.000000
# 6 0.000000 0.000000 0.000000 0.000000 0.000000 -0.064856
#
#
# Mechanical properties :
#
#
# Convention : Reuss Voigt Hill
#
# Bulk Modulus (GPa) = 32.78989 39.20091 35.99540
# Shear Modulus (GPa) = 64.76924 26.93345 45.85135
#
# Velocity S-wave (km/s) = 5.43313 3.50358 4.57132
# Velocity P-wave (km/s) = 7.36903 5.85087 6.65340
#
# Compressibility (1/GPa) = 0.03049721
#
# Stress axis : x y z
#
# Youngs Moduli (GPa) = 55.98827 55.13319 120.23262
#
# Poissons Ratio (x) = 0.20055 0.56017
# Poissons Ratio (y) = 0.20366 -0.16680
# Poissons Ratio (z) = 0.26085 -0.07649
#
# Static dielectric constant tensor:
#      x y z
#    x 1.771130 0.000000 0.000000 
#    y 0.000000 1.794750 0.000000 
#    z 0.000000 0.000000 1.942480 
# 
# From -- ./inp_files/16888.got.cif
#   From: 2010.05.17/outbox.cif.g08.bks.cpg/sg69_9_cif.got.tgz:16888.got - 2010.06.03 19:29:58.
