data_PCOD9512634
_publ_section_title
;
Structure prediction by ZEFSAII (Michael W. Deem and Ramdas Pophale) SiO2 
 PCOD9512634
Probable space group: F M M M
;
_chemical_formula_sum "Si O2"
_cell_formula_units_Z 176
_cell_length_a 21.632869
_cell_length_b 28.514799
_cell_length_c 14.490189
_cell_angle_alpha 90.000000
_cell_angle_beta 90.000000
_cell_angle_gamma 90.000000
_cell_volume 8938.373231
_symmetry_space_group_name_H-M "F M M M"
_symmetry_group_IT_number 69
_symmetry_cell_setting 'orthorhombic'
loop_
_space_group_symop_operation_xyz
x,y,z
-x,-y,z
x,-y,-z
-x,y,-z
-x,-y,-z
x,y,-z
-x,y,z
x,-y,z
x,1/2+y,1/2+z
-x,1/2-y,1/2+z
x,1/2-y,1/2-z
-x,1/2+y,1/2-z
-x,1/2-y,1/2-z
x,1/2+y,1/2-z
-x,1/2+y,1/2+z
x,1/2-y,1/2+z
1/2+x,y,1/2+z
1/2-x,-y,1/2+z
1/2+x,-y,1/2-z
1/2-x,y,1/2-z
1/2-x,-y,1/2-z
1/2+x,y,1/2-z
1/2-x,y,1/2+z
1/2+x,-y,1/2+z
1/2+x,1/2+y,z
1/2-x,1/2-y,z
1/2+x,1/2-y,-z
1/2-x,1/2+y,-z
1/2-x,1/2-y,-z
1/2+x,1/2+y,-z
1/2-x,1/2+y,z
1/2+x,1/2-y,z
loop_
_atom_site_type_symbol
_atom_site_label
_atom_site_fract_x
_atom_site_fract_y
_atom_site_fract_z
Si Si1 0.067858 0.554011 0.843649
Si Si2 0.732384 0.654609 0.388045
Si Si3 0.708429 0.948504 0.105844
Si Si4 0.342323 0.804561 0.731521
Si Si5 0.576137 0.946053 0.500000
Si Si6 0.930050 0.118517 0.164551
O O1 0.067426 0.500000 0.810607
O O2 0.133626 0.558963 0.894045
O O3 0.069806 0.588796 0.758124
O O4 0.000000 0.560816 0.890402
O O5 0.729757 0.658657 0.500000
O O6 0.739004 0.599628 0.360172
O O7 0.672859 0.672371 0.331262
O O8 0.786035 0.685123 0.339838
O O9 0.720414 0.000000 0.148762
O O10 0.728244 0.951522 0.000000
O O11 0.351442 0.750000 0.750000
O O12 0.397106 0.832931 0.684177
O O13 0.500000 0.948164 0.500000
O O14 0.597801 0.916012 0.587686
O O15 0.597183 0.000000 0.500000
O O16 0.000000 0.127816 0.135335
#
# Coordination Sequence:
#
# PCOD9512634 Si02
#       6
#    32  32  32  32  16  32
#     4   9  16  28  50  79 111 149 188 224 276 350
#     4  10  21  40  62  83 115 152 196 247 299 357
#     4   9  17  31  52  80 116 150 180 226 287 349
#     4  11  24  40  60  87 111 148 206 254 299 354
#     4   9  18  34  58  90 127 162 196 238 293 368
#     4  10  20  36  58  85 119 154 190 241 299 353
#
# _framework density 19.690384000000002
#
# number of rings (size 3 to 8) (size 9 to 14) (size 15 to 20)
#    0.000    2.273    1.818    1.636    1.273    4.364 
#    0.000    5.455    0.000    0.545    0.000    0.000 
#    0.000    0.000    0.000    0.000    0.000    0.000 
#
# Total GULP energy -244984.472297 kJ/mol
# GULP energy per Si atom -5567.828916 kJ/mol
# Density = 1.964557 g / cm^3
# Si number density = 19.690384 Si / 1000 Ang^3
#
#
#
# Elastic Constant Matrix: (Units=GPa)
#
#
# Indices 1 2 3 4 5 6 
#
# 1 33.1069 36.1758 15.5532 0.0000 0.0000 0.0000
# 2 36.1758 184.6982 56.6196 0.0000 0.0000 0.0000
# 3 15.5532 56.6196 96.0292 0.0000 0.0000 0.0000
# 4 0.0000 0.0000 0.0000 24.5866 0.0000 0.0000
# 5 0.0000 0.0000 0.0000 0.0000 14.2167 0.0000
# 6 0.0000 0.0000 0.0000 0.0000 0.0000 31.7571
#
#
#
# Elastic Compliance Matrix: (Units=1/GPa)
#
#
# Indices 1 2 3 4 5 6 
#
# 1 0.038808 -0.006926 -0.002202 0.000000 0.000000 0.000000
# 2 -0.006926 0.007845 -0.003504 0.000000 0.000000 0.000000
# 3 -0.002202 -0.003504 0.012836 0.000000 0.000000 0.000000
# 4 0.000000 0.000000 0.000000 0.040673 0.000000 0.000000
# 5 0.000000 0.000000 0.000000 0.000000 0.070340 0.000000
# 6 0.000000 0.000000 0.000000 0.000000 0.000000 0.031489
#
#
# Mechanical properties :
#
#
# Convention : Reuss Voigt Hill
#
# Bulk Modulus (GPa) = 29.21798 58.94793 44.08296
# Shear Modulus (GPa) = 20.95021 27.81112 24.38067
#
# Velocity S-wave (km/s) = 3.26541 3.76230 3.52263
# Velocity P-wave (km/s) = 5.39334 6.99111 6.24355
#
# Compressibility (1/GPa) = 0.03422550
#
# Stress axis : x y z
#
# Youngs Moduli (GPa) = 25.76809 127.47222 77.90672
#
# Poissons Ratio (x) = 0.88288 0.17153
# Poissons Ratio (y) = 0.17847 0.27295
# Poissons Ratio (z) = 0.05674 0.44661
#
# Static dielectric constant tensor:
#      x y z
#    x 1.793410 0.000000 0.000000 
#    y 0.000000 1.688190 0.000000 
#    z 0.000000 0.000000 1.699070 
# 
# From -- ./inp_files/18121.got.cif
#   From: 2010.05.17/outbox.cif.g08.bks.cpg/sg69_10_cif.got.tgz:18121.got - 2010.06.03 19:29:58.
