data_PCOD9512684
_publ_section_title
;
Structure prediction by ZEFSAII (Michael W. Deem and Ramdas Pophale) SiO2 
 PCOD9512684
Probable space group: F M M M
;
_chemical_formula_sum "Si O2"
_cell_formula_units_Z 96
_cell_length_a 14.833253
_cell_length_b 10.762309
_cell_length_c 26.044683
_cell_angle_alpha 90.000000
_cell_angle_beta 90.000000
_cell_angle_gamma 90.000000
_cell_volume 4157.774555
_symmetry_space_group_name_H-M "F M M M"
_symmetry_group_IT_number 69
_symmetry_cell_setting 'orthorhombic'
loop_
_space_group_symop_operation_xyz
x,y,z
-x,-y,z
x,-y,-z
-x,y,-z
-x,-y,-z
x,y,-z
-x,y,z
x,-y,z
x,1/2+y,1/2+z
-x,1/2-y,1/2+z
x,1/2-y,1/2-z
-x,1/2+y,1/2-z
-x,1/2-y,1/2-z
x,1/2+y,1/2-z
-x,1/2+y,1/2+z
x,1/2-y,1/2+z
1/2+x,y,1/2+z
1/2-x,-y,1/2+z
1/2+x,-y,1/2-z
1/2-x,y,1/2-z
1/2-x,-y,1/2-z
1/2+x,y,1/2-z
1/2-x,y,1/2+z
1/2+x,-y,1/2+z
1/2+x,1/2+y,z
1/2-x,1/2-y,z
1/2+x,1/2-y,-z
1/2-x,1/2+y,-z
1/2-x,1/2-y,-z
1/2+x,1/2+y,-z
1/2-x,1/2+y,z
1/2+x,1/2-y,z
loop_
_atom_site_type_symbol
_atom_site_label
_atom_site_fract_x
_atom_site_fract_y
_atom_site_fract_z
Si Si1 0.889598 0.140410 0.288494
Si Si2 0.392761 0.000000 0.437886
Si Si3 0.606991 0.261634 0.397888
Si Si4 0.821392 0.138488 0.500000
O O1 0.861878 0.250000 0.250000
O O2 0.858566 0.177292 0.345755
O O3 0.000000 0.138717 0.288120
O O4 0.860868 0.000000 0.274970
O O5 0.354829 0.874730 0.412434
O O6 0.500000 0.000000 0.426527
O O7 0.391027 0.000000 0.500000
O O8 0.500000 0.247592 0.390707
O O9 0.622386 0.343112 0.448293
O O10 0.750000 0.250000 0.500000
O O11 0.784233 0.000000 0.500000
#
# Coordination Sequence:
#
# PCOD9512684 Si02
#       4
#    32  16  32  16
#     4   9  18  31  50  81 116 146 183 233 286 337
#     4   9  16  28  52  86 112 139 183 236 280 333
#     4  10  20  36  61  86 115 152 195 238 282 339
#     4  12  27  41  58  84 118 153 188 239 295 347
#
# _framework density 23.089274
#
# number of rings (size 3 to 8) (size 9 to 14) (size 15 to 20)
#    0.000    2.167    1.667    1.500    4.667    2.667 
#    0.000    0.000    0.000    1.000    0.000    4.667 
#    0.000    0.000    0.000    0.000    0.000    0.000 
#
# Total GULP energy -134121.367997 kJ/mol
# GULP energy per Si atom -5588.390333 kJ/mol
# Density = 2.303672 g / cm^3
# Si number density = 23.089274 Si / 1000 Ang^3
#
#
#
# Elastic Constant Matrix: (Units=GPa)
#
#
# Indices 1 2 3 4 5 6 
#
# 1 18.5644 13.6624 2.0403 0.0000 0.0000 0.0000
# 2 13.6624 231.0725 93.4996 0.0000 0.0000 0.0000
# 3 2.0403 93.4996 173.8707 0.0000 0.0000 0.0000
# 4 0.0000 0.0000 0.0000 37.3828 0.0000 0.0000
# 5 0.0000 0.0000 0.0000 0.0000 -11.5101 0.0000
# 6 0.0000 0.0000 0.0000 0.0000 0.0000 8.1362
#
#
#
# Elastic Compliance Matrix: (Units=1/GPa)
#
#
# Indices 1 2 3 4 5 6 
#
# 1 0.056602 -0.003934 0.001451 0.000000 0.000000 0.000000
# 2 -0.003934 0.005805 -0.003075 0.000000 0.000000 0.000000
# 3 0.001451 -0.003075 0.007388 0.000000 0.000000 0.000000
# 4 0.000000 0.000000 0.000000 0.026750 0.000000 0.000000
# 5 0.000000 0.000000 0.000000 0.000000 -0.086880 0.000000
# 6 0.000000 0.000000 0.000000 0.000000 0.000000 0.122907
#
#
# Mechanical properties :
#
#
# Convention : Reuss Voigt Hill
#
# Bulk Modulus (GPa) = 17.04185 71.32357 44.18271
# Shear Modulus (GPa) = 30.62826 27.75546 29.19186
#
# Velocity S-wave (km/s) = 3.64609 3.47088 3.55956
# Velocity P-wave (km/s) = 5.01220 6.85712 6.00592
#
# Compressibility (1/GPa) = 0.05867906
#
# Stress axis : x y z
#
# Youngs Moduli (GPa) = 17.66717 172.27698 135.35244
#
# Poissons Ratio (x) = 0.67772 -0.19643
# Poissons Ratio (y) = 0.06950 0.41625
# Poissons Ratio (z) = -0.02564 0.52980
#
# Static dielectric constant tensor:
#      x y z
#    x 1.896680 0.000000 0.000000 
#    y 0.000000 1.866780 0.000000 
#    z 0.000000 0.000000 1.863650 
# 
# From -- ./inp_files/9782.got.cif
#   From: 2010.05.17/outbox.cif.g08.bks.cpg/sg69_5_cif.got.tgz:9782.got - 2010.06.03 19:29:58.
