data_PCOD9512040
_publ_section_title
;
Structure prediction by ZEFSAII (Michael W. Deem and Ramdas Pophale) SiO2 
 PCOD9512040
Probable space group: F M M M
;
_chemical_formula_sum "Si O2"
_cell_formula_units_Z 232
_cell_length_a 29.941661
_cell_length_b 28.002169
_cell_length_c 15.679440
_cell_angle_alpha 90.000000
_cell_angle_beta 90.000000
_cell_angle_gamma 90.000000
_cell_volume 13146.135637
_symmetry_space_group_name_H-M "F M M M"
_symmetry_group_IT_number 69
_symmetry_cell_setting 'orthorhombic'
loop_
_space_group_symop_operation_xyz
x,y,z
-x,-y,z
x,-y,-z
-x,y,-z
-x,-y,-z
x,y,-z
-x,y,z
x,-y,z
x,1/2+y,1/2+z
-x,1/2-y,1/2+z
x,1/2-y,1/2-z
-x,1/2+y,1/2-z
-x,1/2-y,1/2-z
x,1/2+y,1/2-z
-x,1/2+y,1/2+z
x,1/2-y,1/2+z
1/2+x,y,1/2+z
1/2-x,-y,1/2+z
1/2+x,-y,1/2-z
1/2-x,y,1/2-z
1/2-x,-y,1/2-z
1/2+x,y,1/2-z
1/2-x,y,1/2+z
1/2+x,-y,1/2+z
1/2+x,1/2+y,z
1/2-x,1/2-y,z
1/2+x,1/2-y,-z
1/2-x,1/2+y,-z
1/2-x,1/2-y,-z
1/2+x,1/2+y,-z
1/2-x,1/2+y,z
1/2+x,1/2-y,z
loop_
_atom_site_type_symbol
_atom_site_label
_atom_site_fract_x
_atom_site_fract_y
_atom_site_fract_z
Si Si1 0.142685 0.764078 0.098429
Si Si2 0.143246 0.419711 0.855468
Si Si3 0.196294 0.325499 0.843490
Si Si4 0.049017 0.767667 0.603483
Si Si5 0.342808 0.000000 0.000000
Si Si6 0.794437 0.154151 0.141429
Si Si7 0.051023 0.119794 0.397245
Si Si8 0.796731 0.053737 0.802482
O O1 0.173148 0.725248 0.145318
O O2 0.092139 0.761666 0.132724
O O3 0.165953 0.815205 0.102492
O O4 0.141260 0.748288 0.000000
O O5 0.165824 0.368607 0.877595
O O6 0.155459 0.458423 0.925711
O O7 0.090194 0.410400 0.854470
O O8 0.164072 0.436909 0.765917
O O9 0.201725 0.336384 0.743136
O O10 0.245468 0.327448 0.884326
O O11 0.047143 0.764296 0.500000
O O12 0.055988 0.823818 0.622894
O O13 0.000000 0.752900 0.635673
O O14 0.797038 0.097210 0.131093
O O15 0.056051 0.114872 0.500000
O O16 0.000000 0.105925 0.375980
O O17 0.750000 0.057893 0.750000
O O18 0.799077 0.000000 0.836986
#
# Coordination Sequence:
#
# PCOD9512040 Si02
#       8
#    32  32  32  32   8  32  32  32
#     4  11  21  31  51  78 104 129 162 212 263 300
#     4  11  19  33  49  75 102 132 175 213 254 286
#     4  10  20  35  52  68  99 143 175 198 245 305
#     4   8  15  28  46  69  95 131 169 196 241 305
#     4  12  24  28  47  84 110 128 166 232 253 294
#     4  10  20  36  50  73  97 135 174 210 239 306
#     4   9  16  28  47  69 101 141 171 200 247 307
#     4  10  19  36  58  70  88 131 184 209 240 301
#
# _framework density 17.647772
#
# number of rings (size 3 to 8) (size 9 to 14) (size 15 to 20)
#    0.000    2.069    5.517    1.655    0.966    2.207 
#    0.000    0.690    0.000    5.379    0.000    0.000 
#    0.000    0.000    0.000    3.448    0.000    0.000 
#
# Total GULP energy -322908.729547 kJ/mol
# GULP energy per Si atom -5567.391889 kJ/mol
# Density = 1.760760 g / cm^3
# Si number density = 17.647772 Si / 1000 Ang^3
#
#
#
# Elastic Constant Matrix: (Units=GPa)
#
#
# Indices 1 2 3 4 5 6 
#
# 1 124.2234 41.1498 14.5572 0.0000 0.0000 0.0000
# 2 41.1498 102.8387 1.4683 0.0000 0.0000 0.0000
# 3 14.5572 1.4683 11.6573 0.0000 0.0000 0.0000
# 4 0.0000 0.0000 0.0000 8.7949 0.0000 0.0000
# 5 0.0000 0.0000 0.0000 0.0000 19.1616 0.0000
# 6 0.0000 0.0000 0.0000 0.0000 0.0000 8.5862
#
#
#
# Elastic Compliance Matrix: (Units=1/GPa)
#
#
# Indices 1 2 3 4 5 6 
#
# 1 0.010991 -0.004209 -0.013194 0.000000 0.000000 0.000000
# 2 -0.004209 0.011354 0.003826 0.000000 0.000000 0.000000
# 3 -0.013194 0.003826 0.101777 0.000000 0.000000 0.000000
# 4 0.000000 0.000000 0.000000 0.113702 0.000000 0.000000
# 5 0.000000 0.000000 0.000000 0.000000 0.052188 0.000000
# 6 0.000000 0.000000 0.000000 0.000000 0.000000 0.116466
#
#
# Mechanical properties :
#
#
# Convention : Reuss Voigt Hill
#
# Bulk Modulus (GPa) = 10.31277 39.23000 24.77138
# Shear Modulus (GPa) = 10.73065 19.41149 15.07107
#
# Velocity S-wave (km/s) = 2.46853 3.32013 2.92549
# Velocity P-wave (km/s) = 3.73915 6.08074 5.04760
#
# Compressibility (1/GPa) = 0.09696714
#
# Stress axis : x y z
#
# Youngs Moduli (GPa) = 90.98695 88.07726 9.82536
#
# Poissons Ratio (x) = 0.37075 0.12964
# Poissons Ratio (y) = 0.38300 -0.03760
# Poissons Ratio (z) = 1.20052 -0.33703
#
# Static dielectric constant tensor:
#      x y z
#    x 1.637890 0.000000 0.000000 
#    y 0.000000 1.607380 0.000000 
#    z 0.000000 0.000000 1.643460 
# 
# From -- ./inp_files/28090.got.cif
#   From: 2010.05.17/outbox.cif.g08.bks.cpg/sg69_15_cif.got.tgz:28090.got - 2010.06.03 19:29:58.
