data_PCOD9512582
_publ_section_title
;
Structure prediction by ZEFSAII (Michael W. Deem and Ramdas Pophale) SiO2 
 PCOD9512582
Probable space group: F M M M
;
_chemical_formula_sum "Si O2"
_cell_formula_units_Z 144
_cell_length_a 32.015589
_cell_length_b 28.357663
_cell_length_c 8.873009
_cell_angle_alpha 90.000000
_cell_angle_beta 90.000000
_cell_angle_gamma 90.000000
_cell_volume 8055.692038
_symmetry_space_group_name_H-M "F M M M"
_symmetry_group_IT_number 69
_symmetry_cell_setting 'orthorhombic'
loop_
_space_group_symop_operation_xyz
x,y,z
-x,-y,z
x,-y,-z
-x,y,-z
-x,-y,-z
x,y,-z
-x,y,z
x,-y,z
x,1/2+y,1/2+z
-x,1/2-y,1/2+z
x,1/2-y,1/2-z
-x,1/2+y,1/2-z
-x,1/2-y,1/2-z
x,1/2+y,1/2-z
-x,1/2+y,1/2+z
x,1/2-y,1/2+z
1/2+x,y,1/2+z
1/2-x,-y,1/2+z
1/2+x,-y,1/2-z
1/2-x,y,1/2-z
1/2-x,-y,1/2-z
1/2+x,y,1/2-z
1/2-x,y,1/2+z
1/2+x,-y,1/2+z
1/2+x,1/2+y,z
1/2-x,1/2-y,z
1/2+x,1/2-y,-z
1/2-x,1/2+y,-z
1/2-x,1/2-y,-z
1/2+x,1/2+y,-z
1/2-x,1/2+y,z
1/2+x,1/2-y,z
loop_
_atom_site_type_symbol
_atom_site_label
_atom_site_fract_x
_atom_site_fract_y
_atom_site_fract_z
Si Si1 0.000000 0.697971 0.819599
Si Si2 0.092080 0.302320 0.818902
Si Si3 0.547356 0.443053 0.322532
Si Si4 0.205578 0.056414 0.321877
Si Si5 0.126508 0.607948 0.320795
O O1 0.000000 0.750000 0.750000
O O2 0.045289 0.678320 0.777931
O O3 0.000000 0.701120 0.000000
O O4 0.096284 0.250000 0.750000
O O5 0.123441 0.339917 0.749912
O O6 0.095264 0.300013 0.000000
O O7 0.551705 0.430327 0.500000
O O8 0.500000 0.429402 0.276011
O O9 0.549822 0.500000 0.312551
O O10 0.585206 0.420285 0.232551
O O11 0.205374 0.066416 0.500000
O O12 0.250000 0.069978 0.250000
O O13 0.167105 0.081786 0.242404
O O14 0.200857 0.000000 0.302381
O O15 0.127574 0.610408 0.500000
#
# Coordination Sequence:
#
# PCOD9512582 Si02
#       5
#    16  32  32  32  32
#     4   8  16  30  50  72  97 134 179 228 278 325
#     4  10  20  36  55  78 108 146 190 238 287 334
#     4   9  19  36  55  75 105 147 191 233 279 332
#     4  10  21  39  63  89 116 146 182 229 284 338
#     4  12  24  35  53  83 115 150 189 230 277 335
#
# _framework density 17.875558000000002
#
# number of rings (size 3 to 8) (size 9 to 14) (size 15 to 20)
#    0.000    2.000    0.000    4.667    1.556    5.778 
#    0.000    1.111    0.000    0.667    0.000    4.667 
#    0.000    0.000    0.000    0.000    0.000    0.000 
#
# Total GULP energy -201008.673070 kJ/mol
# GULP energy per Si atom -5583.574252 kJ/mol
# Density = 1.783487 g / cm^3
# Si number density = 17.875558 Si / 1000 Ang^3
#
#
#
# Elastic Constant Matrix: (Units=GPa)
#
#
# Indices 1 2 3 4 5 6 
#
# 1 142.0033 65.9672 82.8719 -0.0033 0.0023 0.0017
# 2 65.9672 69.8391 61.7512 -0.0051 0.0033 0.0019
# 3 82.8719 61.7512 113.6612 -0.0130 0.0098 0.0029
# 4 -0.0033 -0.0051 -0.0130 27.0040 0.0054 0.0022
# 5 0.0023 0.0033 0.0098 0.0054 27.8434 -0.0018
# 6 0.0017 0.0019 0.0029 0.0022 -0.0018 25.6974
#
#
#
# Elastic Compliance Matrix: (Units=1/GPa)
#
#
# Indices 1 2 3 4 5 6 
#
# 1 0.014390 -0.008305 -0.005980 -0.000003 0.000002 0.000000
# 2 -0.008305 0.032348 -0.011520 0.000000 0.000001 -0.000001
# 3 -0.005980 -0.011520 0.019417 0.000006 -0.000005 -0.000001
# 4 -0.000003 0.000000 0.000006 0.037032 -0.000007 -0.000003
# 5 0.000002 0.000001 -0.000005 -0.000007 0.035915 0.000003
# 6 0.000000 -0.000001 -0.000001 -0.000003 0.000003 0.038914
#
#
# Mechanical properties :
#
#
# Convention : Reuss Voigt Hill
#
# Bulk Modulus (GPa) = 68.74517 82.96489 75.85503
# Shear Modulus (GPa) = 21.32439 23.76986 22.54713
#
# Velocity S-wave (km/s) = 3.45764 3.65052 3.55539
# Velocity P-wave (km/s) = 7.38116 8.01758 7.70594
#
# Compressibility (1/GPa) = 0.01454648
#
# Stress axis : x y z
#
# Youngs Moduli (GPa) = 69.49346 30.91347 51.50204
#
# Poissons Ratio (x) = 0.25672 0.30798
# Poissons Ratio (y) = 0.57711 0.59328
# Poissons Ratio (z) = 0.41557 0.35611
#
# Static dielectric constant tensor:
#      x y z
#    x 1.604270 0.000000 0.000000 
#    y 0.000000 1.616720 0.000000 
#    z 0.000000 0.000000 1.596040 
# 
# From -- ./inp_files/5586.got.cif
#   From: 2010.05.17/outbox.cif.g08.bks.cpg/sg69_3_cif.got.tgz:5586.got - 2010.06.03 19:29:58.
