data_PCOD9512815
_publ_section_title
;
Structure prediction by ZEFSAII (Michael W. Deem and Ramdas Pophale) SiO2 
 PCOD9512815
Probable space group: F M M M
;
_chemical_formula_sum "Si O2"
_cell_formula_units_Z 208
_cell_length_a 21.524440
_cell_length_b 17.345857
_cell_length_c 29.893057
_cell_angle_alpha 90.000000
_cell_angle_beta 90.000000
_cell_angle_gamma 90.000000
_cell_volume 11160.867524
_symmetry_space_group_name_H-M "F M M M"
_symmetry_group_IT_number 69
_symmetry_cell_setting 'orthorhombic'
loop_
_space_group_symop_operation_xyz
x,y,z
-x,-y,z
x,-y,-z
-x,y,-z
-x,-y,-z
x,y,-z
-x,y,z
x,-y,z
x,1/2+y,1/2+z
-x,1/2-y,1/2+z
x,1/2-y,1/2-z
-x,1/2+y,1/2-z
-x,1/2-y,1/2-z
x,1/2+y,1/2-z
-x,1/2+y,1/2+z
x,1/2-y,1/2+z
1/2+x,y,1/2+z
1/2-x,-y,1/2+z
1/2+x,-y,1/2-z
1/2-x,y,1/2-z
1/2-x,-y,1/2-z
1/2+x,y,1/2-z
1/2-x,y,1/2+z
1/2+x,-y,1/2+z
1/2+x,1/2+y,z
1/2-x,1/2-y,z
1/2+x,1/2-y,-z
1/2-x,1/2+y,-z
1/2-x,1/2-y,-z
1/2+x,1/2+y,-z
1/2-x,1/2+y,z
1/2+x,1/2-y,z
loop_
_atom_site_type_symbol
_atom_site_label
_atom_site_fract_x
_atom_site_fract_y
_atom_site_fract_z
Si Si1 0.690496 0.093195 0.719698
Si Si2 0.617336 0.907989 0.129553
Si Si3 0.846707 0.146119 0.052807
Si Si4 0.929655 0.500000 0.445749
Si Si5 0.255404 0.341319 0.131483
Si Si6 0.431127 0.593765 0.272768
Si Si7 0.572282 0.200510 0.948457
O O1 0.750000 0.115929 0.750000
O O2 0.701162 0.125108 0.670371
O O3 0.626421 0.120069 0.742386
O O4 0.690004 0.000000 0.718210
O O5 0.688727 0.881875 0.134460
O O6 0.582746 0.886347 0.175636
O O7 0.588411 0.864597 0.087289
O O8 0.613870 0.000000 0.124452
O O9 0.891678 0.076099 0.066587
O O10 0.786191 0.144659 0.083330
O O11 0.883503 0.226065 0.059355
O O12 0.832590 0.138470 0.000000
O O13 0.933125 0.500000 0.500000
O O14 0.000000 0.500000 0.428464
O O15 0.250000 0.250000 0.137999
O O16 0.500000 0.620300 0.259410
O O17 0.430822 0.500000 0.270736
O O18 0.500000 0.223563 0.944200
O O19 0.581713 0.175035 0.000000
#
# Coordination Sequence:
#
# PCOD9512815 Si02
#       7
#    32  32  32  16  32  32  32
#     4  10  20  38  63  88 117 155 198 245 301 365
#     4  11  22  38  61  90 120 160 206 248 302 367
#     4  10  22  39  60  89 122 161 205 251 301 359
#     4   9  18  36  62  88 115 156 207 251 298 361
#     4  12  24  39  60  87 120 160 202 250 306 364
#     4   9  18  36  62  89 118 155 199 248 302 363
#     4  10  21  39  61  86 122 163 201 249 308 363
#
# _framework density 18.636544000000001
#
# number of rings (size 3 to 8) (size 9 to 14) (size 15 to 20)
#    0.000    1.769    3.077    1.385    2.154    4.308 
#    0.000    2.308    0.000    0.923    0.000    0.000 
#    0.000    0.000    0.000    0.000    0.000    0.000 
#
# Total GULP energy -290384.316691 kJ/mol
# GULP energy per Si atom -5584.313783 kJ/mol
# Density = 1.859413 g / cm^3
# Si number density = 18.636544 Si / 1000 Ang^3
#
#
#
# Elastic Constant Matrix: (Units=GPa)
#
#
# Indices 1 2 3 4 5 6 
#
# 1 117.7506 9.7359 41.2770 0.0000 0.0000 0.0000
# 2 9.7359 39.7950 16.3481 0.0000 0.0000 0.0000
# 3 41.2770 16.3481 71.9644 0.0000 0.0000 0.0000
# 4 0.0000 0.0000 0.0000 -0.0160 0.0000 0.0000
# 5 0.0000 0.0000 0.0000 0.0000 35.9295 0.0000
# 6 0.0000 0.0000 0.0000 0.0000 0.0000 16.2507
#
#
#
# Elastic Compliance Matrix: (Units=1/GPa)
#
#
# Indices 1 2 3 4 5 6 
#
# 1 0.010630 -0.000106 -0.006073 0.000000 0.000000 0.000000
# 2 -0.000106 0.027716 -0.006236 0.000000 0.000000 0.000000
# 3 -0.006073 -0.006236 0.018796 0.000000 0.000000 0.000000
# 4 0.000000 0.000000 0.000000-62.683678 0.000000 0.000000
# 5 0.000000 0.000000 0.000000 0.000000 0.027832 0.000000
# 6 0.000000 0.000000 0.000000 0.000000 0.000000 0.061536
#
#
# Mechanical properties :
#
#
# Convention : Reuss Voigt Hill
#
# Bulk Modulus (GPa) = 30.94722 40.47022 35.70872
# Shear Modulus (GPa) = -0.08000 21.24276 10.58138
#
# Velocity S-wave (km/s) = -0.20741 3.37982 2.38539
# Velocity P-wave (km/s) = 4.07239 6.08223 5.17581
#
# Compressibility (1/GPa) = 0.03231308
#
# Stress axis : x y z
#
# Youngs Moduli (GPa) = 94.07150 36.07980 53.20351
#
# Poissons Ratio (x) = 0.00382 0.32312
# Poissons Ratio (y) = 0.00995 0.33176
# Poissons Ratio (z) = 0.57132 0.22498
#
# Static dielectric constant tensor:
#      x y z
#    x 1.646830 0.000000 0.000000 
#    y 0.000000 1.620310 0.000000 
#    z 0.000000 0.000000 1.626590 
# 
# From -- ./inp_files/42744.got.cif
#   From: 2010.05.17/outbox.cif.g08.bks.cpg/sg69_22_cif.got.tgz:42744.got - 2010.06.03 19:29:58.
