data_PCOD9512491
_publ_section_title
;
Structure prediction by ZEFSAII (Michael W. Deem and Ramdas Pophale) SiO2 
 PCOD9512491
Probable space group: F M M M
;
_chemical_formula_sum "Si O2"
_cell_formula_units_Z 160
_cell_length_a 15.096809
_cell_length_b 15.167147
_cell_length_c 37.539624
_cell_angle_alpha 90.000000
_cell_angle_beta 90.000000
_cell_angle_gamma 90.000000
_cell_volume 8595.654976
_symmetry_space_group_name_H-M "F M M M"
_symmetry_group_IT_number 69
_symmetry_cell_setting 'orthorhombic'
loop_
_space_group_symop_operation_xyz
x,y,z
-x,-y,z
x,-y,-z
-x,y,-z
-x,-y,-z
x,y,-z
-x,y,z
x,-y,z
x,1/2+y,1/2+z
-x,1/2-y,1/2+z
x,1/2-y,1/2-z
-x,1/2+y,1/2-z
-x,1/2-y,1/2-z
x,1/2+y,1/2-z
-x,1/2+y,1/2+z
x,1/2-y,1/2+z
1/2+x,y,1/2+z
1/2-x,-y,1/2+z
1/2+x,-y,1/2-z
1/2-x,y,1/2-z
1/2-x,-y,1/2-z
1/2+x,y,1/2-z
1/2-x,y,1/2+z
1/2+x,-y,1/2+z
1/2+x,1/2+y,z
1/2-x,1/2-y,z
1/2+x,1/2-y,-z
1/2-x,1/2+y,-z
1/2-x,1/2-y,-z
1/2+x,1/2+y,-z
1/2-x,1/2+y,z
1/2+x,1/2-y,z
loop_
_atom_site_type_symbol
_atom_site_label
_atom_site_fract_x
_atom_site_fract_y
_atom_site_fract_z
Si Si1 0.606098 0.901530 0.459174
Si Si2 0.500000 0.137962 0.286017
Si Si3 0.146523 0.901356 0.158203
Si Si4 0.855866 0.101643 0.647502
Si Si5 0.500000 0.651383 0.704833
Si Si6 0.144742 0.261439 0.600538
O O1 0.637391 0.890595 0.500000
O O2 0.500000 0.906890 0.459907
O O3 0.626092 0.815781 0.435389
O O4 0.638002 0.000000 0.446641
O O5 0.588707 0.105729 0.306145
O O6 0.500000 0.243502 0.290274
O O7 0.500000 0.113156 0.244630
O O8 0.252719 0.886097 0.159444
O O9 0.112236 0.828168 0.131107
O O10 0.133303 0.000000 0.143882
O O11 0.915927 0.123256 0.681470
O O12 0.884104 0.165365 0.614774
O O13 0.866576 0.000000 0.637314
O O14 0.250000 0.250000 0.601104
#
# Coordination Sequence:
#
# PCOD9512491 Si02
#       6
#    32  16  32  32  16  32
#     4   9  19  35  57  88 120 147 177 220 278 334
#     4  11  23  37  59  84 109 144 189 237 292 351
#     4  10  21  37  57  84 111 140 184 239 291 337
#     4  10  22  39  57  79 112 151 193 235 279 332
#     4  11  23  39  57  80 111 151 192 229 285 344
#     4  10  20  35  56  82 112 144 186 226 274 326
#
# _framework density 18.614055
#
# number of rings (size 3 to 8) (size 9 to 14) (size 15 to 20)
#    0.000    2.000    2.000    1.800    2.800    3.600 
#    0.000    4.000    0.000    0.600    0.000    1.400 
#    0.000    0.000    0.000    0.000    0.000    0.000 
#
# Total GULP energy -222735.843904 kJ/mol
# GULP energy per Si atom -5568.396098 kJ/mol
# Density = 1.857169 g / cm^3
# Si number density = 18.614055 Si / 1000 Ang^3
#
#
#
# Elastic Constant Matrix: (Units=GPa)
#
#
# Indices 1 2 3 4 5 6 
#
# 1 49.8537 42.8881 25.5048 0.0000 0.0000 0.0000
# 2 42.8881 151.3907 74.3549 0.0000 0.0000 0.0000
# 3 25.5048 74.3549 123.1271 0.0000 0.0000 0.0000
# 4 0.0000 0.0000 0.0000 8.8770 0.0000 0.0000
# 5 0.0000 0.0000 0.0000 0.0000 23.9449 0.0000
# 6 0.0000 0.0000 0.0000 0.0000 0.0000 16.1624
#
#
#
# Elastic Compliance Matrix: (Units=1/GPa)
#
#
# Indices 1 2 3 4 5 6 
#
# 1 0.026684 -0.006887 -0.001368 0.000000 0.000000 0.000000
# 2 -0.006887 0.011168 -0.005318 0.000000 0.000000 0.000000
# 3 -0.001368 -0.005318 0.011616 0.000000 0.000000 0.000000
# 4 0.000000 0.000000 0.000000 0.112651 0.000000 0.000000
# 5 0.000000 0.000000 0.000000 0.000000 0.041763 0.000000
# 6 0.000000 0.000000 0.000000 0.000000 0.000000 0.061872
#
#
# Mechanical properties :
#
#
# Convention : Reuss Voigt Hill
#
# Bulk Modulus (GPa) = 44.79897 67.76301 56.28099
# Shear Modulus (GPa) = 16.64774 21.90509 19.27642
#
# Velocity S-wave (km/s) = 2.99384 3.43418 3.22154
# Velocity P-wave (km/s) = 6.00585 7.22551 6.64373
#
# Compressibility (1/GPa) = 0.02232194
#
# Stress axis : x y z
#
# Youngs Moduli (GPa) = 37.47605 89.53841 86.08500
#
# Poissons Ratio (x) = 0.61669 0.11777
# Poissons Ratio (y) = 0.25811 0.45778
# Poissons Ratio (z) = 0.05127 0.47615
#
# Static dielectric constant tensor:
#      x y z
#    x 1.645600 0.000000 0.000000 
#    y 0.000000 1.695680 0.000000 
#    z 0.000000 0.000000 1.655800 
# 
# From -- ./inp_files/46285.got.cif
#   From: 2010.05.17/outbox.cif.g08.bks.cpg/sg69_24_cif.got.tgz:46285.got - 2010.06.03 19:29:58.
