data_PCOD9512036
_publ_section_title
;
Structure prediction by ZEFSAII (Michael W. Deem and Ramdas Pophale) SiO2 
 PCOD9512036
Probable space group: F M M M
;
_chemical_formula_sum "Si O2"
_cell_formula_units_Z 104
_cell_length_a 7.336302
_cell_length_b 19.609943
_cell_length_c 26.861861
_cell_angle_alpha 90.000000
_cell_angle_beta 90.000000
_cell_angle_gamma 90.000000
_cell_volume 3864.467236
_symmetry_space_group_name_H-M "F M M M"
_symmetry_group_IT_number 69
_symmetry_cell_setting 'orthorhombic'
loop_
_space_group_symop_operation_xyz
x,y,z
-x,-y,z
x,-y,-z
-x,y,-z
-x,-y,-z
x,y,-z
-x,y,z
x,-y,z
x,1/2+y,1/2+z
-x,1/2-y,1/2+z
x,1/2-y,1/2-z
-x,1/2+y,1/2-z
-x,1/2-y,1/2-z
x,1/2+y,1/2-z
-x,1/2+y,1/2+z
x,1/2-y,1/2+z
1/2+x,y,1/2+z
1/2-x,-y,1/2+z
1/2+x,-y,1/2-z
1/2-x,y,1/2-z
1/2-x,-y,1/2-z
1/2+x,y,1/2-z
1/2-x,y,1/2+z
1/2+x,-y,1/2+z
1/2+x,1/2+y,z
1/2-x,1/2-y,z
1/2+x,1/2-y,-z
1/2-x,1/2+y,-z
1/2-x,1/2-y,-z
1/2+x,1/2+y,-z
1/2-x,1/2+y,z
1/2+x,1/2-y,z
loop_
_atom_site_type_symbol
_atom_site_label
_atom_site_fract_x
_atom_site_fract_y
_atom_site_fract_z
Si Si1 0.702395 0.500000 0.441243
Si Si2 0.725789 0.151027 0.663043
Si Si3 0.250000 0.250000 0.750000
Si Si4 0.206395 0.153406 0.055849
Si Si5 0.784686 0.000000 0.191538
O O1 0.500000 0.500000 0.418644
O O2 0.678101 0.500000 0.500000
O O3 0.800174 0.571715 0.433980
O O4 0.500000 0.155715 0.666418
O O5 0.807585 0.194559 0.708048
O O6 0.786836 0.176613 0.608431
O O7 0.780824 0.072176 0.670591
O O8 0.000000 0.179263 0.053245
O O9 0.286349 0.164288 0.000000
O O10 0.750000 0.000000 0.250000
O O11 0.000000 0.000000 0.181707
#
# Coordination Sequence:
#
# PCOD9512036 Si02
#       5
#    16  32   8  32  16
#     4   9  16  27  47  81 121 149 177 225 283 338
#     4  10  21  37  59  84 113 148 191 241 286 339
#     4  12  22  38  58  78 116 150 194 238 302 342
#     4   9  17  32  55  80 109 149 192 230 276 339
#     4  10  19  36  57  82 113 144 186 234 277 329
#
# _framework density 26.911859
#
# number of rings (size 3 to 8) (size 9 to 14) (size 15 to 20)
#    0.000    2.308    1.538    1.846    0.000    4.308 
#    0.000    6.923    0.000    0.000    0.000    0.000 
#    0.000    0.000    0.000    0.000    0.000    0.000 
#
# Total GULP energy -144869.256239 kJ/mol
# GULP energy per Si atom -5571.894471 kJ/mol
# Density = 2.685061 g / cm^3
# Si number density = 26.911859 Si / 1000 Ang^3
#
#
#
# Elastic Constant Matrix: (Units=GPa)
#
#
# Indices 1 2 3 4 5 6 
#
# 1 127.5420 12.8471 22.4129 0.0000 0.0000 0.0000
# 2 12.8471 188.6943 66.5966 0.0000 0.0000 0.0000
# 3 22.4129 66.5966 331.6274 0.0000 0.0000 0.0000
# 4 0.0000 0.0000 0.0000 -116.2015 0.0000 0.0000
# 5 0.0000 0.0000 0.0000 0.0000 -17.0478 0.0000
# 6 0.0000 0.0000 0.0000 0.0000 0.0000 54.1899
#
#
#
# Elastic Compliance Matrix: (Units=1/GPa)
#
#
# Indices 1 2 3 4 5 6 
#
# 1 0.007960 -0.000379 -0.000462 0.000000 0.000000 0.000000
# 2 -0.000379 0.005722 -0.001123 0.000000 0.000000 0.000000
# 3 -0.000462 -0.001123 0.003272 0.000000 0.000000 0.000000
# 4 0.000000 0.000000 0.000000 -0.008606 0.000000 0.000000
# 5 0.000000 0.000000 0.000000 0.000000 -0.058659 0.000000
# 6 0.000000 0.000000 0.000000 0.000000 0.000000 0.018454
#
#
# Mechanical properties :
#
#
# Convention : Reuss Voigt Hill
#
# Bulk Modulus (GPa) = 76.77232 94.61965 85.69599
# Shear Modulus (GPa) = -211.98635 20.58861 -95.69887
#
# Velocity S-wave (km/s) = -8.88491 2.76893 -5.96970
# Velocity P-wave (km/s) = 8.75593 6.74226 3.95020
#
# Compressibility (1/GPa) = 0.01302553
#
# Stress axis : x y z
#
# Youngs Moduli (GPa) = 125.62991 174.76779 305.59976
#
# Poissons Ratio (x) = 0.06623 0.14115
# Poissons Ratio (y) = 0.04761 0.34332
# Poissons Ratio (z) = 0.05802 0.19634
#
# Static dielectric constant tensor:
#      x y z
#    x 3.129940 0.000000 0.000000 
#    y 0.000000 2.800490 0.000000 
#    z 0.000000 0.000000 2.065210 
# 
# From -- ./inp_files/32372.got.cif
#   From: 2010.05.17/outbox.cif.g08.bks.cpg/sg69_17_cif.got.tgz:32372.got - 2010.06.03 19:29:58.
