data_PCOD9512158
_publ_section_title
;
Structure prediction by ZEFSAII (Michael W. Deem and Ramdas Pophale) SiO2 
 PCOD9512158
Probable space group: F M M M
;
_chemical_formula_sum "Si O2"
_cell_formula_units_Z 144
_cell_length_a 7.598157
_cell_length_b 29.476513
_cell_length_c 32.457779
_cell_angle_alpha 90.000000
_cell_angle_beta 90.000000
_cell_angle_gamma 90.000000
_cell_volume 7269.477024
_symmetry_space_group_name_H-M "F M M M"
_symmetry_group_IT_number 69
_symmetry_cell_setting 'orthorhombic'
loop_
_space_group_symop_operation_xyz
x,y,z
-x,-y,z
x,-y,-z
-x,y,-z
-x,-y,-z
x,y,-z
-x,y,z
x,-y,z
x,1/2+y,1/2+z
-x,1/2-y,1/2+z
x,1/2-y,1/2-z
-x,1/2+y,1/2-z
-x,1/2-y,1/2-z
x,1/2+y,1/2-z
-x,1/2+y,1/2+z
x,1/2-y,1/2+z
1/2+x,y,1/2+z
1/2-x,-y,1/2+z
1/2+x,-y,1/2-z
1/2-x,y,1/2-z
1/2-x,-y,1/2-z
1/2+x,y,1/2-z
1/2-x,y,1/2+z
1/2+x,-y,1/2+z
1/2+x,1/2+y,z
1/2-x,1/2-y,z
1/2+x,1/2-y,-z
1/2-x,1/2+y,-z
1/2-x,1/2-y,-z
1/2+x,1/2+y,-z
1/2-x,1/2+y,z
1/2+x,1/2-y,z
loop_
_atom_site_type_symbol
_atom_site_label
_atom_site_fract_x
_atom_site_fract_y
_atom_site_fract_z
Si Si1 0.787638 0.446997 0.454078
Si Si2 0.291806 0.390938 0.372029
Si Si3 0.210113 0.696326 0.000000
Si Si4 0.288536 0.551673 0.704220
Si Si5 0.287949 0.302955 0.589505
O O1 0.728448 0.431389 0.500000
O O2 0.734620 0.500000 0.449531
O O3 0.727338 0.418209 0.414949
O O4 0.000000 0.445962 0.454187
O O5 0.500000 0.386533 0.364317
O O6 0.217885 0.418651 0.333484
O O7 0.221156 0.340098 0.378489
O O8 0.250000 0.750000 0.000000
O O9 0.279999 0.681415 0.955749
O O10 0.000000 0.689074 0.000000
O O11 0.500000 0.549267 0.700276
O O12 0.220327 0.500000 0.701797
O O13 0.250000 0.569473 0.750000
O O14 0.500000 0.305974 0.587928
O O15 0.250000 0.250000 0.596628
#
# Coordination Sequence:
#
# PCOD9512158 Si02
#       5
#    32  32  16  32  32
#     4   9  19  34  48  67 100 137 169 200 237 289
#     4  10  20  32  51  76 100 127 164 209 251 295
#     4   8  14  26  42  60  85 118 155 193 234 275
#     4   9  18  33  52  75 101 126 156 198 248 299
#     4   9  18  31  47  68  96 128 163 205 247 288
#
# _framework density 19.808852000000002
#
# number of rings (size 3 to 8) (size 9 to 14) (size 15 to 20)
#    0.000    2.889    0.000    1.333    1.556    3.556 
#    0.000    3.333    0.000    0.667    0.000    4.667 
#    0.000    0.000    0.000    0.000    0.000    0.000 
#
# Total GULP energy -200702.142238 kJ/mol
# GULP energy per Si atom -5575.059507 kJ/mol
# Density = 1.976377 g / cm^3
# Si number density = 19.808852 Si / 1000 Ang^3
#
#
#
# Elastic Constant Matrix: (Units=GPa)
#
#
# Indices 1 2 3 4 5 6 
#
# 1 43.6427 -0.6002 -2.0966 0.0000 0.0000 0.0000
# 2 -0.6002 105.5250 92.7968 0.0000 0.0000 0.0000
# 3 -2.0966 92.7968 156.3641 0.0000 0.0000 0.0000
# 4 0.0000 0.0000 0.0000 27.3847 0.0000 0.0000
# 5 0.0000 0.0000 0.0000 0.0000 13.2402 0.0000
# 6 0.0000 0.0000 0.0000 0.0000 0.0000 13.7376
#
#
#
# Elastic Compliance Matrix: (Units=1/GPa)
#
#
# Indices 1 2 3 4 5 6 
#
# 1 0.022932 -0.000293 0.000481 0.000000 0.000000 0.000000
# 2 -0.000293 0.019824 -0.011769 0.000000 0.000000 0.000000
# 3 0.000481 -0.011769 0.013386 0.000000 0.000000 0.000000
# 4 0.000000 0.000000 0.000000 0.036517 0.000000 0.000000
# 5 0.000000 0.000000 0.000000 0.000000 0.075528 0.000000
# 6 0.000000 0.000000 0.000000 0.000000 0.000000 0.072793
#
#
# Mechanical properties :
#
#
# Convention : Reuss Voigt Hill
#
# Bulk Modulus (GPa) = 30.31959 53.97020 42.14490
# Shear Modulus (GPa) = 18.17293 25.23464 21.70379
#
# Velocity S-wave (km/s) = 3.03217 3.57306 3.31367
# Velocity P-wave (km/s) = 5.25339 6.65785 5.99687
#
# Compressibility (1/GPa) = 0.03298197
#
# Stress axis : x y z
#
# Youngs Moduli (GPa) = 43.60635 50.44377 74.70391
#
# Poissons Ratio (x) = 0.01477 -0.03595
# Poissons Ratio (y) = 0.01277 0.87918
# Poissons Ratio (z) = -0.02099 0.59366
#
# Static dielectric constant tensor:
#      x y z
#    x 1.726470 0.000000 0.000000 
#    y 0.000000 1.712250 0.000000 
#    z 0.000000 0.000000 1.710530 
# 
# From -- ./inp_files/5538.got.cif
#   From: 2010.05.17/outbox.cif.g08.bks.cpg/sg69_3_cif.got.tgz:5538.got - 2010.06.03 19:29:58.
