data_PCOD9512847
_publ_section_title
;
Structure prediction by ZEFSAII (Michael W. Deem and Ramdas Pophale) SiO2 
 PCOD9512847
Probable space group: F M M M
;
_chemical_formula_sum "Si O2"
_cell_formula_units_Z 192
_cell_length_a 27.182777
_cell_length_b 19.985925
_cell_length_c 18.688588
_cell_angle_alpha 90.000000
_cell_angle_beta 90.000000
_cell_angle_gamma 90.000000
_cell_volume 10153.004192
_symmetry_space_group_name_H-M "F M M M"
_symmetry_group_IT_number 69
_symmetry_cell_setting 'orthorhombic'
loop_
_space_group_symop_operation_xyz
x,y,z
-x,-y,z
x,-y,-z
-x,y,-z
-x,-y,-z
x,y,-z
-x,y,z
x,-y,z
x,1/2+y,1/2+z
-x,1/2-y,1/2+z
x,1/2-y,1/2-z
-x,1/2+y,1/2-z
-x,1/2-y,1/2-z
x,1/2+y,1/2-z
-x,1/2+y,1/2+z
x,1/2-y,1/2+z
1/2+x,y,1/2+z
1/2-x,-y,1/2+z
1/2+x,-y,1/2-z
1/2-x,y,1/2-z
1/2-x,-y,1/2-z
1/2+x,y,1/2-z
1/2-x,y,1/2+z
1/2+x,-y,1/2+z
1/2+x,1/2+y,z
1/2-x,1/2-y,z
1/2+x,1/2-y,-z
1/2-x,1/2+y,-z
1/2-x,1/2-y,-z
1/2+x,1/2+y,-z
1/2-x,1/2+y,z
1/2+x,1/2-y,z
loop_
_atom_site_type_symbol
_atom_site_label
_atom_site_fract_x
_atom_site_fract_y
_atom_site_fract_z
Si Si1 0.000000 0.860833 0.731894
Si Si2 0.107438 0.298050 0.417347
Si Si3 0.336604 0.165024 0.085809
Si Si4 0.244491 0.577668 0.835086
Si Si5 0.357322 0.075562 0.335173
Si Si6 0.600726 0.923554 0.182046
Si Si7 0.000000 0.729516 0.366776
O O1 0.048549 0.901847 0.713421
O O2 0.000000 0.795574 0.681692
O O3 0.000000 0.833469 0.812461
O O4 0.116551 0.313481 0.500000
O O5 0.147121 0.240976 0.395337
O O6 0.113594 0.364431 0.370977
O O7 0.051466 0.272213 0.408733
O O8 0.289430 0.131526 0.124541
O O9 0.381553 0.121470 0.116890
O O10 0.331803 0.160738 0.000000
O O11 0.226776 0.500000 0.845025
O O12 0.250000 0.589617 0.750000
O O13 0.300991 0.580321 0.860642
O O14 0.361851 0.083382 0.249187
O O15 0.375402 0.000000 0.350743
O O16 0.599594 0.000000 0.159638
#
# Coordination Sequence:
#
# PCOD9512847 Si02
#       7
#    16  32  32  32  32  32  16
#     4  11  21  36  64  93 118 158 212 265 306 372
#     4  11  24  42  62  87 127 167 204 256 316 372
#     4  11  24  40  62  93 128 167 207 251 309 377
#     4  10  20  39  64  92 125 164 207 252 302 360
#     4  10  22  40  65  92 120 159 210 259 308 369
#     4  11  21  38  62  91 128 163 203 258 313 367
#     4  11  21  38  64  89 118 164 210 259 312 368
#
# _framework density 18.910658999999999
#
# number of rings (size 3 to 8) (size 9 to 14) (size 15 to 20)
#    0.000    1.333    5.000    1.000    0.000    3.667 
#    0.000    5.000    0.000    2.000    0.000    0.000 
#    0.000    0.000    0.000    0.000    0.000    0.000 
#
# Total GULP energy -267809.800250 kJ/mol
# GULP energy per Si atom -5579.370839 kJ/mol
# Density = 1.886762 g / cm^3
# Si number density = 18.910659 Si / 1000 Ang^3
#
#
#
# Elastic Constant Matrix: (Units=GPa)
#
#
# Indices 1 2 3 4 5 6 
#
# 1 94.3106 29.5105 12.1249 0.0000 0.0000 0.0000
# 2 29.5105 109.9813 46.0239 0.0000 0.0000 0.0000
# 3 12.1249 46.0239 55.9331 0.0000 0.0000 0.0000
# 4 0.0000 0.0000 0.0000 23.8723 0.0000 0.0000
# 5 0.0000 0.0000 0.0000 0.0000 27.0446 0.0000
# 6 0.0000 0.0000 0.0000 0.0000 0.0000 76.3102
#
#
#
# Elastic Compliance Matrix: (Units=1/GPa)
#
#
# Indices 1 2 3 4 5 6 
#
# 1 0.011575 -0.003136 0.000071 0.000000 0.000000 0.000000
# 2 -0.003136 0.014717 -0.011430 0.000000 0.000000 0.000000
# 3 0.000071 -0.011430 0.027268 0.000000 0.000000 0.000000
# 4 0.000000 0.000000 0.000000 0.041890 0.000000 0.000000
# 5 0.000000 0.000000 0.000000 0.000000 0.036976 0.000000
# 6 0.000000 0.000000 0.000000 0.000000 0.000000 0.013104
#
#
# Mechanical properties :
#
#
# Convention : Reuss Voigt Hill
#
# Bulk Modulus (GPa) = 40.69839 48.39374 44.54606
# Shear Modulus (GPa) = 27.36582 36.94981 32.15781
#
# Velocity S-wave (km/s) = 3.80822 4.42511 4.12820
# Velocity P-wave (km/s) = 6.39569 7.19410 6.80661
#
# Compressibility (1/GPa) = 0.02457099
#
# Stress axis : x y z
#
# Youngs Moduli (GPa) = 86.39094 67.94932 36.67293
#
# Poissons Ratio (x) = 0.21306 -0.00260
# Poissons Ratio (y) = 0.27088 0.41917
# Poissons Ratio (z) = -0.00612 0.77665
#
# Static dielectric constant tensor:
#      x y z
#    x 1.687180 0.000000 0.000000 
#    y 0.000000 1.641550 0.000000 
#    z 0.000000 0.000000 1.627840 
# 
# From -- ./inp_files/27799.got.cif
#   From: 2010.05.17/outbox.cif.g08.bks.cpg/sg69_14_cif.got.tgz:27799.got - 2010.06.03 19:29:58.
