data_PCOD9512881
_publ_section_title
;
Structure prediction by ZEFSAII (Michael W. Deem and Ramdas Pophale) SiO2 
 PCOD9512881
Probable space group: F M M M
;
_chemical_formula_sum "Si O2"
_cell_formula_units_Z 136
_cell_length_a 26.416132
_cell_length_b 10.576943
_cell_length_c 25.529372
_cell_angle_alpha 90.000000
_cell_angle_beta 90.000000
_cell_angle_gamma 90.000000
_cell_volume 7132.955616
_symmetry_space_group_name_H-M "F M M M"
_symmetry_group_IT_number 69
_symmetry_cell_setting 'orthorhombic'
loop_
_space_group_symop_operation_xyz
x,y,z
-x,-y,z
x,-y,-z
-x,y,-z
-x,-y,-z
x,y,-z
-x,y,z
x,-y,z
x,1/2+y,1/2+z
-x,1/2-y,1/2+z
x,1/2-y,1/2-z
-x,1/2+y,1/2-z
-x,1/2-y,1/2-z
x,1/2+y,1/2-z
-x,1/2+y,1/2+z
x,1/2-y,1/2+z
1/2+x,y,1/2+z
1/2-x,-y,1/2+z
1/2+x,-y,1/2-z
1/2-x,y,1/2-z
1/2-x,-y,1/2-z
1/2+x,y,1/2-z
1/2-x,y,1/2+z
1/2+x,-y,1/2+z
1/2+x,1/2+y,z
1/2-x,1/2-y,z
1/2+x,1/2-y,-z
1/2-x,1/2+y,-z
1/2-x,1/2-y,-z
1/2+x,1/2+y,-z
1/2-x,1/2+y,z
1/2+x,1/2-y,z
loop_
_atom_site_type_symbol
_atom_site_label
_atom_site_fract_x
_atom_site_fract_y
_atom_site_fract_z
Si Si1 0.917494 0.222365 0.855230
Si Si2 0.500000 0.000000 0.630519
Si Si3 0.346346 0.649611 0.438835
Si Si4 0.500000 0.640962 0.293524
Si Si5 0.250000 0.250000 0.121421
Si Si6 0.180375 0.858338 0.207958
O O1 0.887888 0.275034 0.905415
O O2 0.950281 0.333270 0.828084
O O3 0.875205 0.170774 0.815121
O O4 0.956029 0.110918 0.868338
O O5 0.347397 0.684061 0.500000
O O6 0.355536 0.500000 0.434074
O O7 0.291868 0.681628 0.413840
O O8 0.500000 0.500000 0.270134
O O9 0.500000 0.750000 0.250000
O O10 0.219399 0.156740 0.159982
O O11 0.191378 0.750000 0.250000
O O12 0.182749 0.000000 0.229985
#
# Coordination Sequence:
#
# PCOD9512881 Si02
#       6
#    32   8  32  16  16  32
#     4  10  22  39  63  86 125 157 208 257 320 363
#     4  10  20  42  65  84 116 164 198 264 313 376
#     4  10  21  40  65  92 122 160 207 258 315 379
#     4  11  24  37  59  90 122 162 209 254 310 373
#     4  10  22  38  62  90 126 164 208 256 306 372
#     4  11  23  38  59  89 127 167 209 254 308 369
#
# _framework density 19.066428999999999
#
# number of rings (size 3 to 8) (size 9 to 14) (size 15 to 20)
#    0.000    1.647    1.176    2.824    3.294    8.471 
#    0.000    3.529    0.000    6.353    0.000    0.000 
#    0.000    0.000    0.000    0.000    0.000    0.000 
#
# Total GULP energy -189494.448948 kJ/mol
# GULP energy per Si atom -5573.366146 kJ/mol
# Density = 1.902303 g / cm^3
# Si number density = 19.066429 Si / 1000 Ang^3
#
#
#
# Elastic Constant Matrix: (Units=GPa)
#
#
# Indices 1 2 3 4 5 6 
#
# 1 141.4590 45.9804 54.1707 0.0000 0.0000 0.0000
# 2 45.9804 146.0455 60.9341 0.0000 0.0000 0.0000
# 3 54.1707 60.9341 115.3408 0.0000 0.0000 0.0000
# 4 0.0000 0.0000 0.0000 21.8489 0.0000 0.0000
# 5 0.0000 0.0000 0.0000 0.0000 6.3501 0.0000
# 6 0.0000 0.0000 0.0000 0.0000 0.0000 12.3589
#
#
#
# Elastic Compliance Matrix: (Units=1/GPa)
#
#
# Indices 1 2 3 4 5 6 
#
# 1 0.008821 -0.001345 -0.003432 0.000000 0.000000 0.000000
# 2 -0.001345 0.008988 -0.004117 0.000000 0.000000 0.000000
# 3 -0.003432 -0.004117 0.012457 0.000000 0.000000 0.000000
# 4 0.000000 0.000000 0.000000 0.045769 0.000000 0.000000
# 5 0.000000 0.000000 0.000000 0.000000 0.157478 0.000000
# 6 0.000000 0.000000 0.000000 0.000000 0.000000 0.080913
#
#
# Mechanical properties :
#
#
# Convention : Reuss Voigt Hill
#
# Bulk Modulus (GPa) = 80.14217 80.55732 80.34974
# Shear Modulus (GPa) = 14.86445 24.22892 19.54669
#
# Velocity S-wave (km/s) = 2.79519 3.56864 3.20533
# Velocity P-wave (km/s) = 7.24857 7.70214 7.47879
#
# Compressibility (1/GPa) = 0.01247783
#
# Stress axis : x y z
#
# Youngs Moduli (GPa) = 113.36970 111.25591 80.27792
#
# Poissons Ratio (x) = 0.14965 0.27552
# Poissons Ratio (y) = 0.15250 0.33048
# Poissons Ratio (z) = 0.38910 0.45801
#
# Static dielectric constant tensor:
#      x y z
#    x 1.655770 0.000000 0.000000 
#    y 0.000000 1.651420 0.000000 
#    z 0.000000 0.000000 1.659480 
# 
# From -- ./inp_files/43059.got.cif
#   From: 2010.05.17/outbox.cif.g08.bks.cpg/sg69_22_cif.got.tgz:43059.got - 2010.06.03 19:29:58.
