data_PCOD9512649
_publ_section_title
;
Structure prediction by ZEFSAII (Michael W. Deem and Ramdas Pophale) SiO2 
 PCOD9512649
Probable space group: F M M M
;
_chemical_formula_sum "Si O2"
_cell_formula_units_Z 160
_cell_length_a 33.032636
_cell_length_b 8.961668
_cell_length_c 29.450134
_cell_angle_alpha 90.000000
_cell_angle_beta 90.000000
_cell_angle_gamma 90.000000
_cell_volume 8718.050043
_symmetry_space_group_name_H-M "F M M M"
_symmetry_group_IT_number 69
_symmetry_cell_setting 'orthorhombic'
loop_
_space_group_symop_operation_xyz
x,y,z
-x,-y,z
x,-y,-z
-x,y,-z
-x,-y,-z
x,y,-z
-x,y,z
x,-y,z
x,1/2+y,1/2+z
-x,1/2-y,1/2+z
x,1/2-y,1/2-z
-x,1/2+y,1/2-z
-x,1/2-y,1/2-z
x,1/2+y,1/2-z
-x,1/2+y,1/2+z
x,1/2-y,1/2+z
1/2+x,y,1/2+z
1/2-x,-y,1/2+z
1/2+x,-y,1/2-z
1/2-x,y,1/2-z
1/2-x,-y,1/2-z
1/2+x,y,1/2-z
1/2-x,y,1/2+z
1/2+x,-y,1/2+z
1/2+x,1/2+y,z
1/2-x,1/2-y,z
1/2+x,1/2-y,-z
1/2-x,1/2+y,-z
1/2-x,1/2-y,-z
1/2+x,1/2+y,-z
1/2-x,1/2+y,z
1/2+x,1/2-y,z
loop_
_atom_site_type_symbol
_atom_site_label
_atom_site_fract_x
_atom_site_fract_y
_atom_site_fract_z
Si Si1 0.000000 0.827918 0.073445
Si Si2 0.794657 0.318925 0.700570
Si Si3 0.919004 0.832860 0.290846
Si Si4 0.500000 0.669539 0.182243
Si Si5 0.909017 0.322866 0.446916
Si Si6 0.644498 0.671812 0.629374
O O1 0.000000 0.827509 0.127768
O O2 0.044246 0.765414 0.059426
O O3 0.000000 0.000000 0.056455
O O4 0.794176 0.500000 0.703407
O O5 0.806925 0.250000 0.750000
O O6 0.750000 0.250000 0.692925
O O7 0.822268 0.264188 0.658247
O O8 0.897051 0.750000 0.250000
O O9 0.892907 0.832850 0.335790
O O10 0.960378 0.750158 0.300632
O O11 0.926988 0.000000 0.276325
O O12 0.500000 0.500000 0.197433
O O13 0.899105 0.308225 0.500000
O O14 0.909831 0.500000 0.434878
O O15 0.875371 0.244477 0.415481
O O16 0.657963 0.500000 0.621469
#
# Coordination Sequence:
#
# PCOD9512649 Si02
#       6
#    16  32  32  16  32  32
#     4   9  17  32  55  80 107 145 193 245 297 345
#     4  11  22  39  64  93 125 156 190 228 276 336
#     4  11  23  36  51  73 105 145 188 232 279 333
#     4  11  20  33  53  72 101 144 188 233 283 335
#     4  10  20  36  59  85 113 149 195 246 298 349
#     4  11  23  38  57  83 116 151 190 236 286 339
#
# _framework density 18.352727999999999
#
# number of rings (size 3 to 8) (size 9 to 14) (size 15 to 20)
#    0.000    1.400    2.000    5.100    0.000    5.600 
#    0.000    0.500    0.000    1.800    0.000    0.000 
#    0.000    0.000    0.000    0.000    0.000    0.000 
#
# Total GULP energy -223145.416111 kJ/mol
# GULP energy per Si atom -5578.635403 kJ/mol
# Density = 1.831096 g / cm^3
# Si number density = 18.352728 Si / 1000 Ang^3
#
#
#
# Elastic Constant Matrix: (Units=GPa)
#
#
# Indices 1 2 3 4 5 6 
#
# 1 116.6852 56.4417 43.4385 0.0000 0.0000 0.0002
# 2 56.4417 145.1056 48.9333 0.0000 0.0000 0.0005
# 3 43.4385 48.9333 103.4622 0.0000 0.0000 0.0000
# 4 0.0000 0.0000 0.0000 26.2053 0.0000 0.0000
# 5 0.0000 0.0000 0.0000 0.0000 10.4555 -0.0001
# 6 0.0002 0.0005 0.0000 0.0000 -0.0001 -53.0997
#
#
#
# Elastic Compliance Matrix: (Units=1/GPa)
#
#
# Indices 1 2 3 4 5 6 
#
# 1 0.011379 -0.003349 -0.003193 0.000000 0.000000 0.000000
# 2 -0.003349 0.009185 -0.002938 0.000000 0.000000 0.000000
# 3 -0.003193 -0.002938 0.012396 0.000000 0.000000 0.000000
# 4 0.000000 0.000000 0.000000 0.038160 0.000000 0.000000
# 5 0.000000 0.000000 0.000000 0.000000 0.095643 0.000000
# 6 0.000000 0.000000 0.000000 0.000000 0.000000 -0.018833
#
#
# Mechanical properties :
#
#
# Convention : Reuss Voigt Hill
#
# Bulk Modulus (GPa) = 71.43636 73.65333 72.54485
# Shear Modulus (GPa) = 29.14469 11.14153 20.14311
#
# Velocity S-wave (km/s) = 3.98933 2.46657 3.31653
# Velocity P-wave (km/s) = 7.76069 6.95206 7.36748
#
# Compressibility (1/GPa) = 0.01399847
#
# Stress axis : x y z
#
# Youngs Moduli (GPa) = 87.88201 108.87291 80.67344
#
# Poissons Ratio (x) = 0.36463 0.25762
# Poissons Ratio (y) = 0.29433 0.23702
# Poissons Ratio (z) = 0.28064 0.31987
#
# Static dielectric constant tensor:
#      x y z
#    x 1.639490 0.000000 0.000000 
#    y 0.000000 1.660180 0.000000 
#    z 0.000000 0.000000 1.638640 
# 
# From -- ./inp_files/47493.got.cif
#   From: 2010.05.17/outbox.cif.g08.bks.cpg/sg69_24_cif.got.tgz:47493.got - 2010.06.03 19:29:58.
