data_PCOD9512286
_publ_section_title
;
Structure prediction by ZEFSAII (Michael W. Deem and Ramdas Pophale) SiO2 
 PCOD9512286
Probable space group: F M M M
;
_chemical_formula_sum "Si O2"
_cell_formula_units_Z 160
_cell_length_a 31.192203
_cell_length_b 30.725947
_cell_length_c 8.342020
_cell_angle_alpha 90.000000
_cell_angle_beta 90.000000
_cell_angle_gamma 90.000000
_cell_volume 7995.075190
_symmetry_space_group_name_H-M "F M M M"
_symmetry_group_IT_number 69
_symmetry_cell_setting 'orthorhombic'
loop_
_space_group_symop_operation_xyz
x,y,z
-x,-y,z
x,-y,-z
-x,y,-z
-x,-y,-z
x,y,-z
-x,y,z
x,-y,z
x,1/2+y,1/2+z
-x,1/2-y,1/2+z
x,1/2-y,1/2-z
-x,1/2+y,1/2-z
-x,1/2-y,1/2-z
x,1/2+y,1/2-z
-x,1/2+y,1/2+z
x,1/2-y,1/2+z
1/2+x,y,1/2+z
1/2-x,-y,1/2+z
1/2+x,-y,1/2-z
1/2-x,y,1/2-z
1/2-x,-y,1/2-z
1/2+x,y,1/2-z
1/2-x,y,1/2+z
1/2+x,-y,1/2+z
1/2+x,1/2+y,z
1/2-x,1/2-y,z
1/2+x,1/2-y,-z
1/2-x,1/2+y,-z
1/2-x,1/2-y,-z
1/2+x,1/2+y,-z
1/2-x,1/2+y,z
1/2+x,1/2-y,z
loop_
_atom_site_type_symbol
_atom_site_label
_atom_site_fract_x
_atom_site_fract_y
_atom_site_fract_z
Si Si1 0.296550 0.106651 0.806660
Si Si2 0.409424 0.835481 0.307688
Si Si3 0.950400 0.000000 0.809967
Si Si4 0.825057 0.203731 0.692413
Si Si5 0.000000 0.298697 0.692114
Si Si6 0.615488 0.928530 0.813394
O O1 0.250000 0.092484 0.750000
O O2 0.303619 0.157554 0.755499
O O3 0.335408 0.075263 0.749495
O O4 0.298494 0.106793 0.000000
O O5 0.408489 0.843190 0.500000
O O6 0.372938 0.800840 0.263489
O O7 0.456286 0.820892 0.255836
O O8 0.398873 0.879082 0.212513
O O9 0.920548 0.959114 0.762673
O O10 0.000000 0.000000 0.745014
O O11 0.954482 0.000000 0.000000
O O12 0.826209 0.204007 0.500000
O O13 0.806290 0.250000 0.750000
O O14 0.000000 0.250000 0.750000
O O15 0.000000 0.299536 0.500000
O O16 0.617565 0.940357 0.000000
#
# Coordination Sequence:
#
# PCOD9512286 Si02
#       6
#    32  32  16  32  16  32
#     4   9  20  37  58  84 116 152 195 242 291 349
#     4  10  20  35  54  77 109 150 191 239 292 346
#     4  11  25  43  66  95 124 153 190 237 284 343
#     4  10  20  34  51  77 111 150 197 248 295 346
#     4  10  22  34  48  73 106 143 190 240 283 332
#     4  10  22  41  62  89 120 152 190 236 288 349
#
# _framework density 20.012321
#
# number of rings (size 3 to 8) (size 9 to 14) (size 15 to 20)
#    0.000    2.100    0.000    3.900    1.400    9.200 
#    0.000    2.500    0.000    0.000    0.000    0.000 
#    0.000    0.000    0.000    0.000    0.000    0.000 
#
# Total GULP energy -223041.734944 kJ/mol
# GULP energy per Si atom -5576.043374 kJ/mol
# Density = 1.996677 g / cm^3
# Si number density = 20.012321 Si / 1000 Ang^3
#
#
#
# Elastic Constant Matrix: (Units=GPa)
#
#
# Indices 1 2 3 4 5 6 
#
# 1 176.0881 40.1220 17.1436 0.0095 0.0000 0.0010
# 2 40.1220 63.8636 1.9079 -0.0063 -0.0002 -0.0062
# 3 17.1436 1.9079 24.4625 0.0016 -0.0023 -0.0128
# 4 0.0095 -0.0063 0.0016 26.0953 -0.0087 -0.0185
# 5 0.0000 -0.0002 -0.0023 -0.0087 25.1256 0.0041
# 6 0.0010 -0.0062 -0.0128 -0.0185 0.0041 12.4217
#
#
#
# Elastic Compliance Matrix: (Units=1/GPa)
#
#
# Indices 1 2 3 4 5 6 
#
# 1 0.007119 -0.004334 -0.004651 -0.000003 0.000000 -0.000008
# 2 -0.004334 0.018333 0.001607 0.000006 0.000000 0.000011
# 3 -0.004651 0.001607 0.044013 -0.000001 0.000004 0.000047
# 4 -0.000003 0.000006 -0.000001 0.038321 0.000013 0.000057
# 5 0.000000 0.000000 0.000004 0.000013 0.039800 -0.000013
# 6 -0.000008 0.000011 0.000047 0.000057 -0.000013 0.080504
#
#
# Mechanical properties :
#
#
# Convention : Reuss Voigt Hill
#
# Bulk Modulus (GPa) = 18.27819 42.52905 30.40362
# Shear Modulus (GPa) = 19.15099 26.41122 22.78111
#
# Velocity S-wave (km/s) = 3.09683 3.63678 3.37761
# Velocity P-wave (km/s) = 4.68407 6.23958 5.51692
#
# Compressibility (1/GPa) = 0.05471000
#
# Stress axis : x y z
#
# Youngs Moduli (GPa) = 140.46425 54.54656 22.72047
#
# Poissons Ratio (x) = 0.23639 0.10568
# Poissons Ratio (y) = 0.60873 -0.03652
# Poissons Ratio (z) = 0.65333 -0.08767
#
# Static dielectric constant tensor:
#      x y z
#    x 1.729700 0.000010 -0.000060 
#    y 0.000010 1.708330 -0.000010 
#    z -0.000060 -0.000010 1.657020 
# 
# From -- ./inp_files/5725.got.cif
#   From: 2010.05.17/outbox.cif.g08.bks.cpg/sg69_3_cif.got.tgz:5725.got - 2010.06.03 19:29:58.
