data_PCOD9512490
_publ_section_title
;
Structure prediction by ZEFSAII (Michael W. Deem and Ramdas Pophale) SiO2 
 PCOD9512490
Probable space group: F M M M
;
_chemical_formula_sum "Si O2"
_cell_formula_units_Z 224
_cell_length_a 18.420891
_cell_length_b 32.066666
_cell_length_c 21.142904
_cell_angle_alpha 90.000000
_cell_angle_beta 90.000000
_cell_angle_gamma 90.000000
_cell_volume 12489.040643
_symmetry_space_group_name_H-M "F M M M"
_symmetry_group_IT_number 69
_symmetry_cell_setting 'orthorhombic'
loop_
_space_group_symop_operation_xyz
x,y,z
-x,-y,z
x,-y,-z
-x,y,-z
-x,-y,-z
x,y,-z
-x,y,z
x,-y,z
x,1/2+y,1/2+z
-x,1/2-y,1/2+z
x,1/2-y,1/2-z
-x,1/2+y,1/2-z
-x,1/2-y,1/2-z
x,1/2+y,1/2-z
-x,1/2+y,1/2+z
x,1/2-y,1/2+z
1/2+x,y,1/2+z
1/2-x,-y,1/2+z
1/2+x,-y,1/2-z
1/2-x,y,1/2-z
1/2-x,-y,1/2-z
1/2+x,y,1/2-z
1/2-x,y,1/2+z
1/2+x,-y,1/2+z
1/2+x,1/2+y,z
1/2-x,1/2-y,z
1/2+x,1/2-y,-z
1/2-x,1/2+y,-z
1/2-x,1/2-y,-z
1/2+x,1/2+y,-z
1/2-x,1/2+y,z
1/2+x,1/2-y,z
loop_
_atom_site_type_symbol
_atom_site_label
_atom_site_fract_x
_atom_site_fract_y
_atom_site_fract_z
Si Si1 0.682253 0.585962 0.426700
Si Si2 0.332081 0.733721 0.071555
Si Si3 0.087578 0.127442 0.319607
Si Si4 0.331463 0.634120 0.070601
Si Si5 0.415983 0.908031 0.685584
Si Si6 0.239326 0.000000 0.075687
Si Si7 0.087320 0.775056 0.312741
Si Si8 0.582107 0.000000 0.638841
O O1 0.657019 0.581770 0.500000
O O2 0.623187 0.603877 0.378705
O O3 0.749027 0.618332 0.426741
O O4 0.717235 0.541774 0.405239
O O5 0.250000 0.750000 0.079534
O O6 0.334034 0.683777 0.076852
O O7 0.381375 0.753436 0.125208
O O8 0.355300 0.745076 0.000000
O O9 0.111565 0.106522 0.253667
O O10 0.108152 0.176234 0.314705
O O11 0.000000 0.124853 0.324184
O O12 0.374217 0.612090 0.126878
O O13 0.359555 0.622593 0.000000
O O14 0.500000 0.894488 0.681072
O O15 0.413722 0.957797 0.679064
O O16 0.155248 0.000000 0.097017
O O17 0.238148 0.000000 0.000000
O O18 0.112166 0.750000 0.250000
O O19 0.000000 0.773256 0.313293
O O20 0.500000 0.000000 0.608593
#
# Coordination Sequence:
#
# PCOD9512490 Si02
#       8
#    32  32  32  32  32  16  32  16
#     4  10  21  38  59  84 114 148 191 238 284 338
#     4  10  21  36  55  81 112 146 186 233 285 338
#     4  10  22  39  59  82 111 150 193 240 289 334
#     4  10  20  35  56  81 114 151 183 227 283 341
#     4  10  21  37  56  84 118 148 185 227 273 339
#     4  10  20  38  60  87 121 153 187 232 282 336
#     4  10  21  38  59  82 111 148 190 239 290 338
#     4  10  20  36  59  86 119 155 185 226 279 336
#
# _framework density 17.935725000000001
#
# number of rings (size 3 to 8) (size 9 to 14) (size 15 to 20)
#    0.000    2.000    1.429    1.714    0.000    5.857 
#    0.000    8.929    0.000    1.286    0.000    0.000 
#    0.000    0.000    0.000    0.000    0.000    0.000 
#
# Total GULP energy -312386.609981 kJ/mol
# GULP energy per Si atom -5578.332321 kJ/mol
# Density = 1.789490 g / cm^3
# Si number density = 17.935725 Si / 1000 Ang^3
#
#
#
# Elastic Constant Matrix: (Units=GPa)
#
#
# Indices 1 2 3 4 5 6 
#
# 1 41.3308 45.5055 51.5587 0.0000 0.0000 0.0000
# 2 45.5055 112.6824 71.7891 0.0000 0.0000 0.0000
# 3 51.5587 71.7891 134.6820 0.0000 0.0000 0.0000
# 4 0.0000 0.0000 0.0000 34.0106 0.0000 0.0000
# 5 0.0000 0.0000 0.0000 0.0000 44.4943 0.0000
# 6 0.0000 0.0000 0.0000 0.0000 0.0000 26.7350
#
#
#
# Elastic Compliance Matrix: (Units=1/GPa)
#
#
# Indices 1 2 3 4 5 6 
#
# 1 0.058045 -0.014058 -0.014727 0.000000 0.000000 0.000000
# 2 -0.014058 0.016843 -0.003596 0.000000 0.000000 0.000000
# 3 -0.014727 -0.003596 0.014979 0.000000 0.000000 0.000000
# 4 0.000000 0.000000 0.000000 0.029403 0.000000 0.000000
# 5 0.000000 0.000000 0.000000 0.000000 0.022475 0.000000
# 6 0.000000 0.000000 0.000000 0.000000 0.000000 0.037404
#
#
# Mechanical properties :
#
#
# Convention : Reuss Voigt Hill
#
# Bulk Modulus (GPa) = 39.83360 69.60022 54.71691
# Shear Modulus (GPa) = 19.81930 29.03742 24.42836
#
# Velocity S-wave (km/s) = 3.32779 4.02801 3.69452
# Velocity P-wave (km/s) = 6.08464 7.77964 6.98375
#
# Compressibility (1/GPa) = 0.02510443
#
# Stress axis : x y z
#
# Youngs Moduli (GPa) = 17.22804 59.37319 66.75813
#
# Poissons Ratio (x) = 0.83468 0.98317
# Poissons Ratio (y) = 0.24219 0.24005
# Poissons Ratio (z) = 0.25372 0.21350
#
# Static dielectric constant tensor:
#      x y z
#    x 1.600570 0.000000 0.000000 
#    y 0.000000 1.613980 0.000000 
#    z 0.000000 0.000000 1.602570 
# 
# From -- ./inp_files/31210.got.cif
#   From: 2010.05.17/outbox.cif.g08.bks.cpg/sg69_16_cif.got.tgz:31210.got - 2010.06.03 19:29:58.
