data_PCOD9512066
_publ_section_title
;
Structure prediction by ZEFSAII (Michael W. Deem and Ramdas Pophale) SiO2 
 PCOD9512066
Probable space group: F M M M
;
_chemical_formula_sum "Si O2"
_cell_formula_units_Z 168
_cell_length_a 27.321757
_cell_length_b 15.636715
_cell_length_c 19.889126
_cell_angle_alpha 90.000000
_cell_angle_beta 90.000000
_cell_angle_gamma 90.000000
_cell_volume 8497.082680
_symmetry_space_group_name_H-M "F M M M"
_symmetry_group_IT_number 69
_symmetry_cell_setting 'orthorhombic'
loop_
_space_group_symop_operation_xyz
x,y,z
-x,-y,z
x,-y,-z
-x,y,-z
-x,-y,-z
x,y,-z
-x,y,z
x,-y,z
x,1/2+y,1/2+z
-x,1/2-y,1/2+z
x,1/2-y,1/2-z
-x,1/2+y,1/2-z
-x,1/2-y,1/2-z
x,1/2+y,1/2-z
-x,1/2+y,1/2+z
x,1/2-y,1/2+z
1/2+x,y,1/2+z
1/2-x,-y,1/2+z
1/2+x,-y,1/2-z
1/2-x,y,1/2-z
1/2-x,-y,1/2-z
1/2+x,y,1/2-z
1/2-x,y,1/2+z
1/2+x,-y,1/2+z
1/2+x,1/2+y,z
1/2-x,1/2-y,z
1/2+x,1/2-y,-z
1/2-x,1/2+y,-z
1/2-x,1/2-y,-z
1/2+x,1/2+y,-z
1/2-x,1/2+y,z
1/2+x,1/2-y,z
loop_
_atom_site_type_symbol
_atom_site_label
_atom_site_fract_x
_atom_site_fract_y
_atom_site_fract_z
Si Si1 0.201969 0.807887 0.072318
Si Si2 0.057005 0.763650 0.169463
Si Si3 0.862475 0.095468 0.831849
Si Si4 0.187630 0.905830 0.308636
Si Si5 0.250000 0.250000 0.750000
Si Si6 0.623283 0.158246 0.076201
O O1 0.250000 0.750000 0.079043
O O2 0.186808 0.870276 0.132012
O O3 0.156691 0.742837 0.069096
O O4 0.206253 0.853429 0.000000
O O5 0.062147 0.750000 0.250000
O O6 0.091693 0.844148 0.154085
O O7 0.077985 0.686507 0.123425
O O8 0.000000 0.777785 0.155122
O O9 0.850793 0.095362 0.752792
O O10 0.872320 0.000000 0.854932
O O11 0.217600 0.817879 0.293374
O O12 0.158693 0.900181 0.378606
O O13 0.212808 0.000000 0.306179
O O14 0.611579 0.129090 0.000000
#
# Coordination Sequence:
#
# PCOD9512066 Si02
#       6
#    32  32  32  32   8  32
#     4   9  19  35  56  82 113 158 206 244 297 366
#     4  10  19  36  63  91 119 159 208 254 312 381
#     4  10  21  36  56  87 124 158 201 258 313 375
#     4  11  24  38  59  91 122 167 218 259 317 381
#     4  12  22  40  62  86 126 168 212 272 320 374
#     4  10  21  38  60  85 119 161 206 255 303 363
#
# _framework density 19.771491000000001
#
# number of rings (size 3 to 8) (size 9 to 14) (size 15 to 20)
#    0.000    1.905    1.905    2.571    5.333    1.524 
#    0.000    0.000    0.000    4.000    0.000    6.667 
#    0.000    0.000    0.000    0.000    0.000    0.000 
#
# Total GULP energy -234011.968138 kJ/mol
# GULP energy per Si atom -5571.713527 kJ/mol
# Density = 1.972649 g / cm^3
# Si number density = 19.771491 Si / 1000 Ang^3
#
#
#
# Elastic Constant Matrix: (Units=GPa)
#
#
# Indices 1 2 3 4 5 6 
#
# 1 110.1416 46.2717 41.4604 0.0000 0.0000 0.0000
# 2 46.2717 117.2264 32.3664 0.0000 0.0000 0.0000
# 3 41.4604 32.3664 146.2281 0.0000 0.0000 0.0000
# 4 0.0000 0.0000 0.0000 2.0180 0.0000 0.0000
# 5 0.0000 0.0000 0.0000 0.0000 12.5462 0.0000
# 6 0.0000 0.0000 0.0000 0.0000 0.0000 16.5601
#
#
#
# Elastic Compliance Matrix: (Units=1/GPa)
#
#
# Indices 1 2 3 4 5 6 
#
# 1 0.011644 -0.003924 -0.002433 0.000000 0.000000 0.000000
# 2 -0.003924 0.010408 -0.001191 0.000000 0.000000 0.000000
# 3 -0.002433 -0.001191 0.007792 0.000000 0.000000 0.000000
# 4 0.000000 0.000000 0.000000 0.495534 0.000000 0.000000
# 5 0.000000 0.000000 0.000000 0.000000 0.079705 0.000000
# 6 0.000000 0.000000 0.000000 0.000000 0.000000 0.060386
#
#
# Mechanical properties :
#
#
# Convention : Reuss Voigt Hill
#
# Bulk Modulus (GPa) = 67.80722 68.19921 68.00322
# Shear Modulus (GPa) = 7.29414 23.12470 15.20942
#
# Velocity S-wave (km/s) = 1.92282 3.42365 2.77656
# Velocity P-wave (km/s) = 6.26893 7.08499 6.68942
#
# Compressibility (1/GPa) = 0.01474769
#
# Stress axis : x y z
#
# Youngs Moduli (GPa) = 85.88400 96.07639 128.33616
#
# Poissons Ratio (x) = 0.37703 0.31221
# Poissons Ratio (y) = 0.33703 0.15287
# Poissons Ratio (z) = 0.20893 0.11444
#
# Static dielectric constant tensor:
#      x y z
#    x 1.683850 0.000000 0.000000 
#    y 0.000000 1.718510 0.000000 
#    z 0.000000 0.000000 1.787140 
# 
# From -- ./inp_files/33419.got.cif
#   From: 2010.05.17/outbox.cif.g08.bks.cpg/sg69_17_cif.got.tgz:33419.got - 2010.06.03 19:29:58.
