data_PCOD9512844
_publ_section_title
;
Structure prediction by ZEFSAII (Michael W. Deem and Ramdas Pophale) SiO2 
 PCOD9512844
Probable space group: F M M M
;
_chemical_formula_sum "Si O2"
_cell_formula_units_Z 176
_cell_length_a 18.568175
_cell_length_b 16.998145
_cell_length_c 27.568553
_cell_angle_alpha 90.000000
_cell_angle_beta 90.000000
_cell_angle_gamma 90.000000
_cell_volume 8701.311612
_symmetry_space_group_name_H-M "F M M M"
_symmetry_group_IT_number 69
_symmetry_cell_setting 'orthorhombic'
loop_
_space_group_symop_operation_xyz
x,y,z
-x,-y,z
x,-y,-z
-x,y,-z
-x,-y,-z
x,y,-z
-x,y,z
x,-y,z
x,1/2+y,1/2+z
-x,1/2-y,1/2+z
x,1/2-y,1/2-z
-x,1/2+y,1/2-z
-x,1/2-y,1/2-z
x,1/2+y,1/2-z
-x,1/2+y,1/2+z
x,1/2-y,1/2+z
1/2+x,y,1/2+z
1/2-x,-y,1/2+z
1/2+x,-y,1/2-z
1/2-x,y,1/2-z
1/2-x,-y,1/2-z
1/2+x,y,1/2-z
1/2-x,y,1/2+z
1/2+x,-y,1/2+z
1/2+x,1/2+y,z
1/2-x,1/2-y,z
1/2+x,1/2-y,-z
1/2-x,1/2+y,-z
1/2-x,1/2-y,-z
1/2+x,1/2+y,-z
1/2-x,1/2+y,z
1/2+x,1/2-y,z
loop_
_atom_site_type_symbol
_atom_site_label
_atom_site_fract_x
_atom_site_fract_y
_atom_site_fract_z
Si Si1 0.815393 0.091810 0.912939
Si Si2 0.153702 0.908126 0.446938
Si Si3 0.179072 0.302612 0.682489
Si Si4 0.415794 0.090960 0.750962
Si Si5 0.583162 0.403920 0.000000
Si Si6 0.083904 0.338176 0.147541
O O1 0.739778 0.094913 0.941075
O O2 0.807599 0.141773 0.864056
O O3 0.830106 0.000000 0.900884
O O4 0.875822 0.120956 0.950844
O O5 0.132872 0.877545 0.500000
O O6 0.120754 0.863498 0.401893
O O7 0.132597 0.000000 0.444066
O O8 0.250000 0.250000 0.693412
O O9 0.143682 0.355291 0.724728
O O10 0.118104 0.241350 0.667077
O O11 0.500000 0.114624 0.740713
O O12 0.405631 0.099744 0.808738
O O13 0.407837 0.000000 0.736378
O O14 0.586924 0.500000 0.000000
O O15 0.500000 0.380461 0.000000
O O16 0.000000 0.329118 0.139282
#
# Coordination Sequence:
#
# PCOD9512844 Si02
#       6
#    32  32  32  32  16  32
#     4  10  20  39  63  90 126 168 218 267 317 384
#     4  10  20  39  67  93 123 168 217 265 317 379
#     4  12  24  41  63  97 133 171 212 263 329 398
#     4  10  23  45  71  95 125 170 222 275 329 389
#     4   9  18  34  61  94 127 167 217 277 330 371
#     4  11  24  43  64  93 132 169 210 266 329 389
#
# _framework density 20.226835999999999
#
# number of rings (size 3 to 8) (size 9 to 14) (size 15 to 20)
#    0.000    1.545    2.727    2.182    0.000    5.818 
#    1.636    5.000    0.000    0.000    0.000    0.000 
#    0.000    0.000    0.000    0.000    0.000    0.000 
#
# Total GULP energy -245833.648431 kJ/mol
# GULP energy per Si atom -5587.128373 kJ/mol
# Density = 2.018080 g / cm^3
# Si number density = 20.226836 Si / 1000 Ang^3
#
#
#
# Elastic Constant Matrix: (Units=GPa)
#
#
# Indices 1 2 3 4 5 6 
#
# 1 100.5973 40.9853 57.9766 0.0000 0.0000 0.0000
# 2 40.9853 63.3187 37.9875 0.0000 0.0000 0.0000
# 3 57.9766 37.9875 121.0126 0.0000 0.0000 0.0000
# 4 0.0000 0.0000 0.0000 -26.6372 0.0000 0.0000
# 5 0.0000 0.0000 0.0000 0.0000 37.6955 0.0000
# 6 0.0000 0.0000 0.0000 0.0000 0.0000 23.5038
#
#
#
# Elastic Compliance Matrix: (Units=1/GPa)
#
#
# Indices 1 2 3 4 5 6 
#
# 1 0.015944 -0.007069 -0.005420 0.000000 0.000000 0.000000
# 2 -0.007069 0.022592 -0.003705 0.000000 0.000000 0.000000
# 3 -0.005420 -0.003705 0.012023 0.000000 0.000000 0.000000
# 4 0.000000 0.000000 0.000000 -0.037542 0.000000 0.000000
# 5 0.000000 0.000000 0.000000 0.000000 0.026528 0.000000
# 6 0.000000 0.000000 0.000000 0.000000 0.000000 0.042546
#
#
# Mechanical properties :
#
#
# Convention : Reuss Voigt Hill
#
# Bulk Modulus (GPa) = 55.03136 62.09193 58.56165
# Shear Modulus (GPa) = 41.48107 16.77770 29.12939
#
# Velocity S-wave (km/s) = 4.53348 2.88319 3.79903
# Velocity P-wave (km/s) = 7.39388 6.46901 6.94686
#
# Compressibility (1/GPa) = 0.01817146
#
# Stress axis : x y z
#
# Youngs Moduli (GPa) = 62.71884 44.26433 83.17201
#
# Poissons Ratio (x) = 0.31290 0.45077
# Poissons Ratio (y) = 0.44335 0.30816
# Poissons Ratio (z) = 0.33992 0.16400
#
# Static dielectric constant tensor:
#      x y z
#    x 1.701640 0.000000 0.000000 
#    y 0.000000 1.722270 0.000000 
#    z 0.000000 0.000000 1.714700 
# 
# From -- ./inp_files/41870.got.cif
#   From: 2010.05.17/outbox.cif.g08.bks.cpg/sg69_21_cif.got.tgz:41870.got - 2010.06.03 19:29:58.
