data_PCOD9512668
_publ_section_title
;
Structure prediction by ZEFSAII (Michael W. Deem and Ramdas Pophale) SiO2 
 PCOD9512668
Probable space group: F M M M
;
_chemical_formula_sum "Si O2"
_cell_formula_units_Z 216
_cell_length_a 14.684337
_cell_length_b 27.852646
_cell_length_c 25.452926
_cell_angle_alpha 90.000000
_cell_angle_beta 90.000000
_cell_angle_gamma 90.000000
_cell_volume 10410.186670
_symmetry_space_group_name_H-M "F M M M"
_symmetry_group_IT_number 69
_symmetry_cell_setting 'orthorhombic'
loop_
_space_group_symop_operation_xyz
x,y,z
-x,-y,z
x,-y,-z
-x,y,-z
-x,-y,-z
x,y,-z
-x,y,z
x,-y,z
x,1/2+y,1/2+z
-x,1/2-y,1/2+z
x,1/2-y,1/2-z
-x,1/2+y,1/2-z
-x,1/2-y,1/2-z
x,1/2+y,1/2-z
-x,1/2+y,1/2+z
x,1/2-y,1/2+z
1/2+x,y,1/2+z
1/2-x,-y,1/2+z
1/2+x,-y,1/2-z
1/2-x,y,1/2-z
1/2-x,-y,1/2-z
1/2+x,y,1/2-z
1/2-x,y,1/2+z
1/2+x,-y,1/2+z
1/2+x,1/2+y,z
1/2-x,1/2-y,z
1/2+x,1/2-y,-z
1/2-x,1/2+y,-z
1/2-x,1/2-y,-z
1/2+x,1/2+y,-z
1/2-x,1/2+y,z
1/2+x,1/2-y,z
loop_
_atom_site_type_symbol
_atom_site_label
_atom_site_fract_x
_atom_site_fract_y
_atom_site_fract_z
Si Si1 0.710453 0.115700 0.412722
Si Si2 0.151137 0.445307 0.225665
Si Si3 0.600538 0.445207 0.840930
Si Si4 0.390558 0.235655 0.191564
Si Si5 0.606887 0.057276 0.500000
Si Si6 0.106292 0.866783 0.360117
Si Si7 0.842867 0.277165 0.417811
Si Si8 0.500000 0.252731 0.000000
O O1 0.670765 0.095295 0.358250
O O2 0.666203 0.077108 0.451665
O O3 0.818808 0.122890 0.405387
O O4 0.668355 0.166577 0.428247
O O5 0.154135 0.500000 0.205053
O O6 0.250000 0.434031 0.250000
O O7 0.092785 0.444076 0.278415
O O8 0.116478 0.409417 0.181861
O O9 0.500000 0.436896 0.864543
O O10 0.629102 0.500000 0.854689
O O11 0.500000 0.236941 0.193823
O O12 0.357594 0.250000 0.250000
O O13 0.366629 0.182401 0.170249
O O14 0.360268 0.270478 0.144561
O O15 0.500000 0.073900 0.500000
O O16 0.604496 0.000000 0.500000
O O17 0.000000 0.862840 0.377098
O O18 0.750000 0.250000 0.430151
O O19 0.921343 0.255476 0.453640
#
# Coordination Sequence:
#
# PCOD9512668 Si02
#       8
#    32  32  32  32  16  32  32   8
#     4  12  25  42  70  98 136 174 230 280 349 435
#     4  10  20  36  59  91 131 174 227 278 325 387
#     4  10  21  37  61  95 133 175 221 279 344 407
#     4  10  23  44  68  99 145 189 234 289 354 424
#     4  11  27  50  76 107 141 174 219 298 382 438
#     4  11  24  43  65  96 138 186 235 274 344 415
#     4  12  26  47  70 109 138 186 237 294 358 419
#     4  12  28  48  78  94 137 170 235 308 348 408
#
# _framework density 20.748906000000002
#
# number of rings (size 3 to 8) (size 9 to 14) (size 15 to 20)
#    0.000    1.111    3.704    2.000    5.185    2.963 
#    0.000    0.370    0.000    0.444    0.000    0.000 
#    0.000    0.000    0.000    0.000    0.000    0.000 
#
# Total GULP energy -300998.265404 kJ/mol
# GULP energy per Si atom -5574.041952 kJ/mol
# Density = 2.070168 g / cm^3
# Si number density = 20.748906 Si / 1000 Ang^3
#
#
#
# Elastic Constant Matrix: (Units=GPa)
#
#
# Indices 1 2 3 4 5 6 
#
# 1 140.8082 29.6447 41.0333 0.0000 0.0000 0.0000
# 2 29.6447 69.0482 11.6470 0.0000 0.0000 0.0000
# 3 41.0333 11.6470 91.4862 0.0000 0.0000 0.0000
# 4 0.0000 0.0000 0.0000 13.0919 0.0000 0.0000
# 5 0.0000 0.0000 0.0000 0.0000 34.6793 0.0000
# 6 0.0000 0.0000 0.0000 0.0000 0.0000 -5.8911
#
#
#
# Elastic Compliance Matrix: (Units=1/GPa)
#
#
# Indices 1 2 3 4 5 6 
#
# 1 0.008805 -0.003182 -0.003544 0.000000 0.000000 0.000000
# 2 -0.003182 0.015951 -0.000603 0.000000 0.000000 0.000000
# 3 -0.003544 -0.000603 0.012597 0.000000 0.000000 0.000000
# 4 0.000000 0.000000 0.000000 0.076383 0.000000 0.000000
# 5 0.000000 0.000000 0.000000 0.000000 0.028836 0.000000
# 6 0.000000 0.000000 0.000000 0.000000 0.000000 -0.169747
#
#
# Mechanical properties :
#
#
# Convention : Reuss Voigt Hill
#
# Bulk Modulus (GPa) = 44.06623 51.77694 47.92159
# Shear Modulus (GPa) = -1009.55049 22.97721 -493.28664
#
# Velocity S-wave (km/s) = -22.08194 3.33136 -15.43558
# Velocity P-wave (km/s) = 25.07720 6.30916 17.16188
#
# Compressibility (1/GPa) = 0.02269311
#
# Stress axis : x y z
#
# Youngs Moduli (GPa) = 113.57742 62.69330 79.38456
#
# Poissons Ratio (x) = 0.19951 0.28133
# Poissons Ratio (y) = 0.36144 0.04789
# Poissons Ratio (z) = 0.40250 0.03782
#
# Static dielectric constant tensor:
#      x y z
#    x 1.794850 0.000000 0.000000 
#    y 0.000000 1.743280 0.000000 
#    z 0.000000 0.000000 1.877400 
# 
# From -- ./inp_files/41315.got.cif
#   From: 2010.05.17/outbox.cif.g08.bks.cpg/sg69_21_cif.got.tgz:41315.got - 2010.06.03 19:29:58.
