data_PCOD9512522
_publ_section_title
;
Structure prediction by ZEFSAII (Michael W. Deem and Ramdas Pophale) SiO2 
 PCOD9512522
Probable space group: F M M M
;
_chemical_formula_sum "Si O2"
_cell_formula_units_Z 192
_cell_length_a 18.919862
_cell_length_b 16.335128
_cell_length_c 33.296576
_cell_angle_alpha 90.000000
_cell_angle_beta 90.000000
_cell_angle_gamma 90.000000
_cell_volume 10290.585422
_symmetry_space_group_name_H-M "F M M M"
_symmetry_group_IT_number 69
_symmetry_cell_setting 'orthorhombic'
loop_
_space_group_symop_operation_xyz
x,y,z
-x,-y,z
x,-y,-z
-x,y,-z
-x,-y,-z
x,y,-z
-x,y,z
x,-y,z
x,1/2+y,1/2+z
-x,1/2-y,1/2+z
x,1/2-y,1/2-z
-x,1/2+y,1/2-z
-x,1/2-y,1/2-z
x,1/2+y,1/2-z
-x,1/2+y,1/2+z
x,1/2-y,1/2+z
1/2+x,y,1/2+z
1/2-x,-y,1/2+z
1/2+x,-y,1/2-z
1/2-x,y,1/2-z
1/2-x,-y,1/2-z
1/2+x,y,1/2-z
1/2-x,y,1/2+z
1/2+x,-y,1/2+z
1/2+x,1/2+y,z
1/2-x,1/2-y,z
1/2+x,1/2-y,-z
1/2-x,1/2+y,-z
1/2-x,1/2-y,-z
1/2+x,1/2+y,-z
1/2-x,1/2+y,z
1/2+x,1/2-y,z
loop_
_atom_site_type_symbol
_atom_site_label
_atom_site_fract_x
_atom_site_fract_y
_atom_site_fract_z
Si Si1 0.830566 0.338487 0.265308
Si Si2 0.215832 0.597864 0.912062
Si Si3 0.081371 0.000000 0.237198
Si Si4 0.082790 0.299813 0.910908
Si Si5 0.777176 0.595406 0.000000
Si Si6 0.579260 0.319588 0.500000
Si Si7 0.162957 0.162515 0.138438
Si Si8 0.919943 0.500000 0.639681
O O1 0.856624 0.250000 0.250000
O O2 0.750000 0.349021 0.250000
O O3 0.876816 0.416821 0.251721
O O4 0.832106 0.333429 0.313591
O O5 0.225006 0.500000 0.907984
O O6 0.133288 0.620818 0.909041
O O7 0.244702 0.626553 0.956108
O O8 0.259502 0.648537 0.879540
O O9 0.079383 0.000000 0.188420
O O10 0.000000 0.000000 0.251347
O O11 0.119276 0.235714 0.881250
O O12 0.000000 0.312670 0.901855
O O13 0.087432 0.272052 0.957916
O O14 0.861356 0.611046 0.000000
O O15 0.760948 0.500000 0.000000
O O16 0.500000 0.354105 0.500000
O O17 0.120753 0.080506 0.126805
O O18 0.000000 0.500000 0.625321
#
# Coordination Sequence:
#
# PCOD9512522 Si02
#       8
#    32  32  16  32  16  16  32  16
#     4  10  23  39  62  86 116 154 198 242 296 361
#     4  10  20  35  57  86 117 153 194 236 286 343
#     4   9  19  39  63  89 114 144 184 241 299 353
#     4  10  21  35  57  84 117 154 193 236 287 343
#     4   8  16  30  49  79 116 148 188 238 281 330
#     4   8  16  32  49  76 113 153 191 230 279 340
#     4  11  21  37  60  85 111 150 196 242 284 346
#     4   9  18  35  59  84 112 143 188 236 284 342
#
# _framework density 18.657831000000002
#
# number of rings (size 3 to 8) (size 9 to 14) (size 15 to 20)
#    0.000    2.333    0.833    1.250    4.667    2.167 
#    0.000    5.833    0.000    0.000    0.000    2.917 
#    0.000    0.000    0.000    0.000    0.000    0.000 
#
# Total GULP energy -267363.530977 kJ/mol
# GULP energy per Si atom -5570.073562 kJ/mol
# Density = 1.861536 g / cm^3
# Si number density = 18.657831 Si / 1000 Ang^3
#
#
#
# Elastic Constant Matrix: (Units=GPa)
#
#
# Indices 1 2 3 4 5 6 
#
# 1 108.3131 43.8873 37.0017 0.0000 0.0000 0.0000
# 2 43.8873 94.7121 30.7132 0.0000 0.0000 0.0000
# 3 37.0017 30.7132 72.6814 0.0000 0.0000 0.0000
# 4 0.0000 0.0000 0.0000 32.2936 0.0000 0.0000
# 5 0.0000 0.0000 0.0000 0.0000 28.9368 0.0000
# 6 0.0000 0.0000 0.0000 0.0000 0.0000 15.0600
#
#
#
# Elastic Compliance Matrix: (Units=1/GPa)
#
#
# Indices 1 2 3 4 5 6 
#
# 1 0.012545 -0.004336 -0.004554 0.000000 0.000000 0.000000
# 2 -0.004336 0.013734 -0.003596 0.000000 0.000000 0.000000
# 3 -0.004554 -0.003596 0.017597 0.000000 0.000000 0.000000
# 4 0.000000 0.000000 0.000000 0.030966 0.000000 0.000000
# 5 0.000000 0.000000 0.000000 0.000000 0.034558 0.000000
# 6 0.000000 0.000000 0.000000 0.000000 0.000000 0.066401
#
#
# Mechanical properties :
#
#
# Convention : Reuss Voigt Hill
#
# Bulk Modulus (GPa) = 52.90244 55.43456 54.16850
# Shear Modulus (GPa) = 24.14582 26.19836 25.17209
#
# Velocity S-wave (km/s) = 3.60132 3.75126 3.67705
# Velocity P-wave (km/s) = 6.76078 6.96694 6.86464
#
# Compressibility (1/GPa) = 0.01890272
#
# Stress axis : x y z
#
# Youngs Moduli (GPa) = 79.71066 72.81330 56.82851
#
# Poissons Ratio (x) = 0.31574 0.25882
# Poissons Ratio (y) = 0.34565 0.20435
# Poissons Ratio (z) = 0.36303 0.26183
#
# Static dielectric constant tensor:
#      x y z
#    x 1.646300 0.000000 0.000000 
#    y 0.000000 1.637000 0.000000 
#    z 0.000000 0.000000 1.670420 
# 
# From -- ./inp_files/46458.got.cif
#   From: 2010.05.17/outbox.cif.g08.bks.cpg/sg69_24_cif.got.tgz:46458.got - 2010.06.03 19:29:58.
