data_PCOD9512967
_publ_section_title
;
Structure prediction by ZEFSAII (Michael W. Deem and Ramdas Pophale) SiO2 
 PCOD9512967
Probable space group: F M M M
;
_chemical_formula_sum "Si O2"
_cell_formula_units_Z 160
_cell_length_a 17.805215
_cell_length_b 20.389266
_cell_length_c 24.040532
_cell_angle_alpha 90.000000
_cell_angle_beta 90.000000
_cell_angle_gamma 90.000000
_cell_volume 8727.560901
_symmetry_space_group_name_H-M "F M M M"
_symmetry_group_IT_number 69
_symmetry_cell_setting 'orthorhombic'
loop_
_space_group_symop_operation_xyz
x,y,z
-x,-y,z
x,-y,-z
-x,y,-z
-x,-y,-z
x,y,-z
-x,y,z
x,-y,z
x,1/2+y,1/2+z
-x,1/2-y,1/2+z
x,1/2-y,1/2-z
-x,1/2+y,1/2-z
-x,1/2-y,1/2-z
x,1/2+y,1/2-z
-x,1/2+y,1/2+z
x,1/2-y,1/2+z
1/2+x,y,1/2+z
1/2-x,-y,1/2+z
1/2+x,-y,1/2-z
1/2-x,y,1/2-z
1/2-x,-y,1/2-z
1/2+x,y,1/2-z
1/2-x,y,1/2+z
1/2+x,-y,1/2+z
1/2+x,1/2+y,z
1/2-x,1/2-y,z
1/2+x,1/2-y,-z
1/2-x,1/2+y,-z
1/2-x,1/2-y,-z
1/2+x,1/2+y,-z
1/2-x,1/2+y,z
1/2+x,1/2-y,z
loop_
_atom_site_type_symbol
_atom_site_label
_atom_site_fract_x
_atom_site_fract_y
_atom_site_fract_z
Si Si1 0.586548 0.500000 0.337006
Si Si2 0.089498 0.237250 0.564947
Si Si3 0.679606 0.628673 0.936859
Si Si4 0.086478 0.000000 0.909698
Si Si5 0.675303 0.633620 0.359871
Si Si6 0.139754 0.500000 0.286190
Si Si7 0.250000 0.113241 0.250000
O O1 0.500000 0.500000 0.355179
O O2 0.630743 0.564892 0.356148
O O3 0.591197 0.500000 0.269836
O O4 0.103721 0.217979 0.500000
O O5 0.129386 0.307129 0.573897
O O6 0.124385 0.186538 0.608683
O O7 0.000000 0.242543 0.571834
O O8 0.628890 0.564414 0.930755
O O9 0.749735 0.625797 0.896021
O O10 0.707927 0.633316 0.000000
O O11 0.094306 0.000000 0.842765
O O12 0.000000 0.000000 0.926464
O O13 0.702799 0.650765 0.297107
O O14 0.193483 0.436282 0.282114
#
# Coordination Sequence:
#
# PCOD9512967 Si02
#       7
#    16  32  32  16  32  16  16
#     4  10  21  35  59  91 122 155 194 241 288 344
#     4  10  22  41  62  85 118 157 197 244 299 356
#     4  11  23  39  59  86 116 152 198 243 291 351
#     4  12  22  35  59  86 115 146 188 247 299 343
#     4  11  20  37  64  87 116 157 199 236 292 348
#     4   9  17  35  56  83 115 153 188 233 286 342
#     4   9  18  34  61  84 116 148 194 240 280 333
#
# _framework density 18.332727999999999
#
# number of rings (size 3 to 8) (size 9 to 14) (size 15 to 20)
#    0.000    1.600    2.000    4.200    0.000    3.200 
#    0.000    3.500    0.000    4.800    0.000    0.000 
#    0.000    0.000    0.000    0.000    0.000    0.000 
#
# Total GULP energy -223402.216541 kJ/mol
# GULP energy per Si atom -5585.055414 kJ/mol
# Density = 1.829100 g / cm^3
# Si number density = 18.332728 Si / 1000 Ang^3
#
#
#
# Elastic Constant Matrix: (Units=GPa)
#
#
# Indices 1 2 3 4 5 6 
#
# 1 124.4311 42.4482 60.1195 0.0000 0.0000 0.0000
# 2 42.4482 103.1146 65.7582 0.0000 0.0000 0.0000
# 3 60.1195 65.7582 115.4530 0.0000 0.0000 0.0000
# 4 0.0000 0.0000 0.0000 30.4504 0.0000 0.0000
# 5 0.0000 0.0000 0.0000 0.0000 31.7518 0.0000
# 6 0.0000 0.0000 0.0000 0.0000 0.0000 29.6385
#
#
#
# Elastic Compliance Matrix: (Units=1/GPa)
#
#
# Indices 1 2 3 4 5 6 
#
# 1 0.010858 -0.001357 -0.004881 0.000000 0.000000 0.000000
# 2 -0.001357 0.015399 -0.008064 0.000000 0.000000 0.000000
# 3 -0.004881 -0.008064 0.015796 0.000000 0.000000 0.000000
# 4 0.000000 0.000000 0.000000 0.032840 0.000000 0.000000
# 5 0.000000 0.000000 0.000000 0.000000 0.031494 0.000000
# 6 0.000000 0.000000 0.000000 0.000000 0.000000 0.033740
#
#
# Mechanical properties :
#
#
# Convention : Reuss Voigt Hill
#
# Bulk Modulus (GPa) = 74.35608 75.51673 74.93641
# Shear Modulus (GPa) = 28.86575 30.01301 29.43938
#
# Velocity S-wave (km/s) = 3.97236 4.05053 4.01164
# Velocity P-wave (km/s) = 7.85409 7.94717 7.90077
#
# Compressibility (1/GPa) = 0.01344880
#
# Stress axis : x y z
#
# Youngs Moduli (GPa) = 92.09968 64.93780 63.30549
#
# Poissons Ratio (x) = 0.08812 0.30900
# Poissons Ratio (y) = 0.12498 0.51052
# Poissons Ratio (z) = 0.44954 0.52368
#
# Static dielectric constant tensor:
#      x y z
#    x 1.611820 0.000000 0.000000 
#    y 0.000000 1.602550 0.000000 
#    z 0.000000 0.000000 1.637990 
# 
# From -- ./inp_files/36656.got.cif
#   From: 2010.05.17/outbox.cif.g08.bks.cpg/sg69_19_cif.got.tgz:36656.got - 2010.06.03 19:29:58.
