data_PCOD9512431
_publ_section_title
;
Structure prediction by ZEFSAII (Michael W. Deem and Ramdas Pophale) SiO2 
 PCOD9512431
Probable space group: F M M M
;
_chemical_formula_sum "Si O2"
_cell_formula_units_Z 160
_cell_length_a 30.764099
_cell_length_b 8.370349
_cell_length_c 31.006209
_cell_angle_alpha 90.000000
_cell_angle_beta 90.000000
_cell_angle_gamma 90.000000
_cell_volume 7984.292461
_symmetry_space_group_name_H-M "F M M M"
_symmetry_group_IT_number 69
_symmetry_cell_setting 'orthorhombic'
loop_
_space_group_symop_operation_xyz
x,y,z
-x,-y,z
x,-y,-z
-x,y,-z
-x,-y,-z
x,y,-z
-x,y,z
x,-y,z
x,1/2+y,1/2+z
-x,1/2-y,1/2+z
x,1/2-y,1/2-z
-x,1/2+y,1/2-z
-x,1/2-y,1/2-z
x,1/2+y,1/2-z
-x,1/2+y,1/2+z
x,1/2-y,1/2+z
1/2+x,y,1/2+z
1/2-x,-y,1/2+z
1/2+x,-y,1/2-z
1/2-x,y,1/2-z
1/2-x,-y,1/2-z
1/2+x,y,1/2-z
1/2-x,y,1/2+z
1/2+x,-y,1/2+z
1/2+x,1/2+y,z
1/2-x,1/2-y,z
1/2+x,1/2-y,-z
1/2-x,1/2+y,-z
1/2-x,1/2-y,-z
1/2+x,1/2+y,-z
1/2-x,1/2+y,z
1/2+x,1/2-y,z
loop_
_atom_site_type_symbol
_atom_site_label
_atom_site_fract_x
_atom_site_fract_y
_atom_site_fract_z
Si Si1 0.796034 0.691806 0.673895
Si Si2 0.299103 0.191912 0.500000
Si Si3 0.664382 0.311659 0.410535
Si Si4 0.107364 0.807361 0.796697
Si Si5 0.572370 0.314240 0.114531
Si Si6 0.000000 0.810621 0.450296
O O1 0.795591 0.500000 0.672255
O O2 0.750000 0.750000 0.692849
O O3 0.800895 0.763995 0.625917
O O4 0.841849 0.742753 0.696051
O O5 0.250000 0.250000 0.500000
O O6 0.320212 0.265012 0.542462
O O7 0.302125 0.000000 0.500000
O O8 0.654875 0.500000 0.407301
O O9 0.621553 0.209211 0.401057
O O10 0.093057 0.750000 0.750000
O O11 0.076694 0.750194 0.836213
O O12 0.107254 0.000000 0.798417
O O13 0.560387 0.500000 0.116832
O O14 0.541041 0.237316 0.079243
O O15 0.000000 0.745253 0.500000
O O16 0.000000 0.000000 0.454257
#
# Coordination Sequence:
#
# PCOD9512431 Si02
#       6
#    32  16  32  32  32  16
#     4  10  20  35  53  79 114 155 202 250 300 354
#     4  12  24  38  54  77 110 151 198 248 296 350
#     4  11  22  37  57  81 112 152 196 245 298 353
#     4   9  20  37  59  86 118 156 201 249 298 358
#     4  10  22  42  64  90 122 158 197 240 295 358
#     4  11  25  43  66  97 128 155 194 245 293 352
#
# _framework density 20.039345000000001
#
# number of rings (size 3 to 8) (size 9 to 14) (size 15 to 20)
#    0.000    1.700    0.000    6.000    1.400    6.000 
#    0.000    2.500    0.000    0.000    0.000    0.000 
#    0.000    0.000    0.000    0.000    0.000    0.000 
#
# Total GULP energy -223241.089901 kJ/mol
# GULP energy per Si atom -5581.027248 kJ/mol
# Density = 1.999373 g / cm^3
# Si number density = 20.039345 Si / 1000 Ang^3
#
#
#
# Elastic Constant Matrix: (Units=GPa)
#
#
# Indices 1 2 3 4 5 6 
#
# 1 65.9076 -4.0876 40.8807 -0.0001 0.0002 0.0003
# 2 -4.0876 46.3939 12.2904 -0.0001 0.0004 0.0011
# 3 40.8807 12.2904 169.5719 0.0000 0.0000 0.0000
# 4 -0.0001 -0.0001 0.0000 25.8390 0.0000 0.0001
# 5 0.0002 0.0004 0.0000 0.0000 3.9091 -0.0002
# 6 0.0003 0.0011 0.0000 0.0001 -0.0002 27.5916
#
#
#
# Elastic Compliance Matrix: (Units=1/GPa)
#
#
# Indices 1 2 3 4 5 6 
#
# 1 0.018195 0.002819 -0.004591 0.000000 -0.000001 0.000000
# 2 0.002819 0.022413 -0.002304 0.000000 -0.000002 -0.000001
# 3 -0.004591 -0.002304 0.007171 0.000000 0.000000 0.000000
# 4 0.000000 0.000000 0.000000 0.038701 0.000000 0.000000
# 5 -0.000001 -0.000002 0.000000 0.000000 0.255814 0.000002
# 6 0.000000 -0.000001 0.000000 0.000000 0.000002 0.036243
#
#
# Mechanical properties :
#
#
# Convention : Reuss Voigt Hill
#
# Bulk Modulus (GPa) = 25.23465 42.22673 33.73069
# Shear Modulus (GPa) = 12.50317 26.98726 19.74521
#
# Velocity S-wave (km/s) = 2.50057 3.67374 3.14239
# Velocity P-wave (km/s) = 4.57788 6.25402 5.48041
#
# Compressibility (1/GPa) = 0.03962806
#
# Stress axis : x y z
#
# Youngs Moduli (GPa) = 54.95956 44.61619 139.45087
#
# Poissons Ratio (x) = -0.12579 0.64020
# Poissons Ratio (y) = -0.15495 0.32132
# Poissons Ratio (z) = 0.25231 0.10280
#
# Static dielectric constant tensor:
#      x y z
#    x 1.703990 0.000000 0.000000 
#    y 0.000000 1.694330 0.000000 
#    z 0.000000 0.000000 1.747890 
# 
# From -- ./inp_files/44587.got.cif
#   From: 2010.05.17/outbox.cif.g08.bks.cpg/sg69_23_cif.got.tgz:44587.got - 2010.06.03 19:29:58.
