data_PCOD9512846
_publ_section_title
;
Structure prediction by ZEFSAII (Michael W. Deem and Ramdas Pophale) SiO2 
 PCOD9512846
Probable space group: F M M M
;
_chemical_formula_sum "Si O2"
_cell_formula_units_Z 160
_cell_length_a 23.128789
_cell_length_b 23.506482
_cell_length_c 15.219296
_cell_angle_alpha 90.000000
_cell_angle_beta 90.000000
_cell_angle_gamma 90.000000
_cell_volume 8274.373008
_symmetry_space_group_name_H-M "F M M M"
_symmetry_group_IT_number 69
_symmetry_cell_setting 'orthorhombic'
loop_
_space_group_symop_operation_xyz
x,y,z
-x,-y,z
x,-y,-z
-x,y,-z
-x,-y,-z
x,y,-z
-x,y,z
x,-y,z
x,1/2+y,1/2+z
-x,1/2-y,1/2+z
x,1/2-y,1/2-z
-x,1/2+y,1/2-z
-x,1/2-y,1/2-z
x,1/2+y,1/2-z
-x,1/2+y,1/2+z
x,1/2-y,1/2+z
1/2+x,y,1/2+z
1/2-x,-y,1/2+z
1/2+x,-y,1/2-z
1/2-x,y,1/2-z
1/2-x,-y,1/2-z
1/2+x,y,1/2-z
1/2-x,y,1/2+z
1/2+x,-y,1/2+z
1/2+x,1/2+y,z
1/2-x,1/2-y,z
1/2+x,1/2-y,-z
1/2-x,1/2+y,-z
1/2-x,1/2-y,-z
1/2+x,1/2+y,-z
1/2-x,1/2+y,z
1/2+x,1/2-y,z
loop_
_atom_site_type_symbol
_atom_site_label
_atom_site_fract_x
_atom_site_fract_y
_atom_site_fract_z
Si Si1 0.260872 0.934627 0.899476
Si Si2 0.431884 0.772733 0.350189
Si Si3 0.931012 0.348933 0.093544
Si Si4 0.873330 0.436514 0.217168
Si Si5 0.361105 0.885427 0.601399
O O1 0.309157 0.928535 0.824484
O O2 0.208807 0.889746 0.892740
O O3 0.237999 0.000000 0.891272
O O4 0.284208 0.930476 0.000000
O O5 0.500000 0.786177 0.368647
O O6 0.429160 0.750000 0.250000
O O7 0.412376 0.716479 0.401816
O O8 0.391288 0.825810 0.373165
O O9 0.909426 0.387129 0.172018
O O10 0.000000 0.347034 0.097754
O O11 0.913116 0.374238 0.000000
O O12 0.891846 0.500000 0.191623
O O13 0.878386 0.428602 0.321289
O O14 0.375927 0.899507 0.500000
#
# Coordination Sequence:
#
# PCOD9512846 Si02
#       5
#    32  32  32  32  32
#     4   9  19  37  60  86 117 155 199 244 292 346
#     4  10  20  39  64  86 112 151 194 236 290 352
#     4  10  21  38  61  87 114 147 192 248 302 349
#     4  11  22  37  59  86 119 159 198 239 289 348
#     4  11  22  36  59  89 117 151 195 240 286 344
#
# _framework density 19.336812999999999
#
# number of rings (size 3 to 8) (size 9 to 14) (size 15 to 20)
#    0.000    1.800    2.000    2.400    0.000    5.600 
#    0.000    2.000    0.000    5.400    0.000    8.400 
#    0.000    0.000    0.000    0.000    0.000    0.000 
#
# Total GULP energy -222908.395233 kJ/mol
# GULP energy per Si atom -5572.709881 kJ/mol
# Density = 1.929280 g / cm^3
# Si number density = 19.336813 Si / 1000 Ang^3
#
#
#
# Elastic Constant Matrix: (Units=GPa)
#
#
# Indices 1 2 3 4 5 6 
#
# 1 51.6658 58.6057 16.4271 0.0000 0.0000 0.0000
# 2 58.6057 106.6835 36.2244 0.0000 0.0000 0.0000
# 3 16.4271 36.2244 121.3248 0.0000 0.0000 0.0000
# 4 0.0000 0.0000 0.0000 43.4848 0.0000 0.0000
# 5 0.0000 0.0000 0.0000 0.0000 21.8040 0.0000
# 6 0.0000 0.0000 0.0000 0.0000 0.0000 38.3948
#
#
#
# Elastic Compliance Matrix: (Units=1/GPa)
#
#
# Indices 1 2 3 4 5 6 
#
# 1 0.051651 -0.028933 0.001645 0.000000 0.000000 0.000000
# 2 -0.028933 0.026638 -0.004036 0.000000 0.000000 0.000000
# 3 0.001645 -0.004036 0.009225 0.000000 0.000000 0.000000
# 4 0.000000 0.000000 0.000000 0.022997 0.000000 0.000000
# 5 0.000000 0.000000 0.000000 0.000000 0.045863 0.000000
# 6 0.000000 0.000000 0.000000 0.000000 0.000000 0.026045
#
#
# Mechanical properties :
#
#
# Convention : Reuss Voigt Hill
#
# Bulk Modulus (GPa) = 40.21468 55.79871 48.00670
# Shear Modulus (GPa) = 19.73517 31.96451 25.84984
#
# Velocity S-wave (km/s) = 3.19815 4.07017 3.66022
# Velocity P-wave (km/s) = 5.87194 7.14193 6.53785
#
# Compressibility (1/GPa) = 0.02486654
#
# Stress axis : x y z
#
# Youngs Moduli (GPa) = 19.36061 37.54049 108.40552
#
# Poissons Ratio (x) = 1.08615 -0.17834
# Poissons Ratio (y) = 0.56016 0.43752
# Poissons Ratio (z) = -0.03185 0.15151
#
# Static dielectric constant tensor:
#      x y z
#    x 1.674620 0.000000 0.000000 
#    y 0.000000 1.654400 0.000000 
#    z 0.000000 0.000000 1.776750 
# 
# From -- ./inp_files/17692.got.cif
#   From: 2010.05.17/outbox.cif.g08.bks.cpg/sg69_9_cif.got.tgz:17692.got - 2010.06.03 19:29:58.
