data_PCOD9512236
_publ_section_title
;
Structure prediction by ZEFSAII (Michael W. Deem and Ramdas Pophale) SiO2 
 PCOD9512236
Probable space group: F M M M
;
_chemical_formula_sum "Si O2"
_cell_formula_units_Z 192
_cell_length_a 27.610427
_cell_length_b 31.485027
_cell_length_c 13.274176
_cell_angle_alpha 90.000000
_cell_angle_beta 90.000000
_cell_angle_gamma 90.000000
_cell_volume 11539.440835
_symmetry_space_group_name_H-M "F M M M"
_symmetry_group_IT_number 69
_symmetry_cell_setting 'orthorhombic'
loop_
_space_group_symop_operation_xyz
x,y,z
-x,-y,z
x,-y,-z
-x,y,-z
-x,-y,-z
x,y,-z
-x,y,z
x,-y,z
x,1/2+y,1/2+z
-x,1/2-y,1/2+z
x,1/2-y,1/2-z
-x,1/2+y,1/2-z
-x,1/2-y,1/2-z
x,1/2+y,1/2-z
-x,1/2+y,1/2+z
x,1/2-y,1/2+z
1/2+x,y,1/2+z
1/2-x,-y,1/2+z
1/2+x,-y,1/2-z
1/2-x,y,1/2-z
1/2-x,-y,1/2-z
1/2+x,y,1/2-z
1/2-x,y,1/2+z
1/2+x,-y,1/2+z
1/2+x,1/2+y,z
1/2-x,1/2-y,z
1/2+x,1/2-y,-z
1/2-x,1/2+y,-z
1/2-x,1/2-y,-z
1/2+x,1/2+y,-z
1/2-x,1/2+y,z
1/2+x,1/2-y,z
loop_
_atom_site_type_symbol
_atom_site_label
_atom_site_fract_x
_atom_site_fract_y
_atom_site_fract_z
Si Si1 0.167864 0.222039 0.000000
Si Si2 0.362901 0.706676 0.218488
Si Si3 0.300483 0.133013 0.804542
Si Si4 0.652267 0.547270 0.622193
Si Si5 0.447166 0.583856 0.620297
Si Si6 0.942492 0.685275 0.881732
Si Si7 0.222109 0.812163 0.500000
O O1 0.135785 0.211701 0.901772
O O2 0.188638 0.270118 0.000000
O O3 0.220038 0.197339 0.000000
O O4 0.334474 0.750000 0.250000
O O5 0.336033 0.662600 0.239778
O O6 0.409130 0.705932 0.294931
O O7 0.250000 0.128850 0.750000
O O8 0.319651 0.086707 0.831669
O O9 0.292104 0.160312 0.904346
O O10 0.654339 0.550491 0.500000
O O11 0.668644 0.500000 0.650151
O O12 0.596753 0.555097 0.655315
O O13 0.449945 0.577383 0.500000
O O14 0.500000 0.574436 0.664020
O O15 0.436984 0.634192 0.631860
O O16 0.000000 0.694978 0.870658
O O17 0.929282 0.694709 0.000000
#
# Coordination Sequence:
#
# PCOD9512236 Si02
#       7
#    16  32  32  32  32  32  16
#     4  11  24  38  53  86 116 142 195 243 284 338
#     4  12  24  35  57  84 111 149 189 233 283 341
#     4  12  23  37  57  78 108 152 186 229 292 335
#     4  10  20  33  53  81 111 144 185 230 281 346
#     4   8  14  27  50  79 110 140 173 220 278 332
#     4   9  19  36  58  83 112 151 192 228 278 344
#     4  11  22  38  55  76 116 145 184 244 287 332
#
# _framework density 16.638587000000001
#
# number of rings (size 3 to 8) (size 9 to 14) (size 15 to 20)
#    0.000    1.667    5.833    1.000    2.333    1.333 
#    0.000    2.083    0.000    0.000    0.000    0.000 
#    0.000    0.000    0.000    3.667    0.000    0.333 
#
# Total GULP energy -267384.352643 kJ/mol
# GULP energy per Si atom -5570.507347 kJ/mol
# Density = 1.660072 g / cm^3
# Si number density = 16.638587 Si / 1000 Ang^3
#
#
#
# Elastic Constant Matrix: (Units=GPa)
#
#
# Indices 1 2 3 4 5 6 
#
# 1 74.4839 42.5445 47.0989 0.0000 0.0000 0.0000
# 2 42.5445 119.2124 47.3554 0.0000 0.0000 0.0000
# 3 47.0989 47.3554 111.3311 0.0000 0.0000 0.0000
# 4 0.0000 0.0000 0.0000 8.8832 0.0000 0.0000
# 5 0.0000 0.0000 0.0000 0.0000 26.0217 0.0000
# 6 0.0000 0.0000 0.0000 0.0000 0.0000 20.2332
#
#
#
# Elastic Compliance Matrix: (Units=1/GPa)
#
#
# Indices 1 2 3 4 5 6 
#
# 1 0.020225 -0.004596 -0.006601 0.000000 0.000000 0.000000
# 2 -0.004596 0.011138 -0.002794 0.000000 0.000000 0.000000
# 3 -0.006601 -0.002794 0.012963 0.000000 0.000000 0.000000
# 4 0.000000 0.000000 0.000000 0.112572 0.000000 0.000000
# 5 0.000000 0.000000 0.000000 0.000000 0.038429 0.000000
# 6 0.000000 0.000000 0.000000 0.000000 0.000000 0.049424
#
#
# Mechanical properties :
#
#
# Convention : Reuss Voigt Hill
#
# Bulk Modulus (GPa) = 61.17981 64.33608 62.75795
# Shear Modulus (GPa) = 17.97391 22.22953 20.10172
#
# Velocity S-wave (km/s) = 3.29029 3.65913 3.47960
# Velocity P-wave (km/s) = 7.16131 7.52350 7.34464
#
# Compressibility (1/GPa) = 0.01634526
#
# Stress axis : x y z
#
# Youngs Moduli (GPa) = 49.44374 89.78167 77.14124
#
# Poissons Ratio (x) = 0.41260 0.50925
# Poissons Ratio (y) = 0.22722 0.21550
# Poissons Ratio (z) = 0.32640 0.25081
#
# Static dielectric constant tensor:
#      x y z
#    x 1.613400 0.000000 0.000000 
#    y 0.000000 1.573930 0.000000 
#    z 0.000000 0.000000 1.556730 
# 
# From -- ./inp_files/12520.got.cif
#   From: 2010.05.17/outbox.cif.g08.bks.cpg/sg69_7_cif.got.tgz:12520.got - 2010.06.03 19:29:58.
