data_PCOD9512119
_publ_section_title
;
Structure prediction by ZEFSAII (Michael W. Deem and Ramdas Pophale) SiO2 
 PCOD9512119
Probable space group: F M M M
;
_chemical_formula_sum "Si O2"
_cell_formula_units_Z 160
_cell_length_a 32.009747
_cell_length_b 15.216695
_cell_length_c 16.040309
_cell_angle_alpha 90.000000
_cell_angle_beta 90.000000
_cell_angle_gamma 90.000000
_cell_volume 7812.954725
_symmetry_space_group_name_H-M "F M M M"
_symmetry_group_IT_number 69
_symmetry_cell_setting 'orthorhombic'
loop_
_space_group_symop_operation_xyz
x,y,z
-x,-y,z
x,-y,-z
-x,y,-z
-x,-y,-z
x,y,-z
-x,y,z
x,-y,z
x,1/2+y,1/2+z
-x,1/2-y,1/2+z
x,1/2-y,1/2-z
-x,1/2+y,1/2-z
-x,1/2-y,1/2-z
x,1/2+y,1/2-z
-x,1/2+y,1/2+z
x,1/2-y,1/2+z
1/2+x,y,1/2+z
1/2-x,-y,1/2+z
1/2+x,-y,1/2-z
1/2-x,y,1/2-z
1/2-x,-y,1/2-z
1/2+x,y,1/2-z
1/2-x,y,1/2+z
1/2+x,-y,1/2+z
1/2+x,1/2+y,z
1/2-x,1/2-y,z
1/2+x,1/2-y,-z
1/2-x,1/2+y,-z
1/2-x,1/2-y,-z
1/2+x,1/2+y,-z
1/2-x,1/2+y,z
1/2+x,1/2-y,z
loop_
_atom_site_type_symbol
_atom_site_label
_atom_site_fract_x
_atom_site_fract_y
_atom_site_fract_z
Si Si1 0.794363 0.892802 0.839866
Si Si2 0.953514 0.821938 0.500000
Si Si3 0.140079 0.894193 0.500000
Si Si4 0.298471 0.107170 0.853686
Si Si5 0.954864 0.698802 0.663432
Si Si6 0.619198 0.394913 0.092240
O O1 0.749204 0.865307 0.874212
O O2 0.802248 0.867092 0.743477
O O3 0.834236 0.862163 0.890777
O O4 0.793497 0.000000 0.840764
O O5 0.908910 0.871113 0.500000
O O6 0.953307 0.764389 0.584615
O O7 0.000000 0.867529 0.500000
O O8 0.165978 0.862972 0.418004
O O9 0.142756 0.000000 0.500000
O O10 0.299489 0.000000 0.855247
O O11 0.953618 0.750000 0.750000
O O12 0.914844 0.637664 0.656693
O O13 0.000000 0.651812 0.658187
O O14 0.620734 0.500000 0.094594
O O15 0.605706 0.367500 0.000000
#
# Coordination Sequence:
#
# PCOD9512119 Si02
#       6
#    32  16  16  32  32  32
#     4   8  15  28  47  74 110 143 175 220 273 323
#     4  10  22  41  58  77 109 146 190 234 280 345
#     4  10  20  31  53  84 108 141 188 230 270 316
#     4   8  15  28  46  73 108 145 180 218 264 323
#     4  10  22  41  61  79 106 150 190 223 280 351
#     4  10  20  33  57  90 115 139 179 237 290 327
#
# _framework density 20.478808000000001
#
# number of rings (size 3 to 8) (size 9 to 14) (size 15 to 20)
#    0.000    2.800    1.000    1.200    4.200    0.600 
#    0.000    1.000    0.000    6.000    0.000    0.000 
#    0.000    0.000    0.000    0.000    0.000    0.000 
#
# Total GULP energy -222933.400938 kJ/mol
# GULP energy per Si atom -5573.335023 kJ/mol
# Density = 2.043220 g / cm^3
# Si number density = 20.478808 Si / 1000 Ang^3
#
#
#
# Elastic Constant Matrix: (Units=GPa)
#
#
# Indices 1 2 3 4 5 6 
#
# 1 169.5653 25.7651 45.0126 0.0000 0.0000 0.0000
# 2 25.7651 21.2667 15.5257 0.0000 0.0000 0.0000
# 3 45.0126 15.5257 83.0189 0.0000 0.0000 0.0000
# 4 0.0000 0.0000 0.0000 10.0993 0.0000 0.0000
# 5 0.0000 0.0000 0.0000 0.0000 32.9126 0.0000
# 6 0.0000 0.0000 0.0000 0.0000 0.0000 39.8930
#
#
#
# Elastic Compliance Matrix: (Units=1/GPa)
#
#
# Indices 1 2 3 4 5 6 
#
# 1 0.007766 -0.007336 -0.002839 0.000000 0.000000 0.000000
# 2 -0.007336 0.061387 -0.007503 0.000000 0.000000 0.000000
# 3 -0.002839 -0.007503 0.014988 0.000000 0.000000 0.000000
# 4 0.000000 0.000000 0.000000 0.099016 0.000000 0.000000
# 5 0.000000 0.000000 0.000000 0.000000 0.030383 0.000000
# 6 0.000000 0.000000 0.000000 0.000000 0.000000 0.025067
#
#
# Mechanical properties :
#
#
# Convention : Reuss Voigt Hill
#
# Bulk Modulus (GPa) = 20.49778 49.60640 35.05209
# Shear Modulus (GPa) = 17.22810 29.08416 23.15613
#
# Velocity S-wave (km/s) = 2.90360 3.77265 3.36629
# Velocity P-wave (km/s) = 4.61218 6.57671 5.68002
#
# Compressibility (1/GPa) = 0.04878578
#
# Stress axis : x y z
#
# Youngs Moduli (GPa) = 128.77239 16.29010 66.72174
#
# Poissons Ratio (x) = 0.11950 0.18939
# Poissons Ratio (y) = 0.94467 0.50059
# Poissons Ratio (z) = 0.36553 0.12222
#
# Static dielectric constant tensor:
#      x y z
#    x 1.747270 0.000000 0.000000 
#    y 0.000000 1.752940 0.000000 
#    z 0.000000 0.000000 1.726490 
# 
# From -- ./inp_files/19610.got.cif
#   From: 2010.05.17/outbox.cif.g08.bks.cpg/sg69_10_cif.got.tgz:19610.got - 2010.06.03 19:29:58.
