data_PCOD9512715
_publ_section_title
;
Structure prediction by ZEFSAII (Michael W. Deem and Ramdas Pophale) SiO2 
 PCOD9512715
Probable space group: F M M M
;
_chemical_formula_sum "Si O2"
_cell_formula_units_Z 160
_cell_length_a 18.418704
_cell_length_b 22.872557
_cell_length_c 19.405915
_cell_angle_alpha 90.000000
_cell_angle_beta 90.000000
_cell_angle_gamma 90.000000
_cell_volume 8175.379316
_symmetry_space_group_name_H-M "F M M M"
_symmetry_group_IT_number 69
_symmetry_cell_setting 'orthorhombic'
loop_
_space_group_symop_operation_xyz
x,y,z
-x,-y,z
x,-y,-z
-x,y,-z
-x,-y,-z
x,y,-z
-x,y,z
x,-y,z
x,1/2+y,1/2+z
-x,1/2-y,1/2+z
x,1/2-y,1/2-z
-x,1/2+y,1/2-z
-x,1/2-y,1/2-z
x,1/2+y,1/2-z
-x,1/2+y,1/2+z
x,1/2-y,1/2+z
1/2+x,y,1/2+z
1/2-x,-y,1/2+z
1/2+x,-y,1/2-z
1/2-x,y,1/2-z
1/2-x,-y,1/2-z
1/2+x,y,1/2-z
1/2-x,y,1/2+z
1/2+x,-y,1/2+z
1/2+x,1/2+y,z
1/2-x,1/2-y,z
1/2+x,1/2-y,-z
1/2-x,1/2+y,-z
1/2-x,1/2-y,-z
1/2+x,1/2+y,-z
1/2-x,1/2+y,z
1/2+x,1/2-y,z
loop_
_atom_site_type_symbol
_atom_site_label
_atom_site_fract_x
_atom_site_fract_y
_atom_site_fract_z
Si Si1 0.690866 0.803440 0.000000
Si Si2 0.702692 0.872294 0.141471
Si Si3 0.873935 0.374007 0.366495
Si Si4 0.281137 0.000000 0.828812
Si Si5 0.635663 0.000000 0.417443
Si Si6 0.921528 0.817563 0.729962
Si Si7 0.413537 0.701466 0.000000
O O1 0.750000 0.750000 0.000000
O O2 0.698230 0.845484 0.065401
O O3 0.616126 0.767335 0.000000
O O4 0.789069 0.872171 0.156772
O O5 0.678608 0.939208 0.156005
O O6 0.649102 0.833145 0.186337
O O7 0.896030 0.439050 0.390330
O O8 0.917905 0.353168 0.300892
O O9 0.884657 0.331700 0.431880
O O10 0.250000 0.000000 0.750000
O O11 0.216030 0.000000 0.884541
O O12 0.637010 0.000000 0.500000
O O13 0.918316 0.750000 0.750000
O O14 0.000000 0.828578 0.695165
O O15 0.500000 0.699050 0.000000
#
# Coordination Sequence:
#
# PCOD9512715 Si02
#       7
#    16  32  32  16  16  32  16
#     4  12  24  41  63 101 125 167 225 261 311 389
#     4  11  23  40  68  92 131 166 219 272 317 388
#     4  11  21  40  64  94 129 169 217 262 325 393
#     4  10  22  40  62  98 128 167 217 269 332 373
#     4  10  20  36  65  98 132 165 207 267 325 389
#     4  11  25  42  61  90 128 174 221 273 335 386
#     4  12  24  39  62  93 138 172 202 271 334 383
#
# _framework density 19.570958000000001
#
# number of rings (size 3 to 8) (size 9 to 14) (size 15 to 20)
#    0.000    1.000    3.000    4.800    4.200    3.200 
#    0.000    4.000    0.000    0.000    0.000    2.100 
#    0.000    0.000    0.000    0.000    0.000    0.000 
#
# Total GULP energy -223339.865467 kJ/mol
# GULP energy per Si atom -5583.496637 kJ/mol
# Density = 1.952641 g / cm^3
# Si number density = 19.570958 Si / 1000 Ang^3
#
#
#
# Elastic Constant Matrix: (Units=GPa)
#
#
# Indices 1 2 3 4 5 6 
#
# 1 101.6325 35.5422 25.5848 0.0000 0.0000 0.0000
# 2 35.5422 124.4789 44.4830 0.0000 0.0000 0.0000
# 3 25.5848 44.4830 113.6063 0.0000 0.0000 0.0000
# 4 0.0000 0.0000 0.0000 29.4180 0.0000 0.0000
# 5 0.0000 0.0000 0.0000 0.0000 14.1397 0.0000
# 6 0.0000 0.0000 0.0000 0.0000 0.0000 19.5894
#
#
#
# Elastic Compliance Matrix: (Units=1/GPa)
#
#
# Indices 1 2 3 4 5 6 
#
# 1 0.011138 -0.002655 -0.001469 0.000000 0.000000 0.000000
# 2 -0.002655 0.009973 -0.003307 0.000000 0.000000 0.000000
# 3 -0.001469 -0.003307 0.010428 0.000000 0.000000 0.000000
# 4 0.000000 0.000000 0.000000 0.033993 0.000000 0.000000
# 5 0.000000 0.000000 0.000000 0.000000 0.070723 0.000000
# 6 0.000000 0.000000 0.000000 0.000000 0.000000 0.051048
#
#
# Mechanical properties :
#
#
# Convention : Reuss Voigt Hill
#
# Bulk Modulus (GPa) = 59.96265 61.21530 60.58898
# Shear Modulus (GPa) = 24.07040 28.23661 26.15351
#
# Velocity S-wave (km/s) = 3.51080 3.80252 3.65957
# Velocity P-wave (km/s) = 6.86582 7.11515 6.99160
#
# Compressibility (1/GPa) = 0.01667705
#
# Stress axis : x y z
#
# Youngs Moduli (GPa) = 89.78543 100.26588 95.89572
#
# Poissons Ratio (x) = 0.26624 0.14083
# Poissons Ratio (y) = 0.23841 0.31714
# Poissons Ratio (z) = 0.13186 0.33160
#
# Static dielectric constant tensor:
#      x y z
#    x 1.694470 0.000000 0.000000 
#    y 0.000000 1.749160 0.000000 
#    z 0.000000 0.000000 1.665290 
# 
# From -- ./inp_files/24690.got.cif
#   From: 2010.05.17/outbox.cif.g08.bks.cpg/sg69_13_cif.got.tgz:24690.got - 2010.06.03 19:29:58.
