data_PCOD9512050
_publ_section_title
;
Structure prediction by ZEFSAII (Michael W. Deem and Ramdas Pophale) SiO2 
 PCOD9512050
Probable space group: F M M M
;
_chemical_formula_sum "Si O2"
_cell_formula_units_Z 72
_cell_length_a 20.830474
_cell_length_b 9.894319
_cell_length_c 14.855111
_cell_angle_alpha 90.000000
_cell_angle_beta 90.000000
_cell_angle_gamma 90.000000
_cell_volume 3061.688211
_symmetry_space_group_name_H-M "F M M M"
_symmetry_group_IT_number 69
_symmetry_cell_setting 'orthorhombic'
loop_
_space_group_symop_operation_xyz
x,y,z
-x,-y,z
x,-y,-z
-x,y,-z
-x,-y,-z
x,y,-z
-x,y,z
x,-y,z
x,1/2+y,1/2+z
-x,1/2-y,1/2+z
x,1/2-y,1/2-z
-x,1/2+y,1/2-z
-x,1/2-y,1/2-z
x,1/2+y,1/2-z
-x,1/2+y,1/2+z
x,1/2-y,1/2+z
1/2+x,y,1/2+z
1/2-x,-y,1/2+z
1/2+x,-y,1/2-z
1/2-x,y,1/2-z
1/2-x,-y,1/2-z
1/2+x,y,1/2-z
1/2-x,y,1/2+z
1/2+x,-y,1/2+z
1/2+x,1/2+y,z
1/2-x,1/2-y,z
1/2+x,1/2-y,-z
1/2-x,1/2+y,-z
1/2-x,1/2-y,-z
1/2+x,1/2+y,-z
1/2-x,1/2+y,z
1/2+x,1/2-y,z
loop_
_atom_site_type_symbol
_atom_site_label
_atom_site_fract_x
_atom_site_fract_y
_atom_site_fract_z
Si Si1 0.775218 0.000000 0.148882
Si Si2 0.632366 0.500000 0.399201
Si Si3 0.000000 0.000000 0.841841
Si Si4 0.886984 0.296385 0.390621
O O1 0.750000 0.000000 0.250000
O O2 0.819750 0.870484 0.129837
O O3 0.709279 0.000000 0.094588
O O4 0.604634 0.500000 0.500000
O O5 0.612554 0.358005 0.356619
O O6 0.056074 0.883424 0.850544
O O7 0.893958 0.297346 0.500000
#
# Coordination Sequence:
#
# PCOD9512050 Si02
#       4
#    16  16   8  32
#     4  11  22  36  57  84 116 152 192 233 286 346
#     4  10  21  35  55  86 117 147 189 238 288 340
#     4  10  19  36  60  86 114 148 189 232 287 344
#     4  10  20  36  60  86 115 151 189 235 286 341
#
# _framework density 23.516437
#
# number of rings (size 3 to 8) (size 9 to 14) (size 15 to 20)
#    0.000    1.778    0.000    6.667    0.000    8.000 
#    0.000    3.333    0.000   21.333    0.000    0.000 
#    0.000    0.000    0.000    0.000    0.000    0.000 
#
# Total GULP energy -100220.315917 kJ/mol
# GULP energy per Si atom -5567.795329 kJ/mol
# Density = 2.346291 g / cm^3
# Si number density = 23.516437 Si / 1000 Ang^3
#
#
#
# Elastic Constant Matrix: (Units=GPa)
#
#
# Indices 1 2 3 4 5 6 
#
# 1 137.1416 96.6675 7.0649 0.0000 0.0000 0.0000
# 2 96.6675 294.6152 9.0817 0.0000 0.0000 0.0000
# 3 7.0649 9.0817 80.6286 0.0000 0.0000 0.0000
# 4 0.0000 0.0000 0.0000 -144.3558 0.0000 0.0000
# 5 0.0000 0.0000 0.0000 0.0000 -21.3842 0.0000
# 6 0.0000 0.0000 0.0000 0.0000 0.0000 -1.9928
#
#
#
# Elastic Compliance Matrix: (Units=1/GPa)
#
#
# Indices 1 2 3 4 5 6 
#
# 1 0.009504 -0.003104 -0.000483 0.000000 0.000000 0.000000
# 2 -0.003104 0.004420 -0.000226 0.000000 0.000000 0.000000
# 3 -0.000483 -0.000226 0.012470 0.000000 0.000000 0.000000
# 4 0.000000 0.000000 0.000000 -0.006927 0.000000 0.000000
# 5 0.000000 0.000000 0.000000 0.000000 -0.046764 0.000000
# 6 0.000000 0.000000 0.000000 0.000000 0.000000 -0.501817
#
#
# Mechanical properties :
#
#
# Convention : Reuss Voigt Hill
#
# Bulk Modulus (GPa) = 53.27982 82.00150 67.64066
# Shear Modulus (GPa) = -9.70436 -6.90845 -8.30641
#
# Velocity S-wave (km/s) = -2.03361 -1.71584 -1.88145
# Velocity P-wave (km/s) = 4.14626 5.56957 4.90977
#
# Compressibility (1/GPa) = 0.01876883
#
# Stress axis : x y z
#
# Youngs Moduli (GPa) = 105.21592 226.26722 80.19034
#
# Poissons Ratio (x) = 0.70224 0.03875
# Poissons Ratio (y) = 0.32655 0.01811
# Poissons Ratio (z) = 0.05084 0.05110
#
# Static dielectric constant tensor:
#      x y z
#    x 1.789160 0.000000 0.000000 
#    y 0.000000 1.902480 0.000000 
#    z 0.000000 0.000000 2.051430 
# 
# From -- ./inp_files/30247.got.cif
#   From: 2010.05.17/outbox.cif.g08.bks.cpg/sg69_16_cif.got.tgz:30247.got - 2010.06.03 19:29:58.
