data_PCOD9512149
_publ_section_title
;
Structure prediction by ZEFSAII (Michael W. Deem and Ramdas Pophale) SiO2 
 PCOD9512149
Probable space group: F M M M
;
_chemical_formula_sum "Si O2"
_cell_formula_units_Z 160
_cell_length_a 22.578848
_cell_length_b 22.857912
_cell_length_c 18.266625
_cell_angle_alpha 90.000000
_cell_angle_beta 90.000000
_cell_angle_gamma 90.000000
_cell_volume 9427.502353
_symmetry_space_group_name_H-M "F M M M"
_symmetry_group_IT_number 69
_symmetry_cell_setting 'orthorhombic'
loop_
_space_group_symop_operation_xyz
x,y,z
-x,-y,z
x,-y,-z
-x,y,-z
-x,-y,-z
x,y,-z
-x,y,z
x,-y,z
x,1/2+y,1/2+z
-x,1/2-y,1/2+z
x,1/2-y,1/2-z
-x,1/2+y,1/2-z
-x,1/2-y,1/2-z
x,1/2+y,1/2-z
-x,1/2+y,1/2+z
x,1/2-y,1/2+z
1/2+x,y,1/2+z
1/2-x,-y,1/2+z
1/2+x,-y,1/2-z
1/2-x,y,1/2-z
1/2-x,-y,1/2-z
1/2+x,y,1/2-z
1/2-x,y,1/2+z
1/2+x,-y,1/2+z
1/2+x,1/2+y,z
1/2-x,1/2-y,z
1/2+x,1/2-y,-z
1/2-x,1/2+y,-z
1/2-x,1/2-y,-z
1/2+x,1/2+y,-z
1/2-x,1/2+y,z
1/2+x,1/2-y,z
loop_
_atom_site_type_symbol
_atom_site_label
_atom_site_fract_x
_atom_site_fract_y
_atom_site_fract_z
Si Si1 0.870468 0.112826 0.917862
Si Si2 0.626243 0.930403 0.000000
Si Si3 0.568550 0.765679 0.587036
Si Si4 0.928578 0.137948 0.363027
Si Si5 0.233154 0.569669 0.500000
Si Si6 0.070080 0.934033 0.777172
O O1 0.888844 0.179362 0.900621
O O2 0.801319 0.099251 0.931616
O O3 0.896718 0.074696 0.853308
O O4 0.896219 0.100233 0.000000
O O5 0.599370 0.899314 0.071387
O O6 0.697141 0.922136 0.000000
O O7 0.613675 0.000000 0.000000
O O8 0.569514 0.752500 0.500000
O O9 0.500000 0.781189 0.605888
O O10 0.585713 0.706397 0.628069
O O11 0.910707 0.111321 0.285077
O O12 0.000000 0.133152 0.369112
O O13 0.220543 0.500000 0.500000
O O14 0.000000 0.925714 0.790136
O O15 0.078809 0.000000 0.749282
#
# Coordination Sequence:
#
# PCOD9512149 Si02
#       6
#    32  16  32  32  16  32
#     4   9  19  34  54  73 103 141 174 215 259 297
#     4  11  21  35  55  76  99 137 184 218 255 313
#     4   9  16  30  52  79 106 136 176 210 250 317
#     4  10  20  34  53  78 110 138 164 213 269 314
#     4   9  20  36  53  74 100 136 183 222 252 301
#     4  10  20  32  49  79 111 137 172 213 258 316
#
# _framework density 16.971620999999999
#
# number of rings (size 3 to 8) (size 9 to 14) (size 15 to 20)
#    0.600    1.800    1.000    2.100    0.000    3.600 
#    0.000    7.000    0.000    3.600    0.000    2.800 
#    0.000    0.000    0.000    0.000    0.000    0.000 
#
# Total GULP energy -222796.617881 kJ/mol
# GULP energy per Si atom -5569.915447 kJ/mol
# Density = 1.693299 g / cm^3
# Si number density = 16.971621 Si / 1000 Ang^3
#
#
#
# Elastic Constant Matrix: (Units=GPa)
#
#
# Indices 1 2 3 4 5 6 
#
# 1 39.6044 34.5238 17.9862 0.0000 0.0000 0.0000
# 2 34.5238 81.2250 20.3845 0.0000 0.0000 0.0000
# 3 17.9862 20.3845 59.3910 0.0000 0.0000 0.0000
# 4 0.0000 0.0000 0.0000 30.0865 0.0000 0.0000
# 5 0.0000 0.0000 0.0000 0.0000 8.3748 0.0000
# 6 0.0000 0.0000 0.0000 0.0000 0.0000 26.3446
#
#
#
# Elastic Compliance Matrix: (Units=1/GPa)
#
#
# Indices 1 2 3 4 5 6 
#
# 1 0.042865 -0.016371 -0.007362 0.000000 0.000000 0.000000
# 2 -0.016371 0.019725 -0.001812 0.000000 0.000000 0.000000
# 3 -0.007362 -0.001812 0.019689 0.000000 0.000000 0.000000
# 4 0.000000 0.000000 0.000000 0.033238 0.000000 0.000000
# 5 0.000000 0.000000 0.000000 0.000000 0.119405 0.000000
# 6 0.000000 0.000000 0.000000 0.000000 0.000000 0.037958
#
#
# Mechanical properties :
#
#
# Convention : Reuss Voigt Hill
#
# Bulk Modulus (GPa) = 32.06460 36.22326 34.14393
# Shear Modulus (GPa) = 14.95364 20.11624 17.53494
#
# Velocity S-wave (km/s) = 2.97155 3.44653 3.21782
# Velocity P-wave (km/s) = 5.54144 6.10147 5.82818
#
# Compressibility (1/GPa) = 0.03118704
#
# Stress axis : x y z
#
# Youngs Moduli (GPa) = 23.32929 50.69771 50.78956
#
# Poissons Ratio (x) = 0.83000 0.37392
# Poissons Ratio (y) = 0.38194 0.09203
# Poissons Ratio (z) = 0.17175 0.09187
#
# Static dielectric constant tensor:
#      x y z
#    x 1.555510 0.000000 0.000000 
#    y 0.000000 1.586620 0.000000 
#    z 0.000000 0.000000 1.571250 
# 
# From -- ./inp_files/25833.got.cif
#   From: 2010.05.17/outbox.cif.g08.bks.cpg/sg69_13_cif.got.tgz:25833.got - 2010.06.03 19:29:58.
