data_PCOD9512100
_publ_section_title
;
Structure prediction by ZEFSAII (Michael W. Deem and Ramdas Pophale) SiO2 
 PCOD9512100
Probable space group: F M M M
;
_chemical_formula_sum "Si O2"
_cell_formula_units_Z 160
_cell_length_a 19.836436
_cell_length_b 25.945840
_cell_length_c 16.792300
_cell_angle_alpha 90.000000
_cell_angle_beta 90.000000
_cell_angle_gamma 90.000000
_cell_volume 8642.543328
_symmetry_space_group_name_H-M "F M M M"
_symmetry_group_IT_number 69
_symmetry_cell_setting 'orthorhombic'
loop_
_space_group_symop_operation_xyz
x,y,z
-x,-y,z
x,-y,-z
-x,y,-z
-x,-y,-z
x,y,-z
-x,y,z
x,-y,z
x,1/2+y,1/2+z
-x,1/2-y,1/2+z
x,1/2-y,1/2-z
-x,1/2+y,1/2-z
-x,1/2-y,1/2-z
x,1/2+y,1/2-z
-x,1/2+y,1/2+z
x,1/2-y,1/2+z
1/2+x,y,1/2+z
1/2-x,-y,1/2+z
1/2+x,-y,1/2-z
1/2-x,y,1/2-z
1/2-x,-y,1/2-z
1/2+x,y,1/2-z
1/2-x,y,1/2+z
1/2+x,-y,1/2+z
1/2+x,1/2+y,z
1/2-x,1/2-y,z
1/2+x,1/2-y,-z
1/2-x,1/2+y,-z
1/2-x,1/2-y,-z
1/2+x,1/2+y,-z
1/2-x,1/2+y,z
1/2+x,1/2-y,z
loop_
_atom_site_type_symbol
_atom_site_label
_atom_site_fract_x
_atom_site_fract_y
_atom_site_fract_z
Si Si1 0.574110 0.271375 0.124381
Si Si2 0.686604 0.892550 0.710702
Si Si3 0.076055 0.062103 0.091796
Si Si4 0.217326 0.194812 0.911738
Si Si5 0.074898 0.332905 0.207892
O O1 0.500000 0.278610 0.089533
O O2 0.637646 0.294613 0.081666
O O3 0.573303 0.300525 0.209558
O O4 0.585072 0.210710 0.141109
O O5 0.750000 0.921626 0.750000
O O6 0.635511 0.919689 0.649182
O O7 0.721359 0.846471 0.659032
O O8 0.636269 0.871351 0.779028
O O9 0.000000 0.080106 0.115318
O O10 0.074658 0.000000 0.092470
O O11 0.087374 0.078533 0.000000
O O12 0.250000 0.250000 0.890133
O O13 0.242828 0.179244 0.000000
O O14 0.000000 0.355971 0.197172
#
# Coordination Sequence:
#
# PCOD9512100 Si02
#       5
#    32  32  32  32  32
#     4   8  14  25  40  57  79 112 157 206 245 275
#     4  11  20  29  47  73  99 129 164 204 249 302
#     4   9  19  37  58  77 100 130 162 202 256 313
#     4  10  20  31  41  59  92 131 168 205 245 291
#     4   8  14  25  40  59  85 117 155 197 239 283
#
# _framework density 18.513069000000002
#
# number of rings (size 3 to 8) (size 9 to 14) (size 15 to 20)
#    0.000    2.800    0.000    4.200    0.000    3.600 
#    0.000    0.000    0.000    0.000    0.000    0.000 
#    0.000    7.200    0.000   17.600    0.000    0.000 
#
# Total GULP energy -222763.379683 kJ/mol
# GULP energy per Si atom -5569.084492 kJ/mol
# Density = 1.847093 g / cm^3
# Si number density = 18.513069 Si / 1000 Ang^3
#
#
#
# Elastic Constant Matrix: (Units=GPa)
#
#
# Indices 1 2 3 4 5 6 
#
# 1 126.3574 20.2189 29.1962 0.0000 0.0000 0.0000
# 2 20.2189 23.8308 5.9890 0.0000 0.0000 0.0000
# 3 29.1962 5.9890 43.6168 0.0000 0.0000 0.0000
# 4 0.0000 0.0000 0.0000 -7.1033 0.0000 0.0000
# 5 0.0000 0.0000 0.0000 0.0000 58.2411 0.0000
# 6 0.0000 0.0000 0.0000 0.0000 0.0000 22.3794
#
#
#
# Elastic Compliance Matrix: (Units=1/GPa)
#
#
# Indices 1 2 3 4 5 6 
#
# 1 0.010483 -0.007385 -0.006003 0.000000 0.000000 0.000000
# 2 -0.007385 0.048665 -0.001739 0.000000 0.000000 0.000000
# 3 -0.006003 -0.001739 0.027184 0.000000 0.000000 0.000000
# 4 0.000000 0.000000 0.000000 -0.140780 0.000000 0.000000
# 5 0.000000 0.000000 0.000000 0.000000 0.017170 0.000000
# 6 0.000000 0.000000 0.000000 0.000000 0.000000 0.044684
#
#
# Mechanical properties :
#
#
# Convention : Reuss Voigt Hill
#
# Bulk Modulus (GPa) = 17.83218 33.84593 25.83905
# Shear Modulus (GPa) = 88.72736 23.93017 56.32876
#
# Velocity S-wave (km/s) = 6.93043 3.59919 5.52201
# Velocity P-wave (km/s) = 8.58454 5.96608 7.39217
#
# Compressibility (1/GPa) = 0.05607839
#
# Stress axis : x y z
#
# Youngs Moduli (GPa) = 95.39374 20.54845 36.78651
#
# Poissons Ratio (x) = 0.15176 0.22083
# Poissons Ratio (y) = 0.70452 0.06396
# Poissons Ratio (z) = 0.57264 0.03572
#
# Static dielectric constant tensor:
#      x y z
#    x 1.686050 0.000000 0.000000 
#    y 0.000000 1.660140 0.000000 
#    z 0.000000 0.000000 1.669210 
# 
# From -- ./inp_files/23147.got.cif
#   From: 2010.05.17/outbox.cif.g08.bks.cpg/sg69_12_cif.got.tgz:23147.got - 2010.06.03 19:29:58.
