data_PCOD9512087
_publ_section_title
;
Structure prediction by ZEFSAII (Michael W. Deem and Ramdas Pophale) SiO2 
 PCOD9512087
Probable space group: F M M M
;
_chemical_formula_sum "Si O2"
_cell_formula_units_Z 152
_cell_length_a 20.042753
_cell_length_b 14.558405
_cell_length_c 26.643514
_cell_angle_alpha 90.000000
_cell_angle_beta 90.000000
_cell_angle_gamma 90.000000
_cell_volume 7774.324684
_symmetry_space_group_name_H-M "F M M M"
_symmetry_group_IT_number 69
_symmetry_cell_setting 'orthorhombic'
loop_
_space_group_symop_operation_xyz
x,y,z
-x,-y,z
x,-y,-z
-x,y,-z
-x,-y,-z
x,y,-z
-x,y,z
x,-y,z
x,1/2+y,1/2+z
-x,1/2-y,1/2+z
x,1/2-y,1/2-z
-x,1/2+y,1/2-z
-x,1/2-y,1/2-z
x,1/2+y,1/2-z
-x,1/2+y,1/2+z
x,1/2-y,1/2+z
1/2+x,y,1/2+z
1/2-x,-y,1/2+z
1/2+x,-y,1/2-z
1/2-x,y,1/2-z
1/2-x,-y,1/2-z
1/2+x,y,1/2-z
1/2-x,y,1/2+z
1/2+x,-y,1/2+z
1/2+x,1/2+y,z
1/2-x,1/2-y,z
1/2+x,1/2-y,-z
1/2-x,1/2+y,-z
1/2-x,1/2-y,-z
1/2+x,1/2+y,-z
1/2-x,1/2+y,z
1/2+x,1/2-y,z
loop_
_atom_site_type_symbol
_atom_site_label
_atom_site_fract_x
_atom_site_fract_y
_atom_site_fract_z
Si Si1 0.879023 0.000000 0.941143
Si Si2 0.225892 0.500000 0.912062
Si Si3 0.676266 0.708587 0.805063
Si Si4 0.283819 0.000000 0.303740
Si Si5 0.921216 0.306458 0.394873
Si Si6 0.888687 0.628592 0.056930
Si Si7 0.000000 0.500000 0.902591
O O1 0.904646 0.090634 0.912589
O O2 0.798919 0.000000 0.935725
O O3 0.898142 0.000000 0.000000
O O4 0.235513 0.500000 0.852030
O O5 0.183459 0.588100 0.929562
O O6 0.661160 0.750000 0.750000
O O7 0.750000 0.750000 0.818133
O O8 0.679056 0.597609 0.804815
O O9 0.620792 0.727548 0.846647
O O10 0.250000 0.000000 0.250000
O O11 0.896981 0.236493 0.437597
O O12 0.000000 0.299183 0.386502
O O13 0.941593 0.579172 0.092796
O O14 0.905735 0.601523 0.000000
#
# Coordination Sequence:
#
# PCOD9512087 Si02
#       7
#    16  16  32  16  32  32   8
#     4  12  26  44  66  95 135 182 232 272 326 400
#     4  11  23  42  67  98 134 165 218 288 338 382
#     4  11  23  42  70  98 129 168 221 276 338 400
#     4  12  21  41  68  97 123 165 214 271 332 399
#     4  12  26  43  66  97 136 181 221 272 328 398
#     4  11  22  38  64  95 132 173 220 272 330 387
#     4  10  19  38  60  88 128 174 214 260 322 386
#
# _framework density 19.551537
#
# number of rings (size 3 to 8) (size 9 to 14) (size 15 to 20)
#    0.000    0.632    5.263    4.737    0.000    2.105 
#    0.000    2.105    0.000    0.000    0.000    0.000 
#    0.000    0.000    0.000    0.000    0.000    0.000 
#
# Total GULP energy -211651.704625 kJ/mol
# GULP energy per Si atom -5569.781701 kJ/mol
# Density = 1.950704 g / cm^3
# Si number density = 19.551537 Si / 1000 Ang^3
#
#
#
# Elastic Constant Matrix: (Units=GPa)
#
#
# Indices 1 2 3 4 5 6 
#
# 1 111.1375 34.5493 49.0507 0.0000 0.0000 0.0000
# 2 34.5493 149.8340 23.1888 0.0000 0.0000 0.0000
# 3 49.0507 23.1888 96.3113 0.0000 0.0000 0.0000
# 4 0.0000 0.0000 0.0000 5.4824 0.0000 0.0000
# 5 0.0000 0.0000 0.0000 0.0000 2.9050 0.0000
# 6 0.0000 0.0000 0.0000 0.0000 0.0000 4.0729
#
#
#
# Elastic Compliance Matrix: (Units=1/GPa)
#
#
# Indices 1 2 3 4 5 6 
#
# 1 0.012111 -0.001909 -0.005708 0.000000 0.000000 0.000000
# 2 -0.001909 0.007233 -0.000769 0.000000 0.000000 0.000000
# 3 -0.005708 -0.000769 0.013475 0.000000 0.000000 0.000000
# 4 0.000000 0.000000 0.000000 0.182401 0.000000 0.000000
# 5 0.000000 0.000000 0.000000 0.000000 0.344235 0.000000
# 6 0.000000 0.000000 0.000000 0.000000 0.000000 0.245523
#
#
# Mechanical properties :
#
#
# Convention : Reuss Voigt Hill
#
# Bulk Modulus (GPa) = 62.32019 63.42894 62.87456
# Shear Modulus (GPa) = 6.04522 19.19167 12.61845
#
# Velocity S-wave (km/s) = 1.76030 3.13644 2.54322
# Velocity P-wave (km/s) = 6.00629 6.75490 6.39157
#
# Compressibility (1/GPa) = 0.01604616
#
# Stress axis : x y z
#
# Youngs Moduli (GPa) = 82.57174 138.24917 74.20943
#
# Poissons Ratio (x) = 0.26393 0.42360
# Poissons Ratio (y) = 0.15764 0.05709
# Poissons Ratio (z) = 0.47134 0.10635
#
# Static dielectric constant tensor:
#      x y z
#    x 1.680680 0.000000 0.000000 
#    y 0.000000 1.631410 0.000000 
#    z 0.000000 0.000000 1.728430 
# 
# From -- ./inp_files/42573.got.cif
#   From: 2010.05.17/outbox.cif.g08.bks.cpg/sg69_22_cif.got.tgz:42573.got - 2010.06.03 19:29:58.
