data_PCOD9512250
_publ_section_title
;
Structure prediction by ZEFSAII (Michael W. Deem and Ramdas Pophale) SiO2 
 PCOD9512250
Probable space group: F M M M
;
_chemical_formula_sum "Si O2"
_cell_formula_units_Z 200
_cell_length_a 16.799458
_cell_length_b 23.219293
_cell_length_c 27.528206
_cell_angle_alpha 90.000000
_cell_angle_beta 90.000000
_cell_angle_gamma 90.000000
_cell_volume 10737.969640
_symmetry_space_group_name_H-M "F M M M"
_symmetry_group_IT_number 69
_symmetry_cell_setting 'orthorhombic'
loop_
_space_group_symop_operation_xyz
x,y,z
-x,-y,z
x,-y,-z
-x,y,-z
-x,-y,-z
x,y,-z
-x,y,z
x,-y,z
x,1/2+y,1/2+z
-x,1/2-y,1/2+z
x,1/2-y,1/2-z
-x,1/2+y,1/2-z
-x,1/2-y,1/2-z
x,1/2+y,1/2-z
-x,1/2+y,1/2+z
x,1/2-y,1/2+z
1/2+x,y,1/2+z
1/2-x,-y,1/2+z
1/2+x,-y,1/2-z
1/2-x,y,1/2-z
1/2-x,-y,1/2-z
1/2+x,y,1/2-z
1/2-x,y,1/2+z
1/2+x,-y,1/2+z
1/2+x,1/2+y,z
1/2-x,1/2-y,z
1/2+x,1/2-y,-z
1/2-x,1/2+y,-z
1/2-x,1/2-y,-z
1/2+x,1/2+y,-z
1/2-x,1/2+y,z
1/2+x,1/2-y,z
loop_
_atom_site_type_symbol
_atom_site_label
_atom_site_fract_x
_atom_site_fract_y
_atom_site_fract_z
Si Si1 0.367175 0.431708 0.076853
Si Si2 0.679143 0.432038 0.555517
Si Si3 0.171021 0.632412 0.672139
Si Si4 0.406376 0.251069 0.192598
Si Si5 0.907786 0.065700 0.256269
Si Si6 0.358180 0.127907 0.151751
Si Si7 0.000000 0.603153 0.500000
O O1 0.384660 0.500000 0.075536
O O2 0.275171 0.424342 0.060051
O O3 0.370190 0.406506 0.130981
O O4 0.429936 0.401320 0.042080
O O5 0.655799 0.419539 0.500000
O O6 0.664097 0.500000 0.565420
O O7 0.637660 0.392553 0.596069
O O8 0.143285 0.698091 0.668182
O O9 0.144333 0.608384 0.724104
O O10 0.264863 0.627892 0.665027
O O11 0.500000 0.265027 0.190508
O O12 0.384430 0.250000 0.250000
O O13 0.391564 0.190338 0.166347
O O14 0.899029 0.082354 0.312390
O O15 0.000000 0.072351 0.242120
O O16 0.882878 0.000000 0.248002
#
# Coordination Sequence:
#
# PCOD9512250 Si02
#       7
#    32  32  32  32  32  32   8
#     4  10  20  33  54  85 119 154 190 230 283 347
#     4   9  18  36  59  86 117 150 192 242 293 342
#     4  11  23  37  59  86 116 151 193 242 286 348
#     4  11  23  40  61  82 112 155 199 240 293 353
#     4  11  23  37  54  84 122 154 184 231 293 351
#     4  11  22  37  62  86 113 152 198 244 289 346
#     4  12  21  32  56  84 120 164 194 226 279 360
#
# _framework density 18.625495000000001
#
# number of rings (size 3 to 8) (size 9 to 14) (size 15 to 20)
#    0.000    1.440    2.400    3.600    2.240    3.200 
#    0.000    0.000    1.760    3.840    0.000    5.600 
#    0.000    0.000    0.000    0.000    0.000    0.000 
#
# Total GULP energy -278765.492278 kJ/mol
# GULP energy per Si atom -5575.309846 kJ/mol
# Density = 1.858310 g / cm^3
# Si number density = 18.625495 Si / 1000 Ang^3
#
#
#
# Elastic Constant Matrix: (Units=GPa)
#
#
# Indices 1 2 3 4 5 6 
#
# 1 19.1310 -0.6580 1.4627 0.0000 0.0000 0.0000
# 2 -0.6580 55.3546 16.3731 0.0000 0.0000 0.0000
# 3 1.4627 16.3731 102.9603 0.0000 0.0000 0.0000
# 4 0.0000 0.0000 0.0000 17.3936 0.0000 0.0000
# 5 0.0000 0.0000 0.0000 0.0000 31.7740 0.0000
# 6 0.0000 0.0000 0.0000 0.0000 0.0000 16.0509
#
#
#
# Elastic Compliance Matrix: (Units=1/GPa)
#
#
# Indices 1 2 3 4 5 6 
#
# 1 0.052369 0.000884 -0.000885 0.000000 0.000000 0.000000
# 2 0.000884 0.018972 -0.003030 0.000000 0.000000 0.000000
# 3 -0.000885 -0.003030 0.010207 0.000000 0.000000 0.000000
# 4 0.000000 0.000000 0.000000 0.057493 0.000000 0.000000
# 5 0.000000 0.000000 0.000000 0.000000 0.031472 0.000000
# 6 0.000000 0.000000 0.000000 0.000000 0.000000 0.062302
#
#
# Mechanical properties :
#
#
# Convention : Reuss Voigt Hill
#
# Bulk Modulus (GPa) = 13.24716 23.53352 18.39034
# Shear Modulus (GPa) = 18.93673 23.72823 21.33248
#
# Velocity S-wave (km/s) = 3.19205 3.57314 3.38796
# Velocity P-wave (km/s) = 4.55120 5.44845 5.01991
#
# Compressibility (1/GPa) = 0.07548787
#
# Stress axis : x y z
#
# Youngs Moduli (GPa) = 19.09523 52.70937 97.97373
#
# Poissons Ratio (x) = -0.04660 0.08667
# Poissons Ratio (y) = -0.01688 0.29682
# Poissons Ratio (z) = 0.01689 0.15969
#
# Static dielectric constant tensor:
#      x y z
#    x 1.634290 0.000000 0.000000 
#    y 0.000000 1.631030 0.000000 
#    z 0.000000 0.000000 1.661260 
# 
# From -- ./inp_files/42012.got.cif
#   From: 2010.05.17/outbox.cif.g08.bks.cpg/sg69_22_cif.got.tgz:42012.got - 2010.06.03 19:29:58.
