data_PCOD9512021
_publ_section_title
;
Structure prediction by ZEFSAII (Michael W. Deem and Ramdas Pophale) SiO2 
 PCOD9512021
Probable space group: F M M M
;
_chemical_formula_sum "Si O2"
_cell_formula_units_Z 168
_cell_length_a 14.433592
_cell_length_b 25.142895
_cell_length_c 22.301511
_cell_angle_alpha 90.000000
_cell_angle_beta 90.000000
_cell_angle_gamma 90.000000
_cell_volume 8093.269371
_symmetry_space_group_name_H-M "F M M M"
_symmetry_group_IT_number 69
_symmetry_cell_setting 'orthorhombic'
loop_
_space_group_symop_operation_xyz
x,y,z
-x,-y,z
x,-y,-z
-x,y,-z
-x,-y,-z
x,y,-z
-x,y,z
x,-y,z
x,1/2+y,1/2+z
-x,1/2-y,1/2+z
x,1/2-y,1/2-z
-x,1/2+y,1/2-z
-x,1/2-y,1/2-z
x,1/2+y,1/2-z
-x,1/2+y,1/2+z
x,1/2-y,1/2+z
1/2+x,y,1/2+z
1/2-x,-y,1/2+z
1/2+x,-y,1/2-z
1/2-x,y,1/2-z
1/2-x,-y,1/2-z
1/2+x,y,1/2-z
1/2-x,y,1/2+z
1/2+x,-y,1/2+z
1/2+x,1/2+y,z
1/2-x,1/2-y,z
1/2+x,1/2-y,-z
1/2-x,1/2+y,-z
1/2-x,1/2-y,-z
1/2+x,1/2+y,-z
1/2-x,1/2+y,z
1/2+x,1/2-y,z
loop_
_atom_site_type_symbol
_atom_site_label
_atom_site_fract_x
_atom_site_fract_y
_atom_site_fract_z
Si Si1 0.607805 0.387153 0.341650
Si Si2 0.156849 0.286172 0.564627
Si Si3 0.610260 0.437538 0.212818
Si Si4 0.287569 0.405055 0.094467
Si Si5 0.820404 0.000000 0.000000
Si Si6 0.359691 0.236952 0.183761
O O1 0.500000 0.397168 0.355101
O O2 0.631406 0.415124 0.278538
O O3 0.677583 0.406711 0.392735
O O4 0.623864 0.324536 0.331114
O O5 0.110375 0.276893 0.500000
O O6 0.250000 0.250000 0.564019
O O7 0.185744 0.347591 0.568971
O O8 0.106291 0.270100 0.626167
O O9 0.500000 0.430736 0.203285
O O10 0.631764 0.500000 0.211259
O O11 0.664540 0.409544 0.159499
O O12 0.318512 0.453024 0.052251
O O13 0.396934 0.250000 0.250000
O O14 0.250000 0.250000 0.187119
#
# Coordination Sequence:
#
# PCOD9512021 Si02
#       6
#    32  32  32  32   8  32
#     4  11  24  40  64  97 134 176 219 272 328 397
#     4  10  19  35  64  89 121 170 213 265 318 388
#     4  10  23  42  67  98 128 166 221 281 342 396
#     4  12  22  44  66  96 134 167 223 267 338 391
#     4  12  28  40  70 104 120 182 222 274 334 400
#     4  10  19  35  61  95 122 166 217 265 335 383
#
# _framework density 20.757988999999998
#
# number of rings (size 3 to 8) (size 9 to 14) (size 15 to 20)
#    0.000    1.333    5.714    1.714    4.000    1.143 
#    0.000    2.857    0.000    1.143    0.000    0.000 
#    0.000    0.000    0.000    0.000    0.000    0.000 
#
# Total GULP energy -234099.936857 kJ/mol
# GULP energy per Si atom -5573.808020 kJ/mol
# Density = 2.071074 g / cm^3
# Si number density = 20.757989 Si / 1000 Ang^3
#
#
#
# Elastic Constant Matrix: (Units=GPa)
#
#
# Indices 1 2 3 4 5 6 
#
# 1 49.6291 1.9950 18.4981 0.0000 0.0000 0.0000
# 2 1.9950 108.3206 15.7791 0.0000 0.0000 0.0000
# 3 18.4981 15.7791 131.3606 0.0000 0.0000 0.0000
# 4 0.0000 0.0000 0.0000 133.2651 0.0000 0.0000
# 5 0.0000 0.0000 0.0000 0.0000 -8.5068 0.0000
# 6 0.0000 0.0000 0.0000 0.0000 0.0000 11.2057
#
#
#
# Elastic Compliance Matrix: (Units=1/GPa)
#
#
# Indices 1 2 3 4 5 6 
#
# 1 0.021266 0.000045 -0.003000 0.000000 0.000000 0.000000
# 2 0.000045 0.009396 -0.001135 0.000000 0.000000 0.000000
# 3 -0.003000 -0.001135 0.008171 0.000000 0.000000 0.000000
# 4 0.000000 0.000000 0.000000 0.007504 0.000000 0.000000
# 5 0.000000 0.000000 0.000000 0.000000 -0.117553 0.000000
# 6 0.000000 0.000000 0.000000 0.000000 0.000000 0.089240
#
#
# Mechanical properties :
#
#
# Convention : Reuss Voigt Hill
#
# Bulk Modulus (GPa) = 32.62209 40.20605 36.41407
# Shear Modulus (GPa) = 137.27635 44.06200 90.66918
#
# Velocity S-wave (km/s) = 8.14097 4.61222 6.61619
# Velocity P-wave (km/s) = 10.20376 6.91191 8.71468
#
# Compressibility (1/GPa) = 0.03065407
#
# Stress axis : x y z
#
# Youngs Moduli (GPa) = 47.02373 106.42409 122.37732
#
# Poissons Ratio (x) = -0.00483 0.36714
# Poissons Ratio (y) = -0.00213 0.13891
# Poissons Ratio (z) = 0.14108 0.12080
#
# Static dielectric constant tensor:
#      x y z
#    x 1.752510 0.000000 0.000000 
#    y 0.000000 1.698380 0.000000 
#    z 0.000000 0.000000 1.769110 
# 
# From -- ./inp_files/35881.got.cif
#   From: 2010.05.17/outbox.cif.g08.bks.cpg/sg69_18_cif.got.tgz:35881.got - 2010.06.03 19:29:58.
