data_PCOD9512520
_publ_section_title
;
Structure prediction by ZEFSAII (Michael W. Deem and Ramdas Pophale) SiO2 
 PCOD9512520
Probable space group: F M M M
;
_chemical_formula_sum "Si O2"
_cell_formula_units_Z 192
_cell_length_a 16.991242
_cell_length_b 24.333142
_cell_length_c 24.406958
_cell_angle_alpha 90.000000
_cell_angle_beta 90.000000
_cell_angle_gamma 90.000000
_cell_volume 10091.064213
_symmetry_space_group_name_H-M "F M M M"
_symmetry_group_IT_number 69
_symmetry_cell_setting 'orthorhombic'
loop_
_space_group_symop_operation_xyz
x,y,z
-x,-y,z
x,-y,-z
-x,y,-z
-x,-y,-z
x,y,-z
-x,y,z
x,-y,z
x,1/2+y,1/2+z
-x,1/2-y,1/2+z
x,1/2-y,1/2-z
-x,1/2+y,1/2-z
-x,1/2-y,1/2-z
x,1/2+y,1/2-z
-x,1/2+y,1/2+z
x,1/2-y,1/2+z
1/2+x,y,1/2+z
1/2-x,-y,1/2+z
1/2+x,-y,1/2-z
1/2-x,y,1/2-z
1/2-x,-y,1/2-z
1/2+x,y,1/2-z
1/2-x,y,1/2+z
1/2+x,-y,1/2+z
1/2+x,1/2+y,z
1/2-x,1/2-y,z
1/2+x,1/2-y,-z
1/2-x,1/2+y,-z
1/2-x,1/2-y,-z
1/2+x,1/2+y,-z
1/2-x,1/2+y,z
1/2+x,1/2-y,z
loop_
_atom_site_type_symbol
_atom_site_label
_atom_site_fract_x
_atom_site_fract_y
_atom_site_fract_z
Si Si1 0.750000 0.750000 0.620503
Si Si2 0.908211 0.565878 0.244769
Si Si3 0.655226 0.433599 0.370380
Si Si4 0.088897 0.744859 0.315517
Si Si5 0.283675 0.134493 0.564700
Si Si6 0.911968 0.618201 0.353671
Si Si7 0.500000 0.933517 0.937905
O O1 0.829391 0.764251 0.655786
O O2 0.731369 0.802874 0.583424
O O3 0.910327 0.500000 0.243043
O O4 0.858740 0.584490 0.192290
O O5 0.874828 0.585073 0.302922
O O6 0.000000 0.585022 0.239888
O O7 0.664263 0.500000 0.371328
O O8 0.724329 0.403843 0.401811
O O9 0.576635 0.418585 0.403835
O O10 0.096401 0.750000 0.250000
O O11 0.086069 0.680841 0.332487
O O12 0.000000 0.767560 0.330135
O O13 0.276210 0.128149 0.500000
O O14 0.367656 0.117590 0.589272
O O15 0.000000 0.596803 0.360162
O O16 0.500000 0.000000 0.940913
O O17 0.500000 0.912115 0.000000
#
# Coordination Sequence:
#
# PCOD9512520 Si02
#       7
#    16  32  32  32  32  32  16
#     4  10  22  40  58  80 114 153 197 242 294 346
#     4   9  17  33  57  85 118 149 180 226 286 348
#     4  10  20  35  57  85 116 153 190 230 286 345
#     4   9  18  34  57  84 113 145 182 232 290 347
#     4  11  24  40  58  80 112 153 196 245 289 337
#     4   9  20  37  58  82 107 143 188 232 286 344
#     4   9  16  30  52  78 114 155 189 221 268 337
#
# _framework density 19.026734999999999
#
# number of rings (size 3 to 8) (size 9 to 14) (size 15 to 20)
#    0.000    2.417    0.833    1.000    2.333    2.667 
#    1.500    1.667    0.000    1.000    0.000    3.500 
#    0.000    0.000    0.000    0.000    0.000    0.000 
#
# Total GULP energy -267559.749118 kJ/mol
# GULP energy per Si atom -5574.161440 kJ/mol
# Density = 1.898343 g / cm^3
# Si number density = 19.026735 Si / 1000 Ang^3
#
#
#
# Elastic Constant Matrix: (Units=GPa)
#
#
# Indices 1 2 3 4 5 6 
#
# 1 83.0674 15.5928 50.4541 0.0000 0.0000 0.0000
# 2 15.5928 20.7203 25.3872 0.0000 0.0000 0.0000
# 3 50.4541 25.3872 110.5656 0.0000 0.0000 0.0000
# 4 0.0000 0.0000 0.0000 23.9318 0.0000 0.0000
# 5 0.0000 0.0000 0.0000 0.0000 0.2270 0.0000
# 6 0.0000 0.0000 0.0000 0.0000 0.0000 17.9452
#
#
#
# Elastic Compliance Matrix: (Units=1/GPa)
#
#
# Indices 1 2 3 4 5 6 
#
# 1 0.016959 -0.004564 -0.006691 0.000000 0.000000 0.000000
# 2 -0.004564 0.068383 -0.013619 0.000000 0.000000 0.000000
# 3 -0.006691 -0.013619 0.015225 0.000000 0.000000 0.000000
# 4 0.000000 0.000000 0.000000 0.041785 0.000000 0.000000
# 5 0.000000 0.000000 0.000000 0.000000 4.405816 0.000000
# 6 0.000000 0.000000 0.000000 0.000000 0.000000 0.055725
#
#
# Mechanical properties :
#
#
# Convention : Reuss Voigt Hill
#
# Bulk Modulus (GPa) = 19.67788 44.13570 31.90679
# Shear Modulus (GPa) = 1.07053 16.61541 8.84297
#
# Velocity S-wave (km/s) = 0.75091 2.95831 2.15818
# Velocity P-wave (km/s) = 3.33414 5.90896 4.79752
#
# Compressibility (1/GPa) = 0.05081849
#
# Stress axis : x y z
#
# Youngs Moduli (GPa) = 58.96514 14.62362 65.68308
#
# Poissons Ratio (x) = 0.06675 0.43948
# Poissons Ratio (y) = 0.26915 0.89451
# Poissons Ratio (z) = 0.39453 0.19915
#
# Static dielectric constant tensor:
#      x y z
#    x 2.314330 0.000000 0.000000 
#    y 0.000000 1.672100 0.000000 
#    z 0.000000 0.000000 1.631720 
# 
# From -- ./inp_files/36081.got.cif
#   From: 2010.05.17/outbox.cif.g08.bks.cpg/sg69_19_cif.got.tgz:36081.got - 2010.06.03 19:29:58.
