data_PCOD9512748
_publ_section_title
;
Structure prediction by ZEFSAII (Michael W. Deem and Ramdas Pophale) SiO2 
 PCOD9512748
Probable space group: F M M M
;
_chemical_formula_sum "Si O2"
_cell_formula_units_Z 144
_cell_length_a 18.012043
_cell_length_b 28.473743
_cell_length_c 14.160960
_cell_angle_alpha 90.000000
_cell_angle_beta 90.000000
_cell_angle_gamma 90.000000
_cell_volume 7262.735567
_symmetry_space_group_name_H-M "F M M M"
_symmetry_group_IT_number 69
_symmetry_cell_setting 'orthorhombic'
loop_
_space_group_symop_operation_xyz
x,y,z
-x,-y,z
x,-y,-z
-x,y,-z
-x,-y,-z
x,y,-z
-x,y,z
x,-y,z
x,1/2+y,1/2+z
-x,1/2-y,1/2+z
x,1/2-y,1/2-z
-x,1/2+y,1/2-z
-x,1/2-y,1/2-z
x,1/2+y,1/2-z
-x,1/2+y,1/2+z
x,1/2-y,1/2+z
1/2+x,y,1/2+z
1/2-x,-y,1/2+z
1/2+x,-y,1/2-z
1/2-x,y,1/2-z
1/2-x,-y,1/2-z
1/2+x,y,1/2-z
1/2-x,y,1/2+z
1/2+x,-y,1/2+z
1/2+x,1/2+y,z
1/2-x,1/2-y,z
1/2+x,1/2-y,-z
1/2-x,1/2+y,-z
1/2-x,1/2-y,-z
1/2+x,1/2+y,-z
1/2-x,1/2+y,z
1/2+x,1/2-y,z
loop_
_atom_site_type_symbol
_atom_site_label
_atom_site_fract_x
_atom_site_fract_y
_atom_site_fract_z
Si Si1 0.585844 0.875581 0.386497
Si Si2 0.160514 0.695949 0.250423
Si Si3 0.000000 0.446737 0.114938
Si Si4 0.288170 0.446368 0.114863
Si Si5 0.856259 0.386729 0.113392
O O1 0.588147 0.871688 0.500000
O O2 0.500000 0.879223 0.357507
O O3 0.625872 0.831182 0.339340
O O4 0.635557 0.920545 0.359199
O O5 0.136166 0.750000 0.250000
O O6 0.250000 0.695357 0.250000
O O7 0.137821 0.663832 0.161672
O O8 0.073480 0.418318 0.140739
O O9 0.000000 0.500000 0.150786
O O10 0.000000 0.449184 0.000000
O O11 0.283321 0.500000 0.147687
O O12 0.218440 0.414181 0.143694
O O13 0.285477 0.447740 0.000000
O O14 0.854527 0.382119 0.000000
#
# Coordination Sequence:
#
# PCOD9512748 Si02
#       5
#    32  32  16  32  32
#     4  10  22  41  62  86 122 161 199 246 294 353
#     4  11  24  41  63  87 115 154 201 256 307 356
#     4   9  18  34  59  90 123 159 194 235 298 366
#     4   9  17  33  60  88 116 156 199 241 295 356
#     4  10  20  37  60  88 123 157 196 248 303 363
#
# _framework density 19.82724
#
# number of rings (size 3 to 8) (size 9 to 14) (size 15 to 20)
#    0.000    2.111    2.222    0.667    1.556    4.444 
#    0.000    7.778    0.000    0.000    0.000    0.000 
#    0.000    0.000    0.000    0.000    0.000    0.000 
#
# Total GULP energy -201148.242249 kJ/mol
# GULP energy per Si atom -5587.451174 kJ/mol
# Density = 1.978211 g / cm^3
# Si number density = 19.827240 Si / 1000 Ang^3
#
#
#
# Elastic Constant Matrix: (Units=GPa)
#
#
# Indices 1 2 3 4 5 6 
#
# 1 140.1464 71.9773 37.4615 0.0000 0.0000 0.0000
# 2 71.9773 200.7617 46.2080 0.0000 0.0000 0.0000
# 3 37.4615 46.2080 71.9195 0.0000 0.0000 0.0000
# 4 0.0000 0.0000 0.0000 29.7146 0.0000 0.0000
# 5 0.0000 0.0000 0.0000 0.0000 23.3602 0.0000
# 6 0.0000 0.0000 0.0000 0.0000 0.0000 16.9296
#
#
#
# Elastic Compliance Matrix: (Units=1/GPa)
#
#
# Indices 1 2 3 4 5 6 
#
# 1 0.009327 -0.002612 -0.003180 0.000000 0.000000 0.000000
# 2 -0.002612 0.006577 -0.002865 0.000000 0.000000 0.000000
# 3 -0.003180 -0.002865 0.017402 0.000000 0.000000 0.000000
# 4 0.000000 0.000000 0.000000 0.033653 0.000000 0.000000
# 5 0.000000 0.000000 0.000000 0.000000 0.042808 0.000000
# 6 0.000000 0.000000 0.000000 0.000000 0.000000 0.059068
#
#
# Mechanical properties :
#
#
# Convention : Reuss Voigt Hill
#
# Bulk Modulus (GPa) = 62.53413 80.45791 71.49602
# Shear Modulus (GPa) = 26.11243 31.14627 28.62935
#
# Velocity S-wave (km/s) = 3.63298 3.96774 3.80404
# Velocity P-wave (km/s) = 7.01470 7.85227 7.44527
#
# Compressibility (1/GPa) = 0.01599127
#
# Stress axis : x y z
#
# Youngs Moduli (GPa) = 107.21686 152.04692 57.46572
#
# Poissons Ratio (x) = 0.39714 0.18274
# Poissons Ratio (y) = 0.28005 0.16465
# Poissons Ratio (z) = 0.34095 0.43563
#
# Static dielectric constant tensor:
#      x y z
#    x 1.680230 0.000000 0.000000 
#    y 0.000000 1.656240 0.000000 
#    z 0.000000 0.000000 1.749600 
# 
# From -- ./inp_files/15547.got.cif
#   From: 2010.05.17/outbox.cif.g08.bks.cpg/sg69_8_cif.got.tgz:15547.got - 2010.06.03 19:29:58.
