data_PCOD9512687
_publ_section_title
;
Structure prediction by ZEFSAII (Michael W. Deem and Ramdas Pophale) SiO2 
 PCOD9512687
Probable space group: F M M M
;
_chemical_formula_sum "Si O2"
_cell_formula_units_Z 112
_cell_length_a 14.702432
_cell_length_b 20.255285
_cell_length_c 18.335491
_cell_angle_alpha 90.000000
_cell_angle_beta 90.000000
_cell_angle_gamma 90.000000
_cell_volume 5460.344980
_symmetry_space_group_name_H-M "F M M M"
_symmetry_group_IT_number 69
_symmetry_cell_setting 'orthorhombic'
loop_
_space_group_symop_operation_xyz
x,y,z
-x,-y,z
x,-y,-z
-x,y,-z
-x,-y,-z
x,y,-z
-x,y,z
x,-y,z
x,1/2+y,1/2+z
-x,1/2-y,1/2+z
x,1/2-y,1/2-z
-x,1/2+y,1/2-z
-x,1/2-y,1/2-z
x,1/2+y,1/2-z
-x,1/2+y,1/2+z
x,1/2-y,1/2+z
1/2+x,y,1/2+z
1/2-x,-y,1/2+z
1/2+x,-y,1/2-z
1/2-x,y,1/2-z
1/2-x,-y,1/2-z
1/2+x,y,1/2-z
1/2-x,y,1/2+z
1/2+x,-y,1/2+z
1/2+x,1/2+y,z
1/2-x,1/2-y,z
1/2+x,1/2-y,-z
1/2-x,1/2+y,-z
1/2-x,1/2-y,-z
1/2+x,1/2+y,-z
1/2-x,1/2+y,z
1/2+x,1/2-y,z
loop_
_atom_site_type_symbol
_atom_site_label
_atom_site_fract_x
_atom_site_fract_y
_atom_site_fract_z
Si Si1 0.720948 0.371241 0.413891
Si Si2 0.398084 0.000000 0.087645
Si Si3 0.897297 0.077949 0.831562
Si Si4 0.352394 0.316939 0.719294
O O1 0.723198 0.358952 0.500000
O O2 0.661519 0.436185 0.396304
O O3 0.821335 0.387764 0.382746
O O4 0.665823 0.317026 0.367012
O O5 0.500000 0.000000 0.119397
O O6 0.407526 0.000000 0.000000
O O7 0.895729 0.118386 0.755548
O O8 0.000000 0.082392 0.861534
O O9 0.875873 0.000000 0.821659
O O10 0.395058 0.250000 0.750000
O O11 0.250000 0.319312 0.750000
#
# Coordination Sequence:
#
# PCOD9512687 Si02
#       4
#    32  16  32  32
#     4  10  20  36  61  88 118 154 194 247 301 351
#     4   9  18  32  52  85 121 149 181 232 298 352
#     4  10  21  36  57  86 121 162 202 241 290 355
#     4   9  20  38  57  81 116 157 203 250 298 348
#
# _framework density 20.511524999999999
#
# number of rings (size 3 to 8) (size 9 to 14) (size 15 to 20)
#    0.000    2.429    1.429    0.000    2.000    4.000 
#    0.000   12.857    0.000    0.000    0.000    0.000 
#    0.000    0.000    0.000    0.000    0.000    0.000 
#
# Total GULP energy -155973.637235 kJ/mol
# GULP energy per Si atom -5570.487044 kJ/mol
# Density = 2.046484 g / cm^3
# Si number density = 20.511525 Si / 1000 Ang^3
#
#
#
# Elastic Constant Matrix: (Units=GPa)
#
#
# Indices 1 2 3 4 5 6 
#
# 1 113.9147 16.6988 35.8021 0.0000 0.0000 0.0000
# 2 16.6988 76.2411 53.0555 0.0000 0.0000 0.0000
# 3 35.8021 53.0555 152.7053 0.0000 0.0000 0.0000
# 4 0.0000 0.0000 0.0000 23.5594 0.0000 0.0000
# 5 0.0000 0.0000 0.0000 0.0000 8.1381 0.0000
# 6 0.0000 0.0000 0.0000 0.0000 0.0000 -3.7283
#
#
#
# Elastic Compliance Matrix: (Units=1/GPa)
#
#
# Indices 1 2 3 4 5 6 
#
# 1 0.009505 -0.000700 -0.001985 0.000000 0.000000 0.000000
# 2 -0.000700 0.017350 -0.005864 0.000000 0.000000 0.000000
# 3 -0.001985 -0.005864 0.009051 0.000000 0.000000 0.000000
# 4 0.000000 0.000000 0.000000 0.042446 0.000000 0.000000
# 5 0.000000 0.000000 0.000000 0.000000 0.122879 0.000000
# 6 0.000000 0.000000 0.000000 0.000000 0.000000 -0.268216
#
#
# Mechanical properties :
#
#
# Convention : Reuss Voigt Hill
#
# Bulk Modulus (GPa) = 53.16953 61.55267 57.36110
# Shear Modulus (GPa) = -114.63724 21.41413 -46.61155
#
# Velocity S-wave (km/s) = -7.48402 3.23461 -4.77220
# Velocity P-wave (km/s) = 6.97873 6.63508 1.52944
#
# Compressibility (1/GPa) = 0.01880777
#
# Stress axis : x y z
#
# Youngs Moduli (GPa) = 105.20688 57.63568 110.48097
#
# Poissons Ratio (x) = 0.04037 0.21932
# Poissons Ratio (y) = 0.07369 0.64785
# Poissons Ratio (z) = 0.20885 0.33797
#
# Static dielectric constant tensor:
#      x y z
#    x 1.734870 0.000000 0.000000 
#    y 0.000000 1.829110 0.000000 
#    z 0.000000 0.000000 1.753580 
# 
# From -- ./inp_files/21490.got.cif
#   From: 2010.05.17/outbox.cif.g08.bks.cpg/sg69_11_cif.got.tgz:21490.got - 2010.06.03 19:29:58.
