data_PCOD9512909
_publ_section_title
;
Structure prediction by ZEFSAII (Michael W. Deem and Ramdas Pophale) SiO2 
 PCOD9512909
Probable space group: F M M M
;
_chemical_formula_sum "Si O2"
_cell_formula_units_Z 112
_cell_length_a 29.252234
_cell_length_b 22.142425
_cell_length_c 7.401078
_cell_angle_alpha 90.000000
_cell_angle_beta 90.000000
_cell_angle_gamma 90.000000
_cell_volume 4793.792178
_symmetry_space_group_name_H-M "F M M M"
_symmetry_group_IT_number 69
_symmetry_cell_setting 'orthorhombic'
loop_
_space_group_symop_operation_xyz
x,y,z
-x,-y,z
x,-y,-z
-x,y,-z
-x,-y,-z
x,y,-z
-x,y,z
x,-y,z
x,1/2+y,1/2+z
-x,1/2-y,1/2+z
x,1/2-y,1/2-z
-x,1/2+y,1/2-z
-x,1/2-y,1/2-z
x,1/2+y,1/2-z
-x,1/2+y,1/2+z
x,1/2-y,1/2+z
1/2+x,y,1/2+z
1/2-x,-y,1/2+z
1/2+x,-y,1/2-z
1/2-x,y,1/2-z
1/2-x,-y,1/2-z
1/2+x,y,1/2-z
1/2-x,y,1/2+z
1/2+x,-y,1/2+z
1/2+x,1/2+y,z
1/2-x,1/2-y,z
1/2+x,1/2-y,-z
1/2-x,1/2+y,-z
1/2-x,1/2-y,-z
1/2+x,1/2+y,-z
1/2-x,1/2+y,z
1/2+x,1/2-y,z
loop_
_atom_site_type_symbol
_atom_site_label
_atom_site_fract_x
_atom_site_fract_y
_atom_site_fract_z
Si Si1 0.551750 0.866673 0.221256
Si Si2 0.804149 0.065845 0.716132
Si Si3 0.855979 0.683714 0.215525
Si Si4 0.555569 0.000000 0.204603
O O1 0.500000 0.853334 0.280331
O O2 0.591553 0.821927 0.279826
O O3 0.566169 0.934401 0.282316
O O4 0.550395 0.868753 0.000000
O O5 0.810862 0.064987 0.500000
O O6 0.750000 0.069455 0.750000
O O7 0.828273 0.126093 0.786767
O O8 0.820430 0.000000 0.784520
O O9 0.836626 0.750000 0.250000
O O10 0.857239 0.677425 0.000000
O O11 0.500000 0.000000 0.194620
O O12 0.574346 0.000000 0.000000
#
# Coordination Sequence:
#
# PCOD9512909 Si02
#       4
#    32  32  32  16
#     4   8  14  25  43  69 100 132 166 205 248 292
#     4   9  19  36  57  79 101 128 165 210 257 302
#     4  10  21  34  50  75 106 137 169 206 249 299
#     4   7  10  18  36  64  92 117 153 203 249 281
#
# _framework density 23.36355
#
# number of rings (size 3 to 8) (size 9 to 14) (size 15 to 20)
#    0.000    3.286    0.000    1.714    2.000    2.286 
#    0.000    2.857    0.000    0.000    0.000    0.000 
#    0.000    3.429    0.000    0.000    0.000    0.000 
#
# Total GULP energy -156211.880930 kJ/mol
# GULP energy per Si atom -5578.995747 kJ/mol
# Density = 2.331037 g / cm^3
# Si number density = 23.363550 Si / 1000 Ang^3
#
#
#
# Elastic Constant Matrix: (Units=GPa)
#
#
# Indices 1 2 3 4 5 6 
#
# 1 78.5617 82.0474 0.3266 0.0003 0.0001 0.0001
# 2 82.0474 202.2074 4.6059 0.0015 -0.0001 -0.0002
# 3 0.3266 4.6059 79.1290 0.0046 -0.0008 -0.0004
# 4 0.0003 0.0015 0.0046 3.6794 -0.0006 -0.0002
# 5 0.0001 -0.0001 -0.0008 -0.0006 -6.2772 -0.0001
# 6 0.0001 -0.0002 -0.0004 -0.0002 -0.0001 25.3293
#
#
#
# Elastic Compliance Matrix: (Units=1/GPa)
#
#
# Indices 1 2 3 4 5 6 
#
# 1 0.022104 -0.008979 0.000431 0.000001 0.000000 0.000000
# 2 -0.008979 0.008599 -0.000463 -0.000002 0.000000 0.000000
# 3 0.000431 -0.000463 0.012663 -0.000016 -0.000002 0.000000
# 4 0.000001 -0.000002 -0.000016 0.271787 -0.000024 0.000003
# 5 0.000000 0.000000 -0.000002 -0.000024 -0.159308 0.000000
# 6 0.000000 0.000000 0.000000 0.000003 0.000000 0.039480
#
#
# Mechanical properties :
#
#
# Convention : Reuss Voigt Hill
#
# Bulk Modulus (GPa) = 39.45636 59.31756 49.38696
# Shear Modulus (GPa) = 22.54329 22.74086 22.64207
#
# Velocity S-wave (km/s) = 3.10964 3.12324 3.11645
# Velocity P-wave (km/s) = 5.46057 6.20082 5.84243
#
# Compressibility (1/GPa) = 0.02534446
#
# Stress axis : x y z
#
# Youngs Moduli (GPa) = 45.24020 116.28981 78.97157
#
# Poissons Ratio (x) = 1.04414 -0.03407
# Poissons Ratio (y) = 0.40620 0.03660
# Poissons Ratio (z) = -0.01952 0.05390
#
# Static dielectric constant tensor:
#      x y z
#    x 1.859280 0.000000 0.000000 
#    y 0.000000 1.904320 0.000000 
#    z 0.000000 0.000000 1.952600 
# 
# From -- ./inp_files/5215.got.cif
#   From: 2010.05.17/outbox.cif.g08.bks.cpg/sg69_3_cif.got.tgz:5215.got - 2010.06.03 19:29:58.
