data_PCOD9512263
_publ_section_title
;
Structure prediction by ZEFSAII (Michael W. Deem and Ramdas Pophale) SiO2 
 PCOD9512263
Probable space group: F M M M
;
_chemical_formula_sum "Si O2"
_cell_formula_units_Z 128
_cell_length_a 15.888478
_cell_length_b 14.258777
_cell_length_c 26.136642
_cell_angle_alpha 90.000000
_cell_angle_beta 90.000000
_cell_angle_gamma 90.000000
_cell_volume 5921.263163
_symmetry_space_group_name_H-M "F M M M"
_symmetry_group_IT_number 69
_symmetry_cell_setting 'orthorhombic'
loop_
_space_group_symop_operation_xyz
x,y,z
-x,-y,z
x,-y,-z
-x,y,-z
-x,-y,-z
x,y,-z
-x,y,z
x,-y,z
x,1/2+y,1/2+z
-x,1/2-y,1/2+z
x,1/2-y,1/2-z
-x,1/2+y,1/2-z
-x,1/2-y,1/2-z
x,1/2+y,1/2-z
-x,1/2+y,1/2+z
x,1/2-y,1/2+z
1/2+x,y,1/2+z
1/2-x,-y,1/2+z
1/2+x,-y,1/2-z
1/2-x,y,1/2-z
1/2-x,-y,1/2-z
1/2+x,y,1/2-z
1/2-x,y,1/2+z
1/2+x,-y,1/2+z
1/2+x,1/2+y,z
1/2-x,1/2-y,z
1/2+x,1/2-y,-z
1/2-x,1/2+y,-z
1/2-x,1/2-y,-z
1/2+x,1/2+y,-z
1/2-x,1/2+y,z
1/2+x,1/2-y,z
loop_
_atom_site_type_symbol
_atom_site_label
_atom_site_fract_x
_atom_site_fract_y
_atom_site_fract_z
Si Si1 0.850756 0.856653 0.364906
Si Si2 0.666596 0.132578 0.647548
Si Si3 0.000000 0.898539 0.083935
Si Si4 0.404542 0.136236 0.247718
Si Si5 0.000000 0.824042 0.440839
O O1 0.757169 0.894342 0.374702
O O2 0.839884 0.745144 0.356229
O O3 0.882911 0.892385 0.309890
O O4 0.919230 0.862913 0.409660
O O5 0.584588 0.099704 0.617677
O O6 0.657564 0.106194 0.707146
O O7 0.000000 0.791805 0.060781
O O8 0.000000 0.000000 0.055605
O O9 0.500000 0.107933 0.260270
O O10 0.403566 0.250000 0.250000
O O11 0.000000 0.851640 0.500000
#
# Coordination Sequence:
#
# PCOD9512263 Si02
#       5
#    32  32  16  32  16
#     4   9  16  27  45  72 101 126 158 206 260 305
#     4   9  16  27  45  72  99 130 161 200 252 301
#     4  10  20  34  49  67  97 138 181 211 236 289
#     4   9  13  21  41  70 100 126 158 191 241 304
#     4  10  20  34  51  73 102 131 165 211 262 303
#
# _framework density 21.617008999999999
#
# number of rings (size 3 to 8) (size 9 to 14) (size 15 to 20)
#    0.000    2.750    2.500    0.750    0.000    3.250 
#    0.000   10.000    0.000    3.000    0.000    0.875 
#    0.000    1.000    0.000    0.000    0.000    1.250 
#
# Total GULP energy -178420.446944 kJ/mol
# GULP energy per Si atom -5575.638967 kJ/mol
# Density = 2.156781 g / cm^3
# Si number density = 21.617009 Si / 1000 Ang^3
#
#
#
# Elastic Constant Matrix: (Units=GPa)
#
#
# Indices 1 2 3 4 5 6 
#
# 1 204.3601 15.8277 99.6567 0.0000 0.0000 0.0000
# 2 15.8277 99.0104 2.3507 0.0000 0.0000 0.0000
# 3 99.6567 2.3507 168.7529 0.0000 0.0000 0.0000
# 4 0.0000 0.0000 0.0000 -38.2693 0.0000 0.0000
# 5 0.0000 0.0000 0.0000 0.0000 12.8228 0.0000
# 6 0.0000 0.0000 0.0000 0.0000 0.0000 -57.1612
#
#
#
# Elastic Compliance Matrix: (Units=1/GPa)
#
#
# Indices 1 2 3 4 5 6 
#
# 1 0.006973 -0.001017 -0.004104 0.000000 0.000000 0.000000
# 2 -0.001017 0.010252 0.000458 0.000000 0.000000 0.000000
# 3 -0.004104 0.000458 0.008343 0.000000 0.000000 0.000000
# 4 0.000000 0.000000 0.000000 -0.026131 0.000000 0.000000
# 5 0.000000 0.000000 0.000000 0.000000 0.077986 0.000000
# 6 0.000000 0.000000 0.000000 0.000000 0.000000 -0.017494
#
#
# Mechanical properties :
#
#
# Convention : Reuss Voigt Hill
#
# Bulk Modulus (GPa) = 61.57058 78.64374 70.10716
# Shear Modulus (GPa) = 66.96179 7.09771 37.02975
#
# Velocity S-wave (km/s) = 5.57169 1.81398 4.14332
# Velocity P-wave (km/s) = 8.36277 6.39115 7.44254
#
# Compressibility (1/GPa) = 0.01624152
#
# Stress axis : x y z
#
# Youngs Moduli (GPa) = 143.40155 97.54474 119.86047
#
# Poissons Ratio (x) = 0.09924 0.49190
# Poissons Ratio (y) = 0.14589 -0.05489
# Poissons Ratio (z) = 0.58852 -0.04467
#
# Static dielectric constant tensor:
#      x y z
#    x 1.772170 0.000000 0.000000 
#    y 0.000000 1.846740 0.000000 
#    z 0.000000 0.000000 1.725930 
# 
# From -- ./inp_files/40827.got.cif
#   From: 2010.05.17/outbox.cif.g08.bks.cpg/sg69_21_cif.got.tgz:40827.got - 2010.06.03 19:29:58.
