data_PCOD9512674
_publ_section_title
;
Structure prediction by ZEFSAII (Michael W. Deem and Ramdas Pophale) SiO2 
 PCOD9512674
Probable space group: F M M M
;
_chemical_formula_sum "Si O2"
_cell_formula_units_Z 128
_cell_length_a 14.207370
_cell_length_b 17.576404
_cell_length_c 23.167403
_cell_angle_alpha 90.000000
_cell_angle_beta 90.000000
_cell_angle_gamma 90.000000
_cell_volume 5785.235875
_symmetry_space_group_name_H-M "F M M M"
_symmetry_group_IT_number 69
_symmetry_cell_setting 'orthorhombic'
loop_
_space_group_symop_operation_xyz
x,y,z
-x,-y,z
x,-y,-z
-x,y,-z
-x,-y,-z
x,y,-z
-x,y,z
x,-y,z
x,1/2+y,1/2+z
-x,1/2-y,1/2+z
x,1/2-y,1/2-z
-x,1/2+y,1/2-z
-x,1/2-y,1/2-z
x,1/2+y,1/2-z
-x,1/2+y,1/2+z
x,1/2-y,1/2+z
1/2+x,y,1/2+z
1/2-x,-y,1/2+z
1/2+x,-y,1/2-z
1/2-x,y,1/2-z
1/2-x,-y,1/2-z
1/2+x,y,1/2-z
1/2-x,y,1/2+z
1/2+x,-y,1/2+z
1/2+x,1/2+y,z
1/2-x,1/2-y,z
1/2+x,1/2-y,-z
1/2-x,1/2+y,-z
1/2-x,1/2-y,-z
1/2+x,1/2+y,-z
1/2-x,1/2+y,z
1/2+x,1/2-y,z
loop_
_atom_site_type_symbol
_atom_site_label
_atom_site_fract_x
_atom_site_fract_y
_atom_site_fract_z
Si Si1 0.102140 0.878840 0.366875
Si Si2 0.608936 0.836712 0.263422
Si Si3 0.687066 0.913587 0.624938
Si Si4 0.138907 0.267987 0.564497
O O1 0.108799 0.879663 0.297642
O O2 0.200891 0.911862 0.389167
O O3 0.100600 0.791474 0.389077
O O4 0.000000 0.911642 0.383887
O O5 0.500000 0.834391 0.283799
O O6 0.638306 0.750000 0.250000
O O7 0.671175 0.877095 0.311694
O O8 0.632384 0.855313 0.583452
O O9 0.653738 0.000000 0.623328
O O10 0.103293 0.254424 0.500000
O O11 0.250000 0.250000 0.563898
#
# Coordination Sequence:
#
# PCOD9512674 Si02
#       4
#    32  32  32  32
#     4  10  21  37  60  87 118 160 209 251 291 349
#     4  10  20  36  60  86 116 157 202 246 296 359
#     4  11  23  37  59  92 128 161 194 244 311 371
#     4   9  19  37  60  84 113 157 210 254 292 346
#
# _framework density 22.125285999999999
#
# number of rings (size 3 to 8) (size 9 to 14) (size 15 to 20)
#    0.000    2.000    2.500    0.750    0.000    5.000 
#    0.000    2.500    0.000    0.000    0.000   10.500 
#    0.000    0.000    0.000    0.000    0.000    0.000 
#
# Total GULP energy -178671.392877 kJ/mol
# GULP energy per Si atom -5583.481027 kJ/mol
# Density = 2.207493 g / cm^3
# Si number density = 22.125286 Si / 1000 Ang^3
#
#
#
# Elastic Constant Matrix: (Units=GPa)
#
#
# Indices 1 2 3 4 5 6 
#
# 1 113.2486 6.6171 7.4845 0.0000 0.0000 0.0000
# 2 6.6171 135.5936 13.2190 0.0000 0.0000 0.0000
# 3 7.4845 13.2190 73.9303 0.0000 0.0000 0.0000
# 4 0.0000 0.0000 0.0000 7.2425 0.0000 0.0000
# 5 0.0000 0.0000 0.0000 0.0000 -101.6501 0.0000
# 6 0.0000 0.0000 0.0000 0.0000 0.0000 4.3788
#
#
#
# Elastic Compliance Matrix: (Units=1/GPa)
#
#
# Indices 1 2 3 4 5 6 
#
# 1 0.008906 -0.000353 -0.000839 0.000000 0.000000 0.000000
# 2 -0.000353 0.007520 -0.001309 0.000000 0.000000 0.000000
# 3 -0.000839 -0.001309 0.013845 0.000000 0.000000 0.000000
# 4 0.000000 0.000000 0.000000 0.138075 0.000000 0.000000
# 5 0.000000 0.000000 0.000000 0.000000 -0.009838 0.000000
# 6 0.000000 0.000000 0.000000 0.000000 0.000000 0.228372
#
#
# Mechanical properties :
#
#
# Convention : Reuss Voigt Hill
#
# Bulk Modulus (GPa) = 39.57165 41.93485 40.75325
# Shear Modulus (GPa) = 12.49051 1.69103 7.09077
#
# Velocity S-wave (km/s) = 2.37857 0.87519 1.79215
# Velocity P-wave (km/s) = 5.04654 4.47390 4.76882
#
# Compressibility (1/GPa) = 0.02527062
#
# Stress axis : x y z
#
# Youngs Moduli (GPa) = 112.28169 132.98224 72.22738
#
# Poissons Ratio (x) = 0.04693 0.06057
# Poissons Ratio (y) = 0.03962 0.09453
# Poissons Ratio (z) = 0.09415 0.17405
#
# Static dielectric constant tensor:
#      x y z
#    x 1.875000 0.000000 0.000000 
#    y 0.000000 1.798650 0.000000 
#    z 0.000000 0.000000 1.779150 
# 
# From -- ./inp_files/36442.got.cif
#   From: 2010.05.17/outbox.cif.g08.bks.cpg/sg69_19_cif.got.tgz:36442.got - 2010.06.03 19:29:58.
