data_PCOD9512429
_publ_section_title
;
Structure prediction by ZEFSAII (Michael W. Deem and Ramdas Pophale) SiO2 
 PCOD9512429
Probable space group: F M M M
;
_chemical_formula_sum "Si O2"
_cell_formula_units_Z 128
_cell_length_a 13.759214
_cell_length_b 24.196671
_cell_length_c 23.026205
_cell_angle_alpha 90.000000
_cell_angle_beta 90.000000
_cell_angle_gamma 90.000000
_cell_volume 7666.049367
_symmetry_space_group_name_H-M "F M M M"
_symmetry_group_IT_number 69
_symmetry_cell_setting 'orthorhombic'
loop_
_space_group_symop_operation_xyz
x,y,z
-x,-y,z
x,-y,-z
-x,y,-z
-x,-y,-z
x,y,-z
-x,y,z
x,-y,z
x,1/2+y,1/2+z
-x,1/2-y,1/2+z
x,1/2-y,1/2-z
-x,1/2+y,1/2-z
-x,1/2-y,1/2-z
x,1/2+y,1/2-z
-x,1/2+y,1/2+z
x,1/2-y,1/2+z
1/2+x,y,1/2+z
1/2-x,-y,1/2+z
1/2+x,-y,1/2-z
1/2-x,y,1/2-z
1/2-x,-y,1/2-z
1/2+x,y,1/2-z
1/2-x,y,1/2+z
1/2+x,-y,1/2+z
1/2+x,1/2+y,z
1/2-x,1/2-y,z
1/2+x,1/2-y,-z
1/2-x,1/2+y,-z
1/2-x,1/2-y,-z
1/2+x,1/2+y,-z
1/2-x,1/2+y,z
1/2+x,1/2-y,z
loop_
_atom_site_type_symbol
_atom_site_label
_atom_site_fract_x
_atom_site_fract_y
_atom_site_fract_z
Si Si1 0.883206 0.775052 0.000000
Si Si2 0.884883 0.230250 0.373746
Si Si3 0.882043 0.901049 0.000000
Si Si4 0.278223 0.833461 0.682759
Si Si5 0.116874 0.437112 0.628369
O O1 0.859930 0.744205 0.059465
O O2 0.845517 0.837810 0.000000
O O3 0.000000 0.780346 0.000000
O O4 0.820444 0.179305 0.352497
O O5 0.850202 0.283392 0.336082
O O6 0.000000 0.222316 0.368081
O O7 0.854921 0.929405 0.939503
O O8 0.000000 0.900394 0.000000
O O9 0.250000 0.830912 0.750000
O O10 0.327935 0.890618 0.664749
O O11 0.137158 0.500000 0.646409
O O12 0.000000 0.428126 0.632334
#
# Coordination Sequence:
#
# PCOD9512429 Si02
#       5
#    16  32  16  32  32
#     4   9  16  29  53  79 105 132 161 206 258 316
#     4  10  20  35  53  77 107 137 168 208 261 307
#     4   9  15  29  53  81 107 128 159 208 265 318
#     4  11  23  34  50  76 104 141 179 210 243 298
#     4  10  20  35  56  79 104 133 167 215 267 307
#
# _framework density 16.696995999999999
#
# number of rings (size 3 to 8) (size 9 to 14) (size 15 to 20)
#    0.000    2.000    2.500    2.625    0.000    8.000 
#    0.000    0.000    0.000    0.750    0.000    0.000 
#    0.000    5.000    0.000    0.000    0.000    0.000 
#
# Total GULP energy -178515.920062 kJ/mol
# GULP energy per Si atom -5578.622502 kJ/mol
# Density = 1.665899 g / cm^3
# Si number density = 16.696996 Si / 1000 Ang^3
#
#
#
# Elastic Constant Matrix: (Units=GPa)
#
#
# Indices 1 2 3 4 5 6 
#
# 1 99.1721 49.2050 28.8384 0.0000 0.0000 0.0000
# 2 49.2050 110.9788 57.4097 0.0000 0.0000 0.0000
# 3 28.8384 57.4097 114.6141 0.0000 0.0000 0.0000
# 4 0.0000 0.0000 0.0000 11.7599 0.0000 0.0000
# 5 0.0000 0.0000 0.0000 0.0000 21.5280 0.0000
# 6 0.0000 0.0000 0.0000 0.0000 0.0000 29.6260
#
#
#
# Elastic Compliance Matrix: (Units=1/GPa)
#
#
# Indices 1 2 3 4 5 6 
#
# 1 0.012950 -0.005475 -0.000516 0.000000 0.000000 0.000000
# 2 -0.005475 0.014477 -0.005874 0.000000 0.000000 0.000000
# 3 -0.000516 -0.005874 0.011797 0.000000 0.000000 0.000000
# 4 0.000000 0.000000 0.000000 0.085035 0.000000 0.000000
# 5 0.000000 0.000000 0.000000 0.000000 0.046451 0.000000
# 6 0.000000 0.000000 0.000000 0.000000 0.000000 0.033754
#
#
# Mechanical properties :
#
#
# Convention : Reuss Voigt Hill
#
# Bulk Modulus (GPa) = 64.53983 66.18569 65.36276
# Shear Modulus (GPa) = 21.42637 25.20358 23.31497
#
# Velocity S-wave (km/s) = 3.58613 3.88940 3.74084
# Velocity P-wave (km/s) = 7.47560 7.73920 7.60854
#
# Compressibility (1/GPa) = 0.01549431
#
# Stress axis : x y z
#
# Youngs Moduli (GPa) = 77.22104 69.07732 84.76784
#
# Poissons Ratio (x) = 0.37817 0.04375
# Poissons Ratio (y) = 0.42276 0.49790
# Poissons Ratio (z) = 0.03986 0.40574
#
# Static dielectric constant tensor:
#      x y z
#    x 1.574070 0.000000 0.000000 
#    y 0.000000 1.557290 0.000000 
#    z 0.000000 0.000000 1.572980 
# 
# From -- ./inp_files/29646.got.cif
#   From: 2010.05.17/outbox.cif.g08.bks.cpg/sg69_15_cif.got.tgz:29646.got - 2010.06.03 19:29:58.
