data_PCOD9512233
_publ_section_title
;
Structure prediction by ZEFSAII (Michael W. Deem and Ramdas Pophale) SiO2 
 PCOD9512233
Probable space group: F M M M
;
_chemical_formula_sum "Si O2"
_cell_formula_units_Z 160
_cell_length_a 16.036881
_cell_length_b 30.482634
_cell_length_c 16.333353
_cell_angle_alpha 90.000000
_cell_angle_beta 90.000000
_cell_angle_gamma 90.000000
_cell_volume 7984.500390
_symmetry_space_group_name_H-M "F M M M"
_symmetry_group_IT_number 69
_symmetry_cell_setting 'orthorhombic'
loop_
_space_group_symop_operation_xyz
x,y,z
-x,-y,z
x,-y,-z
-x,y,-z
-x,-y,-z
x,y,-z
-x,y,z
x,-y,z
x,1/2+y,1/2+z
-x,1/2-y,1/2+z
x,1/2-y,1/2-z
-x,1/2+y,1/2-z
-x,1/2-y,1/2-z
x,1/2+y,1/2-z
-x,1/2+y,1/2+z
x,1/2-y,1/2+z
1/2+x,y,1/2+z
1/2-x,-y,1/2+z
1/2+x,-y,1/2-z
1/2-x,y,1/2-z
1/2-x,-y,1/2-z
1/2+x,y,1/2-z
1/2-x,y,1/2+z
1/2+x,-y,1/2+z
1/2+x,1/2+y,z
1/2-x,1/2-y,z
1/2+x,1/2-y,-z
1/2-x,1/2+y,-z
1/2-x,1/2-y,-z
1/2+x,1/2+y,-z
1/2-x,1/2+y,z
1/2+x,1/2-y,z
loop_
_atom_site_type_symbol
_atom_site_label
_atom_site_fract_x
_atom_site_fract_y
_atom_site_fract_z
Si Si1 0.248154 0.110400 0.404098
Si Si2 0.907139 0.639002 0.320497
Si Si3 0.907549 0.948770 0.400553
Si Si4 0.402760 0.231981 0.407759
Si Si5 0.322967 0.310844 0.316496
O O1 0.266197 0.102998 0.500000
O O2 0.331436 0.108122 0.348999
O O3 0.173723 0.078362 0.375373
O O4 0.211896 0.159271 0.389626
O O5 0.900715 0.681703 0.379531
O O6 0.891621 0.660317 0.231511
O O7 0.000000 0.620383 0.327312
O O8 0.908467 0.946297 0.500000
O O9 0.000000 0.933257 0.372839
O O10 0.899829 0.000000 0.378542
O O11 0.370992 0.235960 0.500000
O O12 0.500000 0.245192 0.406147
O O13 0.355131 0.264767 0.348333
O O14 0.250000 0.306214 0.250000
#
# Coordination Sequence:
#
# PCOD9512233 Si02
#       5
#    32  32  32  32  32
#     4  10  20  33  53  80 105 131 168 213 258 307
#     4  10  21  36  51  69 102 147 184 211 249 307
#     4   8  15  30  53  81 110 134 158 200 262 320
#     4  10  20  34  52  72  95 129 178 229 268 301
#     4  10  21  34  49  72 102 136 173 217 266 312
#
# _framework density 20.038824999999999
#
# number of rings (size 3 to 8) (size 9 to 14) (size 15 to 20)
#    0.000    2.400    0.000    3.000    0.000   10.000 
#    0.000    7.000    0.000    6.000    0.000    2.800 
#    0.000    0.000    0.000    0.000    0.000    0.000 
#
# Total GULP energy -223303.298058 kJ/mol
# GULP energy per Si atom -5582.582451 kJ/mol
# Density = 1.999322 g / cm^3
# Si number density = 20.038825 Si / 1000 Ang^3
#
#
#
# Elastic Constant Matrix: (Units=GPa)
#
#
# Indices 1 2 3 4 5 6 
#
# 1 158.0855 46.1367 18.5395 0.0000 0.0000 0.0000
# 2 46.1367 41.8557 3.4449 0.0000 0.0000 0.0000
# 3 18.5395 3.4449 55.6612 0.0000 0.0000 0.0000
# 4 0.0000 0.0000 0.0000 15.7744 0.0000 0.0000
# 5 0.0000 0.0000 0.0000 0.0000 21.7945 0.0000
# 6 0.0000 0.0000 0.0000 0.0000 0.0000 35.5943
#
#
#
# Elastic Compliance Matrix: (Units=1/GPa)
#
#
# Indices 1 2 3 4 5 6 
#
# 1 0.009680 -0.010458 -0.002577 0.000000 0.000000 0.000000
# 2 -0.010458 0.035312 0.001298 0.000000 0.000000 0.000000
# 3 -0.002577 0.001298 0.018744 0.000000 0.000000 0.000000
# 4 0.000000 0.000000 0.000000 0.063394 0.000000 0.000000
# 5 0.000000 0.000000 0.000000 0.000000 0.045883 0.000000
# 6 0.000000 0.000000 0.000000 0.000000 0.000000 0.028094
#
#
# Mechanical properties :
#
#
# Convention : Reuss Voigt Hill
#
# Bulk Modulus (GPa) = 24.83728 43.53829 34.18779
# Shear Modulus (GPa) = 21.00816 27.13139 24.06978
#
# Velocity S-wave (km/s) = 3.24137 3.68359 3.46953
# Velocity P-wave (km/s) = 5.14103 6.31394 5.75743
#
# Compressibility (1/GPa) = 0.04026205
#
# Stress axis : x y z
#
# Youngs Moduli (GPa) = 103.30536 28.31862 53.35085
#
# Poissons Ratio (x) = 0.29616 0.13748
# Poissons Ratio (y) = 1.08037 -0.06924
# Poissons Ratio (z) = 0.26621 -0.03675
#
# Static dielectric constant tensor:
#      x y z
#    x 1.774550 0.000000 0.000000 
#    y 0.000000 1.689190 0.000000 
#    z 0.000000 0.000000 1.730220 
# 
# From -- ./inp_files/23140.got.cif
#   From: 2010.05.17/outbox.cif.g08.bks.cpg/sg69_12_cif.got.tgz:23140.got - 2010.06.03 19:29:58.
