data_PCOD9512772
_publ_section_title
;
Structure prediction by ZEFSAII (Michael W. Deem and Ramdas Pophale) SiO2 
 PCOD9512772
Probable space group: F M M M
;
_chemical_formula_sum "Si O2"
_cell_formula_units_Z 208
_cell_length_a 31.704523
_cell_length_b 16.086480
_cell_length_c 19.081107
_cell_angle_alpha 90.000000
_cell_angle_beta 90.000000
_cell_angle_gamma 90.000000
_cell_volume 9731.635048
_symmetry_space_group_name_H-M "F M M M"
_symmetry_group_IT_number 69
_symmetry_cell_setting 'orthorhombic'
loop_
_space_group_symop_operation_xyz
x,y,z
-x,-y,z
x,-y,-z
-x,y,-z
-x,-y,-z
x,y,-z
-x,y,z
x,-y,z
x,1/2+y,1/2+z
-x,1/2-y,1/2+z
x,1/2-y,1/2-z
-x,1/2+y,1/2-z
-x,1/2-y,1/2-z
x,1/2+y,1/2-z
-x,1/2+y,1/2+z
x,1/2-y,1/2+z
1/2+x,y,1/2+z
1/2-x,-y,1/2+z
1/2+x,-y,1/2-z
1/2-x,y,1/2-z
1/2-x,-y,1/2-z
1/2+x,y,1/2-z
1/2-x,y,1/2+z
1/2+x,-y,1/2+z
1/2+x,1/2+y,z
1/2-x,1/2-y,z
1/2+x,1/2-y,-z
1/2-x,1/2+y,-z
1/2-x,1/2-y,-z
1/2+x,1/2+y,-z
1/2-x,1/2+y,z
1/2+x,1/2-y,z
loop_
_atom_site_type_symbol
_atom_site_label
_atom_site_fract_x
_atom_site_fract_y
_atom_site_fract_z
Si Si1 0.087297 0.661969 0.641202
Si Si2 0.948970 0.816694 0.581864
Si Si3 0.298570 0.659340 0.275917
Si Si4 0.173325 0.590281 0.642128
Si Si5 0.549442 0.500000 0.216678
Si Si6 0.450674 0.096301 0.500000
Si Si7 0.761206 0.847832 0.579627
Si Si8 0.951207 0.500000 0.115864
O O1 0.071036 0.756990 0.641984
O O2 0.137372 0.657576 0.630077
O O3 0.071870 0.586829 0.692372
O O4 0.067359 0.633648 0.569124
O O5 0.940211 0.794185 0.500000
O O6 0.000000 0.813373 0.590659
O O7 0.933617 0.911621 0.591240
O O8 0.314572 0.750000 0.250000
O O9 0.250000 0.658925 0.250000
O O10 0.320282 0.593089 0.225983
O O11 0.295779 0.642518 0.358566
O O12 0.157830 0.500000 0.619222
O O13 0.217780 0.608298 0.604618
O O14 0.500000 0.500000 0.191166
O O15 0.548905 0.500000 0.300240
O O16 0.500000 0.109144 0.500000
O O17 0.440985 0.000000 0.500000
O O18 0.772499 0.872204 0.500000
O O19 0.750000 0.750000 0.579816
O O20 0.000000 0.500000 0.090981
#
# Coordination Sequence:
#
# PCOD9512772 Si02
#       8
#    32  32  32  32  16  16  32  16
#     4  12  23  37  57  96 131 168 216 263 334 388
#     4  10  20  38  65  93 121 164 222 274 326 388
#     4   9  16  37  62  87 115 162 213 253 305 382
#     4  11  23  39  59  93 132 168 207 266 324 386
#     4  11  22  40  60  86 131 178 224 265 316 392
#     4  11  20  34  58  85 128 179 213 256 319 396
#     4  10  20  37  63  91 122 163 212 261 320 385
#     4   9  21  40  60  84 117 158 216 288 326 363
#
# _framework density 21.373591000000001
#
# number of rings (size 3 to 8) (size 9 to 14) (size 15 to 20)
#    0.000    1.615    5.385    1.615    1.077    4.615 
#    2.769    2.308    0.000    0.000    2.000    0.000 
#    0.000    0.000    0.000    0.000    0.000    0.000 
#
# Total GULP energy -289779.183841 kJ/mol
# GULP energy per Si atom -5572.676612 kJ/mol
# Density = 2.132494 g / cm^3
# Si number density = 21.373591 Si / 1000 Ang^3
#
#
#
# Elastic Constant Matrix: (Units=GPa)
#
#
# Indices 1 2 3 4 5 6 
#
# 1 38.1701 14.5721 21.2677 0.0000 0.0000 0.0000
# 2 14.5721 125.9445 8.8376 0.0000 0.0000 0.0000
# 3 21.2677 8.8376 123.1860 0.0000 0.0000 0.0000
# 4 0.0000 0.0000 0.0000 27.5922 0.0000 0.0000
# 5 0.0000 0.0000 0.0000 0.0000 -42.2759 0.0000
# 6 0.0000 0.0000 0.0000 0.0000 0.0000 21.4447
#
#
#
# Elastic Compliance Matrix: (Units=1/GPa)
#
#
# Indices 1 2 3 4 5 6 
#
# 1 0.030175 -0.003142 -0.004984 0.000000 0.000000 0.000000
# 2 -0.003142 0.008307 -0.000054 0.000000 0.000000 0.000000
# 3 -0.004984 -0.000054 0.008982 0.000000 0.000000 0.000000
# 4 0.000000 0.000000 0.000000 0.036242 0.000000 0.000000
# 5 0.000000 0.000000 0.000000 0.000000 -0.023654 0.000000
# 6 0.000000 0.000000 0.000000 0.000000 0.000000 0.046632
#
#
# Mechanical properties :
#
#
# Convention : Reuss Voigt Hill
#
# Bulk Modulus (GPa) = 32.14856 41.85061 36.99959
# Shear Modulus (GPa) = 37.47802 17.52706 27.50254
#
# Velocity S-wave (km/s) = 4.19199 2.86673 3.59103
# Velocity P-wave (km/s) = 6.20518 5.52997 5.87728
#
# Compressibility (1/GPa) = 0.03110559
#
# Stress axis : x y z
#
# Youngs Moduli (GPa) = 33.13998 120.37670 111.33164
#
# Poissons Ratio (x) = 0.37817 0.55491
# Poissons Ratio (y) = 0.10411 0.00597
# Poissons Ratio (z) = 0.16518 0.00645
#
# Static dielectric constant tensor:
#      x y z
#    x 1.784710 0.000000 0.000000 
#    y 0.000000 1.881750 0.000000 
#    z 0.000000 0.000000 1.774020 
# 
# From -- ./inp_files/34036.got.cif
#   From: 2010.05.17/outbox.cif.g08.bks.cpg/sg69_18_cif.got.tgz:34036.got - 2010.06.03 19:29:58.
