data_PCOD9512725
_publ_section_title
;
Structure prediction by ZEFSAII (Michael W. Deem and Ramdas Pophale) SiO2 
 PCOD9512725
Probable space group: F M M M
;
_chemical_formula_sum "Si O2"
_cell_formula_units_Z 160
_cell_length_a 18.128722
_cell_length_b 19.723229
_cell_length_c 24.155634
_cell_angle_alpha 90.000000
_cell_angle_beta 90.000000
_cell_angle_gamma 90.000000
_cell_volume 8637.014468
_symmetry_space_group_name_H-M "F M M M"
_symmetry_group_IT_number 69
_symmetry_cell_setting 'orthorhombic'
loop_
_space_group_symop_operation_xyz
x,y,z
-x,-y,z
x,-y,-z
-x,y,-z
-x,-y,-z
x,y,-z
-x,y,z
x,-y,z
x,1/2+y,1/2+z
-x,1/2-y,1/2+z
x,1/2-y,1/2-z
-x,1/2+y,1/2-z
-x,1/2-y,1/2-z
x,1/2+y,1/2-z
-x,1/2+y,1/2+z
x,1/2-y,1/2+z
1/2+x,y,1/2+z
1/2-x,-y,1/2+z
1/2+x,-y,1/2-z
1/2-x,y,1/2-z
1/2-x,-y,1/2-z
1/2+x,y,1/2-z
1/2-x,y,1/2+z
1/2+x,-y,1/2+z
1/2+x,1/2+y,z
1/2-x,1/2-y,z
1/2+x,1/2-y,-z
1/2-x,1/2+y,-z
1/2-x,1/2-y,-z
1/2+x,1/2+y,-z
1/2-x,1/2+y,z
1/2+x,1/2-y,z
loop_
_atom_site_type_symbol
_atom_site_label
_atom_site_fract_x
_atom_site_fract_y
_atom_site_fract_z
Si Si1 0.185575 0.075927 0.294213
Si Si2 0.587122 0.671263 0.094979
Si Si3 0.724280 0.577357 0.102295
Si Si4 0.086929 0.679340 0.272071
Si Si5 0.334871 0.925514 0.000000
Si Si6 0.587546 0.220026 0.000000
O O1 0.250000 0.068813 0.250000
O O2 0.227597 0.107667 0.347070
O O3 0.125047 0.119963 0.262664
O O4 0.158039 0.000000 0.309357
O O5 0.500000 0.654036 0.084014
O O6 0.649661 0.614979 0.084659
O O7 0.593989 0.680461 0.161371
O O8 0.605544 0.735095 0.054984
O O9 0.704942 0.500000 0.119129
O O10 0.781025 0.575539 0.052293
O O11 0.118111 0.750000 0.250000
O O12 0.000000 0.676145 0.260021
O O13 0.379459 0.855321 0.000000
O O14 0.374142 0.000000 0.000000
O O15 0.500000 0.212445 0.000000
#
# Coordination Sequence:
#
# PCOD9512725 Si02
#       6
#    32  32  32  32  16  16
#     4  10  20  37  58  84 118 154 195 240 286 341
#     4  10  21  38  59  85 117 155 193 237 293 345
#     4  10  21  38  59  87 121 152 193 244 286 343
#     4  10  22  38  56  83 119 153 195 245 290 346
#     4  10  23  42  62  86 116 152 193 242 294 342
#     4  10  23  42  62  86 118 150 193 246 288 344
#
# _framework density 18.524920000000002
#
# number of rings (size 3 to 8) (size 9 to 14) (size 15 to 20)
#    0.000    2.000    2.000    0.600    2.800    3.000 
#    0.000    2.000    0.000    7.200    0.000    0.000 
#    0.000    0.000    0.000    0.000    0.000    0.000 
#
# Total GULP energy -222678.090967 kJ/mol
# GULP energy per Si atom -5566.952274 kJ/mol
# Density = 1.848276 g / cm^3
# Si number density = 18.524920 Si / 1000 Ang^3
#
#
#
# Elastic Constant Matrix: (Units=GPa)
#
#
# Indices 1 2 3 4 5 6 
#
# 1 64.3601 67.0231 34.1344 0.0000 0.0000 0.0000
# 2 67.0231 123.6155 31.7434 0.0000 0.0000 0.0000
# 3 34.1344 31.7434 89.7923 0.0000 0.0000 0.0000
# 4 0.0000 0.0000 0.0000 4.6139 0.0000 0.0000
# 5 0.0000 0.0000 0.0000 0.0000 26.5053 0.0000
# 6 0.0000 0.0000 0.0000 0.0000 0.0000 29.1167
#
#
#
# Elastic Compliance Matrix: (Units=1/GPa)
#
#
# Indices 1 2 3 4 5 6 
#
# 1 0.040795 -0.019947 -0.008456 0.000000 0.000000 0.000000
# 2 -0.019947 0.018651 0.000989 0.000000 0.000000 0.000000
# 3 -0.008456 0.000989 0.014002 0.000000 0.000000 0.000000
# 4 0.000000 0.000000 0.000000 0.216739 0.000000 0.000000
# 5 0.000000 0.000000 0.000000 0.000000 0.037728 0.000000
# 6 0.000000 0.000000 0.000000 0.000000 0.000000 0.034345
#
#
# Mechanical properties :
#
#
# Convention : Reuss Voigt Hill
#
# Bulk Modulus (GPa) = 53.70796 60.39663 57.05230
# Shear Modulus (GPa) = 11.81213 21.70496 16.75855
#
# Velocity S-wave (km/s) = 2.52788 3.42667 3.01100
# Velocity P-wave (km/s) = 6.12988 6.95196 6.55383
#
# Compressibility (1/GPa) = 0.01861921
#
# Stress axis : x y z
#
# Youngs Moduli (GPa) = 24.51277 53.61749 71.41971
#
# Poissons Ratio (x) = 1.06951 0.60396
# Poissons Ratio (y) = 0.48896 -0.07067
# Poissons Ratio (z) = 0.20729 -0.05305
#
# Static dielectric constant tensor:
#      x y z
#    x 1.620210 0.000000 0.000000 
#    y 0.000000 1.715480 0.000000 
#    z 0.000000 0.000000 1.410300 
# 
# From -- ./inp_files/41796.got.cif
#   From: 2010.05.17/outbox.cif.g08.bks.cpg/sg69_21_cif.got.tgz:41796.got - 2010.06.03 19:29:58.
