data_PCOD9512141
_publ_section_title
;
Structure prediction by ZEFSAII (Michael W. Deem and Ramdas Pophale) SiO2 
 PCOD9512141
Probable space group: F M M M
;
_chemical_formula_sum "Si O2"
_cell_formula_units_Z 128
_cell_length_a 19.913412
_cell_length_b 15.184126
_cell_length_c 21.991589
_cell_angle_alpha 90.000000
_cell_angle_beta 90.000000
_cell_angle_gamma 90.000000
_cell_volume 6649.547437
_symmetry_space_group_name_H-M "F M M M"
_symmetry_group_IT_number 69
_symmetry_cell_setting 'orthorhombic'
loop_
_space_group_symop_operation_xyz
x,y,z
-x,-y,z
x,-y,-z
-x,y,-z
-x,-y,-z
x,y,-z
-x,y,z
x,-y,z
x,1/2+y,1/2+z
-x,1/2-y,1/2+z
x,1/2-y,1/2-z
-x,1/2+y,1/2-z
-x,1/2-y,1/2-z
x,1/2+y,1/2-z
-x,1/2+y,1/2+z
x,1/2-y,1/2+z
1/2+x,y,1/2+z
1/2-x,-y,1/2+z
1/2+x,-y,1/2-z
1/2-x,y,1/2-z
1/2-x,-y,1/2-z
1/2+x,y,1/2-z
1/2-x,y,1/2+z
1/2+x,-y,1/2+z
1/2+x,1/2+y,z
1/2-x,1/2-y,z
1/2+x,1/2-y,-z
1/2-x,1/2+y,-z
1/2-x,1/2-y,-z
1/2+x,1/2+y,-z
1/2-x,1/2+y,z
1/2+x,1/2-y,z
loop_
_atom_site_type_symbol
_atom_site_label
_atom_site_fract_x
_atom_site_fract_y
_atom_site_fract_z
Si Si1 0.500000 0.685795 0.851849
Si Si2 0.265670 0.101862 0.658938
Si Si3 0.000000 0.629002 0.212756
Si Si4 0.120153 0.394388 0.571358
Si Si5 0.857083 0.348492 0.772030
O O1 0.500000 0.639218 0.786219
O O2 0.500000 0.787090 0.832312
O O3 0.564529 0.657140 0.890308
O O4 0.306799 0.126063 0.599042
O O5 0.200628 0.157777 0.677061
O O6 0.319160 0.109300 0.714413
O O7 0.244102 0.000000 0.655288
O O8 0.077434 0.599427 0.205476
O O9 0.114968 0.375771 0.500000
O O10 0.109436 0.500000 0.580059
O O11 0.877434 0.250000 0.750000
#
# Coordination Sequence:
#
# PCOD9512141 Si02
#       5
#    16  32  16  32  32
#     4  11  18  33  48  76 102 131 178 210 252 315
#     4  10  20  32  48  75 104 132 172 218 258 306
#     4  11  20  32  52  74  98 143 173 209 265 308
#     4  10  20  34  53  76 106 141 172 212 265 316
#     4  11  18  32  51  72 101 139 173 209 264 313
#
# _framework density 19.24943
#
# number of rings (size 3 to 8) (size 9 to 14) (size 15 to 20)
#    0.000    1.500    5.000    3.750    0.000    1.000 
#    0.000    2.500    0.000   13.500    0.000    0.000 
#    0.000    4.000    0.000    0.000    0.000   76.500 
#
# Total GULP energy -178358.123750 kJ/mol
# GULP energy per Si atom -5573.691367 kJ/mol
# Density = 1.920562 g / cm^3
# Si number density = 19.249430 Si / 1000 Ang^3
#
#
#
# Elastic Constant Matrix: (Units=GPa)
#
#
# Indices 1 2 3 4 5 6 
#
# 1 153.0390 27.9603 45.9698 0.0000 0.0000 0.0000
# 2 27.9603 54.5476 28.4790 0.0000 0.0000 0.0000
# 3 45.9698 28.4790 113.9471 0.0000 0.0000 0.0000
# 4 0.0000 0.0000 0.0000 24.2531 0.0000 0.0000
# 5 0.0000 0.0000 0.0000 0.0000 23.9945 0.0000
# 6 0.0000 0.0000 0.0000 0.0000 0.0000 -52.2768
#
#
#
# Elastic Compliance Matrix: (Units=1/GPa)
#
#
# Indices 1 2 3 4 5 6 
#
# 1 0.007766 -0.002697 -0.002459 0.000000 0.000000 0.000000
# 2 -0.002697 0.022020 -0.004416 0.000000 0.000000 0.000000
# 3 -0.002459 -0.004416 0.010872 0.000000 0.000000 0.000000
# 4 0.000000 0.000000 0.000000 0.041232 0.000000 0.000000
# 5 0.000000 0.000000 0.000000 0.000000 0.041676 0.000000
# 6 0.000000 0.000000 0.000000 0.000000 0.000000 -0.019129
#
#
# Mechanical properties :
#
#
# Convention : Reuss Voigt Hill
#
# Bulk Modulus (GPa) = 46.47925 58.48354 52.48139
# Shear Modulus (GPa) = 38.24072 13.80246 26.02159
#
# Velocity S-wave (km/s) = 4.46195 2.68065 3.68069
# Velocity P-wave (km/s) = 7.12345 6.32686 6.73694
#
# Compressibility (1/GPa) = 0.02151498
#
# Stress axis : x y z
#
# Youngs Moduli (GPa) = 128.77339 45.41264 91.98285
#
# Poissons Ratio (x) = 0.12247 0.22617
# Poissons Ratio (y) = 0.34727 0.40616
# Poissons Ratio (z) = 0.31664 0.20052
#
# Static dielectric constant tensor:
#      x y z
#    x 1.731520 0.000000 0.000000 
#    y 0.000000 1.740090 0.000000 
#    z 0.000000 0.000000 1.635890 
# 
# From -- ./inp_files/31512.got.cif
#   From: 2010.05.17/outbox.cif.g08.bks.cpg/sg69_16_cif.got.tgz:31512.got - 2010.06.03 19:29:58.
