data_PCOD9512348
_publ_section_title
;
Structure prediction by ZEFSAII (Michael W. Deem and Ramdas Pophale) SiO2 
 PCOD9512348
Probable space group: F M M M
;
_chemical_formula_sum "Si O2"
_cell_formula_units_Z 160
_cell_length_a 24.620356
_cell_length_b 14.426759
_cell_length_c 22.799883
_cell_angle_alpha 90.000000
_cell_angle_beta 90.000000
_cell_angle_gamma 90.000000
_cell_volume 8098.334732
_symmetry_space_group_name_H-M "F M M M"
_symmetry_group_IT_number 69
_symmetry_cell_setting 'orthorhombic'
loop_
_space_group_symop_operation_xyz
x,y,z
-x,-y,z
x,-y,-z
-x,y,-z
-x,-y,-z
x,y,-z
-x,y,z
x,-y,z
x,1/2+y,1/2+z
-x,1/2-y,1/2+z
x,1/2-y,1/2-z
-x,1/2+y,1/2-z
-x,1/2-y,1/2-z
x,1/2+y,1/2-z
-x,1/2+y,1/2+z
x,1/2-y,1/2+z
1/2+x,y,1/2+z
1/2-x,-y,1/2+z
1/2+x,-y,1/2-z
1/2-x,y,1/2-z
1/2-x,-y,1/2-z
1/2+x,y,1/2-z
1/2-x,y,1/2+z
1/2+x,-y,1/2+z
1/2+x,1/2+y,z
1/2-x,1/2-y,z
1/2+x,1/2-y,-z
1/2-x,1/2+y,-z
1/2-x,1/2-y,-z
1/2+x,1/2+y,-z
1/2-x,1/2+y,z
1/2+x,1/2-y,z
loop_
_atom_site_type_symbol
_atom_site_label
_atom_site_fract_x
_atom_site_fract_y
_atom_site_fract_z
Si Si1 0.560367 0.792032 0.881643
Si Si2 0.938176 0.393849 0.760249
Si Si3 0.781965 0.887054 0.067364
Si Si4 0.836243 0.894996 0.429899
Si Si5 0.890416 0.607458 0.363136
O O1 0.500000 0.821779 0.900197
O O2 0.566958 0.823198 0.813643
O O3 0.610376 0.839433 0.913901
O O4 0.567620 0.682228 0.887694
O O5 0.934063 0.500000 0.782833
O O6 0.896177 0.384069 0.707206
O O7 0.000000 0.383784 0.736273
O O8 0.722471 0.854854 0.088522
O O9 0.831860 0.867073 0.110146
O O10 0.777939 0.000000 0.064879
O O11 0.792470 0.855318 0.000000
O O12 0.832045 0.899782 0.500000
O O13 0.841638 0.000000 0.406687
O O14 0.901865 0.500000 0.377786
#
# Coordination Sequence:
#
# PCOD9512348 Si02
#       5
#    32  32  32  32  32
#     4  11  22  34  52  80 111 142 178 217 258 310
#     4   9  18  34  55  77 104 140 179 219 265 313
#     4   8  16  34  58  80 103 135 175 217 263 314
#     4   9  19  37  59  81 106 136 172 219 273 321
#     4  10  20  34  54  79 106 140 180 218 258 309
#
# _framework density 19.757148999999998
#
# number of rings (size 3 to 8) (size 9 to 14) (size 15 to 20)
#    0.000    2.600    0.000    3.000    0.000    6.000 
#    0.000    4.000    0.000    9.000    0.000   14.000 
#    0.000    0.000    0.000    0.000    0.000    0.000 
#
# Total GULP energy -223055.742927 kJ/mol
# GULP energy per Si atom -5576.393573 kJ/mol
# Density = 1.971218 g / cm^3
# Si number density = 19.757149 Si / 1000 Ang^3
#
#
#
# Elastic Constant Matrix: (Units=GPa)
#
#
# Indices 1 2 3 4 5 6 
#
# 1 148.5200 45.2298 55.5420 0.0000 0.0000 0.0000
# 2 45.2298 85.4845 11.7991 0.0000 0.0000 0.0000
# 3 55.5420 11.7991 38.4274 0.0000 0.0000 0.0000
# 4 0.0000 0.0000 0.0000 0.2959 0.0000 0.0000
# 5 0.0000 0.0000 0.0000 0.0000 55.3140 0.0000
# 6 0.0000 0.0000 0.0000 0.0000 0.0000 28.8974
#
#
#
# Elastic Compliance Matrix: (Units=1/GPa)
#
#
# Indices 1 2 3 4 5 6 
#
# 1 0.017081 -0.005879 -0.022884 0.000000 0.000000 0.000000
# 2 -0.005879 0.014239 0.004126 0.000000 0.000000 0.000000
# 3 -0.022884 0.004126 0.057832 0.000000 0.000000 0.000000
# 4 0.000000 0.000000 0.000000 3.379264 0.000000 0.000000
# 5 0.000000 0.000000 0.000000 0.000000 0.018079 0.000000
# 6 0.000000 0.000000 0.000000 0.000000 0.000000 0.034605
#
#
# Mechanical properties :
#
#
# Convention : Reuss Voigt Hill
#
# Bulk Modulus (GPa) = 25.07665 55.28596 40.18131
# Shear Modulus (GPa) = 1.39522 27.55886 14.47704
#
# Velocity S-wave (km/s) = 0.84126 3.73886 2.70987
# Velocity P-wave (km/s) = 3.69643 6.83244 5.49299
#
# Compressibility (1/GPa) = 0.03987774
#
# Stress axis : x y z
#
# Youngs Moduli (GPa) = 58.54316 70.22821 17.29142
#
# Poissons Ratio (x) = 0.41289 0.39569
# Poissons Ratio (y) = 0.34419 -0.07134
# Poissons Ratio (z) = 1.33969 -0.28973
#
# Static dielectric constant tensor:
#      x y z
#    x 1.697640 0.000000 0.000000 
#    y 0.000000 1.780810 0.000000 
#    z 0.000000 0.000000 1.669900 
# 
# From -- ./inp_files/17690.got.cif
#   From: 2010.05.17/outbox.cif.g08.bks.cpg/sg69_9_cif.got.tgz:17690.got - 2010.06.03 19:29:58.
