data_PCOD9512182
_publ_section_title
;
Structure prediction by ZEFSAII (Michael W. Deem and Ramdas Pophale) SiO2 
 PCOD9512182
Probable space group: F M M M
;
_chemical_formula_sum "Si O2"
_cell_formula_units_Z 112
_cell_length_a 18.758368
_cell_length_b 40.959079
_cell_length_c 8.103420
_cell_angle_alpha 90.000000
_cell_angle_beta 90.000000
_cell_angle_gamma 90.000000
_cell_volume 6226.064035
_symmetry_space_group_name_H-M "F M M M"
_symmetry_group_IT_number 69
_symmetry_cell_setting 'orthorhombic'
loop_
_space_group_symop_operation_xyz
x,y,z
-x,-y,z
x,-y,-z
-x,y,-z
-x,-y,-z
x,y,-z
-x,y,z
x,-y,z
x,1/2+y,1/2+z
-x,1/2-y,1/2+z
x,1/2-y,1/2-z
-x,1/2+y,1/2-z
-x,1/2-y,1/2-z
x,1/2+y,1/2-z
-x,1/2+y,1/2+z
x,1/2-y,1/2+z
1/2+x,y,1/2+z
1/2-x,-y,1/2+z
1/2+x,-y,1/2-z
1/2-x,y,1/2-z
1/2-x,-y,1/2-z
1/2+x,y,1/2-z
1/2-x,y,1/2+z
1/2+x,-y,1/2+z
1/2+x,1/2+y,z
1/2-x,1/2-y,z
1/2+x,1/2-y,-z
1/2-x,1/2+y,-z
1/2-x,1/2-y,-z
1/2+x,1/2+y,-z
1/2-x,1/2+y,z
1/2+x,1/2-y,z
loop_
_atom_site_type_symbol
_atom_site_label
_atom_site_fract_x
_atom_site_fract_y
_atom_site_fract_z
Si Si1 0.084022 0.349025 0.300847
Si Si2 0.332175 0.714563 0.196592
Si Si3 0.086901 0.079714 0.315711
Si Si4 0.412935 0.962302 0.500000
O O1 0.091924 0.352225 0.500000
O O2 0.125348 0.316981 0.241548
O O3 0.108518 0.382929 0.220399
O O4 0.000000 0.345093 0.267331
O O5 0.360635 0.750000 0.250000
O O6 0.250000 0.712577 0.250000
O O7 0.334990 0.713742 0.000000
O O8 0.109200 0.069665 0.500000
O O9 0.110275 0.056664 0.165398
O O10 0.000000 0.079512 0.312712
O O11 0.500000 0.961704 0.500000
O O12 0.390916 0.000000 0.500000
#
# Coordination Sequence:
#
# PCOD9512182 Si02
#       4
#    32  32  32  16
#     4   9  17  31  49  67  91 126 163 202 246 289
#     4  10  20  33  49  67  93 127 159 199 249 294
#     4   9  16  26  42  64  90 124 162 197 239 285
#     4   9  16  26  40  60  94 131 158 194 237 286
#
# _framework density 17.988893000000001
#
# number of rings (size 3 to 8) (size 9 to 14) (size 15 to 20)
#    0.000    2.714    1.429    1.714    0.000    3.429 
#    0.000    2.857    0.000    0.000    0.000    0.000 
#    0.000    1.143    0.571    0.000    0.000    0.000 
#
# Total GULP energy -156052.913764 kJ/mol
# GULP energy per Si atom -5573.318349 kJ/mol
# Density = 1.794795 g / cm^3
# Si number density = 17.988893 Si / 1000 Ang^3
#
#
#
# Elastic Constant Matrix: (Units=GPa)
#
#
# Indices 1 2 3 4 5 6 
#
# 1 8.2169 27.6934 17.2577 0.0000 0.0000 0.0000
# 2 27.6934 174.7720 86.2354 0.0000 0.0000 0.0000
# 3 17.2577 86.2354 111.5901 0.0000 -0.0002 0.0001
# 4 0.0000 0.0000 0.0000 13.4730 0.0000 0.0000
# 5 0.0000 0.0000 -0.0002 0.0000 9.4073 0.0000
# 6 0.0000 0.0000 0.0001 0.0000 0.0000 -6.8240
#
#
#
# Elastic Compliance Matrix: (Units=1/GPa)
#
#
# Indices 1 2 3 4 5 6 
#
# 1 0.274596 -0.036459 -0.014292 0.000000 0.000001 0.000000
# 2 -0.036459 0.014089 -0.005249 0.000000 0.000000 0.000000
# 3 -0.014292 -0.005249 0.015228 0.000000 0.000000 0.000000
# 4 0.000000 0.000000 0.000000 0.074223 0.000000 0.000000
# 5 0.000001 0.000000 0.000000 0.000000 0.106300 0.000000
# 6 0.000000 0.000000 0.000000 0.000000 0.000000 -0.146541
#
#
# Mechanical properties :
#
#
# Convention : Reuss Voigt Hill
#
# Bulk Modulus (GPa) = 5.21071 61.88357 33.54714
# Shear Modulus (GPa) = 9.73017 14.10409 11.91713
#
# Velocity S-wave (km/s) = 2.32825 2.80312 2.57664
# Velocity P-wave (km/s) = 3.18285 6.70465 5.24799
#
# Compressibility (1/GPa) = 0.19191243
#
# Stress axis : x y z
#
# Youngs Moduli (GPa) = 3.64172 70.97779 65.66767
#
# Poissons Ratio (x) = 2.58779 0.93852
# Poissons Ratio (y) = 0.13277 0.34470
# Poissons Ratio (z) = 0.05205 0.37258
#
# Static dielectric constant tensor:
#      x y z
#    x 1.588910 0.000000 0.000000 
#    y 0.000000 1.621590 0.000000 
#    z 0.000000 0.000000 1.636530 
# 
# From -- ./inp_files/3965.got.cif
#   From: 2010.05.17/outbox.cif.g08.bks.cpg/sg69_2_cif.got.tgz:3965.got - 2010.06.03 19:29:58.
