data_PCOD9512095
_publ_section_title
;
Structure prediction by ZEFSAII (Michael W. Deem and Ramdas Pophale) SiO2 
 PCOD9512095
Probable space group: F M M M
;
_chemical_formula_sum "Si O2"
_cell_formula_units_Z 176
_cell_length_a 23.384417
_cell_length_b 30.309068
_cell_length_c 14.207582
_cell_angle_alpha 90.000000
_cell_angle_beta 90.000000
_cell_angle_gamma 90.000000
_cell_volume 10069.764184
_symmetry_space_group_name_H-M "F M M M"
_symmetry_group_IT_number 69
_symmetry_cell_setting 'orthorhombic'
loop_
_space_group_symop_operation_xyz
x,y,z
-x,-y,z
x,-y,-z
-x,y,-z
-x,-y,-z
x,y,-z
-x,y,z
x,-y,z
x,1/2+y,1/2+z
-x,1/2-y,1/2+z
x,1/2-y,1/2-z
-x,1/2+y,1/2-z
-x,1/2-y,1/2-z
x,1/2+y,1/2-z
-x,1/2+y,1/2+z
x,1/2-y,1/2+z
1/2+x,y,1/2+z
1/2-x,-y,1/2+z
1/2+x,-y,1/2-z
1/2-x,y,1/2-z
1/2-x,-y,1/2-z
1/2+x,y,1/2-z
1/2-x,y,1/2+z
1/2+x,-y,1/2+z
1/2+x,1/2+y,z
1/2-x,1/2-y,z
1/2+x,1/2-y,-z
1/2-x,1/2+y,-z
1/2-x,1/2-y,-z
1/2+x,1/2+y,-z
1/2-x,1/2+y,z
1/2+x,1/2-y,z
loop_
_atom_site_type_symbol
_atom_site_label
_atom_site_fract_x
_atom_site_fract_y
_atom_site_fract_z
Si Si1 0.623753 0.711443 0.320192
Si Si2 0.686080 0.948269 0.790485
Si Si3 0.197369 0.412483 0.000000
Si Si4 0.000000 0.256901 0.887494
Si Si5 0.500000 0.651870 0.886822
Si Si6 0.194448 0.357342 0.500000
Si Si7 0.621674 0.371720 0.812951
Si Si8 0.308882 0.811628 0.000000
O O1 0.640835 0.750000 0.250000
O O2 0.558099 0.721103 0.349985
O O3 0.629273 0.665425 0.266374
O O4 0.664887 0.710992 0.409343
O O5 0.750000 0.939395 0.750000
O O6 0.644026 0.917162 0.731047
O O7 0.674191 0.000000 0.778131
O O8 0.683638 0.936330 0.901789
O O9 0.170305 0.363207 0.000000
O O10 0.265033 0.400736 0.000000
O O11 0.000000 0.204518 0.863744
O O12 0.000000 0.260332 0.000000
O O13 0.443891 0.629655 0.844485
O O14 0.500000 0.648540 0.000000
O O15 0.157413 0.358248 0.405802
O O16 0.240473 0.317492 0.500000
#
# Coordination Sequence:
#
# PCOD9512095 Si02
#       8
#    32  32  16  16  16  16  32  16
#     4  12  23  38  63  87 124 166 212 263 318 374
#     4  11  22  38  67  99 126 163 206 255 317 380
#     4  10  19  40  64  93 127 162 204 258 308 381
#     4  11  22  40  62  90 117 158 225 282 306 375
#     4  11  23  39  68  88 120 166 217 265 322 363
#     4  10  22  39  64  87 130 163 213 257 313 388
#     4  12  22  41  64  91 127 167 207 265 316 382
#     4  10  22  39  60  89 125 169 198 261 320 369
#
# _framework density 17.478065999999998
#
# number of rings (size 3 to 8) (size 9 to 14) (size 15 to 20)
#    0.545    0.364    7.273    1.091    0.000    0.727 
#    0.000    3.636    0.000    0.545    0.000    1.273 
#    0.000    0.000    0.000    0.000    0.000    0.000 
#
# Total GULP energy -245685.371948 kJ/mol
# GULP energy per Si atom -5583.758453 kJ/mol
# Density = 1.743828 g / cm^3
# Si number density = 17.478066 Si / 1000 Ang^3
#
#
#
# Elastic Constant Matrix: (Units=GPa)
#
#
# Indices 1 2 3 4 5 6 
#
# 1 110.4968 38.2600 66.5056 0.0000 0.0000 0.0000
# 2 38.2600 82.2044 41.1325 0.0000 0.0000 0.0000
# 3 66.5056 41.1325 152.3961 0.0000 0.0000 0.0000
# 4 0.0000 0.0000 0.0000 28.5715 0.0000 0.0000
# 5 0.0000 0.0000 0.0000 0.0000 17.4270 0.0000
# 6 0.0000 0.0000 0.0000 0.0000 0.0000 23.3011
#
#
#
# Elastic Compliance Matrix: (Units=1/GPa)
#
#
# Indices 1 2 3 4 5 6 
#
# 1 0.013215 -0.003775 -0.004748 0.000000 0.000000 0.000000
# 2 -0.003775 0.015142 -0.002440 0.000000 0.000000 0.000000
# 3 -0.004748 -0.002440 0.009292 0.000000 0.000000 0.000000
# 4 0.000000 0.000000 0.000000 0.035000 0.000000 0.000000
# 5 0.000000 0.000000 0.000000 0.000000 0.057382 0.000000
# 6 0.000000 0.000000 0.000000 0.000000 0.000000 0.042916
#
#
# Mechanical properties :
#
#
# Convention : Reuss Voigt Hill
#
# Bulk Modulus (GPa) = 63.59493 70.76596 67.18044
# Shear Modulus (GPa) = 24.98563 27.13986 26.06274
#
# Velocity S-wave (km/s) = 3.78503 3.94483 3.86575
# Velocity P-wave (km/s) = 7.45429 7.83104 7.64499
#
# Compressibility (1/GPa) = 0.01572452
#
# Stress axis : x y z
#
# Youngs Moduli (GPa) = 75.67242 66.03965 107.61447
#
# Poissons Ratio (x) = 0.24928 0.51097
# Poissons Ratio (y) = 0.28564 0.26255
# Poissons Ratio (z) = 0.35930 0.16112
#
# Static dielectric constant tensor:
#      x y z
#    x 1.580780 0.000000 0.000000 
#    y 0.000000 1.581560 0.000000 
#    z 0.000000 0.000000 1.593570 
# 
# From -- ./inp_files/18183.got.cif
#   From: 2010.05.17/outbox.cif.g08.bks.cpg/sg69_10_cif.got.tgz:18183.got - 2010.06.03 19:29:58.
