data_PCOD9512997
_publ_section_title
;
Structure prediction by ZEFSAII (Michael W. Deem and Ramdas Pophale) SiO2 
 PCOD9512997
Probable space group: F M M M
;
_chemical_formula_sum "Si O2"
_cell_formula_units_Z 160
_cell_length_a 14.691351
_cell_length_b 29.128965
_cell_length_c 19.420458
_cell_angle_alpha 90.000000
_cell_angle_beta 90.000000
_cell_angle_gamma 90.000000
_cell_volume 8310.865547
_symmetry_space_group_name_H-M "F M M M"
_symmetry_group_IT_number 69
_symmetry_cell_setting 'orthorhombic'
loop_
_space_group_symop_operation_xyz
x,y,z
-x,-y,z
x,-y,-z
-x,y,-z
-x,-y,-z
x,y,-z
-x,y,z
x,-y,z
x,1/2+y,1/2+z
-x,1/2-y,1/2+z
x,1/2-y,1/2-z
-x,1/2+y,1/2-z
-x,1/2-y,1/2-z
x,1/2+y,1/2-z
-x,1/2+y,1/2+z
x,1/2-y,1/2+z
1/2+x,y,1/2+z
1/2-x,-y,1/2+z
1/2+x,-y,1/2-z
1/2-x,y,1/2-z
1/2-x,-y,1/2-z
1/2+x,y,1/2-z
1/2-x,y,1/2+z
1/2+x,-y,1/2+z
1/2+x,1/2+y,z
1/2-x,1/2-y,z
1/2+x,1/2-y,-z
1/2-x,1/2+y,-z
1/2-x,1/2-y,-z
1/2+x,1/2+y,-z
1/2-x,1/2+y,z
1/2+x,1/2-y,z
loop_
_atom_site_type_symbol
_atom_site_label
_atom_site_fract_x
_atom_site_fract_y
_atom_site_fract_z
Si Si1 0.320168 0.291616 0.923839
Si Si2 0.109338 0.101515 0.209618
Si Si3 0.896338 0.703599 0.720180
Si Si4 0.606597 0.945893 0.852004
Si Si5 0.230833 0.895806 0.078468
O O1 0.250000 0.250000 0.915451
O O2 0.390944 0.291395 0.861993
O O3 0.268317 0.340333 0.919508
O O4 0.361526 0.288524 0.000000
O O5 0.140703 0.152637 0.234114
O O6 0.127350 0.067474 0.272651
O O7 0.159980 0.090046 0.138542
O O8 0.000000 0.103496 0.197937
O O9 0.853136 0.750000 0.750000
O O10 0.000000 0.702487 0.745919
O O11 0.500000 0.935009 0.863520
O O12 0.673062 0.917357 0.900695
O O13 0.619923 0.000000 0.862378
O O14 0.205442 0.908854 0.000000
#
# Coordination Sequence:
#
# PCOD9512997 Si02
#       5
#    32  32  32  32  32
#     4   9  19  34  49  71 107 146 181 219 270 331
#     4   9  19  36  57  82 113 147 187 233 281 338
#     4   9  18  31  50  77 105 137 180 228 273 320
#     4  10  22  40  61  83 111 149 191 238 289 341
#     4  10  21  36  56  83 113 147 189 235 284 339
#
# _framework density 19.251905000000001
#
# number of rings (size 3 to 8) (size 9 to 14) (size 15 to 20)
#    0.000    2.600    0.000    0.600    2.800    3.600 
#    0.000    5.000    0.000    3.600    0.000    4.200 
#    0.000    0.000    0.000    0.000    0.000    0.000 
#
# Total GULP energy -222951.351261 kJ/mol
# GULP energy per Si atom -5573.783782 kJ/mol
# Density = 1.920809 g / cm^3
# Si number density = 19.251905 Si / 1000 Ang^3
#
#
#
# Elastic Constant Matrix: (Units=GPa)
#
#
# Indices 1 2 3 4 5 6 
#
# 1 63.3146 27.1775 24.8557 0.0000 0.0000 0.0000
# 2 27.1775 39.2970 27.9528 0.0000 0.0000 0.0000
# 3 24.8557 27.9528 62.8050 0.0000 0.0000 0.0000
# 4 0.0000 0.0000 0.0000 22.6565 0.0000 0.0000
# 5 0.0000 0.0000 0.0000 0.0000 31.8447 0.0000
# 6 0.0000 0.0000 0.0000 0.0000 0.0000 9.7686
#
#
#
# Elastic Compliance Matrix: (Units=1/GPa)
#
#
# Indices 1 2 3 4 5 6 
#
# 1 0.022827 -0.013697 -0.002938 0.000000 0.000000 0.000000
# 2 -0.013697 0.045455 -0.014810 0.000000 0.000000 0.000000
# 3 -0.002938 -0.014810 0.023676 0.000000 0.000000 0.000000
# 4 0.000000 0.000000 0.000000 0.044137 0.000000 0.000000
# 5 0.000000 0.000000 0.000000 0.000000 0.031402 0.000000
# 6 0.000000 0.000000 0.000000 0.000000 0.000000 0.102369
#
#
# Mechanical properties :
#
#
# Convention : Reuss Voigt Hill
#
# Bulk Modulus (GPa) = 34.40159 36.15428 35.27794
# Shear Modulus (GPa) = 14.60084 18.54933 16.57509
#
# Velocity S-wave (km/s) = 2.75691 3.10741 2.93739
# Velocity P-wave (km/s) = 5.29548 5.62983 5.46521
#
# Compressibility (1/GPa) = 0.02906843
#
# Stress axis : x y z
#
# Youngs Moduli (GPa) = 43.80798 21.99989 42.23619
#
# Poissons Ratio (x) = 0.30134 0.12408
# Poissons Ratio (y) = 0.60005 0.62551
# Poissons Ratio (z) = 0.12869 0.32581
#
# Static dielectric constant tensor:
#      x y z
#    x 1.683670 0.000000 0.000000 
#    y 0.000000 1.687220 0.000000 
#    z 0.000000 0.000000 1.678610 
# 
# From -- ./inp_files/23429.got.cif
#   From: 2010.05.17/outbox.cif.g08.bks.cpg/sg69_12_cif.got.tgz:23429.got - 2010.06.03 19:29:58.
