data_PCOD9512199
_publ_section_title
;
Structure prediction by ZEFSAII (Michael W. Deem and Ramdas Pophale) SiO2 
 PCOD9512199
Probable space group: F M M M
;
_chemical_formula_sum "Si O2"
_cell_formula_units_Z 192
_cell_length_a 31.440451
_cell_length_b 19.391534
_cell_length_c 18.848583
_cell_angle_alpha 90.000000
_cell_angle_beta 90.000000
_cell_angle_gamma 90.000000
_cell_volume 11491.577216
_symmetry_space_group_name_H-M "F M M M"
_symmetry_group_IT_number 69
_symmetry_cell_setting 'orthorhombic'
loop_
_space_group_symop_operation_xyz
x,y,z
-x,-y,z
x,-y,-z
-x,y,-z
-x,-y,-z
x,y,-z
-x,y,z
x,-y,z
x,1/2+y,1/2+z
-x,1/2-y,1/2+z
x,1/2-y,1/2-z
-x,1/2+y,1/2-z
-x,1/2-y,1/2-z
x,1/2+y,1/2-z
-x,1/2+y,1/2+z
x,1/2-y,1/2+z
1/2+x,y,1/2+z
1/2-x,-y,1/2+z
1/2+x,-y,1/2-z
1/2-x,y,1/2-z
1/2-x,-y,1/2-z
1/2+x,y,1/2-z
1/2-x,y,1/2+z
1/2+x,-y,1/2+z
1/2+x,1/2+y,z
1/2-x,1/2-y,z
1/2+x,1/2-y,-z
1/2-x,1/2+y,-z
1/2-x,1/2-y,-z
1/2+x,1/2+y,-z
1/2-x,1/2+y,z
1/2+x,1/2-y,z
loop_
_atom_site_type_symbol
_atom_site_label
_atom_site_fract_x
_atom_site_fract_y
_atom_site_fract_z
Si Si1 0.327245 0.580999 0.846836
Si Si2 0.549250 0.179546 0.705002
Si Si3 0.849439 0.345825 0.917504
Si Si4 0.614379 0.581300 0.716126
Si Si5 0.384699 0.305570 0.917665
Si Si6 0.739093 0.919585 0.917271
O O1 0.334484 0.500000 0.862678
O O2 0.344217 0.592988 0.766921
O O3 0.355474 0.630144 0.895812
O O4 0.278058 0.594605 0.864600
O O5 0.500000 0.161023 0.695140
O O6 0.551449 0.250000 0.750000
O O7 0.575733 0.121422 0.746775
O O8 0.574006 0.192632 0.631841
O O9 0.876728 0.388390 0.861148
O O10 0.858575 0.265187 0.904913
O O11 0.800733 0.369472 0.907160
O O12 0.859974 0.360829 0.000000
O O13 0.606647 0.500000 0.713508
O O14 0.395823 0.308368 0.000000
O O15 0.725656 0.000000 0.907581
O O16 0.753393 0.913245 0.000000
#
# Coordination Sequence:
#
# PCOD9512199 Si02
#       6
#    32  32  32  32  32  32
#     4   9  19  33  51  76 105 141 182 222 263 310
#     4  10  20  37  59  79 103 135 168 211 264 316
#     4  10  20  33  50  76 107 141 182 222 261 309
#     4  10  20  35  56  79 105 139 176 217 265 317
#     4  10  20  34  55  80 107 139 174 214 263 319
#     4   9  17  30  48  71 104 145 183 219 262 308
#
# _framework density 16.707889000000002
#
# number of rings (size 3 to 8) (size 9 to 14) (size 15 to 20)
#    0.000    2.333    1.667    1.000    0.000    4.000 
#    0.000    5.000    0.000    2.500    0.000    5.833 
#    0.000    0.000    0.000    0.000    0.000    0.000 
#
# Total GULP energy -267654.592655 kJ/mol
# GULP energy per Si atom -5576.137347 kJ/mol
# Density = 1.666986 g / cm^3
# Si number density = 16.707889 Si / 1000 Ang^3
#
#
#
# Elastic Constant Matrix: (Units=GPa)
#
#
# Indices 1 2 3 4 5 6 
#
# 1 107.3183 55.9143 68.9680 0.0000 0.0000 0.0000
# 2 55.9143 78.7023 65.6465 0.0000 0.0000 0.0000
# 3 68.9680 65.6465 96.4245 0.0000 0.0000 0.0000
# 4 0.0000 0.0000 0.0000 14.4019 0.0000 0.0000
# 5 0.0000 0.0000 0.0000 0.0000 16.4003 0.0000
# 6 0.0000 0.0000 0.0000 0.0000 0.0000 49.0846
#
#
#
# Elastic Compliance Matrix: (Units=1/GPa)
#
#
# Indices 1 2 3 4 5 6 
#
# 1 0.017977 -0.004736 -0.009633 0.000000 0.000000 0.000000
# 2 -0.004736 0.030651 -0.017480 0.000000 0.000000 0.000000
# 3 -0.009633 -0.017480 0.029162 0.000000 0.000000 0.000000
# 4 0.000000 0.000000 0.000000 0.069435 0.000000 0.000000
# 5 0.000000 0.000000 0.000000 0.000000 0.060974 0.000000
# 6 0.000000 0.000000 0.000000 0.000000 0.000000 0.020373
#
#
# Mechanical properties :
#
#
# Convention : Reuss Voigt Hill
#
# Bulk Modulus (GPa) = 70.97088 73.72252 72.34670
# Shear Modulus (GPa) = 16.83681 22.10511 19.47096
#
# Velocity S-wave (km/s) = 3.17790 3.64130 3.41746
# Velocity P-wave (km/s) = 7.48566 7.86759 7.67900
#
# Compressibility (1/GPa) = 0.01409029
#
# Stress axis : x y z
#
# Youngs Moduli (GPa) = 55.62789 32.62503 34.29162
#
# Poissons Ratio (x) = 0.15452 0.33034
# Poissons Ratio (y) = 0.26347 0.59942
# Poissons Ratio (z) = 0.53588 0.57029
#
# Static dielectric constant tensor:
#      x y z
#    x 1.538530 0.000000 0.000000 
#    y 0.000000 1.549880 0.000000 
#    z 0.000000 0.000000 1.566480 
# 
# From -- ./inp_files/33525.got.cif
#   From: 2010.05.17/outbox.cif.g08.bks.cpg/sg69_17_cif.got.tgz:33525.got - 2010.06.03 19:29:58.
