data_PCOD9512855
_publ_section_title
;
Structure prediction by ZEFSAII (Michael W. Deem and Ramdas Pophale) SiO2 
 PCOD9512855
Probable space group: F M M M
;
_chemical_formula_sum "Si O2"
_cell_formula_units_Z 152
_cell_length_a 19.382150
_cell_length_b 13.642108
_cell_length_c 27.505284
_cell_angle_alpha 90.000000
_cell_angle_beta 90.000000
_cell_angle_gamma 90.000000
_cell_volume 7272.765209
_symmetry_space_group_name_H-M "F M M M"
_symmetry_group_IT_number 69
_symmetry_cell_setting 'orthorhombic'
loop_
_space_group_symop_operation_xyz
x,y,z
-x,-y,z
x,-y,-z
-x,y,-z
-x,-y,-z
x,y,-z
-x,y,z
x,-y,z
x,1/2+y,1/2+z
-x,1/2-y,1/2+z
x,1/2-y,1/2-z
-x,1/2+y,1/2-z
-x,1/2-y,1/2-z
x,1/2+y,1/2-z
-x,1/2+y,1/2+z
x,1/2-y,1/2+z
1/2+x,y,1/2+z
1/2-x,-y,1/2+z
1/2+x,-y,1/2-z
1/2-x,y,1/2-z
1/2-x,-y,1/2-z
1/2+x,y,1/2-z
1/2-x,y,1/2+z
1/2+x,-y,1/2+z
1/2+x,1/2+y,z
1/2-x,1/2-y,z
1/2+x,1/2-y,-z
1/2-x,1/2+y,-z
1/2-x,1/2-y,-z
1/2+x,1/2+y,-z
1/2-x,1/2+y,z
1/2+x,1/2-y,z
loop_
_atom_site_type_symbol
_atom_site_label
_atom_site_fract_x
_atom_site_fract_y
_atom_site_fract_z
Si Si1 0.381520 0.000000 0.360224
Si Si2 0.000000 0.675842 0.206398
Si Si3 0.335577 0.187121 0.601770
Si Si4 0.000000 0.500000 0.720048
Si Si5 0.846970 0.704379 0.804745
Si Si6 0.191326 0.887406 0.558212
Si Si7 0.732876 0.500000 0.693264
O O1 0.389188 0.098286 0.392282
O O2 0.433906 0.000000 0.315129
O O3 0.303152 0.000000 0.338331
O O4 0.000000 0.750000 0.250000
O O5 0.072664 0.689530 0.180775
O O6 0.000000 0.583397 0.240497
O O7 0.319659 0.216425 0.657418
O O8 0.268792 0.140895 0.575382
O O9 0.351495 0.292606 0.577193
O O10 0.840860 0.750000 0.750000
O O11 0.810900 0.599864 0.812687
O O12 0.188595 0.887689 0.500000
O O13 0.175109 0.000000 0.574739
O O14 0.750000 0.500000 0.750000
#
# Coordination Sequence:
#
# PCOD9512855 Si02
#       7
#    16  16  32   8  32  32  16
#     4  12  24  38  58  91 124 169 204 271 316 385
#     4  10  20  40  56  78 116 179 235 253 289 369
#     4  11  21  36  59  90 127 159 214 260 317 371
#     4  12  24  44  64  80 125 188 237 256 314 384
#     4  11  24  37  56  85 126 175 214 266 307 370
#     4  10  21  40  64  93 132 170 204 261 336 407
#     4  12  22  33  51  79 117 153 210 261 320 347
#
# _framework density 20.899891
#
# number of rings (size 3 to 8) (size 9 to 14) (size 15 to 20)
#    0.000    1.053    1.053    9.474    1.474    2.105 
#    0.000    1.053    0.000    0.000    0.000   14.737 
#    0.000    6.737    0.000    0.000    0.000    0.000 
#
# Total GULP energy -211929.317582 kJ/mol
# GULP energy per Si atom -5577.087305 kJ/mol
# Density = 2.085232 g / cm^3
# Si number density = 20.899891 Si / 1000 Ang^3
#
#
#
# Elastic Constant Matrix: (Units=GPa)
#
#
# Indices 1 2 3 4 5 6 
#
# 1 86.9154 13.6846 2.6567 0.0000 0.0000 0.0000
# 2 13.6846 195.7237 35.6442 0.0000 0.0000 0.0000
# 3 2.6567 35.6442 86.3655 0.0000 0.0000 0.0000
# 4 0.0000 0.0000 0.0000 481.9500 0.0000 0.0000
# 5 0.0000 0.0000 0.0000 0.0000 12.0266 0.0000
# 6 0.0000 0.0000 0.0000 0.0000 0.0000 18.4007
#
#
#
# Elastic Compliance Matrix: (Units=1/GPa)
#
#
# Indices 1 2 3 4 5 6 
#
# 1 0.011634 -0.000809 -0.000024 0.000000 0.000000 0.000000
# 2 -0.000809 0.005581 -0.002278 0.000000 0.000000 0.000000
# 3 -0.000024 -0.002278 0.012520 0.000000 0.000000 0.000000
# 4 0.000000 0.000000 0.000000 0.002075 0.000000 0.000000
# 5 0.000000 0.000000 0.000000 0.000000 0.083149 0.000000
# 6 0.000000 0.000000 0.000000 0.000000 0.000000 0.054346
#
#
# Mechanical properties :
#
#
# Convention : Reuss Voigt Hill
#
# Bulk Modulus (GPa) = 42.53270 52.55285 47.54277
# Shear Modulus (GPa) = 27.26828 123.61008 75.43918
#
# Velocity S-wave (km/s) = 3.61599 7.69885 6.01447
# Velocity P-wave (km/s) = 6.15051 10.20928 8.42787
#
# Compressibility (1/GPa) = 0.02351132
#
# Stress axis : x y z
#
# Youngs Moduli (GPa) = 85.95830 179.18793 79.87389
#
# Poissons Ratio (x) = 0.14497 0.00191
# Poissons Ratio (y) = 0.06954 0.18198
# Poissons Ratio (z) = 0.00206 0.40825
#
# Static dielectric constant tensor:
#      x y z
#    x 1.792980 0.000000 0.000000 
#    y 0.000000 1.863930 0.000000 
#    z 0.000000 0.000000 1.743120 
# 
# From -- ./inp_files/42580.got.cif
#   From: 2010.05.17/outbox.cif.g08.bks.cpg/sg69_22_cif.got.tgz:42580.got - 2010.06.03 19:29:58.
