data_PCOD9512721
_publ_section_title
;
Structure prediction by ZEFSAII (Michael W. Deem and Ramdas Pophale) SiO2 
 PCOD9512721
Probable space group: F M M M
;
_chemical_formula_sum "Si O2"
_cell_formula_units_Z 224
_cell_length_a 30.765021
_cell_length_b 22.702267
_cell_length_c 17.212217
_cell_angle_alpha 90.000000
_cell_angle_beta 90.000000
_cell_angle_gamma 90.000000
_cell_volume 12021.627190
_symmetry_space_group_name_H-M "F M M M"
_symmetry_group_IT_number 69
_symmetry_cell_setting 'orthorhombic'
loop_
_space_group_symop_operation_xyz
x,y,z
-x,-y,z
x,-y,-z
-x,y,-z
-x,-y,-z
x,y,-z
-x,y,z
x,-y,z
x,1/2+y,1/2+z
-x,1/2-y,1/2+z
x,1/2-y,1/2-z
-x,1/2+y,1/2-z
-x,1/2-y,1/2-z
x,1/2+y,1/2-z
-x,1/2+y,1/2+z
x,1/2-y,1/2+z
1/2+x,y,1/2+z
1/2-x,-y,1/2+z
1/2+x,-y,1/2-z
1/2-x,y,1/2-z
1/2-x,-y,1/2-z
1/2+x,y,1/2-z
1/2-x,y,1/2+z
1/2+x,-y,1/2+z
1/2+x,1/2+y,z
1/2-x,1/2-y,z
1/2+x,1/2-y,-z
1/2-x,1/2+y,-z
1/2-x,1/2-y,-z
1/2+x,1/2+y,-z
1/2-x,1/2+y,z
1/2+x,1/2-y,z
loop_
_atom_site_type_symbol
_atom_site_label
_atom_site_fract_x
_atom_site_fract_y
_atom_site_fract_z
Si Si1 0.798706 0.224192 0.589282
Si Si2 0.128867 0.820998 0.906155
Si Si3 0.320671 0.932461 0.407193
Si Si4 0.449828 0.250656 0.657362
Si Si5 0.552242 0.375650 0.410945
Si Si6 0.918528 0.500000 0.089362
Si Si7 0.231938 0.608810 0.162842
Si Si8 0.684621 0.500000 0.589918
O O1 0.809337 0.206263 0.500000
O O2 0.750000 0.250000 0.588146
O O3 0.833402 0.273463 0.614320
O O4 0.794266 0.168032 0.644286
O O5 0.143117 0.886100 0.878430
O O6 0.083329 0.797562 0.874639
O O7 0.127346 0.822154 0.000000
O O8 0.325168 0.936478 0.500000
O O9 0.274900 0.900948 0.389532
O O10 0.321339 0.000000 0.376421
O O11 0.500000 0.242106 0.630590
O O12 0.449803 0.250000 0.750000
O O13 0.434373 0.315371 0.630015
O O14 0.568606 0.373222 0.500000
O O15 0.500000 0.375966 0.412222
O O16 0.566680 0.437925 0.375343
O O17 0.866959 0.500000 0.085812
O O18 0.936514 0.500000 0.000000
O O19 0.250000 0.606625 0.250000
O O20 0.201358 0.555701 0.137352
O O21 0.701422 0.500000 0.500000
#
# Coordination Sequence:
#
# PCOD9512721 Si02
#       8
#    32  32  32  32  32  16  32  16
#     4  10  20  37  58  81 112 148 189 233 283 341
#     4  10  21  37  61  88 109 143 195 241 283 336
#     4  10  20  38  60  78 105 149 194 233 282 343
#     4  10  22  39  58  82 117 153 186 229 291 351
#     4   9  17  33  57  82 110 147 186 226 275 338
#     4   9  19  33  52  85 116 141 183 232 279 331
#     4  12  24  36  52  79 114 151 192 236 281 333
#     4  11  23  38  55  76 110 155 194 232 280 328
#
# _framework density 18.633085000000001
#
# number of rings (size 3 to 8) (size 9 to 14) (size 15 to 20)
#    0.000    1.857    2.143    2.143    2.000    3.143 
#    0.000    0.000    0.000    0.429    0.000    2.000 
#    0.000    0.000    0.000    0.000    0.000    0.000 
#
# Total GULP energy -312396.183722 kJ/mol
# GULP energy per Si atom -5578.503281 kJ/mol
# Density = 1.859068 g / cm^3
# Si number density = 18.633085 Si / 1000 Ang^3
#
#
#
# Elastic Constant Matrix: (Units=GPa)
#
#
# Indices 1 2 3 4 5 6 
#
# 1 67.0846 35.9167 -0.2478 0.0000 0.0000 0.0000
# 2 35.9167 116.7718 28.0832 0.0000 0.0000 0.0000
# 3 -0.2478 28.0832 34.1223 0.0000 0.0000 0.0000
# 4 0.0000 0.0000 0.0000 -76.2910 0.0000 0.0000
# 5 0.0000 0.0000 0.0000 0.0000 19.0361 0.0000
# 6 0.0000 0.0000 0.0000 0.0000 0.0000 32.6728
#
#
#
# Elastic Compliance Matrix: (Units=1/GPa)
#
#
# Indices 1 2 3 4 5 6 
#
# 1 0.018814 -0.007256 0.006108 0.000000 0.000000 0.000000
# 2 -0.007256 0.013475 -0.011143 0.000000 0.000000 0.000000
# 3 0.006108 -0.011143 0.038522 0.000000 0.000000 0.000000
# 4 0.000000 0.000000 0.000000 -0.013108 0.000000 0.000000
# 5 0.000000 0.000000 0.000000 0.000000 0.052532 0.000000
# 6 0.000000 0.000000 0.000000 0.000000 0.000000 0.030606
#
#
# Mechanical properties :
#
#
# Convention : Reuss Voigt Hill
#
# Bulk Modulus (GPa) = 21.63122 38.38700 30.00911
# Shear Modulus (GPa) = 27.64992 5.36536 16.50764
#
# Velocity S-wave (km/s) = 3.85634 1.69874 2.97969
# Velocity P-wave (km/s) = 5.60916 4.94913 5.28945
#
# Compressibility (1/GPa) = 0.04622949
#
# Stress axis : x y z
#
# Youngs Moduli (GPa) = 53.15248 74.20984 25.95945
#
# Poissons Ratio (x) = 0.53845 -0.15857
# Poissons Ratio (y) = 0.38566 0.28927
# Poissons Ratio (z) = -0.32467 0.82693
#
# Static dielectric constant tensor:
#      x y z
#    x 1.631960 0.000000 0.000000 
#    y 0.000000 1.698010 0.000000 
#    z 0.000000 0.000000 1.627720 
# 
# From -- ./inp_files/27976.got.cif
#   From: 2010.05.17/outbox.cif.g08.bks.cpg/sg69_14_cif.got.tgz:27976.got - 2010.06.03 19:29:58.
