data_PCOD9512446
_publ_section_title
;
Structure prediction by ZEFSAII (Michael W. Deem and Ramdas Pophale) SiO2 
 PCOD9512446
Probable space group: F M M M
;
_chemical_formula_sum "Si O2"
_cell_formula_units_Z 176
_cell_length_a 25.144047
_cell_length_b 18.550589
_cell_length_c 18.637957
_cell_angle_alpha 90.000000
_cell_angle_beta 90.000000
_cell_angle_gamma 90.000000
_cell_volume 8693.430544
_symmetry_space_group_name_H-M "F M M M"
_symmetry_group_IT_number 69
_symmetry_cell_setting 'orthorhombic'
loop_
_space_group_symop_operation_xyz
x,y,z
-x,-y,z
x,-y,-z
-x,y,-z
-x,-y,-z
x,y,-z
-x,y,z
x,-y,z
x,1/2+y,1/2+z
-x,1/2-y,1/2+z
x,1/2-y,1/2-z
-x,1/2+y,1/2-z
-x,1/2-y,1/2-z
x,1/2+y,1/2-z
-x,1/2+y,1/2+z
x,1/2-y,1/2+z
1/2+x,y,1/2+z
1/2-x,-y,1/2+z
1/2+x,-y,1/2-z
1/2-x,y,1/2-z
1/2-x,-y,1/2-z
1/2+x,y,1/2-z
1/2-x,y,1/2+z
1/2+x,-y,1/2+z
1/2+x,1/2+y,z
1/2-x,1/2-y,z
1/2+x,1/2-y,-z
1/2-x,1/2+y,-z
1/2-x,1/2-y,-z
1/2+x,1/2+y,-z
1/2-x,1/2+y,z
1/2+x,1/2-y,z
loop_
_atom_site_type_symbol
_atom_site_label
_atom_site_fract_x
_atom_site_fract_y
_atom_site_fract_z
Si Si1 0.337624 0.622065 0.916076
Si Si2 0.435424 0.000000 0.918764
Si Si3 0.562015 0.354409 0.334762
Si Si4 0.722856 0.921723 0.087222
Si Si5 0.150476 0.212307 0.415801
Si Si6 0.439606 0.585439 0.177680
O O1 0.284089 0.584302 0.888747
O O2 0.326616 0.707692 0.911180
O O3 0.391533 0.602468 0.875426
O O4 0.344434 0.603841 0.000000
O O5 0.421545 0.072774 0.877295
O O6 0.500000 0.000000 0.921992
O O7 0.414292 0.000000 0.000000
O O8 0.500000 0.340791 0.349038
O O9 0.598478 0.292579 0.366814
O O10 0.568065 0.370227 0.250947
O O11 0.689818 0.851379 0.108689
O O12 0.700713 0.000000 0.109081
O O13 0.723859 0.919879 0.000000
O O14 0.137003 0.199658 0.500000
O O15 0.500000 0.600307 0.150565
O O16 0.438171 0.500000 0.195480
#
# Coordination Sequence:
#
# PCOD9512446 Si02
#       6
#    32  16  32  32  32  32
#     4  10  21  38  58  82 114 151 189 235 288 336
#     4   9  16  28  50  78 106 141 181 221 268 323
#     4  10  20  35  54  79 115 153 185 225 280 338
#     4   9  18  34  58  85 111 143 186 236 288 340
#     4  10  21  35  56  86 118 149 185 231 281 342
#     4  10  21  38  59  82 111 149 194 240 285 335
#
# _framework density 20.245172
#
# number of rings (size 3 to 8) (size 9 to 14) (size 15 to 20)
#    0.000    2.273    0.909    1.636    1.273    6.182 
#    0.000    5.455    0.000    4.364    0.000    0.000 
#    0.000    0.000    0.000    0.000    0.000    0.000 
#
# Total GULP energy -245687.086634 kJ/mol
# GULP energy per Si atom -5583.797424 kJ/mol
# Density = 2.019909 g / cm^3
# Si number density = 20.245172 Si / 1000 Ang^3
#
#
#
# Elastic Constant Matrix: (Units=GPa)
#
#
# Indices 1 2 3 4 5 6 
#
# 1 100.1715 24.3198 33.5856 0.0000 0.0000 0.0000
# 2 24.3198 55.3775 8.2491 0.0000 0.0000 0.0000
# 3 33.5856 8.2491 32.8748 0.0000 0.0000 0.0000
# 4 0.0000 0.0000 0.0000 20.1735 0.0000 0.0000
# 5 0.0000 0.0000 0.0000 0.0000 12.1723 0.0000
# 6 0.0000 0.0000 0.0000 0.0000 0.0000 31.1977
#
#
#
# Elastic Compliance Matrix: (Units=1/GPa)
#
#
# Indices 1 2 3 4 5 6 
#
# 1 0.016361 -0.004878 -0.015491 0.000000 0.000000 0.000000
# 2 -0.004878 0.020213 -0.000089 0.000000 0.000000 0.000000
# 3 -0.015491 -0.000089 0.046266 0.000000 0.000000 0.000000
# 4 0.000000 0.000000 0.000000 0.049570 0.000000 0.000000
# 5 0.000000 0.000000 0.000000 0.000000 0.082154 0.000000
# 6 0.000000 0.000000 0.000000 0.000000 0.000000 0.032054
#
#
# Mechanical properties :
#
#
# Convention : Reuss Voigt Hill
#
# Bulk Modulus (GPa) = 23.85155 35.63697 29.74426
# Shear Modulus (GPa) = 16.58333 20.85998 18.72166
#
# Velocity S-wave (km/s) = 2.86514 3.21342 3.04426
# Velocity P-wave (km/s) = 4.76994 5.60437 5.20391
#
# Compressibility (1/GPa) = 0.04192600
#
# Stress axis : x y z
#
# Youngs Moduli (GPa) = 61.12183 49.47273 21.61397
#
# Poissons Ratio (x) = 0.24131 0.33481
# Poissons Ratio (y) = 0.29812 0.00192
# Poissons Ratio (z) = 0.94682 0.00440
#
# Static dielectric constant tensor:
#      x y z
#    x 1.718060 0.000000 0.000000 
#    y 0.000000 1.737410 0.000000 
#    z 0.000000 0.000000 1.678240 
# 
# From -- ./inp_files/26778.got.cif
#   From: 2010.05.17/outbox.cif.g08.bks.cpg/sg69_14_cif.got.tgz:26778.got - 2010.06.03 19:29:58.
