data_PCOD9512704
_publ_section_title
;
Structure prediction by ZEFSAII (Michael W. Deem and Ramdas Pophale) SiO2 
 PCOD9512704
Probable space group: F M M M
;
_chemical_formula_sum "Si O2"
_cell_formula_units_Z 128
_cell_length_a 17.928760
_cell_length_b 20.651908
_cell_length_c 17.773606
_cell_angle_alpha 90.000000
_cell_angle_beta 90.000000
_cell_angle_gamma 90.000000
_cell_volume 6580.910493
_symmetry_space_group_name_H-M "F M M M"
_symmetry_group_IT_number 69
_symmetry_cell_setting 'orthorhombic'
loop_
_space_group_symop_operation_xyz
x,y,z
-x,-y,z
x,-y,-z
-x,y,-z
-x,-y,-z
x,y,-z
-x,y,z
x,-y,z
x,1/2+y,1/2+z
-x,1/2-y,1/2+z
x,1/2-y,1/2-z
-x,1/2+y,1/2-z
-x,1/2-y,1/2-z
x,1/2+y,1/2-z
-x,1/2+y,1/2+z
x,1/2-y,1/2+z
1/2+x,y,1/2+z
1/2-x,-y,1/2+z
1/2+x,-y,1/2-z
1/2-x,y,1/2-z
1/2-x,-y,1/2-z
1/2+x,y,1/2-z
1/2-x,y,1/2+z
1/2+x,-y,1/2+z
1/2+x,1/2+y,z
1/2-x,1/2-y,z
1/2+x,1/2-y,-z
1/2-x,1/2+y,-z
1/2-x,1/2-y,-z
1/2+x,1/2+y,-z
1/2-x,1/2+y,z
1/2+x,1/2-y,z
loop_
_atom_site_type_symbol
_atom_site_label
_atom_site_fract_x
_atom_site_fract_y
_atom_site_fract_z
Si Si1 0.610622 0.500000 0.086599
Si Si2 0.123002 0.140248 0.089472
Si Si3 0.291719 0.000000 0.087639
Si Si4 0.580531 0.728356 0.336504
Si Si5 0.718273 0.367847 0.335665
O O1 0.592247 0.570766 0.120182
O O2 0.700997 0.500000 0.085236
O O3 0.584350 0.500000 0.000000
O O4 0.084785 0.205172 0.117222
O O5 0.208996 0.146799 0.114459
O O6 0.118765 0.135791 0.000000
O O7 0.312301 0.936418 0.134564
O O8 0.316367 0.000000 0.000000
O O9 0.500000 0.696236 0.351893
O O10 0.582136 0.750000 0.250000
O O11 0.653040 0.684122 0.346744
O O12 0.750000 0.370188 0.250000
#
# Coordination Sequence:
#
# PCOD9512704 Si02
#       5
#    16  32  16  32  32
#     4   7  14  31  54  85 115 139 180 243 297 334
#     4  10  20  36  62  90 118 152 198 250 297 348
#     4   9  19  35  58  91 123 145 187 249 299 346
#     4  11  24  40  55  82 125 162 197 243 295 353
#     4  11  20  36  63  89 116 155 199 244 297 357
#
# _framework density 19.450195999999998
#
# number of rings (size 3 to 8) (size 9 to 14) (size 15 to 20)
#    0.000    2.000    2.500    3.375    0.000    3.500 
#    0.000    1.250    0.000    6.000    0.000    0.000 
#    0.000    1.000    0.000    0.000    0.000    0.000 
#
# Total GULP energy -178383.553102 kJ/mol
# GULP energy per Si atom -5574.486034 kJ/mol
# Density = 1.940593 g / cm^3
# Si number density = 19.450196 Si / 1000 Ang^3
#
#
#
# Elastic Constant Matrix: (Units=GPa)
#
#
# Indices 1 2 3 4 5 6 
#
# 1 97.5035 66.5698 15.9015 0.0000 0.0000 0.0000
# 2 66.5698 146.8563 51.3718 0.0000 0.0000 0.0000
# 3 15.9015 51.3718 74.5064 0.0000 0.0000 0.0000
# 4 0.0000 0.0000 0.0000 28.4727 0.0000 0.0000
# 5 0.0000 0.0000 0.0000 0.0000 61.0592 0.0000
# 6 0.0000 0.0000 0.0000 0.0000 0.0000 -13.1534
#
#
#
# Elastic Compliance Matrix: (Units=1/GPa)
#
#
# Indices 1 2 3 4 5 6 
#
# 1 0.015069 -0.007519 0.001968 0.000000 0.000000 0.000000
# 2 -0.007519 0.012726 -0.007170 0.000000 0.000000 0.000000
# 3 0.001968 -0.007170 0.017945 0.000000 0.000000 0.000000
# 4 0.000000 0.000000 0.000000 0.035121 0.000000 0.000000
# 5 0.000000 0.000000 0.000000 0.000000 0.016378 0.000000
# 6 0.000000 0.000000 0.000000 0.000000 0.000000 -0.076026
#
#
# Mechanical properties :
#
#
# Convention : Reuss Voigt Hill
#
# Bulk Modulus (GPa) = 49.26419 65.17249 57.21834
# Shear Modulus (GPa) = 93.59930 27.61058 60.60494
#
# Velocity S-wave (km/s) = 6.94457 3.77178 5.58808
# Velocity P-wave (km/s) = 9.47027 7.24904 8.43311
#
# Compressibility (1/GPa) = 0.02029872
#
# Stress axis : x y z
#
# Youngs Moduli (GPa) = 66.36272 78.58032 55.72589
#
# Poissons Ratio (x) = 0.59086 -0.10969
# Poissons Ratio (y) = 0.49899 0.39953
# Poissons Ratio (z) = -0.13063 0.56339
#
# Static dielectric constant tensor:
#      x y z
#    x 1.688480 0.000000 0.000000 
#    y 0.000000 1.769660 0.000000 
#    z 0.000000 0.000000 1.675600 
# 
# From -- ./inp_files/31621.got.cif
#   From: 2010.05.17/outbox.cif.g08.bks.cpg/sg69_16_cif.got.tgz:31621.got - 2010.06.03 19:29:58.
