data_PCOD9512359
_publ_section_title
;
Structure prediction by ZEFSAII (Michael W. Deem and Ramdas Pophale) SiO2 
 PCOD9512359
Probable space group: F M M M
;
_chemical_formula_sum "Si O2"
_cell_formula_units_Z 200
_cell_length_a 26.006027
_cell_length_b 17.419432
_cell_length_c 24.130547
_cell_angle_alpha 90.000000
_cell_angle_beta 90.000000
_cell_angle_gamma 90.000000
_cell_volume 10931.384379
_symmetry_space_group_name_H-M "F M M M"
_symmetry_group_IT_number 69
_symmetry_cell_setting 'orthorhombic'
loop_
_space_group_symop_operation_xyz
x,y,z
-x,-y,z
x,-y,-z
-x,y,-z
-x,-y,-z
x,y,-z
-x,y,z
x,-y,z
x,1/2+y,1/2+z
-x,1/2-y,1/2+z
x,1/2-y,1/2-z
-x,1/2+y,1/2-z
-x,1/2-y,1/2-z
x,1/2+y,1/2-z
-x,1/2+y,1/2+z
x,1/2-y,1/2+z
1/2+x,y,1/2+z
1/2-x,-y,1/2+z
1/2+x,-y,1/2-z
1/2-x,y,1/2-z
1/2-x,-y,1/2-z
1/2+x,y,1/2-z
1/2-x,y,1/2+z
1/2+x,-y,1/2+z
1/2+x,1/2+y,z
1/2-x,1/2-y,z
1/2+x,1/2-y,-z
1/2-x,1/2+y,-z
1/2-x,1/2-y,-z
1/2+x,1/2+y,-z
1/2-x,1/2+y,z
1/2+x,1/2-y,z
loop_
_atom_site_type_symbol
_atom_site_label
_atom_site_fract_x
_atom_site_fract_y
_atom_site_fract_z
Si Si1 0.869150 0.756955 0.436174
Si Si2 0.086278 0.128683 0.730946
Si Si3 0.686621 0.587902 0.433315
Si Si4 0.693303 0.910007 0.273352
Si Si5 0.939318 0.718236 0.663289
Si Si6 0.279740 0.675220 0.878969
Si Si7 0.000000 0.000000 0.291925
O O1 0.884675 0.754036 0.500000
O O2 0.855497 0.845884 0.421458
O O3 0.910096 0.721032 0.394667
O O4 0.816678 0.709206 0.426261
O O5 0.146415 0.106285 0.731730
O O6 0.078437 0.205715 0.696046
O O7 0.072797 0.148392 0.795122
O O8 0.045706 0.066443 0.710321
O O9 0.694852 0.590607 0.500000
O O10 0.673040 0.500000 0.418443
O O11 0.738369 0.615201 0.402538
O O12 0.750000 0.891848 0.250000
O O13 0.688189 0.861462 0.329368
O O14 0.692281 0.000000 0.286598
O O15 0.000000 0.721326 0.655059
O O16 0.250000 0.750000 0.856594
#
# Coordination Sequence:
#
# PCOD9512359 Si02
#       7
#    32  32  32  32  32  32   8
#     4  10  21  37  58  85 113 151 200 243 292 346
#     4  11  22  39  63  88 116 152 198 235 294 347
#     4   9  18  34  54  77 109 150 194 236 278 337
#     4  11  24  36  53  88 127 152 183 233 300 362
#     4  11  22  40  60  86 112 148 194 249 292 350
#     4  10  20  34  54  81 112 156 192 233 279 347
#     4  12  20  42  66  92 110 154 204 252 270 348
#
# _framework density 18.295943999999999
#
# number of rings (size 3 to 8) (size 9 to 14) (size 15 to 20)
#    0.000    1.600    4.000    1.440    4.480    2.560 
#    1.440    0.000    0.000    0.000    0.000    3.360 
#    0.000    0.000    0.000    0.000    0.000    0.000 
#
# Total GULP energy -278530.514967 kJ/mol
# GULP energy per Si atom -5570.610299 kJ/mol
# Density = 1.825430 g / cm^3
# Si number density = 18.295944 Si / 1000 Ang^3
#
#
#
# Elastic Constant Matrix: (Units=GPa)
#
#
# Indices 1 2 3 4 5 6 
#
# 1 88.3814 -6.9908 -1.7367 0.0000 0.0000 0.0000
# 2 -6.9908 39.3982 -9.0601 0.0000 0.0000 0.0000
# 3 -1.7367 -9.0601 27.7462 0.0000 0.0000 0.0000
# 4 0.0000 0.0000 0.0000 14.1021 0.0000 0.0000
# 5 0.0000 0.0000 0.0000 0.0000 14.7398 0.0000
# 6 0.0000 0.0000 0.0000 0.0000 0.0000 21.8430
#
#
#
# Elastic Compliance Matrix: (Units=1/GPa)
#
#
# Indices 1 2 3 4 5 6 
#
# 1 0.011533 0.002392 0.001503 0.000000 0.000000 0.000000
# 2 0.002392 0.027939 0.009273 0.000000 0.000000 0.000000
# 3 0.001503 0.009273 0.039163 0.000000 0.000000 0.000000
# 4 0.000000 0.000000 0.000000 0.070911 0.000000 0.000000
# 5 0.000000 0.000000 0.000000 0.000000 0.067844 0.000000
# 6 0.000000 0.000000 0.000000 0.000000 0.000000 0.045781
#
#
# Mechanical properties :
#
#
# Convention : Reuss Voigt Hill
#
# Bulk Modulus (GPa) = 9.52650 13.32785 11.42717
# Shear Modulus (GPa) = 18.39414 21.69121 20.04267
#
# Velocity S-wave (km/s) = 3.17419 3.44695 3.31338
# Velocity P-wave (km/s) = 4.31882 4.81065 4.57135
#
# Compressibility (1/GPa) = 0.10497038
#
# Stress axis : x y z
#
# Youngs Moduli (GPa) = 86.70511 35.79267 25.53442
#
# Poissons Ratio (x) = -0.08562 -0.03838
# Poissons Ratio (y) = -0.20741 -0.23677
# Poissons Ratio (z) = -0.13032 -0.33189
#
# Static dielectric constant tensor:
#      x y z
#    x 1.646650 0.000000 0.000000 
#    y 0.000000 1.620140 0.000000 
#    z 0.000000 0.000000 1.633710 
# 
# From -- ./inp_files/42741.got.cif
#   From: 2010.05.17/outbox.cif.g08.bks.cpg/sg69_22_cif.got.tgz:42741.got - 2010.06.03 19:29:58.
