data_PCOD9512746
_publ_section_title
;
Structure prediction by ZEFSAII (Michael W. Deem and Ramdas Pophale) SiO2 
 PCOD9512746
Probable space group: F M M M
;
_chemical_formula_sum "Si O2"
_cell_formula_units_Z 112
_cell_length_a 20.680201
_cell_length_b 10.894306
_cell_length_c 21.832009
_cell_angle_alpha 90.000000
_cell_angle_beta 90.000000
_cell_angle_gamma 90.000000
_cell_volume 4918.673858
_symmetry_space_group_name_H-M "F M M M"
_symmetry_group_IT_number 69
_symmetry_cell_setting 'orthorhombic'
loop_
_space_group_symop_operation_xyz
x,y,z
-x,-y,z
x,-y,-z
-x,y,-z
-x,-y,-z
x,y,-z
-x,y,z
x,-y,z
x,1/2+y,1/2+z
-x,1/2-y,1/2+z
x,1/2-y,1/2-z
-x,1/2+y,1/2-z
-x,1/2-y,1/2-z
x,1/2+y,1/2-z
-x,1/2+y,1/2+z
x,1/2-y,1/2+z
1/2+x,y,1/2+z
1/2-x,-y,1/2+z
1/2+x,-y,1/2-z
1/2-x,y,1/2-z
1/2-x,-y,1/2-z
1/2+x,y,1/2-z
1/2-x,y,1/2+z
1/2+x,-y,1/2+z
1/2+x,1/2+y,z
1/2-x,1/2-y,z
1/2+x,1/2-y,-z
1/2-x,1/2+y,-z
1/2-x,1/2-y,-z
1/2+x,1/2+y,-z
1/2-x,1/2+y,z
1/2+x,1/2-y,z
loop_
_atom_site_type_symbol
_atom_site_label
_atom_site_fract_x
_atom_site_fract_y
_atom_site_fract_z
Si Si1 0.922039 0.147730 0.500000
Si Si2 0.500000 0.871263 0.789465
Si Si3 0.927959 0.000000 0.892598
Si Si4 0.250000 0.750000 0.136447
Si Si5 0.215392 0.500000 0.432783
Si Si6 0.390768 0.234303 0.864571
O O1 0.891437 0.203935 0.437708
O O2 0.000000 0.174327 0.500000
O O3 0.914497 0.000000 0.500000
O O4 0.500000 0.750000 0.750000
O O5 0.561923 0.860663 0.833001
O O6 0.500000 0.000000 0.755313
O O7 0.862881 0.000000 0.933363
O O8 0.919374 0.128557 0.857288
O O9 0.000000 0.000000 0.920700
O O10 0.262301 0.624507 0.099336
O O11 0.320090 0.770394 0.165769
O O12 0.242988 0.500000 0.500000
#
# Coordination Sequence:
#
# PCOD9512746 Si02
#       6
#    16  16  16  16  16  32
#     4  11  22  36  61  97 141 175 224 275 329 399
#     4  12  28  49  79 100 128 167 221 281 339 388
#     4  10  20  37  60  86 138 169 223 264 319 388
#     4  10  25  38  61  90 136 174 223 267 316 396
#     4  10  22  35  52  87 131 185 223 257 318 377
#     4  11  24  42  67 100 135 178 217 271 331 390
#
# _framework density 22.770365000000002
#
# number of rings (size 3 to 8) (size 9 to 14) (size 15 to 20)
#    0.000    1.286    2.857    1.286   16.000    0.286 
#    0.000    0.714    0.000    1.714    0.000    0.000 
#    0.000    0.000    0.000    0.000    0.000    0.000 
#
# Total GULP energy -156357.006199 kJ/mol
# GULP energy per Si atom -5584.178793 kJ/mol
# Density = 2.271854 g / cm^3
# Si number density = 22.770365 Si / 1000 Ang^3
#
#
#
# Elastic Constant Matrix: (Units=GPa)
#
#
# Indices 1 2 3 4 5 6 
#
# 1 168.1683 39.6556 15.6679 0.0000 0.0000 0.0000
# 2 39.6556 179.9309 20.2416 0.0000 0.0000 0.0000
# 3 15.6679 20.2416 41.3473 0.0000 0.0000 0.0000
# 4 0.0000 0.0000 0.0000 40.2363 0.0000 0.0000
# 5 0.0000 0.0000 0.0000 0.0000 6.9899 0.0000
# 6 0.0000 0.0000 0.0000 0.0000 0.0000 33.1901
#
#
#
# Elastic Compliance Matrix: (Units=1/GPa)
#
#
# Indices 1 2 3 4 5 6 
#
# 1 0.006401 -0.001204 -0.001836 0.000000 0.000000 0.000000
# 2 -0.001204 0.006108 -0.002534 0.000000 0.000000 0.000000
# 3 -0.001836 -0.002534 0.026122 0.000000 0.000000 0.000000
# 4 0.000000 0.000000 0.000000 0.024853 0.000000 0.000000
# 5 0.000000 0.000000 0.000000 0.000000 0.143063 0.000000
# 6 0.000000 0.000000 0.000000 0.000000 0.000000 0.030129
#
#
# Mechanical properties :
#
#
# Convention : Reuss Voigt Hill
#
# Bulk Modulus (GPa) = 36.38673 60.06407 48.22540
# Shear Modulus (GPa) = 19.45627 37.00869 28.23248
#
# Velocity S-wave (km/s) = 2.92628 4.03588 3.52501
# Velocity P-wave (km/s) = 5.23756 6.93925 6.14757
#
# Compressibility (1/GPa) = 0.02748255
#
# Stress axis : x y z
#
# Youngs Moduli (GPa) = 156.21393 163.71535 38.28240
#
# Poissons Ratio (x) = 0.19716 0.07029
# Poissons Ratio (y) = 0.18813 0.09700
# Poissons Ratio (z) = 0.28684 0.41484
#
# Static dielectric constant tensor:
#      x y z
#    x 1.885780 0.000000 0.000000 
#    y 0.000000 1.796270 0.000000 
#    z 0.000000 0.000000 1.853040 
# 
# From -- ./inp_files/36992.got.cif
#   From: 2010.05.17/outbox.cif.g08.bks.cpg/sg69_19_cif.got.tgz:36992.got - 2010.06.03 19:29:58.
