data_PCOD9512053
_publ_section_title
;
Structure prediction by ZEFSAII (Michael W. Deem and Ramdas Pophale) SiO2 
 PCOD9512053
Probable space group: F M M M
;
_chemical_formula_sum "Si O2"
_cell_formula_units_Z 160
_cell_length_a 29.215749
_cell_length_b 18.164301
_cell_length_c 15.897653
_cell_angle_alpha 90.000000
_cell_angle_beta 90.000000
_cell_angle_gamma 90.000000
_cell_volume 8436.624660
_symmetry_space_group_name_H-M "F M M M"
_symmetry_group_IT_number 69
_symmetry_cell_setting 'orthorhombic'
loop_
_space_group_symop_operation_xyz
x,y,z
-x,-y,z
x,-y,-z
-x,y,-z
-x,-y,-z
x,y,-z
-x,y,z
x,-y,z
x,1/2+y,1/2+z
-x,1/2-y,1/2+z
x,1/2-y,1/2-z
-x,1/2+y,1/2-z
-x,1/2-y,1/2-z
x,1/2+y,1/2-z
-x,1/2+y,1/2+z
x,1/2-y,1/2+z
1/2+x,y,1/2+z
1/2-x,-y,1/2+z
1/2+x,-y,1/2-z
1/2-x,y,1/2-z
1/2-x,-y,1/2-z
1/2+x,y,1/2-z
1/2-x,y,1/2+z
1/2+x,-y,1/2+z
1/2+x,1/2+y,z
1/2-x,1/2-y,z
1/2+x,1/2-y,-z
1/2-x,1/2+y,-z
1/2-x,1/2-y,-z
1/2+x,1/2+y,-z
1/2-x,1/2+y,z
1/2+x,1/2-y,z
loop_
_atom_site_type_symbol
_atom_site_label
_atom_site_fract_x
_atom_site_fract_y
_atom_site_fract_z
Si Si1 0.848942 0.337029 0.658120
Si Si2 0.861125 0.085020 0.500000
Si Si3 0.234524 0.916332 0.099238
Si Si4 0.052448 0.716123 0.344289
Si Si5 0.316983 0.827471 0.848261
Si Si6 0.551543 0.171593 0.000000
O O1 0.818688 0.398528 0.613477
O O2 0.903462 0.336167 0.644327
O O3 0.827962 0.257460 0.630965
O O4 0.838328 0.341816 0.757250
O O5 0.840695 0.122926 0.581998
O O6 0.914224 0.104419 0.500000
O O7 0.850751 0.000000 0.500000
O O8 0.264582 0.855032 0.147559
O O9 0.245383 0.000000 0.126497
O O10 0.244631 0.910267 0.000000
O O11 0.056383 0.750000 0.250000
O O12 0.057921 0.777850 0.416910
O O13 0.000000 0.687039 0.352345
O O14 0.500000 0.145121 0.000000
#
# Coordination Sequence:
#
# PCOD9512053 Si02
#       6
#    32  16  32  32  32  16
#     4  11  22  38  62  90 115 156 204 252 296 349
#     4  12  22  35  60  86 125 167 201 248 305 366
#     4  11  25  40  57  85 122 163 200 245 304 361
#     4  10  19  36  60  89 122 153 196 256 309 358
#     4  11  22  39  58  88 118 155 204 246 296 353
#     4  10  20  35  57  85 122 165 201 248 315 366
#
# _framework density 18.964931
#
# number of rings (size 3 to 8) (size 9 to 14) (size 15 to 20)
#    0.000    1.200    5.000    1.800    2.800    5.000 
#    0.000    0.000    0.000    0.600    0.000    1.400 
#    0.000    0.000    0.000    0.000    0.000    0.000 
#
# Total GULP energy -223292.600918 kJ/mol
# GULP energy per Si atom -5582.315023 kJ/mol
# Density = 1.892177 g / cm^3
# Si number density = 18.964931 Si / 1000 Ang^3
#
#
#
# Elastic Constant Matrix: (Units=GPa)
#
#
# Indices 1 2 3 4 5 6 
#
# 1 143.6240 31.9449 6.1539 0.0000 0.0000 0.0000
# 2 31.9449 62.8616 44.0620 0.0000 0.0000 0.0000
# 3 6.1539 44.0620 67.1636 0.0000 0.0000 0.0000
# 4 0.0000 0.0000 0.0000 -226.7176 0.0000 0.0000
# 5 0.0000 0.0000 0.0000 0.0000 3.6151 0.0000
# 6 0.0000 0.0000 0.0000 0.0000 0.0000 7.8252
#
#
#
# Elastic Compliance Matrix: (Units=1/GPa)
#
#
# Indices 1 2 3 4 5 6 
#
# 1 0.008325 -0.006842 0.003726 0.000000 0.000000 0.000000
# 2 -0.006842 0.035074 -0.022383 0.000000 0.000000 0.000000
# 3 0.003726 -0.022383 0.029232 0.000000 0.000000 0.000000
# 4 0.000000 0.000000 0.000000 -0.004411 0.000000 0.000000
# 5 0.000000 0.000000 0.000000 0.000000 0.276619 0.000000
# 6 0.000000 0.000000 0.000000 0.000000 0.000000 0.127792
#
#
# Mechanical properties :
#
#
# Convention : Reuss Voigt Hill
#
# Bulk Modulus (GPa) = 46.22744 48.66343 47.44543
# Shear Modulus (GPa) = 9.41902 -30.28958 -10.43528
#
# Velocity S-wave (km/s) = 2.23099 -4.00075 -2.34827
# Velocity P-wave (km/s) = 5.57356 2.09142 4.20943
#
# Compressibility (1/GPa) = 0.02163217
#
# Stress axis : x y z
#
# Youngs Moduli (GPa) = 120.12279 28.51092 34.20915
#
# Poissons Ratio (x) = 0.19508 -0.12746
# Poissons Ratio (y) = 0.82190 0.76571
# Poissons Ratio (z) = -0.44757 0.63817
#
# Static dielectric constant tensor:
#      x y z
#    x 1.731640 0.000000 0.000000 
#    y 0.000000 1.620180 0.000000 
#    z 0.000000 0.000000 1.658450 
# 
# From -- ./inp_files/19579.got.cif
#   From: 2010.05.17/outbox.cif.g08.bks.cpg/sg69_10_cif.got.tgz:19579.got - 2010.06.03 19:29:58.
