data_PCOD9512972
_publ_section_title
;
Structure prediction by ZEFSAII (Michael W. Deem and Ramdas Pophale) SiO2 
 PCOD9512972
Probable space group: F M M M
;
_chemical_formula_sum "Si O2"
_cell_formula_units_Z 128
_cell_length_a 17.647940
_cell_length_b 21.881342
_cell_length_c 15.349864
_cell_angle_alpha 90.000000
_cell_angle_beta 90.000000
_cell_angle_gamma 90.000000
_cell_volume 5927.512857
_symmetry_space_group_name_H-M "F M M M"
_symmetry_group_IT_number 69
_symmetry_cell_setting 'orthorhombic'
loop_
_space_group_symop_operation_xyz
x,y,z
-x,-y,z
x,-y,-z
-x,y,-z
-x,-y,-z
x,y,-z
-x,y,z
x,-y,z
x,1/2+y,1/2+z
-x,1/2-y,1/2+z
x,1/2-y,1/2-z
-x,1/2+y,1/2-z
-x,1/2-y,1/2-z
x,1/2+y,1/2-z
-x,1/2+y,1/2+z
x,1/2-y,1/2+z
1/2+x,y,1/2+z
1/2-x,-y,1/2+z
1/2+x,-y,1/2-z
1/2-x,y,1/2-z
1/2-x,-y,1/2-z
1/2+x,y,1/2-z
1/2-x,y,1/2+z
1/2+x,-y,1/2+z
1/2+x,1/2+y,z
1/2-x,1/2-y,z
1/2+x,1/2-y,-z
1/2-x,1/2+y,-z
1/2-x,1/2-y,-z
1/2+x,1/2+y,-z
1/2-x,1/2+y,z
1/2+x,1/2-y,z
loop_
_atom_site_type_symbol
_atom_site_label
_atom_site_fract_x
_atom_site_fract_y
_atom_site_fract_z
Si Si1 0.088177 0.171276 0.606237
Si Si2 0.409423 0.695583 0.900045
Si Si3 0.205020 0.931485 0.659356
Si Si4 0.133242 0.433151 0.401651
O O1 0.089996 0.171822 0.500000
O O2 0.115057 0.238910 0.636742
O O3 0.143092 0.118978 0.640114
O O4 0.000000 0.162308 0.631804
O O5 0.500000 0.700154 0.904646
O O6 0.391713 0.630185 0.857614
O O7 0.379446 0.692496 0.000000
O O8 0.250000 0.923239 0.750000
O O9 0.275969 0.929684 0.593945
O O10 0.172293 0.000000 0.657417
O O11 0.101118 0.433295 0.500000
O O12 0.114098 0.500000 0.362415
#
# Coordination Sequence:
#
# PCOD9512972 Si02
#       4
#    32  32  32  32
#     4   9  18  34  57  82 106 135 174 220 266 312
#     4   8  15  29  49  75 105 132 164 213 266 308
#     4  10  21  36  51  71 104 139 170 212 266 321
#     4   9  17  30  50  74  99 133 177 218 256 306
#
# _framework density 21.594217
#
# number of rings (size 3 to 8) (size 9 to 14) (size 15 to 20)
#    0.000    3.000    0.000    2.250    0.000    3.500 
#    0.000   11.250    0.000    7.500    0.000    0.000 
#    0.000    0.000    0.000    0.000    0.000    0.000 
#
# Total GULP energy -178252.530565 kJ/mol
# GULP energy per Si atom -5570.391580 kJ/mol
# Density = 2.154507 g / cm^3
# Si number density = 21.594217 Si / 1000 Ang^3
#
#
#
# Elastic Constant Matrix: (Units=GPa)
#
#
# Indices 1 2 3 4 5 6 
#
# 1 42.7161 80.1862 1.4238 0.0000 0.0000 0.0000
# 2 80.1862 278.3771 12.0981 0.0000 0.0000 0.0000
# 3 1.4238 12.0981 41.9737 0.0000 0.0000 0.0000
# 4 0.0000 0.0000 0.0000 3.2589 0.0000 0.0000
# 5 0.0000 0.0000 0.0000 0.0000 16.3162 0.0000
# 6 0.0000 0.0000 0.0000 0.0000 0.0000 48.0274
#
#
#
# Elastic Compliance Matrix: (Units=1/GPa)
#
#
# Indices 1 2 3 4 5 6 
#
# 1 0.051240 -0.014870 0.002548 0.000000 0.000000 0.000000
# 2 -0.014870 0.007953 -0.001788 0.000000 0.000000 0.000000
# 3 0.002548 -0.001788 0.024253 0.000000 0.000000 0.000000
# 4 0.000000 0.000000 0.000000 0.306851 0.000000 0.000000
# 5 0.000000 0.000000 0.000000 0.000000 0.061289 0.000000
# 6 0.000000 0.000000 0.000000 0.000000 0.000000 0.020821
#
#
# Mechanical properties :
#
#
# Convention : Reuss Voigt Hill
#
# Bulk Modulus (GPa) = 18.10747 61.16480 39.63613
# Shear Modulus (GPa) = 9.63322 31.47774 20.55548
#
# Velocity S-wave (km/s) = 2.11440 3.82212 3.08863
# Velocity P-wave (km/s) = 3.79005 6.91840 5.57802
#
# Compressibility (1/GPa) = 0.05522583
#
# Stress axis : x y z
#
# Youngs Moduli (GPa) = 19.51612 125.73371 41.23136
#
# Poissons Ratio (x) = 1.86969 -0.10506
# Poissons Ratio (y) = 0.29021 0.07372
# Poissons Ratio (z) = -0.04973 0.22481
#
# Static dielectric constant tensor:
#      x y z
#    x 1.735380 0.000000 0.000000 
#    y 0.000000 1.845070 0.000000 
#    z 0.000000 0.000000 1.893310 
# 
# From -- ./inp_files/24349.got.cif
#   From: 2010.05.17/outbox.cif.g08.bks.cpg/sg69_13_cif.got.tgz:24349.got - 2010.06.03 19:29:58.
