data_PCOD9512324
_publ_section_title
;
Structure prediction by ZEFSAII (Michael W. Deem and Ramdas Pophale) SiO2 
 PCOD9512324
Probable space group: F M M M
;
_chemical_formula_sum "Si O2"
_cell_formula_units_Z 176
_cell_length_a 34.012700
_cell_length_b 8.463232
_cell_length_c 32.799394
_cell_angle_alpha 90.000000
_cell_angle_beta 90.000000
_cell_angle_gamma 90.000000
_cell_volume 9441.547329
_symmetry_space_group_name_H-M "F M M M"
_symmetry_group_IT_number 69
_symmetry_cell_setting 'orthorhombic'
loop_
_space_group_symop_operation_xyz
x,y,z
-x,-y,z
x,-y,-z
-x,y,-z
-x,-y,-z
x,y,-z
-x,y,z
x,-y,z
x,1/2+y,1/2+z
-x,1/2-y,1/2+z
x,1/2-y,1/2-z
-x,1/2+y,1/2-z
-x,1/2-y,1/2-z
x,1/2+y,1/2-z
-x,1/2+y,1/2+z
x,1/2-y,1/2+z
1/2+x,y,1/2+z
1/2-x,-y,1/2+z
1/2+x,-y,1/2-z
1/2-x,y,1/2-z
1/2-x,-y,1/2-z
1/2+x,y,1/2-z
1/2-x,y,1/2+z
1/2+x,-y,1/2+z
1/2+x,1/2+y,z
1/2-x,1/2-y,z
1/2+x,1/2-y,-z
1/2-x,1/2+y,-z
1/2-x,1/2-y,-z
1/2+x,1/2+y,-z
1/2-x,1/2+y,z
1/2+x,1/2-y,z
loop_
_atom_site_type_symbol
_atom_site_label
_atom_site_fract_x
_atom_site_fract_y
_atom_site_fract_z
Si Si1 0.869064 0.689740 0.792733
Si Si2 0.205353 0.189363 0.545749
Si Si3 0.153279 0.315821 0.620361
Si Si4 0.000000 0.693086 0.046215
Si Si5 0.930391 0.184287 0.601489
Si Si6 0.042801 0.815412 0.693176
O O1 0.870963 0.500000 0.793171
O O2 0.851845 0.750000 0.750000
O O3 0.846814 0.741304 0.834010
O O4 0.914673 0.752785 0.794131
O O5 0.190781 0.239274 0.500000
O O6 0.250000 0.250000 0.549023
O O7 0.181082 0.247703 0.584905
O O8 0.205102 0.000000 0.546347
O O9 0.108927 0.282989 0.605446
O O10 0.338696 0.000000 0.624571
O O11 0.039500 0.745154 0.068210
O O12 0.000000 0.500000 0.049296
O O13 0.000000 0.740209 0.000000
O O14 0.953393 0.185550 0.644302
O O15 0.919519 0.000000 0.593676
O O16 0.000000 0.744896 0.704356
O O17 0.042294 0.000000 0.706182
#
# Coordination Sequence:
#
# PCOD9512324 Si02
#       6
#    32  32  32  16  32  32
#     4  10  20  34  53  77 109 146 190 239 287 338
#     4  10  21  39  64  93 122 149 180 222 275 334
#     4  11  22  36  56  82 114 152 191 229 277 334
#     4   9  16  26  45  71  96 129 178 233 285 335
#     4   9  16  29  48  69  98 137 184 233 279 330
#     4   8  13  24  44  66  91 130 176 227 282 332
#
# _framework density 18.641012
#
# number of rings (size 3 to 8) (size 9 to 14) (size 15 to 20)
#    0.000    2.455    0.909    3.818    0.000    2.182 
#    0.000    2.273    0.000    2.182    0.000    3.818 
#    0.000    0.000    0.000    0.000    0.000    0.000 
#
# Total GULP energy -245140.159841 kJ/mol
# GULP energy per Si atom -5571.367269 kJ/mol
# Density = 1.859858 g / cm^3
# Si number density = 18.641012 Si / 1000 Ang^3
#
#
#
# Elastic Constant Matrix: (Units=GPa)
#
#
# Indices 1 2 3 4 5 6 
#
# 1 60.1718 22.1117 61.2809 0.0000 0.0009 -0.0002
# 2 22.1117 59.2927 41.9524 0.0000 0.0017 -0.0021
# 3 61.2809 41.9524 174.9102 0.0000 0.0000 0.0001
# 4 0.0000 0.0000 0.0000 23.5340 0.0000 -0.0001
# 5 0.0009 0.0017 0.0000 0.0000 16.1789 -0.0014
# 6 -0.0002 -0.0021 0.0001 -0.0001 -0.0014 -6.8930
#
#
#
# Elastic Compliance Matrix: (Units=1/GPa)
#
#
# Indices 1 2 3 4 5 6 
#
# 1 0.026606 -0.004007 -0.008361 0.000000 -0.000001 0.000000
# 2 -0.004007 0.020916 -0.003613 0.000000 -0.000002 -0.000006
# 3 -0.008361 -0.003613 0.009513 0.000000 0.000001 0.000002
# 4 0.000000 0.000000 0.000000 0.042492 0.000000 0.000000
# 5 -0.000001 -0.000002 0.000001 0.000000 0.061809 -0.000013
# 6 0.000000 -0.000006 0.000002 0.000000 -0.000013 -0.145075
#
#
# Mechanical properties :
#
#
# Convention : Reuss Voigt Hill
#
# Bulk Modulus (GPa) = 39.88073 60.56276 50.22175
# Shear Modulus (GPa) = 88.37151 17.83262 53.10207
#
# Velocity S-wave (km/s) = 6.89275 3.09631 5.34308
# Velocity P-wave (km/s) = 9.20799 6.73367 8.06627
#
# Compressibility (1/GPa) = 0.02507477
#
# Stress axis : x y z
#
# Youngs Moduli (GPa) = 37.58525 47.81029 105.11898
#
# Poissons Ratio (x) = 0.19155 0.87887
# Poissons Ratio (y) = 0.15059 0.37980
# Poissons Ratio (z) = 0.31424 0.17274
#
# Static dielectric constant tensor:
#      x y z
#    x 1.640660 0.000000 0.000000 
#    y 0.000000 1.663370 0.000000 
#    z 0.000000 0.000000 1.669880 
# 
# From -- ./inp_files/47553.got.cif
#   From: 2010.05.17/outbox.cif.g08.bks.cpg/sg69_24_cif.got.tgz:47553.got - 2010.06.03 19:29:58.
