data_PCOD9512642
_publ_section_title
;
Structure prediction by ZEFSAII (Michael W. Deem and Ramdas Pophale) SiO2 
 PCOD9512642
Probable space group: F M M M
;
_chemical_formula_sum "Si O2"
_cell_formula_units_Z 96
_cell_length_a 8.372799
_cell_length_b 21.035549
_cell_length_c 25.157497
_cell_angle_alpha 90.000000
_cell_angle_beta 90.000000
_cell_angle_gamma 90.000000
_cell_volume 4430.899974
_symmetry_space_group_name_H-M "F M M M"
_symmetry_group_IT_number 69
_symmetry_cell_setting 'orthorhombic'
loop_
_space_group_symop_operation_xyz
x,y,z
-x,-y,z
x,-y,-z
-x,y,-z
-x,-y,-z
x,y,-z
-x,y,z
x,-y,z
x,1/2+y,1/2+z
-x,1/2-y,1/2+z
x,1/2-y,1/2-z
-x,1/2+y,1/2-z
-x,1/2-y,1/2-z
x,1/2+y,1/2-z
-x,1/2+y,1/2+z
x,1/2-y,1/2+z
1/2+x,y,1/2+z
1/2-x,-y,1/2+z
1/2+x,-y,1/2-z
1/2-x,y,1/2-z
1/2-x,-y,1/2-z
1/2+x,y,1/2-z
1/2-x,y,1/2+z
1/2+x,-y,1/2+z
1/2+x,1/2+y,z
1/2-x,1/2-y,z
1/2+x,1/2-y,-z
1/2-x,1/2+y,-z
1/2-x,1/2-y,-z
1/2+x,1/2+y,-z
1/2-x,1/2+y,z
1/2+x,1/2-y,z
loop_
_atom_site_type_symbol
_atom_site_label
_atom_site_fract_x
_atom_site_fract_y
_atom_site_fract_z
Si Si1 0.308224 0.361044 0.689572
Si Si2 0.808339 0.500000 0.189735
Si Si3 0.189879 0.682835 0.581176
Si Si4 0.694978 0.074539 0.500000
O O1 0.500000 0.358733 0.690790
O O2 0.250000 0.349102 0.750000
O O3 0.252437 0.431755 0.670620
O O4 0.242938 0.318788 0.642496
O O5 0.750000 0.500000 0.250000
O O6 0.000000 0.500000 0.187040
O O7 0.250000 0.750000 0.558749
O O8 0.246234 0.619360 0.549747
O O9 0.000000 0.682571 0.577900
O O10 0.500000 0.071881 0.500000
O O11 0.748922 0.000000 0.500000
#
# Coordination Sequence:
#
# PCOD9512642 Si02
#       4
#    32  16  32  16
#     4  10  20  36  58  89 127 165 208 252 305 366
#     4   8  16  30  50  77 114 155 195 244 294 348
#     4  11  23  40  64  91 125 166 206 253 308 367
#     4   9  21  42  67  95 122 155 204 258 311 368
#
# _framework density 21.666027
#
# number of rings (size 3 to 8) (size 9 to 14) (size 15 to 20)
#    0.000    2.167    0.000    2.500    2.333    2.000 
#    0.000    5.833    0.000    4.000    0.000    0.000 
#    0.000    0.000    0.000    0.000    0.000    0.000 
#
# Total GULP energy -133735.755689 kJ/mol
# GULP energy per Si atom -5572.323154 kJ/mol
# Density = 2.161671 g / cm^3
# Si number density = 21.666027 Si / 1000 Ang^3
#
#
#
# Elastic Constant Matrix: (Units=GPa)
#
#
# Indices 1 2 3 4 5 6 
#
# 1 34.7871 26.2300 23.2055 0.0000 0.0000 0.0000
# 2 26.2300 203.9836 81.8078 0.0000 0.0000 0.0000
# 3 23.2055 81.8078 147.1631 0.0000 0.0000 0.0000
# 4 0.0000 0.0000 0.0000 28.4349 0.0000 0.0000
# 5 0.0000 0.0000 0.0000 0.0000 5.4783 0.0000
# 6 0.0000 0.0000 0.0000 0.0000 0.0000 27.9710
#
#
#
# Elastic Compliance Matrix: (Units=1/GPa)
#
#
# Indices 1 2 3 4 5 6 
#
# 1 0.033326 -0.002803 -0.003697 0.000000 0.000000 0.000000
# 2 -0.002803 0.006545 -0.003196 0.000000 0.000000 0.000000
# 3 -0.003697 -0.003196 0.009155 0.000000 0.000000 0.000000
# 4 0.000000 0.000000 0.000000 0.035168 0.000000 0.000000
# 5 0.000000 0.000000 0.000000 0.000000 0.182539 0.000000
# 6 0.000000 0.000000 0.000000 0.000000 0.000000 0.035751
#
#
# Mechanical properties :
#
#
# Convention : Reuss Voigt Hill
#
# Bulk Modulus (GPa) = 33.74560 72.04673 52.89616
# Shear Modulus (GPa) = 15.07144 29.35619 22.21382
#
# Velocity S-wave (km/s) = 2.64033 3.68495 3.20548
# Velocity P-wave (km/s) = 4.99042 7.17151 6.17798
#
# Compressibility (1/GPa) = 0.02963349
#
# Stress axis : x y z
#
# Youngs Moduli (GPa) = 30.00693 152.79827 109.23108
#
# Poissons Ratio (x) = 0.42824 0.40383
# Poissons Ratio (y) = 0.08410 0.34912
# Poissons Ratio (z) = 0.11094 0.48837
#
# Static dielectric constant tensor:
#      x y z
#    x 1.732910 0.000000 0.000000 
#    y 0.000000 1.901640 0.000000 
#    z 0.000000 0.000000 1.762760 
# 
# From -- ./inp_files/33101.got.cif
#   From: 2010.05.17/outbox.cif.g08.bks.cpg/sg69_17_cif.got.tgz:33101.got - 2010.06.03 19:29:58.
