data_PCOD9512977
_publ_section_title
;
Structure prediction by ZEFSAII (Michael W. Deem and Ramdas Pophale) SiO2 
 PCOD9512977
Probable space group: F M M M
;
_chemical_formula_sum "Si O2"
_cell_formula_units_Z 160
_cell_length_a 8.092903
_cell_length_b 30.023248
_cell_length_c 33.738427
_cell_angle_alpha 90.000000
_cell_angle_beta 90.000000
_cell_angle_gamma 90.000000
_cell_volume 8197.602189
_symmetry_space_group_name_H-M "F M M M"
_symmetry_group_IT_number 69
_symmetry_cell_setting 'orthorhombic'
loop_
_space_group_symop_operation_xyz
x,y,z
-x,-y,z
x,-y,-z
-x,y,-z
-x,-y,-z
x,y,-z
-x,y,z
x,-y,z
x,1/2+y,1/2+z
-x,1/2-y,1/2+z
x,1/2-y,1/2-z
-x,1/2+y,1/2-z
-x,1/2-y,1/2-z
x,1/2+y,1/2-z
-x,1/2+y,1/2+z
x,1/2-y,1/2+z
1/2+x,y,1/2+z
1/2-x,-y,1/2+z
1/2+x,-y,1/2-z
1/2-x,y,1/2-z
1/2-x,-y,1/2-z
1/2+x,y,1/2-z
1/2-x,y,1/2+z
1/2+x,-y,1/2+z
1/2+x,1/2+y,z
1/2-x,1/2-y,z
1/2+x,1/2-y,-z
1/2-x,1/2+y,-z
1/2-x,1/2-y,-z
1/2+x,1/2+y,-z
1/2-x,1/2+y,z
1/2+x,1/2-y,z
loop_
_atom_site_type_symbol
_atom_site_label
_atom_site_fract_x
_atom_site_fract_y
_atom_site_fract_z
Si Si1 0.190712 0.627329 0.641546
Si Si2 0.696403 0.050846 0.916061
Si Si3 0.199393 0.296757 0.085669
Si Si4 0.197785 0.699248 0.704434
Si Si5 0.810234 0.687163 0.000000
Si Si6 0.309353 0.909922 0.500000
O O1 0.264992 0.583157 0.621191
O O2 0.210462 0.663116 0.606682
O O3 0.262098 0.657382 0.678016
O O4 0.000000 0.617571 0.650594
O O5 0.500000 0.052793 0.922506
O O6 0.775594 0.064958 0.958401
O O7 0.745342 0.000000 0.907280
O O8 0.250000 0.250000 0.104120
O O9 0.000000 0.303079 0.086926
O O10 0.264484 0.296954 0.040782
O O11 0.250000 0.693165 0.750000
O O12 0.250000 0.750000 0.693366
O O13 0.000000 0.698441 0.701135
O O14 0.802858 0.633890 0.000000
O O15 0.000000 0.702080 0.000000
O O16 0.500000 0.895784 0.500000
#
# Coordination Sequence:
#
# PCOD9512977 Si02
#       6
#    32  32  32  32  16  16
#     4  11  23  38  58  86 116 147 188 237 288 341
#     4  11  24  41  61  84 113 151 194 241 294 349
#     4  11  22  35  53  76 109 151 192 234 280 334
#     4  10  21  37  60  90 122 155 190 229 276 334
#     4  10  21  36  52  73 106 149 192 232 280 333
#     4  12  23  36  59  84 111 148 194 246 296 343
#
# _framework density 19.517900999999998
#
# number of rings (size 3 to 8) (size 9 to 14) (size 15 to 20)
#    0.000    1.200    2.000    5.100    0.000    8.400 
#    0.000    0.000    0.000    0.600    0.000    0.000 
#    0.000    0.000    0.000    0.000    0.000    0.000 
#
# Total GULP energy -223111.693213 kJ/mol
# GULP energy per Si atom -5577.792330 kJ/mol
# Density = 1.947348 g / cm^3
# Si number density = 19.517901 Si / 1000 Ang^3
#
#
#
# Elastic Constant Matrix: (Units=GPa)
#
#
# Indices 1 2 3 4 5 6 
#
# 1 36.9254 -4.1868 1.7353 0.0000 0.0000 0.0000
# 2 -4.1868 130.6325 49.2603 0.0000 0.0000 0.0000
# 3 1.7353 49.2603 131.0284 0.0000 0.0000 0.0000
# 4 0.0000 0.0000 0.0000 37.8582 0.0000 0.0000
# 5 0.0000 0.0000 0.0000 0.0000 2.3569 0.0000
# 6 0.0000 0.0000 0.0000 0.0000 0.0000 24.6253
#
#
#
# Elastic Compliance Matrix: (Units=1/GPa)
#
#
# Indices 1 2 3 4 5 6 
#
# 1 0.027253 0.001176 -0.000803 0.000000 0.000000 0.000000
# 2 0.001176 0.008970 -0.003388 0.000000 0.000000 0.000000
# 3 -0.000803 -0.003388 0.008916 0.000000 0.000000 0.000000
# 4 0.000000 0.000000 0.000000 0.026414 0.000000 0.000000
# 5 0.000000 0.000000 0.000000 0.000000 0.424288 0.000000
# 6 0.000000 0.000000 0.000000 0.000000 0.000000 0.040609
#
#
# Mechanical properties :
#
#
# Convention : Reuss Voigt Hill
#
# Bulk Modulus (GPa) = 25.56910 43.57821 34.57365
# Shear Modulus (GPa) = 9.00063 29.75324 19.37694
#
# Velocity S-wave (km/s) = 2.14976 3.90860 3.15426
# Velocity P-wave (km/s) = 4.39212 6.53799 5.56938
#
# Compressibility (1/GPa) = 0.03910971
#
# Stress axis : x y z
#
# Youngs Moduli (GPa) = 36.69355 111.47849 112.15428
#
# Poissons Ratio (x) = -0.13113 0.09008
# Poissons Ratio (y) = -0.04316 0.37998
# Poissons Ratio (z) = 0.02947 0.37769
#
# Static dielectric constant tensor:
#      x y z
#    x 1.701510 0.000000 0.000000 
#    y 0.000000 1.693650 0.000000 
#    z 0.000000 0.000000 1.724070 
# 
# From -- ./inp_files/44585.got.cif
#   From: 2010.05.17/outbox.cif.g08.bks.cpg/sg69_23_cif.got.tgz:44585.got - 2010.06.03 19:29:58.
