data_PCOD9512905
_publ_section_title
;
Structure prediction by ZEFSAII (Michael W. Deem and Ramdas Pophale) SiO2 
 PCOD9512905
Probable space group: F M M M
;
_chemical_formula_sum "Si O2"
_cell_formula_units_Z 144
_cell_length_a 18.169327
_cell_length_b 32.762606
_cell_length_c 13.696715
_cell_angle_alpha 90.000000
_cell_angle_beta 90.000000
_cell_angle_gamma 90.000000
_cell_volume 8153.305198
_symmetry_space_group_name_H-M "F M M M"
_symmetry_group_IT_number 69
_symmetry_cell_setting 'orthorhombic'
loop_
_space_group_symop_operation_xyz
x,y,z
-x,-y,z
x,-y,-z
-x,y,-z
-x,-y,-z
x,y,-z
-x,y,z
x,-y,z
x,1/2+y,1/2+z
-x,1/2-y,1/2+z
x,1/2-y,1/2-z
-x,1/2+y,1/2-z
-x,1/2-y,1/2-z
x,1/2+y,1/2-z
-x,1/2+y,1/2+z
x,1/2-y,1/2+z
1/2+x,y,1/2+z
1/2-x,-y,1/2+z
1/2+x,-y,1/2-z
1/2-x,y,1/2-z
1/2-x,-y,1/2-z
1/2+x,y,1/2-z
1/2-x,y,1/2+z
1/2+x,-y,1/2+z
1/2+x,1/2+y,z
1/2-x,1/2-y,z
1/2+x,1/2-y,-z
1/2-x,1/2+y,-z
1/2-x,1/2-y,-z
1/2+x,1/2+y,-z
1/2-x,1/2+y,z
1/2+x,1/2-y,z
loop_
_atom_site_type_symbol
_atom_site_label
_atom_site_fract_x
_atom_site_fract_y
_atom_site_fract_z
Si Si1 0.165041 0.425599 0.272070
Si Si2 0.919947 0.701754 0.265584
Si Si3 0.088488 0.000000 0.883631
Si Si4 0.867780 0.361128 0.114646
Si Si5 0.304415 0.155459 0.387376
O O1 0.250000 0.438126 0.250000
O O2 0.120419 0.461282 0.324294
O O3 0.130749 0.403839 0.175251
O O4 0.169578 0.388095 0.347338
O O5 0.917090 0.750000 0.250000
O O6 0.914536 0.673723 0.168549
O O7 0.850214 0.688647 0.328942
O O8 0.000000 0.692300 0.311766
O O9 0.000000 0.000000 0.880405
O O10 0.109812 0.000000 0.000000
O O11 0.783411 0.345221 0.125408
O O12 0.884010 0.366170 0.000000
O O13 0.320724 0.159906 0.500000
#
# Coordination Sequence:
#
# PCOD9512905 Si02
#       5
#    32  32  16  32  32
#     4   9  18  35  56  78 104 135 171 210 255 308
#     4  10  21  34  48  72 107 142 174 210 255 310
#     4  11  23  36  53  81 113 139 166 207 258 308
#     4   9  19  36  57  78 100 132 175 219 260 303
#     4   9  18  34  56  78  99 128 171 219 262 304
#
# _framework density 17.661548
#
# number of rings (size 3 to 8) (size 9 to 14) (size 15 to 20)
#    0.000    2.556    0.000    3.000    0.000    8.000 
#    0.000    5.000    0.000    0.667    0.000    0.000 
#    0.000    0.000    0.000    0.000    0.000    0.000 
#
# Total GULP energy -200536.705589 kJ/mol
# GULP energy per Si atom -5570.464044 kJ/mol
# Density = 1.762135 g / cm^3
# Si number density = 17.661548 Si / 1000 Ang^3
#
#
#
# Elastic Constant Matrix: (Units=GPa)
#
#
# Indices 1 2 3 4 5 6 
#
# 1 44.6167 43.7760 38.9079 0.0000 0.0000 0.0000
# 2 43.7760 82.3348 42.0029 0.0000 0.0000 0.0000
# 3 38.9079 42.0029 122.6478 0.0000 0.0000 0.0000
# 4 0.0000 0.0000 0.0000 4.4619 0.0000 0.0000
# 5 0.0000 0.0000 0.0000 0.0000 -0.7436 0.0000
# 6 0.0000 0.0000 0.0000 0.0000 0.0000 26.4659
#
#
#
# Elastic Compliance Matrix: (Units=1/GPa)
#
#
# Indices 1 2 3 4 5 6 
#
# 1 0.053685 -0.024058 -0.008791 0.000000 0.000000 0.000000
# 2 -0.024058 0.025498 -0.001100 0.000000 0.000000 0.000000
# 3 -0.008791 -0.001100 0.011319 0.000000 0.000000 0.000000
# 4 0.000000 0.000000 0.000000 0.224119 0.000000 0.000000
# 5 0.000000 0.000000 0.000000 0.000000 -1.344738 0.000000
# 6 0.000000 0.000000 0.000000 0.000000 0.000000 0.037784
#
#
# Mechanical properties :
#
#
# Convention : Reuss Voigt Hill
#
# Bulk Modulus (GPa) = 44.24345 55.44142 49.84243
# Shear Modulus (GPa) = -5.45316 14.36434 4.45559
#
# Velocity S-wave (km/s) = -1.75906 2.85496 1.59004
# Velocity P-wave (km/s) = 4.58033 6.50591 5.62611
#
# Compressibility (1/GPa) = 0.02260222
#
# Stress axis : x y z
#
# Youngs Moduli (GPa) = 18.62734 39.21853 88.34613
#
# Poissons Ratio (x) = 0.94353 0.77668
# Poissons Ratio (y) = 0.44814 0.09720
# Poissons Ratio (z) = 0.16376 0.04315
#
# Static dielectric constant tensor:
#      x y z
#    x 1.624070 0.000000 0.000000 
#    y 0.000000 1.578670 0.000000 
#    z 0.000000 0.000000 1.619730 
# 
# From -- ./inp_files/15520.got.cif
#   From: 2010.05.17/outbox.cif.g08.bks.cpg/sg69_8_cif.got.tgz:15520.got - 2010.06.03 19:29:58.
