data_PCOD9512434
_publ_section_title
;
Structure prediction by ZEFSAII (Michael W. Deem and Ramdas Pophale) SiO2 
 PCOD9512434
Probable space group: F M M M
;
_chemical_formula_sum "Si O2"
_cell_formula_units_Z 208
_cell_length_a 28.721417
_cell_length_b 16.449454
_cell_length_c 24.789673
_cell_angle_alpha 90.000000
_cell_angle_beta 90.000000
_cell_angle_gamma 90.000000
_cell_volume 11711.921360
_symmetry_space_group_name_H-M "F M M M"
_symmetry_group_IT_number 69
_symmetry_cell_setting 'orthorhombic'
loop_
_space_group_symop_operation_xyz
x,y,z
-x,-y,z
x,-y,-z
-x,y,-z
-x,-y,-z
x,y,-z
-x,y,z
x,-y,z
x,1/2+y,1/2+z
-x,1/2-y,1/2+z
x,1/2-y,1/2-z
-x,1/2+y,1/2-z
-x,1/2-y,1/2-z
x,1/2+y,1/2-z
-x,1/2+y,1/2+z
x,1/2-y,1/2+z
1/2+x,y,1/2+z
1/2-x,-y,1/2+z
1/2+x,-y,1/2-z
1/2-x,y,1/2-z
1/2-x,-y,1/2-z
1/2+x,y,1/2-z
1/2-x,y,1/2+z
1/2+x,-y,1/2+z
1/2+x,1/2+y,z
1/2-x,1/2-y,z
1/2+x,1/2-y,-z
1/2-x,1/2+y,-z
1/2-x,1/2-y,-z
1/2+x,1/2+y,-z
1/2-x,1/2+y,z
1/2+x,1/2-y,z
loop_
_atom_site_type_symbol
_atom_site_label
_atom_site_fract_x
_atom_site_fract_y
_atom_site_fract_z
Si Si1 0.918080 0.409037 0.862101
Si Si2 0.236349 0.839850 0.065122
Si Si3 0.864243 0.176365 0.936825
Si Si4 0.447367 0.653331 0.254143
Si Si5 0.838299 0.130479 0.437938
Si Si6 0.554954 0.403315 0.866793
Si Si7 0.500000 0.400350 0.438111
O O1 0.934425 0.500000 0.850434
O O2 0.915400 0.366668 0.804799
O O3 0.870599 0.410304 0.894448
O O4 0.955478 0.372339 0.903950
O O5 0.250000 0.750000 0.085931
O O6 0.184659 0.864813 0.082745
O O7 0.284119 0.887535 0.073866
O O8 0.232031 0.832896 0.000000
O O9 0.851439 0.272798 0.934530
O O10 0.908434 0.147909 0.902298
O O11 0.872521 0.156860 0.000000
O O12 0.500000 0.625057 0.268182
O O13 0.448467 0.750000 0.250000
O O14 0.435556 0.615166 0.196405
O O15 0.848062 0.106388 0.500000
O O16 0.500000 0.382263 0.876276
O O17 0.560283 0.500000 0.877005
O O18 0.500000 0.500000 0.440734
O O19 0.500000 0.371918 0.500000
#
# Coordination Sequence:
#
# PCOD9512434 Si02
#       7
#    32  32  32  32  32  32  16
#     4  11  20  31  49  71 101 136 167 199 243 299
#     4   7  12  26  49  72  96 128 167 206 246 295
#     4   9  17  32  53  75  99 132 171 209 251 299
#     4  10  20  35  54  73  92 124 172 220 250 289
#     4   9  17  30  49  76 105 133 166 206 248 294
#     4  10  21  35  51  72 101 133 166 208 258 308
#     4   9  18  30  43  64  98 138 167 186 222 283
#
# _framework density 17.759682000000002
#
# number of rings (size 3 to 8) (size 9 to 14) (size 15 to 20)
#    0.000    2.692    0.769    3.692    0.000    2.154 
#    1.385    1.538    0.000    3.692    0.000    6.462 
#    0.000    0.000    0.000    0.000    0.000    0.000 
#
# Total GULP energy -289496.035314 kJ/mol
# GULP energy per Si atom -5567.231448 kJ/mol
# Density = 1.771926 g / cm^3
# Si number density = 17.759682 Si / 1000 Ang^3
#
#
#
# Elastic Constant Matrix: (Units=GPa)
#
#
# Indices 1 2 3 4 5 6 
#
# 1 118.0101 22.0462 65.8225 0.0000 0.0000 0.0000
# 2 22.0462 32.9569 23.4916 0.0000 0.0000 0.0000
# 3 65.8225 23.4916 94.1782 0.0000 0.0000 0.0000
# 4 0.0000 0.0000 0.0000 7.9378 0.0000 0.0000
# 5 0.0000 0.0000 0.0000 0.0000 0.4271 0.0000
# 6 0.0000 0.0000 0.0000 0.0000 0.0000 8.0260
#
#
#
# Elastic Compliance Matrix: (Units=1/GPa)
#
#
# Indices 1 2 3 4 5 6 
#
# 1 0.014117 -0.002932 -0.009135 0.000000 0.000000 0.000000
# 2 -0.002932 0.037513 -0.007308 0.000000 0.000000 0.000000
# 3 -0.009135 -0.007308 0.018826 0.000000 0.000000 0.000000
# 4 0.000000 0.000000 0.000000 0.125980 0.000000 0.000000
# 5 0.000000 0.000000 0.000000 0.000000 2.341465 0.000000
# 6 0.000000 0.000000 0.000000 0.000000 0.000000 0.124594
#
#
# Mechanical properties :
#
#
# Convention : Reuss Voigt Hill
#
# Bulk Modulus (GPa) = 31.54023 51.98510 41.76267
# Shear Modulus (GPa) = 1.84378 12.19717 7.02048
#
# Velocity S-wave (km/s) = 1.02002 2.62351 1.99038
# Velocity P-wave (km/s) = 4.38010 6.20581 5.37109
#
# Compressibility (1/GPa) = 0.03170554
#
# Stress axis : x y z
#
# Youngs Moduli (GPa) = 70.83702 26.65741 53.11851
#
# Poissons Ratio (x) = 0.07815 0.48525
# Poissons Ratio (y) = 0.20768 0.38820
# Poissons Ratio (z) = 0.64711 0.19482
#
# Static dielectric constant tensor:
#      x y z
#    x 1.647460 0.000000 0.000000 
#    y 0.000000 1.666460 0.000000 
#    z 0.000000 0.000000 1.579110 
# 
# From -- ./inp_files/38517.got.cif
#   From: 2010.05.17/outbox.cif.g08.bks.cpg/sg69_20_cif.got.tgz:38517.got - 2010.06.03 19:29:58.
