data_PCOD9512501
_publ_section_title
;
Structure prediction by ZEFSAII (Michael W. Deem and Ramdas Pophale) SiO2 
 PCOD9512501
Probable space group: F M M M
;
_chemical_formula_sum "Si O2"
_cell_formula_units_Z 176
_cell_length_a 17.607953
_cell_length_b 18.843471
_cell_length_c 28.130777
_cell_angle_alpha 90.000000
_cell_angle_beta 90.000000
_cell_angle_gamma 90.000000
_cell_volume 9333.649797
_symmetry_space_group_name_H-M "F M M M"
_symmetry_group_IT_number 69
_symmetry_cell_setting 'orthorhombic'
loop_
_space_group_symop_operation_xyz
x,y,z
-x,-y,z
x,-y,-z
-x,y,-z
-x,-y,-z
x,y,-z
-x,y,z
x,-y,z
x,1/2+y,1/2+z
-x,1/2-y,1/2+z
x,1/2-y,1/2-z
-x,1/2+y,1/2-z
-x,1/2-y,1/2-z
x,1/2+y,1/2-z
-x,1/2+y,1/2+z
x,1/2-y,1/2+z
1/2+x,y,1/2+z
1/2-x,-y,1/2+z
1/2+x,-y,1/2-z
1/2-x,y,1/2-z
1/2-x,-y,1/2-z
1/2+x,y,1/2-z
1/2-x,y,1/2+z
1/2+x,-y,1/2+z
1/2+x,1/2+y,z
1/2-x,1/2-y,z
1/2+x,1/2-y,-z
1/2-x,1/2+y,-z
1/2-x,1/2-y,-z
1/2+x,1/2+y,-z
1/2-x,1/2+y,z
1/2+x,1/2-y,z
loop_
_atom_site_type_symbol
_atom_site_label
_atom_site_fract_x
_atom_site_fract_y
_atom_site_fract_z
Si Si1 0.591005 0.178112 0.724516
Si Si2 0.134690 0.846394 0.883616
Si Si3 0.336516 0.721081 0.551175
Si Si4 0.200127 0.084708 0.399573
Si Si5 0.500000 0.084912 0.444239
Si Si6 0.414180 0.415649 0.313534
O O1 0.500000 0.184821 0.718863
O O2 0.619239 0.250000 0.750000
O O3 0.621871 0.160773 0.672564
O O4 0.606275 0.117222 0.762908
O O5 0.131030 0.767225 0.905875
O O6 0.214992 0.885809 0.891517
O O7 0.072187 0.888596 0.914016
O O8 0.372663 0.736817 0.500000
O O9 0.250000 0.750000 0.548905
O O10 0.334045 0.637277 0.560700
O O11 0.148173 0.099434 0.353396
O O12 0.199589 0.000000 0.409327
O O13 0.500000 0.108424 0.500000
O O14 0.500000 0.000000 0.444969
O O15 0.500000 0.389802 0.326228
O O16 0.417775 0.500000 0.309290
#
# Coordination Sequence:
#
# PCOD9512501 Si02
#       6
#    32  32  32  32  16  32
#     4  10  20  35  56  84 115 155 201 243 284 343
#     4  11  21  38  59  87 120 158 196 246 296 355
#     4   9  19  36  57  80 110 147 191 240 291 347
#     4  10  21  37  59  88 118 153 198 247 301 354
#     4  11  24  40  59  88 125 161 198 241 295 364
#     4   9  19  36  56  79 111 151 190 235 292 350
#
# _framework density 18.856504000000001
#
# number of rings (size 3 to 8) (size 9 to 14) (size 15 to 20)
#    0.000    2.091    0.909    2.182    0.000    3.273 
#    1.636    2.727    0.000    0.000    0.000    2.545 
#    0.000    0.000    0.000    0.000    0.000    0.000 
#
# Total GULP energy -245239.505699 kJ/mol
# GULP energy per Si atom -5573.625130 kJ/mol
# Density = 1.881359 g / cm^3
# Si number density = 18.856504 Si / 1000 Ang^3
#
#
#
# Elastic Constant Matrix: (Units=GPa)
#
#
# Indices 1 2 3 4 5 6 
#
# 1 68.1610 32.4342 46.4365 0.0000 0.0000 0.0000
# 2 32.4342 93.3960 52.0104 0.0000 0.0000 0.0000
# 3 46.4365 52.0104 121.5267 0.0000 0.0000 0.0000
# 4 0.0000 0.0000 0.0000 28.4167 0.0000 0.0000
# 5 0.0000 0.0000 0.0000 0.0000 30.9481 0.0000
# 6 0.0000 0.0000 0.0000 0.0000 0.0000 16.8383
#
#
#
# Elastic Compliance Matrix: (Units=1/GPa)
#
#
# Indices 1 2 3 4 5 6 
#
# 1 0.020747 -0.003663 -0.006360 0.000000 0.000000 0.000000
# 2 -0.003663 0.014704 -0.004893 0.000000 0.000000 0.000000
# 3 -0.006360 -0.004893 0.012753 0.000000 0.000000 0.000000
# 4 0.000000 0.000000 0.000000 0.035191 0.000000 0.000000
# 5 0.000000 0.000000 0.000000 0.000000 0.032312 0.000000
# 6 0.000000 0.000000 0.000000 0.000000 0.000000 0.059389
#
#
# Mechanical properties :
#
#
# Convention : Reuss Voigt Hill
#
# Bulk Modulus (GPa) = 54.43212 60.53845 57.48529
# Shear Modulus (GPa) = 23.69078 25.38744 24.53911
#
# Velocity S-wave (km/s) = 3.54838 3.67324 3.61135
# Velocity P-wave (km/s) = 6.76145 7.08271 6.92394
#
# Compressibility (1/GPa) = 0.01837150
#
# Stress axis : x y z
#
# Youngs Moduli (GPa) = 48.19936 68.00764 78.41284
#
# Poissons Ratio (x) = 0.24913 0.49870
# Poissons Ratio (y) = 0.17657 0.38369
# Poissons Ratio (z) = 0.30654 0.33278
#
# Static dielectric constant tensor:
#      x y z
#    x 1.663290 0.000000 0.000000 
#    y 0.000000 1.672460 0.000000 
#    z 0.000000 0.000000 1.633230 
# 
# From -- ./inp_files/41799.got.cif
#   From: 2010.05.17/outbox.cif.g08.bks.cpg/sg69_21_cif.got.tgz:41799.got - 2010.06.03 19:29:58.
