data_PCOD9512727
_publ_section_title
;
Structure prediction by ZEFSAII (Michael W. Deem and Ramdas Pophale) SiO2 
 PCOD9512727
Probable space group: F M M M
;
_chemical_formula_sum "Si O2"
_cell_formula_units_Z 160
_cell_length_a 21.846306
_cell_length_b 20.601624
_cell_length_c 18.773264
_cell_angle_alpha 90.000000
_cell_angle_beta 90.000000
_cell_angle_gamma 90.000000
_cell_volume 8449.271327
_symmetry_space_group_name_H-M "F M M M"
_symmetry_group_IT_number 69
_symmetry_cell_setting 'orthorhombic'
loop_
_space_group_symop_operation_xyz
x,y,z
-x,-y,z
x,-y,-z
-x,y,-z
-x,-y,-z
x,y,-z
-x,y,z
x,-y,z
x,1/2+y,1/2+z
-x,1/2-y,1/2+z
x,1/2-y,1/2-z
-x,1/2+y,1/2-z
-x,1/2-y,1/2-z
x,1/2+y,1/2-z
-x,1/2+y,1/2+z
x,1/2-y,1/2+z
1/2+x,y,1/2+z
1/2-x,-y,1/2+z
1/2+x,-y,1/2-z
1/2-x,y,1/2-z
1/2-x,-y,1/2-z
1/2+x,y,1/2-z
1/2-x,y,1/2+z
1/2+x,-y,1/2+z
1/2+x,1/2+y,z
1/2-x,1/2-y,z
1/2+x,1/2-y,-z
1/2-x,1/2+y,-z
1/2-x,1/2-y,-z
1/2+x,1/2+y,-z
1/2-x,1/2+y,z
1/2+x,1/2-y,z
loop_
_atom_site_type_symbol
_atom_site_label
_atom_site_fract_x
_atom_site_fract_y
_atom_site_fract_z
Si Si1 0.680273 0.224329 0.000000
Si Si2 0.134504 0.710322 0.145530
Si Si3 0.105060 0.573874 0.629727
Si Si4 0.500000 0.572190 0.248484
Si Si5 0.071263 0.832275 0.000000
Si Si6 0.316838 0.159141 0.283286
Si Si7 0.000000 0.791827 0.676951
O O1 0.750000 0.250000 0.000000
O O2 0.666595 0.187331 0.073602
O O3 0.627058 0.280169 0.000000
O O4 0.168452 0.775873 0.171683
O O5 0.140385 0.663196 0.213234
O O6 0.062588 0.724202 0.136264
O O7 0.109235 0.500000 0.604136
O O8 0.057146 0.576491 0.694656
O O9 0.082169 0.621946 0.568638
O O10 0.167420 0.600443 0.664689
O O11 0.500000 0.500000 0.281779
O O12 0.500000 0.632388 0.301957
O O13 0.000000 0.809754 0.000000
O O14 0.250000 0.159384 0.250000
O O15 0.000000 0.750000 0.750000
#
# Coordination Sequence:
#
# PCOD9512727 Si02
#       7
#    16  32  32  16  16  32  16
#     4  12  26  41  59  88 121 168 199 241 307 377
#     4  11  22  36  60  85 119 154 197 246 309 355
#     4  11  22  38  60  87 119 161 203 244 301 369
#     4  10  20  37  58  87 122 159 196 240 307 371
#     4  12  25  38  60  91 131 159 195 247 313 380
#     4  11  21  37  57  83 118 158 201 249 295 355
#     4  12  20  35  61  93 123 151 196 260 312 358
#
# _framework density 18.936544000000001
#
# number of rings (size 3 to 8) (size 9 to 14) (size 15 to 20)
#    0.000    0.800    7.000    2.700    1.400    0.800 
#    0.000    0.000    0.000    0.000    0.000    3.500 
#    0.000    0.000    0.000    0.000    0.000    0.000 
#
# Total GULP energy -223310.677621 kJ/mol
# GULP energy per Si atom -5582.766941 kJ/mol
# Density = 1.889344 g / cm^3
# Si number density = 18.936544 Si / 1000 Ang^3
#
#
#
# Elastic Constant Matrix: (Units=GPa)
#
#
# Indices 1 2 3 4 5 6 
#
# 1 131.2357 10.4502 11.6807 0.0000 0.0000 0.0000
# 2 10.4502 72.1757 3.1105 0.0000 0.0000 0.0000
# 3 11.6807 3.1105 74.5529 0.0000 0.0000 0.0000
# 4 0.0000 0.0000 0.0000 20.4916 0.0000 0.0000
# 5 0.0000 0.0000 0.0000 0.0000 26.0009 0.0000
# 6 0.0000 0.0000 0.0000 0.0000 0.0000 8.7708
#
#
#
# Elastic Compliance Matrix: (Units=1/GPa)
#
#
# Indices 1 2 3 4 5 6 
#
# 1 0.007811 -0.001080 -0.001179 0.000000 0.000000 0.000000
# 2 -0.001080 0.014029 -0.000416 0.000000 0.000000 0.000000
# 3 -0.001179 -0.000416 0.013615 0.000000 0.000000 0.000000
# 4 0.000000 0.000000 0.000000 0.048800 0.000000 0.000000
# 5 0.000000 0.000000 0.000000 0.000000 0.038460 0.000000
# 6 0.000000 0.000000 0.000000 0.000000 0.000000 0.114015
#
#
# Mechanical properties :
#
#
# Convention : Reuss Voigt Hill
#
# Bulk Modulus (GPa) = 33.21635 36.49413 34.85524
# Shear Modulus (GPa) = 19.83215 27.90085 23.86650
#
# Velocity S-wave (km/s) = 3.23970 3.84264 3.55398
# Velocity P-wave (km/s) = 5.61900 6.24511 5.94031
#
# Compressibility (1/GPa) = 0.03010566
#
# Stress axis : x y z
#
# Youngs Moduli (GPa) = 128.02790 71.27893 73.44659
#
# Poissons Ratio (x) = 0.07699 0.08657
# Poissons Ratio (y) = 0.13828 0.03056
# Poissons Ratio (z) = 0.15091 0.02966
#
# Static dielectric constant tensor:
#      x y z
#    x 1.727450 0.000000 0.000000 
#    y 0.000000 1.664560 0.000000 
#    z 0.000000 0.000000 1.676670 
# 
# From -- ./inp_files/24697.got.cif
#   From: 2010.05.17/outbox.cif.g08.bks.cpg/sg69_13_cif.got.tgz:24697.got - 2010.06.03 19:29:58.
