data_PCOD9512309
_publ_section_title
;
Structure prediction by ZEFSAII (Michael W. Deem and Ramdas Pophale) SiO2 
 PCOD9512309
Probable space group: F M M M
;
_chemical_formula_sum "Si O2"
_cell_formula_units_Z 160
_cell_length_a 14.787510
_cell_length_b 17.431355
_cell_length_c 30.237591
_cell_angle_alpha 90.000000
_cell_angle_beta 90.000000
_cell_angle_gamma 90.000000
_cell_volume 7794.233053
_symmetry_space_group_name_H-M "F M M M"
_symmetry_group_IT_number 69
_symmetry_cell_setting 'orthorhombic'
loop_
_space_group_symop_operation_xyz
x,y,z
-x,-y,z
x,-y,-z
-x,y,-z
-x,-y,-z
x,y,-z
-x,y,z
x,-y,z
x,1/2+y,1/2+z
-x,1/2-y,1/2+z
x,1/2-y,1/2-z
-x,1/2+y,1/2-z
-x,1/2-y,1/2-z
x,1/2+y,1/2-z
-x,1/2+y,1/2+z
x,1/2-y,1/2+z
1/2+x,y,1/2+z
1/2-x,-y,1/2+z
1/2+x,-y,1/2-z
1/2-x,y,1/2-z
1/2-x,-y,1/2-z
1/2+x,y,1/2-z
1/2-x,y,1/2+z
1/2+x,-y,1/2+z
1/2+x,1/2+y,z
1/2-x,1/2-y,z
1/2+x,1/2-y,-z
1/2-x,1/2+y,-z
1/2-x,1/2-y,-z
1/2+x,1/2+y,-z
1/2-x,1/2+y,z
1/2+x,1/2-y,z
loop_
_atom_site_type_symbol
_atom_site_label
_atom_site_fract_x
_atom_site_fract_y
_atom_site_fract_z
Si Si1 0.654858 0.204503 0.428916
Si Si2 0.406048 0.820894 0.000000
Si Si3 0.897027 0.158952 0.759099
Si Si4 0.101182 0.908779 0.338954
Si Si5 0.217192 0.590684 0.500000
Si Si6 0.784384 0.665955 0.659476
O O1 0.750000 0.250000 0.427138
O O2 0.597406 0.264315 0.457482
O O3 0.668057 0.128550 0.457933
O O4 0.640475 0.179867 0.378473
O O5 0.500000 0.865063 0.000000
O O6 0.318681 0.874589 0.000000
O O7 0.883898 0.250000 0.750000
O O8 0.890386 0.115711 0.712469
O O9 0.828194 0.131013 0.796631
O O10 0.000000 0.149866 0.775205
O O11 0.194503 0.876094 0.359159
O O12 0.000000 0.881147 0.353871
O O13 0.101571 0.000000 0.343536
O O14 0.216872 0.500000 0.500000
O O15 0.750000 0.750000 0.672654
#
# Coordination Sequence:
#
# PCOD9512309 Si02
#       6
#    32  16  32  32  16  32
#     4   8  18  34  51  77 107 142 183 220 265 328
#     4   9  17  34  58  82 113 143 174 222 278 335
#     4  10  20  34  52  78 112 148 191 238 279 327
#     4  10  22  38  54  77 112 150 186 232 292 344
#     4   9  17  34  56  76 107 145 178 220 276 333
#     4  11  20  32  56  81 107 147 193 234 276 331
#
# _framework density 20.527998
#
# number of rings (size 3 to 8) (size 9 to 14) (size 15 to 20)
#    0.000    2.400    2.000    1.800    0.000    3.400 
#    0.000    8.000    0.000    4.800    0.000    5.600 
#    0.000    0.000    0.000    0.000    0.000    0.000 
#
# Total GULP energy -222849.357850 kJ/mol
# GULP energy per Si atom -5571.233946 kJ/mol
# Density = 2.048128 g / cm^3
# Si number density = 20.527998 Si / 1000 Ang^3
#
#
#
# Elastic Constant Matrix: (Units=GPa)
#
#
# Indices 1 2 3 4 5 6 
#
# 1 52.7018 -4.4459 -5.7724 0.0000 0.0000 0.0000
# 2 -4.4459 70.0002 -15.1875 0.0000 0.0000 0.0000
# 3 -5.7724 -15.1875 49.5871 0.0000 0.0000 0.0000
# 4 0.0000 0.0000 0.0000 5.6837 0.0000 0.0000
# 5 0.0000 0.0000 0.0000 0.0000 20.7495 0.0000
# 6 0.0000 0.0000 0.0000 0.0000 0.0000 17.7927
#
#
#
# Elastic Compliance Matrix: (Units=1/GPa)
#
#
# Indices 1 2 3 4 5 6 
#
# 1 0.019440 0.001849 0.002829 0.000000 0.000000 0.000000
# 2 0.001849 0.015478 0.004956 0.000000 0.000000 0.000000
# 3 0.002829 0.004956 0.022014 0.000000 0.000000 0.000000
# 4 0.000000 0.000000 0.000000 0.175942 0.000000 0.000000
# 5 0.000000 0.000000 0.000000 0.000000 0.048194 0.000000
# 6 0.000000 0.000000 0.000000 0.000000 0.000000 0.056203
#
#
# Mechanical properties :
#
#
# Convention : Reuss Voigt Hill
#
# Bulk Modulus (GPa) = 13.12339 13.49752 13.31045
# Shear Modulus (GPa) = 14.56014 22.02485 18.29249
#
# Velocity S-wave (km/s) = 2.66612 3.27910 2.98837
# Velocity P-wave (km/s) = 3.98553 4.57450 4.29013
#
# Compressibility (1/GPa) = 0.07619982
#
# Stress axis : x y z
#
# Youngs Moduli (GPa) = 51.43902 64.60645 45.42618
#
# Poissons Ratio (x) = -0.11943 -0.12852
# Poissons Ratio (y) = -0.09509 -0.22513
# Poissons Ratio (z) = -0.14553 -0.32018
#
# Static dielectric constant tensor:
#      x y z
#    x 1.823210 0.000000 0.000000 
#    y 0.000000 1.689270 0.000000 
#    z 0.000000 0.000000 1.801960 
# 
# From -- ./inp_files/45674.got.cif
#   From: 2010.05.17/outbox.cif.g08.bks.cpg/sg69_23_cif.got.tgz:45674.got - 2010.06.03 19:29:58.
