data_PCOD9512002
_publ_section_title
;
Structure prediction by ZEFSAII (Michael W. Deem and Ramdas Pophale) SiO2 
 PCOD9512002
Probable space group: F M M M
;
_chemical_formula_sum "Si O2"
_cell_formula_units_Z 192
_cell_length_a 30.916024
_cell_length_b 17.147744
_cell_length_c 19.275126
_cell_angle_alpha 90.000000
_cell_angle_beta 90.000000
_cell_angle_gamma 90.000000
_cell_volume 10218.516551
_symmetry_space_group_name_H-M "F M M M"
_symmetry_group_IT_number 69
_symmetry_cell_setting 'orthorhombic'
loop_
_space_group_symop_operation_xyz
x,y,z
-x,-y,z
x,-y,-z
-x,y,-z
-x,-y,-z
x,y,-z
-x,y,z
x,-y,z
x,1/2+y,1/2+z
-x,1/2-y,1/2+z
x,1/2-y,1/2-z
-x,1/2+y,1/2-z
-x,1/2-y,1/2-z
x,1/2+y,1/2-z
-x,1/2+y,1/2+z
x,1/2-y,1/2+z
1/2+x,y,1/2+z
1/2-x,-y,1/2+z
1/2+x,-y,1/2-z
1/2-x,y,1/2-z
1/2-x,-y,1/2-z
1/2+x,y,1/2-z
1/2-x,y,1/2+z
1/2+x,-y,1/2+z
1/2+x,1/2+y,z
1/2-x,1/2-y,z
1/2+x,1/2-y,-z
1/2-x,1/2+y,-z
1/2-x,1/2-y,-z
1/2+x,1/2+y,-z
1/2-x,1/2+y,z
1/2+x,1/2-y,z
loop_
_atom_site_type_symbol
_atom_site_label
_atom_site_fract_x
_atom_site_fract_y
_atom_site_fract_z
Si Si1 0.000000 0.409194 0.720972
Si Si2 0.083664 0.689428 0.685494
Si Si3 0.671400 0.093593 0.303661
Si Si4 0.238623 0.404931 0.422244
Si Si5 0.910961 0.176733 0.580117
Si Si6 0.172111 0.906649 0.643419
Si Si7 0.500000 0.409631 0.388236
O O1 0.042276 0.365190 0.694286
O O2 0.000000 0.404139 0.804608
O O3 0.000000 0.500000 0.701755
O O4 0.084427 0.750000 0.750000
O O5 0.126566 0.637727 0.685764
O O6 0.081726 0.740485 0.616306
O O7 0.706117 0.119497 0.361170
O O8 0.684345 0.108401 0.223699
O O9 0.665808 0.000000 0.310339
O O10 0.226475 0.379625 0.500000
O O11 0.238448 0.500000 0.421529
O O12 0.287523 0.381273 0.403586
O O13 0.898537 0.182463 0.500000
O O14 0.872425 0.134065 0.621914
O O15 0.956055 0.130320 0.586244
O O16 0.166323 0.000000 0.635798
O O17 0.500000 0.500000 0.408259
#
# Coordination Sequence:
#
# PCOD9512002 Si02
#       7
#    16  32  32  32  32  32  16
#     4  11  22  40  69  95 115 151 203 248 287 340
#     4  12  22  40  62  86 121 159 194 239 290 351
#     4  10  20  36  61  88 115 153 204 249 294 351
#     4   9  18  33  56  86 119 155 199 253 304 346
#     4  12  25  38  57  87 124 163 196 238 301 364
#     4  10  19  35  59  88 119 157 203 250 297 357
#     4  11  22  38  60  90 123 156 195 237 290 358
#
# _framework density 18.789421000000001
#
# number of rings (size 3 to 8) (size 9 to 14) (size 15 to 20)
#    0.000    1.333    3.333    3.000    0.000    7.667 
#    0.000    0.833    0.000    4.000    0.000    0.000 
#    0.000    0.000    0.000    0.000    0.000    0.000 
#
# Total GULP energy -268217.878489 kJ/mol
# GULP energy per Si atom -5587.872469 kJ/mol
# Density = 1.874666 g / cm^3
# Si number density = 18.789421 Si / 1000 Ang^3
#
#
#
# Elastic Constant Matrix: (Units=GPa)
#
#
# Indices 1 2 3 4 5 6 
#
# 1 124.9533 34.9009 51.3713 0.0000 0.0000 0.0000
# 2 34.9009 46.7793 45.5515 0.0000 0.0000 0.0000
# 3 51.3713 45.5515 125.3582 0.0000 0.0000 0.0000
# 4 0.0000 0.0000 0.0000 -1.2055 0.0000 0.0000
# 5 0.0000 0.0000 0.0000 0.0000 2.5679 0.0000
# 6 0.0000 0.0000 0.0000 0.0000 0.0000 -316.6588
#
#
#
# Elastic Compliance Matrix: (Units=1/GPa)
#
#
# Indices 1 2 3 4 5 6 
#
# 1 0.010506 -0.005643 -0.002255 0.000000 0.000000 0.000000
# 2 -0.005643 0.036113 -0.010810 0.000000 0.000000 0.000000
# 3 -0.002255 -0.010810 0.012829 0.000000 0.000000 0.000000
# 4 0.000000 0.000000 0.000000 -0.829506 0.000000 0.000000
# 5 0.000000 0.000000 0.000000 0.000000 0.389420 0.000000
# 6 0.000000 0.000000 0.000000 0.000000 0.000000 -0.003158
#
#
# Mechanical properties :
#
#
# Convention : Reuss Voigt Hill
#
# Bulk Modulus (GPa) = 45.38617 62.30426 53.84521
# Shear Modulus (GPa) = -14.74774 -52.04148 -33.39461
#
# Velocity S-wave (km/s) = -2.80464 -5.26852 -4.22039
# Velocity P-wave (km/s) = 3.70400 1.94386 2.22946
#
# Compressibility (1/GPa) = 0.02203314
#
# Stress axis : x y z
#
# Youngs Moduli (GPa) = 95.18274 27.69075 77.94627
#
# Poissons Ratio (x) = 0.15625 0.17577
# Poissons Ratio (y) = 0.53707 0.84261
# Poissons Ratio (z) = 0.21464 0.29934
#
# Static dielectric constant tensor:
#      x y z
#    x 1.619470 0.000000 0.000000 
#    y 0.000000 1.633400 0.000000 
#    z 0.000000 0.000000 1.657830 
# 
# From -- ./inp_files/27801.got.cif
#   From: 2010.05.17/outbox.cif.g08.bks.cpg/sg69_14_cif.got.tgz:27801.got - 2010.06.03 19:29:58.
