data_PCOD9512805
_publ_section_title
;
Structure prediction by ZEFSAII (Michael W. Deem and Ramdas Pophale) SiO2 
 PCOD9512805
Probable space group: F M M M
;
_chemical_formula_sum "Si O2"
_cell_formula_units_Z 112
_cell_length_a 26.740866
_cell_length_b 11.441065
_cell_length_c 18.677038
_cell_angle_alpha 90.000000
_cell_angle_beta 90.000000
_cell_angle_gamma 90.000000
_cell_volume 5714.127454
_symmetry_space_group_name_H-M "F M M M"
_symmetry_group_IT_number 69
_symmetry_cell_setting 'orthorhombic'
loop_
_space_group_symop_operation_xyz
x,y,z
-x,-y,z
x,-y,-z
-x,y,-z
-x,-y,-z
x,y,-z
-x,y,z
x,-y,z
x,1/2+y,1/2+z
-x,1/2-y,1/2+z
x,1/2-y,1/2-z
-x,1/2+y,1/2-z
-x,1/2-y,1/2-z
x,1/2+y,1/2-z
-x,1/2+y,1/2+z
x,1/2-y,1/2+z
1/2+x,y,1/2+z
1/2-x,-y,1/2+z
1/2+x,-y,1/2-z
1/2-x,y,1/2-z
1/2-x,-y,1/2-z
1/2+x,y,1/2-z
1/2-x,y,1/2+z
1/2+x,-y,1/2+z
1/2+x,1/2+y,z
1/2-x,1/2-y,z
1/2+x,1/2-y,-z
1/2-x,1/2+y,-z
1/2-x,1/2-y,-z
1/2+x,1/2+y,-z
1/2-x,1/2+y,z
1/2+x,1/2-y,z
loop_
_atom_site_type_symbol
_atom_site_label
_atom_site_fract_x
_atom_site_fract_y
_atom_site_fract_z
Si Si1 0.226907 0.631304 0.169870
Si Si2 0.940368 0.000000 0.583931
Si Si3 0.445174 0.639303 0.918723
Si Si4 0.388004 0.294623 0.328239
O O1 0.234956 0.500000 0.138627
O O2 0.250000 0.626874 0.250000
O O3 0.250000 0.750000 0.135446
O O4 0.167842 0.655991 0.175795
O O5 0.920890 0.109986 0.629838
O O6 0.922919 0.000000 0.500000
O O7 0.000000 0.000000 0.582065
O O8 0.500000 0.675505 0.888273
O O9 0.445538 0.500000 0.920514
O O10 0.396981 0.681713 0.876932
O O11 0.443461 0.683896 0.000000
O O12 0.404011 0.250000 0.250000
#
# Coordination Sequence:
#
# PCOD9512805 Si02
#       4
#    32  16  32  32
#     4  10  20  38  61  91 127 167 213 273 341 411
#     4  11  26  46  65  92 141 189 216 259 343 420
#     4   9  20  39  61  87 128 178 217 259 328 402
#     4  12  23  37  65 101 124 167 223 281 321 391
#
# _framework density 19.600542999999998
#
# number of rings (size 3 to 8) (size 9 to 14) (size 15 to 20)
#    0.000    1.571    4.286    2.571    2.000    5.714 
#    0.000    0.000    0.000    3.429    0.000    0.000 
#    0.000    0.000    0.000    0.000    0.000    0.000 
#
# Total GULP energy -155904.567887 kJ/mol
# GULP energy per Si atom -5568.020282 kJ/mol
# Density = 1.955593 g / cm^3
# Si number density = 19.600543 Si / 1000 Ang^3
#
#
#
# Elastic Constant Matrix: (Units=GPa)
#
#
# Indices 1 2 3 4 5 6 
#
# 1 95.3131 32.7565 45.0155 0.0000 0.0000 0.0000
# 2 32.7565 127.2512 41.7363 0.0000 0.0000 0.0000
# 3 45.0155 41.7363 81.8796 0.0000 0.0000 0.0000
# 4 0.0000 0.0000 0.0000 13.8894 0.0000 0.0000
# 5 0.0000 0.0000 0.0000 0.0000 -41.2917 0.0000
# 6 0.0000 0.0000 0.0000 0.0000 0.0000 34.4445
#
#
#
# Elastic Compliance Matrix: (Units=1/GPa)
#
#
# Indices 1 2 3 4 5 6 
#
# 1 0.014356 -0.001329 -0.007215 0.000000 0.000000 0.000000
# 2 -0.001329 0.009559 -0.004142 0.000000 0.000000 0.000000
# 3 -0.007215 -0.004142 0.018291 0.000000 0.000000 0.000000
# 4 0.000000 0.000000 0.000000 0.071997 0.000000 0.000000
# 5 0.000000 0.000000 0.000000 0.000000 -0.024218 0.000000
# 6 0.000000 0.000000 0.000000 0.000000 0.000000 0.029032
#
#
# Mechanical properties :
#
#
# Convention : Reuss Voigt Hill
#
# Bulk Modulus (GPa) = 59.40348 60.38448 59.89398
# Shear Modulus (GPa) = 33.33307 13.73750 23.53529
#
# Velocity S-wave (km/s) = 4.12833 2.65027 3.46894
# Velocity P-wave (km/s) = 7.28677 6.34348 6.83142
#
# Compressibility (1/GPa) = 0.01683403
#
# Stress axis : x y z
#
# Youngs Moduli (GPa) = 69.65643 104.61304 54.67160
#
# Poissons Ratio (x) = 0.13903 0.39447
# Poissons Ratio (y) = 0.09258 0.22644
# Poissons Ratio (z) = 0.50259 0.43329
#
# Static dielectric constant tensor:
#      x y z
#    x 1.717300 0.000000 0.000000 
#    y 0.000000 1.827090 0.000000 
#    z 0.000000 0.000000 1.593980 
# 
# From -- ./inp_files/8312.got.cif
#   From: 2010.05.17/outbox.cif.g08.bks.cpg/sg69_5_cif.got.tgz:8312.got - 2010.06.03 19:29:58.
