data_PCOD9512592
_publ_section_title
;
Structure prediction by ZEFSAII (Michael W. Deem and Ramdas Pophale) SiO2 
 PCOD9512592
Probable space group: F M M M
;
_chemical_formula_sum "Si O2"
_cell_formula_units_Z 128
_cell_length_a 18.018283
_cell_length_b 28.518561
_cell_length_c 13.363191
_cell_angle_alpha 90.000000
_cell_angle_beta 90.000000
_cell_angle_gamma 90.000000
_cell_volume 6866.749231
_symmetry_space_group_name_H-M "F M M M"
_symmetry_group_IT_number 69
_symmetry_cell_setting 'orthorhombic'
loop_
_space_group_symop_operation_xyz
x,y,z
-x,-y,z
x,-y,-z
-x,y,-z
-x,-y,-z
x,y,-z
-x,y,z
x,-y,z
x,1/2+y,1/2+z
-x,1/2-y,1/2+z
x,1/2-y,1/2-z
-x,1/2+y,1/2-z
-x,1/2-y,1/2-z
x,1/2+y,1/2-z
-x,1/2+y,1/2+z
x,1/2-y,1/2+z
1/2+x,y,1/2+z
1/2-x,-y,1/2+z
1/2+x,-y,1/2-z
1/2-x,y,1/2-z
1/2-x,-y,1/2-z
1/2+x,y,1/2-z
1/2-x,y,1/2+z
1/2+x,-y,1/2+z
1/2+x,1/2+y,z
1/2-x,1/2-y,z
1/2+x,1/2-y,-z
1/2-x,1/2+y,-z
1/2-x,1/2-y,-z
1/2+x,1/2+y,-z
1/2-x,1/2+y,z
1/2+x,1/2-y,z
loop_
_atom_site_type_symbol
_atom_site_label
_atom_site_fract_x
_atom_site_fract_y
_atom_site_fract_z
Si Si1 0.500000 0.314844 0.613696
Si Si2 0.166744 0.552541 0.878976
Si Si3 0.000000 0.073036 0.385764
Si Si4 0.346350 0.302219 0.716785
Si Si5 0.771521 0.859472 0.885175
O O1 0.500000 0.296536 0.500000
O O2 0.500000 0.371087 0.608434
O O3 0.428047 0.300923 0.674387
O O4 0.190223 0.500000 0.850969
O O5 0.228352 0.592237 0.856998
O O6 0.081302 0.560015 0.841278
O O7 0.160536 0.555015 0.000000
O O8 0.000000 0.054136 0.500000
O O9 0.327621 0.250000 0.750000
O O10 0.292965 0.320709 0.628925
O O11 0.332317 0.339701 0.806957
O O12 0.796806 0.862429 0.000000
#
# Coordination Sequence:
#
# PCOD9512592 Si02
#       5
#    16  32  16  32  32
#     4  11  21  38  62  80 105 143 184 236 289 326
#     4   9  16  28  51  82 111 144 185 225 271 325
#     4   9  15  27  50  77 108 142 175 219 274 319
#     4  11  23  37  55  82 111 144 190 233 272 330
#     4  10  20  36  56  80 114 152 181 221 277 329
#
# _framework density 18.640553000000001
#
# number of rings (size 3 to 8) (size 9 to 14) (size 15 to 20)
#    0.000    2.000    2.500    3.000    0.000    4.500 
#    0.000    3.125    0.000    0.000    0.000    0.000 
#    0.000    4.000    0.000    0.000    0.000    0.000 
#
# Total GULP energy -178154.322703 kJ/mol
# GULP energy per Si atom -5567.322584 kJ/mol
# Density = 1.859813 g / cm^3
# Si number density = 18.640553 Si / 1000 Ang^3
#
#
#
# Elastic Constant Matrix: (Units=GPa)
#
#
# Indices 1 2 3 4 5 6 
#
# 1 115.9617 30.2701 51.8875 0.0000 0.0000 0.0000
# 2 30.2701 134.1336 29.7370 0.0000 0.0000 0.0000
# 3 51.8875 29.7370 94.3268 0.0000 0.0000 0.0000
# 4 0.0000 0.0000 0.0000 18.0692 0.0000 0.0000
# 5 0.0000 0.0000 0.0000 0.0000 10.3383 0.0000
# 6 0.0000 0.0000 0.0000 0.0000 0.0000 -3.0562
#
#
#
# Elastic Compliance Matrix: (Units=1/GPa)
#
#
# Indices 1 2 3 4 5 6 
#
# 1 0.011646 -0.001299 -0.005997 0.000000 0.000000 0.000000
# 2 -0.001299 0.008160 -0.001858 0.000000 0.000000 0.000000
# 3 -0.005997 -0.001858 0.014486 0.000000 0.000000 0.000000
# 4 0.000000 0.000000 0.000000 0.055343 0.000000 0.000000
# 5 0.000000 0.000000 0.000000 0.000000 0.096728 0.000000
# 6 0.000000 0.000000 0.000000 0.000000 0.000000 -0.327207
#
#
# Mechanical properties :
#
#
# Convention : Reuss Voigt Hill
#
# Bulk Modulus (GPa) = 62.55933 63.13460 62.84696
# Shear Modulus (GPa) = -42.65872 20.57211 -11.04330
#
# Velocity S-wave (km/s) = -4.78901 3.32568 -2.43664
# Velocity P-wave (km/s) = 1.74765 6.97782 5.08646
#
# Compressibility (1/GPa) = 0.01598483
#
# Stress axis : x y z
#
# Youngs Moduli (GPa) = 85.86794 122.54482 69.03245
#
# Poissons Ratio (x) = 0.15914 0.41397
# Poissons Ratio (y) = 0.11151 0.12828
# Poissons Ratio (z) = 0.51493 0.22771
#
# Static dielectric constant tensor:
#      x y z
#    x 1.709610 0.000000 0.000000 
#    y 0.000000 1.664160 0.000000 
#    z 0.000000 0.000000 1.670120 
# 
# From -- ./inp_files/15482.got.cif
#   From: 2010.05.17/outbox.cif.g08.bks.cpg/sg69_8_cif.got.tgz:15482.got - 2010.06.03 19:29:58.
