data_PCOD9512870
_publ_section_title
;
Structure prediction by ZEFSAII (Michael W. Deem and Ramdas Pophale) SiO2 
 PCOD9512870
Probable space group: F M M M
;
_chemical_formula_sum "Si O2"
_cell_formula_units_Z 96
_cell_length_a 20.244657
_cell_length_b 18.044947
_cell_length_c 13.641838
_cell_angle_alpha 90.000000
_cell_angle_beta 90.000000
_cell_angle_gamma 90.000000
_cell_volume 4983.551169
_symmetry_space_group_name_H-M "F M M M"
_symmetry_group_IT_number 69
_symmetry_cell_setting 'orthorhombic'
loop_
_space_group_symop_operation_xyz
x,y,z
-x,-y,z
x,-y,-z
-x,y,-z
-x,-y,-z
x,y,-z
-x,y,z
x,-y,z
x,1/2+y,1/2+z
-x,1/2-y,1/2+z
x,1/2-y,1/2-z
-x,1/2+y,1/2-z
-x,1/2-y,1/2-z
x,1/2+y,1/2-z
-x,1/2+y,1/2+z
x,1/2-y,1/2+z
1/2+x,y,1/2+z
1/2-x,-y,1/2+z
1/2+x,-y,1/2-z
1/2-x,y,1/2-z
1/2-x,-y,1/2-z
1/2+x,y,1/2-z
1/2-x,y,1/2+z
1/2+x,-y,1/2+z
1/2+x,1/2+y,z
1/2-x,1/2-y,z
1/2+x,1/2-y,-z
1/2-x,1/2+y,-z
1/2-x,1/2-y,-z
1/2+x,1/2+y,-z
1/2-x,1/2+y,z
1/2+x,1/2-y,z
loop_
_atom_site_type_symbol
_atom_site_label
_atom_site_fract_x
_atom_site_fract_y
_atom_site_fract_z
Si Si1 0.750000 0.374642 0.250000
Si Si2 0.421386 0.642681 0.609592
Si Si3 0.791386 0.000000 0.884119
Si Si4 0.579520 0.000000 0.246888
Si Si5 0.142794 0.750000 0.750000
O O1 0.751100 0.429443 0.342639
O O2 0.810457 0.319755 0.269889
O O3 0.393389 0.633337 0.500000
O O4 0.500000 0.644552 0.601979
O O5 0.408079 0.572576 0.680062
O O6 0.399026 0.719458 0.659295
O O7 0.864413 0.000000 0.831891
O O8 0.797382 0.000000 0.000000
O O9 0.500000 0.000000 0.274740
#
# Coordination Sequence:
#
# PCOD9512870 Si02
#       5
#    16  32  16  16  16
#     4  10  24  42  60  88 120 162 204 244 302 360
#     4  10  21  38  64  93 122 161 203 250 305 354
#     4  11  23  44  66  88 119 157 208 256 298 357
#     4  10  20  41  67  91 123 156 203 258 296 356
#     4  11  21  40  62  86 127 157 200 250 298 369
#
# _framework density 19.263370999999999
#
# number of rings (size 3 to 8) (size 9 to 14) (size 15 to 20)
#    0.000    1.667    3.333    1.000    0.000    5.000 
#    0.000    3.333    0.000    0.000    0.000    0.000 
#    0.000    0.000    0.000    0.000    0.000    0.000 
#
# Total GULP energy -133730.833572 kJ/mol
# GULP energy per Si atom -5572.118065 kJ/mol
# Density = 1.921953 g / cm^3
# Si number density = 19.263371 Si / 1000 Ang^3
#
#
#
# Elastic Constant Matrix: (Units=GPa)
#
#
# Indices 1 2 3 4 5 6 
#
# 1 73.0477 44.4617 43.9965 0.0000 0.0000 0.0000
# 2 44.4617 137.0361 68.2599 0.0000 0.0000 0.0000
# 3 43.9965 68.2599 161.1014 0.0000 0.0000 0.0000
# 4 0.0000 0.0000 0.0000 7.6638 0.0000 0.0000
# 5 0.0000 0.0000 0.0000 0.0000 25.7193 0.0000
# 6 0.0000 0.0000 0.0000 0.0000 0.0000 40.3174
#
#
#
# Elastic Compliance Matrix: (Units=1/GPa)
#
#
# Indices 1 2 3 4 5 6 
#
# 1 0.018226 -0.004353 -0.003133 0.000000 0.000000 0.000000
# 2 -0.004353 0.010289 -0.003171 0.000000 0.000000 0.000000
# 3 -0.003133 -0.003171 0.008406 0.000000 0.000000 0.000000
# 4 0.000000 0.000000 0.000000 0.130484 0.000000 0.000000
# 5 0.000000 0.000000 0.000000 0.000000 0.038881 0.000000
# 6 0.000000 0.000000 0.000000 0.000000 0.000000 0.024803
#
#
# Mechanical properties :
#
#
# Convention : Reuss Voigt Hill
#
# Bulk Modulus (GPa) = 64.06963 76.06904 70.06933
# Shear Modulus (GPa) = 19.40946 29.03791 24.22368
#
# Velocity S-wave (km/s) = 3.17769 3.88676 3.54997
# Velocity P-wave (km/s) = 6.84073 7.72769 7.29770
#
# Compressibility (1/GPa) = 0.01560802
#
# Stress axis : x y z
#
# Youngs Moduli (GPa) = 54.86596 97.19057 118.95643
#
# Poissons Ratio (x) = 0.42306 0.37272
# Poissons Ratio (y) = 0.23882 0.37719
# Poissons Ratio (z) = 0.17191 0.30817
#
# Static dielectric constant tensor:
#      x y z
#    x 1.759940 0.000000 0.000000 
#    y 0.000000 1.646520 0.000000 
#    z 0.000000 0.000000 1.671830 
# 
# From -- ./inp_files/9803.got.cif
#   From: 2010.05.17/outbox.cif.g08.bks.cpg/sg69_5_cif.got.tgz:9803.got - 2010.06.03 19:29:58.
