data_PCOD9512601
_publ_section_title
;
Structure prediction by ZEFSAII (Michael W. Deem and Ramdas Pophale) SiO2 
 PCOD9512601
Probable space group: F M M M
;
_chemical_formula_sum "Si O2"
_cell_formula_units_Z 160
_cell_length_a 14.331994
_cell_length_b 31.137340
_cell_length_c 18.415536
_cell_angle_alpha 90.000000
_cell_angle_beta 90.000000
_cell_angle_gamma 90.000000
_cell_volume 8218.120227
_symmetry_space_group_name_H-M "F M M M"
_symmetry_group_IT_number 69
_symmetry_cell_setting 'orthorhombic'
loop_
_space_group_symop_operation_xyz
x,y,z
-x,-y,z
x,-y,-z
-x,y,-z
-x,-y,-z
x,y,-z
-x,y,z
x,-y,z
x,1/2+y,1/2+z
-x,1/2-y,1/2+z
x,1/2-y,1/2-z
-x,1/2+y,1/2-z
-x,1/2-y,1/2-z
x,1/2+y,1/2-z
-x,1/2+y,1/2+z
x,1/2-y,1/2+z
1/2+x,y,1/2+z
1/2-x,-y,1/2+z
1/2+x,-y,1/2-z
1/2-x,y,1/2-z
1/2-x,-y,1/2-z
1/2+x,y,1/2-z
1/2-x,y,1/2+z
1/2+x,-y,1/2+z
1/2+x,1/2+y,z
1/2-x,1/2-y,z
1/2+x,1/2-y,-z
1/2-x,1/2+y,-z
1/2-x,1/2-y,-z
1/2+x,1/2+y,-z
1/2-x,1/2+y,z
1/2+x,1/2-y,z
loop_
_atom_site_type_symbol
_atom_site_label
_atom_site_fract_x
_atom_site_fract_y
_atom_site_fract_z
Si Si1 0.797823 0.550496 0.650325
Si Si2 0.603364 0.825061 0.500000
Si Si3 0.105156 0.812413 0.727461
Si Si4 0.888772 0.411148 0.206224
Si Si5 0.886224 0.920144 0.000000
Si Si6 0.846567 0.232757 0.866186
O O1 0.800714 0.500000 0.666849
O O2 0.857564 0.575142 0.712381
O O3 0.689775 0.566084 0.656558
O O4 0.844141 0.559274 0.572817
O O5 0.500000 0.841907 0.500000
O O6 0.654488 0.870693 0.500000
O O7 0.612464 0.795716 0.429392
O O8 0.125430 0.859770 0.699530
O O9 0.166685 0.797134 0.795387
O O10 0.105928 0.775467 0.666360
O O11 0.000000 0.813502 0.758695
O O12 0.000000 0.420283 0.194494
O O13 0.000000 0.925891 0.000000
O O14 0.750000 0.250000 0.895846
#
# Coordination Sequence:
#
# PCOD9512601 Si02
#       6
#    32  16  32  32  16  32
#     4  11  24  40  65  94 124 159 199 258 318 372
#     4  11  23  40  57  80 116 158 197 245 297 352
#     4  10  20  36  57  82 116 157 196 241 288 347
#     4  10  22  39  64  94 124 162 205 253 307 364
#     4  11  25  43  67  92 123 162 203 254 312 374
#     4  11  22  33  55  86 115 155 197 242 292 342
#
# _framework density 19.469172
#
# number of rings (size 3 to 8) (size 9 to 14) (size 15 to 20)
#    0.000    1.400    0.000    7.200    8.400    6.400 
#    0.000    0.500    0.000    1.200    0.000    0.000 
#    0.000    0.000    0.000    0.000    0.000    0.000 
#
# Total GULP energy -223001.213231 kJ/mol
# GULP energy per Si atom -5575.030331 kJ/mol
# Density = 1.942486 g / cm^3
# Si number density = 19.469172 Si / 1000 Ang^3
#
#
#
# Elastic Constant Matrix: (Units=GPa)
#
#
# Indices 1 2 3 4 5 6 
#
# 1 100.5259 17.8534 29.4186 0.0000 0.0000 0.0000
# 2 17.8534 111.9516 26.2792 0.0000 0.0000 0.0000
# 3 29.4186 26.2792 94.5452 0.0000 0.0000 0.0000
# 4 0.0000 0.0000 0.0000 31.2450 0.0000 0.0000
# 5 0.0000 0.0000 0.0000 0.0000 28.8876 0.0000
# 6 0.0000 0.0000 0.0000 0.0000 0.0000 204.4867
#
#
#
# Elastic Compliance Matrix: (Units=1/GPa)
#
#
# Indices 1 2 3 4 5 6 
#
# 1 0.011052 -0.001022 -0.003155 0.000000 0.000000 0.000000
# 2 -0.001022 0.009650 -0.002364 0.000000 0.000000 0.000000
# 3 -0.003155 -0.002364 0.012216 0.000000 0.000000 0.000000
# 4 0.000000 0.000000 0.000000 0.032005 0.000000 0.000000
# 5 0.000000 0.000000 0.000000 0.000000 0.034617 0.000000
# 6 0.000000 0.000000 0.000000 0.000000 0.000000 0.004890
#
#
# Mechanical properties :
#
#
# Convention : Reuss Voigt Hill
#
# Bulk Modulus (GPa) = 50.41336 50.45834 50.43585
# Shear Modulus (GPa) = 40.28171 68.48863 54.38517
#
# Velocity S-wave (km/s) = 4.55356 5.93754 5.29100
# Velocity P-wave (km/s) = 7.32098 8.54278 7.95537
#
# Compressibility (1/GPa) = 0.01983601
#
# Stress axis : x y z
#
# Youngs Moduli (GPa) = 90.47728 103.62244 81.86090
#
# Poissons Ratio (x) = 0.10590 0.25827
# Poissons Ratio (y) = 0.09247 0.19355
# Poissons Ratio (z) = 0.28546 0.24500
#
# Static dielectric constant tensor:
#      x y z
#    x 1.745210 0.000000 0.000000 
#    y 0.000000 1.681120 0.000000 
#    z 0.000000 0.000000 1.643890 
# 
# From -- ./inp_files/21874.got.cif
#   From: 2010.05.17/outbox.cif.g08.bks.cpg/sg69_11_cif.got.tgz:21874.got - 2010.06.03 19:29:58.
