data_PCOD9512016
_publ_section_title
;
Structure prediction by ZEFSAII (Michael W. Deem and Ramdas Pophale) SiO2 
 PCOD9512016
Probable space group: F M M M
;
_chemical_formula_sum "Si O2"
_cell_formula_units_Z 168
_cell_length_a 19.488550
_cell_length_b 27.780721
_cell_length_c 15.874352
_cell_angle_alpha 90.000000
_cell_angle_beta 90.000000
_cell_angle_gamma 90.000000
_cell_volume 8594.468947
_symmetry_space_group_name_H-M "F M M M"
_symmetry_group_IT_number 69
_symmetry_cell_setting 'orthorhombic'
loop_
_space_group_symop_operation_xyz
x,y,z
-x,-y,z
x,-y,-z
-x,y,-z
-x,-y,-z
x,y,-z
-x,y,z
x,-y,z
x,1/2+y,1/2+z
-x,1/2-y,1/2+z
x,1/2-y,1/2-z
-x,1/2+y,1/2-z
-x,1/2-y,1/2-z
x,1/2+y,1/2-z
-x,1/2+y,1/2+z
x,1/2-y,1/2+z
1/2+x,y,1/2+z
1/2-x,-y,1/2+z
1/2+x,-y,1/2-z
1/2-x,y,1/2-z
1/2-x,-y,1/2-z
1/2+x,y,1/2-z
1/2-x,y,1/2+z
1/2+x,-y,1/2+z
1/2+x,1/2+y,z
1/2-x,1/2-y,z
1/2+x,1/2-y,-z
1/2-x,1/2+y,-z
1/2-x,1/2-y,-z
1/2+x,1/2+y,-z
1/2-x,1/2+y,z
1/2+x,1/2-y,z
loop_
_atom_site_type_symbol
_atom_site_label
_atom_site_fract_x
_atom_site_fract_y
_atom_site_fract_z
Si Si1 0.391826 0.444461 0.316949
Si Si2 0.000000 0.111347 0.000000
Si Si3 0.615268 0.389352 0.853852
Si Si4 0.251117 0.054730 0.596019
Si Si5 0.076417 0.651050 0.901641
Si Si6 0.668788 0.807037 0.242103
O O1 0.412131 0.500000 0.327213
O O2 0.405216 0.424560 0.223547
O O3 0.310471 0.441093 0.337823
O O4 0.423419 0.405754 0.380425
O O5 0.059709 0.110901 0.073702
O O6 0.687803 0.408994 0.887386
O O7 0.628679 0.337138 0.813182
O O8 0.224392 0.060732 0.500000
O O9 0.278436 0.000000 0.602330
O O10 0.135338 0.674700 0.844924
O O11 0.000000 0.669756 0.879384
O O12 0.088193 0.658902 0.000000
O O13 0.660001 0.750000 0.250000
O O14 0.750000 0.817927 0.250000
#
# Coordination Sequence:
#
# PCOD9512016 Si02
#       6
#    32   8  32  32  32  32
#     4  10  21  36  62  90 122 170 219 264 313 369
#     4  12  28  44  59  94 130 170 222 250 317 392
#     4  11  22  42  61  87 130 171 208 257 312 383
#     4  10  19  35  60  93 127 165 216 267 312 363
#     4  10  22  41  63  91 130 170 211 261 320 381
#     4  10  23  45  71  99 125 159 208 266 327 385
#
# _framework density 19.547454999999999
#
# number of rings (size 3 to 8) (size 9 to 14) (size 15 to 20)
#    0.000    1.714    0.952    4.000    5.333    3.429 
#    3.429    5.238    0.000    0.000    0.000    0.000 
#    0.000    0.000    0.000    0.000    0.000    0.000 
#
# Total GULP energy -234060.524946 kJ/mol
# GULP energy per Si atom -5572.869642 kJ/mol
# Density = 1.950296 g / cm^3
# Si number density = 19.547455 Si / 1000 Ang^3
#
#
#
# Elastic Constant Matrix: (Units=GPa)
#
#
# Indices 1 2 3 4 5 6 
#
# 1 122.6927 48.9243 71.5648 0.0000 0.0000 0.0000
# 2 48.9243 98.2580 44.2361 0.0000 0.0000 0.0000
# 3 71.5648 44.2361 136.2300 0.0000 0.0000 0.0000
# 4 0.0000 0.0000 0.0000 7.5938 0.0000 0.0000
# 5 0.0000 0.0000 0.0000 0.0000 43.2092 0.0000
# 6 0.0000 0.0000 0.0000 0.0000 0.0000 -6.2526
#
#
#
# Elastic Compliance Matrix: (Units=1/GPa)
#
#
# Indices 1 2 3 4 5 6 
#
# 1 0.012948 -0.003964 -0.005514 0.000000 0.000000 0.000000
# 2 -0.003964 0.013134 -0.002182 0.000000 0.000000 0.000000
# 3 -0.005514 -0.002182 0.010946 0.000000 0.000000 0.000000
# 4 0.000000 0.000000 0.000000 0.131687 0.000000 0.000000
# 5 0.000000 0.000000 0.000000 0.000000 0.023143 0.000000
# 6 0.000000 0.000000 0.000000 0.000000 0.000000 -0.159933
#
#
# Mechanical properties :
#
#
# Convention : Reuss Voigt Hill
#
# Bulk Modulus (GPa) = 72.96348 76.29234 74.62791
# Shear Modulus (GPa) = 83.59214 21.74044 52.66629
#
# Velocity S-wave (km/s) = 6.54649 3.33857 5.19628
# Velocity P-wave (km/s) = 9.72365 7.34679 8.61756
#
# Compressibility (1/GPa) = 0.01370549
#
# Stress axis : x y z
#
# Youngs Moduli (GPa) = 77.23358 76.14075 91.35752
#
# Poissons Ratio (x) = 0.30184 0.50379
# Poissons Ratio (y) = 0.30617 0.19936
# Poissons Ratio (z) = 0.42590 0.16615
#
# Static dielectric constant tensor:
#      x y z
#    x 1.703990 0.000000 0.000000 
#    y 0.000000 1.680030 0.000000 
#    z 0.000000 0.000000 1.678190 
# 
# From -- ./inp_files/16907.got.cif
#   From: 2010.05.17/outbox.cif.g08.bks.cpg/sg69_9_cif.got.tgz:16907.got - 2010.06.03 19:29:58.
