data_PCOD9512719
_publ_section_title
;
Structure prediction by ZEFSAII (Michael W. Deem and Ramdas Pophale) SiO2 
 PCOD9512719
Probable space group: F M M M
;
_chemical_formula_sum "Si O2"
_cell_formula_units_Z 168
_cell_length_a 13.832042
_cell_length_b 24.018831
_cell_length_c 28.613333
_cell_angle_alpha 90.000000
_cell_angle_beta 90.000000
_cell_angle_gamma 90.000000
_cell_volume 9506.192720
_symmetry_space_group_name_H-M "F M M M"
_symmetry_group_IT_number 69
_symmetry_cell_setting 'orthorhombic'
loop_
_space_group_symop_operation_xyz
x,y,z
-x,-y,z
x,-y,-z
-x,y,-z
-x,-y,-z
x,y,-z
-x,y,z
x,-y,z
x,1/2+y,1/2+z
-x,1/2-y,1/2+z
x,1/2-y,1/2-z
-x,1/2+y,1/2-z
-x,1/2-y,1/2-z
x,1/2+y,1/2-z
-x,1/2+y,1/2+z
x,1/2-y,1/2+z
1/2+x,y,1/2+z
1/2-x,-y,1/2+z
1/2+x,-y,1/2-z
1/2-x,y,1/2-z
1/2-x,-y,1/2-z
1/2+x,y,1/2-z
1/2-x,y,1/2+z
1/2+x,-y,1/2+z
1/2+x,1/2+y,z
1/2-x,1/2-y,z
1/2+x,1/2-y,-z
1/2-x,1/2+y,-z
1/2-x,1/2-y,-z
1/2+x,1/2+y,-z
1/2-x,1/2+y,z
1/2+x,1/2-y,z
loop_
_atom_site_type_symbol
_atom_site_label
_atom_site_fract_x
_atom_site_fract_y
_atom_site_fract_z
Si Si1 0.614011 0.767888 0.603353
Si Si2 0.883190 0.782117 0.703428
Si Si3 0.776504 0.669138 0.054437
Si Si4 0.385599 0.910261 0.197583
Si Si5 0.250000 0.000000 0.750000
Si Si6 0.112352 0.064002 0.412768
O O1 0.500000 0.778343 0.599855
O O2 0.639804 0.752031 0.656596
O O3 0.680339 0.817361 0.583980
O O4 0.645007 0.713885 0.573091
O O5 0.853912 0.750000 0.750000
O O6 0.850772 0.846156 0.701420
O O7 0.000000 0.785399 0.703673
O O8 0.818652 0.608268 0.063041
O O9 0.757686 0.678560 0.000000
O O10 0.500000 0.913204 0.210364
O O11 0.322169 0.951436 0.228225
O O12 0.379012 0.927502 0.143102
O O13 0.000000 0.075051 0.425100
O O14 0.134211 0.000000 0.424255
#
# Coordination Sequence:
#
# PCOD9512719 Si02
#       6
#    32  32  32  32   8  32
#     4  10  20  37  59  83 119 160 188 231 299 357
#     4   9  18  35  58  83 111 146 190 235 277 332
#     4  11  23  36  56  90 119 146 195 247 290 354
#     4  10  20  37  57  81 114 150 191 238 284 339
#     4  12  22  32  54  86 110 150 194 232 288 348
#     4  10  20  38  62  82 110 150 191 242 299 346
#
# _framework density 17.672689999999999
#
# number of rings (size 3 to 8) (size 9 to 14) (size 15 to 20)
#    0.000    1.905    2.857    2.000    0.000    4.571 
#    0.000    0.952    0.000    1.714    0.000    1.333 
#    0.000    0.000    0.000    0.000    0.000    0.000 
#
# Total GULP energy -233974.593558 kJ/mol
# GULP energy per Si atom -5570.823656 kJ/mol
# Density = 1.763247 g / cm^3
# Si number density = 17.672690 Si / 1000 Ang^3
#
#
#
# Elastic Constant Matrix: (Units=GPa)
#
#
# Indices 1 2 3 4 5 6 
#
# 1 102.0893 57.8598 48.3101 0.0000 0.0000 0.0000
# 2 57.8598 127.4293 56.9847 0.0000 0.0000 0.0000
# 3 48.3101 56.9847 108.5741 0.0000 0.0000 0.0000
# 4 0.0000 0.0000 0.0000 -2.9477 0.0000 0.0000
# 5 0.0000 0.0000 0.0000 0.0000 20.0666 0.0000
# 6 0.0000 0.0000 0.0000 0.0000 0.0000 33.0856
#
#
#
# Elastic Compliance Matrix: (Units=1/GPa)
#
#
# Indices 1 2 3 4 5 6 
#
# 1 0.014335 -0.004778 -0.003871 0.000000 0.000000 0.000000
# 2 -0.004778 0.011847 -0.004092 0.000000 0.000000 0.000000
# 3 -0.003871 -0.004092 0.013080 0.000000 0.000000 0.000000
# 4 0.000000 0.000000 0.000000 -0.339243 0.000000 0.000000
# 5 0.000000 0.000000 0.000000 0.000000 0.049834 0.000000
# 6 0.000000 0.000000 0.000000 0.000000 0.000000 0.030225
#
#
# Mechanical properties :
#
#
# Convention : Reuss Voigt Hill
#
# Bulk Modulus (GPa) = 72.56344 73.82243 73.19293
# Shear Modulus (GPa) = -26.33682 21.70343 -2.31670
#
# Velocity S-wave (km/s) = -3.86457 3.50820 -1.14618
# Velocity P-wave (km/s) = 4.60821 7.63365 6.30509
#
# Compressibility (1/GPa) = 0.01378104
#
# Stress axis : x y z
#
# Youngs Moduli (GPa) = 69.75974 84.41165 76.45198
#
# Poissons Ratio (x) = 0.40331 0.29592
# Poissons Ratio (y) = 0.33331 0.31282
# Poissons Ratio (z) = 0.27002 0.34539
#
# Static dielectric constant tensor:
#      x y z
#    x 1.615260 0.000000 0.000000 
#    y 0.000000 1.599920 0.000000 
#    z 0.000000 0.000000 1.599910 
# 
# From -- ./inp_files/40981.got.cif
#   From: 2010.05.17/outbox.cif.g08.bks.cpg/sg69_21_cif.got.tgz:40981.got - 2010.06.03 19:29:58.
