data_PCOD9512200
_publ_section_title
;
Structure prediction by ZEFSAII (Michael W. Deem and Ramdas Pophale) SiO2 
 PCOD9512200
Probable space group: F M M M
;
_chemical_formula_sum "Si O2"
_cell_formula_units_Z 112
_cell_length_a 27.301855
_cell_length_b 24.793806
_cell_length_c 8.538602
_cell_angle_alpha 90.000000
_cell_angle_beta 90.000000
_cell_angle_gamma 90.000000
_cell_volume 5779.923965
_symmetry_space_group_name_H-M "F M M M"
_symmetry_group_IT_number 69
_symmetry_cell_setting 'orthorhombic'
loop_
_space_group_symop_operation_xyz
x,y,z
-x,-y,z
x,-y,-z
-x,y,-z
-x,-y,-z
x,y,-z
-x,y,z
x,-y,z
x,1/2+y,1/2+z
-x,1/2-y,1/2+z
x,1/2-y,1/2-z
-x,1/2+y,1/2-z
-x,1/2-y,1/2-z
x,1/2+y,1/2-z
-x,1/2+y,1/2+z
x,1/2-y,1/2+z
1/2+x,y,1/2+z
1/2-x,-y,1/2+z
1/2+x,-y,1/2-z
1/2-x,y,1/2-z
1/2-x,-y,1/2-z
1/2+x,y,1/2-z
1/2-x,y,1/2+z
1/2+x,-y,1/2+z
1/2+x,1/2+y,z
1/2-x,1/2-y,z
1/2+x,1/2-y,-z
1/2-x,1/2+y,-z
1/2-x,1/2-y,-z
1/2+x,1/2+y,-z
1/2-x,1/2+y,z
1/2+x,1/2-y,z
loop_
_atom_site_type_symbol
_atom_site_label
_atom_site_fract_x
_atom_site_fract_y
_atom_site_fract_z
Si Si1 0.195678 0.189463 0.313351
Si Si2 0.941634 0.500000 0.691665
Si Si3 0.942116 0.695100 0.176264
Si Si4 0.884961 0.107216 0.180945
O O1 0.196765 0.192529 0.500000
O O2 0.183661 0.250000 0.250000
O O3 0.250000 0.177160 0.250000
O O4 0.158867 0.141470 0.260978
O O5 0.943129 0.500000 0.500000
O O6 0.908855 0.551593 0.742184
O O7 0.000000 0.500000 0.740737
O O8 0.922920 0.750000 0.250000
O O9 0.929552 0.648360 0.295597
O O10 0.000000 0.699706 0.162811
O O11 0.922650 0.685590 0.000000
O O12 0.871691 0.099226 0.000000
#
# Coordination Sequence:
#
# PCOD9512200 Si02
#       4
#    32  16  32  32
#     4  11  22  39  62  90 121 152 189 234 290 349
#     4   9  20  38  60  85 114 153 200 245 288 337
#     4  10  20  33  50  76 109 144 183 230 285 343
#     4  11  21  36  58  83 112 149 193 238 287 342
#
# _framework density 19.377417999999999
#
# number of rings (size 3 to 8) (size 9 to 14) (size 15 to 20)
#    0.000    1.571    0.000    6.857    0.000    2.857 
#    0.000    3.571    0.000    5.143    0.000    0.000 
#    0.000    0.000    0.000    0.000    0.000    0.000 
#
# Total GULP energy -155997.872087 kJ/mol
# GULP energy per Si atom -5571.352575 kJ/mol
# Density = 1.933331 g / cm^3
# Si number density = 19.377418 Si / 1000 Ang^3
#
#
#
# Elastic Constant Matrix: (Units=GPa)
#
#
# Indices 1 2 3 4 5 6 
#
# 1 144.4158 62.0750 48.7968 0.0000 -0.0001 -0.0013
# 2 62.0750 172.7219 26.3551 0.0005 -0.0005 -0.0013
# 3 48.7968 26.3551 82.1295 0.0008 -0.0001 -0.0101
# 4 0.0000 0.0005 0.0008 16.6104 -0.0001 -0.0043
# 5 -0.0001 -0.0005 -0.0001 -0.0001 18.0777 0.0068
# 6 -0.0013 -0.0013 -0.0101 -0.0043 0.0068 -51.3190
#
#
#
# Elastic Compliance Matrix: (Units=1/GPa)
#
#
# Indices 1 2 3 4 5 6 
#
# 1 0.009774 -0.002762 -0.004921 0.000000 0.000000 0.000001
# 2 -0.002762 0.006868 -0.000563 0.000000 0.000000 0.000000
# 3 -0.004921 -0.000563 0.015280 -0.000001 0.000000 -0.000003
# 4 0.000000 0.000000 -0.000001 0.060203 0.000000 -0.000005
# 5 0.000000 0.000000 0.000000 0.000000 0.055317 0.000007
# 6 0.000001 0.000000 -0.000003 -0.000005 0.000007 -0.019486
#
#
# Mechanical properties :
#
#
# Convention : Reuss Voigt Hill
#
# Bulk Modulus (GPa) = 64.80500 74.85788 69.83144
# Shear Modulus (GPa) = 33.42404 14.14317 23.78360
#
# Velocity S-wave (km/s) = 4.15769 2.70456 3.50721
# Velocity P-wave (km/s) = 7.52095 6.96191 7.24682
#
# Compressibility (1/GPa) = 0.01543091
#
# Stress axis : x y z
#
# Youngs Moduli (GPa) = 102.30763 145.59883 65.44330
#
# Poissons Ratio (x) = 0.40214 0.32205
# Poissons Ratio (y) = 0.28257 0.03684
# Poissons Ratio (z) = 0.50347 0.08197
#
# Static dielectric constant tensor:
#      x y z
#    x 1.718620 0.000000 0.000000 
#    y 0.000000 1.679880 0.000000 
#    z 0.000000 0.000000 1.756470 
# 
# From -- ./inp_files/4014.got.cif
#   From: 2010.05.17/outbox.cif.g08.bks.cpg/sg69_3_cif.got.tgz:4014.got - 2010.06.03 19:29:58.
