data_PCOD9512162
_publ_section_title
;
Structure prediction by ZEFSAII (Michael W. Deem and Ramdas Pophale) SiO2 
 PCOD9512162
Probable space group: F M M M
;
_chemical_formula_sum "Si O2"
_cell_formula_units_Z 160
_cell_length_a 22.851380
_cell_length_b 18.956422
_cell_length_c 20.631512
_cell_angle_alpha 90.000000
_cell_angle_beta 90.000000
_cell_angle_gamma 90.000000
_cell_volume 8937.166674
_symmetry_space_group_name_H-M "F M M M"
_symmetry_group_IT_number 69
_symmetry_cell_setting 'orthorhombic'
loop_
_space_group_symop_operation_xyz
x,y,z
-x,-y,z
x,-y,-z
-x,y,-z
-x,-y,-z
x,y,-z
-x,y,z
x,-y,z
x,1/2+y,1/2+z
-x,1/2-y,1/2+z
x,1/2-y,1/2-z
-x,1/2+y,1/2-z
-x,1/2-y,1/2-z
x,1/2+y,1/2-z
-x,1/2+y,1/2+z
x,1/2-y,1/2+z
1/2+x,y,1/2+z
1/2-x,-y,1/2+z
1/2+x,-y,1/2-z
1/2-x,y,1/2-z
1/2-x,-y,1/2-z
1/2+x,y,1/2-z
1/2-x,y,1/2+z
1/2+x,-y,1/2+z
1/2+x,1/2+y,z
1/2-x,1/2-y,z
1/2+x,1/2-y,-z
1/2-x,1/2+y,-z
1/2-x,1/2-y,-z
1/2+x,1/2+y,-z
1/2-x,1/2+y,z
1/2+x,1/2-y,z
loop_
_atom_site_type_symbol
_atom_site_label
_atom_site_fract_x
_atom_site_fract_y
_atom_site_fract_z
Si Si1 0.068711 0.304235 0.071965
Si Si2 0.564165 0.422098 0.257686
Si Si3 0.347668 0.918192 0.122843
Si Si4 0.260387 0.333215 0.826115
Si Si5 0.612824 0.202338 0.685585
O O1 0.110511 0.372288 0.077085
O O2 0.088555 0.252601 0.129742
O O3 0.000000 0.321467 0.079713
O O4 0.075995 0.272637 0.000000
O O5 0.500000 0.418866 0.290117
O O6 0.568870 0.500000 0.227384
O O7 0.616295 0.415770 0.309247
O O8 0.568759 0.357429 0.209120
O O9 0.285537 0.879765 0.133993
O O10 0.341138 0.000000 0.104392
O O11 0.250000 0.348334 0.750000
O O12 0.250000 0.250000 0.837568
O O13 0.329377 0.339141 0.837513
O O14 0.627016 0.250000 0.750000
#
# Coordination Sequence:
#
# PCOD9512162 Si02
#       5
#    32  32  32  32  32
#     4  11  24  40  59  85 115 151 192 235 289 345
#     4  10  20  32  51  83 118 149 186 235 288 337
#     4  11  22  35  54  84 119 155 192 229 279 342
#     4  11  17  33  54  82 115 147 184 237 284 328
#     4  12  20  35  61  85 115 150 196 242 287 338
#
# _framework density 17.902766
#
# number of rings (size 3 to 8) (size 9 to 14) (size 15 to 20)
#    0.000    1.000    8.000    1.200    0.000    3.600 
#    0.000    3.000    0.000    0.600    0.000    2.800 
#    0.000    0.000    0.000    0.000    0.000    0.000 
#
# Total GULP energy -223044.511222 kJ/mol
# GULP energy per Si atom -5576.112781 kJ/mol
# Density = 1.786202 g / cm^3
# Si number density = 17.902766 Si / 1000 Ang^3
#
#
#
# Elastic Constant Matrix: (Units=GPa)
#
#
# Indices 1 2 3 4 5 6 
#
# 1 124.3228 36.6639 27.5802 0.0000 0.0000 0.0000
# 2 36.6639 90.8230 38.5161 0.0000 0.0000 0.0000
# 3 27.5802 38.5161 76.7338 0.0000 0.0000 0.0000
# 4 0.0000 0.0000 0.0000 13.9991 0.0000 0.0000
# 5 0.0000 0.0000 0.0000 0.0000 10.3364 0.0000
# 6 0.0000 0.0000 0.0000 0.0000 0.0000 23.7083
#
#
#
# Elastic Compliance Matrix: (Units=1/GPa)
#
#
# Indices 1 2 3 4 5 6 
#
# 1 0.009335 -0.002980 -0.001860 0.000000 0.000000 0.000000
# 2 -0.002980 0.014939 -0.006428 0.000000 0.000000 0.000000
# 3 -0.001860 -0.006428 0.016927 0.000000 0.000000 0.000000
# 4 0.000000 0.000000 0.000000 0.071433 0.000000 0.000000
# 5 0.000000 0.000000 0.000000 0.000000 0.096745 0.000000
# 6 0.000000 0.000000 0.000000 0.000000 0.000000 0.042179
#
#
# Mechanical properties :
#
#
# Convention : Reuss Voigt Hill
#
# Bulk Modulus (GPa) = 53.57064 55.26665 54.41864
# Shear Modulus (GPa) = 17.83713 22.21675 20.02694
#
# Velocity S-wave (km/s) = 3.15990 3.52656 3.34825
# Velocity P-wave (km/s) = 6.58038 6.89345 6.73873
#
# Compressibility (1/GPa) = 0.01866694
#
# Stress axis : x y z
#
# Youngs Moduli (GPa) = 107.12540 66.93838 59.07820
#
# Poissons Ratio (x) = 0.19946 0.10986
# Poissons Ratio (y) = 0.31921 0.37973
# Poissons Ratio (z) = 0.19920 0.43025
#
# Static dielectric constant tensor:
#      x y z
#    x 1.659890 0.000000 0.000000 
#    y 0.000000 1.624030 0.000000 
#    z 0.000000 0.000000 1.597170 
# 
# From -- ./inp_files/24591.got.cif
#   From: 2010.05.17/outbox.cif.g08.bks.cpg/sg69_13_cif.got.tgz:24591.got - 2010.06.03 19:29:58.
