data_PCOD9512264
_publ_section_title
;
Structure prediction by ZEFSAII (Michael W. Deem and Ramdas Pophale) SiO2 
 PCOD9512264
Probable space group: F M M M
;
_chemical_formula_sum "Si O2"
_cell_formula_units_Z 160
_cell_length_a 31.130249
_cell_length_b 27.858757
_cell_length_c 10.260488
_cell_angle_alpha 90.000000
_cell_angle_beta 90.000000
_cell_angle_gamma 90.000000
_cell_volume 8898.408651
_symmetry_space_group_name_H-M "F M M M"
_symmetry_group_IT_number 69
_symmetry_cell_setting 'orthorhombic'
loop_
_space_group_symop_operation_xyz
x,y,z
-x,-y,z
x,-y,-z
-x,y,-z
-x,-y,-z
x,y,-z
-x,y,z
x,-y,z
x,1/2+y,1/2+z
-x,1/2-y,1/2+z
x,1/2-y,1/2-z
-x,1/2+y,1/2-z
-x,1/2-y,1/2-z
x,1/2+y,1/2-z
-x,1/2+y,1/2+z
x,1/2-y,1/2+z
1/2+x,y,1/2+z
1/2-x,-y,1/2+z
1/2+x,-y,1/2-z
1/2-x,y,1/2-z
1/2-x,-y,1/2-z
1/2+x,y,1/2-z
1/2-x,y,1/2+z
1/2+x,-y,1/2+z
1/2+x,1/2+y,z
1/2-x,1/2-y,z
1/2+x,1/2-y,-z
1/2-x,1/2+y,-z
1/2-x,1/2-y,-z
1/2+x,1/2+y,-z
1/2-x,1/2+y,z
1/2+x,1/2-y,z
loop_
_atom_site_type_symbol
_atom_site_label
_atom_site_fract_x
_atom_site_fract_y
_atom_site_fract_z
Si Si1 0.951389 0.813052 0.500000
Si Si2 0.546012 0.698295 0.000000
Si Si3 0.104313 0.806527 0.247063
Si Si4 0.949755 0.558113 0.153007
Si Si5 0.375626 0.598502 0.843055
Si Si6 0.283880 0.057238 0.645662
O O1 0.957673 0.755647 0.500000
O O2 0.922009 0.821248 0.625169
O O3 0.000000 0.833346 0.500000
O O4 0.570927 0.687399 0.129792
O O5 0.500000 0.674576 0.000000
O O6 0.117360 0.750000 0.250000
O O7 0.137229 0.848161 0.209060
O O8 0.946714 0.500000 0.159668
O O9 0.915936 0.579992 0.256500
O O10 0.000000 0.570664 0.180459
O O11 0.940875 0.571565 0.000000
O O12 0.333473 0.566652 0.820558
O O13 0.384542 0.598480 0.000000
O O14 0.276421 0.076917 0.500000
O O15 0.250000 0.076654 0.750000
O O16 0.277860 0.000000 0.639859
#
# Coordination Sequence:
#
# PCOD9512264 Si02
#       6
#    16  16  32  32  32  32
#     4   9  18  30  46  66  94 137 188 236 270 305
#     4   9  16  30  48  66  94 135 184 230 274 313
#     4  10  20  34  49  71 104 144 183 225 276 320
#     4   9  20  38  55  75 109 150 188 225 265 318
#     4  11  22  36  55  83 111 143 182 226 275 326
#     4   9  19  37  61  87 112 134 163 213 275 334
#
# _framework density 17.980744000000001
#
# number of rings (size 3 to 8) (size 9 to 14) (size 15 to 20)
#    0.000    2.400    1.000    1.800    1.400    6.400 
#    0.000    3.000    0.000    0.600    0.000    2.800 
#    0.000    0.000    0.000    0.000    0.000    0.000 
#
# Total GULP energy -222675.314879 kJ/mol
# GULP energy per Si atom -5566.882872 kJ/mol
# Density = 1.793982 g / cm^3
# Si number density = 17.980744 Si / 1000 Ang^3
#
#
#
# Elastic Constant Matrix: (Units=GPa)
#
#
# Indices 1 2 3 4 5 6 
#
# 1 75.5900 14.5627 60.7653 0.0007 -0.0007 -0.0002
# 2 14.5627 48.8156 24.9660 0.0006 -0.0021 -0.0001
# 3 60.7653 24.9660 136.4794 0.0039 -0.0052 -0.0004
# 4 0.0007 0.0006 0.0039 27.4543 -0.0021 -0.0003
# 5 -0.0007 -0.0021 -0.0052 -0.0021 32.3326 0.0003
# 6 -0.0002 -0.0001 -0.0004 -0.0003 0.0003 8.7796
#
#
#
# Elastic Compliance Matrix: (Units=1/GPa)
#
#
# Indices 1 2 3 4 5 6 
#
# 1 0.020718 -0.001614 -0.008929 0.000001 -0.000001 0.000000
# 2 -0.001614 0.022725 -0.003439 0.000000 0.000001 0.000000
# 3 -0.008929 -0.003439 0.011932 -0.000001 0.000001 0.000000
# 4 0.000001 0.000000 -0.000001 0.036424 0.000002 0.000001
# 5 -0.000001 0.000001 0.000001 0.000002 0.030929 -0.000001
# 6 0.000000 0.000000 0.000000 0.000001 -0.000001 0.113901
#
#
# Mechanical properties :
#
#
# Convention : Reuss Voigt Hill
#
# Bulk Modulus (GPa) = 36.48060 51.27477 43.87768
# Shear Modulus (GPa) = 18.26623 24.41936 21.34280
#
# Velocity S-wave (km/s) = 3.19074 3.68922 3.44900
# Velocity P-wave (km/s) = 5.82299 6.83560 6.34951
#
# Compressibility (1/GPa) = 0.02741183
#
# Stress axis : x y z
#
# Youngs Moduli (GPa) = 48.26668 44.00382 83.81029
#
# Poissons Ratio (x) = 0.07102 0.74836
# Poissons Ratio (y) = 0.07790 0.28818
# Poissons Ratio (z) = 0.43098 0.15131
#
# Static dielectric constant tensor:
#      x y z
#    x 1.598530 0.000000 0.000000 
#    y 0.000000 1.692170 0.000000 
#    z 0.000000 0.000000 1.682140 
# 
# From -- ./inp_files/5746.got.cif
#   From: 2010.05.17/outbox.cif.g08.bks.cpg/sg69_3_cif.got.tgz:5746.got - 2010.06.03 19:29:58.
