data_PCOD9512391
_publ_section_title
;
Structure prediction by ZEFSAII (Michael W. Deem and Ramdas Pophale) SiO2 
 PCOD9512391
Probable space group: F M M M
;
_chemical_formula_sum "Si O2"
_cell_formula_units_Z 112
_cell_length_a 19.435711
_cell_length_b 26.134379
_cell_length_c 10.848071
_cell_angle_alpha 90.000000
_cell_angle_beta 90.000000
_cell_angle_gamma 90.000000
_cell_volume 5510.171759
_symmetry_space_group_name_H-M "F M M M"
_symmetry_group_IT_number 69
_symmetry_cell_setting 'orthorhombic'
loop_
_space_group_symop_operation_xyz
x,y,z
-x,-y,z
x,-y,-z
-x,y,-z
-x,-y,-z
x,y,-z
-x,y,z
x,-y,z
x,1/2+y,1/2+z
-x,1/2-y,1/2+z
x,1/2-y,1/2-z
-x,1/2+y,1/2-z
-x,1/2-y,1/2-z
x,1/2+y,1/2-z
-x,1/2+y,1/2+z
x,1/2-y,1/2+z
1/2+x,y,1/2+z
1/2-x,-y,1/2+z
1/2+x,-y,1/2-z
1/2-x,y,1/2-z
1/2-x,-y,1/2-z
1/2+x,y,1/2-z
1/2-x,y,1/2+z
1/2+x,-y,1/2+z
1/2+x,1/2+y,z
1/2-x,1/2-y,z
1/2+x,1/2-y,-z
1/2-x,1/2+y,-z
1/2-x,1/2-y,-z
1/2+x,1/2+y,-z
1/2-x,1/2+y,z
1/2+x,1/2-y,z
loop_
_atom_site_type_symbol
_atom_site_label
_atom_site_fract_x
_atom_site_fract_y
_atom_site_fract_z
Si Si1 0.419174 0.597039 0.270201
Si Si2 0.417040 0.941325 0.500000
Si Si3 0.714619 0.059702 0.869043
Si Si4 0.082708 0.786595 0.640849
O O1 0.500000 0.584443 0.285413
O O2 0.366899 0.563538 0.349190
O O3 0.408531 0.655094 0.314441
O O4 0.399915 0.587079 0.127052
O O5 0.500000 0.944394 0.500000
O O6 0.390709 0.000000 0.500000
O O7 0.750000 0.083898 0.750000
O O8 0.734129 0.000000 0.872141
O O9 0.734389 0.083018 0.000000
O O10 0.108762 0.779313 0.500000
O O11 0.109784 0.750000 0.750000
O O12 0.000000 0.777773 0.634321
#
# Coordination Sequence:
#
# PCOD9512391 Si02
#       4
#    32  16  32  32
#     4  10  20  34  56  83 112 146 188 234 284 332
#     4   9  18  30  48  80 116 145 177 227 284 335
#     4  10  22  38  56  79 110 148 186 227 278 340
#     4   9  18  31  50  77 111 145 181 230 285 338
#
# _framework density 20.326045000000001
#
# number of rings (size 3 to 8) (size 9 to 14) (size 15 to 20)
#    0.000    2.429    0.000    1.714    4.000    3.429 
#    0.000    1.429    0.000    0.857    0.000    4.000 
#    0.000    0.000    0.000    0.000    0.000    0.000 
#
# Total GULP energy -156089.288839 kJ/mol
# GULP energy per Si atom -5574.617459 kJ/mol
# Density = 2.027978 g / cm^3
# Si number density = 20.326045 Si / 1000 Ang^3
#
#
#
# Elastic Constant Matrix: (Units=GPa)
#
#
# Indices 1 2 3 4 5 6 
#
# 1 51.9456 6.2053 36.1016 0.0000 0.0000 0.0000
# 2 6.2053 34.5953 51.2157 0.0000 0.0000 0.0000
# 3 36.1016 51.2157 229.0581 0.0000 0.0000 0.0000
# 4 0.0000 0.0000 0.0000 20.8786 0.0000 0.0000
# 5 0.0000 0.0000 0.0000 0.0000 15.9470 0.0000
# 6 0.0000 0.0000 0.0000 0.0000 0.0000 2.2325
#
#
#
# Elastic Compliance Matrix: (Units=1/GPa)
#
#
# Indices 1 2 3 4 5 6 
#
# 1 0.021690 0.001749 -0.003810 0.000000 0.000000 0.000000
# 2 0.001749 0.043349 -0.009968 0.000000 0.000000 0.000000
# 3 -0.003810 -0.009968 0.007195 0.000000 0.000000 0.000000
# 4 0.000000 0.000000 0.000000 0.047896 0.000000 0.000000
# 5 0.000000 0.000000 0.000000 0.000000 0.062708 0.000000
# 6 0.000000 0.000000 0.000000 0.000000 0.000000 0.447937
#
#
# Mechanical properties :
#
#
# Convention : Reuss Voigt Hill
#
# Bulk Modulus (GPa) = 20.75688 55.84935 38.30311
# Shear Modulus (GPa) = 7.45278 22.61670 15.03474
#
# Velocity S-wave (km/s) = 1.91692 3.33933 2.72265
# Velocity P-wave (km/s) = 3.89019 6.51188 5.36368
#
# Compressibility (1/GPa) = 0.04817680
#
# Stress axis : x y z
#
# Youngs Moduli (GPa) = 46.10506 23.06853 138.98588
#
# Poissons Ratio (x) = -0.04036 0.52949
# Poissons Ratio (y) = -0.08066 1.38545
# Poissons Ratio (z) = 0.17564 0.22995
#
# Static dielectric constant tensor:
#      x y z
#    x 1.736180 0.000000 0.000000 
#    y 0.000000 1.692100 0.000000 
#    z 0.000000 0.000000 1.848140 
# 
# From -- ./inp_files/4715.got.cif
#   From: 2010.05.17/outbox.cif.g08.bks.cpg/sg69_3_cif.got.tgz:4715.got - 2010.06.03 19:29:58.
