data_PCOD9512578
_publ_section_title
;
Structure prediction by ZEFSAII (Michael W. Deem and Ramdas Pophale) SiO2 
 PCOD9512578
Probable space group: F M M M
;
_chemical_formula_sum "Si O2"
_cell_formula_units_Z 112
_cell_length_a 20.237577
_cell_length_b 24.716206
_cell_length_c 11.615169
_cell_angle_alpha 90.000000
_cell_angle_beta 90.000000
_cell_angle_gamma 90.000000
_cell_volume 5809.862491
_symmetry_space_group_name_H-M "F M M M"
_symmetry_group_IT_number 69
_symmetry_cell_setting 'orthorhombic'
loop_
_space_group_symop_operation_xyz
x,y,z
-x,-y,z
x,-y,-z
-x,y,-z
-x,-y,-z
x,y,-z
-x,y,z
x,-y,z
x,1/2+y,1/2+z
-x,1/2-y,1/2+z
x,1/2-y,1/2-z
-x,1/2+y,1/2-z
-x,1/2-y,1/2-z
x,1/2+y,1/2-z
-x,1/2+y,1/2+z
x,1/2-y,1/2+z
1/2+x,y,1/2+z
1/2-x,-y,1/2+z
1/2+x,-y,1/2-z
1/2-x,y,1/2-z
1/2-x,-y,1/2-z
1/2+x,y,1/2-z
1/2-x,y,1/2+z
1/2+x,-y,1/2+z
1/2+x,1/2+y,z
1/2-x,1/2-y,z
1/2+x,1/2-y,-z
1/2-x,1/2+y,-z
1/2-x,1/2-y,-z
1/2+x,1/2+y,-z
1/2-x,1/2+y,z
1/2+x,1/2-y,z
loop_
_atom_site_type_symbol
_atom_site_label
_atom_site_fract_x
_atom_site_fract_y
_atom_site_fract_z
Si Si1 0.672524 0.232206 0.124557
Si Si2 0.715910 0.000000 0.876965
Si Si3 0.677248 0.887500 0.194876
Si Si4 0.922862 0.563006 0.636566
O O1 0.645172 0.250000 0.250000
O O2 0.750000 0.250000 0.125645
O O3 0.666313 0.167443 0.127198
O O4 0.645879 0.252371 0.000000
O O5 0.750000 0.000000 0.750000
O O6 0.677168 0.943576 0.874972
O O7 0.755173 0.000000 0.000000
O O8 0.750000 0.881964 0.250000
O O9 0.624310 0.897106 0.295146
O O10 0.915492 0.569948 0.500000
O O11 0.905898 0.500000 0.662775
O O12 0.000000 0.570593 0.665519
#
# Coordination Sequence:
#
# PCOD9512578 Si02
#       4
#    32  16  32  32
#     4  10  20  36  54  79 115 156 197 243 300 359
#     4  10  22  34  49  82 123 153 187 239 301 360
#     4  11  20  34  56  88 120 154 193 251 307 358
#     4   9  19  36  58  87 126 170 208 242 292 365
#
# _framework density 19.277564000000002
#
# number of rings (size 3 to 8) (size 9 to 14) (size 15 to 20)
#    0.000    2.000    4.286    1.714    0.000    6.857 
#    0.000    0.000    0.000    5.143    0.000    0.000 
#    0.000    0.000    0.000    0.000    0.000    0.000 
#
# Total GULP energy -155883.803030 kJ/mol
# GULP energy per Si atom -5567.278680 kJ/mol
# Density = 1.923369 g / cm^3
# Si number density = 19.277564 Si / 1000 Ang^3
#
#
#
# Elastic Constant Matrix: (Units=GPa)
#
#
# Indices 1 2 3 4 5 6 
#
# 1 66.2947 11.6022 35.2455 0.0000 0.0000 0.0000
# 2 11.6022 104.1755 37.5900 0.0000 0.0000 0.0000
# 3 35.2455 37.5900 157.3162 0.0000 0.0000 0.0000
# 4 0.0000 0.0000 0.0000 89.8579 0.0000 0.0000
# 5 0.0000 0.0000 0.0000 0.0000 9.3035 0.0000
# 6 0.0000 0.0000 0.0000 0.0000 0.0000 -6.3489
#
#
#
# Elastic Compliance Matrix: (Units=1/GPa)
#
#
# Indices 1 2 3 4 5 6 
#
# 1 0.017155 -0.000573 -0.003706 0.000000 0.000000 0.000000
# 2 -0.000573 0.010524 -0.002386 0.000000 0.000000 0.000000
# 3 -0.003706 -0.002386 0.007757 0.000000 0.000000 0.000000
# 4 0.000000 0.000000 0.000000 0.011129 0.000000 0.000000
# 5 0.000000 0.000000 0.000000 0.000000 0.107486 0.000000
# 6 0.000000 0.000000 0.000000 0.000000 0.000000 -0.157508
#
#
# Mechanical properties :
#
#
# Convention : Reuss Voigt Hill
#
# Bulk Modulus (GPa) = 45.23973 55.18466 50.21220
# Shear Modulus (GPa) = 289.97465 34.78576 162.38020
#
# Velocity S-wave (km/s) = 12.27792 4.25251 9.18780
# Velocity P-wave (km/s) = 14.98382 7.26638 11.77530
#
# Compressibility (1/GPa) = 0.02210446
#
# Stress axis : x y z
#
# Youngs Moduli (GPa) = 58.29194 95.02038 128.91211
#
# Poissons Ratio (x) = 0.05446 0.47781
# Poissons Ratio (y) = 0.03341 0.30762
# Poissons Ratio (z) = 0.21606 0.22674
#
# Static dielectric constant tensor:
#      x y z
#    x 1.642430 0.000000 0.000000 
#    y 0.000000 1.699720 0.000000 
#    z 0.000000 0.000000 1.774340 
# 
# From -- ./inp_files/9265.got.cif
#   From: 2010.05.17/outbox.cif.g08.bks.cpg/sg69_5_cif.got.tgz:9265.got - 2010.06.03 19:29:58.
