data_PCOD9512593
_publ_section_title
;
Structure prediction by ZEFSAII (Michael W. Deem and Ramdas Pophale) SiO2 
 PCOD9512593
Probable space group: F M M M
;
_chemical_formula_sum "Si O2"
_cell_formula_units_Z 128
_cell_length_a 30.998739
_cell_length_b 8.760475
_cell_length_c 25.414527
_cell_angle_alpha 90.000000
_cell_angle_beta 90.000000
_cell_angle_gamma 90.000000
_cell_volume 6901.662428
_symmetry_space_group_name_H-M "F M M M"
_symmetry_group_IT_number 69
_symmetry_cell_setting 'orthorhombic'
loop_
_space_group_symop_operation_xyz
x,y,z
-x,-y,z
x,-y,-z
-x,y,-z
-x,-y,-z
x,y,-z
-x,y,z
x,-y,z
x,1/2+y,1/2+z
-x,1/2-y,1/2+z
x,1/2-y,1/2-z
-x,1/2+y,1/2-z
-x,1/2-y,1/2-z
x,1/2+y,1/2-z
-x,1/2+y,1/2+z
x,1/2-y,1/2+z
1/2+x,y,1/2+z
1/2-x,-y,1/2+z
1/2+x,-y,1/2-z
1/2-x,y,1/2-z
1/2-x,-y,1/2-z
1/2+x,y,1/2-z
1/2-x,y,1/2+z
1/2+x,-y,1/2+z
1/2+x,1/2+y,z
1/2-x,1/2-y,z
1/2+x,1/2-y,-z
1/2-x,1/2+y,-z
1/2-x,1/2-y,-z
1/2+x,1/2+y,-z
1/2-x,1/2+y,z
1/2+x,1/2-y,z
loop_
_atom_site_type_symbol
_atom_site_label
_atom_site_fract_x
_atom_site_fract_y
_atom_site_fract_z
Si Si1 0.500000 0.318100 0.807846
Si Si2 0.905580 0.683864 0.308992
Si Si3 0.292318 0.829817 0.561640
Si Si4 0.381815 0.180937 0.085239
Si Si5 0.948272 0.815720 0.000000
O O1 0.500000 0.500000 0.804645
O O2 0.500000 0.250000 0.750000
O O3 0.545997 0.273973 0.829769
O O4 0.901486 0.500000 0.307214
O O5 0.900042 0.750000 0.250000
O O6 0.878361 0.759049 0.354768
O O7 0.282997 0.849403 0.500000
O O8 0.250000 0.750000 0.585715
O O9 0.335391 0.729990 0.563332
O O10 0.300087 0.000000 0.583906
O O11 0.420361 0.256595 0.050366
O O12 0.387905 0.000000 0.083612
O O13 0.000000 0.772385 0.000000
O O14 0.947113 0.000000 0.000000
#
# Coordination Sequence:
#
# PCOD9512593 Si02
#       5
#    16  32  32  32  16
#     4   8  16  30  50  73 100 137 184 236 282 326
#     4  10  20  36  56  81 112 151 197 244 292 341
#     4  10  20  36  60  87 117 150 188 238 293 345
#     4  12  24  38  59  87 120 156 196 240 290 351
#     4  11  25  43  60  81 116 161 203 243 293 349
#
# _framework density 18.546256
#
# number of rings (size 3 to 8) (size 9 to 14) (size 15 to 20)
#    0.000    1.625    1.250    4.125    1.750    3.000 
#    0.000    0.000    0.000    0.750    0.000    5.250 
#    0.000    0.000    0.000    0.000    0.000    0.000 
#
# Total GULP energy -178148.945094 kJ/mol
# GULP energy per Si atom -5567.154534 kJ/mol
# Density = 1.850404 g / cm^3
# Si number density = 18.546256 Si / 1000 Ang^3
#
#
#
# Elastic Constant Matrix: (Units=GPa)
#
#
# Indices 1 2 3 4 5 6 
#
# 1 98.2552 41.0436 29.0013 0.0000 0.0000 0.0000
# 2 41.0436 108.4760 42.9470 0.0000 0.0000 0.0000
# 3 29.0013 42.9470 91.4458 0.0000 0.0000 0.0000
# 4 0.0000 0.0000 0.0000 25.0025 0.0000 0.0000
# 5 0.0000 0.0000 0.0000 0.0000 2.8478 0.0000
# 6 0.0000 0.0000 0.0000 0.0000 0.0000 21.5260
#
#
#
# Elastic Compliance Matrix: (Units=1/GPa)
#
#
# Indices 1 2 3 4 5 6 
#
# 1 0.012416 -0.003856 -0.002127 0.000000 0.000000 0.000000
# 2 -0.003856 0.012522 -0.004658 0.000000 0.000000 0.000000
# 3 -0.002127 -0.004658 0.013797 0.000000 0.000000 0.000000
# 4 0.000000 0.000000 0.000000 0.039996 0.000000 0.000000
# 5 0.000000 0.000000 0.000000 0.000000 0.351148 0.000000
# 6 0.000000 0.000000 0.000000 0.000000 0.000000 0.046455
#
#
# Mechanical properties :
#
#
# Convention : Reuss Voigt Hill
#
# Bulk Modulus (GPa) = 57.29276 58.24009 57.76643
# Shear Modulus (GPa) = 9.93180 22.22092 16.07636
#
# Velocity S-wave (km/s) = 2.31663 3.46516 2.94738
# Velocity P-wave (km/s) = 6.17370 6.89062 6.54199
#
# Compressibility (1/GPa) = 0.01745421
#
# Stress axis : x y z
#
# Youngs Moduli (GPa) = 80.54136 79.86171 72.47691
#
# Poissons Ratio (x) = 0.30793 0.15414
# Poissons Ratio (y) = 0.31055 0.33759
# Poissons Ratio (z) = 0.17129 0.37199
#
# Static dielectric constant tensor:
#      x y z
#    x 1.692020 0.000000 0.000000 
#    y 0.000000 1.648570 0.000000 
#    z 0.000000 0.000000 1.629120 
# 
# From -- ./inp_files/43749.got.cif
#   From: 2010.05.17/outbox.cif.g08.bks.cpg/sg69_22_cif.got.tgz:43749.got - 2010.06.03 19:29:58.
