data_PCOD9512321
_publ_section_title
;
Structure prediction by ZEFSAII (Michael W. Deem and Ramdas Pophale) SiO2 
 PCOD9512321
Probable space group: F M M M
;
_chemical_formula_sum "Si O2"
_cell_formula_units_Z 144
_cell_length_a 27.495827
_cell_length_b 8.794897
_cell_length_c 32.520445
_cell_angle_alpha 90.000000
_cell_angle_beta 90.000000
_cell_angle_gamma 90.000000
_cell_volume 7864.190478
_symmetry_space_group_name_H-M "F M M M"
_symmetry_group_IT_number 69
_symmetry_cell_setting 'orthorhombic'
loop_
_space_group_symop_operation_xyz
x,y,z
-x,-y,z
x,-y,-z
-x,y,-z
-x,-y,-z
x,y,-z
-x,y,z
x,-y,z
x,1/2+y,1/2+z
-x,1/2-y,1/2+z
x,1/2-y,1/2-z
-x,1/2+y,1/2-z
-x,1/2-y,1/2-z
x,1/2+y,1/2-z
-x,1/2+y,1/2+z
x,1/2-y,1/2+z
1/2+x,y,1/2+z
1/2-x,-y,1/2+z
1/2+x,-y,1/2-z
1/2-x,y,1/2-z
1/2-x,-y,1/2-z
1/2+x,y,1/2-z
1/2-x,y,1/2+z
1/2+x,-y,1/2+z
1/2+x,1/2+y,z
1/2-x,1/2-y,z
1/2+x,1/2-y,-z
1/2-x,1/2+y,-z
1/2-x,1/2-y,-z
1/2+x,1/2+y,-z
1/2-x,1/2+y,z
1/2+x,1/2-y,z
loop_
_atom_site_type_symbol
_atom_site_label
_atom_site_fract_x
_atom_site_fract_y
_atom_site_fract_z
Si Si1 0.150491 0.817679 0.293199
Si Si2 0.198709 0.681933 0.121833
Si Si3 0.903902 0.317221 0.084620
Si Si4 0.555299 0.182319 0.332177
Si Si5 0.558150 0.320341 0.000000
O O1 0.166877 0.750000 0.250000
O O2 0.183992 0.770156 0.331757
O O3 0.096467 0.757558 0.303896
O O4 0.149566 0.000000 0.291550
O O5 0.202430 0.500000 0.121786
O O6 0.250000 0.750000 0.109286
O O7 0.152471 0.722732 0.093758
O O8 0.908766 0.500000 0.087032
O O9 0.934442 0.242771 0.121721
O O10 0.920842 0.256408 0.040901
O O11 0.500000 0.220385 0.320185
O O12 0.560780 0.000000 0.331404
O O13 0.569101 0.500000 0.000000
O O14 0.500000 0.302026 0.000000
#
# Coordination Sequence:
#
# PCOD9512321 Si02
#       5
#    32  32  32  32  16
#     4  10  21  36  53  77 107 139 179 224 269 319
#     4   9  20  37  57  80 105 137 177 220 267 320
#     4  10  21  37  56  81 111 142 179 220 264 316
#     4  10  20  34  53  77 106 142 181 220 266 320
#     4  11  23  37  56  85 116 145 180 219 260 309
#
# _framework density 18.310848
#
# number of rings (size 3 to 8) (size 9 to 14) (size 15 to 20)
#    0.000    2.111    0.000    4.333    0.000   11.556 
#    0.000    2.778    0.000    0.000    0.000    0.000 
#    0.000    0.000    0.000    0.000    0.000    0.000 
#
# Total GULP energy -201047.294819 kJ/mol
# GULP energy per Si atom -5584.647078 kJ/mol
# Density = 1.826917 g / cm^3
# Si number density = 18.310848 Si / 1000 Ang^3
#
#
#
# Elastic Constant Matrix: (Units=GPa)
#
#
# Indices 1 2 3 4 5 6 
#
# 1 67.4648 21.0290 -6.5953 0.0000 0.0000 -0.0003
# 2 21.0290 47.7374 13.8204 0.0000 0.0000 -0.0002
# 3 -6.5953 13.8204 65.4658 0.0000 0.0000 -0.0001
# 4 0.0000 0.0000 0.0000 28.6346 0.0000 0.0000
# 5 0.0000 0.0000 0.0000 0.0000 4.2868 0.0000
# 6 -0.0003 -0.0002 -0.0001 0.0000 0.0000 28.8702
#
#
#
# Elastic Compliance Matrix: (Units=1/GPa)
#
#
# Indices 1 2 3 4 5 6 
#
# 1 0.017991 -0.009000 0.003712 0.000000 0.000000 0.000000
# 2 -0.009000 0.026814 -0.006567 0.000000 0.000000 0.000000
# 3 0.003712 -0.006567 0.017036 0.000000 0.000000 0.000000
# 4 0.000000 0.000000 0.000000 0.034923 0.000000 0.000000
# 5 0.000000 0.000000 0.000000 0.000000 0.233277 0.000000
# 6 0.000000 0.000000 0.000000 0.000000 0.000000 0.034638
#
#
# Mechanical properties :
#
#
# Convention : Reuss Voigt Hill
#
# Bulk Modulus (GPa) = 26.22575 26.35292 26.28933
# Shear Modulus (GPa) = 12.46580 22.51924 17.49252
#
# Velocity S-wave (km/s) = 2.61202 3.51070 3.09416
# Velocity P-wave (km/s) = 4.84257 5.55487 5.21090
#
# Compressibility (1/GPa) = 0.03813047
#
# Stress axis : x y z
#
# Youngs Moduli (GPa) = 55.58396 37.29412 58.70064
#
# Poissons Ratio (x) = 0.33565 -0.21792
# Poissons Ratio (y) = 0.50026 0.38551
# Poissons Ratio (z) = -0.20635 0.24492
#
# Static dielectric constant tensor:
#      x y z
#    x 1.619210 0.000000 0.000000 
#    y 0.000000 1.612880 0.000000 
#    z 0.000000 0.000000 1.612410 
# 
# From -- ./inp_files/44505.got.cif
#   From: 2010.05.17/outbox.cif.g08.bks.cpg/sg69_23_cif.got.tgz:44505.got - 2010.06.03 19:29:58.
