data_PCOD9512922
_publ_section_title
;
Structure prediction by ZEFSAII (Michael W. Deem and Ramdas Pophale) SiO2 
 PCOD9512922
Probable space group: F M M M
;
_chemical_formula_sum "Si O2"
_cell_formula_units_Z 132
_cell_length_a 18.427661
_cell_length_b 14.566088
_cell_length_c 24.990809
_cell_angle_alpha 90.000000
_cell_angle_beta 90.000000
_cell_angle_gamma 90.000000
_cell_volume 6708.006256
_symmetry_space_group_name_H-M "F M M M"
_symmetry_group_IT_number 69
_symmetry_cell_setting 'orthorhombic'
loop_
_space_group_symop_operation_xyz
x,y,z
-x,-y,z
x,-y,-z
-x,y,-z
-x,-y,-z
x,y,-z
-x,y,z
x,-y,z
x,1/2+y,1/2+z
-x,1/2-y,1/2+z
x,1/2-y,1/2-z
-x,1/2+y,1/2-z
-x,1/2-y,1/2-z
x,1/2+y,1/2-z
-x,1/2+y,1/2+z
x,1/2-y,1/2+z
1/2+x,y,1/2+z
1/2-x,-y,1/2+z
1/2+x,-y,1/2-z
1/2-x,y,1/2-z
1/2-x,-y,1/2-z
1/2+x,y,1/2-z
1/2-x,y,1/2+z
1/2+x,-y,1/2+z
1/2+x,1/2+y,z
1/2-x,1/2-y,z
1/2+x,1/2-y,-z
1/2-x,1/2+y,-z
1/2-x,1/2-y,-z
1/2+x,1/2+y,-z
1/2-x,1/2+y,z
1/2+x,1/2-y,z
loop_
_atom_site_type_symbol
_atom_site_label
_atom_site_fract_x
_atom_site_fract_y
_atom_site_fract_z
Si Si1 0.500000 0.500000 0.500000
Si Si2 0.915387 0.634104 0.500000
Si Si3 0.180815 0.500000 0.182300
Si Si4 0.871998 0.845584 0.500000
Si Si5 0.852588 0.500000 0.699566
Si Si6 0.320323 0.184518 0.885771
Si Si7 0.413579 0.857349 0.617098
O O1 0.435499 0.420179 0.500000
O O2 0.908066 0.744388 0.500000
O O3 0.885408 0.607276 0.441423
O O4 0.000000 0.607783 0.500000
O O5 0.134360 0.500000 0.236989
O O6 0.266308 0.500000 0.194408
O O7 0.170368 0.594498 0.150084
O O8 0.822797 0.849039 0.552930
O O9 0.883186 0.413997 0.666704
O O10 0.250000 0.250000 0.875808
O O11 0.387842 0.252928 0.877907
O O12 0.500000 0.864828 0.616214
#
# Coordination Sequence:
#
# PCOD9512922 Si02
#       7
#     4  16  16  16  16  32  32
#     4  12  20  36  60  96 148 182 202 248 340 406
#     4   8  16  34  58  92 129 163 201 246 324 403
#     4  11  25  43  62  90 123 171 220 264 325 384
#     4  10  21  34  63  94 130 169 205 256 322 392
#     4  11  23  43  62  88 124 166 224 269 314 392
#     4  11  22  43  65  96 130 169 216 269 328 399
#     4  10  21  40  68  96 131 169 211 271 337 392
#
# _framework density 19.677979000000001
#
# number of rings (size 3 to 8) (size 9 to 14) (size 15 to 20)
#    0.000    1.697    3.030    1.455    1.697    1.455 
#    0.000    6.667    0.000    0.000    0.000    0.000 
#    0.000    0.000    0.000    0.000    0.000    0.000 
#
# Total GULP energy -183759.894008 kJ/mol
# GULP energy per Si atom -5568.481637 kJ/mol
# Density = 1.963319 g / cm^3
# Si number density = 19.677979 Si / 1000 Ang^3
#
#
#
# Elastic Constant Matrix: (Units=GPa)
#
#
# Indices 1 2 3 4 5 6 
#
# 1 45.8455 20.2375 40.1340 0.0000 0.0000 0.0000
# 2 20.2375 141.1457 97.4948 0.0000 0.0000 0.0000
# 3 40.1340 97.4948 194.4996 0.0000 0.0000 0.0000
# 4 0.0000 0.0000 0.0000 41.7099 0.0000 0.0000
# 5 0.0000 0.0000 0.0000 0.0000 23.8245 0.0000
# 6 0.0000 0.0000 0.0000 0.0000 0.0000 36.0974
#
#
#
# Elastic Compliance Matrix: (Units=1/GPa)
#
#
# Indices 1 2 3 4 5 6 
#
# 1 0.026621 -0.000035 -0.005476 0.000000 0.000000 0.000000
# 2 -0.000035 0.010837 -0.005425 0.000000 0.000000 0.000000
# 3 -0.005476 -0.005425 0.008991 0.000000 0.000000 0.000000
# 4 0.000000 0.000000 0.000000 0.023975 0.000000 0.000000
# 5 0.000000 0.000000 0.000000 0.000000 0.041974 0.000000
# 6 0.000000 0.000000 0.000000 0.000000 0.000000 0.027703
#
#
# Mechanical properties :
#
#
# Convention : Reuss Voigt Hill
#
# Bulk Modulus (GPa) = 40.68660 77.46928 59.07794
# Shear Modulus (GPa) = 29.38335 35.23467 32.30901
#
# Velocity S-wave (km/s) = 3.86840 4.23610 4.05642
# Velocity P-wave (km/s) = 6.37760 7.96115 7.21297
#
# Compressibility (1/GPa) = 0.02457812
#
# Stress axis : x y z
#
# Youngs Moduli (GPa) = 37.56387 92.27517 111.22624
#
# Poissons Ratio (x) = 0.00319 0.60906
# Poissons Ratio (y) = 0.00130 0.60341
# Poissons Ratio (z) = 0.20569 0.50060
#
# Static dielectric constant tensor:
#      x y z
#    x 1.685580 0.000000 0.000000 
#    y 0.000000 1.711330 0.000000 
#    z 0.000000 0.000000 1.766370 
# 
# From -- ./inp_files/29697.got.cif
#   From: 2010.05.17/outbox.cif.g08.bks.cpg/sg69_15_cif.got.tgz:29697.got - 2010.06.03 19:29:58.
