data_PCOD9512531
_publ_section_title
;
Structure prediction by ZEFSAII (Michael W. Deem and Ramdas Pophale) SiO2 
 PCOD9512531
Probable space group: F M M M
;
_chemical_formula_sum "Si O2"
_cell_formula_units_Z 128
_cell_length_a 20.847165
_cell_length_b 19.752663
_cell_length_c 14.594530
_cell_angle_alpha 90.000000
_cell_angle_beta 90.000000
_cell_angle_gamma 90.000000
_cell_volume 6009.838086
_symmetry_space_group_name_H-M "F M M M"
_symmetry_group_IT_number 69
_symmetry_cell_setting 'orthorhombic'
loop_
_space_group_symop_operation_xyz
x,y,z
-x,-y,z
x,-y,-z
-x,y,-z
-x,-y,-z
x,y,-z
-x,y,z
x,-y,z
x,1/2+y,1/2+z
-x,1/2-y,1/2+z
x,1/2-y,1/2-z
-x,1/2+y,1/2-z
-x,1/2-y,1/2-z
x,1/2+y,1/2-z
-x,1/2+y,1/2+z
x,1/2-y,1/2+z
1/2+x,y,1/2+z
1/2-x,-y,1/2+z
1/2+x,-y,1/2-z
1/2-x,y,1/2-z
1/2-x,-y,1/2-z
1/2+x,y,1/2-z
1/2-x,y,1/2+z
1/2+x,-y,1/2+z
1/2+x,1/2+y,z
1/2-x,1/2-y,z
1/2+x,1/2-y,-z
1/2-x,1/2+y,-z
1/2-x,1/2-y,-z
1/2+x,1/2+y,-z
1/2-x,1/2+y,z
1/2+x,1/2-y,z
loop_
_atom_site_type_symbol
_atom_site_label
_atom_site_fract_x
_atom_site_fract_y
_atom_site_fract_z
Si Si1 0.169970 0.249652 0.000000
Si Si2 0.655603 0.815938 0.188926
Si Si3 0.067688 0.635969 0.500000
Si Si4 0.605776 0.075049 0.685179
Si Si5 0.250569 0.074521 0.889742
O O1 0.250000 0.250000 0.000000
O O2 0.141747 0.285446 0.910419
O O3 0.134359 0.177629 0.000000
O O4 0.671257 0.750000 0.250000
O O5 0.604752 0.863641 0.241748
O O6 0.712911 0.866549 0.162226
O O7 0.068717 0.592632 0.592538
O O8 0.000000 0.676077 0.500000
O O9 0.679121 0.073301 0.648811
O O10 0.589050 0.000000 0.720165
O O11 0.279561 0.000000 0.870843
O O12 0.252140 0.083832 0.000000
#
# Coordination Sequence:
#
# PCOD9512531 Si02
#       5
#    16  32  16  32  32
#     4  12  26  43  62 101 142 176 226 282 342 407
#     4  12  24  36  61  90 130 175 223 275 343 405
#     4  12  25  46  72  98 133 176 224 286 345 404
#     4  11  23  40  60  92 129 172 225 280 337 402
#     4  10  20  35  57  89 133 173 212 270 339 402
#
# _framework density 21.298411999999999
#
# number of rings (size 3 to 8) (size 9 to 14) (size 15 to 20)
#    0.000    0.750    5.000    3.375    3.500    3.000 
#    0.000    2.500    0.000    0.000    0.000    0.000 
#    0.000    4.000    0.000    0.000    0.000    0.000 
#
# Total GULP energy -178617.399722 kJ/mol
# GULP energy per Si atom -5581.793741 kJ/mol
# Density = 2.124994 g / cm^3
# Si number density = 21.298412 Si / 1000 Ang^3
#
#
#
# Elastic Constant Matrix: (Units=GPa)
#
#
# Indices 1 2 3 4 5 6 
#
# 1 50.4368 26.9105 4.0510 0.0000 0.0000 0.0000
# 2 26.9105 173.1320 67.7872 0.0000 0.0000 0.0000
# 3 4.0510 67.7872 168.2764 0.0000 0.0000 0.0000
# 4 0.0000 0.0000 0.0000 27.2513 0.0000 0.0000
# 5 0.0000 0.0000 0.0000 0.0000-1015.8432 0.0000
# 6 0.0000 0.0000 0.0000 0.0000 0.0000 3.2717
#
#
#
# Elastic Compliance Matrix: (Units=1/GPa)
#
#
# Indices 1 2 3 4 5 6 
#
# 1 0.021759 -0.003772 0.000996 0.000000 0.000000 0.000000
# 2 -0.003772 0.007511 -0.002935 0.000000 0.000000 0.000000
# 3 0.000996 -0.002935 0.007101 0.000000 0.000000 0.000000
# 4 0.000000 0.000000 0.000000 0.036695 0.000000 0.000000
# 5 0.000000 0.000000 0.000000 0.000000 -0.000984 0.000000
# 6 0.000000 0.000000 0.000000 0.000000 0.000000 0.305651
#
#
# Mechanical properties :
#
#
# Convention : Reuss Voigt Hill
#
# Bulk Modulus (GPa) = 40.08175 65.48251 52.78213
# Shear Modulus (GPa) = 12.57948 -177.52426 -82.47239
#
# Velocity S-wave (km/s) = 2.43292 -9.13958 -6.22948
# Velocity P-wave (km/s) = 5.17225 8.97574 5.18709
#
# Compressibility (1/GPa) = 0.02494901
#
# Stress axis : x y z
#
# Youngs Moduli (GPa) = 45.95730 133.13112 140.82598
#
# Poissons Ratio (x) = 0.50216 -0.14021
# Poissons Ratio (y) = 0.17335 0.41333
# Poissons Ratio (z) = -0.04576 0.39074
#
# Static dielectric constant tensor:
#      x y z
#    x 1.777320 0.000000 0.000000 
#    y 0.000000 1.854450 0.000000 
#    z 0.000000 0.000000 0.903380 
# 
# From -- ./inp_files/16367.got.cif
#   From: 2010.05.17/outbox.cif.g08.bks.cpg/sg69_9_cif.got.tgz:16367.got - 2010.06.03 19:29:58.
