data_PCOD9512225
_publ_section_title
;
Structure prediction by ZEFSAII (Michael W. Deem and Ramdas Pophale) SiO2 
 PCOD9512225
Probable space group: F M M M
;
_chemical_formula_sum "Si O2"
_cell_formula_units_Z 176
_cell_length_a 14.623529
_cell_length_b 18.299845
_cell_length_c 28.106247
_cell_angle_alpha 90.000000
_cell_angle_beta 90.000000
_cell_angle_gamma 90.000000
_cell_volume 7521.465374
_symmetry_space_group_name_H-M "F M M M"
_symmetry_group_IT_number 69
_symmetry_cell_setting 'orthorhombic'
loop_
_space_group_symop_operation_xyz
x,y,z
-x,-y,z
x,-y,-z
-x,y,-z
-x,-y,-z
x,y,-z
-x,y,z
x,-y,z
x,1/2+y,1/2+z
-x,1/2-y,1/2+z
x,1/2-y,1/2-z
-x,1/2+y,1/2-z
-x,1/2-y,1/2-z
x,1/2+y,1/2-z
-x,1/2+y,1/2+z
x,1/2-y,1/2+z
1/2+x,y,1/2+z
1/2-x,-y,1/2+z
1/2+x,-y,1/2-z
1/2-x,y,1/2-z
1/2-x,-y,1/2-z
1/2+x,y,1/2-z
1/2-x,y,1/2+z
1/2+x,-y,1/2+z
1/2+x,1/2+y,z
1/2-x,1/2-y,z
1/2+x,1/2-y,-z
1/2-x,1/2+y,-z
1/2-x,1/2-y,-z
1/2+x,1/2+y,-z
1/2-x,1/2+y,z
1/2+x,1/2-y,z
loop_
_atom_site_type_symbol
_atom_site_label
_atom_site_fract_x
_atom_site_fract_y
_atom_site_fract_z
Si Si1 0.889930 0.080384 0.353483
Si Si2 0.894115 0.418662 0.327917
Si Si3 0.111550 0.681984 0.410634
Si Si4 0.388019 0.841668 0.054234
Si Si5 0.611532 0.417093 0.000000
Si Si6 0.356147 0.830104 0.761995
O O1 0.858636 0.099427 0.406725
O O2 0.867180 0.142995 0.315622
O O3 0.000000 0.078750 0.354882
O O4 0.858208 0.000000 0.338083
O O5 0.854011 0.500000 0.332962
O O6 0.854698 0.355046 0.361771
O O7 0.893571 0.391044 0.273984
O O8 0.000000 0.424810 0.342633
O O9 0.141072 0.763101 0.424841
O O10 0.137314 0.627459 0.453116
O O11 0.000000 0.686926 0.408775
O O12 0.500000 0.842122 0.052685
O O13 0.356695 0.851896 0.000000
O O14 0.644847 0.500000 0.000000
O O15 0.500000 0.419264 0.000000
O O16 0.395212 0.750000 0.750000
O O17 0.250000 0.827021 0.750000
#
# Coordination Sequence:
#
# PCOD9512225 Si02
#       6
#    32  32  32  32  16  32
#     4  10  21  36  56  84 115 145 181 227 276 325
#     4  10  20  33  52  80 112 144 179 220 269 325
#     4   9  15  25  42  69 104 141 176 211 257 311
#     4   9  16  28  48  76 110 146 182 221 268 321
#     4   9  14  20  34  60  97 134 169 211 255 301
#     4  11  24  40  57  79 105 140 184 227 275 332
#
# _framework density 23.399695000000001
#
# number of rings (size 3 to 8) (size 9 to 14) (size 15 to 20)
#    0.000    2.273    0.909    2.727    0.000    8.364 
#    0.000    1.818    0.000    0.000    2.364    2.545 
#    0.000    0.000    0.000    0.000    0.000    0.000 
#
# Total GULP energy -245914.363682 kJ/mol
# GULP energy per Si atom -5588.962811 kJ/mol
# Density = 2.334644 g / cm^3
# Si number density = 23.399695 Si / 1000 Ang^3
#
#
#
# Elastic Constant Matrix: (Units=GPa)
#
#
# Indices 1 2 3 4 5 6 
#
# 1 63.4323 0.8118 -0.2535 0.0000 0.0000 0.0000
# 2 0.8118 112.7370 43.1470 0.0000 0.0000 0.0000
# 3 -0.2535 43.1470 143.3516 0.0000 0.0000 0.0000
# 4 0.0000 0.0000 0.0000 41.8678 0.0000 0.0000
# 5 0.0000 0.0000 0.0000 0.0000 -1.6524 0.0000
# 6 0.0000 0.0000 0.0000 0.0000 0.0000 -17.4989
#
#
#
# Elastic Compliance Matrix: (Units=1/GPa)
#
#
# Indices 1 2 3 4 5 6 
#
# 1 0.015767 -0.000140 0.000070 0.000000 0.000000 0.000000
# 2 -0.000140 0.010026 -0.003018 0.000000 0.000000 0.000000
# 3 0.000070 -0.003018 0.007884 0.000000 0.000000 0.000000
# 4 0.000000 0.000000 0.000000 0.023885 0.000000 0.000000
# 5 0.000000 0.000000 0.000000 0.000000 -0.605192 0.000000
# 6 0.000000 0.000000 0.000000 0.000000 0.000000 -0.057146
#
#
# Mechanical properties :
#
#
# Convention : Reuss Voigt Hill
#
# Bulk Modulus (GPa) = 36.36230 45.21462 40.78846
# Shear Modulus (GPa) = -8.48274 22.93100 7.22413
#
# Velocity S-wave (km/s) = -1.90605 3.13384 1.75897
# Velocity P-wave (km/s) = 3.27557 5.69731 4.64697
#
# Compressibility (1/GPa) = 0.02750101
#
# Stress axis : x y z
#
# Youngs Moduli (GPa) = 63.42399 99.73784 126.83318
#
# Poissons Ratio (x) = 0.01400 -0.00889
# Poissons Ratio (y) = 0.00890 0.38279
# Poissons Ratio (z) = -0.00445 0.30101
#
# Static dielectric constant tensor:
#      x y z
#    x 2.066880 0.000000 0.000000 
#    y 0.000000 1.869440 0.000000 
#    z 0.000000 0.000000 1.844650 
# 
# From -- ./inp_files/41864.got.cif
#   From: 2010.05.17/outbox.cif.g08.bks.cpg/sg69_21_cif.got.tgz:41864.got - 2010.06.03 19:29:58.
