data_PCOD9512027
_publ_section_title
;
Structure prediction by ZEFSAII (Michael W. Deem and Ramdas Pophale) SiO2 
 PCOD9512027
Probable space group: F M M M
;
_chemical_formula_sum "Si O2"
_cell_formula_units_Z 144
_cell_length_a 21.263831
_cell_length_b 18.464584
_cell_length_c 20.129208
_cell_angle_alpha 90.000000
_cell_angle_beta 90.000000
_cell_angle_gamma 90.000000
_cell_volume 7903.286525
_symmetry_space_group_name_H-M "F M M M"
_symmetry_group_IT_number 69
_symmetry_cell_setting 'orthorhombic'
loop_
_space_group_symop_operation_xyz
x,y,z
-x,-y,z
x,-y,-z
-x,y,-z
-x,-y,-z
x,y,-z
-x,y,z
x,-y,z
x,1/2+y,1/2+z
-x,1/2-y,1/2+z
x,1/2-y,1/2-z
-x,1/2+y,1/2-z
-x,1/2-y,1/2-z
x,1/2+y,1/2-z
-x,1/2+y,1/2+z
x,1/2-y,1/2+z
1/2+x,y,1/2+z
1/2-x,-y,1/2+z
1/2+x,-y,1/2-z
1/2-x,y,1/2-z
1/2-x,-y,1/2-z
1/2+x,y,1/2-z
1/2-x,y,1/2+z
1/2+x,-y,1/2+z
1/2+x,1/2+y,z
1/2-x,1/2-y,z
1/2+x,1/2-y,-z
1/2-x,1/2+y,-z
1/2-x,1/2-y,-z
1/2+x,1/2+y,-z
1/2-x,1/2+y,z
1/2+x,1/2-y,z
loop_
_atom_site_type_symbol
_atom_site_label
_atom_site_fract_x
_atom_site_fract_y
_atom_site_fract_z
Si Si1 0.500000 0.914147 0.129406
Si Si2 0.000000 0.334880 0.730604
Si Si3 0.257480 0.837393 0.576696
Si Si4 0.387080 0.168130 0.369783
Si Si5 0.074315 0.580958 0.500000
Si Si6 0.119123 0.169983 0.421548
O O1 0.500000 0.883272 0.204003
O O2 0.561761 0.882136 0.094180
O O3 0.500000 0.000000 0.128026
O O4 0.000000 0.250000 0.750000
O O5 0.063692 0.349109 0.688265
O O6 0.273421 0.859692 0.500000
O O7 0.250000 0.750000 0.574330
O O8 0.312788 0.852194 0.629358
O O9 0.187575 0.863668 0.594250
O O10 0.409526 0.126452 0.435138
O O11 0.390031 0.254608 0.382561
O O12 0.102933 0.500000 0.500000
O O13 0.000000 0.573005 0.500000
O O14 0.120496 0.187860 0.500000
#
# Coordination Sequence:
#
# PCOD9512027 Si02
#       6
#    16  16  32  32  16  32
#     4  12  27  43  57  82 122 157 200 251 288 335
#     4  12  24  37  59  84 110 160 213 237 272 336
#     4   8  15  29  56  94 120 139 180 241 296 345
#     4  11  18  35  62  86 118 153 191 238 287 345
#     4  11  22  32  51  90 120 139 180 239 301 353
#     4  10  19  35  65  93 115 146 190 241 297 351
#
# _framework density 18.220268000000001
#
# number of rings (size 3 to 8) (size 9 to 14) (size 15 to 20)
#    0.000    1.667    5.556    1.667    0.000    1.778 
#    0.000    2.222    0.000    1.333    0.000    0.000 
#    0.000    0.000    0.000    0.000    0.000    0.000 
#
# Total GULP energy -200643.715708 kJ/mol
# GULP energy per Si atom -5573.436547 kJ/mol
# Density = 1.817880 g / cm^3
# Si number density = 18.220268 Si / 1000 Ang^3
#
#
#
# Elastic Constant Matrix: (Units=GPa)
#
#
# Indices 1 2 3 4 5 6 
#
# 1 162.0756 17.0781 26.3893 0.0000 0.0000 0.0000
# 2 17.0781 45.5581 -14.9678 0.0000 0.0000 0.0000
# 3 26.3893 -14.9678 29.5828 0.0000 0.0000 0.0000
# 4 0.0000 0.0000 0.0000 13.0427 0.0000 0.0000
# 5 0.0000 0.0000 0.0000 0.0000 9.5874 0.0000
# 6 0.0000 0.0000 0.0000 0.0000 0.0000 3.6151
#
#
#
# Elastic Compliance Matrix: (Units=1/GPa)
#
#
# Indices 1 2 3 4 5 6 
#
# 1 0.008760 -0.007018 -0.011365 0.000000 0.000000 0.000000
# 2 -0.007018 0.031948 0.022425 0.000000 0.000000 0.000000
# 3 -0.011365 0.022425 0.055288 0.000000 0.000000 0.000000
# 4 0.000000 0.000000 0.000000 0.076671 0.000000 0.000000
# 5 0.000000 0.000000 0.000000 0.000000 0.104303 0.000000
# 6 0.000000 0.000000 0.000000 0.000000 0.000000 0.276618
#
#
# Mechanical properties :
#
#
# Convention : Reuss Voigt Hill
#
# Bulk Modulus (GPa) = 9.60799 32.69062 21.14930
# Shear Modulus (GPa) = 8.61775 19.16350 13.89062
#
# Velocity S-wave (km/s) = 2.17716 3.24662 2.76410
# Velocity P-wave (km/s) = 3.40657 5.65994 4.67117
#
# Compressibility (1/GPa) = 0.10408008
#
# Stress axis : x y z
#
# Youngs Moduli (GPa) = 114.15703 31.30071 18.08721
#
# Poissons Ratio (x) = 0.21966 0.20556
# Poissons Ratio (y) = 0.80111 -0.40560
# Poissons Ratio (z) = 1.29739 -0.70191
#
# Static dielectric constant tensor:
#      x y z
#    x 1.706610 0.000000 0.000000 
#    y 0.000000 1.610740 0.000000 
#    z 0.000000 0.000000 1.601220 
# 
# From -- ./inp_files/30751.got.cif
#   From: 2010.05.17/outbox.cif.g08.bks.cpg/sg69_16_cif.got.tgz:30751.got - 2010.06.03 19:29:58.
