data_PCOD9512795
_publ_section_title
;
Structure prediction by ZEFSAII (Michael W. Deem and Ramdas Pophale) SiO2 
 PCOD9512795
Probable space group: F M M M
;
_chemical_formula_sum "Si O2"
_cell_formula_units_Z 104
_cell_length_a 10.465554
_cell_length_b 17.321094
_cell_length_c 28.272327
_cell_angle_alpha 90.000000
_cell_angle_beta 90.000000
_cell_angle_gamma 90.000000
_cell_volume 5125.061683
_symmetry_space_group_name_H-M "F M M M"
_symmetry_group_IT_number 69
_symmetry_cell_setting 'orthorhombic'
loop_
_space_group_symop_operation_xyz
x,y,z
-x,-y,z
x,-y,-z
-x,y,-z
-x,-y,-z
x,y,-z
-x,y,z
x,-y,z
x,1/2+y,1/2+z
-x,1/2-y,1/2+z
x,1/2-y,1/2-z
-x,1/2+y,1/2-z
-x,1/2-y,1/2-z
x,1/2+y,1/2-z
-x,1/2+y,1/2+z
x,1/2-y,1/2+z
1/2+x,y,1/2+z
1/2-x,-y,1/2+z
1/2+x,-y,1/2-z
1/2-x,y,1/2-z
1/2-x,-y,1/2-z
1/2+x,y,1/2-z
1/2-x,y,1/2+z
1/2+x,-y,1/2+z
1/2+x,1/2+y,z
1/2-x,1/2-y,z
1/2+x,1/2-y,-z
1/2-x,1/2+y,-z
1/2-x,1/2-y,-z
1/2+x,1/2+y,-z
1/2-x,1/2+y,z
1/2+x,1/2-y,z
loop_
_atom_site_type_symbol
_atom_site_label
_atom_site_fract_x
_atom_site_fract_y
_atom_site_fract_z
Si Si1 0.369842 0.000000 0.283025
Si Si2 0.350737 0.592932 0.400905
Si Si3 0.852203 0.679743 0.000000
Si Si4 0.138626 0.841677 0.835860
Si Si5 0.250000 0.750000 0.250000
O O1 0.250000 0.000000 0.250000
O O2 0.370020 0.072163 0.316728
O O3 0.500000 0.000000 0.253034
O O4 0.500000 0.600473 0.386439
O O5 0.320052 0.500000 0.398007
O O6 0.337938 0.625015 0.454119
O O7 0.259588 0.650167 0.370453
O O8 0.750000 0.750000 0.000000
O O9 0.000000 0.709201 0.000000
O O10 0.164517 0.796328 0.787310
O O11 0.000000 0.818573 0.856714
#
# Coordination Sequence:
#
# PCOD9512795 Si02
#       5
#    16  32  16  32   8
#     4  10  20  38  60  83 114 157 207 262 309 367
#     4  10  22  42  69  95 124 167 216 262 311 372
#     4  10  23  43  65  97 135 170 206 253 313 379
#     4  11  24  41  62  90 123 162 211 264 317 372
#     4  12  26  42  60  88 130 174 208 258 322 392
#
# _framework density 20.292437
#
# number of rings (size 3 to 8) (size 9 to 14) (size 15 to 20)
#    0.000    1.538    3.077    0.923    2.154    6.769 
#    0.000    0.000    0.000    2.769    0.000    0.000 
#    0.000    0.000    0.000    0.000    0.000    0.000 
#
# Total GULP energy -144835.836938 kJ/mol
# GULP energy per Si atom -5570.609113 kJ/mol
# Density = 2.024625 g / cm^3
# Si number density = 20.292437 Si / 1000 Ang^3
#
#
#
# Elastic Constant Matrix: (Units=GPa)
#
#
# Indices 1 2 3 4 5 6 
#
# 1 159.3418 27.8475 73.6871 0.0000 0.0000 0.0000
# 2 27.8475 73.1655 20.5147 0.0000 0.0000 0.0000
# 3 73.6871 20.5147 110.5764 0.0000 0.0000 0.0000
# 4 0.0000 0.0000 0.0000 40.2206 0.0000 0.0000
# 5 0.0000 0.0000 0.0000 0.0000 26.5761 0.0000
# 6 0.0000 0.0000 0.0000 0.0000 0.0000 82.9980
#
#
#
# Elastic Compliance Matrix: (Units=1/GPa)
#
#
# Indices 1 2 3 4 5 6 
#
# 1 0.009316 -0.001904 -0.005855 0.000000 0.000000 0.000000
# 2 -0.001904 0.014807 -0.001478 0.000000 0.000000 0.000000
# 3 -0.005855 -0.001478 0.013219 0.000000 0.000000 0.000000
# 4 0.000000 0.000000 0.000000 0.024863 0.000000 0.000000
# 5 0.000000 0.000000 0.000000 0.000000 0.037628 0.000000
# 6 0.000000 0.000000 0.000000 0.000000 0.000000 0.012048
#
#
# Mechanical properties :
#
#
# Convention : Reuss Voigt Hill
#
# Bulk Modulus (GPa) = 52.99985 65.24247 59.12116
# Shear Modulus (GPa) = 36.59105 44.69457 40.64281
#
# Velocity S-wave (km/s) = 4.25100 4.69820 4.48018
# Velocity P-wave (km/s) = 7.09009 7.85186 7.48068
#
# Compressibility (1/GPa) = 0.01886798
#
# Stress axis : x y z
#
# Youngs Moduli (GPa) = 107.33982 67.53636 75.64612
#
# Poissons Ratio (x) = 0.12860 0.44291
# Poissons Ratio (y) = 0.20439 0.11181
# Poissons Ratio (z) = 0.62847 0.09983
#
# Static dielectric constant tensor:
#      x y z
#    x 1.879760 0.000000 0.000000 
#    y 0.000000 1.739430 0.000000 
#    z 0.000000 0.000000 1.689640 
# 
# From -- ./inp_files/39392.got.cif
#   From: 2010.05.17/outbox.cif.g08.bks.cpg/sg69_20_cif.got.tgz:39392.got - 2010.06.03 19:29:58.
