data_PCOD9512358
_publ_section_title
;
Structure prediction by ZEFSAII (Michael W. Deem and Ramdas Pophale) SiO2 
 PCOD9512358
Probable space group: F M M M
;
_chemical_formula_sum "Si O2"
_cell_formula_units_Z 160
_cell_length_a 15.560324
_cell_length_b 29.065071
_cell_length_c 19.649903
_cell_angle_alpha 90.000000
_cell_angle_beta 90.000000
_cell_angle_gamma 90.000000
_cell_volume 8886.902895
_symmetry_space_group_name_H-M "F M M M"
_symmetry_group_IT_number 69
_symmetry_cell_setting 'orthorhombic'
loop_
_space_group_symop_operation_xyz
x,y,z
-x,-y,z
x,-y,-z
-x,y,-z
-x,-y,-z
x,y,-z
-x,y,z
x,-y,z
x,1/2+y,1/2+z
-x,1/2-y,1/2+z
x,1/2-y,1/2-z
-x,1/2+y,1/2-z
-x,1/2-y,1/2-z
x,1/2+y,1/2-z
-x,1/2+y,1/2+z
x,1/2-y,1/2+z
1/2+x,y,1/2+z
1/2-x,-y,1/2+z
1/2+x,-y,1/2-z
1/2-x,y,1/2-z
1/2-x,-y,1/2-z
1/2+x,y,1/2-z
1/2-x,y,1/2+z
1/2+x,-y,1/2+z
1/2+x,1/2+y,z
1/2-x,1/2-y,z
1/2+x,1/2-y,-z
1/2-x,1/2+y,-z
1/2-x,1/2-y,-z
1/2+x,1/2+y,-z
1/2-x,1/2+y,z
1/2+x,1/2-y,z
loop_
_atom_site_type_symbol
_atom_site_label
_atom_site_fract_x
_atom_site_fract_y
_atom_site_fract_z
Si Si1 0.500000 0.951397 0.704249
Si Si2 0.353493 0.051838 0.181136
Si Si3 0.167853 0.282954 0.922712
Si Si4 0.500000 0.055109 0.925718
Si Si5 0.826860 0.651672 0.794541
Si Si6 0.500000 0.850518 0.297249
Si Si7 0.500000 0.780725 0.576964
O O1 0.417638 0.951588 0.754432
O O2 0.500000 0.901866 0.670411
O O3 0.500000 0.000000 0.665499
O O4 0.415656 0.064181 0.118068
O O5 0.300797 0.098364 0.190319
O O6 0.315520 0.000000 0.172491
O O7 0.250000 0.250000 0.912518
O O8 0.163921 0.321336 0.864841
O O9 0.083606 0.251348 0.918155
O O10 0.172739 0.301872 0.000000
O O11 0.500000 0.000000 0.931995
O O12 0.500000 0.076693 0.000000
O O13 0.750000 0.672574 0.750000
O O14 0.915634 0.653505 0.751206
O O15 0.500000 0.815078 0.359272
O O16 0.500000 0.801641 0.500000
#
# Coordination Sequence:
#
# PCOD9512358 Si02
#       7
#    16  32  32  16  32  16  16
#     4   7  12  26  46  67  97 133 161 196 247 292
#     4   8  15  28  44  68 103 135 167 206 246 297
#     4  10  22  39  55  74 104 138 169 207 260 318
#     4   8  13  23  43  70 100 137 172 201 246 304
#     4  11  22  34  53  80 104 134 175 216 259 304
#     4  10  20  34  54  81 107 132 171 219 257 298
#     4  10  21  37  57  78 102 137 173 208 261 316
#
# _framework density 18.004021999999999
#
# number of rings (size 3 to 8) (size 9 to 14) (size 15 to 20)
#    0.000    2.700    0.000    3.600    0.000    4.800 
#    0.000    1.000    0.000    0.300    0.000    0.000 
#    0.000    9.600    0.000    0.000    0.000    1.000 
#
# Total GULP energy -222685.200870 kJ/mol
# GULP energy per Si atom -5567.130022 kJ/mol
# Density = 1.796304 g / cm^3
# Si number density = 18.004022 Si / 1000 Ang^3
#
#
#
# Elastic Constant Matrix: (Units=GPa)
#
#
# Indices 1 2 3 4 5 6 
#
# 1 81.4836 26.3387 31.2855 0.0000 0.0000 0.0000
# 2 26.3387 105.7161 75.5385 0.0000 0.0000 0.0000
# 3 31.2855 75.5385 115.2838 0.0000 0.0000 0.0000
# 4 0.0000 0.0000 0.0000 10.5045 0.0000 0.0000
# 5 0.0000 0.0000 0.0000 0.0000 23.2051 0.0000
# 6 0.0000 0.0000 0.0000 0.0000 0.0000 14.1487
#
#
#
# Elastic Compliance Matrix: (Units=1/GPa)
#
#
# Indices 1 2 3 4 5 6 
#
# 1 0.013815 -0.001435 -0.002809 0.000000 0.000000 0.000000
# 2 -0.001435 0.017936 -0.011363 0.000000 0.000000 0.000000
# 3 -0.002809 -0.011363 0.016882 0.000000 0.000000 0.000000
# 4 0.000000 0.000000 0.000000 0.095197 0.000000 0.000000
# 5 0.000000 0.000000 0.000000 0.000000 0.043094 0.000000
# 6 0.000000 0.000000 0.000000 0.000000 0.000000 0.070678
#
#
# Mechanical properties :
#
#
# Convention : Reuss Voigt Hill
#
# Bulk Modulus (GPa) = 57.40749 63.20101 60.30425
# Shear Modulus (GPa) = 16.97088 20.85970 18.91529
#
# Velocity S-wave (km/s) = 3.07354 3.40753 3.24484
# Velocity P-wave (km/s) = 6.67463 7.11771 6.89972
#
# Compressibility (1/GPa) = 0.01741933
#
# Stress axis : x y z
#
# Youngs Moduli (GPa) = 72.38695 55.75312 59.23436
#
# Poissons Ratio (x) = 0.08000 0.16638
# Poissons Ratio (y) = 0.10386 0.67309
# Poissons Ratio (z) = 0.20332 0.63353
#
# Static dielectric constant tensor:
#      x y z
#    x 2.202810 0.000000 0.000000 
#    y 0.000000 1.651370 0.000000 
#    z 0.000000 0.000000 1.643910 
# 
# From -- ./inp_files/21911.got.cif
#   From: 2010.05.17/outbox.cif.g08.bks.cpg/sg69_11_cif.got.tgz:21911.got - 2010.06.03 19:29:58.
