data_PCOD9512872
_publ_section_title
;
Structure prediction by ZEFSAII (Michael W. Deem and Ramdas Pophale) SiO2 
 PCOD9512872
Probable space group: F M M M
;
_chemical_formula_sum "Si O2"
_cell_formula_units_Z 88
_cell_length_a 18.912523
_cell_length_b 12.962037
_cell_length_c 15.153499
_cell_angle_alpha 90.000000
_cell_angle_beta 90.000000
_cell_angle_gamma 90.000000
_cell_volume 3714.801829
_symmetry_space_group_name_H-M "F M M M"
_symmetry_group_IT_number 69
_symmetry_cell_setting 'orthorhombic'
loop_
_space_group_symop_operation_xyz
x,y,z
-x,-y,z
x,-y,-z
-x,y,-z
-x,-y,-z
x,y,-z
-x,y,z
x,-y,z
x,1/2+y,1/2+z
-x,1/2-y,1/2+z
x,1/2-y,1/2-z
-x,1/2+y,1/2-z
-x,1/2-y,1/2-z
x,1/2+y,1/2-z
-x,1/2+y,1/2+z
x,1/2-y,1/2+z
1/2+x,y,1/2+z
1/2-x,-y,1/2+z
1/2+x,-y,1/2-z
1/2-x,y,1/2-z
1/2-x,-y,1/2-z
1/2+x,y,1/2-z
1/2-x,y,1/2+z
1/2+x,-y,1/2+z
1/2+x,1/2+y,z
1/2-x,1/2-y,z
1/2+x,1/2-y,-z
1/2-x,1/2+y,-z
1/2-x,1/2-y,-z
1/2+x,1/2+y,-z
1/2-x,1/2+y,z
1/2+x,1/2-y,z
loop_
_atom_site_type_symbol
_atom_site_label
_atom_site_fract_x
_atom_site_fract_y
_atom_site_fract_z
Si Si1 0.420795 0.781882 0.500000
Si Si2 0.000000 0.382835 0.762024
Si Si3 0.370671 0.000000 0.500000
Si Si4 0.853659 0.820120 0.334077
Si Si5 0.251339 0.000000 0.856272
O O1 0.500000 0.737694 0.500000
O O2 0.420374 0.902923 0.500000
O O3 0.379957 0.750570 0.587185
O O4 0.000000 0.250000 0.750000
O O5 0.076988 0.385176 0.806244
O O6 0.000000 0.500000 0.713479
O O7 0.319333 0.000000 0.586138
O O8 0.832070 0.750000 0.250000
O O9 0.794804 0.895704 0.373173
O O10 0.250000 0.000000 0.750000
#
# Coordination Sequence:
#
# PCOD9512872 Si02
#       5
#    16  16   8  32  16
#     4  12  26  47  71 102 138 188 243 306 378 420
#     4  10  20  41  69 110 147 187 245 311 368 428
#     4  12  29  48  66 103 144 188 244 304 366 457
#     4  11  24  44  72 106 140 184 242 302 370 441
#     4  12  26  46  71 103 142 191 234 294 372 453
#
# _framework density 23.689017
#
# number of rings (size 3 to 8) (size 9 to 14) (size 15 to 20)
#    0.000    0.727    3.636    3.545    0.000    6.545 
#    3.273    1.818    0.000    0.000    0.000    0.000 
#    0.000    0.000    0.000    0.000    0.000    0.000 
#
# Total GULP energy -122591.061059 kJ/mol
# GULP energy per Si atom -5572.320957 kJ/mol
# Density = 2.363510 g / cm^3
# Si number density = 23.689017 Si / 1000 Ang^3
#
#
#
# Elastic Constant Matrix: (Units=GPa)
#
#
# Indices 1 2 3 4 5 6 
#
# 1 84.4444 14.9464 13.8629 0.0000 0.0000 0.0000
# 2 14.9464 165.0808 36.6827 0.0000 0.0000 0.0000
# 3 13.8629 36.6827 117.4989 0.0000 0.0000 0.0000
# 4 0.0000 0.0000 0.0000 24.7721 0.0000 0.0000
# 5 0.0000 0.0000 0.0000 0.0000 -315.0466 0.0000
# 6 0.0000 0.0000 0.0000 0.0000 0.0000 35.8945
#
#
#
# Elastic Compliance Matrix: (Units=1/GPa)
#
#
# Indices 1 2 3 4 5 6 
#
# 1 0.012184 -0.000842 -0.001175 0.000000 0.000000 0.000000
# 2 -0.000842 0.006567 -0.001951 0.000000 0.000000 0.000000
# 3 -0.001175 -0.001951 0.009258 0.000000 0.000000 0.000000
# 4 0.000000 0.000000 0.000000 0.040368 0.000000 0.000000
# 5 0.000000 0.000000 0.000000 0.000000 -0.003174 0.000000
# 6 0.000000 0.000000 0.000000 0.000000 0.000000 0.027859
#
#
# Mechanical properties :
#
#
# Convention : Reuss Voigt Hill
#
# Bulk Modulus (GPa) = 49.81468 55.33424 52.57446
# Shear Modulus (GPa) = 46.42960 -30.77385 7.82788
#
# Velocity S-wave (km/s) = 4.43195 -3.60818 1.81978
# Velocity P-wave (km/s) = 6.87487 2.45981 5.16307
#
# Compressibility (1/GPa) = 0.02007441
#
# Stress axis : x y z
#
# Youngs Moduli (GPa) = 82.07493 152.26705 108.01024
#
# Poissons Ratio (x) = 0.12823 0.12687
# Poissons Ratio (y) = 0.06912 0.21072
# Poissons Ratio (z) = 0.09640 0.29707
#
# Static dielectric constant tensor:
#      x y z
#    x 1.878080 0.000000 0.000000 
#    y 0.000000 2.050930 0.000000 
#    z 0.000000 0.000000 1.902040 
# 
# From -- ./inp_files/17105.got.cif
#   From: 2010.05.17/outbox.cif.g08.bks.cpg/sg69_9_cif.got.tgz:17105.got - 2010.06.03 19:29:58.
