data_PCOD9512334
_publ_section_title
;
Structure prediction by ZEFSAII (Michael W. Deem and Ramdas Pophale) SiO2 
 PCOD9512334
Probable space group: F M M M
;
_chemical_formula_sum "Si O2"
_cell_formula_units_Z 160
_cell_length_a 14.164187
_cell_length_b 18.213592
_cell_length_c 28.490327
_cell_angle_alpha 90.000000
_cell_angle_beta 90.000000
_cell_angle_gamma 90.000000
_cell_volume 7349.955159
_symmetry_space_group_name_H-M "F M M M"
_symmetry_group_IT_number 69
_symmetry_cell_setting 'orthorhombic'
loop_
_space_group_symop_operation_xyz
x,y,z
-x,-y,z
x,-y,-z
-x,y,-z
-x,-y,-z
x,y,-z
-x,y,z
x,-y,z
x,1/2+y,1/2+z
-x,1/2-y,1/2+z
x,1/2-y,1/2-z
-x,1/2+y,1/2-z
-x,1/2-y,1/2-z
x,1/2+y,1/2-z
-x,1/2+y,1/2+z
x,1/2-y,1/2+z
1/2+x,y,1/2+z
1/2-x,-y,1/2+z
1/2+x,-y,1/2-z
1/2-x,y,1/2-z
1/2-x,-y,1/2-z
1/2+x,y,1/2-z
1/2-x,y,1/2+z
1/2+x,-y,1/2+z
1/2+x,1/2+y,z
1/2-x,1/2-y,z
1/2+x,1/2-y,-z
1/2-x,1/2+y,-z
1/2-x,1/2-y,-z
1/2+x,1/2+y,-z
1/2-x,1/2+y,z
1/2+x,1/2-y,z
loop_
_atom_site_type_symbol
_atom_site_label
_atom_site_fract_x
_atom_site_fract_y
_atom_site_fract_z
Si Si1 0.112263 0.190947 0.680636
Si Si2 0.803896 0.412775 0.551741
Si Si3 0.394300 0.914585 0.091716
Si Si4 0.115074 0.080832 0.241325
Si Si5 0.613708 0.150201 0.353621
O O1 0.121697 0.136758 0.636500
O O2 0.149068 0.147235 0.725824
O O3 0.146862 0.270924 0.665709
O O4 0.000000 0.201665 0.689488
O O5 0.836401 0.389145 0.500000
O O6 0.824469 0.500000 0.556674
O O7 0.690877 0.403864 0.555951
O O8 0.847067 0.370494 0.595738
O O9 0.500000 0.900102 0.073249
O O10 0.391364 0.000000 0.106637
O O11 0.141001 0.093134 0.187151
O O12 0.000000 0.082610 0.243184
O O13 0.143658 0.000000 0.258184
O O14 0.500000 0.151104 0.357008
#
# Coordination Sequence:
#
# PCOD9512334 Si02
#       5
#    32  32  32  32  32
#     4   9  17  31  53  82 114 147 184 227 279 339
#     4  10  22  39  58  81 109 145 193 243 285 329
#     4   9  18  35  59  83 107 138 181 237 297 349
#     4   9  16  28  51  82 115 153 193 231 276 331
#     4  10  20  34  53  81 120 160 193 227 271 327
#
# _framework density 21.768840000000001
#
# number of rings (size 3 to 8) (size 9 to 14) (size 15 to 20)
#    0.000    2.600    0.000    1.800    0.000    7.600 
#    0.000    6.000    0.000    9.600    0.000    0.000 
#    0.000    0.000    0.000    0.000    0.000    0.000 
#
# Total GULP energy -223449.962023 kJ/mol
# GULP energy per Si atom -5586.249051 kJ/mol
# Density = 2.171929 g / cm^3
# Si number density = 21.768840 Si / 1000 Ang^3
#
#
#
# Elastic Constant Matrix: (Units=GPa)
#
#
# Indices 1 2 3 4 5 6 
#
# 1 61.6778 19.6135 26.9110 0.0000 0.0000 0.0000
# 2 19.6135 106.7499 81.7648 0.0000 0.0000 0.0000
# 3 26.9110 81.7648 147.4568 0.0000 0.0000 0.0000
# 4 0.0000 0.0000 0.0000 194.9240 0.0000 0.0000
# 5 0.0000 0.0000 0.0000 0.0000 16.6440 0.0000
# 6 0.0000 0.0000 0.0000 0.0000 0.0000 11.1460
#
#
#
# Elastic Compliance Matrix: (Units=1/GPa)
#
#
# Indices 1 2 3 4 5 6 
#
# 1 0.017728 -0.001354 -0.002484 0.000000 0.000000 0.000000
# 2 -0.001354 0.016387 -0.008839 0.000000 0.000000 0.000000
# 3 -0.002484 -0.008839 0.012137 0.000000 0.000000 0.000000
# 4 0.000000 0.000000 0.000000 0.005130 0.000000 0.000000
# 5 0.000000 0.000000 0.000000 0.000000 0.060082 0.000000
# 6 0.000000 0.000000 0.000000 0.000000 0.000000 0.089718
#
#
# Mechanical properties :
#
#
# Convention : Reuss Voigt Hill
#
# Bulk Modulus (GPa) = 47.85781 63.60700 55.73241
# Shear Modulus (GPa) = 21.41297 57.04914 39.23106
#
# Velocity S-wave (km/s) = 3.13973 5.12481 4.24980
# Velocity P-wave (km/s) = 5.93095 8.01879 7.05256
#
# Compressibility (1/GPa) = 0.02089523
#
# Stress axis : x y z
#
# Youngs Moduli (GPa) = 56.40810 61.02359 82.39575
#
# Poissons Ratio (x) = 0.08264 0.20471
# Poissons Ratio (y) = 0.07639 0.72834
# Poissons Ratio (z) = 0.14014 0.53942
#
# Static dielectric constant tensor:
#      x y z
#    x 1.863100 0.000000 0.000000 
#    y 0.000000 1.779240 0.000000 
#    z 0.000000 0.000000 1.740270 
# 
# From -- ./inp_files/41749.got.cif
#   From: 2010.05.17/outbox.cif.g08.bks.cpg/sg69_21_cif.got.tgz:41749.got - 2010.06.03 19:29:58.
