data_PCOD9512733
_publ_section_title
;
Structure prediction by ZEFSAII (Michael W. Deem and Ramdas Pophale) SiO2 
 PCOD9512733
Probable space group: F M M M
;
_chemical_formula_sum "Si O2"
_cell_formula_units_Z 176
_cell_length_a 23.937205
_cell_length_b 24.549552
_cell_length_c 15.450917
_cell_angle_alpha 90.000000
_cell_angle_beta 90.000000
_cell_angle_gamma 90.000000
_cell_volume 9079.695203
_symmetry_space_group_name_H-M "F M M M"
_symmetry_group_IT_number 69
_symmetry_cell_setting 'orthorhombic'
loop_
_space_group_symop_operation_xyz
x,y,z
-x,-y,z
x,-y,-z
-x,y,-z
-x,-y,-z
x,y,-z
-x,y,z
x,-y,z
x,1/2+y,1/2+z
-x,1/2-y,1/2+z
x,1/2-y,1/2-z
-x,1/2+y,1/2-z
-x,1/2-y,1/2-z
x,1/2+y,1/2-z
-x,1/2+y,1/2+z
x,1/2-y,1/2+z
1/2+x,y,1/2+z
1/2-x,-y,1/2+z
1/2+x,-y,1/2-z
1/2-x,y,1/2-z
1/2-x,-y,1/2-z
1/2+x,y,1/2-z
1/2-x,y,1/2+z
1/2+x,-y,1/2+z
1/2+x,1/2+y,z
1/2-x,1/2-y,z
1/2+x,1/2-y,-z
1/2-x,1/2+y,-z
1/2-x,1/2-y,-z
1/2+x,1/2+y,-z
1/2-x,1/2+y,z
1/2+x,1/2-y,z
loop_
_atom_site_type_symbol
_atom_site_label
_atom_site_fract_x
_atom_site_fract_y
_atom_site_fract_z
Si Si1 0.672577 0.236566 0.903180
Si Si2 0.932424 0.500000 0.900559
Si Si3 0.934350 0.917285 0.251080
Si Si4 0.653356 0.561856 0.901375
Si Si5 0.561472 0.797238 0.821156
Si Si6 0.229472 0.839317 0.155057
O O1 0.611491 0.214361 0.885641
O O2 0.717229 0.188126 0.891417
O O3 0.687451 0.287385 0.841187
O O4 0.677662 0.258808 0.000000
O O5 0.917285 0.449054 0.839017
O O6 0.000000 0.500000 0.906904
O O7 0.911271 0.500000 0.000000
O O8 0.895004 0.931619 0.170540
O O9 0.929672 0.853818 0.271924
O O10 0.000000 0.930108 0.233864
O O11 0.676055 0.500000 0.892749
O O12 0.699073 0.609104 0.886533
O O13 0.631851 0.567441 0.000000
O O14 0.500000 0.799160 0.862870
O O15 0.561495 0.750000 0.750000
O O16 0.250000 0.854788 0.250000
#
# Coordination Sequence:
#
# PCOD9512733 Si02
#       6
#    32  16  32  32  32  32
#     4  11  21  36  61  88 117 152 198 249 297 360
#     4   9  18  34  57  83 112 155 213 264 299 347
#     4  10  20  37  59  85 122 167 212 252 301 370
#     4  11  23  38  59  89 124 157 197 256 318 370
#     4  10  21  37  58  87 123 158 193 241 301 363
#     4  11  22  39  61  84 113 156 206 249 295 361
#
# _framework density 19.383911000000001
#
# number of rings (size 3 to 8) (size 9 to 14) (size 15 to 20)
#    0.000    1.545    0.909    6.545    0.000    1.818 
#    0.000    2.727    0.000    5.455    0.000    0.000 
#    0.000    0.000    0.000    0.000    0.000    0.000 
#
# Total GULP energy -245576.143645 kJ/mol
# GULP energy per Si atom -5581.275992 kJ/mol
# Density = 1.933979 g / cm^3
# Si number density = 19.383911 Si / 1000 Ang^3
#
#
#
# Elastic Constant Matrix: (Units=GPa)
#
#
# Indices 1 2 3 4 5 6 
#
# 1 102.4518 46.1164 39.9352 0.0000 0.0000 0.0000
# 2 46.1164 148.9976 48.0021 0.0000 0.0000 0.0000
# 3 39.9352 48.0021 121.7905 0.0000 0.0000 0.0000
# 4 0.0000 0.0000 0.0000 19.6246 0.0000 0.0000
# 5 0.0000 0.0000 0.0000 0.0000 6.7334 0.0000
# 6 0.0000 0.0000 0.0000 0.0000 0.0000 46.0702
#
#
#
# Elastic Compliance Matrix: (Units=1/GPa)
#
#
# Indices 1 2 3 4 5 6 
#
# 1 0.012156 -0.002839 -0.002867 0.000000 0.000000 0.000000
# 2 -0.002839 0.008351 -0.002360 0.000000 0.000000 0.000000
# 3 -0.002867 -0.002360 0.010081 0.000000 0.000000 0.000000
# 4 0.000000 0.000000 0.000000 0.050956 0.000000 0.000000
# 5 0.000000 0.000000 0.000000 0.000000 0.148513 0.000000
# 6 0.000000 0.000000 0.000000 0.000000 0.000000 0.021706
#
#
# Mechanical properties :
#
#
# Convention : Reuss Voigt Hill
#
# Bulk Modulus (GPa) = 69.17870 71.26082 70.21976
# Shear Modulus (GPa) = 18.33421 30.43141 24.38281
#
# Velocity S-wave (km/s) = 3.07880 3.96653 3.55052
# Velocity P-wave (km/s) = 6.95736 7.60398 7.28785
#
# Compressibility (1/GPa) = 0.01445532
#
# Stress axis : x y z
#
# Youngs Moduli (GPa) = 82.26336 119.75184 99.19362
#
# Poissons Ratio (x) = 0.33995 0.28440
# Poissons Ratio (y) = 0.23352 0.23414
# Poissons Ratio (z) = 0.23586 0.28267
#
# Static dielectric constant tensor:
#      x y z
#    x 1.691700 0.000000 0.000000 
#    y 0.000000 1.666640 0.000000 
#    z 0.000000 0.000000 1.666940 
# 
# From -- ./inp_files/17895.got.cif
#   From: 2010.05.17/outbox.cif.g08.bks.cpg/sg69_9_cif.got.tgz:17895.got - 2010.06.03 19:29:58.
