data_PCOD9512132
_publ_section_title
;
Structure prediction by ZEFSAII (Michael W. Deem and Ramdas Pophale) SiO2 
 PCOD9512132
Probable space group: F M M M
;
_chemical_formula_sum "Si O2"
_cell_formula_units_Z 152
_cell_length_a 30.913689
_cell_length_b 13.149225
_cell_length_c 23.529768
_cell_angle_alpha 90.000000
_cell_angle_beta 90.000000
_cell_angle_gamma 90.000000
_cell_volume 9564.640153
_symmetry_space_group_name_H-M "F M M M"
_symmetry_group_IT_number 69
_symmetry_cell_setting 'orthorhombic'
loop_
_space_group_symop_operation_xyz
x,y,z
-x,-y,z
x,-y,-z
-x,y,-z
-x,-y,-z
x,y,-z
-x,y,z
x,-y,z
x,1/2+y,1/2+z
-x,1/2-y,1/2+z
x,1/2-y,1/2-z
-x,1/2+y,1/2-z
-x,1/2-y,1/2-z
x,1/2+y,1/2-z
-x,1/2+y,1/2+z
x,1/2-y,1/2+z
1/2+x,y,1/2+z
1/2-x,-y,1/2+z
1/2+x,-y,1/2-z
1/2-x,y,1/2-z
1/2-x,-y,1/2-z
1/2+x,y,1/2-z
1/2-x,y,1/2+z
1/2+x,-y,1/2+z
1/2+x,1/2+y,z
1/2-x,1/2-y,z
1/2+x,1/2-y,-z
1/2-x,1/2+y,-z
1/2-x,1/2-y,-z
1/2+x,1/2+y,-z
1/2-x,1/2+y,z
1/2+x,1/2-y,z
loop_
_atom_site_type_symbol
_atom_site_label
_atom_site_fract_x
_atom_site_fract_y
_atom_site_fract_z
Si Si1 0.320558 0.877377 0.681740
Si Si2 0.890654 0.250000 0.750000
Si Si3 0.548228 0.239406 0.433346
Si Si4 0.550292 0.616834 0.668578
Si Si5 0.250000 0.250000 0.750000
Si Si6 0.863455 0.621842 0.435166
O O1 0.360762 0.830314 0.716564
O O2 0.279496 0.821288 0.709627
O O3 0.330272 0.851463 0.615423
O O4 0.317841 0.000000 0.687190
O O5 0.920435 0.312125 0.792964
O O6 0.549309 0.263197 0.500000
O O7 0.500000 0.195299 0.420884
O O8 0.552741 0.338873 0.394933
O O9 0.589051 0.167062 0.421795
O O10 0.500000 0.623287 0.686434
O O11 0.563938 0.500000 0.671436
O O12 0.851666 0.653656 0.500000
O O13 0.866841 0.500000 0.435158
#
# Coordination Sequence:
#
# PCOD9512132 Si02
#       6
#    32  16  32  32   8  32
#     4  10  20  35  55  78 100 126 162 202 250 307
#     4  11  19  33  51  72  98 134 169 207 251 293
#     4   9  17  30  48  71 101 136 173 211 248 287
#     4  10  20  32  46  68 100 137 176 214 250 291
#     4  10  22  36  56  78 106 128 156 194 252 312
#     4   9  17  31  52  76 102 133 168 206 247 290
#
# _framework density 15.891868000000001
#
# number of rings (size 3 to 8) (size 9 to 14) (size 15 to 20)
#    0.000    2.316    2.105    1.263    0.000    0.842 
#    0.000    4.737    0.000    0.000    0.000    0.000 
#    0.000    0.000    0.000    0.000    0.000    0.000 
#
# Total GULP energy -211599.090496 kJ/mol
# GULP energy per Si atom -5568.397118 kJ/mol
# Density = 1.585570 g / cm^3
# Si number density = 15.891868 Si / 1000 Ang^3
#
#
#
# Elastic Constant Matrix: (Units=GPa)
#
#
# Indices 1 2 3 4 5 6 
#
# 1 88.0449 50.8042 60.8941 0.0000 0.0000 0.0000
# 2 50.8042 70.1868 47.9687 0.0000 0.0000 0.0000
# 3 60.8941 47.9687 95.4181 0.0000 0.0000 0.0000
# 4 0.0000 0.0000 0.0000 23.2176 0.0000 0.0000
# 5 0.0000 0.0000 0.0000 0.0000 24.4618 0.0000
# 6 0.0000 0.0000 0.0000 0.0000 0.0000 13.6019
#
#
#
# Elastic Compliance Matrix: (Units=1/GPa)
#
#
# Indices 1 2 3 4 5 6 
#
# 1 0.024793 -0.010866 -0.010360 0.000000 0.000000 0.000000
# 2 -0.010866 0.026467 -0.006371 0.000000 0.000000 0.000000
# 3 -0.010360 -0.006371 0.020295 0.000000 0.000000 0.000000
# 4 0.000000 0.000000 0.000000 0.043071 0.000000 0.000000
# 5 0.000000 0.000000 0.000000 0.000000 0.040880 0.000000
# 6 0.000000 0.000000 0.000000 0.000000 0.000000 0.073519
#
#
# Mechanical properties :
#
#
# Convention : Reuss Voigt Hill
#
# Bulk Modulus (GPa) = 61.12153 63.66486 62.39320
# Shear Modulus (GPa) = 17.26091 18.52179 17.89135
#
# Velocity S-wave (km/s) = 3.29925 3.41763 3.35896
# Velocity P-wave (km/s) = 7.28408 7.46471 7.37494
#
# Compressibility (1/GPa) = 0.01636085
#
# Stress axis : x y z
#
# Youngs Moduli (GPa) = 40.33433 37.78262 49.27394
#
# Poissons Ratio (x) = 0.41053 0.51047
# Poissons Ratio (y) = 0.43826 0.31394
# Poissons Ratio (z) = 0.41786 0.24073
#
# Static dielectric constant tensor:
#      x y z
#    x 1.528700 0.000000 0.000000 
#    y 0.000000 1.497800 0.000000 
#    z 0.000000 0.000000 1.546150 
# 
# From -- ./inp_files/38854.got.cif
#   From: 2010.05.17/outbox.cif.g08.bks.cpg/sg69_20_cif.got.tgz:38854.got - 2010.06.03 19:29:58.
