data_PCOD9512128
_publ_section_title
;
Structure prediction by ZEFSAII (Michael W. Deem and Ramdas Pophale) SiO2 
 PCOD9512128
Probable space group: F M M M
;
_chemical_formula_sum "Si O2"
_cell_formula_units_Z 144
_cell_length_a 37.001904
_cell_length_b 9.008269
_cell_length_c 29.088452
_cell_angle_alpha 90.000000
_cell_angle_beta 90.000000
_cell_angle_gamma 90.000000
_cell_volume 9695.853133
_symmetry_space_group_name_H-M "F M M M"
_symmetry_group_IT_number 69
_symmetry_cell_setting 'orthorhombic'
loop_
_space_group_symop_operation_xyz
x,y,z
-x,-y,z
x,-y,-z
-x,y,-z
-x,-y,-z
x,y,-z
-x,y,z
x,-y,z
x,1/2+y,1/2+z
-x,1/2-y,1/2+z
x,1/2-y,1/2-z
-x,1/2+y,1/2-z
-x,1/2-y,1/2-z
x,1/2+y,1/2-z
-x,1/2+y,1/2+z
x,1/2-y,1/2+z
1/2+x,y,1/2+z
1/2-x,-y,1/2+z
1/2+x,-y,1/2-z
1/2-x,y,1/2-z
1/2-x,-y,1/2-z
1/2+x,y,1/2-z
1/2-x,y,1/2+z
1/2+x,-y,1/2+z
1/2+x,1/2+y,z
1/2-x,1/2-y,z
1/2+x,1/2-y,-z
1/2-x,1/2+y,-z
1/2-x,1/2-y,-z
1/2+x,1/2+y,-z
1/2-x,1/2+y,z
1/2+x,1/2-y,z
loop_
_atom_site_type_symbol
_atom_site_label
_atom_site_fract_x
_atom_site_fract_y
_atom_site_fract_z
Si Si1 0.500000 0.675925 0.054999
Si Si2 0.569352 0.821330 0.896904
Si Si3 0.137889 0.323351 0.554874
Si Si4 0.457787 0.822123 0.202420
Si Si5 0.286829 0.671075 0.555901
O O1 0.500000 0.500000 0.065421
O O2 0.464610 0.752240 0.076143
O O3 0.500000 0.693023 0.000000
O O4 0.605882 0.756774 0.918118
O O5 0.564151 0.781588 0.843197
O O6 0.568449 0.000000 0.900915
O O7 0.133285 0.296444 0.500000
O O8 0.136671 0.500000 0.562042
O O9 0.176917 0.258650 0.568707
O O10 0.500000 0.778939 0.195251
O O11 0.445340 0.750000 0.250000
O O12 0.456843 0.000000 0.206989
O O13 0.285851 0.671239 0.500000
O O14 0.288336 0.500000 0.570796
O O15 0.250000 0.750000 0.571585
#
# Coordination Sequence:
#
# PCOD9512128 Si02
#       5
#    16  32  32  32  32
#     4  11  23  35  46  63  88 121 160 195 226 267
#     4  11  21  34  49  67  91 119 154 193 233 277
#     4  10  20  32  45  65  94 126 160 195 229 270
#     4   9  18  33  50  69  89 111 145 189 236 284
#     4   9  16  27  44  65  89 120 156 192 231 272
#
# _framework density 14.851711
#
# number of rings (size 3 to 8) (size 9 to 14) (size 15 to 20)
#    0.000    2.111    1.111    3.000    0.000    9.333 
#    0.000    0.000    0.000    0.000    0.000    0.000 
#    0.000    0.889    0.000    9.333    0.000    5.556 
#
# Total GULP energy -200833.323227 kJ/mol
# GULP energy per Si atom -5578.703423 kJ/mol
# Density = 1.481791 g / cm^3
# Si number density = 14.851711 Si / 1000 Ang^3
#
#
#
# Elastic Constant Matrix: (Units=GPa)
#
#
# Indices 1 2 3 4 5 6 
#
# 1 141.6011 67.6669 63.8461 0.0000 0.0000 0.0002
# 2 67.6669 88.7882 59.5854 0.0000 -0.0001 0.0002
# 3 63.8461 59.5854 82.4490 0.0000 0.0000 0.0000
# 4 0.0000 0.0000 0.0000 22.6538 0.0000 0.0000
# 5 0.0000 -0.0001 0.0000 0.0000 0.9397 0.0001
# 6 0.0002 0.0002 0.0000 0.0000 0.0001 30.3607
#
#
#
# Elastic Compliance Matrix: (Units=1/GPa)
#
#
# Indices 1 2 3 4 5 6 
#
# 1 0.012191 -0.005739 -0.005293 0.000000 0.000000 0.000000
# 2 -0.005739 0.024571 -0.013313 0.000000 0.000001 0.000000
# 3 -0.005293 -0.013313 0.025849 0.000000 -0.000001 0.000000
# 4 0.000000 0.000000 0.000000 0.044143 0.000001 0.000000
# 5 0.000000 0.000001 -0.000001 0.000001 1.064166 -0.000003
# 6 0.000000 0.000000 0.000000 0.000000 -0.000003 0.032937
#
#
# Mechanical properties :
#
#
# Convention : Reuss Voigt Hill
#
# Bulk Modulus (GPa) = 71.83572 77.22614 74.53093
# Shear Modulus (GPa) = 3.97713 18.90683 11.44198
#
# Velocity S-wave (km/s) = 1.63820 3.57184 2.77865
# Velocity P-wave (km/s) = 7.21470 8.31395 7.78376
#
# Compressibility (1/GPa) = 0.01392065
#
# Stress axis : x y z
#
# Youngs Moduli (GPa) = 82.02730 40.69846 38.68662
#
# Poissons Ratio (x) = 0.23357 0.20476
# Poissons Ratio (y) = 0.47075 0.51504
# Poissons Ratio (z) = 0.43416 0.54183
#
# Static dielectric constant tensor:
#      x y z
#    x 1.473460 0.000000 0.000000 
#    y 0.000000 1.496430 0.000000 
#    z 0.000000 0.000000 1.471790 
# 
# From -- ./inp_files/44534.got.cif
#   From: 2010.05.17/outbox.cif.g08.bks.cpg/sg69_23_cif.got.tgz:44534.got - 2010.06.03 19:29:58.
