data_PCOD9512791
_publ_section_title
;
Structure prediction by ZEFSAII (Michael W. Deem and Ramdas Pophale) SiO2 
 PCOD9512791
Probable space group: F M M M
;
_chemical_formula_sum "Si O2"
_cell_formula_units_Z 144
_cell_length_a 21.296155
_cell_length_b 28.267932
_cell_length_c 14.114966
_cell_angle_alpha 90.000000
_cell_angle_beta 90.000000
_cell_angle_gamma 90.000000
_cell_volume 8497.184992
_symmetry_space_group_name_H-M "F M M M"
_symmetry_group_IT_number 69
_symmetry_cell_setting 'orthorhombic'
loop_
_space_group_symop_operation_xyz
x,y,z
-x,-y,z
x,-y,-z
-x,y,-z
-x,-y,-z
x,y,-z
-x,y,z
x,-y,z
x,1/2+y,1/2+z
-x,1/2-y,1/2+z
x,1/2-y,1/2-z
-x,1/2+y,1/2-z
-x,1/2-y,1/2-z
x,1/2+y,1/2-z
-x,1/2+y,1/2+z
x,1/2-y,1/2+z
1/2+x,y,1/2+z
1/2-x,-y,1/2+z
1/2+x,-y,1/2-z
1/2-x,y,1/2-z
1/2-x,-y,1/2-z
1/2+x,y,1/2-z
1/2-x,y,1/2+z
1/2+x,-y,1/2+z
1/2+x,1/2+y,z
1/2-x,1/2-y,z
1/2+x,1/2-y,-z
1/2-x,1/2+y,-z
1/2-x,1/2-y,-z
1/2+x,1/2+y,-z
1/2-x,1/2+y,z
1/2+x,1/2-y,z
loop_
_atom_site_type_symbol
_atom_site_label
_atom_site_fract_x
_atom_site_fract_y
_atom_site_fract_z
Si Si1 0.310490 0.851313 0.313555
Si Si2 0.000000 0.942723 0.106943
Si Si3 0.571378 0.695665 0.286777
Si Si4 0.138545 0.554751 0.615242
Si Si5 0.193700 0.288010 0.500000
Si Si6 0.428903 0.724386 0.500000
O O1 0.250000 0.842828 0.250000
O O2 0.373504 0.834249 0.260309
O O3 0.316237 0.906219 0.342049
O O4 0.303265 0.820440 0.407796
O O5 0.932250 0.931623 0.148823
O O6 0.000000 0.000000 0.099551
O O7 0.000000 0.922941 0.000000
O O8 0.500000 0.680505 0.261864
O O9 0.577859 0.750000 0.250000
O O10 0.577013 0.696204 0.401190
O O11 0.138668 0.557328 0.500000
O O12 0.151199 0.500000 0.640089
O O13 0.250000 0.250000 0.500000
O O14 0.126393 0.262280 0.500000
O O15 0.500000 0.745037 0.500000
#
# Coordination Sequence:
#
# PCOD9512791 Si02
#       6
#    32  16  32  32  16  16
#     4  12  25  36  55  85 111 150 193 229 286 342
#     4   7  12  26  52  80 105 133 163 217 285 332
#     4  10  21  37  57  83 113 148 189 231 274 331
#     4   9  18  36  57  82 114 144 183 232 285 340
#     4  12  24  38  55  77 113 155 186 237 278 332
#     4  10  20  38  58  79 111 151 188 232 279 314
#
# _framework density 16.946788999999999
#
# number of rings (size 3 to 8) (size 9 to 14) (size 15 to 20)
#    0.000    1.889    3.333    2.667    1.556    0.444 
#    0.000    0.000    0.000    0.000    0.000    0.000 
#    0.000    2.667    0.000    0.000    0.000    0.000 
#
# Total GULP energy -200708.058462 kJ/mol
# GULP energy per Si atom -5575.223846 kJ/mol
# Density = 1.690822 g / cm^3
# Si number density = 16.946789 Si / 1000 Ang^3
#
#
#
# Elastic Constant Matrix: (Units=GPa)
#
#
# Indices 1 2 3 4 5 6 
#
# 1 120.9659 65.0160 61.5510 0.0000 0.0000 0.0000
# 2 65.0160 83.7881 45.1388 0.0000 0.0000 0.0000
# 3 61.5510 45.1388 103.7897 0.0000 0.0000 0.0000
# 4 0.0000 0.0000 0.0000 17.0016 0.0000 0.0000
# 5 0.0000 0.0000 0.0000 0.0000 23.7885 0.0000
# 6 0.0000 0.0000 0.0000 0.0000 0.0000 30.7671
#
#
#
# Elastic Compliance Matrix: (Units=1/GPa)
#
#
# Indices 1 2 3 4 5 6 
#
# 1 0.016217 -0.009668 -0.005413 0.000000 0.000000 0.000000
# 2 -0.009668 0.021350 -0.003552 0.000000 0.000000 0.000000
# 3 -0.005413 -0.003552 0.014390 0.000000 0.000000 0.000000
# 4 0.000000 0.000000 0.000000 0.058818 0.000000 0.000000
# 5 0.000000 0.000000 0.000000 0.000000 0.042037 0.000000
# 6 0.000000 0.000000 0.000000 0.000000 0.000000 0.032502
#
#
# Mechanical properties :
#
#
# Convention : Reuss Voigt Hill
#
# Bulk Modulus (GPa) = 68.06491 72.43949 70.25220
# Shear Modulus (GPa) = 21.98027 23.43397 22.70712
#
# Velocity S-wave (km/s) = 3.60532 3.72263 3.66444
# Velocity P-wave (km/s) = 7.58829 7.83041 7.71030
#
# Compressibility (1/GPa) = 0.01469186
#
# Stress axis : x y z
#
# Youngs Moduli (GPa) = 61.66308 46.83789 69.49461
#
# Poissons Ratio (x) = 0.45282 0.37616
# Poissons Ratio (y) = 0.59615 0.24684
# Poissons Ratio (z) = 0.33377 0.16637
#
# Static dielectric constant tensor:
#      x y z
#    x 1.591480 0.000000 0.000000 
#    y 0.000000 1.555480 0.000000 
#    z 0.000000 0.000000 1.577040 
# 
# From -- ./inp_files/15603.got.cif
#   From: 2010.05.17/outbox.cif.g08.bks.cpg/sg69_8_cif.got.tgz:15603.got - 2010.06.03 19:29:58.
