data_PCOD9512229
_publ_section_title
;
Structure prediction by ZEFSAII (Michael W. Deem and Ramdas Pophale) SiO2 
 PCOD9512229
Probable space group: F M M M
;
_chemical_formula_sum "Si O2"
_cell_formula_units_Z 160
_cell_length_a 20.085299
_cell_length_b 16.284418
_cell_length_c 21.851234
_cell_angle_alpha 90.000000
_cell_angle_beta 90.000000
_cell_angle_gamma 90.000000
_cell_volume 7147.044903
_symmetry_space_group_name_H-M "F M M M"
_symmetry_group_IT_number 69
_symmetry_cell_setting 'orthorhombic'
loop_
_space_group_symop_operation_xyz
x,y,z
-x,-y,z
x,-y,-z
-x,y,-z
-x,-y,-z
x,y,-z
-x,y,z
x,-y,z
x,1/2+y,1/2+z
-x,1/2-y,1/2+z
x,1/2-y,1/2-z
-x,1/2+y,1/2-z
-x,1/2-y,1/2-z
x,1/2+y,1/2-z
-x,1/2+y,1/2+z
x,1/2-y,1/2+z
1/2+x,y,1/2+z
1/2-x,-y,1/2+z
1/2+x,-y,1/2-z
1/2-x,y,1/2-z
1/2-x,-y,1/2-z
1/2+x,y,1/2-z
1/2-x,y,1/2+z
1/2+x,-y,1/2+z
1/2+x,1/2+y,z
1/2-x,1/2-y,z
1/2+x,1/2-y,-z
1/2-x,1/2+y,-z
1/2-x,1/2-y,-z
1/2+x,1/2+y,-z
1/2-x,1/2+y,z
1/2+x,1/2-y,z
loop_
_atom_site_type_symbol
_atom_site_label
_atom_site_fract_x
_atom_site_fract_y
_atom_site_fract_z
Si Si1 0.927055 0.765431 0.429874
Si Si2 0.419124 0.590360 0.111205
Si Si3 0.302802 0.500000 0.426443
Si Si4 0.209253 0.326453 0.074662
Si Si5 0.420250 0.500000 0.333053
Si Si6 0.419435 0.845786 0.744393
O O1 0.933637 0.791323 0.500000
O O2 0.905416 0.670066 0.429513
O O3 0.866462 0.815626 0.403301
O O4 0.000000 0.773713 0.399677
O O5 0.500000 0.585242 0.111393
O O6 0.394729 0.500000 0.092990
O O7 0.397785 0.617061 0.178997
O O8 0.312486 0.500000 0.500000
O O9 0.265787 0.416361 0.409092
O O10 0.374029 0.500000 0.392878
O O11 0.250000 0.250000 0.098550
O O12 0.208794 0.321216 0.000000
O O13 0.500000 0.500000 0.346251
O O14 0.404576 0.417699 0.293392
O O15 0.500000 0.841372 0.743178
O O16 0.396425 0.750000 0.750000
#
# Coordination Sequence:
#
# PCOD9512229 Si02
#       6
#    32  32  16  32  16  32
#     4   9  18  31  50  80 114 143 175 224 286 342
#     4   9  16  28  45  68 105 142 177 225 275 322
#     4  10  22  37  56  83 112 142 184 234 280 340
#     4   9  19  38  58  77 108 151 193 229 269 330
#     4  10  20  33  52  83 120 152 186 230 282 342
#     4   9  17  29  46  69 102 146 190 227 264 314
#
# _framework density 22.386873999999999
#
# number of rings (size 3 to 8) (size 9 to 14) (size 15 to 20)
#    0.000    2.800    1.000    0.000    2.800    1.400 
#    1.800    4.000    0.000    0.000    0.000    4.200 
#    0.000    0.000    0.000    0.000    0.000    0.000 
#
# Total GULP energy -222982.078082 kJ/mol
# GULP energy per Si atom -5574.551952 kJ/mol
# Density = 2.233592 g / cm^3
# Si number density = 22.386874 Si / 1000 Ang^3
#
#
#
# Elastic Constant Matrix: (Units=GPa)
#
#
# Indices 1 2 3 4 5 6 
#
# 1 34.9530 42.8043 1.9520 0.0000 0.0000 0.0000
# 2 42.8043 193.8663 9.7615 0.0000 0.0000 0.0000
# 3 1.9520 9.7615 44.6342 0.0000 0.0000 0.0000
# 4 0.0000 0.0000 0.0000 25.9876 0.0000 0.0000
# 5 0.0000 0.0000 0.0000 0.0000 5.5739 0.0000
# 6 0.0000 0.0000 0.0000 0.0000 0.0000 23.2742
#
#
#
# Elastic Compliance Matrix: (Units=1/GPa)
#
#
# Indices 1 2 3 4 5 6 
#
# 1 0.039214 -0.008667 0.000181 0.000000 0.000000 0.000000
# 2 -0.008667 0.007131 -0.001181 0.000000 0.000000 0.000000
# 3 0.000181 -0.001181 0.022655 0.000000 0.000000 0.000000
# 4 0.000000 0.000000 0.000000 0.038480 0.000000 0.000000
# 5 0.000000 0.000000 0.000000 0.000000 0.179406 0.000000
# 6 0.000000 0.000000 0.000000 0.000000 0.000000 0.042966
#
#
# Mechanical properties :
#
#
# Convention : Reuss Voigt Hill
#
# Bulk Modulus (GPa) = 20.13475 42.49879 31.31677
# Shear Modulus (GPa) = 13.67085 25.56286 19.61685
#
# Velocity S-wave (km/s) = 2.47384 3.38282 2.96339
# Velocity P-wave (km/s) = 4.14408 5.85517 5.07229
#
# Compressibility (1/GPa) = 0.04966537
#
# Stress axis : x y z
#
# Youngs Moduli (GPa) = 25.50118 140.22689 44.14107
#
# Poissons Ratio (x) = 1.21538 -0.00797
# Poissons Ratio (y) = 0.22102 0.05211
# Poissons Ratio (z) = -0.00461 0.16555
#
# Static dielectric constant tensor:
#      x y z
#    x 1.848730 0.000000 0.000000 
#    y 0.000000 1.894790 0.000000 
#    z 0.000000 0.000000 1.813160 
# 
# From -- ./inp_files/43110.got.cif
#   From: 2010.05.17/outbox.cif.g08.bks.cpg/sg69_22_cif.got.tgz:43110.got - 2010.06.03 19:29:58.
