data_PCOD9512397
_publ_section_title
;
Structure prediction by ZEFSAII (Michael W. Deem and Ramdas Pophale) SiO2 
 PCOD9512397
Probable space group: F M M M
;
_chemical_formula_sum "Si O2"
_cell_formula_units_Z 176
_cell_length_a 30.701652
_cell_length_b 19.390990
_cell_length_c 14.580839
_cell_angle_alpha 90.000000
_cell_angle_beta 90.000000
_cell_angle_gamma 90.000000
_cell_volume 8680.490011
_symmetry_space_group_name_H-M "F M M M"
_symmetry_group_IT_number 69
_symmetry_cell_setting 'orthorhombic'
loop_
_space_group_symop_operation_xyz
x,y,z
-x,-y,z
x,-y,-z
-x,y,-z
-x,-y,-z
x,y,-z
-x,y,z
x,-y,z
x,1/2+y,1/2+z
-x,1/2-y,1/2+z
x,1/2-y,1/2-z
-x,1/2+y,1/2-z
-x,1/2-y,1/2-z
x,1/2+y,1/2-z
-x,1/2+y,1/2+z
x,1/2-y,1/2+z
1/2+x,y,1/2+z
1/2-x,-y,1/2+z
1/2+x,-y,1/2-z
1/2-x,y,1/2-z
1/2-x,-y,1/2-z
1/2+x,y,1/2-z
1/2-x,y,1/2+z
1/2+x,-y,1/2+z
1/2+x,1/2+y,z
1/2-x,1/2-y,z
1/2+x,1/2-y,-z
1/2-x,1/2+y,-z
1/2-x,1/2-y,-z
1/2+x,1/2+y,-z
1/2-x,1/2+y,z
1/2+x,1/2-y,z
loop_
_atom_site_type_symbol
_atom_site_label
_atom_site_fract_x
_atom_site_fract_y
_atom_site_fract_z
Si Si1 0.298183 0.421012 0.636614
Si Si2 0.053192 0.415730 0.000000
Si Si3 0.048270 0.926875 0.108831
Si Si4 0.118451 0.165332 0.368944
Si Si5 0.300097 0.420678 0.140475
Si Si6 0.878541 0.323088 0.647205
O O1 0.305998 0.500000 0.608608
O O2 0.336825 0.372589 0.603901
O O3 0.299141 0.420404 0.748103
O O4 0.248841 0.402183 0.609901
O O5 0.078399 0.377874 0.914044
O O6 0.060027 0.500000 0.000000
O O7 0.000000 0.404883 0.000000
O O8 0.078070 0.862728 0.122722
O O9 0.000000 0.919173 0.148632
O O10 0.067249 0.000000 0.143905
O O11 0.044169 0.932923 0.000000
O O12 0.119709 0.246239 0.391876
O O13 0.120205 0.170461 0.258139
O O14 0.309455 0.500000 0.112606
O O15 0.336949 0.366681 0.113111
#
# Coordination Sequence:
#
# PCOD9512397 Si02
#       6
#    32  16  32  32  32  32
#     4   8  14  28  51  78 110 148 190 231 271 326
#     4  11  26  46  64  81 107 151 205 252 291 338
#     4   9  19  35  55  79 106 141 179 215 272 346
#     4  10  22  37  56  84 113 149 191 235 291 342
#     4   8  14  26  50  83 113 146 186 226 273 329
#     4  10  20  34  56  87 119 146 182 234 289 343
#
# _framework density 20.275352999999999
#
# number of rings (size 3 to 8) (size 9 to 14) (size 15 to 20)
#    0.000    2.818    0.000    2.727    1.273    4.364 
#    0.000    7.273    2.000    1.091    0.000    0.000 
#    0.000    0.000    0.000    0.000    0.000    0.000 
#
# Total GULP energy -245119.392156 kJ/mol
# GULP energy per Si atom -5570.895276 kJ/mol
# Density = 2.022921 g / cm^3
# Si number density = 20.275353 Si / 1000 Ang^3
#
#
#
# Elastic Constant Matrix: (Units=GPa)
#
#
# Indices 1 2 3 4 5 6 
#
# 1 149.5456 122.2575 19.7857 0.0000 0.0000 0.0000
# 2 122.2575 183.4680 22.4764 0.0000 0.0000 0.0000
# 3 19.7857 22.4764 76.2264 0.0000 0.0000 0.0000
# 4 0.0000 0.0000 0.0000 25.7863 0.0000 0.0000
# 5 0.0000 0.0000 0.0000 0.0000 34.1315 0.0000
# 6 0.0000 0.0000 0.0000 0.0000 0.0000 70.2669
#
#
#
# Elastic Compliance Matrix: (Units=1/GPa)
#
#
# Indices 1 2 3 4 5 6 
#
# 1 0.014757 -0.009716 -0.000966 0.000000 0.000000 0.000000
# 2 -0.009716 0.012051 -0.001032 0.000000 0.000000 0.000000
# 3 -0.000966 -0.001032 0.013674 0.000000 0.000000 0.000000
# 4 0.000000 0.000000 0.000000 0.038780 0.000000 0.000000
# 5 0.000000 0.000000 0.000000 0.000000 0.029298 0.000000
# 6 0.000000 0.000000 0.000000 0.000000 0.000000 0.014231
#
#
# Mechanical properties :
#
#
# Convention : Reuss Voigt Hill
#
# Bulk Modulus (GPa) = 58.62921 82.03101 70.33011
# Shear Modulus (GPa) = 32.91555 42.35163 37.63359
#
# Velocity S-wave (km/s) = 4.03355 4.57532 4.31295
# Velocity P-wave (km/s) = 7.11842 8.27392 7.71783
#
# Compressibility (1/GPa) = 0.01705634
#
# Stress axis : x y z
#
# Youngs Moduli (GPa) = 67.76221 82.97980 73.13323
#
# Poissons Ratio (x) = 0.80620 0.07063
# Poissons Ratio (y) = 0.65835 0.07544
# Poissons Ratio (z) = 0.06544 0.08560
#
# Static dielectric constant tensor:
#      x y z
#    x 1.706240 0.000000 0.000000 
#    y 0.000000 1.711290 0.000000 
#    z 0.000000 0.000000 1.872780 
# 
# From -- ./inp_files/27669.got.cif
#   From: 2010.05.17/outbox.cif.g08.bks.cpg/sg69_14_cif.got.tgz:27669.got - 2010.06.03 19:29:58.
