data_PCOD9512029
_publ_section_title
;
Structure prediction by ZEFSAII (Michael W. Deem and Ramdas Pophale) SiO2 
 PCOD9512029
Probable space group: F M M M
;
_chemical_formula_sum "Si O2"
_cell_formula_units_Z 160
_cell_length_a 8.724339
_cell_length_b 33.189013
_cell_length_c 30.158195
_cell_angle_alpha 90.000000
_cell_angle_beta 90.000000
_cell_angle_gamma 90.000000
_cell_volume 8732.371725
_symmetry_space_group_name_H-M "F M M M"
_symmetry_group_IT_number 69
_symmetry_cell_setting 'orthorhombic'
loop_
_space_group_symop_operation_xyz
x,y,z
-x,-y,z
x,-y,-z
-x,y,-z
-x,-y,-z
x,y,-z
-x,y,z
x,-y,z
x,1/2+y,1/2+z
-x,1/2-y,1/2+z
x,1/2-y,1/2-z
-x,1/2+y,1/2-z
-x,1/2-y,1/2-z
x,1/2+y,1/2-z
-x,1/2+y,1/2+z
x,1/2-y,1/2+z
1/2+x,y,1/2+z
1/2-x,-y,1/2+z
1/2+x,-y,1/2-z
1/2-x,y,1/2-z
1/2-x,-y,1/2-z
1/2+x,y,1/2-z
1/2-x,y,1/2+z
1/2+x,-y,1/2+z
1/2+x,1/2+y,z
1/2-x,1/2-y,z
1/2+x,1/2-y,-z
1/2-x,1/2+y,-z
1/2-x,1/2-y,-z
1/2+x,1/2+y,-z
1/2-x,1/2+y,z
1/2+x,1/2-y,z
loop_
_atom_site_type_symbol
_atom_site_label
_atom_site_fract_x
_atom_site_fract_y
_atom_site_fract_z
Si Si1 0.826801 0.417216 0.290583
Si Si2 0.816511 0.587236 0.550957
Si Si3 0.816061 0.205225 0.298966
Si Si4 0.323022 0.856087 0.369869
Si Si5 0.183486 0.000000 0.576766
Si Si6 0.811774 0.000000 0.175669
O O1 0.750000 0.395082 0.250000
O O2 0.825308 0.393193 0.335681
O O3 0.754732 0.460330 0.299888
O O4 0.000000 0.423909 0.276933
O O5 0.792675 0.599488 0.500000
O O6 0.763303 0.622472 0.585034
O O7 0.743941 0.542666 0.557178
O O8 0.000000 0.582728 0.558983
O O9 0.750000 0.193531 0.250000
O O10 0.750000 0.250000 0.306773
O O11 0.764626 0.177582 0.340802
O O12 0.000000 0.205510 0.295965
O O13 0.500000 0.842641 0.377108
O O14 0.246961 0.000000 0.626571
O O15 0.000000 0.000000 0.574671
O O16 0.000000 0.000000 0.173299
#
# Coordination Sequence:
#
# PCOD9512029 Si02
#       6
#    32  32  32  32  16  16
#     4  10  20  32  50  72 103 142 181 226 269 323
#     4  10  21  39  62  82 107 149 194 235 284 341
#     4  11  22  38  61  89 120 153 186 223 270 326
#     4  10  20  36  57  83 112 143 184 232 279 333
#     4  12  23  34  53  80 111 145 188 245 295 332
#     4  10  19  36  52  67  98 146 190 227 271 325
#
# _framework density 18.322627000000001
#
# number of rings (size 3 to 8) (size 9 to 14) (size 15 to 20)
#    0.000    1.600    2.000    4.500    0.000    5.600 
#    0.000    0.000    0.000    0.600    0.000    0.000 
#    0.000    0.000    0.000    0.000    0.000    0.000 
#
# Total GULP energy -222888.637184 kJ/mol
# GULP energy per Si atom -5572.215930 kJ/mol
# Density = 1.828092 g / cm^3
# Si number density = 18.322627 Si / 1000 Ang^3
#
#
#
# Elastic Constant Matrix: (Units=GPa)
#
#
# Indices 1 2 3 4 5 6 
#
# 1 76.0311 44.7194 46.4145 0.0000 0.0000 0.0000
# 2 44.7194 121.3446 53.5645 0.0000 0.0000 0.0000
# 3 46.4145 53.5645 139.5468 0.0000 0.0000 0.0000
# 4 0.0000 0.0000 0.0000 -4.5976 0.0000 0.0000
# 5 0.0000 0.0000 0.0000 0.0000 15.9347 0.0000
# 6 0.0000 0.0000 0.0000 0.0000 0.0000 22.5485
#
#
#
# Elastic Compliance Matrix: (Units=1/GPa)
#
#
# Indices 1 2 3 4 5 6 
#
# 1 0.018723 -0.004998 -0.004309 0.000000 0.000000 0.000000
# 2 -0.004998 0.011256 -0.002658 0.000000 0.000000 0.000000
# 3 -0.004309 -0.002658 0.009620 0.000000 0.000000 0.000000
# 4 0.000000 0.000000 0.000000 -0.217506 0.000000 0.000000
# 5 0.000000 0.000000 0.000000 0.000000 0.062756 0.000000
# 6 0.000000 0.000000 0.000000 0.000000 0.000000 0.044349
#
#
# Mechanical properties :
#
#
# Convention : Reuss Voigt Hill
#
# Bulk Modulus (GPa) = 63.82301 69.59104 66.70702
# Shear Modulus (GPa) = -120.04858 19.59209 -50.22825
#
# Velocity S-wave (km/s) = -8.10318 3.27354 -5.24144
# Velocity P-wave (km/s) = 7.25536 7.23543 0.37997
#
# Compressibility (1/GPa) = 0.01566833
#
# Stress axis : x y z
#
# Youngs Moduli (GPa) = 53.41163 88.83898 103.95406
#
# Poissons Ratio (x) = 0.44400 0.44793
# Poissons Ratio (y) = 0.26694 0.27635
# Poissons Ratio (z) = 0.23014 0.23617
#
# Static dielectric constant tensor:
#      x y z
#    x 1.655750 0.000000 0.000000 
#    y 0.000000 1.659560 0.000000 
#    z 0.000000 0.000000 1.640300 
# 
# From -- ./inp_files/44604.got.cif
#   From: 2010.05.17/outbox.cif.g08.bks.cpg/sg69_23_cif.got.tgz:44604.got - 2010.06.03 19:29:58.
