data_PCOD9512427
_publ_section_title
;
Structure prediction by ZEFSAII (Michael W. Deem and Ramdas Pophale) SiO2 
 PCOD9512427
Probable space group: F M M M
;
_chemical_formula_sum "Si O2"
_cell_formula_units_Z 160
_cell_length_a 31.109866
_cell_length_b 30.485841
_cell_length_c 8.587450
_cell_angle_alpha 90.000000
_cell_angle_beta 90.000000
_cell_angle_gamma 90.000000
_cell_volume 8144.427133
_symmetry_space_group_name_H-M "F M M M"
_symmetry_group_IT_number 69
_symmetry_cell_setting 'orthorhombic'
loop_
_space_group_symop_operation_xyz
x,y,z
-x,-y,z
x,-y,-z
-x,y,-z
-x,-y,-z
x,y,-z
-x,y,z
x,-y,z
x,1/2+y,1/2+z
-x,1/2-y,1/2+z
x,1/2-y,1/2-z
-x,1/2+y,1/2-z
-x,1/2-y,1/2-z
x,1/2+y,1/2-z
-x,1/2+y,1/2+z
x,1/2-y,1/2+z
1/2+x,y,1/2+z
1/2-x,-y,1/2+z
1/2+x,-y,1/2-z
1/2-x,y,1/2-z
1/2-x,-y,1/2-z
1/2+x,y,1/2-z
1/2-x,y,1/2+z
1/2+x,-y,1/2+z
1/2+x,1/2+y,z
1/2-x,1/2-y,z
1/2+x,1/2-y,-z
1/2-x,1/2+y,-z
1/2-x,1/2-y,-z
1/2+x,1/2+y,-z
1/2-x,1/2+y,z
1/2+x,1/2-y,z
loop_
_atom_site_type_symbol
_atom_site_label
_atom_site_fract_x
_atom_site_fract_y
_atom_site_fract_z
Si Si1 0.177338 0.203216 0.183548
Si Si2 0.500000 0.201159 0.314919
Si Si3 0.410237 0.174442 0.179096
Si Si4 0.883667 0.926921 0.679736
Si Si5 0.949986 0.500000 0.808926
Si Si6 0.704176 0.608627 0.687515
O O1 0.192625 0.250000 0.250000
O O2 0.126601 0.198649 0.223302
O O3 0.197130 0.159272 0.259634
O O4 0.184649 0.201902 0.000000
O O5 0.500000 0.200629 0.500000
O O6 0.500000 0.250000 0.250000
O O7 0.456928 0.179977 0.249426
O O8 0.399854 0.122945 0.179239
O O9 0.408482 0.190238 0.000000
O O10 0.877938 0.941272 0.500000
O O11 0.920873 0.958494 0.743186
O O12 0.835580 0.921421 0.747381
O O13 0.000000 0.500000 0.756597
O O14 0.952324 0.500000 0.000000
O O15 0.703109 0.608349 0.500000
O O16 0.750000 0.593692 0.750000
#
# Coordination Sequence:
#
# PCOD9512427 Si02
#       6
#    32  16  32  32  16  32
#     4  11  21  35  54  78 109 146 187 232 282 333
#     4  12  24  36  50  73 102 141 189 238 283 334
#     4  10  20  35  53  75 107 146 186 232 283 334
#     4   8  17  32  52  81 115 145 177 228 281 332
#     4   9  16  28  53  88 120 146 180 224 277 338
#     4  10  20  36  55  79 111 148 191 235 284 333
#
# _framework density 19.645334999999999
#
# number of rings (size 3 to 8) (size 9 to 14) (size 15 to 20)
#    0.000    2.100    0.000    5.700    1.400    0.400 
#    0.000    2.500    0.000    0.000    0.000   25.200 
#    0.000    0.000    0.000    0.000    0.000    0.000 
#
# Total GULP energy -223136.522687 kJ/mol
# GULP energy per Si atom -5578.413067 kJ/mol
# Density = 1.960062 g / cm^3
# Si number density = 19.645335 Si / 1000 Ang^3
#
#
#
# Elastic Constant Matrix: (Units=GPa)
#
#
# Indices 1 2 3 4 5 6 
#
# 1 173.1838 40.6074 18.8906 0.0105 -0.0008 -0.0077
# 2 40.6074 65.3455 9.7835 0.0211 -0.0044 -0.0212
# 3 18.8906 9.7835 69.5479 0.0328 -0.0034 -0.0642
# 4 0.0105 0.0211 0.0328 7.7251 -0.0082 -0.0512
# 5 -0.0008 -0.0044 -0.0034 -0.0082 30.3491 0.0137
# 6 -0.0077 -0.0212 -0.0642 -0.0512 0.0137 24.8855
#
#
#
# Elastic Compliance Matrix: (Units=1/GPa)
#
#
# Indices 1 2 3 4 5 6 
#
# 1 0.006871 -0.004076 -0.001293 0.000007 -0.000001 -0.000005
# 2 -0.004076 0.018051 -0.001432 -0.000038 0.000002 0.000010
# 3 -0.001293 -0.001432 0.014931 -0.000057 0.000001 0.000037
# 4 0.000007 -0.000038 -0.000057 0.129450 0.000035 0.000266
# 5 -0.000001 0.000002 0.000001 0.000035 0.032950 -0.000018
# 6 -0.000005 0.000010 0.000037 0.000266 -0.000018 0.040185
#
#
# Mechanical properties :
#
#
# Convention : Reuss Voigt Hill
#
# Bulk Modulus (GPa) = 38.09425 49.62669 43.86047
# Shear Modulus (GPa) = 18.88289 28.51166 23.69727
#
# Velocity S-wave (km/s) = 3.10367 3.81375 3.47689
# Velocity P-wave (km/s) = 5.68126 6.68649 6.20427
#
# Compressibility (1/GPa) = 0.02625068
#
# Stress axis : x y z
#
# Youngs Moduli (GPa) = 145.53865 55.39920 66.97358
#
# Poissons Ratio (x) = 0.22582 0.08659
# Poissons Ratio (y) = 0.59325 0.09591
# Poissons Ratio (z) = 0.18817 0.07933
#
# Static dielectric constant tensor:
#      x y z
#    x 1.703620 0.000000 0.000000 
#    y 0.000000 1.683740 -0.000010 
#    z 0.000000 -0.000010 1.673690 
# 
# From -- ./inp_files/5779.got.cif
#   From: 2010.05.17/outbox.cif.g08.bks.cpg/sg69_3_cif.got.tgz:5779.got - 2010.06.03 19:29:58.
