data_PCOD9512235
_publ_section_title
;
Structure prediction by ZEFSAII (Michael W. Deem and Ramdas Pophale) SiO2 
 PCOD9512235
Probable space group: F M M M
;
_chemical_formula_sum "Si O2"
_cell_formula_units_Z 208
_cell_length_a 18.753758
_cell_length_b 20.676149
_cell_length_c 24.946234
_cell_angle_alpha 90.000000
_cell_angle_beta 90.000000
_cell_angle_gamma 90.000000
_cell_volume 9673.039306
_symmetry_space_group_name_H-M "F M M M"
_symmetry_group_IT_number 69
_symmetry_cell_setting 'orthorhombic'
loop_
_space_group_symop_operation_xyz
x,y,z
-x,-y,z
x,-y,-z
-x,y,-z
-x,-y,-z
x,y,-z
-x,y,z
x,-y,z
x,1/2+y,1/2+z
-x,1/2-y,1/2+z
x,1/2-y,1/2-z
-x,1/2+y,1/2-z
-x,1/2-y,1/2-z
x,1/2+y,1/2-z
-x,1/2+y,1/2+z
x,1/2-y,1/2+z
1/2+x,y,1/2+z
1/2-x,-y,1/2+z
1/2+x,-y,1/2-z
1/2-x,y,1/2-z
1/2-x,-y,1/2-z
1/2+x,y,1/2-z
1/2-x,y,1/2+z
1/2+x,-y,1/2+z
1/2+x,1/2+y,z
1/2-x,1/2-y,z
1/2+x,1/2-y,-z
1/2-x,1/2+y,-z
1/2-x,1/2-y,-z
1/2+x,1/2+y,-z
1/2-x,1/2+y,z
1/2+x,1/2-y,z
loop_
_atom_site_type_symbol
_atom_site_label
_atom_site_fract_x
_atom_site_fract_y
_atom_site_fract_z
Si Si1 0.311000 0.604752 0.061216
Si Si2 0.086848 0.574974 0.776152
Si Si3 0.585610 0.285189 0.305257
Si Si4 0.578720 0.923641 0.345611
Si Si5 0.328269 0.245156 0.597479
Si Si6 0.151994 0.387213 0.061714
Si Si7 0.000000 0.923610 0.560529
O O1 0.367511 0.584557 0.105620
O O2 0.322304 0.682170 0.061363
O O3 0.229966 0.589344 0.080416
O O4 0.320554 0.581070 0.000000
O O5 0.110608 0.500000 0.788006
O O6 0.112404 0.639815 0.806971
O O7 0.103860 0.593711 0.714163
O O8 0.000000 0.572986 0.780020
O O9 0.500000 0.287307 0.307487
O O10 0.605817 0.250000 0.250000
O O11 0.614894 0.244549 0.355124
O O12 0.500000 0.894165 0.355567
O O13 0.569519 0.000000 0.340610
O O14 0.250000 0.250000 0.623709
O O15 0.343382 0.309868 0.564528
O O16 0.075738 0.406196 0.086516
O O17 0.148454 0.409904 0.000000
O O18 0.000000 0.894275 0.500000
O O19 0.000000 0.000000 0.556413
#
# Coordination Sequence:
#
# PCOD9512235 Si02
#       7
#    32  32  32  32  32  32  16
#     4  10  20  34  53  78 110 149 189 227 274 332
#     4   8  15  31  54  78 108 147 186 227 284 346
#     4  10  20  33  53  81 110 141 183 232 280 340
#     4   9  18  33  53  78 110 146 184 227 273 325
#     4  10  21  36  54  77 107 142 179 227 276 328
#     4   9  19  36  56  77 105 142 181 225 278 334
#     4   9  18  34  56  80 105 136 179 229 280 337
#
# _framework density 21.503066
#
# number of rings (size 3 to 8) (size 9 to 14) (size 15 to 20)
#    0.000    2.692    0.000    2.308    1.077    5.231 
#    0.000    3.077    0.000    0.923    0.000    9.692 
#    0.000    0.000    0.000    0.000    0.000    0.000 
#
# Total GULP energy -289653.953401 kJ/mol
# GULP energy per Si atom -5570.268335 kJ/mol
# Density = 2.145412 g / cm^3
# Si number density = 21.503066 Si / 1000 Ang^3
#
#
#
# Elastic Constant Matrix: (Units=GPa)
#
#
# Indices 1 2 3 4 5 6 
#
# 1 82.7231 21.3811 30.0351 0.0000 0.0000 0.0000
# 2 21.3811 68.1315 11.9127 0.0000 0.0000 0.0000
# 3 30.0351 11.9127 70.7593 0.0000 0.0000 0.0000
# 4 0.0000 0.0000 0.0000 17.4140 0.0000 0.0000
# 5 0.0000 0.0000 0.0000 0.0000 3.8657 0.0000
# 6 0.0000 0.0000 0.0000 0.0000 0.0000 -379.7781
#
#
#
# Elastic Compliance Matrix: (Units=1/GPa)
#
#
# Indices 1 2 3 4 5 6 
#
# 1 0.015164 -0.003744 -0.005807 0.000000 0.000000 0.000000
# 2 -0.003744 0.016047 -0.001113 0.000000 0.000000 0.000000
# 3 -0.005807 -0.001113 0.016784 0.000000 0.000000 0.000000
# 4 0.000000 0.000000 0.000000 0.057425 0.000000 0.000000
# 5 0.000000 0.000000 0.000000 0.000000 0.258683 0.000000
# 6 0.000000 0.000000 0.000000 0.000000 0.000000 -0.002633
#
#
# Mechanical properties :
#
#
# Convention : Reuss Voigt Hill
#
# Bulk Modulus (GPa) = 37.49495 38.69685 38.09590
# Shear Modulus (GPa) = 12.76534 -61.14734 -24.19100
#
# Velocity S-wave (km/s) = 2.43914 -5.33838 -3.35774
# Velocity P-wave (km/s) = 5.04058 4.46796 1.64996
#
# Compressibility (1/GPa) = 0.02667026
#
# Stress axis : x y z
#
# Youngs Moduli (GPa) = 65.94410 62.31755 59.57910
#
# Poissons Ratio (x) = 0.23329 0.34595
# Poissons Ratio (y) = 0.24687 0.06628
# Poissons Ratio (z) = 0.38291 0.06933
#
# Static dielectric constant tensor:
#      x y z
#    x 1.736430 0.000000 0.000000 
#    y 0.000000 1.831610 0.000000 
#    z 0.000000 0.000000 1.816380 
# 
# From -- ./inp_files/42000.got.cif
#   From: 2010.05.17/outbox.cif.g08.bks.cpg/sg69_21_cif.got.tgz:42000.got - 2010.06.03 19:29:58.
