data_PCOD9512939
_publ_section_title
;
Structure prediction by ZEFSAII (Michael W. Deem and Ramdas Pophale) SiO2 
 PCOD9512939
Probable space group: F M M M
;
_chemical_formula_sum "Si O2"
_cell_formula_units_Z 100
_cell_length_a 23.670388
_cell_length_b 25.080970
_cell_length_c 9.191531
_cell_angle_alpha 90.000000
_cell_angle_beta 90.000000
_cell_angle_gamma 90.000000
_cell_volume 5456.794036
_symmetry_space_group_name_H-M "F M M M"
_symmetry_group_IT_number 69
_symmetry_cell_setting 'orthorhombic'
loop_
_space_group_symop_operation_xyz
x,y,z
-x,-y,z
x,-y,-z
-x,y,-z
-x,-y,-z
x,y,-z
-x,y,z
x,-y,z
x,1/2+y,1/2+z
-x,1/2-y,1/2+z
x,1/2-y,1/2-z
-x,1/2+y,1/2-z
-x,1/2-y,1/2-z
x,1/2+y,1/2-z
-x,1/2+y,1/2+z
x,1/2-y,1/2+z
1/2+x,y,1/2+z
1/2-x,-y,1/2+z
1/2+x,-y,1/2-z
1/2-x,y,1/2-z
1/2-x,-y,1/2-z
1/2+x,y,1/2-z
1/2-x,y,1/2+z
1/2+x,-y,1/2+z
1/2+x,1/2+y,z
1/2-x,1/2-y,z
1/2+x,1/2-y,-z
1/2-x,1/2+y,-z
1/2-x,1/2-y,-z
1/2+x,1/2+y,-z
1/2-x,1/2+y,z
1/2+x,1/2-y,z
loop_
_atom_site_type_symbol
_atom_site_label
_atom_site_fract_x
_atom_site_fract_y
_atom_site_fract_z
Si Si1 0.000000 0.060335 0.205597
Si Si2 0.377842 0.606855 0.166914
Si Si3 0.191713 0.807645 0.324649
Si Si4 0.500000 0.500000 0.500000
Si Si5 0.810040 0.500000 0.326361
O O1 0.056287 0.092392 0.168269
O O2 0.000000 0.000000 0.141821
O O3 0.000000 0.046078 0.374387
O O4 0.357831 0.652982 0.274607
O O5 0.345520 0.552601 0.211043
O O6 0.361531 0.620566 0.000000
O O7 0.196997 0.803907 0.500000
O O8 0.182779 0.750000 0.250000
O O9 0.250000 0.828294 0.250000
O O10 0.802340 0.500000 0.500000
O O11 0.750000 0.500000 0.250000
#
# Coordination Sequence:
#
# PCOD9512939 Si02
#       5
#    16  32  32   4  16
#     4  10  21  38  61  84 124 162 207 247 299 355
#     4  11  22  38  61  88 120 160 205 248 302 360
#     4  11  23  41  65  90 121 158 202 251 305 362
#     4   8  20  36  54  84 124 152 214 240 292 348
#     4  10  21  35  52  83 119 153 193 241 294 355
#
# _framework density 18.325779000000001
#
# number of rings (size 3 to 8) (size 9 to 14) (size 15 to 20)
#    0.480    0.960    1.600    5.280    2.240    4.480 
#    2.880    0.800    0.000    0.000    0.000    0.000 
#    0.000    0.000    0.000    0.000    0.000    0.000 
#
# Total GULP energy -139234.304703 kJ/mol
# GULP energy per Si atom -5569.372188 kJ/mol
# Density = 1.828407 g / cm^3
# Si number density = 18.325779 Si / 1000 Ang^3
#
#
#
# Elastic Constant Matrix: (Units=GPa)
#
#
# Indices 1 2 3 4 5 6 
#
# 1 139.8350 55.4484 26.2929 0.0001 -0.0001 0.0000
# 2 55.4484 72.3049 42.8204 0.0003 -0.0003 0.0001
# 3 26.2929 42.8204 148.8729 0.0010 -0.0009 -0.0003
# 4 0.0001 0.0003 0.0010 51.1112 -0.0006 -0.0004
# 5 -0.0001 -0.0003 -0.0009 -0.0006 72.4918 -0.0001
# 6 0.0000 0.0001 -0.0003 -0.0004 -0.0001 8.1721
#
#
#
# Elastic Compliance Matrix: (Units=1/GPa)
#
#
# Indices 1 2 3 4 5 6 
#
# 1 0.010313 -0.008232 0.000546 0.000000 0.000000 0.000000
# 2 -0.008232 0.023241 -0.005231 0.000000 0.000000 0.000000
# 3 0.000546 -0.005231 0.008125 0.000000 0.000000 0.000000
# 4 0.000000 0.000000 0.000000 0.019565 0.000000 0.000001
# 5 0.000000 0.000000 0.000000 0.000000 0.013795 0.000000
# 6 0.000000 0.000000 0.000000 0.000001 0.000000 0.122367
#
#
# Mechanical properties :
#
#
# Convention : Reuss Voigt Hill
#
# Bulk Modulus (GPa) = 63.10812 67.79291 65.45051
# Shear Modulus (GPa) = 21.87976 42.11843 31.99910
#
# Velocity S-wave (km/s) = 3.45908 4.79928 4.18320
# Velocity P-wave (km/s) = 7.10389 8.23312 7.68926
#
# Compressibility (1/GPa) = 0.01584582
#
# Stress axis : x y z
#
# Youngs Moduli (GPa) = 96.96640 43.02686 123.07360
#
# Poissons Ratio (x) = 0.35421 -0.06726
# Poissons Ratio (y) = 0.79825 0.64380
# Poissons Ratio (z) = -0.05299 0.22507
#
# Static dielectric constant tensor:
#      x y z
#    x 1.637860 0.000000 0.000000 
#    y 0.000000 1.626990 0.000000 
#    z 0.000000 0.000000 1.632040 
# 
# From -- ./inp_files/2963.got.cif
#   From: 2010.05.17/outbox.cif.g08.bks.cpg/sg69_2_cif.got.tgz:2963.got - 2010.06.03 19:29:58.
