data_PCOD9512293
_publ_section_title
;
Structure prediction by ZEFSAII (Michael W. Deem and Ramdas Pophale) SiO2 
 PCOD9512293
Probable space group: F M M M
;
_chemical_formula_sum "Si O2"
_cell_formula_units_Z 192
_cell_length_a 24.521316
_cell_length_b 19.886766
_cell_length_c 20.757962
_cell_angle_alpha 90.000000
_cell_angle_beta 90.000000
_cell_angle_gamma 90.000000
_cell_volume 10122.613388
_symmetry_space_group_name_H-M "F M M M"
_symmetry_group_IT_number 69
_symmetry_cell_setting 'orthorhombic'
loop_
_space_group_symop_operation_xyz
x,y,z
-x,-y,z
x,-y,-z
-x,y,-z
-x,-y,-z
x,y,-z
-x,y,z
x,-y,z
x,1/2+y,1/2+z
-x,1/2-y,1/2+z
x,1/2-y,1/2-z
-x,1/2+y,1/2-z
-x,1/2-y,1/2-z
x,1/2+y,1/2-z
-x,1/2+y,1/2+z
x,1/2-y,1/2+z
1/2+x,y,1/2+z
1/2-x,-y,1/2+z
1/2+x,-y,1/2-z
1/2-x,y,1/2-z
1/2-x,-y,1/2-z
1/2+x,y,1/2-z
1/2-x,y,1/2+z
1/2+x,-y,1/2+z
1/2+x,1/2+y,z
1/2-x,1/2-y,z
1/2+x,1/2-y,-z
1/2-x,1/2+y,-z
1/2-x,1/2-y,-z
1/2+x,1/2+y,-z
1/2-x,1/2+y,z
1/2+x,1/2-y,z
loop_
_atom_site_type_symbol
_atom_site_label
_atom_site_fract_x
_atom_site_fract_y
_atom_site_fract_z
Si Si1 0.808389 0.280725 0.320611
Si Si2 0.060330 0.598395 0.424877
Si Si3 0.938334 0.921865 0.288970
Si Si4 0.563520 0.393860 0.569589
Si Si5 0.352867 0.577243 0.183478
Si Si6 0.602173 0.255726 0.928353
O O1 0.820702 0.250000 0.250000
O O2 0.750000 0.250000 0.338839
O O3 0.809058 0.362616 0.320848
O O4 0.853625 0.258575 0.372115
O O5 0.066103 0.579404 0.500000
O O6 0.109958 0.574595 0.380819
O O7 0.064240 0.679293 0.421857
O O8 0.000000 0.577275 0.402238
O O9 0.915738 0.918807 0.361760
O O10 0.894883 0.895733 0.238158
O O11 0.000000 0.892150 0.286544
O O12 0.943695 0.000000 0.271767
O O13 0.587264 0.415229 0.500000
O O14 0.500000 0.413516 0.568727
O O15 0.569474 0.313550 0.573137
O O16 0.334564 0.500000 0.197193
O O17 0.628000 0.260442 0.000000
#
# Coordination Sequence:
#
# PCOD9512293 Si02
#       6
#    32  32  32  32  32  32
#     4  10  21  37  55  74  95 121 161 211 258 303
#     4   9  17  29  47  74 108 141 168 194 228 278
#     4   9  17  28  43  67 100 135 167 197 234 285
#     4   9  16  26  43  68  98 132 168 202 235 278
#     4  10  20  34  52  74 101 132 164 201 246 294
#     4   9  17  30  49  72  98 129 164 202 245 291
#
# _framework density 18.967433
#
# number of rings (size 3 to 8) (size 9 to 14) (size 15 to 20)
#    0.000    2.667    0.000    2.000    0.000    4.000 
#    0.000    4.167    0.000    9.000    0.000    0.000 
#    0.000    0.000    0.000    0.000    0.000    0.000 
#
# Total GULP energy -267278.333235 kJ/mol
# GULP energy per Si atom -5568.298609 kJ/mol
# Density = 1.892426 g / cm^3
# Si number density = 18.967433 Si / 1000 Ang^3
#
#
#
# Elastic Constant Matrix: (Units=GPa)
#
#
# Indices 1 2 3 4 5 6 
#
# 1 59.7635 29.6250 29.2781 0.0000 0.0000 0.0000
# 2 29.6250 95.0340 0.8805 0.0000 0.0000 0.0000
# 3 29.2781 0.8805 75.1934 0.0000 0.0000 0.0000
# 4 0.0000 0.0000 0.0000 20.8852 0.0000 0.0000
# 5 0.0000 0.0000 0.0000 0.0000 16.1081 0.0000
# 6 0.0000 0.0000 0.0000 0.0000 0.0000 5.0350
#
#
#
# Elastic Compliance Matrix: (Units=1/GPa)
#
#
# Indices 1 2 3 4 5 6 
#
# 1 0.025419 -0.007833 -0.009806 0.000000 0.000000 0.000000
# 2 -0.007833 0.012938 0.002898 0.000000 0.000000 0.000000
# 3 -0.009806 0.002898 0.017083 0.000000 0.000000 0.000000
# 4 0.000000 0.000000 0.000000 0.047881 0.000000 0.000000
# 5 0.000000 0.000000 0.000000 0.000000 0.062081 0.000000
# 6 0.000000 0.000000 0.000000 0.000000 0.000000 0.198608
#
#
# Mechanical properties :
#
#
# Convention : Reuss Voigt Hill
#
# Bulk Modulus (GPa) = 38.52207 38.83980 38.68093
# Shear Modulus (GPa) = 12.43336 19.75280 16.09308
#
# Velocity S-wave (km/s) = 2.56307 3.23058 2.91599
# Velocity P-wave (km/s) = 5.39563 5.86831 5.63693
#
# Compressibility (1/GPa) = 0.02595915
#
# Stress axis : x y z
#
# Youngs Moduli (GPa) = 39.33997 77.29443 58.53708
#
# Poissons Ratio (x) = 0.60546 0.57401
# Poissons Ratio (y) = 0.30816 -0.16967
# Poissons Ratio (z) = 0.38576 -0.22404
#
# Static dielectric constant tensor:
#      x y z
#    x 1.651030 0.000000 0.000000 
#    y 0.000000 1.692620 0.000000 
#    z 0.000000 0.000000 1.700270 
# 
# From -- ./inp_files/32031.got.cif
#   From: 2010.05.17/outbox.cif.g08.bks.cpg/sg69_17_cif.got.tgz:32031.got - 2010.06.03 19:29:58.
