data_PCOD9512422
_publ_section_title
;
Structure prediction by ZEFSAII (Michael W. Deem and Ramdas Pophale) SiO2 
 PCOD9512422
Probable space group: F M M M
;
_chemical_formula_sum "Si O2"
_cell_formula_units_Z 144
_cell_length_a 34.337905
_cell_length_b 14.280623
_cell_length_c 18.596843
_cell_angle_alpha 90.000000
_cell_angle_beta 90.000000
_cell_angle_gamma 90.000000
_cell_volume 9119.272084
_symmetry_space_group_name_H-M "F M M M"
_symmetry_group_IT_number 69
_symmetry_cell_setting 'orthorhombic'
loop_
_space_group_symop_operation_xyz
x,y,z
-x,-y,z
x,-y,-z
-x,y,-z
-x,-y,-z
x,y,-z
-x,y,z
x,-y,z
x,1/2+y,1/2+z
-x,1/2-y,1/2+z
x,1/2-y,1/2-z
-x,1/2+y,1/2-z
-x,1/2-y,1/2-z
x,1/2+y,1/2-z
-x,1/2+y,1/2+z
x,1/2-y,1/2+z
1/2+x,y,1/2+z
1/2-x,-y,1/2+z
1/2+x,-y,1/2-z
1/2-x,y,1/2-z
1/2-x,-y,1/2-z
1/2+x,y,1/2-z
1/2-x,y,1/2+z
1/2+x,-y,1/2+z
1/2+x,1/2+y,z
1/2-x,1/2-y,z
1/2+x,1/2-y,-z
1/2-x,1/2+y,-z
1/2-x,1/2-y,-z
1/2+x,1/2+y,-z
1/2-x,1/2+y,z
1/2+x,1/2-y,z
loop_
_atom_site_type_symbol
_atom_site_label
_atom_site_fract_x
_atom_site_fract_y
_atom_site_fract_z
Si Si1 0.500000 0.886572 0.082916
Si Si2 0.651655 0.770017 0.167077
Si Si3 0.730382 0.889132 0.827217
Si Si4 0.806785 0.389526 0.584804
Si Si5 0.586087 0.611301 0.412927
O O1 0.542366 0.860420 0.112545
O O2 0.500000 0.000000 0.081674
O O3 0.500000 0.854903 0.000000
O O4 0.641743 0.750000 0.250000
O O5 0.691283 0.830960 0.164961
O O6 0.662639 0.673779 0.127188
O O7 0.618267 0.826898 0.126101
O O8 0.750000 0.869613 0.750000
O O9 0.763413 0.867811 0.886019
O O10 0.721613 0.000000 0.830414
O O11 0.809134 0.372299 0.500000
O O12 0.813108 0.500000 0.598686
O O13 0.588024 0.622210 0.500000
O O14 0.591629 0.500000 0.398710
#
# Coordination Sequence:
#
# PCOD9512422 Si02
#       5
#    16  32  32  32  32
#     4   7  12  28  53  76 101 129 153 189 250 311
#     4  12  22  31  50  76 102 132 167 204 247 298
#     4  10  20  35  51  68  96 132 168 206 250 297
#     4  10  22  37  51  68  94 133 176 214 251 290
#     4   9  18  33  54  80 104 126 158 203 253 302
#
# _framework density 15.790734
#
# number of rings (size 3 to 8) (size 9 to 14) (size 15 to 20)
#    0.000    2.111    2.222    3.333    0.000    3.556 
#    0.000    2.778    0.000    0.000    0.000    0.778 
#    0.000    4.444    0.000    0.000    0.000    0.000 
#
# Total GULP energy -200785.249102 kJ/mol
# GULP energy per Si atom -5577.368031 kJ/mol
# Density = 1.575479 g / cm^3
# Si number density = 15.790734 Si / 1000 Ang^3
#
#
#
# Elastic Constant Matrix: (Units=GPa)
#
#
# Indices 1 2 3 4 5 6 
#
# 1 122.5776 56.4030 55.4531 0.0000 0.0000 0.0000
# 2 56.4030 64.9811 51.8512 0.0000 0.0000 0.0000
# 3 55.4531 51.8512 83.1672 0.0000 0.0000 0.0000
# 4 0.0000 0.0000 0.0000 18.8770 0.0000 0.0000
# 5 0.0000 0.0000 0.0000 0.0000 13.7934 0.0000
# 6 0.0000 0.0000 0.0000 0.0000 0.0000 7.9290
#
#
#
# Elastic Compliance Matrix: (Units=1/GPa)
#
#
# Indices 1 2 3 4 5 6 
#
# 1 0.014083 -0.009415 -0.003520 0.000000 0.000000 0.000000
# 2 -0.009415 0.036918 -0.016739 0.000000 0.000000 0.000000
# 3 -0.003520 -0.016739 0.024807 0.000000 0.000000 0.000000
# 4 0.000000 0.000000 0.000000 0.052975 0.000000 0.000000
# 5 0.000000 0.000000 0.000000 0.000000 0.072498 0.000000
# 6 0.000000 0.000000 0.000000 0.000000 0.000000 0.126120
#
#
# Mechanical properties :
#
#
# Convention : Reuss Voigt Hill
#
# Bulk Modulus (GPa) = 60.75508 66.46004 63.60756
# Shear Modulus (GPa) = 12.74743 15.25446 14.00094
#
# Velocity S-wave (km/s) = 2.84434 3.11149 2.98091
# Velocity P-wave (km/s) = 7.02465 7.42212 7.22612
#
# Compressibility (1/GPa) = 0.01645953
#
# Stress axis : x y z
#
# Youngs Moduli (GPa) = 71.00905 27.08702 40.31058
#
# Poissons Ratio (x) = 0.25502 0.14190
# Poissons Ratio (y) = 0.66853 0.67477
# Poissons Ratio (z) = 0.24996 0.45342
#
# Static dielectric constant tensor:
#      x y z
#    x 1.521400 0.000000 0.000000 
#    y 0.000000 1.531300 0.000000 
#    z 0.000000 0.000000 1.527230 
# 
# From -- ./inp_files/15551.got.cif
#   From: 2010.05.17/outbox.cif.g08.bks.cpg/sg69_8_cif.got.tgz:15551.got - 2010.06.03 19:29:58.
