data_PCOD9512115
_publ_section_title
;
Structure prediction by ZEFSAII (Michael W. Deem and Ramdas Pophale) SiO2 
 PCOD9512115
Probable space group: F M M M
;
_chemical_formula_sum "Si O2"
_cell_formula_units_Z 144
_cell_length_a 25.666744
_cell_length_b 33.633693
_cell_length_c 10.470647
_cell_angle_alpha 90.000000
_cell_angle_beta 90.000000
_cell_angle_gamma 90.000000
_cell_volume 9038.968086
_symmetry_space_group_name_H-M "F M M M"
_symmetry_group_IT_number 69
_symmetry_cell_setting 'orthorhombic'
loop_
_space_group_symop_operation_xyz
x,y,z
-x,-y,z
x,-y,-z
-x,y,-z
-x,-y,-z
x,y,-z
-x,y,z
x,-y,z
x,1/2+y,1/2+z
-x,1/2-y,1/2+z
x,1/2-y,1/2-z
-x,1/2+y,1/2-z
-x,1/2-y,1/2-z
x,1/2+y,1/2-z
-x,1/2+y,1/2+z
x,1/2-y,1/2+z
1/2+x,y,1/2+z
1/2-x,-y,1/2+z
1/2+x,-y,1/2-z
1/2-x,y,1/2-z
1/2-x,-y,1/2-z
1/2+x,y,1/2-z
1/2-x,y,1/2+z
1/2+x,-y,1/2+z
1/2+x,1/2+y,z
1/2-x,1/2-y,z
1/2+x,1/2-y,-z
1/2-x,1/2+y,-z
1/2-x,1/2-y,-z
1/2+x,1/2+y,-z
1/2-x,1/2+y,z
1/2+x,1/2-y,z
loop_
_atom_site_type_symbol
_atom_site_label
_atom_site_fract_x
_atom_site_fract_y
_atom_site_fract_z
Si Si1 0.822611 0.452307 0.500000
Si Si2 0.871402 0.073886 0.265837
Si Si3 0.198203 0.452116 0.000000
Si Si4 0.062919 0.199142 0.000000
Si Si5 0.563129 0.654456 0.261695
Si Si6 0.560237 0.500000 0.346208
Si Si7 0.062851 0.789561 0.500000
O O1 0.833374 0.500000 0.500000
O O2 0.846511 0.432849 0.373044
O O3 0.760230 0.447491 0.500000
O O4 0.827900 0.067419 0.375279
O O5 0.903137 0.114776 0.277047
O O6 0.912033 0.038585 0.291439
O O7 0.187462 0.500000 0.000000
O O8 0.076365 0.175169 0.127355
O O9 0.083161 0.244434 0.000000
O O10 0.000000 0.201778 0.000000
O O11 0.500000 0.646645 0.265828
O O12 0.576151 0.685255 0.374644
O O13 0.500000 0.500000 0.312469
O O14 0.564745 0.500000 0.500000
O O15 0.000000 0.786701 0.500000
#
# Coordination Sequence:
#
# PCOD9512115 Si02
#       7
#    16  32  16  16  32  16  16
#     4  11  23  36  56  74 100 132 179 228 274 309
#     4  12  20  37  52  78 105 137 177 214 262 305
#     4  11  21  38  56  74  96 134 181 228 272 303
#     4   9  17  32  48  69 105 141 170 202 252 301
#     4  10  20  31  49  76 107 140 168 207 249 300
#     4  11  22  35  52  74 105 148 181 207 238 302
#     4   9  17  30  50  73  99 137 176 206 244 299
#
# _framework density 15.931023
#
# number of rings (size 3 to 8) (size 9 to 14) (size 15 to 20)
#    0.000    1.444    3.333    3.333    0.000    4.444 
#    0.000    2.222    0.000    0.000    0.000    0.000 
#    0.000   62.222    0.000    0.000    0.000    0.000 
#
# Total GULP energy -200923.792635 kJ/mol
# GULP energy per Si atom -5581.216462 kJ/mol
# Density = 1.589476 g / cm^3
# Si number density = 15.931023 Si / 1000 Ang^3
#
#
#
# Elastic Constant Matrix: (Units=GPa)
#
#
# Indices 1 2 3 4 5 6 
#
# 1 67.0145 33.7687 27.4700 -0.0072 -0.0001 0.0000
# 2 33.7687 133.4660 45.9134 -0.0008 0.0000 0.0000
# 3 27.4700 45.9134 128.0789 -0.0088 -0.0002 -0.0001
# 4 -0.0072 -0.0008 -0.0088 416.2677 0.0232 0.0063
# 5 -0.0001 0.0000 -0.0002 0.0232 1.5482 0.0001
# 6 0.0000 0.0000 -0.0001 0.0063 0.0001 -21.0455
#
#
#
# Elastic Compliance Matrix: (Units=1/GPa)
#
#
# Indices 1 2 3 4 5 6 
#
# 1 0.017783 -0.003636 -0.002511 0.000000 0.000001 0.000000
# 2 -0.003636 0.009290 -0.002550 0.000000 -0.000001 0.000000
# 3 -0.002511 -0.002550 0.009260 0.000000 0.000001 0.000000
# 4 0.000000 0.000000 0.000000 0.002402 -0.000036 0.000001
# 5 0.000001 -0.000001 0.000001 -0.000036 0.645892 0.000003
# 6 0.000000 0.000000 0.000000 0.000001 0.000003 -0.047516
#
#
# Mechanical properties :
#
#
# Convention : Reuss Voigt Hill
#
# Bulk Modulus (GPa) = 52.79886 60.31816 56.55851
# Shear Modulus (GPa) = 7.56637 94.11458 50.84048
#
# Velocity S-wave (km/s) = 2.18169 7.69445 5.65528
# Velocity P-wave (km/s) = 6.28971 10.81127 8.84432
#
# Compressibility (1/GPa) = 0.01893980
#
# Stress axis : x y z
#
# Youngs Moduli (GPa) = 56.23227 107.64513 107.98596
#
# Poissons Ratio (x) = 0.39136 0.27113
# Poissons Ratio (y) = 0.20444 0.27541
# Poissons Ratio (z) = 0.14119 0.27454
#
# Static dielectric constant tensor:
#      x y z
#    x 1.506190 0.000000 0.000000 
#    y 0.000000 1.516720 0.000000 
#    z 0.000000 0.000000 1.543840 
# 
# From -- ./inp_files/10430.got.cif
#   From: 2010.05.17/outbox.cif.g08.bks.cpg/sg69_6_cif.got.tgz:10430.got - 2010.06.03 19:29:58.
