data_PCOD9512252
_publ_section_title
;
Structure prediction by ZEFSAII (Michael W. Deem and Ramdas Pophale) SiO2 
 PCOD9512252
Probable space group: F M M M
;
_chemical_formula_sum "Si O2"
_cell_formula_units_Z 200
_cell_length_a 14.469708
_cell_length_b 21.130246
_cell_length_c 30.719513
_cell_angle_alpha 90.000000
_cell_angle_beta 90.000000
_cell_angle_gamma 90.000000
_cell_volume 9392.444701
_symmetry_space_group_name_H-M "F M M M"
_symmetry_group_IT_number 69
_symmetry_cell_setting 'orthorhombic'
loop_
_space_group_symop_operation_xyz
x,y,z
-x,-y,z
x,-y,-z
-x,y,-z
-x,-y,-z
x,y,-z
-x,y,z
x,-y,z
x,1/2+y,1/2+z
-x,1/2-y,1/2+z
x,1/2-y,1/2-z
-x,1/2+y,1/2-z
-x,1/2-y,1/2-z
x,1/2+y,1/2-z
-x,1/2+y,1/2+z
x,1/2-y,1/2+z
1/2+x,y,1/2+z
1/2-x,-y,1/2+z
1/2+x,-y,1/2-z
1/2-x,y,1/2-z
1/2-x,-y,1/2-z
1/2+x,y,1/2-z
1/2-x,y,1/2+z
1/2+x,-y,1/2+z
1/2+x,1/2+y,z
1/2-x,1/2-y,z
1/2+x,1/2-y,-z
1/2-x,1/2+y,-z
1/2-x,1/2-y,-z
1/2+x,1/2+y,-z
1/2-x,1/2+y,z
1/2+x,1/2-y,z
loop_
_atom_site_type_symbol
_atom_site_label
_atom_site_fract_x
_atom_site_fract_y
_atom_site_fract_z
Si Si1 0.386831 0.427801 0.213733
Si Si2 0.112161 0.313927 0.224271
Si Si3 0.347448 0.110228 0.950410
Si Si4 0.895870 0.651161 0.632356
Si Si5 0.612900 0.207209 0.874424
Si Si6 0.000000 0.000000 0.562476
Si Si7 0.864728 0.573103 0.451671
O O1 0.500000 0.431067 0.213356
O O2 0.354228 0.500000 0.218746
O O3 0.360383 0.377724 0.250835
O O4 0.354903 0.395493 0.168547
O O5 0.141864 0.250000 0.250000
O O6 0.140104 0.315679 0.173898
O O7 0.000000 0.311858 0.224637
O O8 0.352202 0.164545 0.913997
O O9 0.245759 0.080445 0.950193
O O10 0.420325 0.055563 0.939785
O O11 0.365837 0.133396 0.000000
O O12 0.854385 0.719983 0.624494
O O13 0.900831 0.615244 0.587124
O O14 0.000000 0.664813 0.649081
O O15 0.500000 0.205196 0.877486
O O16 0.894332 0.593024 0.500000
O O17 0.889780 0.500000 0.445469
#
# Coordination Sequence:
#
# PCOD9512252 Si02
#       7
#    32  32  32  32  32   8  32
#     4   9  16  28  49  78 109 147 196 239 281 338
#     4   9  15  29  50  76 114 149 182 236 289 332
#     4  11  22  38  61  86 114 148 188 238 297 355
#     4  10  20  35  56  81 115 155 196 235 281 338
#     4  10  20  33  54  87 116 151 194 235 287 349
#     4  12  21  40  68  88 112 152 192 240 300 360
#     4  10  22  39  57  81 113 150 192 237 291 347
#
# _framework density 21.293710000000001
#
# number of rings (size 3 to 8) (size 9 to 14) (size 15 to 20)
#    0.000    2.080    3.200    1.200    0.000    2.560 
#    1.440    4.000    0.000    0.960    0.000    2.240 
#    0.000    0.000    0.000    0.000    0.000    0.000 
#
# Total GULP energy -278763.568445 kJ/mol
# GULP energy per Si atom -5575.271369 kJ/mol
# Density = 2.124524 g / cm^3
# Si number density = 21.293710 Si / 1000 Ang^3
#
#
#
# Elastic Constant Matrix: (Units=GPa)
#
#
# Indices 1 2 3 4 5 6 
#
# 1 77.5220 15.1824 2.9748 0.0000 0.0000 0.0000
# 2 15.1824 203.4609 129.0184 0.0000 0.0000 0.0000
# 3 2.9748 129.0184 172.9274 0.0000 0.0000 0.0000
# 4 0.0000 0.0000 0.0000 20.9984 0.0000 0.0000
# 5 0.0000 0.0000 0.0000 0.0000 10.3773 0.0000
# 6 0.0000 0.0000 0.0000 0.0000 0.0000 -95.5940
#
#
#
# Elastic Compliance Matrix: (Units=1/GPa)
#
#
# Indices 1 2 3 4 5 6 
#
# 1 0.013175 -0.001593 0.000962 0.000000 0.000000 0.000000
# 2 -0.001593 0.009521 -0.007076 0.000000 0.000000 0.000000
# 3 0.000962 -0.007076 0.011045 0.000000 0.000000 0.000000
# 4 0.000000 0.000000 0.000000 0.047623 0.000000 0.000000
# 5 0.000000 0.000000 0.000000 0.000000 0.096364 0.000000
# 6 0.000000 0.000000 0.000000 0.000000 0.000000 -0.010461
#
#
# Mechanical properties :
#
#
# Convention : Reuss Voigt Hill
#
# Bulk Modulus (GPa) = 54.56498 83.14018 68.85258
# Shear Modulus (GPa) = 26.48446 7.60533 17.04490
#
# Velocity S-wave (km/s) = 3.53054 1.89193 2.83232
# Velocity P-wave (km/s) = 6.50386 6.62584 6.56513
#
# Compressibility (1/GPa) = 0.01832677
#
# Stress axis : x y z
#
# Youngs Moduli (GPa) = 75.90338 105.03328 90.53507
#
# Poissons Ratio (x) = 0.16733 -0.08709
# Poissons Ratio (y) = 0.12092 0.64062
# Poissons Ratio (z) = -0.07301 0.74321
#
# Static dielectric constant tensor:
#      x y z
#    x 1.846070 0.000000 0.000000 
#    y 0.000000 1.722290 0.000000 
#    z 0.000000 0.000000 1.749010 
# 
# From -- ./inp_files/46506.got.cif
#   From: 2010.05.17/outbox.cif.g08.bks.cpg/sg69_24_cif.got.tgz:46506.got - 2010.06.03 19:29:58.
