data_PCOD9512790
_publ_section_title
;
Structure prediction by ZEFSAII (Michael W. Deem and Ramdas Pophale) SiO2 
 PCOD9512790
Probable space group: F M M M
;
_chemical_formula_sum "Si O2"
_cell_formula_units_Z 104
_cell_length_a 19.728395
_cell_length_b 29.800055
_cell_length_c 8.810628
_cell_angle_alpha 90.000000
_cell_angle_beta 90.000000
_cell_angle_gamma 90.000000
_cell_volume 5179.832132
_symmetry_space_group_name_H-M "F M M M"
_symmetry_group_IT_number 69
_symmetry_cell_setting 'orthorhombic'
loop_
_space_group_symop_operation_xyz
x,y,z
-x,-y,z
x,-y,-z
-x,y,-z
-x,-y,-z
x,y,-z
-x,y,z
x,-y,z
x,1/2+y,1/2+z
-x,1/2-y,1/2+z
x,1/2-y,1/2-z
-x,1/2+y,1/2-z
-x,1/2-y,1/2-z
x,1/2+y,1/2-z
-x,1/2+y,1/2+z
x,1/2-y,1/2+z
1/2+x,y,1/2+z
1/2-x,-y,1/2+z
1/2+x,-y,1/2-z
1/2-x,y,1/2-z
1/2-x,-y,1/2-z
1/2+x,y,1/2-z
1/2-x,y,1/2+z
1/2+x,-y,1/2+z
1/2+x,1/2+y,z
1/2-x,1/2-y,z
1/2+x,1/2-y,-z
1/2-x,1/2+y,-z
1/2-x,1/2-y,-z
1/2+x,1/2+y,-z
1/2-x,1/2+y,z
1/2+x,1/2-y,z
loop_
_atom_site_type_symbol
_atom_site_label
_atom_site_fract_x
_atom_site_fract_y
_atom_site_fract_z
Si Si1 0.250000 0.750000 0.750000
Si Si2 0.000000 0.200491 0.814863
Si Si3 0.580012 0.000000 0.818103
Si Si4 0.820204 0.071537 0.183048
Si Si5 0.854230 0.829795 0.822541
O O1 0.195778 0.786876 0.813276
O O2 0.000000 0.250000 0.750000
O O3 0.929375 0.179212 0.760144
O O4 0.000000 0.201345 0.000000
O O5 0.617365 0.957107 0.745708
O O6 0.500000 0.000000 0.785509
O O7 0.589309 0.000000 0.000000
O O8 0.750000 0.053488 0.250000
O O9 0.826325 0.123290 0.238979
O O10 0.818419 0.069252 0.000000
O O11 0.863670 0.838057 0.000000
#
# Coordination Sequence:
#
# PCOD9512790 Si02
#       5
#     8  16  16  32  32
#     4  12  18  38  60  88 132 162 214 252 314 360
#     4  10  20  38  56  81 118 163 209 256 309 369
#     4  11  26  47  68  95 129 165 210 265 322 381
#     4  11  23  42  67  96 127 166 212 262 320 381
#     4  10  22  36  59  89 124 164 207 258 310 372
#
# _framework density 20.077869
#
# number of rings (size 3 to 8) (size 9 to 14) (size 15 to 20)
#    0.000    1.385    3.077    2.308    2.154    1.231 
#    0.000    3.077    0.000    0.000    0.000    0.000 
#    0.000    0.000    0.000    0.000    0.000    0.000 
#
# Total GULP energy -144844.235153 kJ/mol
# GULP energy per Si atom -5570.932121 kJ/mol
# Density = 2.003217 g / cm^3
# Si number density = 20.077869 Si / 1000 Ang^3
#
#
#
# Elastic Constant Matrix: (Units=GPa)
#
#
# Indices 1 2 3 4 5 6 
#
# 1 186.4864 62.5498 47.5830 0.0007 -0.0001 0.0000
# 2 62.5498 137.1409 28.7058 0.0002 0.0000 0.0000
# 3 47.5830 28.7058 51.6986 0.0022 -0.0005 0.0000
# 4 0.0007 0.0002 0.0022 -32.3892 -0.0014 -0.0005
# 5 -0.0001 0.0000 -0.0005 -0.0014 39.9502 0.0000
# 6 0.0000 0.0000 0.0000 -0.0005 0.0000 30.0298
#
#
#
# Elastic Compliance Matrix: (Units=1/GPa)
#
#
# Indices 1 2 3 4 5 6 
#
# 1 0.007580 -0.002260 -0.005722 0.000000 0.000000 0.000000
# 2 -0.002260 0.008924 -0.002875 0.000000 0.000000 0.000000
# 3 -0.005722 -0.002875 0.026206 0.000002 0.000000 0.000000
# 4 0.000000 0.000000 0.000002 -0.030875 -0.000001 -0.000001
# 5 0.000000 0.000000 0.000000 -0.000001 0.025031 0.000000
# 6 0.000000 0.000000 0.000000 -0.000001 0.000000 0.033300
#
#
# Mechanical properties :
#
#
# Convention : Reuss Voigt Hill
#
# Bulk Modulus (GPa) = 47.62781 72.55591 60.09186
# Shear Modulus (GPa) = 50.56592 23.28398 36.92495
#
# Velocity S-wave (km/s) = 5.02390 3.40911 4.29311
# Velocity P-wave (km/s) = 7.57798 7.19109 7.38707
#
# Compressibility (1/GPa) = 0.02099613
#
# Stress axis : x y z
#
# Youngs Moduli (GPa) = 131.92151 112.05407 38.15901
#
# Poissons Ratio (x) = 0.25320 0.21835
# Poissons Ratio (y) = 0.29809 0.10973
# Poissons Ratio (z) = 0.75488 0.32221
#
# Static dielectric constant tensor:
#      x y z
#    x 3.938030 0.000000 0.000000 
#    y 0.000000 1.733960 0.000000 
#    z 0.000000 0.000000 1.692210 
# 
# From -- ./inp_files/2989.got.cif
#   From: 2010.05.17/outbox.cif.g08.bks.cpg/sg69_2_cif.got.tgz:2989.got - 2010.06.03 19:29:58.
