data_PCOD9512782
_publ_section_title
;
Structure prediction by ZEFSAII (Michael W. Deem and Ramdas Pophale) SiO2 
 PCOD9512782
Probable space group: F M M M
;
_chemical_formula_sum "Si O2"
_cell_formula_units_Z 72
_cell_length_a 12.291138
_cell_length_b 14.640143
_cell_length_c 18.808921
_cell_angle_alpha 90.000000
_cell_angle_beta 90.000000
_cell_angle_gamma 90.000000
_cell_volume 3384.552818
_symmetry_space_group_name_H-M "F M M M"
_symmetry_group_IT_number 69
_symmetry_cell_setting 'orthorhombic'
loop_
_space_group_symop_operation_xyz
x,y,z
-x,-y,z
x,-y,-z
-x,y,-z
-x,-y,-z
x,y,-z
-x,y,z
x,-y,z
x,1/2+y,1/2+z
-x,1/2-y,1/2+z
x,1/2-y,1/2-z
-x,1/2+y,1/2-z
-x,1/2-y,1/2-z
x,1/2+y,1/2-z
-x,1/2+y,1/2+z
x,1/2-y,1/2+z
1/2+x,y,1/2+z
1/2-x,-y,1/2+z
1/2+x,-y,1/2-z
1/2-x,y,1/2-z
1/2-x,-y,1/2-z
1/2+x,y,1/2-z
1/2-x,y,1/2+z
1/2+x,-y,1/2+z
1/2+x,1/2+y,z
1/2-x,1/2-y,z
1/2+x,1/2-y,-z
1/2-x,1/2+y,-z
1/2-x,1/2-y,-z
1/2+x,1/2+y,-z
1/2-x,1/2+y,z
1/2+x,1/2-y,z
loop_
_atom_site_type_symbol
_atom_site_label
_atom_site_fract_x
_atom_site_fract_y
_atom_site_fract_z
Si Si1 0.738730 0.000000 0.083956
Si Si2 0.000000 0.000000 0.359837
Si Si3 0.877688 0.332738 0.582483
Si Si4 0.500000 0.297208 0.325658
O O1 0.795352 0.907811 0.111725
O O2 0.610560 0.000000 0.095166
O O3 0.763729 0.000000 0.000000
O O4 0.000000 0.905170 0.317872
O O5 0.853608 0.309796 0.500000
O O6 0.000000 0.374822 0.583289
O O7 0.897390 0.241646 0.628615
O O8 0.500000 0.250000 0.250000
#
# Coordination Sequence:
#
# PCOD9512782 Si02
#       4
#    16   8  32  16
#     4  10  20  37  65  96 127 162 206 257 309 361
#     4  12  27  40  54  92 129 158 202 266 320 360
#     4   8  17  37  66  91 116 162 214 249 291 367
#     4  10  23  43  63  88 127 161 206 255 316 373
#
# _framework density 21.273119999999999
#
# number of rings (size 3 to 8) (size 9 to 14) (size 15 to 20)
#    1.333    1.333    0.000    1.000    0.000    9.778 
#    0.000   11.111    0.000    0.000    0.000    0.000 
#    0.000    0.000    0.000    0.000    0.000    0.000 
#
# Total GULP energy -100290.903544 kJ/mol
# GULP energy per Si atom -5571.716864 kJ/mol
# Density = 2.122470 g / cm^3
# Si number density = 21.273120 Si / 1000 Ang^3
#
#
#
# Elastic Constant Matrix: (Units=GPa)
#
#
# Indices 1 2 3 4 5 6 
#
# 1 118.4988 55.3716 -5.8565 0.0000 0.0000 0.0000
# 2 55.3716 189.4142 59.0257 0.0000 0.0000 0.0000
# 3 -5.8565 59.0257 66.7510 0.0000 0.0000 0.0000
# 4 0.0000 0.0000 0.0000 22.8102 0.0000 0.0000
# 5 0.0000 0.0000 0.0000 0.0000 0.5313 0.0000
# 6 0.0000 0.0000 0.0000 0.0000 0.0000 34.3399
#
#
#
# Elastic Compliance Matrix: (Units=1/GPa)
#
#
# Indices 1 2 3 4 5 6 
#
# 1 0.010957 -0.004835 0.005237 0.000000 0.000000 0.000000
# 2 -0.004835 0.009421 -0.008755 0.000000 0.000000 0.000000
# 3 0.005237 -0.008755 0.023182 0.000000 0.000000 0.000000
# 4 0.000000 0.000000 0.000000 0.043840 0.000000 0.000000
# 5 0.000000 0.000000 0.000000 0.000000 1.882274 0.000000
# 6 0.000000 0.000000 0.000000 0.000000 0.000000 0.029121
#
#
# Mechanical properties :
#
#
# Convention : Reuss Voigt Hill
#
# Bulk Modulus (GPa) = 37.23857 65.74954 51.49405
# Shear Modulus (GPa) = 2.46980 29.27782 15.87381
#
# Velocity S-wave (km/s) = 1.07866 3.71385 2.73461
# Velocity P-wave (km/s) = 4.36971 7.02600 5.85060
#
# Compressibility (1/GPa) = 0.02685388
#
# Stress axis : x y z
#
# Youngs Moduli (GPa) = 91.26618 106.14501 43.13651
#
# Poissons Ratio (x) = 0.51320 -0.22589
# Poissons Ratio (y) = 0.44127 0.37766
# Poissons Ratio (z) = -0.47793 0.92929
#
# Static dielectric constant tensor:
#      x y z
#    x 1.816140 0.000000 0.000000 
#    y 0.000000 1.801500 0.000000 
#    z 0.000000 0.000000 1.719760 
# 
# From -- ./inp_files/20513.got.cif
#   From: 2010.05.17/outbox.cif.g08.bks.cpg/sg69_11_cif.got.tgz:20513.got - 2010.06.03 19:29:58.
