data_PCOD9512767
_publ_section_title
;
Structure prediction by ZEFSAII (Michael W. Deem and Ramdas Pophale) SiO2 
 PCOD9512767
Probable space group: F M M M
;
_chemical_formula_sum "Si O2"
_cell_formula_units_Z 160
_cell_length_a 27.587592
_cell_length_b 10.970916
_cell_length_c 30.125983
_cell_angle_alpha 90.000000
_cell_angle_beta 90.000000
_cell_angle_gamma 90.000000
_cell_volume 9117.964794
_symmetry_space_group_name_H-M "F M M M"
_symmetry_group_IT_number 69
_symmetry_cell_setting 'orthorhombic'
loop_
_space_group_symop_operation_xyz
x,y,z
-x,-y,z
x,-y,-z
-x,y,-z
-x,-y,-z
x,y,-z
-x,y,z
x,-y,z
x,1/2+y,1/2+z
-x,1/2-y,1/2+z
x,1/2-y,1/2-z
-x,1/2+y,1/2-z
-x,1/2-y,1/2-z
x,1/2+y,1/2-z
-x,1/2+y,1/2+z
x,1/2-y,1/2+z
1/2+x,y,1/2+z
1/2-x,-y,1/2+z
1/2+x,-y,1/2-z
1/2-x,y,1/2-z
1/2-x,-y,1/2-z
1/2+x,y,1/2-z
1/2-x,y,1/2+z
1/2+x,-y,1/2+z
1/2+x,1/2+y,z
1/2-x,1/2-y,z
1/2+x,1/2-y,-z
1/2-x,1/2+y,-z
1/2-x,1/2-y,-z
1/2+x,1/2+y,-z
1/2-x,1/2+y,z
1/2+x,1/2-y,z
loop_
_atom_site_type_symbol
_atom_site_label
_atom_site_fract_x
_atom_site_fract_y
_atom_site_fract_z
Si Si1 0.944400 0.203322 0.950322
Si Si2 0.717405 0.631964 0.500000
Si Si3 0.694620 0.257708 0.339210
Si Si4 0.649387 0.000000 0.690165
Si Si5 0.301679 0.500000 0.722734
Si Si6 0.359142 0.363215 0.579178
Si Si7 0.943184 0.500000 0.625135
O O1 0.906497 0.310007 0.943560
O O2 0.000000 0.244448 0.948537
O O3 0.937089 0.112288 0.909122
O O4 0.937125 0.149061 0.000000
O O5 0.743539 0.500000 0.500000
O O6 0.750000 0.750000 0.500000
O O7 0.683214 0.636182 0.542846
O O8 0.750000 0.250000 0.355515
O O9 0.695273 0.373915 0.305485
O O10 0.658752 0.286809 0.379214
O O11 0.678064 0.125311 0.321531
O O12 0.652768 0.000000 0.743509
O O13 0.597904 0.000000 0.663662
O O14 0.250000 0.500000 0.750000
O O15 0.367689 0.500000 0.594644
O O16 0.000000 0.500000 0.640733
#
# Coordination Sequence:
#
# PCOD9512767 Si02
#       7
#    32  16  32  16  16  32  16
#     4  10  20  37  62  89 118 155 202 257 306 354
#     4  10  22  42  57  79 120 166 203 239 287 358
#     4  12  23  40  61  90 125 158 203 247 301 364
#     4  12  24  37  66  94 118 160 200 251 316 356
#     4  12  24  42  63  90 125 157 196 257 309 363
#     4  11  22  38  58  84 121 161 198 246 303 358
#     4  10  21  40  62  90 124 156 202 257 307 369
#
# _framework density 17.547775000000001
#
# number of rings (size 3 to 8) (size 9 to 14) (size 15 to 20)
#    0.000    1.000    6.000    1.500    0.000    1.600 
#    3.600    1.000    0.000    3.600    0.000    0.000 
#    0.000    0.000    0.000    0.000    0.000    0.000 
#
# Total GULP energy -222937.835751 kJ/mol
# GULP energy per Si atom -5573.445894 kJ/mol
# Density = 1.750784 g / cm^3
# Si number density = 17.547775 Si / 1000 Ang^3
#
#
#
# Elastic Constant Matrix: (Units=GPa)
#
#
# Indices 1 2 3 4 5 6 
#
# 1 93.3433 40.5681 32.5508 0.0000 0.0000 0.0000
# 2 40.5681 121.9573 23.8044 0.0000 0.0000 0.0000
# 3 32.5508 23.8044 78.9682 0.0000 0.0000 0.0000
# 4 0.0000 0.0000 0.0000 68.8076 0.0000 0.0000
# 5 0.0000 0.0000 0.0000 0.0000 31.1566 0.0000
# 6 0.0000 0.0000 0.0000 0.0000 0.0000 22.3207
#
#
#
# Elastic Compliance Matrix: (Units=1/GPa)
#
#
# Indices 1 2 3 4 5 6 
#
# 1 0.013950 -0.003738 -0.004623 0.000000 0.000000 0.000000
# 2 -0.003738 0.009714 -0.001387 0.000000 0.000000 0.000000
# 3 -0.004623 -0.001387 0.014987 0.000000 0.000000 0.000000
# 4 0.000000 0.000000 0.000000 0.014533 0.000000 0.000000
# 5 0.000000 0.000000 0.000000 0.000000 0.032096 0.000000
# 6 0.000000 0.000000 0.000000 0.000000 0.000000 0.044801
#
#
# Mechanical properties :
#
#
# Convention : Reuss Voigt Hill
#
# Bulk Modulus (GPa) = 52.20942 54.23504 53.22223
# Shear Modulus (GPa) = 32.05876 37.61336 34.83606
#
# Velocity S-wave (km/s) = 4.27891 4.63480 4.46041
# Velocity P-wave (km/s) = 7.36406 7.72114 7.54471
#
# Compressibility (1/GPa) = 0.01915363
#
# Stress axis : x y z
#
# Youngs Moduli (GPa) = 71.68475 102.94664 66.72307
#
# Poissons Ratio (x) = 0.38480 0.30849
# Poissons Ratio (y) = 0.26795 0.09257
# Poissons Ratio (z) = 0.33143 0.14283
#
# Static dielectric constant tensor:
#      x y z
#    x 1.574850 0.000000 0.000000 
#    y 0.000000 1.564420 0.000000 
#    z 0.000000 0.000000 1.602870 
# 
# From -- ./inp_files/43521.got.cif
#   From: 2010.05.17/outbox.cif.g08.bks.cpg/sg69_22_cif.got.tgz:43521.got - 2010.06.03 19:29:58.
