data_PCOD9512108
_publ_section_title
;
Structure prediction by ZEFSAII (Michael W. Deem and Ramdas Pophale) SiO2 
 PCOD9512108
Probable space group: F M M M
;
_chemical_formula_sum "Si O2"
_cell_formula_units_Z 160
_cell_length_a 24.708467
_cell_length_b 25.082314
_cell_length_c 13.477930
_cell_angle_alpha 90.000000
_cell_angle_beta 90.000000
_cell_angle_gamma 90.000000
_cell_volume 8352.886841
_symmetry_space_group_name_H-M "F M M M"
_symmetry_group_IT_number 69
_symmetry_cell_setting 'orthorhombic'
loop_
_space_group_symop_operation_xyz
x,y,z
-x,-y,z
x,-y,-z
-x,y,-z
-x,-y,-z
x,y,-z
-x,y,z
x,-y,z
x,1/2+y,1/2+z
-x,1/2-y,1/2+z
x,1/2-y,1/2-z
-x,1/2+y,1/2-z
-x,1/2-y,1/2-z
x,1/2+y,1/2-z
-x,1/2+y,1/2+z
x,1/2-y,1/2+z
1/2+x,y,1/2+z
1/2-x,-y,1/2+z
1/2+x,-y,1/2-z
1/2-x,y,1/2-z
1/2-x,-y,1/2-z
1/2+x,y,1/2-z
1/2-x,y,1/2+z
1/2+x,-y,1/2+z
1/2+x,1/2+y,z
1/2-x,1/2-y,z
1/2+x,1/2-y,-z
1/2-x,1/2+y,-z
1/2-x,1/2-y,-z
1/2+x,1/2+y,-z
1/2-x,1/2+y,z
1/2+x,1/2-y,z
loop_
_atom_site_type_symbol
_atom_site_label
_atom_site_fract_x
_atom_site_fract_y
_atom_site_fract_z
Si Si1 0.215429 0.671613 0.121163
Si Si2 0.560258 0.101932 0.113960
Si Si3 0.440944 0.689104 0.785059
Si Si4 0.167968 0.217508 0.881069
Si Si5 0.325319 0.557344 0.380915
O O1 0.175790 0.720412 0.151893
O O2 0.276538 0.687824 0.147956
O O3 0.199496 0.612841 0.156740
O O4 0.212987 0.670555 0.000000
O O5 0.500000 0.078107 0.122059
O O6 0.563514 0.150270 0.190890
O O7 0.610107 0.063082 0.133043
O O8 0.566521 0.121494 0.000000
O O9 0.500000 0.677159 0.833359
O O10 0.443425 0.750000 0.750000
O O11 0.386371 0.687969 0.848459
O O12 0.167720 0.219408 0.000000
O O13 0.315824 0.556704 0.500000
O O14 0.306535 0.500000 0.340972
#
# Coordination Sequence:
#
# PCOD9512108 Si02
#       5
#    32  32  32  32  32
#     4   8  15  29  48  71  98 127 159 191 233 290
#     4   9  18  32  47  64  93 131 163 193 234 286
#     4  10  20  31  45  69  96 122 158 199 238 282
#     4   9  17  31  51  71  96 131 163 194 232 280
#     4   9  16  27  47  73  97 121 153 197 243 285
#
# _framework density 19.155054
#
# number of rings (size 3 to 8) (size 9 to 14) (size 15 to 20)
#    0.000    3.000    0.000    2.400    0.000    3.200 
#    0.000   11.000    0.000    2.400    0.000    2.800 
#    0.000    0.000    0.000   12.600    0.000    7.600 
#
# Total GULP energy -223029.324711 kJ/mol
# GULP energy per Si atom -5575.733118 kJ/mol
# Density = 1.911146 g / cm^3
# Si number density = 19.155054 Si / 1000 Ang^3
#
#
#
# Elastic Constant Matrix: (Units=GPa)
#
#
# Indices 1 2 3 4 5 6 
#
# 1 136.2602 53.1687 30.0080 0.0000 0.0000 0.0000
# 2 53.1687 134.1366 24.7215 0.0000 0.0000 0.0000
# 3 30.0080 24.7215 39.9063 0.0000 0.0000 0.0000
# 4 0.0000 0.0000 0.0000 13.3958 0.0000 0.0000
# 5 0.0000 0.0000 0.0000 0.0000 31.7952 0.0000
# 6 0.0000 0.0000 0.0000 0.0000 0.0000 -6.5616
#
#
#
# Elastic Compliance Matrix: (Units=1/GPa)
#
#
# Indices 1 2 3 4 5 6 
#
# 1 0.009650 -0.002808 -0.005516 0.000000 0.000000 0.000000
# 2 -0.002808 0.009233 -0.003608 0.000000 0.000000 0.000000
# 3 -0.005516 -0.003608 0.031442 0.000000 0.000000 0.000000
# 4 0.000000 0.000000 0.000000 0.074650 0.000000 0.000000
# 5 0.000000 0.000000 0.000000 0.000000 0.031451 0.000000
# 6 0.000000 0.000000 0.000000 0.000000 0.000000 -0.152403
#
#
# Mechanical properties :
#
#
# Convention : Reuss Voigt Hill
#
# Bulk Modulus (GPa) = 37.79411 58.45550 48.12480
# Shear Modulus (GPa) = 136.20739 21.21956 78.71348
#
# Velocity S-wave (km/s) = 8.44169 3.33194 6.41732
# Velocity P-wave (km/s) = 10.71399 6.73689 8.94917
#
# Compressibility (1/GPa) = 0.02645915
#
# Stress axis : x y z
#
# Youngs Moduli (GPa) = 103.63231 108.30510 31.80450
#
# Poissons Ratio (x) = 0.30414 0.17545
# Poissons Ratio (y) = 0.29102 0.11476
# Poissons Ratio (z) = 0.57168 0.39079
#
# Static dielectric constant tensor:
#      x y z
#    x 1.723590 0.000000 0.000000 
#    y 0.000000 1.660760 0.000000 
#    z 0.000000 0.000000 1.696940 
# 
# From -- ./inp_files/17750.got.cif
#   From: 2010.05.17/outbox.cif.g08.bks.cpg/sg69_9_cif.got.tgz:17750.got - 2010.06.03 19:29:58.
