data_PCOD9512428
_publ_section_title
;
Structure prediction by ZEFSAII (Michael W. Deem and Ramdas Pophale) SiO2 
 PCOD9512428
Probable space group: F M M M
;
_chemical_formula_sum "Si O2"
_cell_formula_units_Z 192
_cell_length_a 23.128592
_cell_length_b 15.356846
_cell_length_c 27.988976
_cell_angle_alpha 90.000000
_cell_angle_beta 90.000000
_cell_angle_gamma 90.000000
_cell_volume 9941.186786
_symmetry_space_group_name_H-M "F M M M"
_symmetry_group_IT_number 69
_symmetry_cell_setting 'orthorhombic'
loop_
_space_group_symop_operation_xyz
x,y,z
-x,-y,z
x,-y,-z
-x,y,-z
-x,-y,-z
x,y,-z
-x,y,z
x,-y,z
x,1/2+y,1/2+z
-x,1/2-y,1/2+z
x,1/2-y,1/2-z
-x,1/2+y,1/2-z
-x,1/2-y,1/2-z
x,1/2+y,1/2-z
-x,1/2+y,1/2+z
x,1/2-y,1/2+z
1/2+x,y,1/2+z
1/2-x,-y,1/2+z
1/2+x,-y,1/2-z
1/2-x,y,1/2-z
1/2-x,-y,1/2-z
1/2+x,y,1/2-z
1/2-x,y,1/2+z
1/2+x,-y,1/2+z
1/2+x,1/2+y,z
1/2-x,1/2-y,z
1/2+x,1/2-y,-z
1/2-x,1/2+y,-z
1/2-x,1/2-y,-z
1/2+x,1/2+y,-z
1/2-x,1/2+y,z
1/2+x,1/2-y,z
loop_
_atom_site_type_symbol
_atom_site_label
_atom_site_fract_x
_atom_site_fract_y
_atom_site_fract_z
Si Si1 0.930923 0.646809 0.244166
Si Si2 0.651622 0.404457 0.943063
Si Si3 0.733092 0.342604 0.607754
Si Si4 0.224147 0.000000 0.324411
Si Si5 0.068757 0.096319 0.635529
Si Si6 0.379070 0.784840 0.055563
Si Si7 0.653399 0.500000 0.774618
O O1 0.921856 0.750000 0.250000
O O2 0.916547 0.625112 0.189080
O O3 0.888887 0.584543 0.275142
O O4 0.000000 0.628648 0.252371
O O5 0.628439 0.500000 0.929798
O O6 0.711825 0.386863 0.916751
O O7 0.614399 0.318072 0.934003
O O8 0.662033 0.404267 0.000000
O O9 0.750000 0.250000 0.631318
O O10 0.710874 0.413046 0.645366
O O11 0.686631 0.314483 0.567683
O O12 0.293534 0.000000 0.312201
O O13 0.187728 0.000000 0.275831
O O14 0.085685 0.161145 0.593845
O O15 0.000000 0.091042 0.635575
O O16 0.092478 0.000000 0.625921
O O17 0.392203 0.801197 0.000000
#
# Coordination Sequence:
#
# PCOD9512428 Si02
#       7
#    32  32  32  16  32  32  16
#     4  10  21  40  67  90 108 144 197 250 306 362
#     4   9  17  32  53  76 106 144 187 236 279 320
#     4  10  20  35  53  75 110 148 190 236 276 327
#     4  11  24  36  51  82 117 157 191 226 293 366
#     4  10  21  38  60  85 117 151 186 239 302 353
#     4  10  21  34  55  86 116 157 203 237 280 341
#     4  11  23  38  56  82 118 148 186 234 293 368
#
# _framework density 19.313589
#
# number of rings (size 3 to 8) (size 9 to 14) (size 15 to 20)
#    0.000    2.000    1.667    1.750    1.167    6.667 
#    0.000    2.500    0.000    0.500    0.000    2.333 
#    0.000    0.000    0.000    0.000    0.000    1.333 
#
# Total GULP energy -267713.460604 kJ/mol
# GULP energy per Si atom -5577.363763 kJ/mol
# Density = 1.926963 g / cm^3
# Si number density = 19.313589 Si / 1000 Ang^3
#
#
#
# Elastic Constant Matrix: (Units=GPa)
#
#
# Indices 1 2 3 4 5 6 
#
# 1 60.3564 34.4556 10.7283 0.0000 0.0000 0.0000
# 2 34.4556 162.2259 40.8426 0.0000 0.0000 0.0000
# 3 10.7283 40.8426 35.7966 0.0000 0.0000 0.0000
# 4 0.0000 0.0000 0.0000 9.3664 0.0000 0.0000
# 5 0.0000 0.0000 0.0000 0.0000 26.8540 0.0000
# 6 0.0000 0.0000 0.0000 0.0000 0.0000 28.0785
#
#
#
# Elastic Compliance Matrix: (Units=1/GPa)
#
#
# Indices 1 2 3 4 5 6 
#
# 1 0.018913 -0.003634 -0.001522 0.000000 0.000000 0.000000
# 2 -0.003634 0.009347 -0.009575 0.000000 0.000000 0.000000
# 3 -0.001522 -0.009575 0.039317 0.000000 0.000000 0.000000
# 4 0.000000 0.000000 0.000000 0.106764 0.000000 0.000000
# 5 0.000000 0.000000 0.000000 0.000000 0.037238 0.000000
# 6 0.000000 0.000000 0.000000 0.000000 0.000000 0.035614
#
#
# Mechanical properties :
#
#
# Convention : Reuss Voigt Hill
#
# Bulk Modulus (GPa) = 26.23702 47.82579 37.03140
# Shear Modulus (GPa) = 17.27945 24.34995 20.81470
#
# Velocity S-wave (km/s) = 2.99436 3.55458 3.28643
# Velocity P-wave (km/s) = 5.05660 6.45471 5.79795
#
# Compressibility (1/GPa) = 0.03811408
#
# Stress axis : x y z
#
# Youngs Moduli (GPa) = 52.87302 106.98939 25.43442
#
# Poissons Ratio (x) = 0.38877 0.03872
# Poissons Ratio (y) = 0.19213 0.24354
# Poissons Ratio (z) = 0.08049 1.02445
#
# Static dielectric constant tensor:
#      x y z
#    x 1.718740 0.000000 0.000000 
#    y 0.000000 1.714880 0.000000 
#    z 0.000000 0.000000 1.631290 
# 
# From -- ./inp_files/43215.got.cif
#   From: 2010.05.17/outbox.cif.g08.bks.cpg/sg69_22_cif.got.tgz:43215.got - 2010.06.03 19:29:58.
