data_PCOD9512234
_publ_section_title
;
Structure prediction by ZEFSAII (Michael W. Deem and Ramdas Pophale) SiO2 
 PCOD9512234
Probable space group: F M M M
;
_chemical_formula_sum "Si O2"
_cell_formula_units_Z 160
_cell_length_a 13.480811
_cell_length_b 19.214233
_cell_length_c 27.995794
_cell_angle_alpha 90.000000
_cell_angle_beta 90.000000
_cell_angle_gamma 90.000000
_cell_volume 7251.566968
_symmetry_space_group_name_H-M "F M M M"
_symmetry_group_IT_number 69
_symmetry_cell_setting 'orthorhombic'
loop_
_space_group_symop_operation_xyz
x,y,z
-x,-y,z
x,-y,-z
-x,y,-z
-x,-y,-z
x,y,-z
-x,y,z
x,-y,z
x,1/2+y,1/2+z
-x,1/2-y,1/2+z
x,1/2-y,1/2-z
-x,1/2+y,1/2-z
-x,1/2-y,1/2-z
x,1/2+y,1/2-z
-x,1/2+y,1/2+z
x,1/2-y,1/2+z
1/2+x,y,1/2+z
1/2-x,-y,1/2+z
1/2+x,-y,1/2-z
1/2-x,y,1/2-z
1/2-x,-y,1/2-z
1/2+x,y,1/2-z
1/2-x,y,1/2+z
1/2+x,-y,1/2+z
1/2+x,1/2+y,z
1/2-x,1/2-y,z
1/2+x,1/2-y,-z
1/2-x,1/2+y,-z
1/2-x,1/2-y,-z
1/2+x,1/2+y,-z
1/2-x,1/2+y,z
1/2+x,1/2-y,z
loop_
_atom_site_type_symbol
_atom_site_label
_atom_site_fract_x
_atom_site_fract_y
_atom_site_fract_z
Si Si1 0.111536 0.301054 0.424408
Si Si2 0.365964 0.328064 0.739239
Si Si3 0.335772 0.077058 0.151535
Si Si4 0.893100 0.390246 0.337223
Si Si5 0.823446 0.855850 0.553124
O O1 0.114637 0.318095 0.367637
O O2 0.134179 0.221434 0.436736
O O3 0.203313 0.345748 0.444646
O O4 0.000000 0.318402 0.440874
O O5 0.401324 0.250000 0.750000
O O6 0.250000 0.324884 0.750000
O O7 0.376300 0.363742 0.687611
O O8 0.401434 0.377803 0.781275
O O9 0.214629 0.076440 0.154817
O O10 0.357366 0.096618 0.096831
O O11 0.371481 0.000000 0.164363
O O12 0.000000 0.421028 0.353369
O O13 0.851681 0.878418 0.500000
#
# Coordination Sequence:
#
# PCOD9512234 Si02
#       5
#    32  32  32  32  32
#     4   9  17  32  55  84 113 136 169 226 287 334
#     4   9  17  31  52  75 100 132 169 211 262 320
#     4  10  21  36  52  72 105 147 186 225 271 325
#     4   9  18  31  51  79 107 134 168 215 272 334
#     4  10  20  33  53  80 107 142 188 231 275 326
#
# _framework density 22.064195999999999
#
# number of rings (size 3 to 8) (size 9 to 14) (size 15 to 20)
#    0.000    2.600    0.000    2.400    0.000   11.200 
#    0.000    1.000    0.000    1.800    0.000    7.000 
#    0.000    0.000    0.000    0.000    0.000    0.000 
#
# Total GULP energy -222820.669738 kJ/mol
# GULP energy per Si atom -5570.516743 kJ/mol
# Density = 2.201398 g / cm^3
# Si number density = 22.064196 Si / 1000 Ang^3
#
#
#
# Elastic Constant Matrix: (Units=GPa)
#
#
# Indices 1 2 3 4 5 6 
#
# 1 89.0094 3.6221 10.1978 0.0000 0.0000 0.0000
# 2 3.6221 94.2847 53.5424 0.0000 0.0000 0.0000
# 3 10.1978 53.5424 174.1261 0.0000 0.0000 0.0000
# 4 0.0000 0.0000 0.0000 -2.0082 0.0000 0.0000
# 5 0.0000 0.0000 0.0000 0.0000 5.8836 0.0000
# 6 0.0000 0.0000 0.0000 0.0000 0.0000 -13.7916
#
#
#
# Elastic Compliance Matrix: (Units=1/GPa)
#
#
# Indices 1 2 3 4 5 6 
#
# 1 0.011311 -0.000071 -0.000641 0.000000 0.000000 0.000000
# 2 -0.000071 0.012850 -0.003947 0.000000 0.000000 0.000000
# 3 -0.000641 -0.003947 0.006994 0.000000 0.000000 0.000000
# 4 0.000000 0.000000 0.000000 -0.497947 0.000000 0.000000
# 5 0.000000 0.000000 0.000000 0.000000 0.169964 0.000000
# 6 0.000000 0.000000 0.000000 0.000000 0.000000 -0.072508
#
#
# Mechanical properties :
#
#
# Convention : Reuss Voigt Hill
#
# Bulk Modulus (GPa) = 45.79085 54.68275 50.23680
# Shear Modulus (GPa) = -14.17481 17.35394 1.58957
#
# Velocity S-wave (km/s) = -2.53738 2.80754 0.84970
# Velocity P-wave (km/s) = 3.49487 5.94533 4.87653
#
# Compressibility (1/GPa) = 0.02183842
#
# Stress axis : x y z
#
# Youngs Moduli (GPa) = 88.40916 77.81812 142.97469
#
# Poissons Ratio (x) = 0.00550 0.09160
# Poissons Ratio (y) = 0.00625 0.56436
# Poissons Ratio (z) = 0.05664 0.30717
#
# Static dielectric constant tensor:
#      x y z
#    x 2.031810 0.000000 0.000000 
#    y 0.000000 1.800380 0.000000 
#    z 0.000000 0.000000 1.803970 
# 
# From -- ./inp_files/41047.got.cif
#   From: 2010.05.17/outbox.cif.g08.bks.cpg/sg69_21_cif.got.tgz:41047.got - 2010.06.03 19:29:58.
