data_PCOD9512599
_publ_section_title
;
Structure prediction by ZEFSAII (Michael W. Deem and Ramdas Pophale) SiO2 
 PCOD9512599
Probable space group: F M M M
;
_chemical_formula_sum "Si O2"
_cell_formula_units_Z 120
_cell_length_a 13.577314
_cell_length_b 14.000437
_cell_length_c 28.394700
_cell_angle_alpha 90.000000
_cell_angle_beta 90.000000
_cell_angle_gamma 90.000000
_cell_volume 5397.501084
_symmetry_space_group_name_H-M "F M M M"
_symmetry_group_IT_number 69
_symmetry_cell_setting 'orthorhombic'
loop_
_space_group_symop_operation_xyz
x,y,z
-x,-y,z
x,-y,-z
-x,y,-z
-x,-y,-z
x,y,-z
-x,y,z
x,-y,z
x,1/2+y,1/2+z
-x,1/2-y,1/2+z
x,1/2-y,1/2-z
-x,1/2+y,1/2-z
-x,1/2-y,1/2-z
x,1/2+y,1/2-z
-x,1/2+y,1/2+z
x,1/2-y,1/2+z
1/2+x,y,1/2+z
1/2-x,-y,1/2+z
1/2+x,-y,1/2-z
1/2-x,y,1/2-z
1/2-x,-y,1/2-z
1/2+x,y,1/2-z
1/2-x,y,1/2+z
1/2+x,-y,1/2+z
1/2+x,1/2+y,z
1/2-x,1/2-y,z
1/2+x,1/2-y,-z
1/2-x,1/2+y,-z
1/2-x,1/2-y,-z
1/2+x,1/2+y,-z
1/2-x,1/2+y,z
1/2+x,1/2-y,z
loop_
_atom_site_type_symbol
_atom_site_label
_atom_site_fract_x
_atom_site_fract_y
_atom_site_fract_z
Si Si1 0.311072 0.116214 0.322103
Si Si2 0.116783 0.500000 0.057203
Si Si3 0.352676 0.500000 0.000000
Si Si4 0.279534 0.352748 0.074993
Si Si5 0.893960 0.883652 0.723175
O O1 0.328875 0.155305 0.373874
O O2 0.200799 0.145150 0.306383
O O3 0.378377 0.144028 0.277841
O O4 0.314843 0.000000 0.325562
O O5 0.175823 0.410822 0.078321
O O6 0.000000 0.500000 0.064367
O O7 0.137677 0.500000 0.000000
O O8 0.345232 0.416654 0.040873
O O9 0.250000 0.250000 0.056293
O O10 0.000000 0.852396 0.705376
O O11 0.892119 0.000000 0.722757
#
# Coordination Sequence:
#
# PCOD9512599 Si02
#       5
#    32  16   8  32  32
#     4   9  16  30  50  81 116 148 200 245 290 361
#     4  10  21  38  58  86 119 151 192 251 309 357
#     4  10  20  36  57  82 107 148 200 242 298 360
#     4  11  20  35  59  89 116 154 200 249 300 365
#     4   8  15  28  50  77 111 155 193 239 297 354
#
# _framework density 22.232510000000001
#
# number of rings (size 3 to 8) (size 9 to 14) (size 15 to 20)
#    0.000    2.533    5.333    2.000    0.000    1.067 
#    0.000    4.000    0.000    1.600    0.000    3.733 
#    0.000    0.000    0.000    0.000    0.000    0.000 
#
# Total GULP energy -167042.127492 kJ/mol
# GULP energy per Si atom -5568.070916 kJ/mol
# Density = 2.218191 g / cm^3
# Si number density = 22.232510 Si / 1000 Ang^3
#
#
#
# Elastic Constant Matrix: (Units=GPa)
#
#
# Indices 1 2 3 4 5 6 
#
# 1 47.8526 -9.1778 -17.7228 0.0000 0.0000 0.0000
# 2 -9.1778 111.1186 -1.9385 0.0000 0.0000 0.0000
# 3 -17.7228 -1.9385 111.6968 0.0000 0.0000 0.0000
# 4 0.0000 0.0000 0.0000 15.0478 0.0000 0.0000
# 5 0.0000 0.0000 0.0000 0.0000 5.9844 0.0000
# 6 0.0000 0.0000 0.0000 0.0000 0.0000 7.2244
#
#
#
# Elastic Compliance Matrix: (Units=1/GPa)
#
#
# Indices 1 2 3 4 5 6 
#
# 1 0.022609 0.001931 0.003621 0.000000 0.000000 0.000000
# 2 0.001931 0.009167 0.000465 0.000000 0.000000 0.000000
# 3 0.003621 0.000465 0.009535 0.000000 0.000000 0.000000
# 4 0.000000 0.000000 0.000000 0.066455 0.000000 0.000000
# 5 0.000000 0.000000 0.000000 0.000000 0.167101 0.000000
# 6 0.000000 0.000000 0.000000 0.000000 0.000000 0.138421
#
#
# Mechanical properties :
#
#
# Convention : Reuss Voigt Hill
#
# Bulk Modulus (GPa) = 18.74604 23.66555 21.20580
# Shear Modulus (GPa) = 11.93216 25.61846 18.77531
#
# Velocity S-wave (km/s) = 2.31919 3.39823 2.90918
# Velocity P-wave (km/s) = 3.95242 5.10539 4.56545
#
# Compressibility (1/GPa) = 0.05334459
#
# Stress axis : x y z
#
# Youngs Moduli (GPa) = 44.23064 109.08743 104.87243
#
# Poissons Ratio (x) = -0.21060 -0.37972
# Poissons Ratio (y) = -0.08539 -0.04881
# Poissons Ratio (z) = -0.16015 -0.05077
#
# Static dielectric constant tensor:
#      x y z
#    x 1.824330 0.000000 0.000000 
#    y 0.000000 1.567110 0.000000 
#    z 0.000000 0.000000 1.800240 
# 
# From -- ./inp_files/45473.got.cif
#   From: 2010.05.17/outbox.cif.g08.bks.cpg/sg69_23_cif.got.tgz:45473.got - 2010.06.03 19:29:58.
