data_PCOD9512572
_publ_section_title
;
Structure prediction by ZEFSAII (Michael W. Deem and Ramdas Pophale) SiO2 
 PCOD9512572
Probable space group: F M M M
;
_chemical_formula_sum "Si O2"
_cell_formula_units_Z 160
_cell_length_a 31.374331
_cell_length_b 16.169741
_cell_length_c 14.948368
_cell_angle_alpha 90.000000
_cell_angle_beta 90.000000
_cell_angle_gamma 90.000000
_cell_volume 7583.528417
_symmetry_space_group_name_H-M "F M M M"
_symmetry_group_IT_number 69
_symmetry_cell_setting 'orthorhombic'
loop_
_space_group_symop_operation_xyz
x,y,z
-x,-y,z
x,-y,-z
-x,y,-z
-x,-y,-z
x,y,-z
-x,y,z
x,-y,z
x,1/2+y,1/2+z
-x,1/2-y,1/2+z
x,1/2-y,1/2-z
-x,1/2+y,1/2-z
-x,1/2-y,1/2-z
x,1/2+y,1/2-z
-x,1/2+y,1/2+z
x,1/2-y,1/2+z
1/2+x,y,1/2+z
1/2-x,-y,1/2+z
1/2+x,-y,1/2-z
1/2-x,y,1/2-z
1/2-x,-y,1/2-z
1/2+x,y,1/2-z
1/2-x,y,1/2+z
1/2+x,-y,1/2+z
1/2+x,1/2+y,z
1/2-x,1/2-y,z
1/2+x,1/2-y,-z
1/2-x,1/2+y,-z
1/2-x,1/2-y,-z
1/2+x,1/2+y,-z
1/2-x,1/2+y,z
1/2+x,1/2-y,z
loop_
_atom_site_type_symbol
_atom_site_label
_atom_site_fract_x
_atom_site_fract_y
_atom_site_fract_z
Si Si1 0.764297 0.000000 0.404599
Si Si2 0.727812 0.831634 0.346479
Si Si3 0.500000 0.404872 0.608382
Si Si4 0.628685 0.500000 0.898547
Si Si5 0.633063 0.180695 0.604303
Si Si6 0.094276 0.144238 0.391453
Si Si7 0.849824 0.500000 0.801410
O O1 0.737362 0.916773 0.396404
O O2 0.653503 0.000000 0.305424
O O3 0.801608 0.000000 0.333431
O O4 0.750000 0.839441 0.250000
O O5 0.750000 0.750000 0.387935
O O6 0.677224 0.820825 0.341848
O O7 0.500000 0.500000 0.636402
O O8 0.500000 0.401952 0.500000
O O9 0.545146 0.367609 0.636105
O O10 0.608595 0.407668 0.891656
O O11 0.647806 0.500000 0.000000
O O12 0.645850 0.190594 0.500000
O O13 0.607336 0.261990 0.628495
O O14 0.097806 0.130094 0.500000
O O15 0.124599 0.079237 0.340425
O O16 0.786976 0.500000 0.000000
#
# Coordination Sequence:
#
# PCOD9512572 Si02
#       7
#    16  32  16  16  32  32  16
#     4  12  24  36  56  87 124 161 206 260 321 373
#     4  11  23  38  56  80 115 162 213 263 305 362
#     4   9  16  32  60  96 140 166 186 233 305 390
#     4  10  23  42  61  81 108 159 219 261 295 351
#     4  10  21  39  61  84 117 161 213 261 310 365
#     4  10  20  35  62  99 131 160 193 244 316 387
#     4  12  22  35  59  88 124 161 199 260 311 381
#
# _framework density 21.098358999999999
#
# number of rings (size 3 to 8) (size 9 to 14) (size 15 to 20)
#    0.000    1.500    1.000    4.800    0.000    6.400 
#    0.000    0.000    0.000    4.200    0.000    8.400 
#    0.000    0.000    0.000    0.000    0.000    0.000 
#
# Total GULP energy -223278.452494 kJ/mol
# GULP energy per Si atom -5581.961312 kJ/mol
# Density = 2.105034 g / cm^3
# Si number density = 21.098359 Si / 1000 Ang^3
#
#
#
# Elastic Constant Matrix: (Units=GPa)
#
#
# Indices 1 2 3 4 5 6 
#
# 1 118.5408 77.5311 7.7983 0.0000 0.0000 0.0000
# 2 77.5311 225.5716 20.1716 0.0000 0.0000 0.0000
# 3 7.7983 20.1716 87.2227 0.0000 0.0000 0.0000
# 4 0.0000 0.0000 0.0000 7.9438 0.0000 0.0000
# 5 0.0000 0.0000 0.0000 0.0000 -12.1477 0.0000
# 6 0.0000 0.0000 0.0000 0.0000 0.0000 -3.5786
#
#
#
# Elastic Compliance Matrix: (Units=1/GPa)
#
#
# Indices 1 2 3 4 5 6 
#
# 1 0.010883 -0.003731 -0.000110 0.000000 0.000000 0.000000
# 2 -0.003731 0.005806 -0.001009 0.000000 0.000000 0.000000
# 3 -0.000110 -0.001009 0.011708 0.000000 0.000000 0.000000
# 4 0.000000 0.000000 0.000000 0.125884 0.000000 0.000000
# 5 0.000000 0.000000 0.000000 0.000000 -0.082320 0.000000
# 6 0.000000 0.000000 0.000000 0.000000 0.000000 -0.279436
#
#
# Mechanical properties :
#
#
# Convention : Reuss Voigt Hill
#
# Bulk Modulus (GPa) = 53.48497 71.37077 62.42787
# Shear Modulus (GPa) = -26.10396 20.16576 -2.96910
#
# Velocity S-wave (km/s) = -3.52127 3.09495 -1.18757
# Velocity P-wave (km/s) = 2.97873 6.83174 5.26999
#
# Compressibility (1/GPa) = 0.01869684
#
# Stress axis : x y z
#
# Youngs Moduli (GPa) = 91.88382 172.24313 85.41072
#
# Poissons Ratio (x) = 0.64261 0.00941
# Poissons Ratio (y) = 0.34280 0.08619
# Poissons Ratio (z) = 0.01013 0.17381
#
# Static dielectric constant tensor:
#      x y z
#    x 1.707720 0.000000 0.000000 
#    y 0.000000 1.808600 0.000000 
#    z 0.000000 0.000000 1.801150 
# 
# From -- ./inp_files/26709.got.cif
#   From: 2010.05.17/outbox.cif.g08.bks.cpg/sg69_14_cif.got.tgz:26709.got - 2010.06.03 19:29:58.
