data_PCOD9512515
_publ_section_title
;
Structure prediction by ZEFSAII (Michael W. Deem and Ramdas Pophale) SiO2 
 PCOD9512515
Probable space group: F M M M
;
_chemical_formula_sum "Si O2"
_cell_formula_units_Z 160
_cell_length_a 19.453175
_cell_length_b 22.359389
_cell_length_c 19.268839
_cell_angle_alpha 90.000000
_cell_angle_beta 90.000000
_cell_angle_gamma 90.000000
_cell_volume 8381.195544
_symmetry_space_group_name_H-M "F M M M"
_symmetry_group_IT_number 69
_symmetry_cell_setting 'orthorhombic'
loop_
_space_group_symop_operation_xyz
x,y,z
-x,-y,z
x,-y,-z
-x,y,-z
-x,-y,-z
x,y,-z
-x,y,z
x,-y,z
x,1/2+y,1/2+z
-x,1/2-y,1/2+z
x,1/2-y,1/2-z
-x,1/2+y,1/2-z
-x,1/2-y,1/2-z
x,1/2+y,1/2-z
-x,1/2+y,1/2+z
x,1/2-y,1/2+z
1/2+x,y,1/2+z
1/2-x,-y,1/2+z
1/2+x,-y,1/2-z
1/2-x,y,1/2-z
1/2-x,-y,1/2-z
1/2+x,y,1/2-z
1/2-x,y,1/2+z
1/2+x,-y,1/2+z
1/2+x,1/2+y,z
1/2-x,1/2-y,z
1/2+x,1/2-y,-z
1/2-x,1/2+y,-z
1/2-x,1/2-y,-z
1/2+x,1/2+y,-z
1/2-x,1/2+y,z
1/2+x,1/2-y,z
loop_
_atom_site_type_symbol
_atom_site_label
_atom_site_fract_x
_atom_site_fract_y
_atom_site_fract_z
Si Si1 0.288761 0.500000 0.415492
Si Si2 0.730719 0.318120 0.344432
Si Si3 0.631731 0.118817 0.078716
Si Si4 0.181753 0.000000 0.202044
Si Si5 0.859676 0.131011 0.215932
Si Si6 0.000000 0.701845 0.311470
Si Si7 0.500000 0.808999 0.915438
O O1 0.280285 0.500000 0.500000
O O2 0.333434 0.558215 0.393767
O O3 0.216488 0.500000 0.374753
O O4 0.750000 0.250000 0.332963
O O5 0.690943 0.331563 0.414691
O O6 0.801297 0.354079 0.340831
O O7 0.677642 0.341613 0.284897
O O8 0.564850 0.151134 0.108563
O O9 0.613196 0.104309 0.000000
O O10 0.250000 0.000000 0.250000
O O11 0.138856 0.059544 0.218181
O O12 0.931199 0.162344 0.197757
O O13 0.000000 0.750000 0.250000
O O14 0.000000 0.743803 0.380102
O O15 0.500000 0.803272 0.000000
#
# Coordination Sequence:
#
# PCOD9512515 Si02
#       7
#    16  32  32  16  32  16  16
#     4  10  20  37  59  87 117 151 197 245 287 342
#     4  11  20  35  56  86 115 150 197 237 285 346
#     4  10  20  35  57  84 116 155 195 237 290 344
#     4  12  20  39  62  85 120 148 191 248 293 336
#     4  11  22  36  60  84 112 153 189 239 294 337
#     4  12  24  41  60  85 118 154 196 237 286 353
#     4  10  22  39  57  85 125 158 187 240 296 346
#
# _framework density 19.090356
#
# number of rings (size 3 to 8) (size 9 to 14) (size 15 to 20)
#    0.000    1.200    4.000    4.800    0.000    1.200 
#    0.000    4.000    0.000    4.800    0.000    1.400 
#    0.000    0.000    0.000    0.000    0.000    0.000 
#
# Total GULP energy -222989.362176 kJ/mol
# GULP energy per Si atom -5574.734054 kJ/mol
# Density = 1.904691 g / cm^3
# Si number density = 19.090356 Si / 1000 Ang^3
#
#
#
# Elastic Constant Matrix: (Units=GPa)
#
#
# Indices 1 2 3 4 5 6 
#
# 1 133.3002 55.3267 22.8312 0.0000 0.0000 0.0000
# 2 55.3267 170.5003 24.2306 0.0000 0.0000 0.0000
# 3 22.8312 24.2306 50.8508 0.0000 0.0000 0.0000
# 4 0.0000 0.0000 0.0000 21.6636 0.0000 0.0000
# 5 0.0000 0.0000 0.0000 0.0000 16.1727 0.0000
# 6 0.0000 0.0000 0.0000 0.0000 0.0000 42.4331
#
#
#
# Elastic Compliance Matrix: (Units=1/GPa)
#
#
# Indices 1 2 3 4 5 6 
#
# 1 0.009040 -0.002528 -0.002854 0.000000 0.000000 0.000000
# 2 -0.002528 0.006998 -0.002200 0.000000 0.000000 0.000000
# 3 -0.002854 -0.002200 0.021995 0.000000 0.000000 0.000000
# 4 0.000000 0.000000 0.000000 0.046160 0.000000 0.000000
# 5 0.000000 0.000000 0.000000 0.000000 0.061833 0.000000
# 6 0.000000 0.000000 0.000000 0.000000 0.000000 0.023567
#
#
# Mechanical properties :
#
#
# Convention : Reuss Voigt Hill
#
# Bulk Modulus (GPa) = 43.72631 62.15870 52.94251
# Shear Modulus (GPa) = 25.99039 32.87140 29.43089
#
# Velocity S-wave (km/s) = 3.69377 4.15406 3.93066
# Velocity P-wave (km/s) = 6.41456 7.45917 6.95650
#
# Compressibility (1/GPa) = 0.02286953
#
# Stress axis : x y z
#
# Youngs Moduli (GPa) = 110.62073 142.89912 45.46484
#
# Poissons Ratio (x) = 0.36122 0.12977
# Poissons Ratio (y) = 0.27962 0.10000
# Poissons Ratio (z) = 0.31574 0.31432
#
# Static dielectric constant tensor:
#      x y z
#    x 1.649570 0.000000 0.000000 
#    y 0.000000 1.704180 0.000000 
#    z 0.000000 0.000000 1.786560 
# 
# From -- ./inp_files/36657.got.cif
#   From: 2010.05.17/outbox.cif.g08.bks.cpg/sg69_19_cif.got.tgz:36657.got - 2010.06.03 19:29:58.
