data_PCOD9512347
_publ_section_title
;
Structure prediction by ZEFSAII (Michael W. Deem and Ramdas Pophale) SiO2 
 PCOD9512347
Probable space group: F M M M
;
_chemical_formula_sum "Si O2"
_cell_formula_units_Z 192
_cell_length_a 28.590382
_cell_length_b 21.333994
_cell_length_c 17.803843
_cell_angle_alpha 90.000000
_cell_angle_beta 90.000000
_cell_angle_gamma 90.000000
_cell_volume 10859.401304
_symmetry_space_group_name_H-M "F M M M"
_symmetry_group_IT_number 69
_symmetry_cell_setting 'orthorhombic'
loop_
_space_group_symop_operation_xyz
x,y,z
-x,-y,z
x,-y,-z
-x,y,-z
-x,-y,-z
x,y,-z
-x,y,z
x,-y,z
x,1/2+y,1/2+z
-x,1/2-y,1/2+z
x,1/2-y,1/2-z
-x,1/2+y,1/2-z
-x,1/2-y,1/2-z
x,1/2+y,1/2-z
-x,1/2+y,1/2+z
x,1/2-y,1/2+z
1/2+x,y,1/2+z
1/2-x,-y,1/2+z
1/2+x,-y,1/2-z
1/2-x,y,1/2-z
1/2-x,-y,1/2-z
1/2+x,y,1/2-z
1/2-x,y,1/2+z
1/2+x,-y,1/2+z
1/2+x,1/2+y,z
1/2-x,1/2-y,z
1/2+x,1/2-y,-z
1/2-x,1/2+y,-z
1/2-x,1/2-y,-z
1/2+x,1/2+y,-z
1/2-x,1/2+y,z
1/2+x,1/2-y,z
loop_
_atom_site_type_symbol
_atom_site_label
_atom_site_fract_x
_atom_site_fract_y
_atom_site_fract_z
Si Si1 0.372137 0.732563 0.410765
Si Si2 0.375051 0.642069 0.182255
Si Si3 0.449738 0.427841 0.910264
Si Si4 0.228694 0.816364 0.588832
Si Si5 0.446402 0.312521 0.301592
Si Si6 0.279065 0.071124 0.326181
O O1 0.374204 0.749124 0.500000
O O2 0.362406 0.790863 0.354513
O O3 0.327314 0.687321 0.400694
O O4 0.420859 0.704401 0.379926
O O5 0.407418 0.610787 0.119857
O O6 0.408362 0.647096 0.255109
O O7 0.329626 0.600022 0.192472
O O8 0.500000 0.401766 0.884227
O O9 0.446573 0.500000 0.885713
O O10 0.449774 0.427598 0.000000
O O11 0.238268 0.817380 0.500000
O O12 0.250000 0.750000 0.618028
O O13 0.252697 0.877291 0.623430
O O14 0.500000 0.335932 0.309472
O O15 0.449353 0.250000 0.250000
O O16 0.250000 0.067326 0.250000
O O17 0.282814 0.000000 0.357702
#
# Coordination Sequence:
#
# PCOD9512347 Si02
#       6
#    32  32  32  32  32  32
#     4  10  20  34  54  79 105 137 182 230 279 335
#     4  11  19  33  54  76 104 142 186 228 270 326
#     4   9  18  31  47  72 107 143 177 214 261 320
#     4  10  20  37  57  80 109 144 189 235 280 341
#     4   9  19  33  49  74 106 139 178 225 275 325
#     4  11  24  38  54  81 114 146 185 233 284 337
#
# _framework density 17.680531999999999
#
# number of rings (size 3 to 8) (size 9 to 14) (size 15 to 20)
#    0.000    2.000    1.667    3.000    0.000    2.333 
#    0.000    0.000    0.000    0.000    0.000    0.000 
#    0.000    0.000    0.000   21.167    0.000    0.000 
#
# Total GULP energy -267445.130798 kJ/mol
# GULP energy per Si atom -5571.773558 kJ/mol
# Density = 1.764029 g / cm^3
# Si number density = 17.680532 Si / 1000 Ang^3
#
#
#
# Elastic Constant Matrix: (Units=GPa)
#
#
# Indices 1 2 3 4 5 6 
#
# 1 130.5638 53.7406 31.5891 0.0000 0.0000 0.0000
# 2 53.7406 91.5866 24.3546 0.0000 0.0000 0.0000
# 3 31.5891 24.3546 39.4815 0.0000 0.0000 0.0000
# 4 0.0000 0.0000 0.0000 20.6087 0.0000 0.0000
# 5 0.0000 0.0000 0.0000 0.0000 24.3168 0.0000
# 6 0.0000 0.0000 0.0000 0.0000 0.0000 19.9778
#
#
#
# Elastic Compliance Matrix: (Units=1/GPa)
#
#
# Indices 1 2 3 4 5 6 
#
# 1 0.011116 -0.004973 -0.005826 0.000000 0.000000 0.000000
# 2 -0.004973 0.015286 -0.005450 0.000000 0.000000 0.000000
# 3 -0.005826 -0.005450 0.033352 0.000000 0.000000 0.000000
# 4 0.000000 0.000000 0.000000 0.048523 0.000000 0.000000
# 5 0.000000 0.000000 0.000000 0.000000 0.041124 0.000000
# 6 0.000000 0.000000 0.000000 0.000000 0.000000 0.050055
#
#
# Mechanical properties :
#
#
# Convention : Reuss Voigt Hill
#
# Bulk Modulus (GPa) = 36.69099 53.44449 45.06774
# Shear Modulus (GPa) = 20.74349 23.11051 21.92700
#
# Velocity S-wave (km/s) = 3.42897 3.61933 3.52544
# Velocity P-wave (km/s) = 6.03940 6.91083 6.48976
#
# Compressibility (1/GPa) = 0.02725465
#
# Stress axis : x y z
#
# Youngs Moduli (GPa) = 89.96393 65.41896 29.98351
#
# Poissons Ratio (x) = 0.32534 0.17468
# Poissons Ratio (y) = 0.44740 0.16342
# Poissons Ratio (z) = 0.52411 0.35656
#
# Static dielectric constant tensor:
#      x y z
#    x 1.628480 0.000000 0.000000 
#    y 0.000000 1.644450 0.000000 
#    z 0.000000 0.000000 1.610410 
# 
# From -- ./inp_files/32807.got.cif
#   From: 2010.05.17/outbox.cif.g08.bks.cpg/sg69_17_cif.got.tgz:32807.got - 2010.06.03 19:29:58.
