data_PCOD9512105
_publ_section_title
;
Structure prediction by ZEFSAII (Michael W. Deem and Ramdas Pophale) SiO2 
 PCOD9512105
Probable space group: F M M M
;
_chemical_formula_sum "Si O2"
_cell_formula_units_Z 192
_cell_length_a 33.467569
_cell_length_b 23.641262
_cell_length_c 14.355673
_cell_angle_alpha 90.000000
_cell_angle_beta 90.000000
_cell_angle_gamma 90.000000
_cell_volume 11358.431956
_symmetry_space_group_name_H-M "F M M M"
_symmetry_group_IT_number 69
_symmetry_cell_setting 'orthorhombic'
loop_
_space_group_symop_operation_xyz
x,y,z
-x,-y,z
x,-y,-z
-x,y,-z
-x,-y,-z
x,y,-z
-x,y,z
x,-y,z
x,1/2+y,1/2+z
-x,1/2-y,1/2+z
x,1/2-y,1/2-z
-x,1/2+y,1/2-z
-x,1/2-y,1/2-z
x,1/2+y,1/2-z
-x,1/2+y,1/2+z
x,1/2-y,1/2+z
1/2+x,y,1/2+z
1/2-x,-y,1/2+z
1/2+x,-y,1/2-z
1/2-x,y,1/2-z
1/2-x,-y,1/2-z
1/2+x,y,1/2-z
1/2-x,y,1/2+z
1/2+x,-y,1/2+z
1/2+x,1/2+y,z
1/2-x,1/2-y,z
1/2+x,1/2-y,-z
1/2-x,1/2+y,-z
1/2-x,1/2-y,-z
1/2+x,1/2+y,-z
1/2-x,1/2+y,z
1/2+x,1/2-y,z
loop_
_atom_site_type_symbol
_atom_site_label
_atom_site_fract_x
_atom_site_fract_y
_atom_site_fract_z
Si Si1 0.000000 0.930928 0.608105
Si Si2 0.335396 0.565278 0.388195
Si Si3 0.918819 0.931654 0.296218
Si Si4 0.114332 0.933479 0.104517
Si Si5 0.727285 0.837135 0.110164
Si Si6 0.821778 0.338477 0.392769
Si Si7 0.686779 0.750000 0.750000
O O1 0.040760 0.910670 0.656449
O O2 0.000000 0.915703 0.500000
O O3 0.000000 0.000000 0.613160
O O4 0.340335 0.564932 0.500000
O O5 0.327939 0.500000 0.358777
O O6 0.376978 0.585944 0.343361
O O7 0.299073 0.607521 0.367053
O O8 0.915833 0.918637 0.186990
O O9 0.919253 0.000000 0.306546
O O10 0.153933 0.896275 0.116630
O O11 0.123821 0.000000 0.113134
O O12 0.098886 0.923559 0.000000
O O13 0.774442 0.846709 0.123277
O O14 0.712171 0.787296 0.176781
O O15 0.721235 0.823467 0.000000
O O16 0.826750 0.318713 0.500000
O O17 0.836378 0.293582 0.316401
#
# Coordination Sequence:
#
# PCOD9512105 Si02
#       7
#    16  32  32  32  32  32  16
#     4   9  16  26  43  67  93 122 154 183 215 264
#     4   9  17  29  45  66  93 121 148 185 233 279
#     4   9  16  27  43  64  91 122 153 183 220 269
#     4   9  18  32  48  66  91 123 157 192 227 264
#     4  10  20  31  45  66  89 118 157 195 232 275
#     4  10  20  32  47  66  88 120 160 196 231 272
#     4  12  21  32  46  60  86 121 156 199 242 272
#
# _framework density 16.903742999999999
#
# number of rings (size 3 to 8) (size 9 to 14) (size 15 to 20)
#    0.000    2.417    0.000    3.500    0.000    4.000 
#    0.000    3.750    0.000    7.500    0.000    0.000 
#    0.000   10.667    0.000   31.333    0.000    7.333 
#
# Total GULP energy -267576.512098 kJ/mol
# GULP energy per Si atom -5574.510669 kJ/mol
# Density = 1.686527 g / cm^3
# Si number density = 16.903743 Si / 1000 Ang^3
#
#
#
# Elastic Constant Matrix: (Units=GPa)
#
#
# Indices 1 2 3 4 5 6 
#
# 1 56.0459 28.7079 48.4145 0.0000 0.0000 0.0000
# 2 28.7079 50.8479 43.9185 0.0000 0.0000 0.0000
# 3 48.4145 43.9185 101.3333 0.0000 0.0000 0.0000
# 4 0.0000 0.0000 0.0000 26.2396 0.0000 0.0000
# 5 0.0000 0.0000 0.0000 0.0000 25.4869 0.0000
# 6 0.0000 0.0000 0.0000 0.0000 0.0000 1.1515
#
#
#
# Elastic Compliance Matrix: (Units=1/GPa)
#
#
# Indices 1 2 3 4 5 6 
#
# 1 0.032218 -0.007823 -0.012002 0.000000 0.000000 0.000000
# 2 -0.007823 0.033333 -0.010709 0.000000 0.000000 0.000000
# 3 -0.012002 -0.010709 0.020244 0.000000 0.000000 0.000000
# 4 0.000000 0.000000 0.000000 0.038110 0.000000 0.000000
# 5 0.000000 0.000000 0.000000 0.000000 0.039236 0.000000
# 6 0.000000 0.000000 0.000000 0.000000 0.000000 0.868400
#
#
# Mechanical properties :
#
#
# Convention : Reuss Voigt Hill
#
# Bulk Modulus (GPa) = 40.44303 50.03435 45.23869
# Shear Modulus (GPa) = 4.54194 16.38801 10.46497
#
# Velocity S-wave (km/s) = 1.64097 3.11704 2.49086
# Velocity P-wave (km/s) = 5.25050 6.52828 5.92394
#
# Compressibility (1/GPa) = 0.02472614
#
# Stress axis : x y z
#
# Youngs Moduli (GPa) = 31.03893 30.00039 49.39687
#
# Poissons Ratio (x) = 0.23469 0.59287
# Poissons Ratio (y) = 0.24281 0.52900
# Poissons Ratio (z) = 0.37254 0.32128
#
# Static dielectric constant tensor:
#      x y z
#    x 1.543760 0.000000 0.000000 
#    y 0.000000 1.576150 0.000000 
#    z 0.000000 0.000000 1.625620 
# 
# From -- ./inp_files/19830.got.cif
#   From: 2010.05.17/outbox.cif.g08.bks.cpg/sg69_10_cif.got.tgz:19830.got - 2010.06.03 19:29:58.
