data_PCOD9512114
_publ_section_title
;
Structure prediction by ZEFSAII (Michael W. Deem and Ramdas Pophale) SiO2 
 PCOD9512114
Probable space group: F M M M
;
_chemical_formula_sum "Si O2"
_cell_formula_units_Z 128
_cell_length_a 23.991522
_cell_length_b 16.981655
_cell_length_c 15.569413
_cell_angle_alpha 90.000000
_cell_angle_beta 90.000000
_cell_angle_gamma 90.000000
_cell_volume 6343.224067
_symmetry_space_group_name_H-M "F M M M"
_symmetry_group_IT_number 69
_symmetry_cell_setting 'orthorhombic'
loop_
_space_group_symop_operation_xyz
x,y,z
-x,-y,z
x,-y,-z
-x,y,-z
-x,-y,-z
x,y,-z
-x,y,z
x,-y,z
x,1/2+y,1/2+z
-x,1/2-y,1/2+z
x,1/2-y,1/2-z
-x,1/2+y,1/2-z
-x,1/2-y,1/2-z
x,1/2+y,1/2-z
-x,1/2+y,1/2+z
x,1/2-y,1/2+z
1/2+x,y,1/2+z
1/2-x,-y,1/2+z
1/2+x,-y,1/2-z
1/2-x,y,1/2-z
1/2-x,-y,1/2-z
1/2+x,y,1/2-z
1/2-x,y,1/2+z
1/2+x,-y,1/2+z
1/2+x,1/2+y,z
1/2-x,1/2-y,z
1/2+x,1/2-y,-z
1/2-x,1/2+y,-z
1/2-x,1/2-y,-z
1/2+x,1/2+y,-z
1/2-x,1/2+y,z
1/2+x,1/2-y,z
loop_
_atom_site_type_symbol
_atom_site_label
_atom_site_fract_x
_atom_site_fract_y
_atom_site_fract_z
Si Si1 0.335151 0.707290 0.157431
Si Si2 0.875566 0.369425 0.094802
Si Si3 0.061262 0.845877 0.760757
Si Si4 0.247155 0.915209 0.646235
O O1 0.320774 0.750000 0.250000
O O2 0.359763 0.776669 0.100188
O O3 0.384992 0.645918 0.178508
O O4 0.283407 0.659995 0.119817
O O5 0.920681 0.381757 0.169397
O O6 0.816659 0.408927 0.117628
O O7 0.894204 0.391302 0.000000
O O8 0.058485 0.750000 0.750000
O O9 0.000000 0.872262 0.788652
O O10 0.250000 0.913688 0.750000
O O11 0.269491 0.000000 0.617105
#
# Coordination Sequence:
#
# PCOD9512114 Si02
#       4
#    32  32  32  32
#     4   9  17  31  50  70  96 126 162 202 239 285
#     4  10  20  31  49  75 100 128 160 200 247 293
#     4   8  15  29  49  71  97 128 160 199 240 282
#     4  11  20  31  49  69  94 131 166 197 239 291
#
# _framework density 20.179012
#
# number of rings (size 3 to 8) (size 9 to 14) (size 15 to 20)
#    0.000    3.000    5.000    0.750    0.000    3.000 
#    0.000    0.000    0.000    3.000    0.000    1.750 
#    0.000    0.000    0.000   27.250    0.000    0.000 
#
# Total GULP energy -178260.031523 kJ/mol
# GULP energy per Si atom -5570.625985 kJ/mol
# Density = 2.013308 g / cm^3
# Si number density = 20.179012 Si / 1000 Ang^3
#
#
#
# Elastic Constant Matrix: (Units=GPa)
#
#
# Indices 1 2 3 4 5 6 
#
# 1 89.4168 17.3719 -0.6528 0.0000 0.0000 0.0000
# 2 17.3719 45.1239 -1.0860 0.0000 0.0000 0.0000
# 3 -0.6528 -1.0860 48.6042 0.0000 0.0000 0.0000
# 4 0.0000 0.0000 0.0000 -6.7353 0.0000 0.0000
# 5 0.0000 0.0000 0.0000 0.0000 11.0550 0.0000
# 6 0.0000 0.0000 0.0000 0.0000 0.0000 2.6455
#
#
#
# Elastic Compliance Matrix: (Units=1/GPa)
#
#
# Indices 1 2 3 4 5 6 
#
# 1 0.012088 -0.004652 0.000058 0.000000 0.000000 0.000000
# 2 -0.004652 0.023964 0.000473 0.000000 0.000000 0.000000
# 3 0.000058 0.000473 0.020586 0.000000 0.000000 0.000000
# 4 0.000000 0.000000 0.000000 -0.148472 0.000000 0.000000
# 5 0.000000 0.000000 0.000000 0.000000 0.090457 0.000000
# 6 0.000000 0.000000 0.000000 0.000000 0.000000 0.378002
#
#
# Mechanical properties :
#
#
# Convention : Reuss Voigt Hill
#
# Bulk Modulus (GPa) = 20.66310 23.82345 22.24327
# Shear Modulus (GPa) = 12.46891 12.56050 12.51471
#
# Velocity S-wave (km/s) = 2.48849 2.49761 2.49305
# Velocity P-wave (km/s) = 4.30336 4.48877 4.39704
#
# Compressibility (1/GPa) = 0.04839545
#
# Stress axis : x y z
#
# Youngs Moduli (GPa) = 82.72776 41.72997 48.57740
#
# Poissons Ratio (x) = 0.19414 -0.00284
# Poissons Ratio (y) = 0.38487 -0.02297
# Poissons Ratio (z) = -0.00483 -0.01974
#
# Static dielectric constant tensor:
#      x y z
#    x 1.740990 0.000000 0.000000 
#    y 0.000000 1.780440 0.000000 
#    z 0.000000 0.000000 1.739870 
# 
# From -- ./inp_files/25679.got.cif
#   From: 2010.05.17/outbox.cif.g08.bks.cpg/sg69_13_cif.got.tgz:25679.got - 2010.06.03 19:29:58.
