data_PCOD9512074
_publ_section_title
;
Structure prediction by ZEFSAII (Michael W. Deem and Ramdas Pophale) SiO2 
 PCOD9512074
Probable space group: F M M M
;
_chemical_formula_sum "Si O2"
_cell_formula_units_Z 120
_cell_length_a 32.366448
_cell_length_b 14.918512
_cell_length_c 14.066526
_cell_angle_alpha 90.000000
_cell_angle_beta 90.000000
_cell_angle_gamma 90.000000
_cell_volume 6792.152094
_symmetry_space_group_name_H-M "F M M M"
_symmetry_group_IT_number 69
_symmetry_cell_setting 'orthorhombic'
loop_
_space_group_symop_operation_xyz
x,y,z
-x,-y,z
x,-y,-z
-x,y,-z
-x,-y,-z
x,y,-z
-x,y,z
x,-y,z
x,1/2+y,1/2+z
-x,1/2-y,1/2+z
x,1/2-y,1/2-z
-x,1/2+y,1/2-z
-x,1/2-y,1/2-z
x,1/2+y,1/2-z
-x,1/2+y,1/2+z
x,1/2-y,1/2+z
1/2+x,y,1/2+z
1/2-x,-y,1/2+z
1/2+x,-y,1/2-z
1/2-x,y,1/2-z
1/2-x,-y,1/2-z
1/2+x,y,1/2-z
1/2-x,y,1/2+z
1/2+x,-y,1/2+z
1/2+x,1/2+y,z
1/2-x,1/2-y,z
1/2+x,1/2-y,-z
1/2-x,1/2+y,-z
1/2-x,1/2-y,-z
1/2+x,1/2+y,-z
1/2-x,1/2+y,z
1/2+x,1/2-y,z
loop_
_atom_site_type_symbol
_atom_site_label
_atom_site_fract_x
_atom_site_fract_y
_atom_site_fract_z
Si Si1 0.349314 0.597190 0.606259
Si Si2 0.950763 0.000000 0.887411
Si Si3 0.316088 0.207321 0.390685
Si Si4 0.750000 0.250000 0.250000
Si Si5 0.399898 0.152455 0.716153
O O1 0.367873 0.601615 0.500000
O O2 0.328507 0.500000 0.615559
O O3 0.320715 0.684278 0.612960
O O4 0.382993 0.606330 0.688286
O O5 0.930853 0.912201 0.838699
O O6 0.000000 0.000000 0.875474
O O7 0.941350 0.000000 0.000000
O O8 0.309389 0.180382 0.500000
O O9 0.278939 0.190122 0.318487
O O10 0.359250 0.170217 0.349427
O O11 0.415968 0.250000 0.750000
#
# Coordination Sequence:
#
# PCOD9512074 Si02
#       5
#    32  16  32   8  32
#     4   9  16  30  54  78 103 141 189 230 278 341
#     4  11  24  40  63  92 119 151 194 246 299 357
#     4  10  20  33  52  79 110 150 192 237 287 339
#     4  12  18  32  50  82 110 148 192 244 276 340
#     4  10  19  37  60  84 116 154 194 233 293 354
#
# _framework density 17.667449999999999
#
# number of rings (size 3 to 8) (size 9 to 14) (size 15 to 20)
#    0.000    2.000    5.333    1.200    0.000    1.600 
#    0.000    0.667    2.933    1.600    0.000    0.000 
#    0.000    0.000    0.000    0.000    0.000    0.000 
#
# Total GULP energy -167107.927054 kJ/mol
# GULP energy per Si atom -5570.264235 kJ/mol
# Density = 1.762724 g / cm^3
# Si number density = 17.667450 Si / 1000 Ang^3
#
#
#
# Elastic Constant Matrix: (Units=GPa)
#
#
# Indices 1 2 3 4 5 6 
#
# 1 83.0787 40.8560 59.8985 0.0000 0.0000 0.0000
# 2 40.8560 91.3713 43.0057 0.0000 0.0000 0.0000
# 3 59.8985 43.0057 161.5435 0.0000 0.0000 0.0000
# 4 0.0000 0.0000 0.0000 20.1317 0.0000 0.0000
# 5 0.0000 0.0000 0.0000 0.0000 26.2199 0.0000
# 6 0.0000 0.0000 0.0000 0.0000 0.0000 10.1733
#
#
#
# Elastic Compliance Matrix: (Units=1/GPa)
#
#
# Indices 1 2 3 4 5 6 
#
# 1 0.018831 -0.005869 -0.005420 0.000000 0.000000 0.000000
# 2 -0.005869 0.014341 -0.001642 0.000000 0.000000 0.000000
# 3 -0.005420 -0.001642 0.008637 0.000000 0.000000 0.000000
# 4 0.000000 0.000000 0.000000 0.049673 0.000000 0.000000
# 5 0.000000 0.000000 0.000000 0.000000 0.038139 0.000000
# 6 0.000000 0.000000 0.000000 0.000000 0.000000 0.098296
#
#
# Mechanical properties :
#
#
# Convention : Reuss Voigt Hill
#
# Bulk Modulus (GPa) = 62.70444 69.27931 65.99187
# Shear Modulus (GPa) = 19.29801 24.12053 21.70927
#
# Velocity S-wave (km/s) = 3.30857 3.69894 3.50919
# Velocity P-wave (km/s) = 7.08266 7.58558 7.33843
#
# Compressibility (1/GPa) = 0.01594783
#
# Stress axis : x y z
#
# Youngs Moduli (GPa) = 53.10518 69.72829 115.78208
#
# Poissons Ratio (x) = 0.40924 0.62751
# Poissons Ratio (y) = 0.31168 0.19009
# Poissons Ratio (z) = 0.28781 0.11448
#
# Static dielectric constant tensor:
#      x y z
#    x 1.581640 0.000000 0.000000 
#    y 0.000000 1.630100 0.000000 
#    z 0.000000 0.000000 1.632020 
# 
# From -- ./inp_files/19307.got.cif
#   From: 2010.05.17/outbox.cif.g08.bks.cpg/sg69_10_cif.got.tgz:19307.got - 2010.06.03 19:29:58.
