data_PCOD9512388
_publ_section_title
;
Structure prediction by ZEFSAII (Michael W. Deem and Ramdas Pophale) SiO2 
 PCOD9512388
Probable space group: F M M M
;
_chemical_formula_sum "Si O2"
_cell_formula_units_Z 160
_cell_length_a 27.534589
_cell_length_b 17.677496
_cell_length_c 18.952990
_cell_angle_alpha 90.000000
_cell_angle_beta 90.000000
_cell_angle_gamma 90.000000
_cell_volume 9225.227382
_symmetry_space_group_name_H-M "F M M M"
_symmetry_group_IT_number 69
_symmetry_cell_setting 'orthorhombic'
loop_
_space_group_symop_operation_xyz
x,y,z
-x,-y,z
x,-y,-z
-x,y,-z
-x,-y,-z
x,y,-z
-x,y,z
x,-y,z
x,1/2+y,1/2+z
-x,1/2-y,1/2+z
x,1/2-y,1/2-z
-x,1/2+y,1/2-z
-x,1/2-y,1/2-z
x,1/2+y,1/2-z
-x,1/2+y,1/2+z
x,1/2-y,1/2+z
1/2+x,y,1/2+z
1/2-x,-y,1/2+z
1/2+x,-y,1/2-z
1/2-x,y,1/2-z
1/2-x,-y,1/2-z
1/2+x,y,1/2-z
1/2-x,y,1/2+z
1/2+x,-y,1/2+z
1/2+x,1/2+y,z
1/2-x,1/2-y,z
1/2+x,1/2-y,-z
1/2-x,1/2+y,-z
1/2-x,1/2-y,-z
1/2+x,1/2+y,-z
1/2-x,1/2+y,z
1/2+x,1/2-y,z
loop_
_atom_site_type_symbol
_atom_site_label
_atom_site_fract_x
_atom_site_fract_y
_atom_site_fract_z
Si Si1 0.283179 0.411751 0.815738
Si Si2 0.618851 0.818539 0.695840
Si Si3 0.441940 0.411495 0.307021
Si Si4 0.392214 0.301292 0.584353
Si Si5 0.777945 0.174917 0.583551
O O1 0.294530 0.500000 0.807617
O O2 0.250000 0.386855 0.750000
O O3 0.332386 0.364477 0.819869
O O4 0.248844 0.395532 0.882017
O O5 0.629879 0.750000 0.750000
O O6 0.581955 0.872290 0.738396
O O7 0.598900 0.777889 0.625343
O O8 0.500000 0.405692 0.303493
O O9 0.428357 0.500000 0.311021
O O10 0.422697 0.365402 0.375100
O O11 0.400297 0.298163 0.500000
O O12 0.335135 0.319419 0.597656
O O13 0.771841 0.172402 0.500000
O O14 0.750000 0.250000 0.610324
#
# Coordination Sequence:
#
# PCOD9512388 Si02
#       5
#    32  32  32  32  32
#     4  11  22  32  49  80 111 142 185 232 273 317
#     4  10  20  34  56  80 107 144 184 228 275 332
#     4  10  22  40  60  82 111 147 185 231 288 341
#     4  10  21  36  58  85 112 145 188 233 277 330
#     4  10  20  35  54  76 109 151 186 217 266 326
#
# _framework density 17.343745999999999
#
# number of rings (size 3 to 8) (size 9 to 14) (size 15 to 20)
#    0.000    1.800    2.000    3.000    0.000    7.200 
#    0.000    3.000    0.000    1.800    0.000    1.400 
#    0.000    0.000    0.000    0.000    0.000    0.000 
#
# Total GULP energy -223177.981952 kJ/mol
# GULP energy per Si atom -5579.449549 kJ/mol
# Density = 1.730427 g / cm^3
# Si number density = 17.343746 Si / 1000 Ang^3
#
#
#
# Elastic Constant Matrix: (Units=GPa)
#
#
# Indices 1 2 3 4 5 6 
#
# 1 66.5502 50.5488 53.1816 0.0000 0.0000 0.0000
# 2 50.5488 102.4001 56.0475 0.0000 0.0000 0.0000
# 3 53.1816 56.0475 95.7067 0.0000 0.0000 0.0000
# 4 0.0000 0.0000 0.0000 10.3659 0.0000 0.0000
# 5 0.0000 0.0000 0.0000 0.0000 23.3742 0.0000
# 6 0.0000 0.0000 0.0000 0.0000 0.0000 32.0614
#
#
#
# Elastic Compliance Matrix: (Units=1/GPa)
#
#
# Indices 1 2 3 4 5 6 
#
# 1 0.031659 -0.008829 -0.012421 0.000000 0.000000 0.000000
# 2 -0.008829 0.016835 -0.004953 0.000000 0.000000 0.000000
# 3 -0.012421 -0.004953 0.020251 0.000000 0.000000 0.000000
# 4 0.000000 0.000000 0.000000 0.096470 0.000000 0.000000
# 5 0.000000 0.000000 0.000000 0.000000 0.042782 0.000000
# 6 0.000000 0.000000 0.000000 0.000000 0.000000 0.031190
#
#
# Mechanical properties :
#
#
# Convention : Reuss Voigt Hill
#
# Bulk Modulus (GPa) = 61.20595 64.91253 63.05924
# Shear Modulus (GPa) = 16.83275 20.15224 18.49250
#
# Velocity S-wave (km/s) = 3.11872 3.41241 3.26887
# Velocity P-wave (km/s) = 6.95235 7.28247 7.11932
#
# Compressibility (1/GPa) = 0.01633828
#
# Stress axis : x y z
#
# Youngs Moduli (GPa) = 31.58678 59.40049 49.38018
#
# Poissons Ratio (x) = 0.52447 0.61337
# Poissons Ratio (y) = 0.27889 0.24456
# Poissons Ratio (z) = 0.39235 0.29418
#
# Static dielectric constant tensor:
#      x y z
#    x 1.572350 0.000000 0.000000 
#    y 0.000000 1.600760 0.000000 
#    z 0.000000 0.000000 1.214090 
# 
# From -- ./inp_files/23088.got.cif
#   From: 2010.05.17/outbox.cif.g08.bks.cpg/sg69_12_cif.got.tgz:23088.got - 2010.06.03 19:29:58.
