data_PCOD9512620
_publ_section_title
;
Structure prediction by ZEFSAII (Michael W. Deem and Ramdas Pophale) SiO2 
 PCOD9512620
Probable space group: F M M M
;
_chemical_formula_sum "Si O2"
_cell_formula_units_Z 208
_cell_length_a 20.020756
_cell_length_b 31.917427
_cell_length_c 17.870117
_cell_angle_alpha 90.000000
_cell_angle_beta 90.000000
_cell_angle_gamma 90.000000
_cell_volume 11419.201658
_symmetry_space_group_name_H-M "F M M M"
_symmetry_group_IT_number 69
_symmetry_cell_setting 'orthorhombic'
loop_
_space_group_symop_operation_xyz
x,y,z
-x,-y,z
x,-y,-z
-x,y,-z
-x,-y,-z
x,y,-z
-x,y,z
x,-y,z
x,1/2+y,1/2+z
-x,1/2-y,1/2+z
x,1/2-y,1/2-z
-x,1/2+y,1/2-z
-x,1/2-y,1/2-z
x,1/2+y,1/2-z
-x,1/2+y,1/2+z
x,1/2-y,1/2+z
1/2+x,y,1/2+z
1/2-x,-y,1/2+z
1/2+x,-y,1/2-z
1/2-x,y,1/2-z
1/2-x,-y,1/2-z
1/2+x,y,1/2-z
1/2-x,y,1/2+z
1/2+x,-y,1/2+z
1/2+x,1/2+y,z
1/2-x,1/2-y,z
1/2+x,1/2-y,-z
1/2-x,1/2+y,-z
1/2-x,1/2-y,-z
1/2+x,1/2+y,-z
1/2-x,1/2+y,z
1/2+x,1/2-y,z
loop_
_atom_site_type_symbol
_atom_site_label
_atom_site_fract_x
_atom_site_fract_y
_atom_site_fract_z
Si Si1 0.925653 0.000000 0.090904
Si Si2 0.699648 0.712322 0.411668
Si Si3 0.921585 0.151251 0.819284
Si Si4 0.576577 0.753205 0.662603
Si Si5 0.344807 0.581183 0.911220
Si Si6 0.215790 0.952200 0.668259
Si Si7 0.684065 0.636005 0.303096
O O1 0.888407 0.041494 0.114093
O O2 0.000000 0.000000 0.119396
O O3 0.926430 0.000000 0.000000
O O4 0.709149 0.706197 0.500000
O O5 0.750000 0.750000 0.387008
O O6 0.626371 0.729107 0.390934
O O7 0.705298 0.668423 0.367826
O O8 0.921407 0.197445 0.854421
O O9 0.877505 0.120352 0.869939
O O10 0.880282 0.152784 0.741763
O O11 0.000000 0.138870 0.811402
O O12 0.500000 0.738251 0.658044
O O13 0.597345 0.750000 0.750000
O O14 0.271189 0.566794 0.887722
O O15 0.349015 0.586781 0.000000
O O16 0.250000 0.955820 0.750000
O O17 0.167027 0.912140 0.674664
O O18 0.194878 0.000000 0.647907
O O19 0.750000 0.634318 0.250000
#
# Coordination Sequence:
#
# PCOD9512620 Si02
#       7
#    16  32  32  32  32  32  32
#     4   9  18  32  49  74 114 156 185 220 279 344
#     4  11  25  39  58  91 122 150 194 248 297 346
#     4  11  22  37  59  87 117 154 197 235 281 349
#     4  10  21  39  63  85 113 155 195 233 286 351
#     4  11  21  35  55  82 118 155 190 233 288 346
#     4  10  20  36  58  81 109 151 200 242 285 340
#     4  11  21  39  61  83 113 160 196 240 296 348
#
# _framework density 18.214932999999998
#
# number of rings (size 3 to 8) (size 9 to 14) (size 15 to 20)
#    0.000    1.462    5.385    1.385    0.000    2.462 
#    0.000    1.538    0.000    0.000    0.000    0.000 
#    0.000    0.000    0.000    4.154    0.000    0.000 
#
# Total GULP energy -289824.973600 kJ/mol
# GULP energy per Si atom -5573.557185 kJ/mol
# Density = 1.817348 g / cm^3
# Si number density = 18.214933 Si / 1000 Ang^3
#
#
#
# Elastic Constant Matrix: (Units=GPa)
#
#
# Indices 1 2 3 4 5 6 
#
# 1 44.9104 12.2208 10.9410 0.0000 0.0000 0.0000
# 2 12.2208 126.9533 35.2012 0.0000 0.0000 0.0000
# 3 10.9410 35.2012 55.7232 0.0000 0.0000 0.0000
# 4 0.0000 0.0000 0.0000 -53.3519 0.0000 0.0000
# 5 0.0000 0.0000 0.0000 0.0000 15.6896 0.0000
# 6 0.0000 0.0000 0.0000 0.0000 0.0000 799.4600
#
#
#
# Elastic Compliance Matrix: (Units=1/GPa)
#
#
# Indices 1 2 3 4 5 6 
#
# 1 0.023533 -0.001193 -0.003867 0.000000 0.000000 0.000000
# 2 -0.001193 0.009610 -0.005837 0.000000 0.000000 0.000000
# 3 -0.003867 -0.005837 0.022392 0.000000 0.000000 0.000000
# 4 0.000000 0.000000 0.000000 -0.018743 0.000000 0.000000
# 5 0.000000 0.000000 0.000000 0.000000 0.063736 0.000000
# 6 0.000000 0.000000 0.000000 0.000000 0.000000 0.001251
#
#
# Mechanical properties :
#
#
# Convention : Reuss Voigt Hill
#
# Bulk Modulus (GPa) = 29.63645 38.25699 33.94672
# Shear Modulus (GPa) = 37.08648 163.64114 100.36381
#
# Velocity S-wave (km/s) = 4.51715 9.48863 7.43097
# Velocity P-wave (km/s) = 6.59636 11.87830 9.60745
#
# Compressibility (1/GPa) = 0.03374223
#
# Stress axis : x y z
#
# Youngs Moduli (GPa) = 42.49302 104.05706 44.65849
#
# Poissons Ratio (x) = 0.12416 0.17269
# Poissons Ratio (y) = 0.05070 0.26065
# Poissons Ratio (z) = 0.16432 0.60734
#
# Static dielectric constant tensor:
#      x y z
#    x 1.644100 0.000000 0.000000 
#    y 0.000000 1.660220 0.000000 
#    z 0.000000 0.000000 1.631980 
# 
# From -- ./inp_files/25202.got.cif
#   From: 2010.05.17/outbox.cif.g08.bks.cpg/sg69_13_cif.got.tgz:25202.got - 2010.06.03 19:29:58.
