data_PCOD9512133
_publ_section_title
;
Structure prediction by ZEFSAII (Michael W. Deem and Ramdas Pophale) SiO2 
 PCOD9512133
Probable space group: F M M M
;
_chemical_formula_sum "Si O2"
_cell_formula_units_Z 160
_cell_length_a 8.781839
_cell_length_b 30.797772
_cell_length_c 29.807424
_cell_angle_alpha 90.000000
_cell_angle_beta 90.000000
_cell_angle_gamma 90.000000
_cell_volume 8061.747946
_symmetry_space_group_name_H-M "F M M M"
_symmetry_group_IT_number 69
_symmetry_cell_setting 'orthorhombic'
loop_
_space_group_symop_operation_xyz
x,y,z
-x,-y,z
x,-y,-z
-x,y,-z
-x,-y,-z
x,y,-z
-x,y,z
x,-y,z
x,1/2+y,1/2+z
-x,1/2-y,1/2+z
x,1/2-y,1/2-z
-x,1/2+y,1/2-z
-x,1/2-y,1/2-z
x,1/2+y,1/2-z
-x,1/2+y,1/2+z
x,1/2-y,1/2+z
1/2+x,y,1/2+z
1/2-x,-y,1/2+z
1/2+x,-y,1/2-z
1/2-x,y,1/2-z
1/2-x,-y,1/2-z
1/2+x,y,1/2-z
1/2-x,y,1/2+z
1/2+x,-y,1/2+z
1/2+x,1/2+y,z
1/2-x,1/2-y,z
1/2+x,1/2-y,-z
1/2-x,1/2+y,-z
1/2-x,1/2-y,-z
1/2+x,1/2+y,-z
1/2-x,1/2+y,z
1/2+x,1/2-y,z
loop_
_atom_site_type_symbol
_atom_site_label
_atom_site_fract_x
_atom_site_fract_y
_atom_site_fract_z
Si Si1 0.679689 0.680174 0.703306
Si Si2 0.182979 0.551196 0.000000
Si Si3 0.682855 0.204355 0.898060
Si Si4 0.824476 0.406101 0.674266
Si Si5 0.324958 0.382460 0.930067
Si Si6 0.316283 0.000000 0.299127
O O1 0.500000 0.686380 0.705628
O O2 0.750000 0.696919 0.750000
O O3 0.733344 0.698461 0.654678
O O4 0.722897 0.629365 0.699029
O O5 0.244680 0.579616 0.041746
O O6 0.231393 0.500000 0.000000
O O7 0.000000 0.551569 0.000000
O O8 0.500000 0.204485 0.898353
O O9 0.750000 0.250000 0.913744
O O10 0.741881 0.164174 0.928004
O O11 0.825868 0.396032 0.621829
O O12 0.767265 0.454930 0.679284
O O13 0.000000 0.402411 0.690849
O O14 0.500000 0.377657 0.945049
O O15 0.250000 0.000000 0.250000
O O16 0.500000 0.000000 0.299494
#
# Coordination Sequence:
#
# PCOD9512133 Si02
#       6
#    32  16  32  32  32  16
#     4  10  20  33  51  76 110 150 195 245 293 343
#     4  11  25  43  64  93 128 159 191 237 289 347
#     4  10  21  38  60  86 119 157 198 244 297 355
#     4   9  19  34  53  75 106 145 189 238 289 345
#     4  10  21  39  64  90 117 152 194 242 294 352
#     4  10  20  32  46  71 104 141 187 236 281 330
#
# _framework density 19.846813000000001
#
# number of rings (size 3 to 8) (size 9 to 14) (size 15 to 20)
#    0.000    2.100    0.000    2.700    1.400    6.800 
#    0.000    2.500    0.000    0.000    0.000    0.000 
#    0.000    0.000    0.000    0.000    0.000    0.000 
#
# Total GULP energy -223161.335723 kJ/mol
# GULP energy per Si atom -5579.033393 kJ/mol
# Density = 1.980164 g / cm^3
# Si number density = 19.846813 Si / 1000 Ang^3
#
#
#
# Elastic Constant Matrix: (Units=GPa)
#
#
# Indices 1 2 3 4 5 6 
#
# 1 59.6007 42.1393 24.9758 0.0000 0.0000 0.0000
# 2 42.1393 172.7657 31.1985 0.0000 0.0000 0.0000
# 3 24.9758 31.1985 59.5184 0.0000 0.0000 0.0000
# 4 0.0000 0.0000 0.0000 8.9297 0.0000 0.0000
# 5 0.0000 0.0000 0.0000 0.0000 30.2938 0.0000
# 6 0.0000 0.0000 0.0000 0.0000 0.0000 28.1704
#
#
#
# Elastic Compliance Matrix: (Units=1/GPa)
#
#
# Indices 1 2 3 4 5 6 
#
# 1 0.022870 -0.004247 -0.007371 0.000000 0.000000 0.000000
# 2 -0.004247 0.007182 -0.001982 0.000000 0.000000 0.000000
# 3 -0.007371 -0.001982 0.020934 0.000000 0.000000 0.000000
# 4 0.000000 0.000000 0.000000 0.111986 0.000000 0.000000
# 5 0.000000 0.000000 0.000000 0.000000 0.033010 0.000000
# 6 0.000000 0.000000 0.000000 0.000000 0.000000 0.035498
#
#
# Mechanical properties :
#
#
# Convention : Reuss Voigt Hill
#
# Bulk Modulus (GPa) = 42.04319 54.27910 48.16114
# Shear Modulus (GPa) = 18.75409 26.38352 22.56880
#
# Velocity S-wave (km/s) = 3.07733 3.64999 3.37582
# Velocity P-wave (km/s) = 5.81863 6.72099 6.28602
#
# Compressibility (1/GPa) = 0.02378507
#
# Stress axis : x y z
#
# Youngs Moduli (GPa) = 43.72562 139.23467 47.76990
#
# Poissons Ratio (x) = 0.59136 0.35209
# Poissons Ratio (y) = 0.18571 0.09470
# Poissons Ratio (z) = 0.32229 0.27603
#
# Static dielectric constant tensor:
#      x y z
#    x 1.685840 0.000000 0.000000 
#    y 0.000000 1.670220 0.000000 
#    z 0.000000 0.000000 1.708660 
# 
# From -- ./inp_files/44616.got.cif
#   From: 2010.05.17/outbox.cif.g08.bks.cpg/sg69_23_cif.got.tgz:44616.got - 2010.06.03 19:29:58.
