data_PCOD9512873
_publ_section_title
;
Structure prediction by ZEFSAII (Michael W. Deem and Ramdas Pophale) SiO2 
 PCOD9512873
Probable space group: F M M M
;
_chemical_formula_sum "Si O2"
_cell_formula_units_Z 116
_cell_length_a 26.906672
_cell_length_b 19.807584
_cell_length_c 9.843115
_cell_angle_alpha 90.000000
_cell_angle_beta 90.000000
_cell_angle_gamma 90.000000
_cell_volume 5245.948830
_symmetry_space_group_name_H-M "F M M M"
_symmetry_group_IT_number 69
_symmetry_cell_setting 'orthorhombic'
loop_
_space_group_symop_operation_xyz
x,y,z
-x,-y,z
x,-y,-z
-x,y,-z
-x,-y,-z
x,y,-z
-x,y,z
x,-y,z
x,1/2+y,1/2+z
-x,1/2-y,1/2+z
x,1/2-y,1/2-z
-x,1/2+y,1/2-z
-x,1/2-y,1/2-z
x,1/2+y,1/2-z
-x,1/2+y,1/2+z
x,1/2-y,1/2+z
1/2+x,y,1/2+z
1/2-x,-y,1/2+z
1/2+x,-y,1/2-z
1/2-x,y,1/2-z
1/2-x,-y,1/2-z
1/2+x,y,1/2-z
1/2-x,y,1/2+z
1/2+x,-y,1/2+z
1/2+x,1/2+y,z
1/2-x,1/2-y,z
1/2+x,1/2-y,-z
1/2-x,1/2+y,-z
1/2-x,1/2-y,-z
1/2+x,1/2+y,-z
1/2-x,1/2+y,z
1/2+x,1/2-y,z
loop_
_atom_site_type_symbol
_atom_site_label
_atom_site_fract_x
_atom_site_fract_y
_atom_site_fract_z
Si Si1 0.558251 0.094649 0.500000
Si Si2 0.808350 0.500000 0.710754
Si Si3 0.204623 0.848864 0.852580
Si Si4 0.500000 0.500000 0.500000
Si Si5 0.120774 0.750000 0.250000
Si Si6 0.583696 0.500000 0.748847
Si Si7 0.442137 0.742912 0.500000
O O1 0.500000 0.079517 0.500000
O O2 0.577331 0.061717 0.358633
O O3 0.563209 0.175485 0.500000
O O4 0.750000 0.500000 0.750000
O O5 0.810760 0.427134 0.641794
O O6 0.858647 0.500000 0.801957
O O7 0.250000 0.840239 0.750000
O O8 0.157369 0.805505 0.811147
O O9 0.222213 0.827037 0.000000
O O10 0.544190 0.500000 0.624489
O O11 0.085803 0.781175 0.365762
O O12 0.500000 0.724655 0.500000
#
# Coordination Sequence:
#
# PCOD9512873 Si02
#       7
#    16  16  32   4  16  16  16
#     4  10  20  41  71 100 126 188 248 283 361 436
#     4  10  24  47  72 105 143 187 241 293 366 436
#     4  11  25  45  74 106 142 185 237 297 365 439
#     4  12  24  42  60 116 156 186 248 298 384 420
#     4  12  24  44  72 106 138 186 244 298 362 436
#     4  11  21  40  72 101 148 191 235 303 356 448
#     4  11  25  44  71  96 140 180 248 302 362 426
#
# _framework density 22.112302
#
# number of rings (size 3 to 8) (size 9 to 14) (size 15 to 20)
#    0.000    1.103    2.759    3.310    5.793    1.103 
#    9.931    4.138   12.138    0.000    0.000    0.000 
#    0.000    0.000    0.000    0.000    0.000    0.000 
#
# Total GULP energy -161533.072527 kJ/mol
# GULP energy per Si atom -5570.105949 kJ/mol
# Density = 2.206197 g / cm^3
# Si number density = 22.112302 Si / 1000 Ang^3
#
#
#
# Elastic Constant Matrix: (Units=GPa)
#
#
# Indices 1 2 3 4 5 6 
#
# 1 217.4261 9.4915 95.7977 0.0000 0.0000 0.0000
# 2 9.4915 57.0978 10.6841 0.0000 0.0000 0.0000
# 3 95.7977 10.6841 185.1082 0.0001 0.0000 0.0000
# 4 0.0000 0.0000 0.0001 8.1897 0.0000 0.0000
# 5 0.0000 0.0000 0.0000 0.0000 52.8816 0.0000
# 6 0.0000 0.0000 0.0000 0.0000 0.0000 54.3498
#
#
#
# Elastic Compliance Matrix: (Units=1/GPa)
#
#
# Indices 1 2 3 4 5 6 
#
# 1 0.005968 -0.000419 -0.003064 0.000000 0.000000 0.000000
# 2 -0.000419 0.017734 -0.000807 0.000000 0.000000 0.000000
# 3 -0.003064 -0.000807 0.007035 0.000000 0.000000 0.000000
# 4 0.000000 0.000000 0.000000 0.122105 0.000000 0.000000
# 5 0.000000 0.000000 0.000000 0.000000 0.018910 0.000000
# 6 0.000000 0.000000 0.000000 0.000000 0.000000 0.018399
#
#
# Mechanical properties :
#
#
# Convention : Reuss Voigt Hill
#
# Bulk Modulus (GPa) = 45.13237 76.84208 60.98723
# Shear Modulus (GPa) = 24.25816 45.99479 35.12647
#
# Velocity S-wave (km/s) = 3.31576 4.56571 3.98998
# Velocity P-wave (km/s) = 5.92569 7.91331 6.99051
#
# Compressibility (1/GPa) = 0.02215705
#
# Stress axis : x y z
#
# Youngs Moduli (GPa) = 167.57070 56.38759 142.15398
#
# Poissons Ratio (x) = 0.02361 0.43559
# Poissons Ratio (y) = 0.07015 0.11471
# Poissons Ratio (z) = 0.51347 0.04550
#
# Static dielectric constant tensor:
#      x y z
#    x 1.854210 0.000000 0.000000 
#    y 0.000000 1.857230 0.000000 
#    z 0.000000 0.000000 1.822150 
# 
# From -- ./inp_files/4552.got.cif
#   From: 2010.05.17/outbox.cif.g08.bks.cpg/sg69_3_cif.got.tgz:4552.got - 2010.06.03 19:29:58.
