data_PCOD9512005
_publ_section_title
;
Structure prediction by ZEFSAII (Michael W. Deem and Ramdas Pophale) SiO2 
 PCOD9512005
Probable space group: F M M M
;
_chemical_formula_sum "Si O2"
_cell_formula_units_Z 176
_cell_length_a 25.000365
_cell_length_b 18.371256
_cell_length_c 21.062442
_cell_angle_alpha 90.000000
_cell_angle_beta 90.000000
_cell_angle_gamma 90.000000
_cell_volume 9673.729084
_symmetry_space_group_name_H-M "F M M M"
_symmetry_group_IT_number 69
_symmetry_cell_setting 'orthorhombic'
loop_
_space_group_symop_operation_xyz
x,y,z
-x,-y,z
x,-y,-z
-x,y,-z
-x,-y,-z
x,y,-z
-x,y,z
x,-y,z
x,1/2+y,1/2+z
-x,1/2-y,1/2+z
x,1/2-y,1/2-z
-x,1/2+y,1/2-z
-x,1/2-y,1/2-z
x,1/2+y,1/2-z
-x,1/2+y,1/2+z
x,1/2-y,1/2+z
1/2+x,y,1/2+z
1/2-x,-y,1/2+z
1/2+x,-y,1/2-z
1/2-x,y,1/2-z
1/2-x,-y,1/2-z
1/2+x,y,1/2-z
1/2-x,y,1/2+z
1/2+x,-y,1/2+z
1/2+x,1/2+y,z
1/2-x,1/2-y,z
1/2+x,1/2-y,-z
1/2-x,1/2+y,-z
1/2-x,1/2-y,-z
1/2+x,1/2+y,-z
1/2-x,1/2+y,z
1/2+x,1/2-y,z
loop_
_atom_site_type_symbol
_atom_site_label
_atom_site_fract_x
_atom_site_fract_y
_atom_site_fract_z
Si Si1 0.388739 0.732490 0.427234
Si Si2 0.064388 0.000000 0.930096
Si Si3 0.191913 0.713271 0.186344
Si Si4 0.437121 0.640047 0.847308
Si Si5 0.631737 0.916034 0.768675
Si Si6 0.563814 0.580259 0.396446
O O1 0.378730 0.756539 0.500000
O O2 0.338169 0.727798 0.379682
O O3 0.427065 0.787561 0.388494
O O4 0.413532 0.651753 0.429646
O O5 0.077383 0.072585 0.892603
O O6 0.000000 0.000000 0.934904
O O7 0.088053 0.000000 0.000000
O O8 0.167612 0.750000 0.250000
O O9 0.250000 0.750000 0.181245
O O10 0.183037 0.628369 0.204516
O O11 0.500000 0.635800 0.829188
O O12 0.398493 0.626735 0.787607
O O13 0.589432 0.917354 0.826419
O O14 0.643370 0.000000 0.751031
O O15 0.500000 0.584952 0.393908
O O16 0.577705 0.500000 0.423248
#
# Coordination Sequence:
#
# PCOD9512005 Si02
#       6
#    32  16  32  32  32  32
#     4  11  23  37  56  85 117 154 199 240 285 344
#     4   9  18  30  44  68 109 160 197 221 258 315
#     4  10  21  41  64  83 109 140 187 248 306 351
#     4  11  20  31  52  83 121 161 196 230 273 334
#     4  10  19  35  59  89 115 147 192 239 289 344
#     4   9  19  34  54  83 121 159 195 236 282 335
#
# _framework density 18.193604000000001
#
# number of rings (size 3 to 8) (size 9 to 14) (size 15 to 20)
#    0.000    1.909    2.727    1.636    0.000    3.636 
#    0.000    5.455    2.000    0.000    0.000    0.000 
#    0.000    0.000    0.000    0.000    0.000    0.000 
#
# Total GULP energy -244939.933709 kJ/mol
# GULP energy per Si atom -5566.816675 kJ/mol
# Density = 1.815220 g / cm^3
# Si number density = 18.193604 Si / 1000 Ang^3
#
#
#
# Elastic Constant Matrix: (Units=GPa)
#
#
# Indices 1 2 3 4 5 6 
#
# 1 84.2795 52.9650 38.7978 0.0000 0.0000 0.0000
# 2 52.9650 110.8169 42.6520 0.0000 0.0000 0.0000
# 3 38.7978 42.6520 103.1415 0.0000 0.0000 0.0000
# 4 0.0000 0.0000 0.0000 17.7801 0.0000 0.0000
# 5 0.0000 0.0000 0.0000 0.0000 6.1977 0.0000
# 6 0.0000 0.0000 0.0000 0.0000 0.0000 21.8431
#
#
#
# Elastic Compliance Matrix: (Units=1/GPa)
#
#
# Indices 1 2 3 4 5 6 
#
# 1 0.018163 -0.007197 -0.003856 0.000000 0.000000 0.000000
# 2 -0.007197 0.013584 -0.002910 0.000000 0.000000 0.000000
# 3 -0.003856 -0.002910 0.012349 0.000000 0.000000 0.000000
# 4 0.000000 0.000000 0.000000 0.056243 0.000000 0.000000
# 5 0.000000 0.000000 0.000000 0.000000 0.161350 0.000000
# 6 0.000000 0.000000 0.000000 0.000000 0.000000 0.045781
#
#
# Mechanical properties :
#
#
# Convention : Reuss Voigt Hill
#
# Bulk Modulus (GPa) = 61.84285 63.00751 62.42518
# Shear Modulus (GPa) = 14.67194 20.08572 17.37883
#
# Velocity S-wave (km/s) = 2.84286 3.32625 3.09401
# Velocity P-wave (km/s) = 6.69635 7.03270 6.86658
#
# Compressibility (1/GPa) = 0.01617002
#
# Stress axis : x y z
#
# Youngs Moduli (GPa) = 55.05581 73.61741 80.97583
#
# Poissons Ratio (x) = 0.52982 0.31226
# Poissons Ratio (y) = 0.39624 0.23564
# Poissons Ratio (z) = 0.21231 0.21423
#
# Static dielectric constant tensor:
#      x y z
#    x 1.611560 0.000000 0.000000 
#    y 0.000000 1.673470 0.000000 
#    z 0.000000 0.000000 1.640370 
# 
# From -- ./inp_files/26745.got.cif
#   From: 2010.05.17/outbox.cif.g08.bks.cpg/sg69_14_cif.got.tgz:26745.got - 2010.06.03 19:29:58.
