data_PCOD9512248
_publ_section_title
;
Structure prediction by ZEFSAII (Michael W. Deem and Ramdas Pophale) SiO2 
 PCOD9512248
Probable space group: F M M M
;
_chemical_formula_sum "Si O2"
_cell_formula_units_Z 168
_cell_length_a 27.444372
_cell_length_b 17.027352
_cell_length_c 17.530911
_cell_angle_alpha 90.000000
_cell_angle_beta 90.000000
_cell_angle_gamma 90.000000
_cell_volume 8192.282057
_symmetry_space_group_name_H-M "F M M M"
_symmetry_group_IT_number 69
_symmetry_cell_setting 'orthorhombic'
loop_
_space_group_symop_operation_xyz
x,y,z
-x,-y,z
x,-y,-z
-x,y,-z
-x,-y,-z
x,y,-z
-x,y,z
x,-y,z
x,1/2+y,1/2+z
-x,1/2-y,1/2+z
x,1/2-y,1/2-z
-x,1/2+y,1/2-z
-x,1/2-y,1/2-z
x,1/2+y,1/2-z
-x,1/2+y,1/2+z
x,1/2-y,1/2+z
1/2+x,y,1/2+z
1/2-x,-y,1/2+z
1/2+x,-y,1/2-z
1/2-x,y,1/2-z
1/2-x,-y,1/2-z
1/2+x,y,1/2-z
1/2-x,y,1/2+z
1/2+x,-y,1/2+z
1/2+x,1/2+y,z
1/2-x,1/2-y,z
1/2+x,1/2-y,-z
1/2-x,1/2+y,-z
1/2-x,1/2-y,-z
1/2+x,1/2+y,-z
1/2-x,1/2+y,z
1/2+x,1/2-y,z
loop_
_atom_site_type_symbol
_atom_site_label
_atom_site_fract_x
_atom_site_fract_y
_atom_site_fract_z
Si Si1 0.000000 0.310965 0.321118
Si Si2 0.586556 0.409052 0.748971
Si Si3 0.736167 0.090202 0.839457
Si Si4 0.585560 0.419059 0.000000
Si Si5 0.147308 0.295664 0.169003
Si Si6 0.842956 0.627836 0.374215
Si Si7 0.000000 0.701774 0.500000
O O1 0.000000 0.250000 0.250000
O O2 0.953229 0.367281 0.303439
O O3 0.000000 0.272957 0.406871
O O4 0.574660 0.500000 0.731773
O O5 0.599109 0.349368 0.679479
O O6 0.638425 0.404860 0.792631
O O7 0.750000 0.096388 0.750000
O O8 0.692293 0.149845 0.853748
O O9 0.785925 0.112907 0.882538
O O10 0.722782 0.000000 0.855874
O O11 0.622107 0.416446 0.069626
O O12 0.548740 0.348584 0.000000
O O13 0.556794 0.500000 0.000000
O O14 0.156710 0.250000 0.250000
O O15 0.144415 0.219808 0.115857
#
# Coordination Sequence:
#
# PCOD9512248 Si02
#       7
#    16  32  32  16  32  32   8
#     4  12  25  43  64  97 133 167 217 272 328 392
#     4  11  21  35  57  88 125 162 203 258 322 383
#     4  11  19  30  52  81 113 152 202 257 312 368
#     4  12  25  42  59  87 131 168 207 254 323 402
#     4  10  20  33  54  82 118 159 207 259 313 372
#     4  11  22  35  55  83 119 162 204 255 315 380
#     4  12  27  40  70  94 129 176 216 256 333 386
#
# _framework density 20.507106
#
# number of rings (size 3 to 8) (size 9 to 14) (size 15 to 20)
#    0.000    0.952    5.714    5.000    0.000    0.762 
#    0.000    1.905    0.000    0.000    0.000    4.667 
#    0.000    0.000    0.000    0.000    0.000    0.000 
#
# Total GULP energy -233979.979527 kJ/mol
# GULP energy per Si atom -5570.951893 kJ/mol
# Density = 2.046043 g / cm^3
# Si number density = 20.507106 Si / 1000 Ang^3
#
#
#
# Elastic Constant Matrix: (Units=GPa)
#
#
# Indices 1 2 3 4 5 6 
#
# 1 95.6714 25.9803 13.3269 0.0000 0.0000 0.0000
# 2 25.9803 154.3433 27.7092 0.0000 0.0000 0.0000
# 3 13.3269 27.7092 43.8800 0.0000 0.0000 0.0000
# 4 0.0000 0.0000 0.0000 16.6797 0.0000 0.0000
# 5 0.0000 0.0000 0.0000 0.0000 -124.7457 0.0000
# 6 0.0000 0.0000 0.0000 0.0000 0.0000 64.8435
#
#
#
# Elastic Compliance Matrix: (Units=1/GPa)
#
#
# Indices 1 2 3 4 5 6 
#
# 1 0.011190 -0.001436 -0.002491 0.000000 0.000000 0.000000
# 2 -0.001436 0.007492 -0.004295 0.000000 0.000000 0.000000
# 3 -0.002491 -0.004295 0.026258 0.000000 0.000000 0.000000
# 4 0.000000 0.000000 0.000000 0.059953 0.000000 0.000000
# 5 0.000000 0.000000 0.000000 0.000000 -0.008016 0.000000
# 6 0.000000 0.000000 0.000000 0.000000 0.000000 0.015422
#
#
# Mechanical properties :
#
#
# Convention : Reuss Voigt Hill
#
# Bulk Modulus (GPa) = 35.09427 47.54749 41.32088
# Shear Modulus (GPa) = 36.16874 6.48073 21.32474
#
# Velocity S-wave (km/s) = 4.20422 1.77963 3.22820
# Velocity P-wave (km/s) = 6.38104 5.24013 5.83852
#
# Compressibility (1/GPa) = 0.02849468
#
# Stress axis : x y z
#
# Youngs Moduli (GPa) = 89.36940 133.47837 38.08347
#
# Poissons Ratio (x) = 0.19170 0.09488
# Poissons Ratio (y) = 0.12835 0.16356
# Poissons Ratio (z) = 0.22266 0.57325
#
# Static dielectric constant tensor:
#      x y z
#    x 1.729620 0.000000 0.000000 
#    y 0.000000 1.806950 0.000000 
#    z 0.000000 0.000000 1.995310 
# 
# From -- ./inp_files/33920.got.cif
#   From: 2010.05.17/outbox.cif.g08.bks.cpg/sg69_17_cif.got.tgz:33920.got - 2010.06.03 19:29:58.
