data_PCOD9512054
_publ_section_title
;
Structure prediction by ZEFSAII (Michael W. Deem and Ramdas Pophale) SiO2 
 PCOD9512054
Probable space group: F M M M
;
_chemical_formula_sum "Si O2"
_cell_formula_units_Z 128
_cell_length_a 17.755032
_cell_length_b 13.670042
_cell_length_c 28.090550
_cell_angle_alpha 90.000000
_cell_angle_beta 90.000000
_cell_angle_gamma 90.000000
_cell_volume 6817.914503
_symmetry_space_group_name_H-M "F M M M"
_symmetry_group_IT_number 69
_symmetry_cell_setting 'orthorhombic'
loop_
_space_group_symop_operation_xyz
x,y,z
-x,-y,z
x,-y,-z
-x,y,-z
-x,-y,-z
x,y,-z
-x,y,z
x,-y,z
x,1/2+y,1/2+z
-x,1/2-y,1/2+z
x,1/2-y,1/2-z
-x,1/2+y,1/2-z
-x,1/2-y,1/2-z
x,1/2+y,1/2-z
-x,1/2+y,1/2+z
x,1/2-y,1/2+z
1/2+x,y,1/2+z
1/2-x,-y,1/2+z
1/2+x,-y,1/2-z
1/2-x,y,1/2-z
1/2-x,-y,1/2-z
1/2+x,y,1/2-z
1/2-x,y,1/2+z
1/2+x,-y,1/2+z
1/2+x,1/2+y,z
1/2-x,1/2-y,z
1/2+x,1/2-y,-z
1/2-x,1/2+y,-z
1/2-x,1/2-y,-z
1/2+x,1/2+y,-z
1/2-x,1/2+y,z
1/2+x,1/2-y,z
loop_
_atom_site_type_symbol
_atom_site_label
_atom_site_fract_x
_atom_site_fract_y
_atom_site_fract_z
Si Si1 0.500000 0.616833 0.852647
Si Si2 0.714946 0.614336 0.349512
Si Si3 0.648953 0.884988 0.946294
Si Si4 0.640104 0.719319 0.195016
Si Si5 0.500000 0.252182 0.555292
O O1 0.500000 0.500000 0.857053
O O2 0.429037 0.655638 0.822715
O O3 0.500000 0.668686 0.904487
O O4 0.709197 0.500000 0.339745
O O5 0.712686 0.630677 0.406336
O O6 0.644059 0.676667 0.331683
O O7 0.786441 0.658783 0.322198
O O8 0.575073 0.818591 0.938847
O O9 0.627015 0.000000 0.942551
O O10 0.676564 0.867916 0.000000
O O11 0.641175 0.750000 0.250000
O O12 0.500000 0.217151 0.500000
#
# Coordination Sequence:
#
# PCOD9512054 Si02
#       5
#    16  32  32  32  16
#     4  12  25  43  63  87 124 163 207 254 308 364
#     4  10  20  37  63  92 122 156 198 248 305 364
#     4   9  17  32  59  94 128 161 200 248 305 366
#     4  11  24  42  61  86 120 160 205 251 306 365
#     4  10  19  36  60  90 127 166 204 246 303 364
#
# _framework density 18.774068
#
# number of rings (size 3 to 8) (size 9 to 14) (size 15 to 20)
#    0.000    1.750    2.500    3.000    0.000    4.750 
#    0.000    4.375    0.000    3.000    0.000    0.000 
#    0.000    0.000    0.000    0.000    0.000    0.000 
#
# Total GULP energy -178398.695447 kJ/mol
# GULP energy per Si atom -5574.959233 kJ/mol
# Density = 1.873134 g / cm^3
# Si number density = 18.774068 Si / 1000 Ang^3
#
#
#
# Elastic Constant Matrix: (Units=GPa)
#
#
# Indices 1 2 3 4 5 6 
#
# 1 60.8186 45.0443 46.9744 0.0000 0.0000 0.0000
# 2 45.0443 150.0403 80.8381 0.0000 0.0000 0.0000
# 3 46.9744 80.8381 181.0312 0.0000 0.0000 0.0000
# 4 0.0000 0.0000 0.0000 22.1780 0.0000 0.0000
# 5 0.0000 0.0000 0.0000 0.0000 24.6011 0.0000
# 6 0.0000 0.0000 0.0000 0.0000 0.0000 26.4566
#
#
#
# Elastic Compliance Matrix: (Units=1/GPa)
#
#
# Indices 1 2 3 4 5 6 
#
# 1 0.022964 -0.004851 -0.003793 0.000000 0.000000 0.000000
# 2 -0.004851 0.009801 -0.003118 0.000000 0.000000 0.000000
# 3 -0.003793 -0.003118 0.007900 0.000000 0.000000 0.000000
# 4 0.000000 0.000000 0.000000 0.045090 0.000000 0.000000
# 5 0.000000 0.000000 0.000000 0.000000 0.040649 0.000000
# 6 0.000000 0.000000 0.000000 0.000000 0.000000 0.037798
#
#
# Mechanical properties :
#
#
# Convention : Reuss Voigt Hill
#
# Bulk Modulus (GPa) = 58.33329 81.95597 70.14463
# Shear Modulus (GPa) = 25.84796 29.24937 27.54867
#
# Velocity S-wave (km/s) = 3.71454 3.95139 3.83479
# Velocity P-wave (km/s) = 7.03816 8.03533 7.55322
#
# Compressibility (1/GPa) = 0.01714287
#
# Stress axis : x y z
#
# Youngs Moduli (GPa) = 43.54559 102.03051 126.57708
#
# Poissons Ratio (x) = 0.49493 0.48008
# Poissons Ratio (y) = 0.21123 0.39465
# Poissons Ratio (z) = 0.16516 0.31812
#
# Static dielectric constant tensor:
#      x y z
#    x 1.716550 0.000000 0.000000 
#    y 0.000000 1.643910 0.000000 
#    z 0.000000 0.000000 1.698940 
# 
# From -- ./inp_files/15314.got.cif
#   From: 2010.05.17/outbox.cif.g08.bks.cpg/sg69_8_cif.got.tgz:15314.got - 2010.06.03 19:29:58.
