data_PCOD9512998
_publ_section_title
;
Structure prediction by ZEFSAII (Michael W. Deem and Ramdas Pophale) SiO2 
 PCOD9512998
Probable space group: F M M M
;
_chemical_formula_sum "Si O2"
_cell_formula_units_Z 168
_cell_length_a 19.302220
_cell_length_b 31.651270
_cell_length_c 14.485789
_cell_angle_alpha 90.000000
_cell_angle_beta 90.000000
_cell_angle_gamma 90.000000
_cell_volume 8849.944699
_symmetry_space_group_name_H-M "F M M M"
_symmetry_group_IT_number 69
_symmetry_cell_setting 'orthorhombic'
loop_
_space_group_symop_operation_xyz
x,y,z
-x,-y,z
x,-y,-z
-x,y,-z
-x,-y,-z
x,y,-z
-x,y,z
x,-y,z
x,1/2+y,1/2+z
-x,1/2-y,1/2+z
x,1/2-y,1/2-z
-x,1/2+y,1/2-z
-x,1/2-y,1/2-z
x,1/2+y,1/2-z
-x,1/2+y,1/2+z
x,1/2-y,1/2+z
1/2+x,y,1/2+z
1/2-x,-y,1/2+z
1/2+x,-y,1/2-z
1/2-x,y,1/2-z
1/2-x,-y,1/2-z
1/2+x,y,1/2-z
1/2-x,y,1/2+z
1/2+x,-y,1/2+z
1/2+x,1/2+y,z
1/2-x,1/2-y,z
1/2+x,1/2-y,-z
1/2-x,1/2+y,-z
1/2-x,1/2-y,-z
1/2+x,1/2+y,-z
1/2-x,1/2+y,z
1/2+x,1/2-y,z
loop_
_atom_site_type_symbol
_atom_site_label
_atom_site_fract_x
_atom_site_fract_y
_atom_site_fract_z
Si Si1 0.299474 0.073577 0.390263
Si Si2 0.750000 0.500000 0.250000
Si Si3 0.828101 0.634549 0.892476
Si Si4 0.177520 0.234035 0.355499
Si Si5 0.917966 0.193099 0.901748
Si Si6 0.916812 0.885186 0.778252
O O1 0.303452 0.064404 0.500000
O O2 0.266682 0.036728 0.328586
O O3 0.247551 0.113738 0.378546
O O4 0.374390 0.084118 0.346220
O O5 0.826993 0.684317 0.869990
O O6 0.882487 0.612969 0.822695
O O7 0.846614 0.628678 0.000000
O O8 0.177383 0.250000 0.250000
O O9 0.250000 0.250000 0.395737
O O10 0.115722 0.261245 0.396874
O O11 0.900886 0.161546 0.819162
O O12 0.000000 0.197710 0.900318
O O13 0.897077 0.172831 0.000000
O O14 0.000000 0.891403 0.778221
#
# Coordination Sequence:
#
# PCOD9512998 Si02
#       6
#    32   8  32  32  32  32
#     4  11  24  43  71 102 129 163 210 259 316 394
#     4  12  22  44  78 100 132 152 200 254 332 388
#     4  11  23  40  62  89 126 171 220 269 323 388
#     4  11  22  34  56  83 118 162 215 277 321 363
#     4  10  21  36  56  83 118 164 212 256 308 366
#     4  11  22  40  64  92 133 171 208 261 319 379
#
# _framework density 18.983169
#
# number of rings (size 3 to 8) (size 9 to 14) (size 15 to 20)
#    0.000    1.143    3.810    2.571    2.667    5.714 
#    0.000    0.476    0.000    1.143    0.000    2.667 
#    0.000    0.000    0.000    0.000    0.000    0.000 
#
# Total GULP energy -233861.491725 kJ/mol
# GULP energy per Si atom -5568.130755 kJ/mol
# Density = 1.893996 g / cm^3
# Si number density = 18.983169 Si / 1000 Ang^3
#
#
#
# Elastic Constant Matrix: (Units=GPa)
#
#
# Indices 1 2 3 4 5 6 
#
# 1 74.0125 21.7282 64.7032 0.0000 0.0000 0.0000
# 2 21.7282 67.0552 39.1131 0.0000 0.0000 0.0000
# 3 64.7032 39.1131 164.8310 0.0000 0.0000 0.0000
# 4 0.0000 0.0000 0.0000 18.9720 0.0000 0.0000
# 5 0.0000 0.0000 0.0000 0.0000 29.3786 0.0000
# 6 0.0000 0.0000 0.0000 0.0000 0.0000 -1.6726
#
#
#
# Elastic Compliance Matrix: (Units=1/GPa)
#
#
# Indices 1 2 3 4 5 6 
#
# 1 0.020872 -0.002303 -0.007647 0.000000 0.000000 0.000000
# 2 -0.002303 0.017563 -0.003264 0.000000 0.000000 0.000000
# 3 -0.007647 -0.003264 0.009843 0.000000 0.000000 0.000000
# 4 0.000000 0.000000 0.000000 0.052709 0.000000 0.000000
# 5 0.000000 0.000000 0.000000 0.000000 0.034038 0.000000
# 6 0.000000 0.000000 0.000000 0.000000 0.000000 -0.597877
#
#
# Mechanical properties :
#
#
# Convention : Reuss Voigt Hill
#
# Bulk Modulus (GPa) = 45.76335 61.88754 53.82545
# Shear Modulus (GPa) = -11.65120 21.35920 4.85400
#
# Velocity S-wave (km/s) = -2.48012 3.35799 1.60080
# Velocity P-wave (km/s) = 3.99479 6.90701 5.64204
#
# Compressibility (1/GPa) = 0.02185155
#
# Stress axis : x y z
#
# Youngs Moduli (GPa) = 47.91036 56.93809 101.59585
#
# Poissons Ratio (x) = 0.13113 0.77688
# Poissons Ratio (y) = 0.11034 0.33156
# Poissons Ratio (z) = 0.36636 0.18582
#
# Static dielectric constant tensor:
#      x y z
#    x 1.680030 0.000000 0.000000 
#    y 0.000000 1.643590 0.000000 
#    z 0.000000 0.000000 1.751030 
# 
# From -- ./inp_files/16877.got.cif
#   From: 2010.05.17/outbox.cif.g08.bks.cpg/sg69_9_cif.got.tgz:16877.got - 2010.06.03 19:29:58.
