data_PCOD9512865
_publ_section_title
;
Structure prediction by ZEFSAII (Michael W. Deem and Ramdas Pophale) SiO2 
 PCOD9512865
Probable space group: F M M M
;
_chemical_formula_sum "Si O2"
_cell_formula_units_Z 136
_cell_length_a 25.749512
_cell_length_b 21.899070
_cell_length_c 11.011761
_cell_angle_alpha 90.000000
_cell_angle_beta 90.000000
_cell_angle_gamma 90.000000
_cell_volume 6209.425938
_symmetry_space_group_name_H-M "F M M M"
_symmetry_group_IT_number 69
_symmetry_cell_setting 'orthorhombic'
loop_
_space_group_symop_operation_xyz
x,y,z
-x,-y,z
x,-y,-z
-x,y,-z
-x,-y,-z
x,y,-z
-x,y,z
x,-y,z
x,1/2+y,1/2+z
-x,1/2-y,1/2+z
x,1/2-y,1/2-z
-x,1/2+y,1/2-z
-x,1/2-y,1/2-z
x,1/2+y,1/2-z
-x,1/2+y,1/2+z
x,1/2-y,1/2+z
1/2+x,y,1/2+z
1/2-x,-y,1/2+z
1/2+x,-y,1/2-z
1/2-x,y,1/2-z
1/2-x,-y,1/2-z
1/2+x,y,1/2-z
1/2-x,y,1/2+z
1/2+x,-y,1/2+z
1/2+x,1/2+y,z
1/2-x,1/2-y,z
1/2+x,1/2-y,-z
1/2-x,1/2+y,-z
1/2-x,1/2-y,-z
1/2+x,1/2+y,-z
1/2-x,1/2+y,z
1/2+x,1/2-y,z
loop_
_atom_site_type_symbol
_atom_site_label
_atom_site_fract_x
_atom_site_fract_y
_atom_site_fract_z
Si Si1 0.000000 0.931819 0.707286
Si Si2 0.609024 0.750000 0.750000
Si Si3 0.500000 0.170941 0.000000
Si Si4 0.588420 0.875371 0.642783
Si Si5 0.387876 0.797491 0.000000
Si Si6 0.307955 0.430248 0.759085
Si Si7 0.861734 0.935324 0.500000
O O1 0.949050 0.922919 0.790622
O O2 0.000000 0.876289 0.612555
O O3 0.000000 0.000000 0.655657
O O4 0.578970 0.810059 0.706155
O O5 0.636485 0.728197 0.624464
O O6 0.449564 0.214394 0.000000
O O7 0.578675 0.872799 0.500000
O O8 0.648431 0.893296 0.668093
O O9 0.389681 0.870869 0.000000
O O10 0.304578 0.500000 0.808119
O O11 0.250000 0.404177 0.750000
O O12 0.328233 0.434421 0.621552
O O13 0.891742 0.000000 0.500000
#
# Coordination Sequence:
#
# PCOD9512865 Si02
#       7
#    16  16   8  32  16  32  16
#     4  12  26  44  67 102 139 175 220 277 343 407
#     4  12  24  45  65  94 132 176 231 277 328 402
#     4  12  23  40  68  98 124 172 223 278 334 394
#     4  12  26  43  67  96 134 182 223 273 336 411
#     4  12  24  42  68  96 130 179 221 283 334 403
#     4  10  22  40  66  98 131 172 223 281 341 404
#     4  10  20  40  66  95 128 163 219 287 343 396
#
# _framework density 21.902186
#
# number of rings (size 3 to 8) (size 9 to 14) (size 15 to 20)
#    0.000    0.706    5.882    1.235    1.647    7.059 
#    0.000    0.588    0.000    2.824    0.000    0.000 
#    0.000    0.000    0.000    0.000    0.000    0.000 
#
# Total GULP energy -189845.662032 kJ/mol
# GULP energy per Si atom -5583.695942 kJ/mol
# Density = 2.185234 g / cm^3
# Si number density = 21.902186 Si / 1000 Ang^3
#
#
#
# Elastic Constant Matrix: (Units=GPa)
#
#
# Indices 1 2 3 4 5 6 
#
# 1 103.6611 20.2319 11.6432 0.0000 0.0000 0.0000
# 2 20.2319 98.0620 21.7136 0.0000 0.0000 0.0000
# 3 11.6432 21.7136 153.5772 0.0001 -0.0001 0.0003
# 4 0.0000 0.0000 0.0001 21.0147 0.0000 0.0004
# 5 0.0000 0.0000 -0.0001 0.0000 -0.0911 -0.0002
# 6 0.0000 0.0000 0.0003 0.0004 -0.0002 -296.4911
#
#
#
# Elastic Compliance Matrix: (Units=1/GPa)
#
#
# Indices 1 2 3 4 5 6 
#
# 1 0.010087 -0.001973 -0.000486 0.000000 0.000000 0.000000
# 2 -0.001973 0.010913 -0.001393 0.000000 0.000001 0.000000
# 3 -0.000486 -0.001393 0.006745 0.000000 -0.000004 0.000000
# 4 0.000000 0.000000 0.000000 0.047586 -0.000017 0.000000
# 5 0.000000 0.000001 -0.000004 -0.000017-10.971283 0.000007
# 6 0.000000 0.000000 0.000000 0.000000 0.000007 -0.003373
#
#
# Mechanical properties :
#
#
# Convention : Reuss Voigt Hill
#
# Bulk Modulus (GPa) = 49.90017 51.38642 50.64329
# Shear Modulus (GPa) = -0.45935 -34.99941 -17.72938
#
# Velocity S-wave (km/s) = -0.45846 -4.00182 -2.84822
# Velocity P-wave (km/s) = 4.74894 1.46968 3.51514
#
# Compressibility (1/GPa) = 0.02004001
#
# Stress axis : x y z
#
# Youngs Moduli (GPa) = 99.14193 91.63106 148.25346
#
# Poissons Ratio (x) = 0.18083 0.07200
# Poissons Ratio (y) = 0.19566 0.20657
# Poissons Ratio (z) = 0.04815 0.12768
#
# Static dielectric constant tensor:
#      x y z
#    x 1.798360 0.000000 0.000000 
#    y 0.000000 1.825990 0.000000 
#    z 0.000000 0.000000 1.816400 
# 
# From -- ./inp_files/11201.got.cif
#   From: 2010.05.17/outbox.cif.g08.bks.cpg/sg69_6_cif.got.tgz:11201.got - 2010.06.03 19:29:58.
