data_PCOD9512895
_publ_section_title
;
Structure prediction by ZEFSAII (Michael W. Deem and Ramdas Pophale) SiO2 
 PCOD9512895
Probable space group: F M M M
;
_chemical_formula_sum "Si O2"
_cell_formula_units_Z 116
_cell_length_a 9.408645
_cell_length_b 28.404182
_cell_length_c 25.843243
_cell_angle_alpha 90.000000
_cell_angle_beta 90.000000
_cell_angle_gamma 90.000000
_cell_volume 6906.473985
_symmetry_space_group_name_H-M "F M M M"
_symmetry_group_IT_number 69
_symmetry_cell_setting 'orthorhombic'
loop_
_space_group_symop_operation_xyz
x,y,z
-x,-y,z
x,-y,-z
-x,y,-z
-x,-y,-z
x,y,-z
-x,y,z
x,-y,z
x,1/2+y,1/2+z
-x,1/2-y,1/2+z
x,1/2-y,1/2-z
-x,1/2+y,1/2-z
-x,1/2-y,1/2-z
x,1/2+y,1/2-z
-x,1/2+y,1/2+z
x,1/2-y,1/2+z
1/2+x,y,1/2+z
1/2-x,-y,1/2+z
1/2+x,-y,1/2-z
1/2-x,y,1/2-z
1/2-x,-y,1/2-z
1/2+x,y,1/2-z
1/2-x,y,1/2+z
1/2+x,-y,1/2+z
1/2+x,1/2+y,z
1/2-x,1/2-y,z
1/2+x,1/2-y,-z
1/2-x,1/2+y,-z
1/2-x,1/2-y,-z
1/2+x,1/2+y,-z
1/2-x,1/2+y,z
1/2+x,1/2-y,z
loop_
_atom_site_type_symbol
_atom_site_label
_atom_site_fract_x
_atom_site_fract_y
_atom_site_fract_z
Si Si1 0.672676 0.296826 0.305635
Si Si2 0.500000 0.557447 0.783862
Si Si3 0.772340 0.392744 0.356986
Si Si4 0.500000 0.055358 0.162515
Si Si5 0.500000 0.401700 0.943308
Si Si6 0.000000 0.500000 0.500000
O O1 0.500000 0.292073 0.301161
O O2 0.750000 0.302994 0.250000
O O3 0.750000 0.250000 0.327426
O O4 0.714914 0.342664 0.337878
O O5 0.500000 0.500000 0.788567
O O6 0.633583 0.581150 0.812791
O O7 0.500000 0.570600 0.723212
O O8 0.637713 0.425402 0.365285
O O9 0.866115 0.388945 0.408105
O O10 0.500000 0.000000 0.163515
O O11 0.500000 0.457675 0.955654
O O12 0.500000 0.378739 0.000000
#
# Coordination Sequence:
#
# PCOD9512895 Si02
#       6
#    32  16  32  16  16   4
#     4  11  23  37  59  90 127 162 200 238 284 344
#     4  10  21  33  50  77 119 163 194 220 268 352
#     4  11  22  35  58  83 113 156 193 240 289 345
#     4  11  21  31  48  83 122 150 183 226 283 350
#     4   9  23  39  64  78 108 140 202 240 293 346
#     4   8  20  44  64  86 100 148 204 258 288 360
#
# _framework density 16.795835
#
# number of rings (size 3 to 8) (size 9 to 14) (size 15 to 20)
#    0.414    1.103    1.379    4.966   13.517    2.207 
#    0.000    0.690    0.000    2.483    0.000    0.000 
#    0.000    0.000    0.000    0.000    0.000    0.000 
#
# Total GULP energy -161466.474879 kJ/mol
# GULP energy per Si atom -5567.809479 kJ/mol
# Density = 1.675761 g / cm^3
# Si number density = 16.795835 Si / 1000 Ang^3
#
#
#
# Elastic Constant Matrix: (Units=GPa)
#
#
# Indices 1 2 3 4 5 6 
#
# 1 165.8805 41.6981 51.2019 0.0000 0.0000 0.0000
# 2 41.6981 87.2827 24.1497 0.0000 0.0000 0.0000
# 3 51.2019 24.1497 84.7528 0.0000 0.0000 0.0000
# 4 0.0000 0.0000 0.0000 10.3151 0.0000 0.0000
# 5 0.0000 0.0000 0.0000 0.0000 4.3334 0.0000
# 6 0.0000 0.0000 0.0000 0.0000 0.0000 22.9763
#
#
#
# Elastic Compliance Matrix: (Units=1/GPa)
#
#
# Indices 1 2 3 4 5 6 
#
# 1 0.007949 -0.002680 -0.004038 0.000000 0.000000 0.000000
# 2 -0.002680 0.013341 -0.002182 0.000000 0.000000 0.000000
# 3 -0.004038 -0.002182 0.014861 0.000000 0.000000 0.000000
# 4 0.000000 0.000000 0.000000 0.096945 0.000000 0.000000
# 5 0.000000 0.000000 0.000000 0.000000 0.230767 0.000000
# 6 0.000000 0.000000 0.000000 0.000000 0.000000 0.043523
#
#
# Mechanical properties :
#
#
# Convention : Reuss Voigt Hill
#
# Bulk Modulus (GPa) = 54.49929 63.55727 59.02828
# Shear Modulus (GPa) = 11.59276 22.24937 16.92107
#
# Velocity S-wave (km/s) = 2.63005 3.64359 3.17749
# Velocity P-wave (km/s) = 6.46076 7.45816 6.97731
#
# Compressibility (1/GPa) = 0.01834886
#
# Stress axis : x y z
#
# Youngs Moduli (GPa) = 125.80777 74.95582 67.29205
#
# Poissons Ratio (x) = 0.20088 0.27175
# Poissons Ratio (y) = 0.33716 0.14686
# Poissons Ratio (z) = 0.50806 0.16358
#
# Static dielectric constant tensor:
#      x y z
#    x 1.584210 0.000000 0.000000 
#    y 0.000000 1.585900 0.000000 
#    z 0.000000 0.000000 1.552990 
# 
# From -- ./inp_files/4668.got.cif
#   From: 2010.05.17/outbox.cif.g08.bks.cpg/sg69_3_cif.got.tgz:4668.got - 2010.06.03 19:29:58.
