data_PCOD9512256
_publ_section_title
;
Structure prediction by ZEFSAII (Michael W. Deem and Ramdas Pophale) SiO2 
 PCOD9512256
Probable space group: F M M M
;
_chemical_formula_sum "Si O2"
_cell_formula_units_Z 116
_cell_length_a 9.898349
_cell_length_b 22.217448
_cell_length_c 28.069617
_cell_angle_alpha 90.000000
_cell_angle_beta 90.000000
_cell_angle_gamma 90.000000
_cell_volume 6172.959413
_symmetry_space_group_name_H-M "F M M M"
_symmetry_group_IT_number 69
_symmetry_cell_setting 'orthorhombic'
loop_
_space_group_symop_operation_xyz
x,y,z
-x,-y,z
x,-y,-z
-x,y,-z
-x,-y,-z
x,y,-z
-x,y,z
x,-y,z
x,1/2+y,1/2+z
-x,1/2-y,1/2+z
x,1/2-y,1/2-z
-x,1/2+y,1/2-z
-x,1/2-y,1/2-z
x,1/2+y,1/2-z
-x,1/2+y,1/2+z
x,1/2-y,1/2+z
1/2+x,y,1/2+z
1/2-x,-y,1/2+z
1/2+x,-y,1/2-z
1/2-x,y,1/2-z
1/2-x,-y,1/2-z
1/2+x,y,1/2-z
1/2-x,y,1/2+z
1/2+x,-y,1/2+z
1/2+x,1/2+y,z
1/2-x,1/2-y,z
1/2+x,1/2-y,-z
1/2-x,1/2+y,-z
1/2-x,1/2-y,-z
1/2+x,1/2+y,-z
1/2-x,1/2+y,z
1/2+x,1/2-y,z
loop_
_atom_site_type_symbol
_atom_site_label
_atom_site_fract_x
_atom_site_fract_y
_atom_site_fract_z
Si Si1 0.719439 0.377751 0.103109
Si Si2 0.000000 0.500000 0.000000
Si Si3 0.339695 0.571161 0.203556
Si Si4 0.000000 0.846574 0.444701
Si Si5 0.000000 0.297731 0.444991
Si Si6 0.785799 0.000000 0.947809
O O1 0.705500 0.387842 0.159289
O O2 0.628261 0.324311 0.082524
O O3 0.673134 0.440498 0.079921
O O4 0.868743 0.367108 0.083382
O O5 0.123151 0.500000 0.958916
O O6 0.500000 0.579396 0.212203
O O7 0.318900 0.500000 0.191833
O O8 0.250000 0.583983 0.250000
O O9 0.000000 0.871118 0.500000
O O10 0.000000 0.774277 0.446583
O O11 0.000000 0.318916 0.500000
O O12 0.847572 0.000000 0.000000
#
# Coordination Sequence:
#
# PCOD9512256 Si02
#       6
#    32   4  32  16  16  16
#     4  12  22  39  64  91 128 164 206 263 315 371
#     4   8  20  36  44  82 140 160 196 234 300 386
#     4  10  22  42  63  93 127 162 206 256 319 391
#     4  11  25  41  62  91 125 176 226 251 289 371
#     4  11  24  42  62  88 127 174 217 258 303 361
#     4  10  20  33  55  91 127 164 193 250 317 374
#
# _framework density 18.791634999999999
#
# number of rings (size 3 to 8) (size 9 to 14) (size 15 to 20)
#    0.414    0.828    2.759    4.138    3.862    2.759 
#    0.000    1.379    0.000    4.966    0.000    0.000 
#    0.000    0.000    0.000    0.000    0.000    0.000 
#
# Total GULP energy -161795.390775 kJ/mol
# GULP energy per Si atom -5579.151406 kJ/mol
# Density = 1.874886 g / cm^3
# Si number density = 18.791635 Si / 1000 Ang^3
#
#
#
# Elastic Constant Matrix: (Units=GPa)
#
#
# Indices 1 2 3 4 5 6 
#
# 1 134.5177 15.6286 66.6018 0.0000 0.0000 0.0000
# 2 15.6286 56.2921 37.5893 0.0000 0.0000 0.0000
# 3 66.6018 37.5893 171.0491 0.0000 0.0000 0.0000
# 4 0.0000 0.0000 0.0000 14.9749 0.0000 0.0000
# 5 0.0000 0.0000 0.0000 0.0000 25.1873 0.0000
# 6 0.0000 0.0000 0.0000 0.0000 0.0000 28.9340
#
#
#
# Elastic Compliance Matrix: (Units=1/GPa)
#
#
# Indices 1 2 3 4 5 6 
#
# 1 0.009211 -0.000190 -0.003545 0.000000 0.000000 0.000000
# 2 -0.000190 0.020824 -0.004502 0.000000 0.000000 0.000000
# 3 -0.003545 -0.004502 0.008216 0.000000 0.000000 0.000000
# 4 0.000000 0.000000 0.000000 0.066778 0.000000 0.000000
# 5 0.000000 0.000000 0.000000 0.000000 0.039703 0.000000
# 6 0.000000 0.000000 0.000000 0.000000 0.000000 0.034561
#
#
# Mechanical properties :
#
#
# Convention : Reuss Voigt Hill
#
# Bulk Modulus (GPa) = 45.92130 66.83314 56.37722
# Shear Modulus (GPa) = 24.62740 29.95518 27.29129
#
# Velocity S-wave (km/s) = 3.62408 3.99691 3.81505
# Velocity P-wave (km/s) = 6.48090 7.54606 7.03367
#
# Compressibility (1/GPa) = 0.02177639
#
# Stress axis : x y z
#
# Youngs Moduli (GPa) = 108.56434 48.02253 121.71592
#
# Poissons Ratio (x) = 0.00914 0.43145
# Poissons Ratio (y) = 0.02066 0.54797
# Poissons Ratio (z) = 0.38483 0.21620
#
# Static dielectric constant tensor:
#      x y z
#    x 1.740770 0.000000 0.000000 
#    y 0.000000 1.668680 0.000000 
#    z 0.000000 0.000000 1.627860 
# 
# From -- ./inp_files/38101.got.cif
#   From: 2010.05.17/outbox.cif.g08.bks.cpg/sg69_20_cif.got.tgz:38101.got - 2010.06.03 19:29:58.
