data_PCOD9512101
_publ_section_title
;
Structure prediction by ZEFSAII (Michael W. Deem and Ramdas Pophale) SiO2 
 PCOD9512101
Probable space group: F M M M
;
_chemical_formula_sum "Si O2"
_cell_formula_units_Z 152
_cell_length_a 22.109724
_cell_length_b 13.672610
_cell_length_c 31.152907
_cell_angle_alpha 90.000000
_cell_angle_beta 90.000000
_cell_angle_gamma 90.000000
_cell_volume 9417.450061
_symmetry_space_group_name_H-M "F M M M"
_symmetry_group_IT_number 69
_symmetry_cell_setting 'orthorhombic'
loop_
_space_group_symop_operation_xyz
x,y,z
-x,-y,z
x,-y,-z
-x,y,-z
-x,-y,-z
x,y,-z
-x,y,z
x,-y,z
x,1/2+y,1/2+z
-x,1/2-y,1/2+z
x,1/2-y,1/2-z
-x,1/2+y,1/2-z
-x,1/2-y,1/2-z
x,1/2+y,1/2-z
-x,1/2+y,1/2+z
x,1/2-y,1/2+z
1/2+x,y,1/2+z
1/2-x,-y,1/2+z
1/2+x,-y,1/2-z
1/2-x,y,1/2-z
1/2-x,-y,1/2-z
1/2+x,y,1/2-z
1/2-x,y,1/2+z
1/2+x,-y,1/2+z
1/2+x,1/2+y,z
1/2-x,1/2-y,z
1/2+x,1/2-y,-z
1/2-x,1/2+y,-z
1/2-x,1/2-y,-z
1/2+x,1/2+y,-z
1/2-x,1/2+y,z
1/2+x,1/2-y,z
loop_
_atom_site_type_symbol
_atom_site_label
_atom_site_fract_x
_atom_site_fract_y
_atom_site_fract_z
Si Si1 0.573206 0.182835 0.393268
Si Si2 0.431266 0.117402 0.700528
Si Si3 0.926062 0.000000 0.049582
Si Si4 0.649965 0.386021 0.717053
Si Si5 0.072297 0.889584 0.369638
Si Si6 0.250000 0.750000 0.750000
O O1 0.500000 0.175205 0.393433
O O2 0.592382 0.157542 0.344634
O O3 0.594329 0.098438 0.425632
O O4 0.587772 0.297276 0.399946
O O5 0.500000 0.153181 0.707019
O O6 0.390716 0.138692 0.741447
O O7 0.433795 0.000000 0.696255
O O8 0.000000 0.000000 0.050329
O O9 0.907520 0.000000 0.000000
O O10 0.667780 0.500000 0.720444
O O11 0.609354 0.377252 0.674494
O O12 0.707958 0.317689 0.720309
O O13 0.000000 0.883842 0.360484
O O14 0.084048 0.000000 0.386014
#
# Coordination Sequence:
#
# PCOD9512101 Si02
#       6
#    32  32  16  32  32   8
#     4   9  15  24  39  60  85 112 142 176 217 258
#     4   9  15  25  43  65  85 104 140 192 234 261
#     4   9  16  26  40  60  88 121 150 170 202 261
#     4  10  20  31  43  58  81 118 156 184 224 255
#     4   9  17  29  45  65  86 109 147 193 230 258
#     4  12  22  32  38  50  80 120 168 186 208 254
#
# _framework density 16.140249000000001
#
# number of rings (size 3 to 8) (size 9 to 14) (size 15 to 20)
#    0.000    2.632    1.053    2.211    0.000    2.526 
#    0.000    4.211    0.000    0.632    0.000    4.421 
#    0.000    0.000    0.000   15.158   16.842    6.737 
#
# Total GULP energy -211655.322354 kJ/mol
# GULP energy per Si atom -5569.876904 kJ/mol
# Density = 1.610351 g / cm^3
# Si number density = 16.140249 Si / 1000 Ang^3
#
#
#
# Elastic Constant Matrix: (Units=GPa)
#
#
# Indices 1 2 3 4 5 6 
#
# 1 34.3705 31.2216 9.0605 0.0000 0.0000 0.0000
# 2 31.2216 158.0937 61.1537 0.0000 0.0000 0.0000
# 3 9.0605 61.1537 49.4258 0.0000 0.0000 0.0000
# 4 0.0000 0.0000 0.0000 12.5301 0.0000 0.0000
# 5 0.0000 0.0000 0.0000 0.0000 14.8050 0.0000
# 6 0.0000 0.0000 0.0000 0.0000 0.0000 26.4540
#
#
#
# Elastic Compliance Matrix: (Units=1/GPa)
#
#
# Indices 1 2 3 4 5 6 
#
# 1 0.035905 -0.008717 0.004203 0.000000 0.000000 0.000000
# 2 -0.008717 0.014248 -0.016031 0.000000 0.000000 0.000000
# 3 0.004203 -0.016031 0.039296 0.000000 0.000000 0.000000
# 4 0.000000 0.000000 0.000000 0.079808 0.000000 0.000000
# 5 0.000000 0.000000 0.000000 0.000000 0.067545 0.000000
# 6 0.000000 0.000000 0.000000 0.000000 0.000000 0.037801
#
#
# Mechanical properties :
#
#
# Convention : Reuss Voigt Hill
#
# Bulk Modulus (GPa) = 20.67807 49.41794 35.04801
# Shear Modulus (GPa) = 15.06879 20.12143 17.59511
#
# Velocity S-wave (km/s) = 3.05883 3.53464 3.30531
# Velocity P-wave (km/s) = 5.03136 6.88059 6.02732
#
# Compressibility (1/GPa) = 0.04836041
#
# Stress axis : x y z
#
# Youngs Moduli (GPa) = 27.85147 70.18661 25.44767
#
# Poissons Ratio (x) = 0.61178 -0.10696
# Poissons Ratio (y) = 0.24277 0.40794
# Poissons Ratio (z) = -0.11706 1.12513
#
# Static dielectric constant tensor:
#      x y z
#    x 1.524350 0.000000 0.000000 
#    y 0.000000 1.626130 0.000000 
#    z 0.000000 0.000000 1.509660 
# 
# From -- ./inp_files/46730.got.cif
#   From: 2010.05.17/outbox.cif.g08.bks.cpg/sg69_24_cif.got.tgz:46730.got - 2010.06.03 19:29:58.
