data_PCOD9512812
_publ_section_title
;
Structure prediction by ZEFSAII (Michael W. Deem and Ramdas Pophale) SiO2 
 PCOD9512812
Probable space group: F M M M
;
_chemical_formula_sum "Si O2"
_cell_formula_units_Z 160
_cell_length_a 17.632954
_cell_length_b 23.698524
_cell_length_c 20.432589
_cell_angle_alpha 90.000000
_cell_angle_beta 90.000000
_cell_angle_gamma 90.000000
_cell_volume 8538.267792
_symmetry_space_group_name_H-M "F M M M"
_symmetry_group_IT_number 69
_symmetry_cell_setting 'orthorhombic'
loop_
_space_group_symop_operation_xyz
x,y,z
-x,-y,z
x,-y,-z
-x,y,-z
-x,-y,-z
x,y,-z
-x,y,z
x,-y,z
x,1/2+y,1/2+z
-x,1/2-y,1/2+z
x,1/2-y,1/2-z
-x,1/2+y,1/2-z
-x,1/2-y,1/2-z
x,1/2+y,1/2-z
-x,1/2+y,1/2+z
x,1/2-y,1/2+z
1/2+x,y,1/2+z
1/2-x,-y,1/2+z
1/2+x,-y,1/2-z
1/2-x,y,1/2-z
1/2-x,-y,1/2-z
1/2+x,y,1/2-z
1/2-x,y,1/2+z
1/2+x,-y,1/2+z
1/2+x,1/2+y,z
1/2-x,1/2-y,z
1/2+x,1/2-y,-z
1/2-x,1/2+y,-z
1/2-x,1/2-y,-z
1/2+x,1/2+y,-z
1/2-x,1/2+y,z
1/2+x,1/2-y,z
loop_
_atom_site_type_symbol
_atom_site_label
_atom_site_fract_x
_atom_site_fract_y
_atom_site_fract_z
Si Si1 0.088671 0.635098 0.000000
Si Si2 0.911581 0.371087 0.736580
Si Si3 0.831654 0.612517 0.129231
Si Si4 0.196465 0.196632 0.135492
Si Si5 0.659526 0.258810 0.000000
Si Si6 0.250302 0.000000 0.828700
Si Si7 0.414576 0.500000 0.183563
O O1 0.119047 0.606405 0.065110
O O2 0.118062 0.699361 0.000000
O O3 0.000000 0.635293 0.000000
O O4 0.880426 0.364016 0.810049
O O5 0.856789 0.333970 0.689381
O O6 0.908921 0.439079 0.720840
O O7 0.000000 0.354418 0.730439
O O8 0.760943 0.652731 0.114446
O O9 0.795133 0.554365 0.150024
O O10 0.250000 0.250000 0.157412
O O11 0.147381 0.211933 0.070688
O O12 0.750000 0.250000 0.000000
O O13 0.250000 0.000000 0.750000
O O14 0.164236 0.000000 0.855905
O O15 0.500000 0.500000 0.154027
#
# Coordination Sequence:
#
# PCOD9512812 Si02
#       7
#    16  32  32  32  16  16  16
#     4  12  26  45  65  90 128 172 215 272 334 379
#     4  11  23  38  62  98 131 164 211 271 331 385
#     4  12  22  41  65  92 129 170 217 262 317 399
#     4  11  21  40  65  90 123 165 220 264 315 391
#     4  10  20  44  64  86 119 172 217 259 320 390
#     4  12  20  39  67  98 124 172 210 249 325 392
#     4  10  20  38  62  95 133 162 201 261 319 381
#
# _framework density 18.739163999999999
#
# number of rings (size 3 to 8) (size 9 to 14) (size 15 to 20)
#    0.000    0.800    8.000    1.200    0.000    2.800 
#    0.000    3.000    0.000    0.600    0.000    3.500 
#    0.000    0.000    0.000    0.000    0.000    0.000 
#
# Total GULP energy -223013.273786 kJ/mol
# GULP energy per Si atom -5575.331845 kJ/mol
# Density = 1.869651 g / cm^3
# Si number density = 18.739164 Si / 1000 Ang^3
#
#
#
# Elastic Constant Matrix: (Units=GPa)
#
#
# Indices 1 2 3 4 5 6 
#
# 1 141.6165 28.9064 55.6129 0.0000 0.0000 0.0000
# 2 28.9064 85.7926 37.0433 0.0000 0.0000 0.0000
# 3 55.6129 37.0433 134.2117 0.0000 0.0000 0.0000
# 4 0.0000 0.0000 0.0000 15.8584 0.0000 0.0000
# 5 0.0000 0.0000 0.0000 0.0000 11.4054 0.0000
# 6 0.0000 0.0000 0.0000 0.0000 0.0000 23.5451
#
#
#
# Elastic Compliance Matrix: (Units=1/GPa)
#
#
# Indices 1 2 3 4 5 6 
#
# 1 0.008610 -0.001545 -0.003141 0.000000 0.000000 0.000000
# 2 -0.001545 0.013510 -0.003089 0.000000 0.000000 0.000000
# 3 -0.003141 -0.003089 0.009605 0.000000 0.000000 0.000000
# 4 0.000000 0.000000 0.000000 0.063058 0.000000 0.000000
# 5 0.000000 0.000000 0.000000 0.000000 0.087677 0.000000
# 6 0.000000 0.000000 0.000000 0.000000 0.000000 0.042472
#
#
# Mechanical properties :
#
#
# Convention : Reuss Voigt Hill
#
# Bulk Modulus (GPa) = 61.82131 67.19401 64.50766
# Shear Modulus (GPa) = 20.33558 26.16568 23.25063
#
# Velocity S-wave (km/s) = 3.29780 3.74078 3.52625
# Velocity P-wave (km/s) = 6.89657 7.38872 7.14688
#
# Compressibility (1/GPa) = 0.01617565
#
# Stress axis : x y z
#
# Youngs Moduli (GPa) = 116.14025 74.01840 104.11046
#
# Poissons Ratio (x) = 0.11433 0.32706
# Poissons Ratio (y) = 0.17940 0.32158
# Poissons Ratio (z) = 0.36485 0.22863
#
# Static dielectric constant tensor:
#      x y z
#    x 1.640390 0.000000 0.000000 
#    y 0.000000 1.701790 0.000000 
#    z 0.000000 0.000000 1.691810 
# 
# From -- ./inp_files/30872.got.cif
#   From: 2010.05.17/outbox.cif.g08.bks.cpg/sg69_16_cif.got.tgz:30872.got - 2010.06.03 19:29:58.
