data_PCOD9512803
_publ_section_title
;
Structure prediction by ZEFSAII (Michael W. Deem and Ramdas Pophale) SiO2 
 PCOD9512803
Probable space group: F M M M
;
_chemical_formula_sum "Si O2"
_cell_formula_units_Z 192
_cell_length_a 18.723171
_cell_length_b 31.596369
_cell_length_c 14.361923
_cell_angle_alpha 90.000000
_cell_angle_beta 90.000000
_cell_angle_gamma 90.000000
_cell_volume 8496.287012
_symmetry_space_group_name_H-M "F M M M"
_symmetry_group_IT_number 69
_symmetry_cell_setting 'orthorhombic'
loop_
_space_group_symop_operation_xyz
x,y,z
-x,-y,z
x,-y,-z
-x,y,-z
-x,-y,-z
x,y,-z
-x,y,z
x,-y,z
x,1/2+y,1/2+z
-x,1/2-y,1/2+z
x,1/2-y,1/2-z
-x,1/2+y,1/2-z
-x,1/2-y,1/2-z
x,1/2+y,1/2-z
-x,1/2+y,1/2+z
x,1/2-y,1/2+z
1/2+x,y,1/2+z
1/2-x,-y,1/2+z
1/2+x,-y,1/2-z
1/2-x,y,1/2-z
1/2-x,-y,1/2-z
1/2+x,y,1/2-z
1/2-x,y,1/2+z
1/2+x,-y,1/2+z
1/2+x,1/2+y,z
1/2-x,1/2-y,z
1/2+x,1/2-y,-z
1/2-x,1/2+y,-z
1/2-x,1/2-y,-z
1/2+x,1/2+y,-z
1/2-x,1/2+y,z
1/2+x,1/2-y,z
loop_
_atom_site_type_symbol
_atom_site_label
_atom_site_fract_x
_atom_site_fract_y
_atom_site_fract_z
Si Si1 0.000000 0.045154 0.757231
Si Si2 0.078812 0.168892 0.610923
Si Si3 0.229816 0.452856 0.357458
Si Si4 0.843437 0.864375 0.111178
Si Si5 0.226318 0.703046 0.114112
Si Si6 0.000000 0.374040 0.613309
Si Si7 0.390316 0.930806 0.102489
O O1 0.932334 0.048432 0.687509
O O2 0.000000 0.081662 0.832723
O O3 0.000000 0.000000 0.804773
O O4 0.074931 0.178142 0.500000
O O5 0.146579 0.193744 0.648687
O O6 0.097382 0.119190 0.616869
O O7 0.000000 0.176675 0.650453
O O8 0.205565 0.500000 0.387360
O O9 0.250000 0.455067 0.250000
O O10 0.176648 0.413451 0.370363
O O11 0.306761 0.441280 0.400212
O O12 0.782142 0.832837 0.146322
O O13 0.924113 0.853675 0.141627
O O14 0.842975 0.859859 0.000000
O O15 0.250000 0.750000 0.138741
O O16 0.224680 0.700619 0.000000
O O17 0.000000 0.378434 0.500000
O O18 0.419141 0.942157 0.000000
#
# Coordination Sequence:
#
# PCOD9512803 Si02
#       7
#    16  32  32  32  32  16  32
#     4  12  25  39  58  90 126 163 210 264 324 386
#     4   9  16  30  53  84 122 162 202 241 301 383
#     4  11  23  37  55  83 117 160 212 259 310 376
#     4  10  20  38  61  83 113 155 205 260 315 370
#     4   9  17  32  57  90 124 156 199 258 317 380
#     4  10  24  44  63  83 113 164 222 272 321 372
#     4  11  21  36  59  89 127 167 205 253 318 391
#
# _framework density 22.598106999999999
#
# number of rings (size 3 to 8) (size 9 to 14) (size 15 to 20)
#    0.000    1.833    2.500    2.250    0.000    4.833 
#    1.500    1.667    0.000    0.500    0.000    1.167 
#    0.000    0.000    0.000    0.000    0.000    0.000 
#
# Total GULP energy -268251.603191 kJ/mol
# GULP energy per Si atom -5588.575066 kJ/mol
# Density = 2.254667 g / cm^3
# Si number density = 22.598107 Si / 1000 Ang^3
#
#
#
# Elastic Constant Matrix: (Units=GPa)
#
#
# Indices 1 2 3 4 5 6 
#
# 1 190.0021 94.7913 17.5999 0.0000 0.0000 0.0000
# 2 94.7913 111.4507 0.0212 0.0000 0.0000 0.0000
# 3 17.5999 0.0212 60.4451 0.0000 0.0000 0.0000
# 4 0.0000 0.0000 0.0000 18.3119 0.0000 0.0000
# 5 0.0000 0.0000 0.0000 0.0000 20.5885 0.0000
# 6 0.0000 0.0000 0.0000 0.0000 0.0000 22.9054
#
#
#
# Elastic Compliance Matrix: (Units=1/GPa)
#
#
# Indices 1 2 3 4 5 6 
#
# 1 0.009591 -0.008157 -0.002790 0.000000 0.000000 0.000000
# 2 -0.008157 0.015910 0.002369 0.000000 0.000000 0.000000
# 3 -0.002790 0.002369 0.017355 0.000000 0.000000 0.000000
# 4 0.000000 0.000000 0.000000 0.054609 0.000000 0.000000
# 5 0.000000 0.000000 0.000000 0.000000 0.048571 0.000000
# 6 0.000000 0.000000 0.000000 0.000000 0.000000 0.043658
#
#
# Mechanical properties :
#
#
# Convention : Reuss Voigt Hill
#
# Bulk Modulus (GPa) = 38.90778 65.19141 52.04960
# Shear Modulus (GPa) = 23.21101 28.99353 26.10227
#
# Velocity S-wave (km/s) = 3.20835 3.58579 3.40231
# Velocity P-wave (km/s) = 5.56591 6.78636 6.20621
#
# Compressibility (1/GPa) = 0.02570180
#
# Stress axis : x y z
#
# Youngs Moduli (GPa) = 104.26592 62.85515 57.61903
#
# Poissons Ratio (x) = 0.51269 0.16074
# Poissons Ratio (y) = 0.85047 -0.13652
# Poissons Ratio (z) = 0.29087 -0.14893
#
# Static dielectric constant tensor:
#      x y z
#    x 1.847520 0.000000 0.000000 
#    y 0.000000 1.803640 0.000000 
#    z 0.000000 0.000000 1.933470 
# 
# From -- ./inp_files/23757.got.cif
#   From: 2010.05.17/outbox.cif.g08.bks.cpg/sg69_12_cif.got.tgz:23757.got - 2010.06.03 19:29:58.
