data_PCOD9512776
_publ_section_title
;
Structure prediction by ZEFSAII (Michael W. Deem and Ramdas Pophale) SiO2 
 PCOD9512776
Probable space group: F M M M
;
_chemical_formula_sum "Si O2"
_cell_formula_units_Z 112
_cell_length_a 11.962907
_cell_length_b 26.046072
_cell_length_c 14.671462
_cell_angle_alpha 90.000000
_cell_angle_beta 90.000000
_cell_angle_gamma 90.000000
_cell_volume 4571.432972
_symmetry_space_group_name_H-M "F M M M"
_symmetry_group_IT_number 69
_symmetry_cell_setting 'orthorhombic'
loop_
_space_group_symop_operation_xyz
x,y,z
-x,-y,z
x,-y,-z
-x,y,-z
-x,-y,-z
x,y,-z
-x,y,z
x,-y,z
x,1/2+y,1/2+z
-x,1/2-y,1/2+z
x,1/2-y,1/2-z
-x,1/2+y,1/2-z
-x,1/2-y,1/2-z
x,1/2+y,1/2-z
-x,1/2+y,1/2+z
x,1/2-y,1/2+z
1/2+x,y,1/2+z
1/2-x,-y,1/2+z
1/2+x,-y,1/2-z
1/2-x,y,1/2-z
1/2-x,-y,1/2-z
1/2+x,y,1/2-z
1/2-x,y,1/2+z
1/2+x,-y,1/2+z
1/2+x,1/2+y,z
1/2-x,1/2-y,z
1/2+x,1/2-y,-z
1/2-x,1/2+y,-z
1/2-x,1/2-y,-z
1/2+x,1/2+y,-z
1/2-x,1/2+y,z
1/2+x,1/2-y,z
loop_
_atom_site_type_symbol
_atom_site_label
_atom_site_fract_x
_atom_site_fract_y
_atom_site_fract_z
Si Si1 0.000000 0.348623 0.103772
Si Si2 0.194585 0.056375 0.896763
Si Si3 0.369146 0.781013 0.500000
Si Si4 0.234920 0.164207 0.356198
Si Si5 0.000000 0.058044 0.747385
O O1 0.887244 0.315175 0.116639
O O2 0.000000 0.394192 0.178633
O O3 0.000000 0.367931 0.000000
O O4 0.274195 0.104353 0.883456
O O5 0.104585 0.061203 0.816761
O O6 0.247696 0.000000 0.888029
O O7 0.147194 0.058976 0.000000
O O8 0.500000 0.766072 0.500000
O O9 0.250000 0.750000 0.500000
O O10 0.341812 0.815338 0.589592
O O11 0.250000 0.171447 0.250000
O O12 0.000000 0.000000 0.707408
#
# Coordination Sequence:
#
# PCOD9512776 Si02
#       5
#    16  32  16  32  16
#     4  12  24  42  67 101 156 205 252 316 377 445
#     4  10  20  37  64 104 152 206 264 317 369 440
#     4  12  32  58  89 119 150 192 249 323 391 470
#     4  12  26  46  78 113 153 205 254 312 379 459
#     4  10  21  35  60 101 155 208 265 323 375 436
#
# _framework density 24.499976
#
# number of rings (size 3 to 8) (size 9 to 14) (size 15 to 20)
#    0.000    0.857    5.714    0.429    6.000    4.286 
#    0.000    1.429    0.000    0.000    0.000    0.000 
#    0.000    0.000    0.000    0.000    0.000    0.000 
#
# Total GULP energy -156480.096385 kJ/mol
# GULP energy per Si atom -5588.574871 kJ/mol
# Density = 2.444421 g / cm^3
# Si number density = 24.499976 Si / 1000 Ang^3
#
#
#
# Elastic Constant Matrix: (Units=GPa)
#
#
# Indices 1 2 3 4 5 6 
#
# 1 173.1294 48.0588 49.8997 0.0000 0.0000 0.0000
# 2 48.0588 56.2105 21.3642 0.0000 0.0000 0.0000
# 3 49.8997 21.3642 194.2759 0.0000 0.0000 0.0000
# 4 0.0000 0.0000 0.0000 7.1851 0.0000 0.0000
# 5 0.0000 0.0000 0.0000 0.0000 3.7230 0.0000
# 6 0.0000 0.0000 0.0000 0.0000 0.0000 26.8949
#
#
#
# Elastic Compliance Matrix: (Units=1/GPa)
#
#
# Indices 1 2 3 4 5 6 
#
# 1 0.007895 -0.006240 -0.001342 0.000000 0.000000 0.000000
# 2 -0.006240 0.023498 -0.000981 0.000000 0.000000 0.000000
# 3 -0.001342 -0.000981 0.005600 0.000000 0.000000 0.000000
# 4 0.000000 0.000000 0.000000 0.139177 0.000000 0.000000
# 5 0.000000 0.000000 0.000000 0.000000 0.268602 0.000000
# 6 0.000000 0.000000 0.000000 0.000000 0.000000 0.037182
#
#
# Mechanical properties :
#
#
# Convention : Reuss Voigt Hill
#
# Bulk Modulus (GPa) = 50.33436 73.58457 61.95946
# Shear Modulus (GPa) = 9.88725 27.84681 18.86703
#
# Velocity S-wave (km/s) = 2.01106 3.37502 2.77805
# Velocity P-wave (km/s) = 5.09723 6.72959 5.96947
#
# Compressibility (1/GPa) = 0.01986715
#
# Stress axis : x y z
#
# Youngs Moduli (GPa) = 126.66456 42.55615 178.57718
#
# Poissons Ratio (x) = 0.26555 0.23958
# Poissons Ratio (y) = 0.79039 0.17524
# Poissons Ratio (z) = 0.16993 0.04176
#
# Static dielectric constant tensor:
#      x y z
#    x 2.007190 0.000000 0.000000 
#    y 0.000000 2.063280 0.000000 
#    z 0.000000 0.000000 1.944890 
# 
# From -- ./inp_files/13356.got.cif
#   From: 2010.05.17/outbox.cif.g08.bks.cpg/sg69_7_cif.got.tgz:13356.got - 2010.06.03 19:29:58.
