data_PCOD9512976
_publ_section_title
;
Structure prediction by ZEFSAII (Michael W. Deem and Ramdas Pophale) SiO2 
 PCOD9512976
Probable space group: F M M M
;
_chemical_formula_sum "Si O2"
_cell_formula_units_Z 136
_cell_length_a 16.787163
_cell_length_b 22.647043
_cell_length_c 18.302148
_cell_angle_alpha 90.000000
_cell_angle_beta 90.000000
_cell_angle_gamma 90.000000
_cell_volume 6958.103348
_symmetry_space_group_name_H-M "F M M M"
_symmetry_group_IT_number 69
_symmetry_cell_setting 'orthorhombic'
loop_
_space_group_symop_operation_xyz
x,y,z
-x,-y,z
x,-y,-z
-x,y,-z
-x,-y,-z
x,y,-z
-x,y,z
x,-y,z
x,1/2+y,1/2+z
-x,1/2-y,1/2+z
x,1/2-y,1/2-z
-x,1/2+y,1/2-z
-x,1/2-y,1/2-z
x,1/2+y,1/2-z
-x,1/2+y,1/2+z
x,1/2-y,1/2+z
1/2+x,y,1/2+z
1/2-x,-y,1/2+z
1/2+x,-y,1/2-z
1/2-x,y,1/2-z
1/2-x,-y,1/2-z
1/2+x,y,1/2-z
1/2-x,y,1/2+z
1/2+x,-y,1/2+z
1/2+x,1/2+y,z
1/2-x,1/2-y,z
1/2+x,1/2-y,-z
1/2-x,1/2+y,-z
1/2-x,1/2-y,-z
1/2+x,1/2+y,-z
1/2-x,1/2+y,z
1/2+x,1/2-y,z
loop_
_atom_site_type_symbol
_atom_site_label
_atom_site_fract_x
_atom_site_fract_y
_atom_site_fract_z
Si Si1 0.750065 0.820566 0.580781
Si Si2 0.120952 0.500000 0.917766
Si Si3 0.906792 0.000000 0.864546
Si Si4 0.167426 0.111410 0.211597
Si Si5 0.786668 0.000000 0.000000
Si Si6 0.090348 0.370965 0.858941
O O1 0.723526 0.841507 0.500000
O O2 0.750000 0.750000 0.583502
O O3 0.695852 0.847548 0.644627
O O4 0.840644 0.841974 0.592404
O O5 0.215105 0.500000 0.936280
O O6 0.097439 0.441118 0.874807
O O7 0.085382 0.500000 0.000000
O O8 0.882325 0.057348 0.818594
O O9 0.854286 0.000000 0.936630
O O10 0.000000 0.000000 0.879862
O O11 0.250000 0.091238 0.250000
O O12 0.116341 0.141739 0.275581
O O13 0.000000 0.352245 0.873975
#
# Coordination Sequence:
#
# PCOD9512976 Si02
#       6
#    32  16  16  32   8  32
#     4  10  23  43  65  88 116 164 213 256 302 372
#     4  10  22  36  63  92 127 160 198 247 312 384
#     4  12  23  35  55  87 129 164 202 243 289 356
#     4  10  22  38  63  88 122 167 203 248 306 378
#     4  10  21  36  51  80 120 162 204 228 285 352
#     4  11  22  38  63  97 127 154 197 259 318 360
#
# _framework density 19.545556000000001
#
# number of rings (size 3 to 8) (size 9 to 14) (size 15 to 20)
#    0.353    1.176    0.000    5.824    4.941    6.588 
#    0.000    3.529    0.000    2.824    0.000    0.000 
#    0.000    0.000    0.000    0.000    0.000    0.000 
#
# Total GULP energy -189430.930451 kJ/mol
# GULP energy per Si atom -5571.497954 kJ/mol
# Density = 1.950107 g / cm^3
# Si number density = 19.545556 Si / 1000 Ang^3
#
#
#
# Elastic Constant Matrix: (Units=GPa)
#
#
# Indices 1 2 3 4 5 6 
#
# 1 103.5420 34.7233 26.3586 0.0000 0.0000 0.0000
# 2 34.7233 52.6770 20.7633 0.0000 0.0000 0.0000
# 3 26.3586 20.7633 129.5241 0.0000 0.0000 0.0000
# 4 0.0000 0.0000 0.0000 -33.7217 0.0000 0.0000
# 5 0.0000 0.0000 0.0000 0.0000 -7.2800 0.0000
# 6 0.0000 0.0000 0.0000 0.0000 0.0000 54.3178
#
#
#
# Elastic Compliance Matrix: (Units=1/GPa)
#
#
# Indices 1 2 3 4 5 6 
#
# 1 0.012606 -0.007790 -0.001316 0.000000 0.000000 0.000000
# 2 -0.007790 0.025079 -0.002435 0.000000 0.000000 0.000000
# 3 -0.001316 -0.002435 0.008379 0.000000 0.000000 0.000000
# 4 0.000000 0.000000 0.000000 -0.029655 0.000000 0.000000
# 5 0.000000 0.000000 0.000000 0.000000 -0.137363 0.000000
# 6 0.000000 0.000000 0.000000 0.000000 0.000000 0.018410
#
#
# Mechanical properties :
#
#
# Convention : Reuss Voigt Hill
#
# Bulk Modulus (GPa) = 43.51688 49.93707 46.72697
# Shear Modulus (GPa) = -69.63638 16.25642 -26.68998
#
# Velocity S-wave (km/s) = -5.97537 2.88708 -3.69931
# Velocity P-wave (km/s) = 5.02932 6.05955 2.38999
#
# Compressibility (1/GPa) = 0.02297959
#
# Stress axis : x y z
#
# Youngs Moduli (GPa) = 79.32993 39.87471 119.34896
#
# Poissons Ratio (x) = 0.31064 0.15712
# Poissons Ratio (y) = 0.61801 0.29060
# Poissons Ratio (z) = 0.10443 0.09709
#
# Static dielectric constant tensor:
#      x y z
#    x 1.663930 0.000000 0.000000 
#    y 0.000000 1.679910 0.000000 
#    z 0.000000 0.000000 1.710530 
# 
# From -- ./inp_files/22612.got.cif
#   From: 2010.05.17/outbox.cif.g08.bks.cpg/sg69_12_cif.got.tgz:22612.got - 2010.06.03 19:29:58.
