data_PCOD9512123
_publ_section_title
;
Structure prediction by ZEFSAII (Michael W. Deem and Ramdas Pophale) SiO2 
 PCOD9512123
Probable space group: F M M M
;
_chemical_formula_sum "Si O2"
_cell_formula_units_Z 144
_cell_length_a 36.480500
_cell_length_b 9.040847
_cell_length_c 31.197315
_cell_angle_alpha 90.000000
_cell_angle_beta 90.000000
_cell_angle_gamma 90.000000
_cell_volume 10289.330560
_symmetry_space_group_name_H-M "F M M M"
_symmetry_group_IT_number 69
_symmetry_cell_setting 'orthorhombic'
loop_
_space_group_symop_operation_xyz
x,y,z
-x,-y,z
x,-y,-z
-x,y,-z
-x,-y,-z
x,y,-z
-x,y,z
x,-y,z
x,1/2+y,1/2+z
-x,1/2-y,1/2+z
x,1/2-y,1/2-z
-x,1/2+y,1/2-z
-x,1/2-y,1/2-z
x,1/2+y,1/2-z
-x,1/2+y,1/2+z
x,1/2-y,1/2+z
1/2+x,y,1/2+z
1/2-x,-y,1/2+z
1/2+x,-y,1/2-z
1/2-x,y,1/2-z
1/2-x,-y,1/2-z
1/2+x,y,1/2-z
1/2-x,y,1/2+z
1/2+x,-y,1/2+z
1/2+x,1/2+y,z
1/2-x,1/2-y,z
1/2+x,1/2-y,-z
1/2-x,1/2+y,-z
1/2-x,1/2-y,-z
1/2+x,1/2+y,-z
1/2-x,1/2+y,z
1/2+x,1/2-y,z
loop_
_atom_site_type_symbol
_atom_site_label
_atom_site_fract_x
_atom_site_fract_y
_atom_site_fract_z
Si Si1 0.000000 0.328946 0.947722
Si Si2 0.209804 0.823372 0.112153
Si Si3 0.074678 0.829890 0.052103
Si Si4 0.209643 0.823691 0.208343
Si Si5 0.150766 0.175982 0.449031
O O1 0.962949 0.247128 0.933603
O O2 0.000000 0.500000 0.934739
O O3 0.000000 0.326347 0.000000
O O4 0.250000 0.750000 0.108676
O O5 0.194643 0.796652 0.160574
O O6 0.182516 0.754479 0.077705
O O7 0.213277 0.000000 0.106701
O O8 0.111206 0.741127 0.064028
O O9 0.076673 0.000000 0.066214
O O10 0.073696 0.830153 0.000000
O O11 0.191123 0.750000 0.250000
O O12 0.250000 0.750000 0.206514
O O13 0.212647 0.000000 0.214593
O O14 0.155424 0.203885 0.500000
O O15 0.151616 0.000000 0.442407
#
# Coordination Sequence:
#
# PCOD9512123 Si02
#       5
#    16  32  32  32  32
#     4   9  15  23  37  57  79 101 128 163 200 241
#     4  10  20  32  45  61  80 105 138 173 208 246
#     4   9  16  26  40  57  77 102 132 166 204 244
#     4   9  16  26  42  62  81 100 124 157 200 248
#     4  10  20  32  44  58  78 107 142 177 211 244
#
# _framework density 13.99508
#
# number of rings (size 3 to 8) (size 9 to 14) (size 15 to 20)
#    0.000    2.556    0.000    3.667    0.000    8.444 
#    0.000    0.000    0.000    0.000    0.000    0.000 
#    0.000    0.000    0.000    1.000    0.000   13.667 
#
# Total GULP energy -200473.675416 kJ/mol
# GULP energy per Si atom -5568.713206 kJ/mol
# Density = 1.396323 g / cm^3
# Si number density = 13.995080 Si / 1000 Ang^3
#
#
#
# Elastic Constant Matrix: (Units=GPa)
#
#
# Indices 1 2 3 4 5 6 
#
# 1 97.1612 57.8208 48.2925 0.0000 0.0000 0.0000
# 2 57.8208 109.8199 54.6667 -0.0001 0.0000 -0.0001
# 3 48.2925 54.6667 57.6256 0.0000 0.0000 0.0000
# 4 0.0000 -0.0001 0.0000 18.8843 0.0000 0.0000
# 5 0.0000 0.0000 0.0000 0.0000 -0.8368 0.0000
# 6 0.0000 -0.0001 0.0000 0.0000 0.0000 26.2072
#
#
#
# Elastic Compliance Matrix: (Units=1/GPa)
#
#
# Indices 1 2 3 4 5 6 
#
# 1 0.018449 -0.003822 -0.011835 0.000000 0.000000 0.000000
# 2 -0.003822 0.018045 -0.013915 0.000000 0.000000 0.000000
# 3 -0.011835 -0.013915 0.040473 0.000000 0.000000 0.000000
# 4 0.000000 0.000000 0.000000 0.052954 0.000000 0.000000
# 5 0.000000 0.000000 0.000000 0.000000 -1.194972 -0.000001
# 6 0.000000 0.000000 0.000000 0.000000 -0.000001 0.038157
#
#
# Mechanical properties :
#
#
# Convention : Reuss Voigt Hill
#
# Bulk Modulus (GPa) = 56.11250 65.12967 60.62108
# Shear Modulus (GPa) = -5.19855 15.77271 5.28708
#
# Velocity S-wave (km/s) = -1.92941 3.36075 1.94577
# Velocity P-wave (km/s) = 5.93448 7.85481 6.96118
#
# Compressibility (1/GPa) = 0.01782134
#
# Stress axis : x y z
#
# Youngs Moduli (GPa) = 54.20243 55.41665 24.70803
#
# Poissons Ratio (x) = 0.21182 0.29243
# Poissons Ratio (y) = 0.20718 0.34382
# Poissons Ratio (z) = 0.64150 0.77114
#
# Static dielectric constant tensor:
#      x y z
#    x 1.437490 0.000000 0.000000 
#    y 0.000000 1.466960 0.000000 
#    z 0.000000 0.000000 1.473110 
# 
# From -- ./inp_files/44508.got.cif
#   From: 2010.05.17/outbox.cif.g08.bks.cpg/sg69_23_cif.got.tgz:44508.got - 2010.06.03 19:29:58.
