data_PCOD9512432
_publ_section_title
;
Structure prediction by ZEFSAII (Michael W. Deem and Ramdas Pophale) SiO2 
 PCOD9512432
Probable space group: F M M M
;
_chemical_formula_sum "Si O2"
_cell_formula_units_Z 208
_cell_length_a 18.568527
_cell_length_b 16.573894
_cell_length_c 28.847155
_cell_angle_alpha 90.000000
_cell_angle_beta 90.000000
_cell_angle_gamma 90.000000
_cell_volume 8877.792672
_symmetry_space_group_name_H-M "F M M M"
_symmetry_group_IT_number 69
_symmetry_cell_setting 'orthorhombic'
loop_
_space_group_symop_operation_xyz
x,y,z
-x,-y,z
x,-y,-z
-x,y,-z
-x,-y,-z
x,y,-z
-x,y,z
x,-y,z
x,1/2+y,1/2+z
-x,1/2-y,1/2+z
x,1/2-y,1/2-z
-x,1/2+y,1/2-z
-x,1/2-y,1/2-z
x,1/2+y,1/2-z
-x,1/2+y,1/2+z
x,1/2-y,1/2+z
1/2+x,y,1/2+z
1/2-x,-y,1/2+z
1/2+x,-y,1/2-z
1/2-x,y,1/2-z
1/2-x,-y,1/2-z
1/2+x,y,1/2-z
1/2-x,y,1/2+z
1/2+x,-y,1/2+z
1/2+x,1/2+y,z
1/2-x,1/2-y,z
1/2+x,1/2-y,-z
1/2-x,1/2+y,-z
1/2-x,1/2-y,-z
1/2+x,1/2+y,-z
1/2-x,1/2+y,z
1/2+x,1/2-y,z
loop_
_atom_site_type_symbol
_atom_site_label
_atom_site_fract_x
_atom_site_fract_y
_atom_site_fract_z
Si Si1 0.919203 0.096510 0.712189
Si Si2 0.864872 0.669015 0.591242
Si Si3 0.769979 0.906774 0.556067
Si Si4 0.122426 0.090891 0.818956
Si Si5 0.731900 0.338907 0.304957
Si Si6 0.079806 0.838723 0.555724
Si Si7 0.421183 0.500000 0.945124
O O1 0.720749 0.158468 0.582440
O O2 0.906656 0.108728 0.767729
O O3 0.851036 0.138653 0.688374
O O4 0.914189 0.000000 0.704844
O O5 0.894827 0.658146 0.643270
O O6 0.897918 0.747848 0.568803
O O7 0.887923 0.585123 0.567896
O O8 0.000000 0.623348 0.800070
O O9 0.763030 0.894542 0.500000
O O10 0.853087 0.893875 0.569940
O O11 0.750321 0.000000 0.565659
O O12 0.209811 0.095165 0.820381
O O13 0.099718 0.000000 0.831334
O O14 0.750000 0.335270 0.250000
O O15 0.750000 0.250000 0.323492
O O16 0.076611 0.844065 0.500000
O O17 0.000000 0.858968 0.573906
O O18 0.500000 0.500000 0.923989
O O19 0.424191 0.500000 0.000000
#
# Coordination Sequence:
#
# PCOD9512432 Si02
#       7
#    32  32  32  32  32  32  16
#     4   9  18  34  59  87 112 142 184 234 279 328
#     4  12  21  35  55  83 114 152 191 233 284 336
#     4  10  20  36  59  83 109 144 193 243 284 337
#     4  10  20  35  53  81 114 152 186 227 277 336
#     4   9  18  34  55  80 110 146 187 227 276 334
#     4  10  22  38  56  81 112 148 189 235 289 342
#     4  11  22  34  52  78 112 153 189 227 277 334
#
# _framework density 23.429247
#
# number of rings (size 3 to 8) (size 9 to 14) (size 15 to 20)
#    0.000    1.923    1.538    2.769    0.000    7.077 
#    0.000    7.692    0.000    2.769    0.000    0.000 
#    0.000    0.000    0.000    0.000    0.000    0.000 
#
# Total GULP energy -290438.686988 kJ/mol
# GULP energy per Si atom -5585.359365 kJ/mol
# Density = 2.337592 g / cm^3
# Si number density = 23.429247 Si / 1000 Ang^3
#
#
#
# Elastic Constant Matrix: (Units=GPa)
#
#
# Indices 1 2 3 4 5 6 
#
# 1 139.3711 15.4676 -6.7922 0.0000 0.0000 0.0000
# 2 15.4676 53.6058 3.4578 0.0000 0.0000 0.0000
# 3 -6.7922 3.4578 36.5093 0.0000 0.0000 0.0000
# 4 0.0000 0.0000 0.0000 9.4506 0.0000 0.0000
# 5 0.0000 0.0000 0.0000 0.0000 -43.7032 0.0000
# 6 0.0000 0.0000 0.0000 0.0000 0.0000 33.7259
#
#
#
# Elastic Compliance Matrix: (Units=1/GPa)
#
#
# Indices 1 2 3 4 5 6 
#
# 1 0.007505 -0.002270 0.001611 0.000000 0.000000 0.000000
# 2 -0.002270 0.019456 -0.002265 0.000000 0.000000 0.000000
# 3 0.001611 -0.002265 0.027905 0.000000 0.000000 0.000000
# 4 0.000000 0.000000 0.000000 0.105814 0.000000 0.000000
# 5 0.000000 0.000000 0.000000 0.000000 -0.022882 0.000000
# 6 0.000000 0.000000 0.000000 0.000000 0.000000 0.029651
#
#
# Mechanical properties :
#
#
# Convention : Reuss Voigt Hill
#
# Bulk Modulus (GPa) = 20.40014 28.19473 24.29743
# Shear Modulus (GPa) = 26.36646 14.38485 20.37566
#
# Velocity S-wave (km/s) = 3.35829 2.48053 2.95221
# Velocity P-wave (km/s) = 4.87478 4.50157 4.69189
#
# Compressibility (1/GPa) = 0.04901928
#
# Stress axis : x y z
#
# Youngs Moduli (GPa) = 133.23568 51.39885 35.83648
#
# Poissons Ratio (x) = 0.11665 -0.05774
# Poissons Ratio (y) = 0.30239 0.08117
# Poissons Ratio (z) = -0.21468 0.11641
#
# Static dielectric constant tensor:
#      x y z
#    x 1.977790 0.000000 0.000000 
#    y 0.000000 1.821180 0.000000 
#    z 0.000000 0.000000 1.942620 
# 
# From -- ./inp_files/43268.got.cif
#   From: 2010.05.17/outbox.cif.g08.bks.cpg/sg69_22_cif.got.tgz:43268.got - 2010.06.03 19:29:58.
