data_PCOD9512276
_publ_section_title
;
Structure prediction by ZEFSAII (Michael W. Deem and Ramdas Pophale) SiO2 
 PCOD9512276
Probable space group: F M M M
;
_chemical_formula_sum "Si O2"
_cell_formula_units_Z 144
_cell_length_a 32.910765
_cell_length_b 8.489044
_cell_length_c 27.741560
_cell_angle_alpha 90.000000
_cell_angle_beta 90.000000
_cell_angle_gamma 90.000000
_cell_volume 7750.462892
_symmetry_space_group_name_H-M "F M M M"
_symmetry_group_IT_number 69
_symmetry_cell_setting 'orthorhombic'
loop_
_space_group_symop_operation_xyz
x,y,z
-x,-y,z
x,-y,-z
-x,y,-z
-x,-y,-z
x,y,-z
-x,y,z
x,-y,z
x,1/2+y,1/2+z
-x,1/2-y,1/2+z
x,1/2-y,1/2-z
-x,1/2+y,1/2-z
-x,1/2-y,1/2-z
x,1/2+y,1/2-z
-x,1/2+y,1/2+z
x,1/2-y,1/2+z
1/2+x,y,1/2+z
1/2-x,-y,1/2+z
1/2+x,-y,1/2-z
1/2-x,y,1/2-z
1/2-x,-y,1/2-z
1/2+x,y,1/2-z
1/2-x,y,1/2+z
1/2+x,-y,1/2+z
1/2+x,1/2+y,z
1/2-x,1/2-y,z
1/2+x,1/2-y,-z
1/2-x,1/2+y,-z
1/2-x,1/2-y,-z
1/2+x,1/2+y,-z
1/2-x,1/2+y,z
1/2+x,1/2-y,z
loop_
_atom_site_type_symbol
_atom_site_label
_atom_site_fract_x
_atom_site_fract_y
_atom_site_fract_z
Si Si1 0.875565 0.688075 0.198443
Si Si2 0.294016 0.311410 0.153286
Si Si3 0.000000 0.807750 0.444269
Si Si4 0.414194 0.690678 0.401596
Si Si5 0.832193 0.810032 0.053338
O O1 0.874521 0.500000 0.199368
O O2 0.889440 0.750000 0.250000
O O3 0.830439 0.750252 0.186554
O O4 0.903295 0.738080 0.153115
O O5 0.294252 0.500000 0.154076
O O6 0.250000 0.250000 0.167559
O O7 0.304890 0.256308 0.098550
O O8 0.958479 0.756384 0.418668
O O9 0.000000 0.759083 0.500000
O O10 0.000000 0.000000 0.443407
O O11 0.412817 0.500000 0.404160
O O12 0.377975 0.755659 0.434817
O O13 0.831313 0.000000 0.053368
O O14 0.819844 0.754406 0.000000
#
# Coordination Sequence:
#
# PCOD9512276 Si02
#       5
#    32  32  16  32  32
#     4  10  20  35  54  74  97 128 166 206 251 298
#     4  10  20  34  51  73 101 130 164 206 249 294
#     4   9  16  28  50  79 107 133 163 201 242 283
#     4   9  18  32  51  75 101 130 167 208 245 288
#     4   9  18  32  49  70 100 136 168 201 245 294
#
# _framework density 18.579536999999998
#
# number of rings (size 3 to 8) (size 9 to 14) (size 15 to 20)
#    0.000    2.556    0.000    2.000    0.000    4.000 
#    0.000    3.333    0.000    2.000    0.000    0.000 
#    0.000    0.000    0.000    0.000    0.000    0.000 
#
# Total GULP energy -200865.387126 kJ/mol
# GULP energy per Si atom -5579.594087 kJ/mol
# Density = 1.853725 g / cm^3
# Si number density = 18.579537 Si / 1000 Ang^3
#
#
#
# Elastic Constant Matrix: (Units=GPa)
#
#
# Indices 1 2 3 4 5 6 
#
# 1 93.2741 7.8975 19.5106 -0.0001 0.0000 0.0001
# 2 7.8975 17.6563 14.9135 -0.0002 0.0000 0.0001
# 3 19.5106 14.9135 97.0921 0.0000 0.0000 0.0000
# 4 -0.0001 -0.0002 0.0000 21.7539 0.0000 0.0000
# 5 0.0000 0.0000 0.0000 0.0000 6.4040 0.0000
# 6 0.0001 0.0001 0.0000 0.0000 0.0000 18.1065
#
#
#
# Elastic Compliance Matrix: (Units=1/GPa)
#
#
# Indices 1 2 3 4 5 6 
#
# 1 0.011391 -0.003633 -0.001731 0.000000 0.000000 0.000000
# 2 -0.003633 0.066239 -0.009444 0.000000 0.000000 0.000000
# 3 -0.001731 -0.009444 0.012098 0.000000 0.000000 0.000000
# 4 0.000000 0.000000 0.000000 0.045969 0.000000 0.000000
# 5 0.000000 0.000000 0.000000 0.000000 0.156151 0.000000
# 6 0.000000 0.000000 0.000000 0.000000 0.000000 0.055229
#
#
# Mechanical properties :
#
#
# Convention : Reuss Voigt Hill
#
# Bulk Modulus (GPa) = 16.63577 32.51841 24.57709
# Shear Modulus (GPa) = 12.60301 20.29962 16.45131
#
# Velocity S-wave (km/s) = 2.60730 3.30900 2.97888
# Velocity P-wave (km/s) = 4.24703 5.66918 5.00884
#
# Compressibility (1/GPa) = 0.06011145
#
# Stress axis : x y z
#
# Youngs Moduli (GPa) = 87.79044 15.09678 82.65819
#
# Poissons Ratio (x) = 0.05485 0.14308
# Poissons Ratio (y) = 0.31894 0.78066
# Poissons Ratio (z) = 0.15196 0.14258
#
# Static dielectric constant tensor:
#      x y z
#    x 1.608450 0.000000 0.000000 
#    y 0.000000 1.627230 0.000000 
#    z 0.000000 0.000000 1.660430 
# 
# From -- ./inp_files/5565.got.cif
#   From: 2010.05.17/outbox.cif.g08.bks.cpg/sg69_3_cif.got.tgz:5565.got - 2010.06.03 19:29:58.
