data_PCOD9512163
_publ_section_title
;
Structure prediction by ZEFSAII (Michael W. Deem and Ramdas Pophale) SiO2 
 PCOD9512163
Probable space group: F M M M
;
_chemical_formula_sum "Si O2"
_cell_formula_units_Z 128
_cell_length_a 27.826414
_cell_length_b 26.848450
_cell_length_c 9.049141
_cell_angle_alpha 90.000000
_cell_angle_beta 90.000000
_cell_angle_gamma 90.000000
_cell_volume 6760.577813
_symmetry_space_group_name_H-M "F M M M"
_symmetry_group_IT_number 69
_symmetry_cell_setting 'orthorhombic'
loop_
_space_group_symop_operation_xyz
x,y,z
-x,-y,z
x,-y,-z
-x,y,-z
-x,-y,-z
x,y,-z
-x,y,z
x,-y,z
x,1/2+y,1/2+z
-x,1/2-y,1/2+z
x,1/2-y,1/2-z
-x,1/2+y,1/2-z
-x,1/2-y,1/2-z
x,1/2+y,1/2-z
-x,1/2+y,1/2+z
x,1/2-y,1/2+z
1/2+x,y,1/2+z
1/2-x,-y,1/2+z
1/2+x,-y,1/2-z
1/2-x,y,1/2-z
1/2-x,-y,1/2-z
1/2+x,y,1/2-z
1/2-x,y,1/2+z
1/2+x,-y,1/2+z
1/2+x,1/2+y,z
1/2-x,1/2-y,z
1/2+x,1/2-y,-z
1/2-x,1/2+y,-z
1/2-x,1/2-y,-z
1/2+x,1/2+y,-z
1/2-x,1/2+y,z
1/2+x,1/2-y,z
loop_
_atom_site_type_symbol
_atom_site_label
_atom_site_fract_x
_atom_site_fract_y
_atom_site_fract_z
Si Si1 0.000000 0.305446 0.821201
Si Si2 0.656174 0.944431 0.325830
Si Si3 0.250000 0.617633 0.250000
Si Si4 0.819198 0.798036 0.334148
Si Si5 0.094300 0.352494 0.678863
O O1 0.000000 0.250000 0.750000
O O2 0.046381 0.334774 0.759653
O O3 0.000000 0.302352 0.000000
O O4 0.647587 0.948820 0.500000
O O5 0.708131 0.917956 0.311357
O O6 0.614589 0.906831 0.272706
O O7 0.656191 0.000000 0.259913
O O8 0.219050 0.657126 0.155975
O O9 0.834987 0.785519 0.500000
O O10 0.799971 0.750000 0.250000
O O11 0.863254 0.816402 0.233550
O O12 0.089211 0.350915 0.500000
#
# Coordination Sequence:
#
# PCOD9512163 Si02
#       5
#    16  32  16  32  32
#     4  12  24  40  63  88 115 145 180 223 273 330
#     4   9  18  34  56  81 109 144 187 232 275 322
#     4  10  20  32  52  78 112 148 190 234 278 328
#     4  11  22  35  52  77 112 152 191 232 280 333
#     4  10  21  38  59  84 114 146 184 228 275 331
#
# _framework density 18.933292999999999
#
# number of rings (size 3 to 8) (size 9 to 14) (size 15 to 20)
#    0.000    1.750    0.000    4.875    0.000    4.000 
#    0.000    0.625    0.000   18.750    0.000    0.000 
#    0.000    0.000    0.000    0.000    0.000    0.000 
#
# Total GULP energy -178287.087968 kJ/mol
# GULP energy per Si atom -5571.471499 kJ/mol
# Density = 1.889020 g / cm^3
# Si number density = 18.933293 Si / 1000 Ang^3
#
#
#
# Elastic Constant Matrix: (Units=GPa)
#
#
# Indices 1 2 3 4 5 6 
#
# 1 150.8256 81.2928 41.7378 -0.0020 -0.0043 0.0088
# 2 81.2928 166.7324 44.3551 -0.0063 0.0000 0.0371
# 3 41.7378 44.3551 102.3328 -0.0105 -0.0715 0.0549
# 4 -0.0020 -0.0063 -0.0105 17.4705 -0.0202 0.0408
# 5 -0.0043 0.0000 -0.0715 -0.0202 -315.0578 -0.2331
# 6 0.0088 0.0371 0.0549 0.0408 -0.2331 83.1648
#
#
#
# Elastic Compliance Matrix: (Units=1/GPa)
#
#
# Indices 1 2 3 4 5 6 
#
# 1 0.009370 -0.004015 -0.002082 -0.000002 0.000000 0.000002
# 2 -0.004015 0.008500 -0.002047 0.000001 0.000001 -0.000002
# 3 -0.002082 -0.002047 0.011508 0.000006 -0.000003 -0.000006
# 4 -0.000002 0.000001 0.000006 0.057239 -0.000004 -0.000028
# 5 0.000000 0.000001 -0.000003 -0.000004 -0.003174 -0.000009
# 6 0.000002 -0.000002 -0.000006 -0.000028 -0.000009 0.012024
#
#
# Mechanical properties :
#
#
# Convention : Reuss Voigt Hill
#
# Bulk Modulus (GPa) = 76.38284 83.85134 80.11709
# Shear Modulus (GPa) = 43.05996 -26.05082 8.50457
#
# Velocity S-wave (km/s) = 4.77413 -3.71337 2.12170
# Velocity P-wave (km/s) = 8.41549 5.09886 6.95769
#
# Compressibility (1/GPa) = 0.01309195
#
# Stress axis : x y z
#
# Youngs Moduli (GPa) = 106.72232 117.65350 86.89545
#
# Poissons Ratio (x) = 0.47235 0.18088
# Poissons Ratio (y) = 0.42847 0.17784
# Poissons Ratio (z) = 0.22215 0.24078
#
# Static dielectric constant tensor:
#      x y z
#    x 1.649860 0.000000 0.000000 
#    y 0.000000 1.784820 0.000000 
#    z 0.000000 0.000000 1.659240 
# 
# From -- ./inp_files/4834.got.cif
#   From: 2010.05.17/outbox.cif.g08.bks.cpg/sg69_3_cif.got.tgz:4834.got - 2010.06.03 19:29:58.
