data_PCOD9512471
_publ_section_title
;
Structure prediction by ZEFSAII (Michael W. Deem and Ramdas Pophale) SiO2 
 PCOD9512471
Probable space group: F M M M
;
_chemical_formula_sum "Si O2"
_cell_formula_units_Z 168
_cell_length_a 18.858299
_cell_length_b 19.651930
_cell_length_c 25.896912
_cell_angle_alpha 90.000000
_cell_angle_beta 90.000000
_cell_angle_gamma 90.000000
_cell_volume 9597.446652
_symmetry_space_group_name_H-M "F M M M"
_symmetry_group_IT_number 69
_symmetry_cell_setting 'orthorhombic'
loop_
_space_group_symop_operation_xyz
x,y,z
-x,-y,z
x,-y,-z
-x,y,-z
-x,-y,-z
x,y,-z
-x,y,z
x,-y,z
x,1/2+y,1/2+z
-x,1/2-y,1/2+z
x,1/2-y,1/2-z
-x,1/2+y,1/2-z
-x,1/2-y,1/2-z
x,1/2+y,1/2-z
-x,1/2+y,1/2+z
x,1/2-y,1/2+z
1/2+x,y,1/2+z
1/2-x,-y,1/2+z
1/2+x,-y,1/2-z
1/2-x,y,1/2-z
1/2-x,-y,1/2-z
1/2+x,y,1/2-z
1/2-x,y,1/2+z
1/2+x,-y,1/2+z
1/2+x,1/2+y,z
1/2-x,1/2-y,z
1/2+x,1/2-y,-z
1/2-x,1/2+y,-z
1/2-x,1/2-y,-z
1/2+x,1/2+y,-z
1/2-x,1/2+y,z
1/2+x,1/2-y,z
loop_
_atom_site_type_symbol
_atom_site_label
_atom_site_fract_x
_atom_site_fract_y
_atom_site_fract_z
Si Si1 0.418444 0.582199 0.692196
Si Si2 0.820261 0.578136 0.715057
Si Si3 0.786554 0.678459 0.621580
Si Si4 0.144914 0.122567 0.582670
Si Si5 0.868458 0.500000 0.000000
Si Si6 0.919654 0.733169 0.439894
O O1 0.500000 0.604249 0.689306
O O2 0.416153 0.500000 0.691144
O O3 0.381775 0.602381 0.745951
O O4 0.376839 0.607135 0.641820
O O5 0.834838 0.500000 0.697816
O O6 0.750000 0.575678 0.750000
O O7 0.805100 0.628562 0.668330
O O8 0.750000 0.750000 0.638644
O O9 0.727625 0.643818 0.584722
O O10 0.858758 0.695602 0.591911
O O11 0.132021 0.059532 0.545305
O O12 0.098955 0.186980 0.564718
O O13 0.915414 0.713922 0.500000
O O14 0.000000 0.720818 0.421576
#
# Coordination Sequence:
#
# PCOD9512471 Si02
#       6
#    32  32  32  32   8  32
#     4  10  20  35  55  82 121 154 184 236 302 359
#     4  10  20  37  60  85 113 153 199 241 295 348
#     4  10  23  38  62  87 119 155 201 249 295 357
#     4  11  21  38  57  91 119 153 197 244 296 362
#     4  12  24  32  63  94 125 152 198 248 302 364
#     4  10  22  41  59  80 118 162 200 245 298 349
#
# _framework density 17.504656000000001
#
# number of rings (size 3 to 8) (size 9 to 14) (size 15 to 20)
#    0.000    1.714    3.810    0.571    2.667    2.286 
#    0.000    1.905    0.000    3.429    0.000    2.000 
#    0.000    0.000    0.000    0.000    0.000    0.000 
#
# Total GULP energy -233827.091815 kJ/mol
# GULP energy per Si atom -5567.311710 kJ/mol
# Density = 1.746481 g / cm^3
# Si number density = 17.504656 Si / 1000 Ang^3
#
#
#
# Elastic Constant Matrix: (Units=GPa)
#
#
# Indices 1 2 3 4 5 6 
#
# 1 132.4691 32.3049 40.3497 0.0000 0.0000 0.0000
# 2 32.3049 50.2916 35.8956 0.0000 0.0000 0.0000
# 3 40.3497 35.8956 76.7091 0.0000 0.0000 0.0000
# 4 0.0000 0.0000 0.0000 12.4658 0.0000 0.0000
# 5 0.0000 0.0000 0.0000 0.0000 19.6999 0.0000
# 6 0.0000 0.0000 0.0000 0.0000 0.0000 17.2891
#
#
#
# Elastic Compliance Matrix: (Units=1/GPa)
#
#
# Indices 1 2 3 4 5 6 
#
# 1 0.009446 -0.003786 -0.003197 0.000000 0.000000 0.000000
# 2 -0.003786 0.031373 -0.012689 0.000000 0.000000 0.000000
# 3 -0.003197 -0.012689 0.020656 0.000000 0.000000 0.000000
# 4 0.000000 0.000000 0.000000 0.080220 0.000000 0.000000
# 5 0.000000 0.000000 0.000000 0.000000 0.050762 0.000000
# 6 0.000000 0.000000 0.000000 0.000000 0.000000 0.057840
#
#
# Mechanical properties :
#
#
# Convention : Reuss Voigt Hill
#
# Bulk Modulus (GPa) = 45.18712 52.95224 49.06968
# Shear Modulus (GPa) = 16.83403 19.95227 18.39315
#
# Velocity S-wave (km/s) = 3.10447 3.37979 3.24506
# Velocity P-wave (km/s) = 6.22260 6.74883 6.49105
#
# Compressibility (1/GPa) = 0.02213020
#
# Stress axis : x y z
#
# Youngs Moduli (GPa) = 105.86507 31.87465 48.41214
#
# Poissons Ratio (x) = 0.12067 0.15478
# Poissons Ratio (y) = 0.40077 0.61432
# Poissons Ratio (z) = 0.33847 0.40447
#
# Static dielectric constant tensor:
#      x y z
#    x 1.614970 0.000000 0.000000 
#    y 0.000000 1.587300 0.000000 
#    z 0.000000 0.000000 1.578320 
# 
# From -- ./inp_files/37327.got.cif
#   From: 2010.05.17/outbox.cif.g08.bks.cpg/sg69_19_cif.got.tgz:37327.got - 2010.06.03 19:29:58.
