data_PCOD9512230
_publ_section_title
;
Structure prediction by ZEFSAII (Michael W. Deem and Ramdas Pophale) SiO2 
 PCOD9512230
Probable space group: F M M M
;
_chemical_formula_sum "Si O2"
_cell_formula_units_Z 208
_cell_length_a 20.442375
_cell_length_b 20.453902
_cell_length_c 24.996898
_cell_angle_alpha 90.000000
_cell_angle_beta 90.000000
_cell_angle_gamma 90.000000
_cell_volume 10451.861345
_symmetry_space_group_name_H-M "F M M M"
_symmetry_group_IT_number 69
_symmetry_cell_setting 'orthorhombic'
loop_
_space_group_symop_operation_xyz
x,y,z
-x,-y,z
x,-y,-z
-x,y,-z
-x,-y,-z
x,y,-z
-x,y,z
x,-y,z
x,1/2+y,1/2+z
-x,1/2-y,1/2+z
x,1/2-y,1/2-z
-x,1/2+y,1/2-z
-x,1/2-y,1/2-z
x,1/2+y,1/2-z
-x,1/2+y,1/2+z
x,1/2-y,1/2+z
1/2+x,y,1/2+z
1/2-x,-y,1/2+z
1/2+x,-y,1/2-z
1/2-x,y,1/2-z
1/2-x,-y,1/2-z
1/2+x,y,1/2-z
1/2-x,y,1/2+z
1/2+x,-y,1/2+z
1/2+x,1/2+y,z
1/2-x,1/2-y,z
1/2+x,1/2-y,-z
1/2-x,1/2+y,-z
1/2-x,1/2-y,-z
1/2+x,1/2+y,-z
1/2-x,1/2+y,z
1/2+x,1/2-y,z
loop_
_atom_site_type_symbol
_atom_site_label
_atom_site_fract_x
_atom_site_fract_y
_atom_site_fract_z
Si Si1 0.322218 0.611982 0.061471
Si Si2 0.079560 0.575128 0.772459
Si Si3 0.576196 0.283502 0.308122
Si Si4 0.573032 0.922106 0.349333
Si Si5 0.322149 0.249612 0.608044
Si Si6 0.176697 0.393134 0.064022
Si Si7 0.074387 0.000000 0.565447
O O1 0.378131 0.593506 0.102941
O O2 0.319586 0.690725 0.066027
O O3 0.250589 0.586952 0.080158
O O4 0.333872 0.591978 0.000000
O O5 0.100974 0.500000 0.785759
O O6 0.099119 0.640223 0.805004
O O7 0.097640 0.591546 0.710774
O O8 0.000000 0.573710 0.773631
O O9 0.500000 0.283169 0.324362
O O10 0.579987 0.250000 0.250000
O O11 0.621039 0.243346 0.348685
O O12 0.500000 0.892829 0.356051
O O13 0.565983 0.000000 0.349634
O O14 0.250000 0.250000 0.634293
O O15 0.333289 0.318684 0.580062
O O16 0.117340 0.438174 0.082902
O O17 0.177504 0.398236 0.000000
O O18 0.071231 0.000000 0.500000
O O19 0.000000 0.000000 0.585611
#
# Coordination Sequence:
#
# PCOD9512230 Si02
#       7
#    32  32  32  32  32  32  16
#     4  10  20  33  53  77 106 146 188 225 264 318
#     4   8  15  31  53  76 106 143 180 222 276 333
#     4  10  20  34  55  81 107 139 183 228 273 334
#     4   9  18  32  51  77 109 143 180 224 271 318
#     4  10  21  37  54  78 107 142 180 227 274 322
#     4   9  19  36  56  77 105 141 181 220 266 326
#     4   9  18  34  56  80 105 136 175 223 278 331
#
# _framework density 19.900762
#
# number of rings (size 3 to 8) (size 9 to 14) (size 15 to 20)
#    0.000    2.692    0.000    2.308    1.077    5.231 
#    1.385    0.769    0.000    2.769    0.000    5.385 
#    0.000    0.000    0.000    0.000    0.000    0.000 
#
# Total GULP energy -289914.609633 kJ/mol
# GULP energy per Si atom -5575.280954 kJ/mol
# Density = 1.985547 g / cm^3
# Si number density = 19.900762 Si / 1000 Ang^3
#
#
#
# Elastic Constant Matrix: (Units=GPa)
#
#
# Indices 1 2 3 4 5 6 
#
# 1 97.8598 28.1216 28.7499 0.0000 0.0000 0.0000
# 2 28.1216 80.6271 5.0546 0.0000 0.0000 0.0000
# 3 28.7499 5.0546 41.6640 0.0000 0.0000 0.0000
# 4 0.0000 0.0000 0.0000 24.1057 0.0000 0.0000
# 5 0.0000 0.0000 0.0000 0.0000 17.5183 0.0000
# 6 0.0000 0.0000 0.0000 0.0000 0.0000 28.6897
#
#
#
# Elastic Compliance Matrix: (Units=1/GPa)
#
#
# Indices 1 2 3 4 5 6 
#
# 1 0.014197 -0.004371 -0.009266 0.000000 0.000000 0.000000
# 2 -0.004371 0.013843 0.001337 0.000000 0.000000 0.000000
# 3 -0.009266 0.001337 0.030234 0.000000 0.000000 0.000000
# 4 0.000000 0.000000 0.000000 0.041484 0.000000 0.000000
# 5 0.000000 0.000000 0.000000 0.000000 0.057083 0.000000
# 6 0.000000 0.000000 0.000000 0.000000 0.000000 0.034856
#
#
# Mechanical properties :
#
#
# Convention : Reuss Voigt Hill
#
# Bulk Modulus (GPa) = 29.69737 38.22255 33.95996
# Shear Modulus (GPa) = 21.97588 24.61107 23.29347
#
# Velocity S-wave (km/s) = 3.32667 3.52047 3.42494
# Velocity P-wave (km/s) = 5.45076 5.98108 5.72206
#
# Compressibility (1/GPa) = 0.03367302
#
# Stress axis : x y z
#
# Youngs Moduli (GPa) = 70.43712 72.23621 33.07581
#
# Poissons Ratio (x) = 0.31573 0.30649
# Poissons Ratio (y) = 0.30787 -0.04421
# Poissons Ratio (z) = 0.65269 -0.09655
#
# Static dielectric constant tensor:
#      x y z
#    x 1.752590 0.000000 0.000000 
#    y 0.000000 1.753090 0.000000 
#    z 0.000000 0.000000 1.687480 
# 
# From -- ./inp_files/42001.got.cif
#   From: 2010.05.17/outbox.cif.g08.bks.cpg/sg69_22_cif.got.tgz:42001.got - 2010.06.03 19:29:58.
