data_PCOD9512921
_publ_section_title
;
Structure prediction by ZEFSAII (Michael W. Deem and Ramdas Pophale) SiO2 
 PCOD9512921
Probable space group: F M M M
;
_chemical_formula_sum "Si O2"
_cell_formula_units_Z 160
_cell_length_a 21.233195
_cell_length_b 20.162777
_cell_length_c 18.753579
_cell_angle_alpha 90.000000
_cell_angle_beta 90.000000
_cell_angle_gamma 90.000000
_cell_volume 8028.785538
_symmetry_space_group_name_H-M "F M M M"
_symmetry_group_IT_number 69
_symmetry_cell_setting 'orthorhombic'
loop_
_space_group_symop_operation_xyz
x,y,z
-x,-y,z
x,-y,-z
-x,y,-z
-x,-y,-z
x,y,-z
-x,y,z
x,-y,z
x,1/2+y,1/2+z
-x,1/2-y,1/2+z
x,1/2-y,1/2-z
-x,1/2+y,1/2-z
-x,1/2-y,1/2-z
x,1/2+y,1/2-z
-x,1/2+y,1/2+z
x,1/2-y,1/2+z
1/2+x,y,1/2+z
1/2-x,-y,1/2+z
1/2+x,-y,1/2-z
1/2-x,y,1/2-z
1/2-x,-y,1/2-z
1/2+x,y,1/2-z
1/2-x,y,1/2+z
1/2+x,-y,1/2+z
1/2+x,1/2+y,z
1/2-x,1/2-y,z
1/2+x,1/2-y,-z
1/2-x,1/2+y,-z
1/2-x,1/2-y,-z
1/2+x,1/2+y,-z
1/2-x,1/2+y,z
1/2+x,1/2-y,z
loop_
_atom_site_type_symbol
_atom_site_label
_atom_site_fract_x
_atom_site_fract_y
_atom_site_fract_z
Si Si1 0.500000 0.079434 0.914212
Si Si2 0.067609 0.867643 0.846223
Si Si3 0.316848 0.574068 0.761442
Si Si4 0.601058 0.750000 0.750000
Si Si5 0.867786 0.640106 0.135940
Si Si6 0.929834 0.693831 0.500000
Si Si7 0.813324 0.294940 0.000000
O O1 0.561697 0.120293 0.888359
O O2 0.500000 0.000000 0.892271
O O3 0.500000 0.079196 0.000000
O O4 0.130565 0.899917 0.815524
O O5 0.064756 0.799700 0.801436
O O6 0.000000 0.902999 0.834821
O O7 0.074291 0.849933 0.928904
O O8 0.303406 0.500000 0.785917
O O9 0.250000 0.610424 0.750000
O O10 0.345796 0.578117 0.682744
O O11 0.634709 0.701119 0.692984
O O12 0.823578 0.659956 0.070067
O O13 0.873948 0.746335 0.500000
O O14 0.000000 0.725513 0.500000
O O15 0.750000 0.250000 0.000000
#
# Coordination Sequence:
#
# PCOD9512921 Si02
#       7
#    16  32  32  16  32  16  16
#     4  11  24  41  64  94 130 172 220 265 312 376
#     4  10  21  37  62  91 122 158 208 257 308 372
#     4  10  24  44  64  87 123 167 209 258 315 372
#     4  10  21  34  59  92 121 162 197 246 321 376
#     4  11  24  40  64  92 129 166 210 262 319 380
#     4  10  22  40  63  87 127 162 205 252 314 378
#     4  12  26  38  62  96 129 169 205 256 317 383
#
# _framework density 19.928294999999999
#
# number of rings (size 3 to 8) (size 9 to 14) (size 15 to 20)
#    0.000    1.500    3.000    0.900   11.200    0.400 
#    0.000    5.000    0.000    4.200    0.000    0.000 
#    0.000    0.000    0.000    0.000    0.000    0.000 
#
# Total GULP energy -222707.272435 kJ/mol
# GULP energy per Si atom -5567.681811 kJ/mol
# Density = 1.988294 g / cm^3
# Si number density = 19.928295 Si / 1000 Ang^3
#
#
#
# Elastic Constant Matrix: (Units=GPa)
#
#
# Indices 1 2 3 4 5 6 
#
# 1 121.9991 18.3435 32.2619 0.0000 0.0000 0.0000
# 2 18.3435 52.7346 12.3351 0.0000 0.0000 0.0000
# 3 32.2619 12.3351 135.2240 0.0000 0.0000 0.0000
# 4 0.0000 0.0000 0.0000 7.8163 0.0000 0.0000
# 5 0.0000 0.0000 0.0000 0.0000 17.1592 0.0000
# 6 0.0000 0.0000 0.0000 0.0000 0.0000 17.3620
#
#
#
# Elastic Compliance Matrix: (Units=1/GPa)
#
#
# Indices 1 2 3 4 5 6 
#
# 1 0.009115 -0.002720 -0.001927 0.000000 0.000000 0.000000
# 2 -0.002720 0.020188 -0.001193 0.000000 0.000000 0.000000
# 3 -0.001927 -0.001193 0.007964 0.000000 0.000000 0.000000
# 4 0.000000 0.000000 0.000000 0.127937 0.000000 0.000000
# 5 0.000000 0.000000 0.000000 0.000000 0.058278 0.000000
# 6 0.000000 0.000000 0.000000 0.000000 0.000000 0.057597
#
#
# Mechanical properties :
#
#
# Convention : Reuss Voigt Hill
#
# Bulk Modulus (GPa) = 39.08029 48.42651 43.75340
# Shear Modulus (GPa) = 16.59550 24.93532 20.76541
#
# Velocity S-wave (km/s) = 2.88889 3.54114 3.23151
# Velocity P-wave (km/s) = 5.54803 6.40880 5.99389
#
# Compressibility (1/GPa) = 0.02558835
#
# Stress axis : x y z
#
# Youngs Moduli (GPa) = 109.70639 49.53436 125.57169
#
# Poissons Ratio (x) = 0.13474 0.24193
# Poissons Ratio (y) = 0.29841 0.14976
# Poissons Ratio (z) = 0.21136 0.05907
#
# Static dielectric constant tensor:
#      x y z
#    x 1.810330 0.000000 0.000000 
#    y 0.000000 1.741270 0.000000 
#    z 0.000000 0.000000 1.731140 
# 
# From -- ./inp_files/24704.got.cif
#   From: 2010.05.17/outbox.cif.g08.bks.cpg/sg69_13_cif.got.tgz:24704.got - 2010.06.03 19:29:58.
