data_PCOD9512409
_publ_section_title
;
Structure prediction by ZEFSAII (Michael W. Deem and Ramdas Pophale) SiO2 
 PCOD9512409
Probable space group: F M M M
;
_chemical_formula_sum "Si O2"
_cell_formula_units_Z 176
_cell_length_a 18.001992
_cell_length_b 18.299605
_cell_length_c 27.622696
_cell_angle_alpha 90.000000
_cell_angle_beta 90.000000
_cell_angle_gamma 90.000000
_cell_volume 9099.726590
_symmetry_space_group_name_H-M "F M M M"
_symmetry_group_IT_number 69
_symmetry_cell_setting 'orthorhombic'
loop_
_space_group_symop_operation_xyz
x,y,z
-x,-y,z
x,-y,-z
-x,y,-z
-x,-y,-z
x,y,-z
-x,y,z
x,-y,z
x,1/2+y,1/2+z
-x,1/2-y,1/2+z
x,1/2-y,1/2-z
-x,1/2+y,1/2-z
-x,1/2-y,1/2-z
x,1/2+y,1/2-z
-x,1/2+y,1/2+z
x,1/2-y,1/2+z
1/2+x,y,1/2+z
1/2-x,-y,1/2+z
1/2+x,-y,1/2-z
1/2-x,y,1/2-z
1/2-x,-y,1/2-z
1/2+x,y,1/2-z
1/2-x,y,1/2+z
1/2+x,-y,1/2+z
1/2+x,1/2+y,z
1/2-x,1/2-y,z
1/2+x,1/2-y,-z
1/2-x,1/2+y,-z
1/2-x,1/2-y,-z
1/2+x,1/2+y,-z
1/2-x,1/2+y,z
1/2+x,1/2-y,z
loop_
_atom_site_type_symbol
_atom_site_label
_atom_site_fract_x
_atom_site_fract_y
_atom_site_fract_z
Si Si1 0.089528 0.083302 0.138468
Si Si2 0.159355 0.169613 0.586399
Si Si3 0.831926 0.333687 0.441744
Si Si4 0.088544 0.414390 0.827101
Si Si5 0.588144 0.081737 0.000000
Si Si6 0.589395 0.828247 0.269374
O O1 0.121662 0.105895 0.086674
O O2 0.117186 0.140082 0.179593
O O3 0.000000 0.086833 0.137401
O O4 0.110231 0.000000 0.151010
O O5 0.141547 0.254511 0.577404
O O6 0.246165 0.159923 0.574364
O O7 0.135157 0.137932 0.637870
O O8 0.115004 0.123387 0.547071
O O9 0.836714 0.336255 0.500000
O O10 0.106143 0.500000 0.834071
O O11 0.101252 0.388394 0.772237
O O12 0.000000 0.404944 0.837101
O O13 0.500000 0.078435 0.000000
O O14 0.619185 0.000000 0.000000
O O15 0.500000 0.819738 0.274916
O O16 0.618028 0.750000 0.250000
#
# Coordination Sequence:
#
# PCOD9512409 Si02
#       6
#    32  32  32  32  16  32
#     4  10  22  39  59  86 118 150 193 248 294 338
#     4  11  21  40  58  82 117 152 192 240 287 344
#     4  11  23  42  61  80 110 157 204 244 294 341
#     4  10  20  34  57  90 124 154 186 231 291 359
#     4  11  22  35  56  86 118 149 184 229 284 344
#     4   9  17  33  58  87 117 152 191 233 290 350
#
# _framework density 19.341241
#
# number of rings (size 3 to 8) (size 9 to 14) (size 15 to 20)
#    0.000    1.727    1.818    3.273    0.000    8.727 
#    0.000    1.818    0.000    5.455    0.000    0.000 
#    0.000    0.000    0.000    0.000    0.000    0.000 
#
# Total GULP energy -245672.251865 kJ/mol
# GULP energy per Si atom -5583.460270 kJ/mol
# Density = 1.929722 g / cm^3
# Si number density = 19.341241 Si / 1000 Ang^3
#
#
#
# Elastic Constant Matrix: (Units=GPa)
#
#
# Indices 1 2 3 4 5 6 
#
# 1 13.6727 34.0033 19.0145 0.0000 0.0000 0.0000
# 2 34.0033 100.0810 45.6888 0.0000 0.0000 0.0000
# 3 19.0145 45.6888 102.9276 0.0000 0.0000 0.0000
# 4 0.0000 0.0000 0.0000 35.4316 0.0000 0.0000
# 5 0.0000 0.0000 0.0000 0.0000 39.1509 0.0000
# 6 0.0000 0.0000 0.0000 0.0000 0.0000 24.3545
#
#
#
# Elastic Compliance Matrix: (Units=1/GPa)
#
#
# Indices 1 2 3 4 5 6 
#
# 1 0.507284 -0.162502 -0.021581 0.000000 0.000000 0.000000
# 2 -0.162502 0.064587 0.001350 0.000000 0.000000 0.000000
# 3 -0.021581 0.001350 0.013103 0.000000 0.000000 0.000000
# 4 0.000000 0.000000 0.000000 0.028223 0.000000 0.000000
# 5 0.000000 0.000000 0.000000 0.000000 0.025542 0.000000
# 6 0.000000 0.000000 0.000000 0.000000 0.000000 0.041060
#
#
# Mechanical properties :
#
#
# Convention : Reuss Voigt Hill
#
# Bulk Modulus (GPa) = 4.55561 46.01052 25.28306
# Shear Modulus (GPa) = 4.47054 27.65238 16.06146
#
# Velocity S-wave (km/s) = 1.52198 3.78525 2.88484
# Velocity P-wave (km/s) = 2.33432 6.55322 4.91903
#
# Compressibility (1/GPa) = 0.21950953
#
# Stress axis : x y z
#
# Youngs Moduli (GPa) = 1.97128 15.48306 76.31949
#
# Poissons Ratio (x) = 2.51603 1.64702
# Poissons Ratio (y) = 0.32034 -0.10307
# Poissons Ratio (z) = 0.04254 -0.02091
#
# Static dielectric constant tensor:
#      x y z
#    x 1.664570 0.000000 0.000000 
#    y 0.000000 1.690710 0.000000 
#    z 0.000000 0.000000 1.669640 
# 
# From -- ./inp_files/41805.got.cif
#   From: 2010.05.17/outbox.cif.g08.bks.cpg/sg69_21_cif.got.tgz:41805.got - 2010.06.03 19:29:58.
