data_PCOD9512749
_publ_section_title
;
Structure prediction by ZEFSAII (Michael W. Deem and Ramdas Pophale) SiO2 
 PCOD9512749
Probable space group: F M M M
;
_chemical_formula_sum "Si O2"
_cell_formula_units_Z 160
_cell_length_a 27.262102
_cell_length_b 28.895060
_cell_length_c 10.182134
_cell_angle_alpha 90.000000
_cell_angle_beta 90.000000
_cell_angle_gamma 90.000000
_cell_volume 8020.874981
_symmetry_space_group_name_H-M "F M M M"
_symmetry_group_IT_number 69
_symmetry_cell_setting 'orthorhombic'
loop_
_space_group_symop_operation_xyz
x,y,z
-x,-y,z
x,-y,-z
-x,y,-z
-x,-y,-z
x,y,-z
-x,y,z
x,-y,z
x,1/2+y,1/2+z
-x,1/2-y,1/2+z
x,1/2-y,1/2-z
-x,1/2+y,1/2-z
-x,1/2-y,1/2-z
x,1/2+y,1/2-z
-x,1/2+y,1/2+z
x,1/2-y,1/2+z
1/2+x,y,1/2+z
1/2-x,-y,1/2+z
1/2+x,-y,1/2-z
1/2-x,y,1/2-z
1/2-x,-y,1/2-z
1/2+x,y,1/2-z
1/2-x,y,1/2+z
1/2+x,-y,1/2+z
1/2+x,1/2+y,z
1/2-x,1/2-y,z
1/2+x,1/2-y,-z
1/2-x,1/2+y,-z
1/2-x,1/2-y,-z
1/2+x,1/2+y,-z
1/2-x,1/2+y,z
1/2+x,1/2-y,z
loop_
_atom_site_type_symbol
_atom_site_label
_atom_site_fract_x
_atom_site_fract_y
_atom_site_fract_z
Si Si1 0.439979 0.553859 0.000000
Si Si2 0.559373 0.051494 0.000000
Si Si3 0.105957 0.206345 0.343307
Si Si4 0.440764 0.388640 0.252983
Si Si5 0.797749 0.549852 0.843688
Si Si6 0.795128 0.153058 0.652054
O O1 0.423923 0.583955 0.124506
O O2 0.423883 0.500000 0.000000
O O3 0.500000 0.552169 0.000000
O O4 0.574473 0.079545 0.125936
O O5 0.500000 0.049239 0.000000
O O6 0.578758 0.000000 0.000000
O O7 0.094481 0.212641 0.500000
O O8 0.096466 0.250000 0.250000
O O9 0.077084 0.162721 0.283051
O O10 0.162850 0.191172 0.334231
O O11 0.500000 0.387493 0.247998
O O12 0.823460 0.500000 0.816924
O O13 0.750000 0.549406 0.750000
O O14 0.818083 0.601702 0.821570
O O15 0.785687 0.549118 0.000000
O O16 0.778349 0.153433 0.500000
O O17 0.750000 0.160048 0.750000
#
# Coordination Sequence:
#
# PCOD9512749 Si02
#       6
#    16  16  32  32  32  32
#     4   9  18  34  59  91 126 163 197 233 287 353
#     4   9  16  30  57  89 120 157 193 231 285 345
#     4  11  25  42  60  84 115 154 203 258 307 352
#     4  10  20  37  60  88 124 159 196 241 289 352
#     4   8  13  24  46  74 103 135 168 208 264 329
#     4   9  19  37  59  84 112 145 190 242 297 355
#
# _framework density 19.947948
#
# number of rings (size 3 to 8) (size 9 to 14) (size 15 to 20)
#    0.000    2.600    1.000    0.600    1.400    4.000 
#    0.000    4.000    0.000    0.000    0.000    0.000 
#    0.000    0.000    0.000    0.000    0.000    0.000 
#
# Total GULP energy -222934.916010 kJ/mol
# GULP energy per Si atom -5573.372900 kJ/mol
# Density = 1.990255 g / cm^3
# Si number density = 19.947948 Si / 1000 Ang^3
#
#
#
# Elastic Constant Matrix: (Units=GPa)
#
#
# Indices 1 2 3 4 5 6 
#
# 1 41.7920 18.1845 33.1740 0.0011 -0.0008 -0.0004
# 2 18.1845 193.9045 107.0002 0.0021 -0.0014 -0.0017
# 3 33.1740 107.0002 167.9678 0.0051 -0.0031 -0.0037
# 4 0.0011 0.0021 0.0051 35.9505 -0.0023 -0.0027
# 5 -0.0008 -0.0014 -0.0031 -0.0023 33.2283 0.0012
# 6 -0.0004 -0.0017 -0.0037 -0.0027 0.0012 30.8102
#
#
#
# Elastic Compliance Matrix: (Units=1/GPa)
#
#
# Indices 1 2 3 4 5 6 
#
# 1 0.028433 0.000667 -0.006040 0.000000 0.000000 0.000000
# 2 0.000667 0.007968 -0.005208 0.000000 0.000000 0.000000
# 3 -0.006040 -0.005208 0.010464 -0.000001 0.000001 0.000001
# 4 0.000000 0.000000 -0.000001 0.027816 0.000002 0.000002
# 5 0.000000 0.000000 0.000001 0.000002 0.030095 -0.000001
# 6 0.000000 0.000000 0.000001 0.000002 -0.000001 0.032457
#
#
# Mechanical properties :
#
#
# Convention : Reuss Voigt Hill
#
# Bulk Modulus (GPa) = 38.90688 80.04240 59.47464
# Shear Modulus (GPa) = 29.94684 36.35152 33.14918
#
# Velocity S-wave (km/s) = 3.87880 4.27349 4.08092
# Velocity P-wave (km/s) = 6.29338 8.03512 7.21698
#
# Compressibility (1/GPa) = 0.02570239
#
# Stress axis : x y z
#
# Youngs Moduli (GPa) = 35.17091 125.49569 95.56615
#
# Poissons Ratio (x) = -0.08366 0.57724
# Poissons Ratio (y) = -0.02345 0.49769
# Poissons Ratio (z) = 0.21244 0.65355
#
# Static dielectric constant tensor:
#      x y z
#    x 1.739220 0.000000 0.000000 
#    y 0.000000 1.737380 0.000000 
#    z 0.000000 0.000000 1.681180 
# 
# From -- ./inp_files/5770.got.cif
#   From: 2010.05.17/outbox.cif.g08.bks.cpg/sg69_3_cif.got.tgz:5770.got - 2010.06.03 19:29:58.
