data_PCOD9512372
_publ_section_title
;
Structure prediction by ZEFSAII (Michael W. Deem and Ramdas Pophale) SiO2 
 PCOD9512372
Probable space group: F M M M
;
_chemical_formula_sum "Si O2"
_cell_formula_units_Z 144
_cell_length_a 20.322611
_cell_length_b 19.729969
_cell_length_c 20.829143
_cell_angle_alpha 90.000000
_cell_angle_beta 90.000000
_cell_angle_gamma 90.000000
_cell_volume 8351.746597
_symmetry_space_group_name_H-M "F M M M"
_symmetry_group_IT_number 69
_symmetry_cell_setting 'orthorhombic'
loop_
_space_group_symop_operation_xyz
x,y,z
-x,-y,z
x,-y,-z
-x,y,-z
-x,-y,-z
x,y,-z
-x,y,z
x,-y,z
x,1/2+y,1/2+z
-x,1/2-y,1/2+z
x,1/2-y,1/2-z
-x,1/2+y,1/2-z
-x,1/2-y,1/2-z
x,1/2+y,1/2-z
-x,1/2+y,1/2+z
x,1/2-y,1/2+z
1/2+x,y,1/2+z
1/2-x,-y,1/2+z
1/2+x,-y,1/2-z
1/2-x,y,1/2-z
1/2-x,-y,1/2-z
1/2+x,y,1/2-z
1/2-x,y,1/2+z
1/2+x,-y,1/2+z
1/2+x,1/2+y,z
1/2-x,1/2-y,z
1/2+x,1/2-y,-z
1/2-x,1/2+y,-z
1/2-x,1/2-y,-z
1/2+x,1/2+y,-z
1/2-x,1/2+y,z
1/2+x,1/2-y,z
loop_
_atom_site_type_symbol
_atom_site_label
_atom_site_fract_x
_atom_site_fract_y
_atom_site_fract_z
Si Si1 0.425153 0.834493 0.147180
Si Si2 0.428893 0.194288 0.575774
Si Si3 0.157787 0.750000 0.750000
Si Si4 0.679514 0.919609 0.923698
Si Si5 0.713032 0.317789 0.873347
O O1 0.500000 0.851914 0.164257
O O2 0.426513 0.773011 0.095903
O O3 0.386536 0.800595 0.206893
O O4 0.385324 0.894539 0.113761
O O5 0.429901 0.187065 0.500000
O O6 0.500000 0.168033 0.601462
O O7 0.359434 0.166288 0.599827
O O8 0.197993 0.703623 0.699964
O O9 0.738407 0.878591 0.889539
O O10 0.687873 0.000000 0.918495
O O11 0.676838 0.902392 0.000000
O O12 0.750000 0.250000 0.900895
#
# Coordination Sequence:
#
# PCOD9512372 Si02
#       5
#    32  32  16  32  32
#     4  10  20  34  55  80 112 149 183 224 275 326
#     4   9  17  29  50  81 108 135 180 232 280 326
#     4  10  20  36  56  86 111 137 188 242 268 322
#     4  11  24  38  54  82 116 150 187 227 279 340
#     4  11  20  34  59  80 113 143 187 229 281 325
#
# _framework density 17.241902
#
# number of rings (size 3 to 8) (size 9 to 14) (size 15 to 20)
#    0.000    1.778    4.444    2.000    0.000    3.556 
#    0.000    3.333    0.000    0.667    0.000    3.111 
#    0.000    0.000    0.000    0.000    0.000    0.000 
#
# Total GULP energy -200459.468578 kJ/mol
# GULP energy per Si atom -5568.318572 kJ/mol
# Density = 1.720266 g / cm^3
# Si number density = 17.241902 Si / 1000 Ang^3
#
#
#
# Elastic Constant Matrix: (Units=GPa)
#
#
# Indices 1 2 3 4 5 6 
#
# 1 135.9392 48.2043 58.3745 0.0000 0.0000 0.0000
# 2 48.2043 74.2147 42.6518 0.0000 0.0000 0.0000
# 3 58.3745 42.6518 101.1818 0.0000 0.0000 0.0000
# 4 0.0000 0.0000 0.0000 17.9501 0.0000 0.0000
# 5 0.0000 0.0000 0.0000 0.0000 28.3889 0.0000
# 6 0.0000 0.0000 0.0000 0.0000 0.0000 20.0997
#
#
#
# Elastic Compliance Matrix: (Units=1/GPa)
#
#
# Indices 1 2 3 4 5 6 
#
# 1 0.010827 -0.004543 -0.004331 0.000000 0.000000 0.000000
# 2 -0.004543 0.019689 -0.005678 0.000000 0.000000 0.000000
# 3 -0.004331 -0.005678 0.014776 0.000000 0.000000 0.000000
# 4 0.000000 0.000000 0.000000 0.055710 0.000000 0.000000
# 5 0.000000 0.000000 0.000000 0.000000 0.035225 0.000000
# 6 0.000000 0.000000 0.000000 0.000000 0.000000 0.049752
#
#
# Mechanical properties :
#
#
# Convention : Reuss Voigt Hill
#
# Bulk Modulus (GPa) = 61.78301 67.75522 64.76911
# Shear Modulus (GPa) = 22.67777 24.09474 23.38626
#
# Velocity S-wave (km/s) = 3.63060 3.74231 3.68688
# Velocity P-wave (km/s) = 7.31340 7.61940 7.46797
#
# Compressibility (1/GPa) = 0.01618568
#
# Stress axis : x y z
#
# Youngs Moduli (GPa) = 92.35952 50.79017 67.67848
#
# Poissons Ratio (x) = 0.23076 0.29314
# Poissons Ratio (y) = 0.41962 0.38431
# Poissons Ratio (z) = 0.40004 0.28841
#
# Static dielectric constant tensor:
#      x y z
#    x 1.674850 0.000000 0.000000 
#    y 0.000000 1.549070 0.000000 
#    z 0.000000 0.000000 1.596690 
# 
# From -- ./inp_files/36556.got.cif
#   From: 2010.05.17/outbox.cif.g08.bks.cpg/sg69_19_cif.got.tgz:36556.got - 2010.06.03 19:29:58.
