data_PCOD9512724
_publ_section_title
;
Structure prediction by ZEFSAII (Michael W. Deem and Ramdas Pophale) SiO2 
 PCOD9512724
Probable space group: F M M M
;
_chemical_formula_sum "Si O2"
_cell_formula_units_Z 128
_cell_length_a 15.218552
_cell_length_b 29.074071
_cell_length_c 15.201088
_cell_angle_alpha 90.000000
_cell_angle_beta 90.000000
_cell_angle_gamma 90.000000
_cell_volume 6725.953375
_symmetry_space_group_name_H-M "F M M M"
_symmetry_group_IT_number 69
_symmetry_cell_setting 'orthorhombic'
loop_
_space_group_symop_operation_xyz
x,y,z
-x,-y,z
x,-y,-z
-x,y,-z
-x,-y,-z
x,y,-z
-x,y,z
x,-y,z
x,1/2+y,1/2+z
-x,1/2-y,1/2+z
x,1/2-y,1/2-z
-x,1/2+y,1/2-z
-x,1/2-y,1/2-z
x,1/2+y,1/2-z
-x,1/2+y,1/2+z
x,1/2-y,1/2+z
1/2+x,y,1/2+z
1/2-x,-y,1/2+z
1/2+x,-y,1/2-z
1/2-x,y,1/2-z
1/2-x,-y,1/2-z
1/2+x,y,1/2-z
1/2-x,y,1/2+z
1/2+x,-y,1/2+z
1/2+x,1/2+y,z
1/2-x,1/2-y,z
1/2+x,1/2-y,-z
1/2-x,1/2+y,-z
1/2-x,1/2-y,-z
1/2+x,1/2+y,-z
1/2-x,1/2+y,z
1/2+x,1/2-y,z
loop_
_atom_site_type_symbol
_atom_site_label
_atom_site_fract_x
_atom_site_fract_y
_atom_site_fract_z
Si Si1 0.500000 0.195567 0.361808
Si Si2 0.000000 0.199707 0.352823
Si Si3 0.343877 0.872840 0.363992
Si Si4 0.000000 0.448287 0.104273
Si Si5 0.604459 0.448579 0.000000
Si Si6 0.357628 0.873424 0.152336
O O1 0.500000 0.198625 0.254599
O O2 0.500000 0.248778 0.388416
O O3 0.586749 0.167118 0.389986
O O4 0.915323 0.169962 0.377932
O O5 0.370133 0.919063 0.414578
O O6 0.352578 0.875237 0.258546
O O7 0.240638 0.867214 0.382945
O O8 0.913518 0.418659 0.128039
O O9 0.000000 0.500000 0.142677
O O10 0.000000 0.452106 0.000000
O O11 0.642608 0.500000 0.000000
O O12 0.500000 0.451923 0.000000
#
# Coordination Sequence:
#
# PCOD9512724 Si02
#       6
#    16  16  32  16  16  32
#     4   9  16  31  57  84 115 142 184 225 270 335
#     4   8  16  32  56  87 110 144 183 227 275 326
#     4  10  20  37  58  83 114 149 185 232 281 331
#     4  10  22  38  57  79 107 145 185 234 284 329
#     4  11  24  38  56  80 112 152 190 231 284 337
#     4   9  20  37  59  84 112 145 188 234 279 332
#
# _framework density 19.030759
#
# number of rings (size 3 to 8) (size 9 to 14) (size 15 to 20)
#    0.000    2.500    1.250    0.750    1.750    3.000 
#    0.000    7.500   11.000    1.500    0.000    0.000 
#    0.000    0.000    0.000    0.000    0.000    0.000 
#
# Total GULP energy -178371.668640 kJ/mol
# GULP energy per Si atom -5574.114645 kJ/mol
# Density = 1.898744 g / cm^3
# Si number density = 19.030759 Si / 1000 Ang^3
#
#
#
# Elastic Constant Matrix: (Units=GPa)
#
#
# Indices 1 2 3 4 5 6 
#
# 1 192.0547 107.4561 24.0213 0.0000 0.0000 0.0000
# 2 107.4561 205.7233 23.9228 0.0000 0.0000 0.0000
# 3 24.0213 23.9228 38.5142 0.0000 0.0000 0.0000
# 4 0.0000 0.0000 0.0000 33.9546 0.0000 0.0000
# 5 0.0000 0.0000 0.0000 0.0000 -5.8901 0.0000
# 6 0.0000 0.0000 0.0000 0.0000 0.0000 4.3925
#
#
#
# Elastic Compliance Matrix: (Units=1/GPa)
#
#
# Indices 1 2 3 4 5 6 
#
# 1 0.007564 -0.003667 -0.002440 0.000000 0.000000 0.000000
# 2 -0.003667 0.007017 -0.002072 0.000000 0.000000 0.000000
# 3 -0.002440 -0.002072 0.028773 0.000000 0.000000 0.000000
# 4 0.000000 0.000000 0.000000 0.029451 0.000000 0.000000
# 5 0.000000 0.000000 0.000000 0.000000 -0.169777 0.000000
# 6 0.000000 0.000000 0.000000 0.000000 0.000000 0.227662
#
#
# Mechanical properties :
#
#
# Convention : Reuss Voigt Hill
#
# Bulk Modulus (GPa) = 37.04102 83.01028 60.02565
# Shear Modulus (GPa) = 32.04189 25.21753 28.62971
#
# Velocity S-wave (km/s) = 4.10773 3.64413 3.88286
# Velocity P-wave (km/s) = 6.48105 7.83709 7.19110
#
# Compressibility (1/GPa) = 0.02699710
#
# Stress axis : x y z
#
# Youngs Moduli (GPa) = 132.20919 142.50631 34.75502
#
# Poissons Ratio (x) = 0.52258 0.08479
# Poissons Ratio (y) = 0.48482 0.07200
# Poissons Ratio (z) = 0.32256 0.29520
#
# Static dielectric constant tensor:
#      x y z
#    x 1.681110 0.000000 0.000000 
#    y 0.000000 1.652240 0.000000 
#    z 0.000000 0.000000 1.678310 
# 
# From -- ./inp_files/21642.got.cif
#   From: 2010.05.17/outbox.cif.g08.bks.cpg/sg69_11_cif.got.tgz:21642.got - 2010.06.03 19:29:58.
