data_PCOD9512228
_publ_section_title
;
Structure prediction by ZEFSAII (Michael W. Deem and Ramdas Pophale) SiO2 
 PCOD9512228
Probable space group: F M M M
;
_chemical_formula_sum "Si O2"
_cell_formula_units_Z 128
_cell_length_a 19.023523
_cell_length_b 16.522407
_cell_length_c 19.466299
_cell_angle_alpha 90.000000
_cell_angle_beta 90.000000
_cell_angle_gamma 90.000000
_cell_volume 6118.537888
_symmetry_space_group_name_H-M "F M M M"
_symmetry_group_IT_number 69
_symmetry_cell_setting 'orthorhombic'
loop_
_space_group_symop_operation_xyz
x,y,z
-x,-y,z
x,-y,-z
-x,y,-z
-x,-y,-z
x,y,-z
-x,y,z
x,-y,z
x,1/2+y,1/2+z
-x,1/2-y,1/2+z
x,1/2-y,1/2-z
-x,1/2+y,1/2-z
-x,1/2-y,1/2-z
x,1/2+y,1/2-z
-x,1/2+y,1/2+z
x,1/2-y,1/2+z
1/2+x,y,1/2+z
1/2-x,-y,1/2+z
1/2+x,-y,1/2-z
1/2-x,y,1/2-z
1/2-x,-y,1/2-z
1/2+x,y,1/2-z
1/2-x,y,1/2+z
1/2+x,-y,1/2+z
1/2+x,1/2+y,z
1/2-x,1/2-y,z
1/2+x,1/2-y,-z
1/2-x,1/2+y,-z
1/2-x,1/2-y,-z
1/2+x,1/2+y,-z
1/2-x,1/2+y,z
1/2+x,1/2-y,z
loop_
_atom_site_type_symbol
_atom_site_label
_atom_site_fract_x
_atom_site_fract_y
_atom_site_fract_z
Si Si1 0.585197 0.000000 0.692110
Si Si2 0.583434 0.672615 0.211620
Si Si3 0.697572 0.000000 0.582937
Si Si4 0.722263 0.337798 0.582740
Si Si5 0.920304 0.231673 0.579504
O O1 0.609210 0.916795 0.727455
O O2 0.500000 0.000000 0.686840
O O3 0.621582 0.000000 0.617831
O O4 0.500000 0.671410 0.228014
O O5 0.615008 0.750000 0.250000
O O6 0.589435 0.693576 0.130965
O O7 0.738784 0.081410 0.606215
O O8 0.693771 0.000000 0.500000
O O9 0.731847 0.336949 0.500000
O O10 0.750000 0.250000 0.608048
O O11 0.638693 0.334600 0.595471
O O12 0.911511 0.256280 0.500000
O O13 0.000000 0.201917 0.589060
#
# Coordination Sequence:
#
# PCOD9512228 Si02
#       5
#    16  32  16  32  32
#     4  10  20  33  53  80 105 135 179 221 259 315
#     4   9  18  33  53  78 109 143 177 216 266 321
#     4  10  20  33  52  81 113 141 171 211 267 335
#     4   9  17  30  48  71 104 144 175 205 259 323
#     4   9  17  31  53  79 104 135 181 231 269 307
#
# _framework density 20.920030000000001
#
# number of rings (size 3 to 8) (size 9 to 14) (size 15 to 20)
#    0.000    2.750    0.000    1.500    0.000    3.250 
#    0.000    4.375    0.000   15.000    0.000    0.000 
#    0.000    0.000    0.000    0.000    0.000    0.000 
#
# Total GULP energy -178279.279238 kJ/mol
# GULP energy per Si atom -5571.227476 kJ/mol
# Density = 2.087241 g / cm^3
# Si number density = 20.920030 Si / 1000 Ang^3
#
#
#
# Elastic Constant Matrix: (Units=GPa)
#
#
# Indices 1 2 3 4 5 6 
#
# 1 74.0516 42.9340 4.9517 0.0000 0.0000 0.0000
# 2 42.9340 183.5232 38.3472 0.0000 0.0000 0.0000
# 3 4.9517 38.3472 43.8456 0.0000 0.0000 0.0000
# 4 0.0000 0.0000 0.0000 8.5508 0.0000 0.0000
# 5 0.0000 0.0000 0.0000 0.0000 6.0643 0.0000
# 6 0.0000 0.0000 0.0000 0.0000 0.0000 22.7421
#
#
#
# Elastic Compliance Matrix: (Units=1/GPa)
#
#
# Indices 1 2 3 4 5 6 
#
# 1 0.015734 -0.004050 0.001765 0.000000 0.000000 0.000000
# 2 -0.004050 0.007710 -0.006285 0.000000 0.000000 0.000000
# 3 0.001765 -0.006285 0.028105 0.000000 0.000000 0.000000
# 4 0.000000 0.000000 0.000000 0.116949 0.000000 0.000000
# 5 0.000000 0.000000 0.000000 0.000000 0.164900 0.000000
# 6 0.000000 0.000000 0.000000 0.000000 0.000000 0.043971
#
#
# Mechanical properties :
#
#
# Convention : Reuss Voigt Hill
#
# Bulk Modulus (GPa) = 29.06267 52.65404 40.85836
# Shear Modulus (GPa) = 12.31591 21.81725 17.06658
#
# Velocity S-wave (km/s) = 2.42897 3.23288 2.85932
# Velocity P-wave (km/s) = 4.66787 6.25773 5.52033
#
# Compressibility (1/GPa) = 0.03440840
#
# Stress axis : x y z
#
# Youngs Moduli (GPa) = 63.55656 129.70778 35.58059
#
# Poissons Ratio (x) = 0.52527 -0.06280
# Poissons Ratio (y) = 0.25738 0.22364
# Poissons Ratio (z) = -0.11217 0.81527
#
# Static dielectric constant tensor:
#      x y z
#    x 1.784100 0.000000 0.000000 
#    y 0.000000 1.775480 0.000000 
#    z 0.000000 0.000000 1.768050 
# 
# From -- ./inp_files/31501.got.cif
#   From: 2010.05.17/outbox.cif.g08.bks.cpg/sg69_16_cif.got.tgz:31501.got - 2010.06.03 19:29:58.
