data_PCOD9512663
_publ_section_title
;
Structure prediction by ZEFSAII (Michael W. Deem and Ramdas Pophale) SiO2 
 PCOD9512663
Probable space group: F M M M
;
_chemical_formula_sum "Si O2"
_cell_formula_units_Z 104
_cell_length_a 24.215955
_cell_length_b 8.885401
_cell_length_c 27.226595
_cell_angle_alpha 90.000000
_cell_angle_beta 90.000000
_cell_angle_gamma 90.000000
_cell_volume 5858.304811
_symmetry_space_group_name_H-M "F M M M"
_symmetry_group_IT_number 69
_symmetry_cell_setting 'orthorhombic'
loop_
_space_group_symop_operation_xyz
x,y,z
-x,-y,z
x,-y,-z
-x,y,-z
-x,-y,-z
x,y,-z
-x,y,z
x,-y,z
x,1/2+y,1/2+z
-x,1/2-y,1/2+z
x,1/2-y,1/2-z
-x,1/2+y,1/2-z
-x,1/2-y,1/2-z
x,1/2+y,1/2-z
-x,1/2+y,1/2+z
x,1/2-y,1/2+z
1/2+x,y,1/2+z
1/2-x,-y,1/2+z
1/2+x,-y,1/2-z
1/2-x,y,1/2-z
1/2-x,-y,1/2-z
1/2+x,y,1/2-z
1/2-x,y,1/2+z
1/2+x,-y,1/2+z
1/2+x,1/2+y,z
1/2-x,1/2-y,z
1/2+x,1/2-y,-z
1/2-x,1/2+y,-z
1/2-x,1/2-y,-z
1/2+x,1/2+y,-z
1/2-x,1/2+y,z
1/2+x,1/2-y,z
loop_
_atom_site_type_symbol
_atom_site_label
_atom_site_fract_x
_atom_site_fract_y
_atom_site_fract_z
Si Si1 0.250000 0.750000 0.750000
Si Si2 0.115816 0.179587 0.412311
Si Si3 0.304556 0.669640 0.846519
Si Si4 0.000000 0.678984 0.440933
Si Si5 0.188694 0.318457 0.500000
O O1 0.289646 0.666275 0.788646
O O2 0.143170 0.231690 0.361143
O O3 0.054767 0.244204 0.419714
O O4 0.154719 0.256764 0.453273
O O5 0.116553 0.000000 0.417574
O O6 0.310597 0.500000 0.864717
O O7 0.250000 0.750000 0.868652
O O8 0.000000 0.500000 0.431243
O O9 0.000000 0.699371 0.500000
O O10 0.190165 0.500000 0.500000
O O11 0.250000 0.250000 0.500000
#
# Coordination Sequence:
#
# PCOD9512663 Si02
#       5
#     8  32  32  16  16
#     4   8  22  36  66  88 122 152 198 236 308 354
#     4  12  24  38  59  86 119 157 200 244 291 352
#     4  10  20  36  59  89 121 154 193 240 295 353
#     4  11  23  41  63  84 114 159 206 248 292 342
#     4  12  24  39  56  81 118 158 196 242 296 348
#
# _framework density 17.752576000000001
#
# number of rings (size 3 to 8) (size 9 to 14) (size 15 to 20)
#    0.923    0.154    1.538    6.923    0.000    0.615 
#    0.000    0.000    0.000    0.923    0.000    0.000 
#    0.000    0.000    0.000    0.000    0.000    0.000 
#
# Total GULP energy -145016.103672 kJ/mol
# GULP energy per Si atom -5577.542449 kJ/mol
# Density = 1.771217 g / cm^3
# Si number density = 17.752576 Si / 1000 Ang^3
#
#
#
# Elastic Constant Matrix: (Units=GPa)
#
#
# Indices 1 2 3 4 5 6 
#
# 1 169.5252 82.3014 47.6501 0.0000 0.0000 0.0000
# 2 82.3014 191.8981 38.6959 0.0000 0.0000 0.0000
# 3 47.6501 38.6959 74.4882 0.0000 0.0000 0.0000
# 4 0.0000 0.0000 0.0000 20.4316 0.0000 0.0000
# 5 0.0000 0.0000 0.0000 0.0000 21.2378 0.0000
# 6 0.0000 0.0000 0.0000 0.0000 0.0000 30.4068
#
#
#
# Elastic Compliance Matrix: (Units=1/GPa)
#
#
# Indices 1 2 3 4 5 6 
#
# 1 0.008350 -0.002797 -0.003888 0.000000 0.000000 0.000000
# 2 -0.002797 0.006758 -0.001721 0.000000 0.000000 0.000000
# 3 -0.003888 -0.001721 0.016807 0.000000 0.000000 0.000000
# 4 0.000000 0.000000 0.000000 0.048944 0.000000 0.000000
# 5 0.000000 0.000000 0.000000 0.000000 0.047086 0.000000
# 6 0.000000 0.000000 0.000000 0.000000 0.000000 0.032887
#
#
# Mechanical properties :
#
#
# Convention : Reuss Voigt Hill
#
# Bulk Modulus (GPa) = 66.22206 85.91180 76.06693
# Shear Modulus (GPa) = 27.37059 32.23283 29.80171
#
# Velocity S-wave (km/s) = 3.93081 4.26569 4.10167
# Velocity P-wave (km/s) = 7.61482 8.52998 8.08536
#
# Compressibility (1/GPa) = 0.01510071
#
# Stress axis : x y z
#
# Youngs Moduli (GPa) = 119.76627 147.97797 59.50072
#
# Poissons Ratio (x) = 0.41388 0.23135
# Poissons Ratio (y) = 0.33498 0.10242
# Poissons Ratio (z) = 0.46568 0.25473
#
# Static dielectric constant tensor:
#      x y z
#    x 1.581600 0.000000 0.000000 
#    y 0.000000 1.602330 0.000000 
#    z 0.000000 0.000000 1.661100 
# 
# From -- ./inp_files/5189.got.cif
#   From: 2010.05.17/outbox.cif.g08.bks.cpg/sg69_3_cif.got.tgz:5189.got - 2010.06.03 19:29:58.
