data_PCOD9512948
_publ_section_title
;
Structure prediction by ZEFSAII (Michael W. Deem and Ramdas Pophale) SiO2 
 PCOD9512948
Probable space group: F M M M
;
_chemical_formula_sum "Si O2"
_cell_formula_units_Z 144
_cell_length_a 15.099442
_cell_length_b 17.931439
_cell_length_c 25.986365
_cell_angle_alpha 90.000000
_cell_angle_beta 90.000000
_cell_angle_gamma 90.000000
_cell_volume 7035.931061
_symmetry_space_group_name_H-M "F M M M"
_symmetry_group_IT_number 69
_symmetry_cell_setting 'orthorhombic'
loop_
_space_group_symop_operation_xyz
x,y,z
-x,-y,z
x,-y,-z
-x,y,-z
-x,-y,-z
x,y,-z
-x,y,z
x,-y,z
x,1/2+y,1/2+z
-x,1/2-y,1/2+z
x,1/2-y,1/2-z
-x,1/2+y,1/2-z
-x,1/2-y,1/2-z
x,1/2+y,1/2-z
-x,1/2+y,1/2+z
x,1/2-y,1/2+z
1/2+x,y,1/2+z
1/2-x,-y,1/2+z
1/2+x,-y,1/2-z
1/2-x,y,1/2-z
1/2-x,-y,1/2-z
1/2+x,y,1/2-z
1/2-x,y,1/2+z
1/2+x,-y,1/2+z
1/2+x,1/2+y,z
1/2-x,1/2-y,z
1/2+x,1/2-y,-z
1/2-x,1/2+y,-z
1/2-x,1/2-y,-z
1/2+x,1/2+y,-z
1/2-x,1/2+y,z
1/2+x,1/2-y,z
loop_
_atom_site_type_symbol
_atom_site_label
_atom_site_fract_x
_atom_site_fract_y
_atom_site_fract_z
Si Si1 0.263626 0.913480 0.689787
Si Si2 0.898353 0.580306 0.438950
Si Si3 0.607142 0.585516 0.500000
Si Si4 0.100369 0.632769 0.115768
Si Si5 0.157458 0.791903 0.873202
O O1 0.250000 0.898682 0.750000
O O2 0.174754 0.900023 0.654776
O O3 0.337621 0.854604 0.670908
O O4 0.288947 0.000000 0.684904
O O5 0.900897 0.578608 0.500000
O O6 0.859820 0.500000 0.422204
O O7 0.852015 0.655296 0.422114
O O8 0.000000 0.584059 0.419938
O O9 0.639654 0.500000 0.500000
O O10 0.500000 0.585423 0.500000
O O11 0.630280 0.620942 0.555800
O O12 0.093976 0.721368 0.126850
O O13 0.000000 0.600930 0.121376
O O14 0.250000 0.750000 0.872281
#
# Coordination Sequence:
#
# PCOD9512948 Si02
#       5
#    32  32  16  32  32
#     4  10  22  42  63  82 113 155 198 246 295 347
#     4   9  18  33  53  75 105 148 190 228 268 321
#     4   9  18  34  57  86 121 155 193 241 288 345
#     4  10  21  37  61  91 119 154 193 241 300 350
#     4  10  21  35  54  82 116 148 185 232 289 349
#
# _framework density 20.466374999999999
#
# number of rings (size 3 to 8) (size 9 to 14) (size 15 to 20)
#    0.000    2.333    0.000    2.667    1.556    5.778 
#    6.000    3.333    0.000    2.667    0.000    0.000 
#    0.000    0.000    0.000    0.000    0.000    0.000 
#
# Total GULP energy -200410.653573 kJ/mol
# GULP energy per Si atom -5566.962599 kJ/mol
# Density = 2.041979 g / cm^3
# Si number density = 20.466375 Si / 1000 Ang^3
#
#
#
# Elastic Constant Matrix: (Units=GPa)
#
#
# Indices 1 2 3 4 5 6 
#
# 1 19.2492 -6.9279 20.1565 0.0000 0.0000 0.0000
# 2 -6.9279 138.2357 32.2313 0.0000 0.0000 0.0000
# 3 20.1565 32.2313 137.5870 0.0000 0.0000 0.0000
# 4 0.0000 0.0000 0.0000 55.2569 0.0000 0.0000
# 5 0.0000 0.0000 0.0000 0.0000 141.9655 0.0000
# 6 0.0000 0.0000 0.0000 0.0000 0.0000 -14.4324
#
#
#
# Elastic Compliance Matrix: (Units=1/GPa)
#
#
# Indices 1 2 3 4 5 6 
#
# 1 0.065540 0.005843 -0.010970 0.000000 0.000000 0.000000
# 2 0.005843 0.008173 -0.002770 0.000000 0.000000 0.000000
# 3 -0.010970 -0.002770 0.009524 0.000000 0.000000 0.000000
# 4 0.000000 0.000000 0.000000 0.018097 0.000000 0.000000
# 5 0.000000 0.000000 0.000000 0.000000 0.007044 0.000000
# 6 0.000000 0.000000 0.000000 0.000000 0.000000 -0.069289
#
#
# Mechanical properties :
#
#
# Convention : Reuss Voigt Hill
#
# Bulk Modulus (GPa) = 14.82784 42.88796 28.85790
# Shear Modulus (GPa) = 64.62720 53.19880 58.91300
#
# Velocity S-wave (km/s) = 5.62546 5.10389 5.37101
# Velocity P-wave (km/s) = 7.03243 7.46550 7.25220
#
# Compressibility (1/GPa) = 0.06744071
#
# Stress axis : x y z
#
# Youngs Moduli (GPa) = 15.25781 122.35702 104.99463
#
# Poissons Ratio (x) = -0.71487 1.15182
# Poissons Ratio (y) = -0.08914 0.29089
# Poissons Ratio (z) = 0.16738 0.33899
#
# Static dielectric constant tensor:
#      x y z
#    x 1.811290 0.000000 0.000000 
#    y 0.000000 1.765910 0.000000 
#    z 0.000000 0.000000 1.743130 
# 
# From -- ./inp_files/36475.got.cif
#   From: 2010.05.17/outbox.cif.g08.bks.cpg/sg69_19_cif.got.tgz:36475.got - 2010.06.03 19:29:58.
