data_PCOD9512961
_publ_section_title
;
Structure prediction by ZEFSAII (Michael W. Deem and Ramdas Pophale) SiO2 
 PCOD9512961
Probable space group: F M M M
;
_chemical_formula_sum "Si O2"
_cell_formula_units_Z 168
_cell_length_a 15.621530
_cell_length_b 25.480997
_cell_length_c 19.735485
_cell_angle_alpha 90.000000
_cell_angle_beta 90.000000
_cell_angle_gamma 90.000000
_cell_volume 7855.752414
_symmetry_space_group_name_H-M "F M M M"
_symmetry_group_IT_number 69
_symmetry_cell_setting 'orthorhombic'
loop_
_space_group_symop_operation_xyz
x,y,z
-x,-y,z
x,-y,-z
-x,y,-z
-x,-y,-z
x,y,-z
-x,y,z
x,-y,z
x,1/2+y,1/2+z
-x,1/2-y,1/2+z
x,1/2-y,1/2-z
-x,1/2+y,1/2-z
-x,1/2-y,1/2-z
x,1/2+y,1/2-z
-x,1/2+y,1/2+z
x,1/2-y,1/2+z
1/2+x,y,1/2+z
1/2-x,-y,1/2+z
1/2+x,-y,1/2-z
1/2-x,y,1/2-z
1/2-x,-y,1/2-z
1/2+x,y,1/2-z
1/2-x,y,1/2+z
1/2+x,-y,1/2+z
1/2+x,1/2+y,z
1/2-x,1/2-y,z
1/2+x,1/2-y,-z
1/2-x,1/2+y,-z
1/2-x,1/2-y,-z
1/2+x,1/2+y,-z
1/2-x,1/2+y,z
1/2+x,1/2-y,z
loop_
_atom_site_type_symbol
_atom_site_label
_atom_site_fract_x
_atom_site_fract_y
_atom_site_fract_z
Si Si1 0.402808 0.418634 0.753500
Si Si2 0.500000 0.103305 0.000000
Si Si3 0.136021 0.940627 0.401243
Si Si4 0.164700 0.558233 0.395689
Si Si5 0.154249 0.695810 0.279709
Si Si6 0.899502 0.171472 0.924758
O O1 0.500000 0.435221 0.767738
O O2 0.376822 0.436023 0.679080
O O3 0.343513 0.439226 0.813956
O O4 0.396678 0.355612 0.757304
O O5 0.424946 0.098358 0.941172
O O6 0.236407 0.934028 0.415511
O O7 0.110625 0.000000 0.421719
O O8 0.137130 0.500000 0.417513
O O9 0.112347 0.608354 0.420906
O O10 0.119287 0.750000 0.250000
O O11 0.250000 0.690022 0.250000
O O12 0.151926 0.695174 0.361451
O O13 0.000000 0.183432 0.915321
O O14 0.873333 0.189068 0.000000
#
# Coordination Sequence:
#
# PCOD9512961 Si02
#       6
#    32   8  32  32  32  32
#     4  11  21  35  59  89 118 152 196 249 297 346
#     4  12  25  40  56  80 116 168 204 236 300 362
#     4  11  22  37  56  80 119 162 203 242 291 354
#     4  10  21  35  57  86 118 159 204 247 289 341
#     4  10  21  40  65  89 115 150 199 249 301 357
#     4  10  22  40  62  89 124 163 198 240 296 359
#
# _framework density 21.385603
#
# number of rings (size 3 to 8) (size 9 to 14) (size 15 to 20)
#    0.000    1.524    0.952    6.571    1.333    5.714 
#    0.000    2.857    2.095    0.000    0.000    0.000 
#    0.000    0.000    0.000    0.000    0.000    0.000 
#
# Total GULP energy -234224.416009 kJ/mol
# GULP energy per Si atom -5576.771810 kJ/mol
# Density = 2.133693 g / cm^3
# Si number density = 21.385603 Si / 1000 Ang^3
#
#
#
# Elastic Constant Matrix: (Units=GPa)
#
#
# Indices 1 2 3 4 5 6 
#
# 1 78.5190 -0.0413 32.1106 0.0000 0.0000 0.0000
# 2 -0.0413 82.3483 17.2130 0.0000 0.0000 0.0000
# 3 32.1106 17.2130 179.9671 0.0000 0.0000 0.0000
# 4 0.0000 0.0000 0.0000 203.3706 0.0000 0.0000
# 5 0.0000 0.0000 0.0000 0.0000 30.4438 0.0000
# 6 0.0000 0.0000 0.0000 0.0000 0.0000 19.4025
#
#
#
# Elastic Compliance Matrix: (Units=1/GPa)
#
#
# Indices 1 2 3 4 5 6 
#
# 1 0.013761 0.000531 -0.002506 0.000000 0.000000 0.000000
# 2 0.000531 0.012412 -0.001282 0.000000 0.000000 0.000000
# 3 -0.002506 -0.001282 0.006126 0.000000 0.000000 0.000000
# 4 0.000000 0.000000 0.000000 0.004917 0.000000 0.000000
# 5 0.000000 0.000000 0.000000 0.000000 0.032847 0.000000
# 6 0.000000 0.000000 0.000000 0.000000 0.000000 0.051540
#
#
# Mechanical properties :
#
#
# Convention : Reuss Voigt Hill
#
# Bulk Modulus (GPa) = 38.78271 48.82211 43.80241
# Shear Modulus (GPa) = 36.57313 70.08021 53.32667
#
# Velocity S-wave (km/s) = 4.13991 5.73070 4.99899
# Velocity P-wave (km/s) = 6.40517 8.16498 7.33802
#
# Compressibility (1/GPa) = 0.02578468
#
# Stress axis : x y z
#
# Youngs Moduli (GPa) = 72.66967 80.56884 163.23039
#
# Poissons Ratio (x) = -0.04276 0.40906
# Poissons Ratio (y) = -0.03857 0.20923
# Poissons Ratio (z) = 0.18211 0.10327
#
# Static dielectric constant tensor:
#      x y z
#    x 1.759270 0.000000 0.000000 
#    y 0.000000 1.785380 0.000000 
#    z 0.000000 0.000000 1.794410 
# 
# From -- ./inp_files/29995.got.cif
#   From: 2010.05.17/outbox.cif.g08.bks.cpg/sg69_15_cif.got.tgz:29995.got - 2010.06.03 19:29:58.
