data_PCOD9512920
_publ_section_title
;
Structure prediction by ZEFSAII (Michael W. Deem and Ramdas Pophale) SiO2 
 PCOD9512920
Probable space group: F M M M
;
_chemical_formula_sum "Si O2"
_cell_formula_units_Z 136
_cell_length_a 23.758665
_cell_length_b 19.334941
_cell_length_c 16.345260
_cell_angle_alpha 90.000000
_cell_angle_beta 90.000000
_cell_angle_gamma 90.000000
_cell_volume 7508.561086
_symmetry_space_group_name_H-M "F M M M"
_symmetry_group_IT_number 69
_symmetry_cell_setting 'orthorhombic'
loop_
_space_group_symop_operation_xyz
x,y,z
-x,-y,z
x,-y,-z
-x,y,-z
-x,-y,-z
x,y,-z
-x,y,z
x,-y,z
x,1/2+y,1/2+z
-x,1/2-y,1/2+z
x,1/2-y,1/2-z
-x,1/2+y,1/2-z
-x,1/2-y,1/2-z
x,1/2+y,1/2-z
-x,1/2+y,1/2+z
x,1/2-y,1/2+z
1/2+x,y,1/2+z
1/2-x,-y,1/2+z
1/2+x,-y,1/2-z
1/2-x,y,1/2-z
1/2-x,-y,1/2-z
1/2+x,y,1/2-z
1/2-x,y,1/2+z
1/2+x,-y,1/2+z
1/2+x,1/2+y,z
1/2-x,1/2-y,z
1/2+x,1/2-y,-z
1/2-x,1/2+y,-z
1/2-x,1/2-y,-z
1/2+x,1/2+y,-z
1/2-x,1/2+y,z
1/2+x,1/2-y,z
loop_
_atom_site_type_symbol
_atom_site_label
_atom_site_fract_x
_atom_site_fract_y
_atom_site_fract_z
Si Si1 0.065384 0.348440 0.329590
Si Si2 0.912466 0.578110 0.500000
Si Si3 0.198647 0.000000 0.000000
Si Si4 0.567713 0.289840 0.591668
Si Si5 0.386094 0.077866 0.175790
Si Si6 0.222958 0.500000 0.839964
O O1 0.068575 0.383450 0.418545
O O2 0.085083 0.269821 0.344898
O O3 0.101639 0.392100 0.265736
O O4 0.000000 0.347938 0.301320
O O5 0.935363 0.500000 0.500000
O O6 0.844842 0.564865 0.500000
O O7 0.235455 0.000000 0.082873
O O8 0.586791 0.272228 0.500000
O O9 0.500000 0.288921 0.592082
O O10 0.588393 0.365339 0.616136
O O11 0.320344 0.064758 0.157685
O O12 0.411043 0.000000 0.169162
O O13 0.250000 0.500000 0.750000
#
# Coordination Sequence:
#
# PCOD9512920 Si02
#       6
#    32  16   8  32  32  16
#     4  11  20  36  57  89 129 159 185 233 301 366
#     4  10  21  34  59  91 109 155 199 241 302 353
#     4  10  22  40  63  80 119 158 196 266 318 346
#     4  10  21  37  57  85 127 166 189 223 287 365
#     4  10  23  35  60  87 114 157 205 243 287 346
#     4  10  22  42  62  87 114 151 210 260 323 352
#
# _framework density 18.112658
#
# number of rings (size 3 to 8) (size 9 to 14) (size 15 to 20)
#    1.059    0.706    1.176    3.882    1.647    6.118 
#    0.000    1.176    0.000   11.294    0.000    0.000 
#    0.000    0.000    0.000    0.000    0.000    0.000 
#
# Total GULP energy -189475.694226 kJ/mol
# GULP energy per Si atom -5572.814536 kJ/mol
# Density = 1.807143 g / cm^3
# Si number density = 18.112658 Si / 1000 Ang^3
#
#
#
# Elastic Constant Matrix: (Units=GPa)
#
#
# Indices 1 2 3 4 5 6 
#
# 1 55.5281 17.8557 22.9212 0.0000 0.0000 0.0000
# 2 17.8557 117.5988 17.6608 0.0000 0.0000 0.0000
# 3 22.9212 17.6608 83.2028 0.0000 0.0000 0.0000
# 4 0.0000 0.0000 0.0000 30.3941 0.0000 0.0000
# 5 0.0000 0.0000 0.0000 0.0000 36.3005 0.0000
# 6 0.0000 0.0000 0.0000 0.0000 0.0000 -136.8816
#
#
#
# Elastic Compliance Matrix: (Units=1/GPa)
#
#
# Indices 1 2 3 4 5 6 
#
# 1 0.020951 -0.002390 -0.005264 0.000000 0.000000 0.000000
# 2 -0.002390 0.009056 -0.001264 0.000000 0.000000 0.000000
# 3 -0.005264 -0.001264 0.013737 0.000000 0.000000 0.000000
# 4 0.000000 0.000000 0.000000 0.032901 0.000000 0.000000
# 5 0.000000 0.000000 0.000000 0.000000 0.027548 0.000000
# 6 0.000000 0.000000 0.000000 0.000000 0.000000 -0.007306
#
#
# Mechanical properties :
#
#
# Convention : Reuss Voigt Hill
#
# Bulk Modulus (GPa) = 38.59922 41.46722 40.03322
# Shear Modulus (GPa) = 40.53179 -0.84458 19.84361
#
# Velocity S-wave (km/s) = 4.73563 -0.68360 3.31352
# Velocity P-wave (km/s) = 7.15950 4.72448 6.06544
#
# Compressibility (1/GPa) = 0.02590726
#
# Stress axis : x y z
#
# Youngs Moduli (GPa) = 47.73146 110.42111 72.79462
#
# Poissons Ratio (x) = 0.26396 0.38320
# Poissons Ratio (y) = 0.11410 0.09199
# Poissons Ratio (z) = 0.25127 0.13954
#
# Static dielectric constant tensor:
#      x y z
#    x 1.606190 0.000000 0.000000 
#    y 0.000000 1.631240 0.000000 
#    z 0.000000 0.000000 1.636810 
# 
# From -- ./inp_files/18745.got.cif
#   From: 2010.05.17/outbox.cif.g08.bks.cpg/sg69_10_cif.got.tgz:18745.got - 2010.06.03 19:29:58.
