data_PCOD9512899
_publ_section_title
;
Structure prediction by ZEFSAII (Michael W. Deem and Ramdas Pophale) SiO2 
 PCOD9512899
Probable space group: F M M M
;
_chemical_formula_sum "Si O2"
_cell_formula_units_Z 192
_cell_length_a 33.893534
_cell_length_b 28.922848
_cell_length_c 10.610995
_cell_angle_alpha 90.000000
_cell_angle_beta 90.000000
_cell_angle_gamma 90.000000
_cell_volume 10401.932211
_symmetry_space_group_name_H-M "F M M M"
_symmetry_group_IT_number 69
_symmetry_cell_setting 'orthorhombic'
loop_
_space_group_symop_operation_xyz
x,y,z
-x,-y,z
x,-y,-z
-x,y,-z
-x,-y,-z
x,y,-z
-x,y,z
x,-y,z
x,1/2+y,1/2+z
-x,1/2-y,1/2+z
x,1/2-y,1/2-z
-x,1/2+y,1/2-z
-x,1/2-y,1/2-z
x,1/2+y,1/2-z
-x,1/2+y,1/2+z
x,1/2-y,1/2+z
1/2+x,y,1/2+z
1/2-x,-y,1/2+z
1/2+x,-y,1/2-z
1/2-x,y,1/2-z
1/2-x,-y,1/2-z
1/2+x,y,1/2-z
1/2-x,y,1/2+z
1/2+x,-y,1/2+z
1/2+x,1/2+y,z
1/2-x,1/2-y,z
1/2+x,1/2-y,-z
1/2-x,1/2+y,-z
1/2-x,1/2-y,-z
1/2+x,1/2+y,-z
1/2-x,1/2+y,z
1/2+x,1/2-y,z
loop_
_atom_site_type_symbol
_atom_site_label
_atom_site_fract_x
_atom_site_fract_y
_atom_site_fract_z
Si Si1 0.500000 0.645638 0.353247
Si Si2 0.072210 0.708387 0.849769
Si Si3 0.163576 0.210849 0.355077
Si Si4 0.283438 0.880188 0.145205
Si Si5 0.087023 0.944444 0.865886
Si Si6 0.358079 0.055774 0.141267
Si Si7 0.500000 0.946680 0.277264
O O1 0.500000 0.653640 0.500000
O O2 0.540169 0.670229 0.308586
O O3 0.500000 0.591508 0.329340
O O4 0.067249 0.750000 0.750000
O O5 0.118136 0.694066 0.841445
O O6 0.065853 0.720477 0.000000
O O7 0.167536 0.228411 0.500000
O O8 0.170524 0.250000 0.250000
O O9 0.193125 0.168106 0.340082
O O10 0.250000 0.884027 0.250000
O O11 0.315977 0.920418 0.160564
O O12 0.268623 0.882384 0.000000
O O13 0.111130 0.927573 0.745923
O O14 0.040244 0.938450 0.852559
O O15 0.092958 0.000000 0.867669
O O16 0.100843 0.925220 0.000000
O O17 0.354695 0.000000 0.147094
O O18 0.371866 0.068073 0.000000
O O19 0.500000 0.000000 0.234209
#
# Coordination Sequence:
#
# PCOD9512899 Si02
#       7
#    16  32  32  32  32  32  16
#     4  10  21  33  53  81 111 150 189 229 275 319
#     4   9  18  35  57  81 109 142 180 226 277 325
#     4   9  19  36  58  80 108 144 178 221 274 327
#     4  10  22  38  57  82 113 145 178 223 276 330
#     4   9  18  34  54  75 104 145 189 231 273 314
#     4   9  19  36  58  83 111 145 184 226 273 324
#     4  10  21  34  50  76 114 156 194 229 266 314
#
# _framework density 18.458109
#
# number of rings (size 3 to 8) (size 9 to 14) (size 15 to 20)
#    0.000    2.667    0.000    0.500    2.333    3.833 
#    0.000    5.000    0.000    0.000    0.000    0.000 
#    0.000    0.000    0.000    0.000    0.000    0.000 
#
# Total GULP energy -267434.491822 kJ/mol
# GULP energy per Si atom -5571.551913 kJ/mol
# Density = 1.841610 g / cm^3
# Si number density = 18.458109 Si / 1000 Ang^3
#
#
#
# Elastic Constant Matrix: (Units=GPa)
#
#
# Indices 1 2 3 4 5 6 
#
# 1 90.0764 31.2899 97.6008 0.0002 -0.0009 -0.0001
# 2 31.2899 36.3792 43.7000 0.0032 -0.0096 -0.0010
# 3 97.6008 43.7000 139.9677 0.0044 -0.0148 -0.0014
# 4 0.0002 0.0032 0.0044 15.5416 -0.0111 -0.0011
# 5 -0.0009 -0.0096 -0.0148 -0.0111 1.7791 0.0028
# 6 -0.0001 -0.0010 -0.0014 -0.0011 0.0028 24.1025
#
#
#
# Elastic Compliance Matrix: (Units=1/GPa)
#
#
# Indices 1 2 3 4 5 6 
#
# 1 0.045477 -0.001635 -0.031201 0.000008 -0.000246 -0.000002
# 2 -0.001635 0.044043 -0.012611 -0.000005 0.000132 0.000001
# 3 -0.031201 -0.012611 0.032839 -0.000006 0.000190 0.000001
# 4 0.000008 -0.000005 -0.000006 0.064344 0.000403 0.000003
# 5 -0.000246 0.000132 0.000190 0.000403 0.562072 -0.000065
# 6 -0.000002 0.000001 0.000001 0.000003 -0.000065 0.041489
#
#
# Mechanical properties :
#
#
# Convention : Reuss Voigt Hill
#
# Bulk Modulus (GPa) = 31.78154 67.95606 49.86880
# Shear Modulus (GPa) = 5.60761 14.54017 10.07389
#
# Velocity S-wave (km/s) = 1.74488 2.80971 2.33871
# Velocity P-wave (km/s) = 4.61682 6.88638 5.86248
#
# Compressibility (1/GPa) = 0.03146481
#
# Stress axis : x y z
#
# Youngs Moduli (GPa) = 21.98902 22.70505 30.45202
#
# Poissons Ratio (x) = 0.03713 0.95014
# Poissons Ratio (y) = 0.03596 0.38402
# Poissons Ratio (z) = 0.68608 0.28632
#
# Static dielectric constant tensor:
#      x y z
#    x 1.636090 0.000000 0.000000 
#    y 0.000000 1.621490 0.000000 
#    z 0.000000 0.000000 1.661410 
# 
# From -- ./inp_files/12450.got.cif
#   From: 2010.05.17/outbox.cif.g08.bks.cpg/sg69_7_cif.got.tgz:12450.got - 2010.06.03 19:29:58.
