data_PCOD9512295
_publ_section_title
;
Structure prediction by ZEFSAII (Michael W. Deem and Ramdas Pophale) SiO2 
 PCOD9512295
Probable space group: F M M M
;
_chemical_formula_sum "Si O2"
_cell_formula_units_Z 176
_cell_length_a 14.316555
_cell_length_b 27.014638
_cell_length_c 22.346430
_cell_angle_alpha 90.000000
_cell_angle_beta 90.000000
_cell_angle_gamma 90.000000
_cell_volume 8642.628188
_symmetry_space_group_name_H-M "F M M M"
_symmetry_group_IT_number 69
_symmetry_cell_setting 'orthorhombic'
loop_
_space_group_symop_operation_xyz
x,y,z
-x,-y,z
x,-y,-z
-x,y,-z
-x,-y,-z
x,y,-z
-x,y,z
x,-y,z
x,1/2+y,1/2+z
-x,1/2-y,1/2+z
x,1/2-y,1/2-z
-x,1/2+y,1/2-z
-x,1/2-y,1/2-z
x,1/2+y,1/2-z
-x,1/2+y,1/2+z
x,1/2-y,1/2+z
1/2+x,y,1/2+z
1/2-x,-y,1/2+z
1/2+x,-y,1/2-z
1/2-x,y,1/2-z
1/2-x,-y,1/2-z
1/2+x,y,1/2-z
1/2-x,y,1/2+z
1/2+x,-y,1/2+z
1/2+x,1/2+y,z
1/2-x,1/2-y,z
1/2+x,1/2-y,-z
1/2-x,1/2+y,-z
1/2-x,1/2-y,-z
1/2+x,1/2+y,-z
1/2-x,1/2+y,z
1/2+x,1/2-y,z
loop_
_atom_site_type_symbol
_atom_site_label
_atom_site_fract_x
_atom_site_fract_y
_atom_site_fract_z
Si Si1 0.713946 0.798925 0.566976
Si Si2 0.750000 0.112283 0.250000
Si Si3 0.107791 0.306633 0.236563
Si Si4 0.713349 0.557953 0.627819
Si Si5 0.395898 0.850165 0.100821
Si Si6 0.393825 0.108349 0.572664
O O1 0.681558 0.784573 0.500000
O O2 0.750000 0.750000 0.600112
O O3 0.809280 0.829701 0.563971
O O4 0.636106 0.835773 0.591765
O O5 0.831232 0.150962 0.232097
O O6 0.723740 0.077377 0.195454
O O7 0.138036 0.250000 0.250000
O O8 0.111758 0.323668 0.166468
O O9 0.000000 0.309601 0.255212
O O10 0.697532 0.500000 0.623049
O O11 0.627932 0.591693 0.604682
O O12 0.811521 0.573101 0.596359
O O13 0.500000 0.840729 0.078476
O O14 0.390622 0.107796 0.500000
O O15 0.500000 0.096432 0.591088
#
# Coordination Sequence:
#
# PCOD9512295 Si02
#       6
#    32  16  32  32  32  32
#     4   9  18  32  51  77 107 137 167 200 245 303
#     4  10  20  34  52  74 104 136 170 214 260 308
#     4   9  18  32  50  73 100 131 166 203 248 303
#     4  10  21  36  54  75 100 134 177 222 268 314
#     4   9  19  34  51  73 100 131 169 211 254 301
#     4   9  19  36  56  79 108 139 173 216 263 312
#
# _framework density 20.364174999999999
#
# number of rings (size 3 to 8) (size 9 to 14) (size 15 to 20)
#    0.000    2.727    0.000    0.545    0.000    7.273 
#    0.000    4.545    0.000    3.273    0.000    5.091 
#    0.000    0.000    0.000    0.000    0.000    0.000 
#
# Total GULP energy -245086.757559 kJ/mol
# GULP energy per Si atom -5570.153581 kJ/mol
# Density = 2.031783 g / cm^3
# Si number density = 20.364175 Si / 1000 Ang^3
#
#
#
# Elastic Constant Matrix: (Units=GPa)
#
#
# Indices 1 2 3 4 5 6 
#
# 1 78.8939 10.2615 -0.5051 0.0000 0.0000 0.0000
# 2 10.2615 142.6371 3.4190 0.0000 0.0000 0.0000
# 3 -0.5051 3.4190 29.0453 0.0000 0.0000 0.0000
# 4 0.0000 0.0000 0.0000 1.9239 0.0000 0.0000
# 5 0.0000 0.0000 0.0000 0.0000 18.1711 0.0000
# 6 0.0000 0.0000 0.0000 0.0000 0.0000 16.1620
#
#
#
# Elastic Compliance Matrix: (Units=1/GPa)
#
#
# Indices 1 2 3 4 5 6 
#
# 1 0.012798 -0.000929 0.000332 0.000000 0.000000 0.000000
# 2 -0.000929 0.007098 -0.000852 0.000000 0.000000 0.000000
# 3 0.000332 -0.000852 0.034535 0.000000 0.000000 0.000000
# 4 0.000000 0.000000 0.000000 0.519785 0.000000 0.000000
# 5 0.000000 0.000000 0.000000 0.000000 0.055033 0.000000
# 6 0.000000 0.000000 0.000000 0.000000 0.000000 0.061873
#
#
# Mechanical properties :
#
#
# Convention : Reuss Voigt Hill
#
# Bulk Modulus (GPa) = 19.40457 30.76967 25.08712
# Shear Modulus (GPa) = 7.03040 23.07812 15.05426
#
# Velocity S-wave (km/s) = 1.86006 3.37006 2.72187
# Velocity P-wave (km/s) = 3.76332 5.50323 4.71424
#
# Compressibility (1/GPa) = 0.05153424
#
# Stress axis : x y z
#
# Youngs Moduli (GPa) = 78.13616 140.88430 28.95613
#
# Poissons Ratio (x) = 0.13083 -0.00961
# Poissons Ratio (y) = 0.07256 0.02466
# Poissons Ratio (z) = -0.02593 0.11999
#
# Static dielectric constant tensor:
#      x y z
#    x 1.701000 0.000000 0.000000 
#    y 0.000000 1.733140 0.000000 
#    z 0.000000 0.000000 1.786520 
# 
# From -- ./inp_files/36026.got.cif
#   From: 2010.05.17/outbox.cif.g08.bks.cpg/sg69_19_cif.got.tgz:36026.got - 2010.06.03 19:29:58.
