data_PCOD9512192
_publ_section_title
;
Structure prediction by ZEFSAII (Michael W. Deem and Ramdas Pophale) SiO2 
 PCOD9512192
Probable space group: F M M M
;
_chemical_formula_sum "Si O2"
_cell_formula_units_Z 144
_cell_length_a 13.420068
_cell_length_b 23.284275
_cell_length_c 28.538323
_cell_angle_alpha 90.000000
_cell_angle_beta 90.000000
_cell_angle_gamma 90.000000
_cell_volume 8917.556823
_symmetry_space_group_name_H-M "F M M M"
_symmetry_group_IT_number 69
_symmetry_cell_setting 'orthorhombic'
loop_
_space_group_symop_operation_xyz
x,y,z
-x,-y,z
x,-y,-z
-x,y,-z
-x,-y,-z
x,y,-z
-x,y,z
x,-y,z
x,1/2+y,1/2+z
-x,1/2-y,1/2+z
x,1/2-y,1/2-z
-x,1/2+y,1/2-z
-x,1/2-y,1/2-z
x,1/2+y,1/2-z
-x,1/2+y,1/2+z
x,1/2-y,1/2+z
1/2+x,y,1/2+z
1/2-x,-y,1/2+z
1/2+x,-y,1/2-z
1/2-x,y,1/2-z
1/2-x,-y,1/2-z
1/2+x,y,1/2-z
1/2-x,y,1/2+z
1/2+x,-y,1/2+z
1/2+x,1/2+y,z
1/2-x,1/2-y,z
1/2+x,1/2-y,-z
1/2-x,1/2+y,-z
1/2-x,1/2-y,-z
1/2+x,1/2+y,-z
1/2-x,1/2+y,z
1/2+x,1/2-y,z
loop_
_atom_site_type_symbol
_atom_site_label
_atom_site_fract_x
_atom_site_fract_y
_atom_site_fract_z
Si Si1 0.887860 0.437238 0.328970
Si Si2 0.250000 0.750000 0.376594
Si Si3 0.117540 0.149498 0.913954
Si Si4 0.617741 0.796392 0.207931
Si Si5 0.750000 0.604276 0.250000
Si Si6 0.379470 0.066384 0.500000
O O1 0.880712 0.500000 0.352408
O O2 0.876414 0.386382 0.365812
O O3 0.807600 0.431568 0.288688
O O4 0.000000 0.432667 0.309184
O O5 0.190960 0.703241 0.407555
O O6 0.330359 0.723303 0.340175
O O7 0.000000 0.165689 0.920766
O O8 0.146970 0.104933 0.954851
O O9 0.500000 0.802763 0.201524
O O10 0.632889 0.750000 0.250000
O O11 0.670164 0.854156 0.225216
O O12 0.500000 0.062569 0.500000
O O13 0.342826 0.000000 0.500000
#
# Coordination Sequence:
#
# PCOD9512192 Si02
#       6
#    32  16  32  32  16  16
#     4  10  20  33  50  73 102 136 174 217 261 305
#     4  12  19  33  48  74 108 138 172 210 264 308
#     4  10  20  34  54  78 106 136 169 212 265 318
#     4  11  20  31  47  69 101 143 185 215 248 301
#     4  12  18  32  46  72 100 141 173 216 256 306
#     4   9  18  35  58  82 105 130 166 214 265 315
#
# _framework density 16.147921
#
# number of rings (size 3 to 8) (size 9 to 14) (size 15 to 20)
#    0.000    1.444    4.444    2.333    0.000    6.667 
#    0.000    0.000    0.000    0.000    0.000    0.000 
#    0.000    3.556    0.000    0.000    0.000    0.000 
#
# Total GULP energy -200776.195029 kJ/mol
# GULP energy per Si atom -5577.116529 kJ/mol
# Density = 1.611117 g / cm^3
# Si number density = 16.147921 Si / 1000 Ang^3
#
#
#
# Elastic Constant Matrix: (Units=GPa)
#
#
# Indices 1 2 3 4 5 6 
#
# 1 99.9406 52.5560 34.2066 0.0000 0.0000 0.0000
# 2 52.5560 112.3058 34.5992 0.0000 0.0000 0.0000
# 3 34.2066 34.5992 66.6490 0.0000 0.0000 0.0000
# 4 0.0000 0.0000 0.0000 20.9067 0.0000 0.0000
# 5 0.0000 0.0000 0.0000 0.0000 10.7918 0.0000
# 6 0.0000 0.0000 0.0000 0.0000 0.0000 16.4473
#
#
#
# Elastic Compliance Matrix: (Units=1/GPa)
#
#
# Indices 1 2 3 4 5 6 
#
# 1 0.014378 -0.005303 -0.004626 0.000000 0.000000 0.000000
# 2 -0.005303 0.012556 -0.003796 0.000000 0.000000 0.000000
# 3 -0.004626 -0.003796 0.019349 0.000000 0.000000 0.000000
# 4 0.000000 0.000000 0.000000 0.047832 0.000000 0.000000
# 5 0.000000 0.000000 0.000000 0.000000 0.092663 0.000000
# 6 0.000000 0.000000 0.000000 0.000000 0.000000 0.060800
#
#
# Mechanical properties :
#
#
# Convention : Reuss Voigt Hill
#
# Bulk Modulus (GPa) = 53.10288 57.95769 55.53028
# Shear Modulus (GPa) = 17.77425 20.13140 18.95282
#
# Velocity S-wave (km/s) = 3.32130 3.53468 3.42965
# Velocity P-wave (km/s) = 6.90396 7.25453 7.08142
#
# Compressibility (1/GPa) = 0.01883137
#
# Stress axis : x y z
#
# Youngs Moduli (GPa) = 69.54935 79.64588 51.68221
#
# Poissons Ratio (x) = 0.42239 0.23910
# Poissons Ratio (y) = 0.36884 0.19619
# Poissons Ratio (z) = 0.32176 0.30234
#
# Static dielectric constant tensor:
#      x y z
#    x 1.529330 0.000000 0.000000 
#    y 0.000000 1.554110 0.000000 
#    z 0.000000 0.000000 1.536570 
# 
# From -- ./inp_files/40172.got.cif
#   From: 2010.05.17/outbox.cif.g08.bks.cpg/sg69_21_cif.got.tgz:40172.got - 2010.06.03 19:29:58.
