data_PCOD9512418
_publ_section_title
;
Structure prediction by ZEFSAII (Michael W. Deem and Ramdas Pophale) SiO2 
 PCOD9512418
Probable space group: F M M M
;
_chemical_formula_sum "Si O2"
_cell_formula_units_Z 136
_cell_length_a 14.213286
_cell_length_b 17.553424
_cell_length_c 27.568858
_cell_angle_alpha 90.000000
_cell_angle_beta 90.000000
_cell_angle_gamma 90.000000
_cell_volume 6878.204988
_symmetry_space_group_name_H-M "F M M M"
_symmetry_group_IT_number 69
_symmetry_cell_setting 'orthorhombic'
loop_
_space_group_symop_operation_xyz
x,y,z
-x,-y,z
x,-y,-z
-x,y,-z
-x,-y,-z
x,y,-z
-x,y,z
x,-y,z
x,1/2+y,1/2+z
-x,1/2-y,1/2+z
x,1/2-y,1/2-z
-x,1/2+y,1/2-z
-x,1/2-y,1/2-z
x,1/2+y,1/2-z
-x,1/2+y,1/2+z
x,1/2-y,1/2+z
1/2+x,y,1/2+z
1/2-x,-y,1/2+z
1/2+x,-y,1/2-z
1/2-x,y,1/2-z
1/2-x,-y,1/2-z
1/2+x,y,1/2-z
1/2-x,y,1/2+z
1/2+x,-y,1/2+z
1/2+x,1/2+y,z
1/2-x,1/2-y,z
1/2+x,1/2-y,-z
1/2-x,1/2+y,-z
1/2-x,1/2-y,-z
1/2+x,1/2+y,-z
1/2-x,1/2+y,z
1/2+x,1/2-y,z
loop_
_atom_site_type_symbol
_atom_site_label
_atom_site_fract_x
_atom_site_fract_y
_atom_site_fract_z
Si Si1 0.687734 0.913780 0.355527
Si Si2 0.891225 0.336286 0.738093
Si Si3 0.896568 0.124278 0.347910
Si Si4 0.000000 0.252708 0.500000
Si Si5 0.640948 0.768718 0.590014
O O1 0.670384 0.877419 0.302386
O O2 0.799916 0.912559 0.366255
O O3 0.636805 0.855654 0.391863
O O4 0.653027 0.000000 0.357218
O O5 0.860945 0.250000 0.750000
O O6 0.892021 0.378364 0.789741
O O7 0.000000 0.333171 0.720818
O O8 0.890552 0.211498 0.366908
O O9 0.000000 0.094909 0.363216
O O10 0.919300 0.253870 0.457172
O O11 0.750000 0.750000 0.581258
#
# Coordination Sequence:
#
# PCOD9512418 Si02
#       5
#    32  32  32   8  32
#     4  11  24  39  59  92 134 170 201 242 307 377
#     4  10  20  34  59  88 123 168 211 246 287 353
#     4  10  20  38  63  89 122 163 211 258 295 348
#     4  12  22  40  73  92 117 146 216 274 312 364
#     4  10  22  40  64  95 122 158 205 263 312 360
#
# _framework density 19.772601000000002
#
# number of rings (size 3 to 8) (size 9 to 14) (size 15 to 20)
#    0.000    1.647    3.529    1.059    1.647    3.765 
#    0.000    3.529    0.000    0.000    0.000    3.294 
#    0.000    0.000    0.000    0.000    0.000    0.000 
#
# Total GULP energy -189291.487824 kJ/mol
# GULP energy per Si atom -5567.396701 kJ/mol
# Density = 1.972760 g / cm^3
# Si number density = 19.772601 Si / 1000 Ang^3
#
#
#
# Elastic Constant Matrix: (Units=GPa)
#
#
# Indices 1 2 3 4 5 6 
#
# 1 116.4980 3.4117 23.6815 0.0000 0.0000 0.0000
# 2 3.4117 106.4386 13.9992 0.0000 0.0000 0.0000
# 3 23.6815 13.9992 83.4756 0.0000 0.0000 0.0000
# 4 0.0000 0.0000 0.0000 -0.5793 0.0000 0.0000
# 5 0.0000 0.0000 0.0000 0.0000 42.7841 0.0000
# 6 0.0000 0.0000 0.0000 0.0000 0.0000 0.1161
#
#
#
# Elastic Compliance Matrix: (Units=1/GPa)
#
#
# Indices 1 2 3 4 5 6 
#
# 1 0.009109 0.000049 -0.002592 0.000000 0.000000 0.000000
# 2 0.000049 0.009607 -0.001625 0.000000 0.000000 0.000000
# 3 -0.002592 -0.001625 0.012988 0.000000 0.000000 0.000000
# 4 0.000000 0.000000 0.000000 -1.726336 0.000000 0.000000
# 5 0.000000 0.000000 0.000000 0.000000 0.023373 0.000000
# 6 0.000000 0.000000 0.000000 0.000000 0.000000 8.616914
#
#
# Mechanical properties :
#
#
# Convention : Reuss Voigt Hill
#
# Bulk Modulus (GPa) = 42.79529 43.17744 42.98637
# Shear Modulus (GPa) = 0.71821 26.15217 13.43519
#
# Velocity S-wave (km/s) = 0.60334 3.64077 2.60952
# Velocity P-wave (km/s) = 4.70915 6.28951 5.55581
#
# Compressibility (1/GPa) = 0.02336706
#
# Stress axis : x y z
#
# Youngs Moduli (GPa) = 109.77674 104.08803 76.99677
#
# Poissons Ratio (x) = -0.00510 0.19961
# Poissons Ratio (y) = -0.00538 0.12513
# Poissons Ratio (z) = 0.28460 0.16915
#
# Static dielectric constant tensor:
#      x y z
#    x 1.756940 0.000000 0.000000 
#    y 0.000000 1.715920 0.000000 
#    z 0.000000 0.000000 1.653440 
# 
# From -- ./inp_files/29892.got.cif
#   From: 2010.05.17/outbox.cif.g08.bks.cpg/sg69_15_cif.got.tgz:29892.got - 2010.06.03 19:29:58.
