data_PCOD9512289
_publ_section_title
;
Structure prediction by ZEFSAII (Michael W. Deem and Ramdas Pophale) SiO2 
 PCOD9512289
Probable space group: F M M M
;
_chemical_formula_sum "Si O2"
_cell_formula_units_Z 208
_cell_length_a 24.105725
_cell_length_b 28.038275
_cell_length_c 18.439194
_cell_angle_alpha 90.000000
_cell_angle_beta 90.000000
_cell_angle_gamma 90.000000
_cell_volume 12462.736774
_symmetry_space_group_name_H-M "F M M M"
_symmetry_group_IT_number 69
_symmetry_cell_setting 'orthorhombic'
loop_
_space_group_symop_operation_xyz
x,y,z
-x,-y,z
x,-y,-z
-x,y,-z
-x,-y,-z
x,y,-z
-x,y,z
x,-y,z
x,1/2+y,1/2+z
-x,1/2-y,1/2+z
x,1/2-y,1/2-z
-x,1/2+y,1/2-z
-x,1/2-y,1/2-z
x,1/2+y,1/2-z
-x,1/2+y,1/2+z
x,1/2-y,1/2+z
1/2+x,y,1/2+z
1/2-x,-y,1/2+z
1/2+x,-y,1/2-z
1/2-x,y,1/2-z
1/2-x,-y,1/2-z
1/2+x,y,1/2-z
1/2-x,y,1/2+z
1/2+x,-y,1/2+z
1/2+x,1/2+y,z
1/2-x,1/2-y,z
1/2+x,1/2-y,-z
1/2-x,1/2+y,-z
1/2-x,1/2-y,-z
1/2+x,1/2+y,-z
1/2-x,1/2+y,z
1/2+x,1/2-y,z
loop_
_atom_site_type_symbol
_atom_site_label
_atom_site_fract_x
_atom_site_fract_y
_atom_site_fract_z
Si Si1 0.436177 0.000000 0.913164
Si Si2 0.932737 0.766123 0.918300
Si Si3 0.064980 0.825922 0.672656
Si Si4 0.935221 0.358103 0.661693
Si Si5 0.752219 0.556338 0.582158
Si Si6 0.860387 0.914870 0.643698
Si Si7 0.854052 0.556468 0.690047
O O1 0.402970 0.954361 0.885305
O O2 0.500000 0.000000 0.887490
O O3 0.436136 0.000000 0.000000
O O4 0.919090 0.725298 0.859978
O O5 0.913501 0.818602 0.894501
O O6 0.000000 0.768599 0.918065
O O7 0.914977 0.753800 0.000000
O O8 0.067926 0.832308 0.759473
O O9 0.106482 0.865567 0.642398
O O10 0.000000 0.834888 0.652725
O O11 0.901579 0.407174 0.663901
O O12 0.000000 0.368061 0.647654
O O13 0.771843 0.565127 0.500000
O O14 0.737431 0.500000 0.587431
O O15 0.696132 0.584584 0.598663
O O16 0.799849 0.565032 0.641047
O O17 0.844752 0.930001 0.725920
O O18 0.868045 0.500000 0.685101
#
# Coordination Sequence:
#
# PCOD9512289 Si02
#       7
#    16  32  32  32  32  32  32
#     4  11  22  32  45  72 111 145 167 198 246 298
#     4   9  17  30  49  72  99 133 171 209 249 301
#     4   9  18  31  49  75 104 134 168 206 248 300
#     4   9  18  32  51  75 103 134 166 205 259 309
#     4  10  20  34  52  71  98 135 177 220 261 302
#     4  11  19  33  52  74 103 139 176 209 248 302
#     4  10  20  34  52  78 102 133 174 219 254 301
#
# _framework density 16.689754000000001
#
# number of rings (size 3 to 8) (size 9 to 14) (size 15 to 20)
#    0.000    2.231    1.538    1.846    0.000    5.846 
#    0.000    1.538    0.000    0.923    0.000   10.769 
#    0.000    0.000    0.000    0.000    0.000    0.000 
#
# Total GULP energy -289863.127725 kJ/mol
# GULP energy per Si atom -5574.290918 kJ/mol
# Density = 1.665177 g / cm^3
# Si number density = 16.689754 Si / 1000 Ang^3
#
#
#
# Elastic Constant Matrix: (Units=GPa)
#
#
# Indices 1 2 3 4 5 6 
#
# 1 56.6413 26.0850 32.0981 0.0000 0.0000 0.0000
# 2 26.0850 77.5781 21.8296 0.0000 0.0000 0.0000
# 3 32.0981 21.8296 52.5780 0.0000 0.0000 0.0000
# 4 0.0000 0.0000 0.0000 14.3571 0.0000 0.0000
# 5 0.0000 0.0000 0.0000 0.0000 18.9877 0.0000
# 6 0.0000 0.0000 0.0000 0.0000 0.0000 6.1090
#
#
#
# Elastic Compliance Matrix: (Units=1/GPa)
#
#
# Indices 1 2 3 4 5 6 
#
# 1 0.028843 -0.005371 -0.015378 0.000000 0.000000 0.000000
# 2 -0.005371 0.015596 -0.003196 0.000000 0.000000 0.000000
# 3 -0.015378 -0.003196 0.029735 0.000000 0.000000 0.000000
# 4 0.000000 0.000000 0.000000 0.069652 0.000000 0.000000
# 5 0.000000 0.000000 0.000000 0.000000 0.052666 0.000000
# 6 0.000000 0.000000 0.000000 0.000000 0.000000 0.163692
#
#
# Mechanical properties :
#
#
# Convention : Reuss Voigt Hill
#
# Bulk Modulus (GPa) = 38.04833 38.53587 38.29210
# Shear Modulus (GPa) = 11.99515 15.00974 13.50245
#
# Velocity S-wave (km/s) = 2.68379 3.00215 2.84742
# Velocity P-wave (km/s) = 5.69654 5.92932 5.81410
#
# Compressibility (1/GPa) = 0.02628236
#
# Stress axis : x y z
#
# Youngs Moduli (GPa) = 34.67016 64.12086 33.63081
#
# Poissons Ratio (x) = 0.34439 0.51719
# Poissons Ratio (y) = 0.18621 0.10749
# Poissons Ratio (z) = 0.53317 0.20494
#
# Static dielectric constant tensor:
#      x y z
#    x 1.539740 0.000000 0.000000 
#    y 0.000000 1.550290 0.000000 
#    z 0.000000 0.000000 1.584020 
# 
# From -- ./inp_files/26120.got.cif
#   From: 2010.05.17/outbox.cif.g08.bks.cpg/sg69_14_cif.got.tgz:26120.got - 2010.06.03 19:29:58.
