data_PCOD9512167
_publ_section_title
;
Structure prediction by ZEFSAII (Michael W. Deem and Ramdas Pophale) SiO2 
 PCOD9512167
Probable space group: F M M M
;
_chemical_formula_sum "Si O2"
_cell_formula_units_Z 160
_cell_length_a 15.868244
_cell_length_b 26.656733
_cell_length_c 20.105893
_cell_angle_alpha 90.000000
_cell_angle_beta 90.000000
_cell_angle_gamma 90.000000
_cell_volume 8504.703137
_symmetry_space_group_name_H-M "F M M M"
_symmetry_group_IT_number 69
_symmetry_cell_setting 'orthorhombic'
loop_
_space_group_symop_operation_xyz
x,y,z
-x,-y,z
x,-y,-z
-x,y,-z
-x,-y,-z
x,y,-z
-x,y,z
x,-y,z
x,1/2+y,1/2+z
-x,1/2-y,1/2+z
x,1/2-y,1/2-z
-x,1/2+y,1/2-z
-x,1/2-y,1/2-z
x,1/2+y,1/2-z
-x,1/2+y,1/2+z
x,1/2-y,1/2+z
1/2+x,y,1/2+z
1/2-x,-y,1/2+z
1/2+x,-y,1/2-z
1/2-x,y,1/2-z
1/2-x,-y,1/2-z
1/2+x,y,1/2-z
1/2-x,y,1/2+z
1/2+x,-y,1/2+z
1/2+x,1/2+y,z
1/2-x,1/2-y,z
1/2+x,1/2-y,-z
1/2-x,1/2+y,-z
1/2-x,1/2-y,-z
1/2+x,1/2+y,-z
1/2-x,1/2+y,z
1/2+x,1/2-y,z
loop_
_atom_site_type_symbol
_atom_site_label
_atom_site_fract_x
_atom_site_fract_y
_atom_site_fract_z
Si Si1 0.146819 0.197124 0.424053
Si Si2 0.165025 0.500000 0.294733
Si Si3 0.100914 0.897432 0.822708
Si Si4 0.600200 0.892969 0.170367
Si Si5 0.594862 0.000000 0.844926
Si Si6 0.649992 0.810039 0.576364
O O1 0.118537 0.188302 0.500000
O O2 0.116661 0.154543 0.374734
O O3 0.248448 0.193778 0.423828
O O4 0.120293 0.253748 0.405238
O O5 0.250000 0.500000 0.250000
O O6 0.149637 0.449556 0.335869
O O7 0.094498 0.500000 0.235952
O O8 0.127879 0.884707 0.746551
O O9 0.122564 0.852932 0.873035
O O10 0.000000 0.905388 0.824629
O O11 0.500000 0.900744 0.173729
O O12 0.635388 0.945703 0.140713
O O13 0.500000 0.000000 0.872669
O O14 0.623299 0.820288 0.500000
#
# Coordination Sequence:
#
# PCOD9512167 Si02
#       6
#    32  16  32  32  16  32
#     4   9  19  36  54  75 107 144 187 235 277 324
#     4  10  20  32  55  84 106 139 180 215 269 333
#     4  10  21  36  55  81 114 144 178 228 276 331
#     4   9  18  32  53  78 106 139 175 221 277 331
#     4   8  16  32  49  72 110 140 162 209 268 317
#     4   9  20  37  55  75 105 148 189 228 277 326
#
# _framework density 18.813120999999999
#
# number of rings (size 3 to 8) (size 9 to 14) (size 15 to 20)
#    0.000    2.800    0.000    3.300    5.600    2.400 
#    0.000    7.000    0.000    5.400    0.000    0.000 
#    0.000    0.000    0.000    0.000    0.000    0.000 
#
# Total GULP energy -222804.418570 kJ/mol
# GULP energy per Si atom -5570.110464 kJ/mol
# Density = 1.877030 g / cm^3
# Si number density = 18.813121 Si / 1000 Ang^3
#
#
#
# Elastic Constant Matrix: (Units=GPa)
#
#
# Indices 1 2 3 4 5 6 
#
# 1 48.2410 29.5487 17.3982 0.0000 0.0000 0.0000
# 2 29.5487 220.6133 111.1944 0.0000 0.0000 0.0000
# 3 17.3982 111.1944 82.3539 0.0000 0.0000 0.0000
# 4 0.0000 0.0000 0.0000 -92.8632 0.0000 0.0000
# 5 0.0000 0.0000 0.0000 0.0000 20.8535 0.0000
# 6 0.0000 0.0000 0.0000 0.0000 0.0000 29.8331
#
#
#
# Elastic Compliance Matrix: (Units=1/GPa)
#
#
# Indices 1 2 3 4 5 6 
#
# 1 0.022704 -0.001951 -0.002162 0.000000 0.000000 0.000000
# 2 -0.001951 0.014356 -0.018972 0.000000 0.000000 0.000000
# 3 -0.002162 -0.018972 0.038215 0.000000 0.000000 0.000000
# 4 0.000000 0.000000 0.000000 -0.010769 0.000000 0.000000
# 5 0.000000 0.000000 0.000000 0.000000 0.047953 0.000000
# 6 0.000000 0.000000 0.000000 0.000000 0.000000 0.033520
#
#
# Mechanical properties :
#
#
# Convention : Reuss Voigt Hill
#
# Bulk Modulus (GPa) = 34.35725 74.16565 54.26145
# Shear Modulus (GPa) = 24.77054 4.43581 14.60317
#
# Velocity S-wave (km/s) = 3.63252 1.53719 2.78910
# Velocity P-wave (km/s) = 5.99130 6.53135 6.26714
#
# Compressibility (1/GPa) = 0.02910593
#
# Stress axis : x y z
#
# Youngs Moduli (GPa) = 44.04480 69.65494 26.16754
#
# Poissons Ratio (x) = 0.13593 0.05657
# Poissons Ratio (y) = 0.08595 0.49645
# Poissons Ratio (z) = 0.09521 1.32149
#
# Static dielectric constant tensor:
#      x y z
#    x 1.725370 0.000000 0.000000 
#    y 0.000000 1.710330 0.000000 
#    z 0.000000 0.000000 1.617630 
# 
# From -- ./inp_files/23216.got.cif
#   From: 2010.05.17/outbox.cif.g08.bks.cpg/sg69_12_cif.got.tgz:23216.got - 2010.06.03 19:29:58.
