data_PCOD9512579
_publ_section_title
;
Structure prediction by ZEFSAII (Michael W. Deem and Ramdas Pophale) SiO2 
 PCOD9512579
Probable space group: F M M M
;
_chemical_formula_sum "Si O2"
_cell_formula_units_Z 160
_cell_length_a 10.074708
_cell_length_b 23.574247
_cell_length_c 28.551399
_cell_angle_alpha 90.000000
_cell_angle_beta 90.000000
_cell_angle_gamma 90.000000
_cell_volume 6781.061613
_symmetry_space_group_name_H-M "F M M M"
_symmetry_group_IT_number 69
_symmetry_cell_setting 'orthorhombic'
loop_
_space_group_symop_operation_xyz
x,y,z
-x,-y,z
x,-y,-z
-x,y,-z
-x,-y,-z
x,y,-z
-x,y,z
x,-y,z
x,1/2+y,1/2+z
-x,1/2-y,1/2+z
x,1/2-y,1/2-z
-x,1/2+y,1/2-z
-x,1/2-y,1/2-z
x,1/2+y,1/2-z
-x,1/2+y,1/2+z
x,1/2-y,1/2+z
1/2+x,y,1/2+z
1/2-x,-y,1/2+z
1/2+x,-y,1/2-z
1/2-x,y,1/2-z
1/2-x,-y,1/2-z
1/2+x,y,1/2-z
1/2-x,y,1/2+z
1/2+x,-y,1/2+z
1/2+x,1/2+y,z
1/2-x,1/2-y,z
1/2+x,1/2-y,-z
1/2-x,1/2+y,-z
1/2-x,1/2-y,-z
1/2+x,1/2+y,-z
1/2-x,1/2+y,z
1/2+x,1/2-y,z
loop_
_atom_site_type_symbol
_atom_site_label
_atom_site_fract_x
_atom_site_fract_y
_atom_site_fract_z
Si Si1 0.153297 0.000000 0.443968
Si Si2 0.850066 0.585867 0.396963
Si Si3 0.230480 0.622359 0.697606
Si Si4 0.833941 0.204802 0.945060
Si Si5 0.500000 0.296785 0.554741
Si Si6 0.500000 0.784775 0.298271
Si Si7 0.500000 0.169031 0.153492
O O1 0.237362 0.947098 0.424680
O O2 0.154298 0.000000 0.500000
O O3 0.000000 0.000000 0.428048
O O4 0.826936 0.580358 0.341410
O O5 0.838416 0.652341 0.409196
O O6 0.000000 0.568167 0.409482
O O7 0.250000 0.599799 0.750000
O O8 0.370585 0.644583 0.678219
O O9 0.128564 0.675336 0.700308
O O10 0.667280 0.220788 0.940042
O O11 0.000000 0.222201 0.942573
O O12 0.831353 0.186314 0.000000
O O13 0.500000 0.316298 0.500000
O O14 0.500000 0.340738 0.598102
O O15 0.500000 0.750000 0.250000
O O16 0.500000 0.737524 0.339005
#
# Coordination Sequence:
#
# PCOD9512579 Si02
#       7
#    16  32  32  32  16  16  16
#     4  11  29  57  86 117 150 191 252 329 405 476
#     4  12  25  47  78 112 147 194 261 322 387 464
#     4  12  25  43  65 104 148 196 256 317 380 454
#     4  10  20  37  61  97 146 192 235 294 366 448
#     4  10  20  36  54  86 136 191 253 302 354 435
#     4  12  22  42  62 100 154 213 266 316 375 447
#     4  12  24  36  66  95 143 213 257 312 369 444
#
# _framework density 23.595124999999999
#
# number of rings (size 3 to 8) (size 9 to 14) (size 15 to 20)
#    0.000    0.700    4.000    3.900    1.400    1.600 
#    1.800    1.500    0.000    0.000    0.000    0.000 
#    0.000    0.000    0.000    0.000    0.000    0.000 
#
# Total GULP energy -223899.906479 kJ/mol
# GULP energy per Si atom -5597.497662 kJ/mol
# Density = 2.354142 g / cm^3
# Si number density = 23.595125 Si / 1000 Ang^3
#
#
#
# Elastic Constant Matrix: (Units=GPa)
#
#
# Indices 1 2 3 4 5 6 
#
# 1 260.0118 38.2643 48.1746 0.0000 0.0000 0.0000
# 2 38.2643 43.9732 28.7509 0.0000 0.0000 0.0000
# 3 48.1746 28.7509 158.1572 0.0000 0.0000 0.0000
# 4 0.0000 0.0000 0.0000 24.5820 0.0000 0.0000
# 5 0.0000 0.0000 0.0000 0.0000 39.7048 0.0000
# 6 0.0000 0.0000 0.0000 0.0000 0.0000 55.1304
#
#
#
# Elastic Compliance Matrix: (Units=1/GPa)
#
#
# Indices 1 2 3 4 5 6 
#
# 1 0.004487 -0.003417 -0.000746 0.000000 0.000000 0.000000
# 2 -0.003417 0.028411 -0.004124 0.000000 0.000000 0.000000
# 3 -0.000746 -0.004124 0.007300 0.000000 0.000000 0.000000
# 4 0.000000 0.000000 0.000000 0.040680 0.000000 0.000000
# 5 0.000000 0.000000 0.000000 0.000000 0.025186 0.000000
# 6 0.000000 0.000000 0.000000 0.000000 0.000000 0.018139
#
#
# Mechanical properties :
#
#
# Convention : Reuss Voigt Hill
#
# Bulk Modulus (GPa) = 42.32895 76.94686 59.63790
# Shear Modulus (GPa) = 33.63606 47.01359 40.32482
#
# Velocity S-wave (km/s) = 3.77974 4.46860 4.13853
# Velocity P-wave (km/s) = 6.08500 7.70108 6.94024
#
# Compressibility (1/GPa) = 0.02362449
#
# Stress axis : x y z
#
# Youngs Moduli (GPa) = 222.86742 35.19786 136.99395
#
# Poissons Ratio (x) = 0.12027 0.10214
# Poissons Ratio (y) = 0.76153 0.56495
# Poissons Ratio (z) = 0.16616 0.14515
#
# Static dielectric constant tensor:
#      x y z
#    x 1.947000 0.000000 0.000000 
#    y 0.000000 1.877260 0.000000 
#    z 0.000000 0.000000 1.824840 
# 
# From -- ./inp_files/44659.got.cif
#   From: 2010.05.17/outbox.cif.g08.bks.cpg/sg69_23_cif.got.tgz:44659.got - 2010.06.03 19:29:58.
