data_PCOD9512788
_publ_section_title
;
Structure prediction by ZEFSAII (Michael W. Deem and Ramdas Pophale) SiO2 
 PCOD9512788
Probable space group: F M M M
;
_chemical_formula_sum "Si O2"
_cell_formula_units_Z 176
_cell_length_a 20.222604
_cell_length_b 27.457337
_cell_length_c 15.665551
_cell_angle_alpha 90.000000
_cell_angle_beta 90.000000
_cell_angle_gamma 90.000000
_cell_volume 8698.435881
_symmetry_space_group_name_H-M "F M M M"
_symmetry_group_IT_number 69
_symmetry_cell_setting 'orthorhombic'
loop_
_space_group_symop_operation_xyz
x,y,z
-x,-y,z
x,-y,-z
-x,y,-z
-x,-y,-z
x,y,-z
-x,y,z
x,-y,z
x,1/2+y,1/2+z
-x,1/2-y,1/2+z
x,1/2-y,1/2-z
-x,1/2+y,1/2-z
-x,1/2-y,1/2-z
x,1/2+y,1/2-z
-x,1/2+y,1/2+z
x,1/2-y,1/2+z
1/2+x,y,1/2+z
1/2-x,-y,1/2+z
1/2+x,-y,1/2-z
1/2-x,y,1/2-z
1/2-x,-y,1/2-z
1/2+x,y,1/2-z
1/2-x,y,1/2+z
1/2+x,-y,1/2+z
1/2+x,1/2+y,z
1/2-x,1/2-y,z
1/2+x,1/2-y,-z
1/2-x,1/2+y,-z
1/2-x,1/2-y,-z
1/2+x,1/2+y,-z
1/2-x,1/2+y,z
1/2+x,1/2-y,z
loop_
_atom_site_type_symbol
_atom_site_label
_atom_site_fract_x
_atom_site_fract_y
_atom_site_fract_z
Si Si1 0.113299 0.097030 0.599110
Si Si2 0.739775 0.896762 0.648512
Si Si3 0.500000 0.557703 0.897074
Si Si4 0.897041 0.638626 0.602672
Si Si5 0.000000 0.218724 0.895457
Si Si6 0.698858 0.000000 0.670282
Si Si7 0.500000 0.170634 0.104115
Si Si8 0.920172 0.000000 0.295398
O O1 0.098203 0.086660 0.500000
O O2 0.189397 0.112799 0.607683
O O3 0.100928 0.048349 0.653078
O O4 0.064124 0.139456 0.629523
O O5 0.750000 0.897376 0.750000
O O6 0.678788 0.862020 0.628944
O O7 0.714814 0.950637 0.620732
O O8 0.500000 0.500000 0.879294
O O9 0.562671 0.590335 0.866987
O O10 0.500000 0.560229 0.000000
O O11 0.899672 0.637365 0.500000
O O12 0.937067 0.686306 0.630837
O O13 0.000000 0.274015 0.864526
O O14 0.000000 0.220010 0.000000
O O15 0.750000 0.000000 0.750000
O O16 0.626392 0.000000 0.711690
O O17 0.500000 0.172775 0.000000
O O18 0.000000 0.000000 0.288960
#
# Coordination Sequence:
#
# PCOD9512788 Si02
#       8
#    32  32  16  32  16  16  16  16
#     4  11  21  34  57  87 111 142 184 229 277 324
#     4  11  21  37  54  74 115 152 187 220 266 328
#     4   8  15  29  46  74 109 130 163 219 270 313
#     4   9  18  33  57  83 105 140 184 225 274 327
#     4   8  16  37  61  83 112 139 174 231 290 332
#     4  10  20  38  52  73 114 160 188 208 268 334
#     4   9  19  35  59  87 113 139 176 234 287 327
#     4  12  21  37  56  84 114 149 184 228 271 331
#
# _framework density 20.233523000000002
#
# number of rings (size 3 to 8) (size 9 to 14) (size 15 to 20)
#    0.000    2.091    4.545    1.909    1.273    0.364 
#    3.273    3.636    0.000    7.636    0.000    0.000 
#    0.000    0.000    0.000    0.000    0.000    0.000 
#
# Total GULP energy -245695.610533 kJ/mol
# GULP energy per Si atom -5583.991148 kJ/mol
# Density = 2.018747 g / cm^3
# Si number density = 20.233523 Si / 1000 Ang^3
#
#
#
# Elastic Constant Matrix: (Units=GPa)
#
#
# Indices 1 2 3 4 5 6 
#
# 1 202.5160 87.6945 10.7478 0.0000 0.0000 0.0000
# 2 87.6945 167.0822 19.0385 0.0000 0.0000 0.0000
# 3 10.7478 19.0385 25.5928 0.0000 0.0000 0.0000
# 4 0.0000 0.0000 0.0000 -1.5898 0.0000 0.0000
# 5 0.0000 0.0000 0.0000 0.0000 25.3830 0.0000
# 6 0.0000 0.0000 0.0000 0.0000 0.0000 15.7461
#
#
#
# Elastic Compliance Matrix: (Units=1/GPa)
#
#
# Indices 1 2 3 4 5 6 
#
# 1 0.006391 -0.003331 -0.000206 0.000000 0.000000 0.000000
# 2 -0.003331 0.008275 -0.004757 0.000000 0.000000 0.000000
# 3 -0.000206 -0.004757 0.042699 0.000000 0.000000 0.000000
# 4 0.000000 0.000000 0.000000 -0.629008 0.000000 0.000000
# 5 0.000000 0.000000 0.000000 0.000000 0.039396 0.000000
# 6 0.000000 0.000000 0.000000 0.000000 0.000000 0.063508
#
#
# Mechanical properties :
#
#
# Convention : Reuss Voigt Hill
#
# Bulk Modulus (GPa) = 24.52366 70.01696 47.27031
# Shear Modulus (GPa) = -11.40102 26.42189 7.51044
#
# Velocity S-wave (km/s) = -2.37633 3.61757 1.92871
# Velocity P-wave (km/s) = 2.14880 7.22002 5.32663
#
# Compressibility (1/GPa) = 0.04077694
#
# Stress axis : x y z
#
# Youngs Moduli (GPa) = 156.46449 120.83921 23.41979
#
# Poissons Ratio (x) = 0.40252 0.00483
# Poissons Ratio (y) = 0.52118 0.11141
# Poissons Ratio (z) = 0.03224 0.57486
#
# Static dielectric constant tensor:
#      x y z
#    x 1.731950 0.000000 0.000000 
#    y 0.000000 1.709460 0.000000 
#    z 0.000000 0.000000 1.748560 
# 
# From -- ./inp_files/23347.got.cif
#   From: 2010.05.17/outbox.cif.g08.bks.cpg/sg69_12_cif.got.tgz:23347.got - 2010.06.03 19:29:58.
