data_PCOD9512245
_publ_section_title
;
Structure prediction by ZEFSAII (Michael W. Deem and Ramdas Pophale) SiO2 
 PCOD9512245
Probable space group: F M M M
;
_chemical_formula_sum "Si O2"
_cell_formula_units_Z 208
_cell_length_a 27.244001
_cell_length_b 20.720580
_cell_length_c 19.784840
_cell_angle_alpha 90.000000
_cell_angle_beta 90.000000
_cell_angle_gamma 90.000000
_cell_volume 11168.769750
_symmetry_space_group_name_H-M "F M M M"
_symmetry_group_IT_number 69
_symmetry_cell_setting 'orthorhombic'
loop_
_space_group_symop_operation_xyz
x,y,z
-x,-y,z
x,-y,-z
-x,y,-z
-x,-y,-z
x,y,-z
-x,y,z
x,-y,z
x,1/2+y,1/2+z
-x,1/2-y,1/2+z
x,1/2-y,1/2-z
-x,1/2+y,1/2-z
-x,1/2-y,1/2-z
x,1/2+y,1/2-z
-x,1/2+y,1/2+z
x,1/2-y,1/2+z
1/2+x,y,1/2+z
1/2-x,-y,1/2+z
1/2+x,-y,1/2-z
1/2-x,y,1/2-z
1/2-x,-y,1/2-z
1/2+x,y,1/2-z
1/2-x,y,1/2+z
1/2+x,-y,1/2+z
1/2+x,1/2+y,z
1/2-x,1/2-y,z
1/2+x,1/2-y,-z
1/2-x,1/2+y,-z
1/2-x,1/2-y,-z
1/2+x,1/2+y,-z
1/2-x,1/2+y,z
1/2+x,1/2-y,z
loop_
_atom_site_type_symbol
_atom_site_label
_atom_site_fract_x
_atom_site_fract_y
_atom_site_fract_z
Si Si1 0.058397 0.500000 0.918854
Si Si2 0.058178 0.173172 0.926076
Si Si3 0.266986 0.072494 0.173954
Si Si4 0.378199 0.605579 0.341011
Si Si5 0.441207 0.174393 0.270592
Si Si6 0.134856 0.731631 0.075526
Si Si7 0.721517 0.682237 0.079263
O O1 0.086990 0.438560 0.887632
O O2 0.000000 0.500000 0.902152
O O3 0.062807 0.500000 0.000000
O O4 0.069971 0.154588 0.848541
O O5 0.078782 0.245891 0.926998
O O6 0.000000 0.170005 0.928963
O O7 0.076243 0.145463 0.000000
O O8 0.250000 0.086738 0.250000
O O9 0.326143 0.072935 0.173907
O O10 0.243982 0.126095 0.124559
O O11 0.250380 0.000000 0.155326
O O12 0.409739 0.628143 0.277041
O O13 0.361398 0.671044 0.377832
O O14 0.500000 0.167354 0.260237
O O15 0.429927 0.250000 0.250000
O O16 0.166028 0.794927 0.095829
O O17 0.152125 0.714800 0.000000
O O18 0.750000 0.750000 0.089067
O O19 0.724043 0.664640 0.000000
#
# Coordination Sequence:
#
# PCOD9512245 Si02
#       7
#    16  32  32  32  32  32  32
#     4  11  26  44  63  94 131 173 222 255 291 370
#     4   9  18  33  53  82 120 156 191 238 301 369
#     4  11  26  44  60  85 120 162 212 261 310 372
#     4  12  22  39  62  86 122 168 205 254 312 366
#     4  10  20  33  53  86 121 155 201 249 302 366
#     4  10  20  34  56  89 123 157 199 252 313 365
#     4  10  21  39  62  91 121 150 199 262 312 371
#
# _framework density 18.623358
#
# number of rings (size 3 to 8) (size 9 to 14) (size 15 to 20)
#    0.000    1.615    3.846    0.923    2.154    1.846 
#    0.000    1.538    0.000    0.000    0.000    0.538 
#    0.000    3.077    0.000    0.308    0.000    0.154 
#
# Total GULP energy -289495.213652 kJ/mol
# GULP energy per Si atom -5567.215647 kJ/mol
# Density = 1.858097 g / cm^3
# Si number density = 18.623358 Si / 1000 Ang^3
#
#
#
# Elastic Constant Matrix: (Units=GPa)
#
#
# Indices 1 2 3 4 5 6 
#
# 1 69.0527 38.0731 69.2433 0.0000 0.0000 0.0000
# 2 38.0731 98.9117 79.7311 0.0000 0.0000 0.0000
# 3 69.2433 79.7311 148.0823 0.0000 0.0000 0.0000
# 4 0.0000 0.0000 0.0000 28.7365 0.0000 0.0000
# 5 0.0000 0.0000 0.0000 0.0000 24.7822 0.0000
# 6 0.0000 0.0000 0.0000 0.0000 0.0000 3.4540
#
#
#
# Elastic Compliance Matrix: (Units=1/GPa)
#
#
# Indices 1 2 3 4 5 6 
#
# 1 0.027275 -0.000385 -0.012546 0.000000 0.000000 0.000000
# 2 -0.000385 0.017868 -0.009440 0.000000 0.000000 0.000000
# 3 -0.012546 -0.009440 0.017703 0.000000 0.000000 0.000000
# 4 0.000000 0.000000 0.000000 0.034799 0.000000 0.000000
# 5 0.000000 0.000000 0.000000 0.000000 0.040351 0.000000
# 6 0.000000 0.000000 0.000000 0.000000 0.000000 0.289523
#
#
# Mechanical properties :
#
#
# Convention : Reuss Voigt Hill
#
# Bulk Modulus (GPa) = 55.24365 76.68241 65.96303
# Shear Modulus (GPa) = 10.45373 19.99448 15.22410
#
# Velocity S-wave (km/s) = 2.37180 3.28017 2.86225
# Velocity P-wave (km/s) = 6.10152 7.45727 6.81320
#
# Compressibility (1/GPa) = 0.01810163
#
# Stress axis : x y z
#
# Youngs Moduli (GPa) = 36.66339 55.96544 56.48860
#
# Poissons Ratio (x) = 0.02156 0.70873
# Poissons Ratio (y) = 0.01413 0.53328
# Poissons Ratio (z) = 0.45999 0.52834
#
# Static dielectric constant tensor:
#      x y z
#    x 1.721380 0.000000 0.000000 
#    y 0.000000 1.634140 0.000000 
#    z 0.000000 0.000000 1.689120 
# 
# From -- ./inp_files/27931.got.cif
#   From: 2010.05.17/outbox.cif.g08.bks.cpg/sg69_14_cif.got.tgz:27931.got - 2010.06.03 19:29:58.
