data_PCOD9512706
_publ_section_title
;
Structure prediction by ZEFSAII (Michael W. Deem and Ramdas Pophale) SiO2 
 PCOD9512706
Probable space group: F M M M
;
_chemical_formula_sum "Si O2"
_cell_formula_units_Z 160
_cell_length_a 23.651602
_cell_length_b 17.280364
_cell_length_c 20.259872
_cell_angle_alpha 90.000000
_cell_angle_beta 90.000000
_cell_angle_gamma 90.000000
_cell_volume 8280.377676
_symmetry_space_group_name_H-M "F M M M"
_symmetry_group_IT_number 69
_symmetry_cell_setting 'orthorhombic'
loop_
_space_group_symop_operation_xyz
x,y,z
-x,-y,z
x,-y,-z
-x,y,-z
-x,-y,-z
x,y,-z
-x,y,z
x,-y,z
x,1/2+y,1/2+z
-x,1/2-y,1/2+z
x,1/2-y,1/2-z
-x,1/2+y,1/2-z
-x,1/2-y,1/2-z
x,1/2+y,1/2-z
-x,1/2+y,1/2+z
x,1/2-y,1/2+z
1/2+x,y,1/2+z
1/2-x,-y,1/2+z
1/2+x,-y,1/2-z
1/2-x,y,1/2-z
1/2-x,-y,1/2-z
1/2+x,y,1/2-z
1/2-x,y,1/2+z
1/2+x,-y,1/2+z
1/2+x,1/2+y,z
1/2-x,1/2-y,z
1/2+x,1/2-y,-z
1/2-x,1/2+y,-z
1/2-x,1/2-y,-z
1/2+x,1/2+y,-z
1/2-x,1/2+y,z
1/2+x,1/2-y,z
loop_
_atom_site_type_symbol
_atom_site_label
_atom_site_fract_x
_atom_site_fract_y
_atom_site_fract_z
Si Si1 0.759481 0.908798 0.078416
Si Si2 0.935833 0.406563 0.000000
Si Si3 0.362809 0.408196 0.371197
Si Si4 0.064704 0.285846 0.177747
Si Si5 0.563632 0.500000 0.920102
Si Si6 0.378591 0.337142 0.920716
O O1 0.702572 0.888441 0.117176
O O2 0.811920 0.852233 0.090722
O O3 0.773922 0.000000 0.091564
O O4 0.746543 0.905542 0.000000
O O5 0.899008 0.386790 0.063647
O O6 0.939910 0.500000 0.000000
O O7 0.000000 0.375822 0.000000
O O8 0.366105 0.500000 0.361978
O O9 0.395205 0.360441 0.316486
O O10 0.062365 0.250000 0.250000
O O11 0.093241 0.227634 0.124864
O O12 0.000000 0.304355 0.157461
O O13 0.500000 0.500000 0.894470
O O14 0.593694 0.580008 0.902952
O O15 0.562369 0.500000 0.000000
O O16 0.386810 0.322855 0.000000
#
# Coordination Sequence:
#
# PCOD9512706 Si02
#       6
#    32  16  32  32  16  32
#     4   9  16  32  59  93 130 157 193 243 300 358
#     4   9  16  28  52  87 116 143 189 244 289 337
#     4  10  20  37  61  89 118 157 198 242 297 366
#     4  11  26  45  59  82 122 160 203 259 311 361
#     4   9  16  30  54  88 119 146 193 249 294 347
#     4  10  20  36  62  92 120 158 197 245 301 362
#
# _framework density 19.322790000000001
#
# number of rings (size 3 to 8) (size 9 to 14) (size 15 to 20)
#    0.000    2.200    2.000    1.200    1.400    3.200 
#    1.800    4.000    0.000    2.400    0.000    0.000 
#    0.000    0.000    0.000    0.000    0.000    0.000 
#
# Total GULP energy -223135.635384 kJ/mol
# GULP energy per Si atom -5578.390885 kJ/mol
# Density = 1.927881 g / cm^3
# Si number density = 19.322790 Si / 1000 Ang^3
#
#
#
# Elastic Constant Matrix: (Units=GPa)
#
#
# Indices 1 2 3 4 5 6 
#
# 1 152.1913 55.9286 32.8343 0.0000 0.0000 0.0000
# 2 55.9286 68.2185 23.2301 0.0000 0.0000 0.0000
# 3 32.8343 23.2301 36.9046 0.0000 0.0000 0.0000
# 4 0.0000 0.0000 0.0000 24.0029 0.0000 0.0000
# 5 0.0000 0.0000 0.0000 0.0000 20.3458 0.0000
# 6 0.0000 0.0000 0.0000 0.0000 0.0000 24.2199
#
#
#
# Elastic Compliance Matrix: (Units=1/GPa)
#
#
# Indices 1 2 3 4 5 6 
#
# 1 0.010022 -0.006593 -0.004766 0.000000 0.000000 0.000000
# 2 -0.006593 0.022996 -0.008609 0.000000 0.000000 0.000000
# 3 -0.004766 -0.008609 0.036756 0.000000 0.000000 0.000000
# 4 0.000000 0.000000 0.000000 0.041662 0.000000 0.000000
# 5 0.000000 0.000000 0.000000 0.000000 0.049150 0.000000
# 6 0.000000 0.000000 0.000000 0.000000 0.000000 0.041288
#
#
# Mechanical properties :
#
#
# Convention : Reuss Voigt Hill
#
# Bulk Modulus (GPa) = 33.51526 53.47781 43.49654
# Shear Modulus (GPa) = 19.86038 23.40182 21.63110
#
# Velocity S-wave (km/s) = 3.20944 3.48386 3.34946
# Velocity P-wave (km/s) = 5.57823 6.62715 6.12519
#
# Compressibility (1/GPa) = 0.02983715
#
# Stress axis : x y z
#
# Youngs Moduli (GPa) = 99.78067 43.48598 27.20608
#
# Poissons Ratio (x) = 0.28672 0.12967
# Poissons Ratio (y) = 0.65790 0.23421
# Poissons Ratio (z) = 0.47558 0.37437
#
# Static dielectric constant tensor:
#      x y z
#    x 1.676860 0.000000 0.000000 
#    y 0.000000 1.688250 0.000000 
#    z 0.000000 0.000000 1.669590 
# 
# From -- ./inp_files/17800.got.cif
#   From: 2010.05.17/outbox.cif.g08.bks.cpg/sg69_9_cif.got.tgz:17800.got - 2010.06.03 19:29:58.
