data_PCOD9512942
_publ_section_title
;
Structure prediction by ZEFSAII (Michael W. Deem and Ramdas Pophale) SiO2 
 PCOD9512942
Probable space group: F M M M
;
_chemical_formula_sum "Si O2"
_cell_formula_units_Z 116
_cell_length_a 28.558977
_cell_length_b 9.047950
_cell_length_c 25.028750
_cell_angle_alpha 90.000000
_cell_angle_beta 90.000000
_cell_angle_gamma 90.000000
_cell_volume 6467.433904
_symmetry_space_group_name_H-M "F M M M"
_symmetry_group_IT_number 69
_symmetry_cell_setting 'orthorhombic'
loop_
_space_group_symop_operation_xyz
x,y,z
-x,-y,z
x,-y,-z
-x,y,-z
-x,-y,-z
x,y,-z
-x,y,z
x,-y,z
x,1/2+y,1/2+z
-x,1/2-y,1/2+z
x,1/2-y,1/2-z
-x,1/2+y,1/2-z
-x,1/2-y,1/2-z
x,1/2+y,1/2-z
-x,1/2+y,1/2+z
x,1/2-y,1/2+z
1/2+x,y,1/2+z
1/2-x,-y,1/2+z
1/2+x,-y,1/2-z
1/2-x,y,1/2-z
1/2-x,-y,1/2-z
1/2+x,y,1/2-z
1/2-x,y,1/2+z
1/2+x,-y,1/2+z
1/2+x,1/2+y,z
1/2-x,1/2-y,z
1/2+x,1/2-y,-z
1/2-x,1/2+y,-z
1/2-x,1/2-y,-z
1/2+x,1/2+y,-z
1/2-x,1/2+y,z
1/2+x,1/2-y,z
loop_
_atom_site_type_symbol
_atom_site_label
_atom_site_fract_x
_atom_site_fract_y
_atom_site_fract_z
Si Si1 0.300559 0.822430 0.193949
Si Si2 0.000000 0.500000 0.500000
Si Si3 0.901221 0.663327 0.500000
Si Si4 0.056226 0.169041 0.195478
Si Si5 0.117510 0.324166 0.110223
O O1 0.316965 0.750000 0.250000
O O2 0.250000 0.750000 0.183264
O O3 0.336229 0.792092 0.145634
O O4 0.296678 0.000000 0.200471
O O5 0.957309 0.626962 0.500000
O O6 0.878975 0.500000 0.500000
O O7 0.885483 0.749086 0.447241
O O8 0.070120 0.250000 0.250000
O O9 0.075739 0.257577 0.145607
O O10 0.000000 0.166222 0.193607
O O11 0.073235 0.000000 0.194835
O O12 0.113339 0.500000 0.105383
#
# Coordination Sequence:
#
# PCOD9512942 Si02
#       5
#    32   4  16  32  32
#     4  10  21  37  60  89 121 153 194 237 291 352
#     4   8  24  44  62  84 116 148 210 248 284 342
#     4  10  23  41  62  82 114 151 198 243 289 340
#     4  10  21  35  53  79 112 148 188 233 286 348
#     4  11  23  38  58  85 116 150 193 243 292 351
#
# _framework density 17.936015999999999
#
# number of rings (size 3 to 8) (size 9 to 14) (size 15 to 20)
#    0.414    1.379    0.000    4.552    1.931    8.276 
#    0.000    1.379    0.000    0.000    0.000    0.000 
#    0.000    0.000    0.000    0.000    0.000    0.000 
#
# Total GULP energy -161600.407361 kJ/mol
# GULP energy per Si atom -5572.427840 kJ/mol
# Density = 1.789519 g / cm^3
# Si number density = 17.936016 Si / 1000 Ang^3
#
#
#
# Elastic Constant Matrix: (Units=GPa)
#
#
# Indices 1 2 3 4 5 6 
#
# 1 73.3192 55.3926 51.3925 0.0000 0.0000 0.0000
# 2 55.3926 137.7391 96.9094 0.0000 0.0001 0.0001
# 3 51.3925 96.9094 187.4697 0.0000 0.0000 0.0000
# 4 0.0000 0.0000 0.0000 34.9580 0.0000 0.0000
# 5 0.0000 0.0001 0.0000 0.0000 94.3497 -0.0001
# 6 0.0000 0.0001 0.0000 0.0000 -0.0001 28.9236
#
#
#
# Elastic Compliance Matrix: (Units=1/GPa)
#
#
# Indices 1 2 3 4 5 6 
#
# 1 0.020101 -0.006611 -0.002093 0.000000 0.000000 0.000000
# 2 -0.006611 0.013584 -0.005210 0.000000 0.000000 0.000000
# 3 -0.002093 -0.005210 0.008601 0.000000 0.000000 0.000000
# 4 0.000000 0.000000 0.000000 0.028606 0.000000 0.000000
# 5 0.000000 0.000000 0.000000 0.000000 0.010599 0.000000
# 6 0.000000 0.000000 0.000000 0.000000 0.000000 0.034574
#
#
# Mechanical properties :
#
#
# Convention : Reuss Voigt Hill
#
# Bulk Modulus (GPa) = 69.16383 89.54634 79.35509
# Shear Modulus (GPa) = 33.62215 44.63516 39.12865
#
# Velocity S-wave (km/s) = 4.33432 4.99398 4.67579
# Velocity P-wave (km/s) = 7.98082 9.12616 8.57264
#
# Compressibility (1/GPa) = 0.01445842
#
# Stress axis : x y z
#
# Youngs Moduli (GPa) = 49.74963 73.61438 116.26492
#
# Poissons Ratio (x) = 0.48668 0.24332
# Poissons Ratio (y) = 0.32890 0.60572
# Poissons Ratio (z) = 0.10412 0.38352
#
# Static dielectric constant tensor:
#      x y z
#    x 1.623860 0.000000 0.000000 
#    y 0.000000 1.607590 0.000000 
#    z 0.000000 0.000000 1.621090 
# 
# From -- ./inp_files/38737.got.cif
#   From: 2010.05.17/outbox.cif.g08.bks.cpg/sg69_20_cif.got.tgz:38737.got - 2010.06.03 19:29:58.
