data_PCOD9512990
_publ_section_title
;
Structure prediction by ZEFSAII (Michael W. Deem and Ramdas Pophale) SiO2 
 PCOD9512990
Probable space group: F M M M
;
_chemical_formula_sum "Si O2"
_cell_formula_units_Z 192
_cell_length_a 22.840658
_cell_length_b 13.931659
_cell_length_c 29.278279
_cell_angle_alpha 90.000000
_cell_angle_beta 90.000000
_cell_angle_gamma 90.000000
_cell_volume 9316.590175
_symmetry_space_group_name_H-M "F M M M"
_symmetry_group_IT_number 69
_symmetry_cell_setting 'orthorhombic'
loop_
_space_group_symop_operation_xyz
x,y,z
-x,-y,z
x,-y,-z
-x,y,-z
-x,-y,-z
x,y,-z
-x,y,z
x,-y,z
x,1/2+y,1/2+z
-x,1/2-y,1/2+z
x,1/2-y,1/2-z
-x,1/2+y,1/2-z
-x,1/2-y,1/2-z
x,1/2+y,1/2-z
-x,1/2+y,1/2+z
x,1/2-y,1/2+z
1/2+x,y,1/2+z
1/2-x,-y,1/2+z
1/2+x,-y,1/2-z
1/2-x,y,1/2-z
1/2-x,-y,1/2-z
1/2+x,y,1/2-z
1/2-x,y,1/2+z
1/2+x,-y,1/2+z
1/2+x,1/2+y,z
1/2-x,1/2-y,z
1/2+x,1/2-y,-z
1/2-x,1/2+y,-z
1/2-x,1/2-y,-z
1/2+x,1/2+y,-z
1/2-x,1/2+y,z
1/2+x,1/2-y,z
loop_
_atom_site_type_symbol
_atom_site_label
_atom_site_fract_x
_atom_site_fract_y
_atom_site_fract_z
Si Si1 0.936837 0.891434 0.238597
Si Si2 0.232009 0.359881 0.611392
Si Si3 0.093377 0.313927 0.831603
Si Si4 0.932502 0.000000 0.392920
Si Si5 0.392758 0.390391 0.856196
Si Si6 0.213337 0.609389 0.205946
Si Si7 0.311104 0.000000 0.945783
O O1 0.936301 0.823942 0.282324
O O2 0.887069 0.885210 0.199887
O O3 0.000000 0.883152 0.214464
O O4 0.934323 0.000000 0.257140
O O5 0.250000 0.250000 0.608576
O O6 0.162969 0.381099 0.610294
O O7 0.245080 0.395144 0.662487
O O8 0.274277 0.412746 0.576070
O O9 0.077268 0.405450 0.861983
O O10 0.079470 0.216791 0.859248
O O11 0.160761 0.325770 0.813954
O O12 0.878188 0.000000 0.428316
O O13 0.000000 0.000000 0.409854
O O14 0.416821 0.500000 0.863072
O O15 0.192055 0.500000 0.215123
O O16 0.250000 0.641318 0.250000
O O17 0.309163 0.000000 0.000000
#
# Coordination Sequence:
#
# PCOD9512990 Si02
#       7
#    32  32  32  16  32  32  16
#     4  10  21  36  54  84 127 176 231 277 313 363
#     4  12  21  41  64  92 130 167 217 270 317 397
#     4  12  20  37  58  88 125 174 224 266 317 376
#     4  12  24  43  70  98 124 159 211 274 340 396
#     4  11  23  37  58  87 129 178 219 270 319 376
#     4  11  20  32  56  89 130 173 217 260 315 374
#     4  12  26  47  70  96 129 162 206 271 347 416
#
# _framework density 20.608398999999999
#
# number of rings (size 3 to 8) (size 9 to 14) (size 15 to 20)
#    0.000    0.667    6.667    2.000    0.000    5.500 
#    0.000    0.000    0.000    0.500    0.000    0.000 
#    0.000    1.333    0.000    0.833    0.000    0.000 
#
# Total GULP energy -267408.893983 kJ/mol
# GULP energy per Si atom -5571.018625 kJ/mol
# Density = 2.056149 g / cm^3
# Si number density = 20.608399 Si / 1000 Ang^3
#
#
#
# Elastic Constant Matrix: (Units=GPa)
#
#
# Indices 1 2 3 4 5 6 
#
# 1 97.4201 29.2201 42.3536 0.0000 0.0000 0.0000
# 2 29.2201 180.8507 31.9295 0.0000 0.0000 0.0000
# 3 42.3536 31.9295 108.9597 0.0000 0.0000 0.0000
# 4 0.0000 0.0000 0.0000 155.7916 0.0000 0.0000
# 5 0.0000 0.0000 0.0000 0.0000 -0.4741 0.0000
# 6 0.0000 0.0000 0.0000 0.0000 0.0000 9.1187
#
#
#
# Elastic Compliance Matrix: (Units=1/GPa)
#
#
# Indices 1 2 3 4 5 6 
#
# 1 0.012609 -0.001236 -0.004539 0.000000 0.000000 0.000000
# 2 -0.001236 0.005952 -0.001264 0.000000 0.000000 0.000000
# 3 -0.004539 -0.001264 0.011312 0.000000 0.000000 0.000000
# 4 0.000000 0.000000 0.000000 0.006419 0.000000 0.000000
# 5 0.000000 0.000000 0.000000 0.000000 -2.109097 0.000000
# 6 0.000000 0.000000 0.000000 0.000000 0.000000 0.109665
#
#
# Mechanical properties :
#
#
# Convention : Reuss Voigt Hill
#
# Bulk Modulus (GPa) = 63.30691 66.02633 64.66662
# Shear Modulus (GPa) = -2.57229 51.80237 24.61504
#
# Velocity S-wave (km/s) = -1.11843 5.01907 3.45978
# Velocity P-wave (km/s) = 5.39609 8.10532 6.88528
#
# Compressibility (1/GPa) = 0.01579606
#
# Stress axis : x y z
#
# Youngs Moduli (GPa) = 79.30931 168.00419 88.39837
#
# Poissons Ratio (x) = 0.20763 0.40124
# Poissons Ratio (y) = 0.09801 0.11172
# Poissons Ratio (z) = 0.35999 0.21233
#
# Static dielectric constant tensor:
#      x y z
#    x 1.947010 0.000000 0.000000 
#    y 0.000000 1.915910 0.000000 
#    z 0.000000 0.000000 1.658120 
# 
# From -- ./inp_files/43222.got.cif
#   From: 2010.05.17/outbox.cif.g08.bks.cpg/sg69_22_cif.got.tgz:43222.got - 2010.06.03 19:29:58.
