data_PCOD9512848
_publ_section_title
;
Structure prediction by ZEFSAII (Michael W. Deem and Ramdas Pophale) SiO2 
 PCOD9512848
Probable space group: F M M M
;
_chemical_formula_sum "Si O2"
_cell_formula_units_Z 152
_cell_length_a 24.167107
_cell_length_b 11.245917
_cell_length_c 29.142746
_cell_angle_alpha 90.000000
_cell_angle_beta 90.000000
_cell_angle_gamma 90.000000
_cell_volume 7920.452795
_symmetry_space_group_name_H-M "F M M M"
_symmetry_group_IT_number 69
_symmetry_cell_setting 'orthorhombic'
loop_
_space_group_symop_operation_xyz
x,y,z
-x,-y,z
x,-y,-z
-x,y,-z
-x,-y,-z
x,y,-z
-x,y,z
x,-y,z
x,1/2+y,1/2+z
-x,1/2-y,1/2+z
x,1/2-y,1/2-z
-x,1/2+y,1/2-z
-x,1/2-y,1/2-z
x,1/2+y,1/2-z
-x,1/2+y,1/2+z
x,1/2-y,1/2+z
1/2+x,y,1/2+z
1/2-x,-y,1/2+z
1/2+x,-y,1/2-z
1/2-x,y,1/2-z
1/2-x,-y,1/2-z
1/2+x,y,1/2-z
1/2-x,y,1/2+z
1/2+x,-y,1/2+z
1/2+x,1/2+y,z
1/2-x,1/2-y,z
1/2+x,1/2-y,-z
1/2-x,1/2+y,-z
1/2-x,1/2-y,-z
1/2+x,1/2+y,-z
1/2-x,1/2+y,z
1/2+x,1/2-y,z
loop_
_atom_site_type_symbol
_atom_site_label
_atom_site_fract_x
_atom_site_fract_y
_atom_site_fract_z
Si Si1 0.226756 0.627455 0.697825
Si Si2 0.000000 0.500000 0.309958
Si Si3 0.099162 0.308949 0.299580
Si Si4 0.711751 0.634674 0.553817
Si Si5 0.500000 0.355255 0.447872
Si Si6 0.602043 0.861875 0.114255
O O1 0.243804 0.500000 0.676576
O O2 0.250000 0.626176 0.750000
O O3 0.250000 0.750000 0.676546
O O4 0.160609 0.634433 0.699925
O O5 0.950888 0.602330 0.308792
O O6 0.091376 0.250000 0.250000
O O7 0.100960 0.210808 0.339271
O O8 0.694177 0.639002 0.500000
O O9 0.736034 0.500000 0.560261
O O10 0.750000 0.750000 0.561143
O O11 0.659460 0.645431 0.587069
O O12 0.500000 0.500000 0.449692
O O13 0.500000 0.311903 0.500000
O O14 0.445995 0.318273 0.419901
O O15 0.591182 0.000000 0.124728
#
# Coordination Sequence:
#
# PCOD9512848 Si02
#       6
#    32   8  32  32  16  32
#     4  10  20  39  65  88 117 159 219 274 325 374
#     4  12  28  46  60  86 125 172 227 260 340 394
#     4  12  25  44  64  90 127 178 221 275 330 392
#     4   9  18  37  64  97 135 171 211 265 335 405
#     4   9  17  35  63  94 125 155 198 262 327 381
#     4  10  22  38  64  97 127 162 219 271 323 383
#
# _framework density 19.190822000000001
#
# number of rings (size 3 to 8) (size 9 to 14) (size 15 to 20)
#    0.000    1.789    3.158    1.579    1.474    4.211 
#    3.789    2.105    0.000    0.000    0.000    2.211 
#    0.000    0.000    0.000    0.000    0.000    0.000 
#
# Total GULP energy -211566.725442 kJ/mol
# GULP energy per Si atom -5567.545406 kJ/mol
# Density = 1.914714 g / cm^3
# Si number density = 19.190822 Si / 1000 Ang^3
#
#
#
# Elastic Constant Matrix: (Units=GPa)
#
#
# Indices 1 2 3 4 5 6 
#
# 1 127.7374 68.5432 38.3839 0.0000 0.0000 0.0000
# 2 68.5432 166.5893 59.7991 0.0000 0.0000 0.0000
# 3 38.3839 59.7991 130.1925 0.0000 0.0000 0.0000
# 4 0.0000 0.0000 0.0000 -398.7721 0.0000 0.0000
# 5 0.0000 0.0000 0.0000 0.0000 8.7246 0.0000
# 6 0.0000 0.0000 0.0000 0.0000 0.0000 31.1034
#
#
#
# Elastic Compliance Matrix: (Units=1/GPa)
#
#
# Indices 1 2 3 4 5 6 
#
# 1 0.010226 -0.003742 -0.001296 0.000000 0.000000 0.000000
# 2 -0.003742 0.008557 -0.002827 0.000000 0.000000 0.000000
# 3 -0.001296 -0.002827 0.009362 0.000000 0.000000 0.000000
# 4 0.000000 0.000000 0.000000 -0.002508 0.000000 0.000000
# 5 0.000000 0.000000 0.000000 0.000000 0.114618 0.000000
# 6 0.000000 0.000000 0.000000 0.000000 0.000000 0.032151
#
#
# Mechanical properties :
#
#
# Convention : Reuss Voigt Hill
#
# Bulk Modulus (GPa) = 80.55381 84.21907 82.38644
# Shear Modulus (GPa) = 26.00437 -54.60261 -14.29912
#
# Velocity S-wave (km/s) = 3.68508 -5.33987 -2.73262
# Velocity P-wave (km/s) = 7.75711 2.44159 5.75040
#
# Compressibility (1/GPa) = 0.01241406
#
# Stress axis : x y z
#
# Youngs Moduli (GPa) = 97.78896 116.85768 106.81936
#
# Poissons Ratio (x) = 0.43732 0.13844
# Poissons Ratio (y) = 0.36596 0.30200
# Poissons Ratio (z) = 0.12674 0.33038
#
# Static dielectric constant tensor:
#      x y z
#    x 1.653830 0.000000 0.000000 
#    y 0.000000 1.668110 0.000000 
#    z 0.000000 0.000000 1.647610 
# 
# From -- ./inp_files/46957.got.cif
#   From: 2010.05.17/outbox.cif.g08.bks.cpg/sg69_24_cif.got.tgz:46957.got - 2010.06.03 19:29:58.
