data_PCOD9512608
_publ_section_title
;
Structure prediction by ZEFSAII (Michael W. Deem and Ramdas Pophale) SiO2 
 PCOD9512608
Probable space group: F M M M
;
_chemical_formula_sum "Si O2"
_cell_formula_units_Z 192
_cell_length_a 28.147161
_cell_length_b 15.646475
_cell_length_c 22.786082
_cell_angle_alpha 90.000000
_cell_angle_beta 90.000000
_cell_angle_gamma 90.000000
_cell_volume 10035.078260
_symmetry_space_group_name_H-M "F M M M"
_symmetry_group_IT_number 69
_symmetry_cell_setting 'orthorhombic'
loop_
_space_group_symop_operation_xyz
x,y,z
-x,-y,z
x,-y,-z
-x,y,-z
-x,-y,-z
x,y,-z
-x,y,z
x,-y,z
x,1/2+y,1/2+z
-x,1/2-y,1/2+z
x,1/2-y,1/2-z
-x,1/2+y,1/2-z
-x,1/2-y,1/2-z
x,1/2+y,1/2-z
-x,1/2+y,1/2+z
x,1/2-y,1/2+z
1/2+x,y,1/2+z
1/2-x,-y,1/2+z
1/2+x,-y,1/2-z
1/2-x,y,1/2-z
1/2-x,-y,1/2-z
1/2+x,y,1/2-z
1/2-x,y,1/2+z
1/2+x,-y,1/2+z
1/2+x,1/2+y,z
1/2-x,1/2-y,z
1/2+x,1/2-y,-z
1/2-x,1/2+y,-z
1/2-x,1/2-y,-z
1/2+x,1/2+y,-z
1/2-x,1/2+y,z
1/2+x,1/2-y,z
loop_
_atom_site_type_symbol
_atom_site_label
_atom_site_fract_x
_atom_site_fract_y
_atom_site_fract_z
Si Si1 0.386985 0.000000 0.570842
Si Si2 0.369811 0.902592 0.863827
Si Si3 0.445636 0.396616 0.736177
Si Si4 0.444655 0.349261 0.130716
Si Si5 0.217474 0.333453 0.070106
Si Si6 0.553639 0.670621 0.432673
Si Si7 0.278696 0.000000 0.429616
O O1 0.412683 0.916833 0.596546
O O2 0.389164 0.000000 0.500000
O O3 0.332484 0.000000 0.591992
O O4 0.402503 0.877142 0.808062
O O5 0.327820 0.841608 0.887021
O O6 0.408418 0.899660 0.915785
O O7 0.352515 0.000000 0.855281
O O8 0.500000 0.371828 0.717307
O O9 0.446191 0.500000 0.742588
O O10 0.436837 0.355933 0.799674
O O11 0.500000 0.371892 0.120674
O O12 0.437409 0.254751 0.105965
O O13 0.250000 0.250000 0.077605
O O14 0.249742 0.415291 0.085091
O O15 0.203951 0.337616 0.000000
O O16 0.557933 0.696448 0.500000
O O17 0.500000 0.640173 0.422560
O O18 0.282406 0.000000 0.500000
#
# Coordination Sequence:
#
# PCOD9512608 Si02
#       7
#    16  32  32  32  32  32  16
#     4  11  21  32  56  88 119 156 197 245 304 358
#     4  11  22  37  61  87 116 155 202 243 292 354
#     4   9  18  35  59  88 120 158 206 246 283 345
#     4  10  20  36  57  84 121 162 200 239 287 357
#     4  10  21  38  61  87 118 154 197 253 308 364
#     4  10  22  36  52  84 123 153 192 248 305 358
#     4   9  20  37  55  85 116 145 193 246 298 361
#
# _framework density 19.132885000000002
#
# number of rings (size 3 to 8) (size 9 to 14) (size 15 to 20)
#    0.000    2.000    1.667    1.750    2.333    4.000 
#    0.000    3.333    0.000    2.000    0.000    0.000 
#    0.000    0.000    0.000    0.000    0.000    0.000 
#
# Total GULP energy -267828.443238 kJ/mol
# GULP energy per Si atom -5579.759234 kJ/mol
# Density = 1.908934 g / cm^3
# Si number density = 19.132885 Si / 1000 Ang^3
#
#
#
# Elastic Constant Matrix: (Units=GPa)
#
#
# Indices 1 2 3 4 5 6 
#
# 1 110.9797 38.9511 54.5958 0.0000 0.0000 0.0000
# 2 38.9511 49.6715 21.9399 0.0000 0.0000 0.0000
# 3 54.5958 21.9399 105.8893 0.0000 0.0000 0.0000
# 4 0.0000 0.0000 0.0000 22.5931 0.0000 0.0000
# 5 0.0000 0.0000 0.0000 0.0000 15.7309 0.0000
# 6 0.0000 0.0000 0.0000 0.0000 0.0000 19.1456
#
#
#
# Elastic Compliance Matrix: (Units=1/GPa)
#
#
# Indices 1 2 3 4 5 6 
#
# 1 0.015174 -0.009294 -0.005898 0.000000 0.000000 0.000000
# 2 -0.009294 0.027853 -0.000979 0.000000 0.000000 0.000000
# 3 -0.005898 -0.000979 0.012688 0.000000 0.000000 0.000000
# 4 0.000000 0.000000 0.000000 0.044261 0.000000 0.000000
# 5 0.000000 0.000000 0.000000 0.000000 0.063569 0.000000
# 6 0.000000 0.000000 0.000000 0.000000 0.000000 0.052231
#
#
# Mechanical properties :
#
#
# Convention : Reuss Voigt Hill
#
# Bulk Modulus (GPa) = 42.78540 55.27933 49.03237
# Shear Modulus (GPa) = 19.53819 21.56419 20.55119
#
# Velocity S-wave (km/s) = 3.19906 3.36084 3.28095
# Velocity P-wave (km/s) = 6.00467 6.63440 6.32738
#
# Compressibility (1/GPa) = 0.02337246
#
# Stress axis : x y z
#
# Youngs Moduli (GPa) = 65.90189 35.90299 78.81685
#
# Poissons Ratio (x) = 0.33368 0.46486
# Poissons Ratio (y) = 0.61249 0.07717
# Poissons Ratio (z) = 0.38869 0.03515
#
# Static dielectric constant tensor:
#      x y z
#    x 1.673920 0.000000 0.000000 
#    y 0.000000 1.671290 0.000000 
#    z 0.000000 0.000000 1.671240 
# 
# From -- ./inp_files/38404.got.cif
#   From: 2010.05.17/outbox.cif.g08.bks.cpg/sg69_20_cif.got.tgz:38404.got - 2010.06.03 19:29:58.
