data_PCOD9512659
_publ_section_title
;
Structure prediction by ZEFSAII (Michael W. Deem and Ramdas Pophale) SiO2 
 PCOD9512659
Probable space group: F M M M
;
_chemical_formula_sum "Si O2"
_cell_formula_units_Z 192
_cell_length_a 14.592043
_cell_length_b 24.295474
_cell_length_c 28.485343
_cell_angle_alpha 90.000000
_cell_angle_beta 90.000000
_cell_angle_gamma 90.000000
_cell_volume 10098.640929
_symmetry_space_group_name_H-M "F M M M"
_symmetry_group_IT_number 69
_symmetry_cell_setting 'orthorhombic'
loop_
_space_group_symop_operation_xyz
x,y,z
-x,-y,z
x,-y,-z
-x,y,-z
-x,-y,-z
x,y,-z
-x,y,z
x,-y,z
x,1/2+y,1/2+z
-x,1/2-y,1/2+z
x,1/2-y,1/2-z
-x,1/2+y,1/2-z
-x,1/2-y,1/2-z
x,1/2+y,1/2-z
-x,1/2+y,1/2+z
x,1/2-y,1/2+z
1/2+x,y,1/2+z
1/2-x,-y,1/2+z
1/2+x,-y,1/2-z
1/2-x,y,1/2-z
1/2-x,-y,1/2-z
1/2+x,y,1/2-z
1/2-x,y,1/2+z
1/2+x,-y,1/2+z
1/2+x,1/2+y,z
1/2-x,1/2-y,z
1/2+x,1/2-y,-z
1/2-x,1/2+y,-z
1/2-x,1/2-y,-z
1/2+x,1/2+y,-z
1/2-x,1/2+y,z
1/2+x,1/2-y,z
loop_
_atom_site_type_symbol
_atom_site_label
_atom_site_fract_x
_atom_site_fract_y
_atom_site_fract_z
Si Si1 0.788774 0.385445 0.051960
Si Si2 0.103659 0.563249 0.415578
Si Si3 0.395285 0.620697 0.176709
Si Si4 0.894289 0.000000 0.679451
Si Si5 0.610094 0.382259 0.287429
Si Si6 0.605430 0.500000 0.567645
Si Si7 0.275032 0.813583 0.141326
O O1 0.682639 0.401637 0.060412
O O2 0.843755 0.443392 0.054250
O O3 0.812424 0.344057 0.094462
O O4 0.802173 0.361780 0.000000
O O5 0.116008 0.500000 0.428991
O O6 0.111509 0.568838 0.358679
O O7 0.000000 0.580433 0.427788
O O8 0.500000 0.640326 0.173462
O O9 0.374665 0.615605 0.231642
O O10 0.322776 0.661170 0.154635
O O11 0.853437 0.058487 0.694453
O O12 0.895794 0.000000 0.623827
O O13 0.000000 0.000000 0.697830
O O14 0.500000 0.379096 0.295787
O O15 0.658906 0.333061 0.315810
O O16 0.500000 0.500000 0.551675
O O17 0.250000 0.750000 0.135072
#
# Coordination Sequence:
#
# PCOD9512659 Si02
#       7
#    32  32  32  16  32  16  32
#     4  11  23  39  59  84 112 146 189 235 293 352
#     4   9  18  33  54  83 118 150 181 221 271 333
#     4   9  20  36  55  83 116 151 187 226 276 331
#     4   9  18  33  56  85 118 150 183 223 276 340
#     4  10  20  36  59  88 119 154 190 228 281 343
#     4  11  21  38  61  88 123 153 182 231 292 351
#     4  11  24  41  58  79 110 149 197 246 284 328
#
# _framework density 19.012460000000001
#
# number of rings (size 3 to 8) (size 9 to 14) (size 15 to 20)
#    0.000    2.000    2.500    0.750    1.167    3.333 
#    0.000    3.333    0.000    0.000    0.000    4.667 
#    0.000    0.000    0.000    0.000    0.000    0.000 
#
# Total GULP energy -267498.687372 kJ/mol
# GULP energy per Si atom -5572.889320 kJ/mol
# Density = 1.896919 g / cm^3
# Si number density = 19.012460 Si / 1000 Ang^3
#
#
#
# Elastic Constant Matrix: (Units=GPa)
#
#
# Indices 1 2 3 4 5 6 
#
# 1 47.3656 17.7579 17.5758 0.0000 0.0000 0.0000
# 2 17.7579 77.3551 10.0417 0.0000 0.0000 0.0000
# 3 17.5758 10.0417 85.4537 0.0000 0.0000 0.0000
# 4 0.0000 0.0000 0.0000 -1.8942 0.0000 0.0000
# 5 0.0000 0.0000 0.0000 0.0000 6.8260 0.0000
# 6 0.0000 0.0000 0.0000 0.0000 0.0000 11.7356
#
#
#
# Elastic Compliance Matrix: (Units=1/GPa)
#
#
# Indices 1 2 3 4 5 6 
#
# 1 0.024680 -0.005084 -0.004479 0.000000 0.000000 0.000000
# 2 -0.005084 0.014175 -0.000620 0.000000 0.000000 0.000000
# 3 -0.004479 -0.000620 0.012696 0.000000 0.000000 0.000000
# 4 0.000000 0.000000 0.000000 -0.527928 0.000000 0.000000
# 5 0.000000 0.000000 0.000000 0.000000 0.146500 0.000000
# 6 0.000000 0.000000 0.000000 0.000000 0.000000 0.085211
#
#
# Mechanical properties :
#
#
# Convention : Reuss Voigt Hill
#
# Bulk Modulus (GPa) = 32.06599 33.43612 32.75106
# Shear Modulus (GPa) = -23.37485 14.32007 -4.52739
#
# Velocity S-wave (km/s) = -3.51015 2.74742 -1.54481
# Velocity P-wave (km/s) = 0.68859 5.26203 3.75254
#
# Compressibility (1/GPa) = 0.03118569
#
# Stress axis : x y z
#
# Youngs Moduli (GPa) = 40.51793 70.54645 78.76330
#
# Poissons Ratio (x) = 0.35868 0.35276
# Poissons Ratio (y) = 0.20601 0.04883
# Poissons Ratio (z) = 0.18147 0.04374
#
# Static dielectric constant tensor:
#      x y z
#    x 1.686560 0.000000 0.000000 
#    y 0.000000 1.665160 0.000000 
#    z 0.000000 0.000000 1.692770 
# 
# From -- ./inp_files/41168.got.cif
#   From: 2010.05.17/outbox.cif.g08.bks.cpg/sg69_21_cif.got.tgz:41168.got - 2010.06.03 19:29:58.
