data_PCOD9512202
_publ_section_title
;
Structure prediction by ZEFSAII (Michael W. Deem and Ramdas Pophale) SiO2 
 PCOD9512202
Probable space group: F M M M
;
_chemical_formula_sum "Si O2"
_cell_formula_units_Z 208
_cell_length_a 24.429660
_cell_length_b 28.379531
_cell_length_c 17.299272
_cell_angle_alpha 90.000000
_cell_angle_beta 90.000000
_cell_angle_gamma 90.000000
_cell_volume 11993.624950
_symmetry_space_group_name_H-M "F M M M"
_symmetry_group_IT_number 69
_symmetry_cell_setting 'orthorhombic'
loop_
_space_group_symop_operation_xyz
x,y,z
-x,-y,z
x,-y,-z
-x,y,-z
-x,-y,-z
x,y,-z
-x,y,z
x,-y,z
x,1/2+y,1/2+z
-x,1/2-y,1/2+z
x,1/2-y,1/2-z
-x,1/2+y,1/2-z
-x,1/2-y,1/2-z
x,1/2+y,1/2-z
-x,1/2+y,1/2+z
x,1/2-y,1/2+z
1/2+x,y,1/2+z
1/2-x,-y,1/2+z
1/2+x,-y,1/2-z
1/2-x,y,1/2-z
1/2-x,-y,1/2-z
1/2+x,y,1/2-z
1/2-x,y,1/2+z
1/2+x,-y,1/2+z
1/2+x,1/2+y,z
1/2-x,1/2-y,z
1/2+x,1/2-y,-z
1/2-x,1/2+y,-z
1/2-x,1/2-y,-z
1/2+x,1/2+y,-z
1/2-x,1/2+y,z
1/2+x,1/2-y,z
loop_
_atom_site_type_symbol
_atom_site_label
_atom_site_fract_x
_atom_site_fract_y
_atom_site_fract_z
Si Si1 0.062675 0.500000 0.094241
Si Si2 0.866273 0.910564 0.590816
Si Si3 0.757656 0.554583 0.841828
Si Si4 0.137831 0.555435 0.407911
Si Si5 0.433726 0.233081 0.412440
Si Si6 0.934918 0.863819 0.836470
Si Si7 0.064805 0.329890 0.160395
O O1 0.095277 0.546423 0.119087
O O2 0.000000 0.500000 0.121358
O O3 0.061237 0.500000 0.000000
O O4 0.857091 0.917311 0.500000
O O5 0.808118 0.913681 0.632278
O O6 0.899040 0.863061 0.606653
O O7 0.771617 0.500000 0.861647
O O8 0.750000 0.557513 0.750000
O O9 0.700529 0.565515 0.883680
O O10 0.130780 0.562090 0.500000
O O11 0.127771 0.500000 0.390344
O O12 0.098333 0.590185 0.361146
O O13 0.416155 0.243890 0.500000
O O14 0.500000 0.231037 0.411936
O O15 0.415689 0.181378 0.386221
O O16 0.419494 0.275570 0.354669
O O17 0.927720 0.848049 0.747627
O O18 0.000000 0.871230 0.849290
O O19 0.000000 0.334502 0.141688
#
# Coordination Sequence:
#
# PCOD9512202 Si02
#       7
#    16  32  32  32  32  32  32
#     4   9  18  30  45  70 104 140 173 210 256 303
#     4  11  20  32  52  75 104 140 180 220 261 315
#     4  10  20  35  54  75 100 136 180 227 270 320
#     4  10  21  36  55  78 105 137 179 229 273 317
#     4   9  17  31  53  78 104 137 179 222 264 317
#     4  10  20  35  54  78 108 143 179 219 273 327
#     4  10  20  33  50  78 112 144 175 215 266 320
#
# _framework density 17.342547
#
# number of rings (size 3 to 8) (size 9 to 14) (size 15 to 20)
#    0.000    2.077    0.769    3.231    0.000    5.231 
#    1.385    0.769    0.000    0.923    0.000    6.462 
#    0.000    0.000    0.000    0.000    0.000    0.000 
#
# Total GULP energy -290144.220078 kJ/mol
# GULP energy per Si atom -5579.696540 kJ/mol
# Density = 1.730307 g / cm^3
# Si number density = 17.342547 Si / 1000 Ang^3
#
#
#
# Elastic Constant Matrix: (Units=GPa)
#
#
# Indices 1 2 3 4 5 6 
#
# 1 74.7595 47.7237 32.2775 0.0000 0.0000 0.0000
# 2 47.7237 91.1232 24.9961 0.0000 0.0000 0.0000
# 3 32.2775 24.9961 49.6450 0.0000 0.0000 0.0000
# 4 0.0000 0.0000 0.0000 28.5786 0.0000 0.0000
# 5 0.0000 0.0000 0.0000 0.0000 23.9701 0.0000
# 6 0.0000 0.0000 0.0000 0.0000 0.0000 1.8882
#
#
#
# Elastic Compliance Matrix: (Units=1/GPa)
#
#
# Indices 1 2 3 4 5 6 
#
# 1 0.024294 -0.009735 -0.010894 0.000000 0.000000 0.000000
# 2 -0.009735 0.016634 -0.002046 0.000000 0.000000 0.000000
# 3 -0.010894 -0.002046 0.028256 0.000000 0.000000 0.000000
# 4 0.000000 0.000000 0.000000 0.034991 0.000000 0.000000
# 5 0.000000 0.000000 0.000000 0.000000 0.041719 0.000000
# 6 0.000000 0.000000 0.000000 0.000000 0.000000 0.529609
#
#
# Mechanical properties :
#
#
# Convention : Reuss Voigt Hill
#
# Bulk Modulus (GPa) = 41.95540 47.28025 44.61782
# Shear Modulus (GPa) = 6.86062 18.25607 12.55834
#
# Velocity S-wave (km/s) = 1.99111 3.24802 2.69389
# Velocity P-wave (km/s) = 5.43422 6.43334 5.95477
#
# Compressibility (1/GPa) = 0.02383483
#
# Stress axis : x y z
#
# Youngs Moduli (GPa) = 41.16208 60.11809 35.39127
#
# Poissons Ratio (x) = 0.58527 0.38554
# Poissons Ratio (y) = 0.40073 0.07239
# Poissons Ratio (z) = 0.44840 0.12297
#
# Static dielectric constant tensor:
#      x y z
#    x 1.558470 0.000000 0.000000 
#    y 0.000000 1.582910 0.000000 
#    z 0.000000 0.000000 1.604440 
# 
# From -- ./inp_files/26124.got.cif
#   From: 2010.05.17/outbox.cif.g08.bks.cpg/sg69_14_cif.got.tgz:26124.got - 2010.06.03 19:29:58.
