data_PCOD9512862
_publ_section_title
;
Structure prediction by ZEFSAII (Michael W. Deem and Ramdas Pophale) SiO2 
 PCOD9512862
Probable space group: F M M M
;
_chemical_formula_sum "Si O2"
_cell_formula_units_Z 160
_cell_length_a 30.433330
_cell_length_b 14.119806
_cell_length_c 19.863480
_cell_angle_alpha 90.000000
_cell_angle_beta 90.000000
_cell_angle_gamma 90.000000
_cell_volume 8535.589931
_symmetry_space_group_name_H-M "F M M M"
_symmetry_group_IT_number 69
_symmetry_cell_setting 'orthorhombic'
loop_
_space_group_symop_operation_xyz
x,y,z
-x,-y,z
x,-y,-z
-x,y,-z
-x,-y,-z
x,y,-z
-x,y,z
x,-y,z
x,1/2+y,1/2+z
-x,1/2-y,1/2+z
x,1/2-y,1/2-z
-x,1/2+y,1/2-z
-x,1/2-y,1/2-z
x,1/2+y,1/2-z
-x,1/2+y,1/2+z
x,1/2-y,1/2+z
1/2+x,y,1/2+z
1/2-x,-y,1/2+z
1/2+x,-y,1/2-z
1/2-x,y,1/2-z
1/2-x,-y,1/2-z
1/2+x,y,1/2-z
1/2-x,y,1/2+z
1/2+x,-y,1/2+z
1/2+x,1/2+y,z
1/2-x,1/2-y,z
1/2+x,1/2-y,-z
1/2-x,1/2+y,-z
1/2-x,1/2-y,-z
1/2+x,1/2+y,-z
1/2-x,1/2+y,z
1/2+x,1/2-y,z
loop_
_atom_site_type_symbol
_atom_site_label
_atom_site_fract_x
_atom_site_fract_y
_atom_site_fract_z
Si Si1 0.635714 0.703357 0.074552
Si Si2 0.801563 0.500000 0.736919
Si Si3 0.855878 0.829408 0.693573
Si Si4 0.452578 0.887101 0.210374
Si Si5 0.450051 0.112626 0.629638
Si Si6 0.183295 0.500000 0.575701
O O1 0.658824 0.774868 0.126409
O O2 0.585766 0.678359 0.095339
O O3 0.657492 0.599430 0.074253
O O4 0.637295 0.743619 0.000000
O O5 0.750000 0.500000 0.750000
O O6 0.826365 0.588528 0.773084
O O7 0.802567 0.500000 0.655060
O O8 0.858681 0.750000 0.750000
O O9 0.906045 0.860726 0.679231
O O10 0.500000 0.847492 0.186305
O O11 0.449060 0.866813 0.290344
O O12 0.455357 0.000000 0.204755
O O13 0.500000 0.125562 0.605688
O O14 0.439341 0.000000 0.621441
O O15 0.206912 0.500000 0.500000
#
# Coordination Sequence:
#
# PCOD9512862 Si02
#       6
#    32  16  32  32  32  16
#     4  11  22  36  57  88 125 167 205 252 315 372
#     4  12  26  46  69  97 122 159 206 253 314 369
#     4  12  22  38  65  91 124 156 207 257 303 369
#     4   9  17  31  55  86 121 159 203 252 303 358
#     4   9  16  27  47  81 123 164 207 258 309 359
#     4  10  20  40  65  94 129 157 191 251 323 371
#
# _framework density 18.745042000000002
#
# number of rings (size 3 to 8) (size 9 to 14) (size 15 to 20)
#    0.000    1.600    6.000    1.200    0.000    2.000 
#    0.000    2.500    0.000    2.400    0.000    1.400 
#    0.000    0.000    0.000    0.000    0.000    0.000 
#
# Total GULP energy -222681.437078 kJ/mol
# GULP energy per Si atom -5567.035927 kJ/mol
# Density = 1.870238 g / cm^3
# Si number density = 18.745042 Si / 1000 Ang^3
#
#
#
# Elastic Constant Matrix: (Units=GPa)
#
#
# Indices 1 2 3 4 5 6 
#
# 1 79.5138 34.6891 24.5464 0.0000 0.0000 0.0000
# 2 34.6891 76.3739 30.4432 0.0000 0.0000 0.0000
# 3 24.5464 30.4432 105.2941 0.0000 0.0000 0.0000
# 4 0.0000 0.0000 0.0000 23.1138 0.0000 0.0000
# 5 0.0000 0.0000 0.0000 0.0000 122.7283 0.0000
# 6 0.0000 0.0000 0.0000 0.0000 0.0000 -3.4491
#
#
#
# Elastic Compliance Matrix: (Units=1/GPa)
#
#
# Indices 1 2 3 4 5 6 
#
# 1 0.015994 -0.006531 -0.001840 0.000000 0.000000 0.000000
# 2 -0.006531 0.017466 -0.003527 0.000000 0.000000 0.000000
# 3 -0.001840 -0.003527 0.010946 0.000000 0.000000 0.000000
# 4 0.000000 0.000000 0.000000 0.043264 0.000000 0.000000
# 5 0.000000 0.000000 0.000000 0.000000 0.008148 0.000000
# 6 0.000000 0.000000 0.000000 0.000000 0.000000 -0.289932
#
#
# Mechanical properties :
#
#
# Convention : Reuss Voigt Hill
#
# Bulk Modulus (GPa) = 48.52310 48.94880 48.73595
# Shear Modulus (GPa) = -30.59082 39.91215 4.66067
#
# Velocity S-wave (km/s) = -4.04411 4.61934 1.57853
# Velocity P-wave (km/s) = 2.03361 7.39058 5.42016
#
# Compressibility (1/GPa) = 0.02060874
#
# Stress axis : x y z
#
# Youngs Moduli (GPa) = 62.52461 57.25474 91.35715
#
# Poissons Ratio (x) = 0.37392 0.16812
# Poissons Ratio (y) = 0.40834 0.32225
# Poissons Ratio (z) = 0.11506 0.20196
#
# Static dielectric constant tensor:
#      x y z
#    x 1.676650 0.000000 0.000000 
#    y 0.000000 1.706480 0.000000 
#    z 0.000000 0.000000 1.697320 
# 
# From -- ./inp_files/27501.got.cif
#   From: 2010.05.17/outbox.cif.g08.bks.cpg/sg69_14_cif.got.tgz:27501.got - 2010.06.03 19:29:58.
