data_PCOD9512739
_publ_section_title
;
Structure prediction by ZEFSAII (Michael W. Deem and Ramdas Pophale) SiO2 
 PCOD9512739
Probable space group: F M M M
;
_chemical_formula_sum "Si O2"
_cell_formula_units_Z 104
_cell_length_a 16.015670
_cell_length_b 17.809313
_cell_length_c 20.212056
_cell_angle_alpha 90.000000
_cell_angle_beta 90.000000
_cell_angle_gamma 90.000000
_cell_volume 5765.045924
_symmetry_space_group_name_H-M "F M M M"
_symmetry_group_IT_number 69
_symmetry_cell_setting 'orthorhombic'
loop_
_space_group_symop_operation_xyz
x,y,z
-x,-y,z
x,-y,-z
-x,y,-z
-x,-y,-z
x,y,-z
-x,y,z
x,-y,z
x,1/2+y,1/2+z
-x,1/2-y,1/2+z
x,1/2-y,1/2-z
-x,1/2+y,1/2-z
-x,1/2-y,1/2-z
x,1/2+y,1/2-z
-x,1/2+y,1/2+z
x,1/2-y,1/2+z
1/2+x,y,1/2+z
1/2-x,-y,1/2+z
1/2+x,-y,1/2-z
1/2-x,y,1/2-z
1/2-x,-y,1/2-z
1/2+x,y,1/2-z
1/2-x,y,1/2+z
1/2+x,-y,1/2+z
1/2+x,1/2+y,z
1/2-x,1/2-y,z
1/2+x,1/2-y,-z
1/2-x,1/2+y,-z
1/2-x,1/2-y,-z
1/2+x,1/2+y,-z
1/2-x,1/2+y,z
1/2+x,1/2-y,z
loop_
_atom_site_type_symbol
_atom_site_label
_atom_site_fract_x
_atom_site_fract_y
_atom_site_fract_z
Si Si1 0.500000 0.909842 0.420419
Si Si2 0.847254 0.314249 0.630850
Si Si3 0.750000 0.750000 0.250000
Si Si4 0.597806 0.000000 0.919870
Si Si5 0.166686 0.342870 0.077181
O O1 0.500000 0.892890 0.500000
O O2 0.580405 0.872435 0.385371
O O3 0.500000 0.000000 0.413668
O O4 0.808225 0.302240 0.703780
O O5 0.873976 0.229803 0.610722
O O6 0.766048 0.334954 0.587041
O O7 0.637936 0.077159 0.895105
O O8 0.500000 0.000000 0.906179
O O9 0.608983 0.000000 0.000000
O O10 0.145903 0.339838 0.000000
#
# Coordination Sequence:
#
# PCOD9512739 Si02
#       5
#    16  32   8  16  32
#     4  11  24  37  58  93 125 148 184 236 294 351
#     4  10  20  37  60  80 111 154 192 238 281 343
#     4   8  20  42  64  80 104 154 210 242 278 326
#     4   9  18  28  46  78 115 145 183 238 289 340
#     4   9  17  31  53  79 110 149 190 236 295 345
#
# _framework density 18.039752
#
# number of rings (size 3 to 8) (size 9 to 14) (size 15 to 20)
#    0.000    2.769    0.000    3.692    4.308    0.615 
#    0.000    0.769    3.385    0.000    0.000    0.000 
#    0.000    0.000    0.000    0.000    0.000    0.000 
#
# Total GULP energy -144822.250781 kJ/mol
# GULP energy per Si atom -5570.086568 kJ/mol
# Density = 1.799869 g / cm^3
# Si number density = 18.039752 Si / 1000 Ang^3
#
#
#
# Elastic Constant Matrix: (Units=GPa)
#
#
# Indices 1 2 3 4 5 6 
#
# 1 65.1085 64.9750 19.2933 0.0000 0.0000 0.0000
# 2 64.9750 167.7616 38.7915 0.0000 0.0000 0.0000
# 3 19.2933 38.7915 82.4802 0.0000 0.0000 0.0000
# 4 0.0000 0.0000 0.0000 -275.5245 0.0000 0.0000
# 5 0.0000 0.0000 0.0000 0.0000 34.3854 0.0000
# 6 0.0000 0.0000 0.0000 0.0000 0.0000 29.4193
#
#
#
# Elastic Compliance Matrix: (Units=1/GPa)
#
#
# Indices 1 2 3 4 5 6 
#
# 1 0.025192 -0.009419 -0.001463 0.000000 0.000000 0.000000
# 2 -0.009419 0.010210 -0.002599 0.000000 0.000000 0.000000
# 3 -0.001463 -0.002599 0.013688 0.000000 0.000000 0.000000
# 4 0.000000 0.000000 0.000000 -0.003629 0.000000 0.000000
# 5 0.000000 0.000000 0.000000 0.000000 0.029082 0.000000
# 6 0.000000 0.000000 0.000000 0.000000 0.000000 0.033991
#
#
# Mechanical properties :
#
#
# Convention : Reuss Voigt Hill
#
# Bulk Modulus (GPa) = 45.18857 62.38553 53.78705
# Shear Modulus (GPa) = 34.99663 -29.52461 2.73601
#
# Velocity S-wave (km/s) = 4.40929 -4.04993 1.23286
# Velocity P-wave (km/s) = 7.14327 3.57604 5.64864
#
# Compressibility (1/GPa) = 0.02212949
#
# Stress axis : x y z
#
# Youngs Moduli (GPa) = 39.69537 97.94708 73.05411
#
# Poissons Ratio (x) = 0.92253 0.10688
# Poissons Ratio (y) = 0.37388 0.18983
# Poissons Ratio (z) = 0.05808 0.25452
#
# Static dielectric constant tensor:
#      x y z
#    x 1.613520 0.000000 0.000000 
#    y 0.000000 1.635120 0.000000 
#    z 0.000000 0.000000 1.637080 
# 
# From -- ./inp_files/29511.got.cif
#   From: 2010.05.17/outbox.cif.g08.bks.cpg/sg69_15_cif.got.tgz:29511.got - 2010.06.03 19:29:58.
