data_PCOD9512339
_publ_section_title
;
Structure prediction by ZEFSAII (Michael W. Deem and Ramdas Pophale) SiO2 
 PCOD9512339
Probable space group: F M M M
;
_chemical_formula_sum "Si O2"
_cell_formula_units_Z 176
_cell_length_a 28.277913
_cell_length_b 19.072620
_cell_length_c 17.494851
_cell_angle_alpha 90.000000
_cell_angle_beta 90.000000
_cell_angle_gamma 90.000000
_cell_volume 9435.566028
_symmetry_space_group_name_H-M "F M M M"
_symmetry_group_IT_number 69
_symmetry_cell_setting 'orthorhombic'
loop_
_space_group_symop_operation_xyz
x,y,z
-x,-y,z
x,-y,-z
-x,y,-z
-x,-y,-z
x,y,-z
-x,y,z
x,-y,z
x,1/2+y,1/2+z
-x,1/2-y,1/2+z
x,1/2-y,1/2-z
-x,1/2+y,1/2-z
-x,1/2-y,1/2-z
x,1/2+y,1/2-z
-x,1/2+y,1/2+z
x,1/2-y,1/2+z
1/2+x,y,1/2+z
1/2-x,-y,1/2+z
1/2+x,-y,1/2-z
1/2-x,y,1/2-z
1/2-x,-y,1/2-z
1/2+x,y,1/2-z
1/2-x,y,1/2+z
1/2+x,-y,1/2+z
1/2+x,1/2+y,z
1/2-x,1/2-y,z
1/2+x,1/2-y,-z
1/2-x,1/2+y,-z
1/2-x,1/2-y,-z
1/2+x,1/2+y,-z
1/2-x,1/2+y,z
1/2+x,1/2-y,z
loop_
_atom_site_type_symbol
_atom_site_label
_atom_site_fract_x
_atom_site_fract_y
_atom_site_fract_z
Si Si1 0.445424 0.129330 0.700884
Si Si2 0.556405 0.500000 0.911537
Si Si3 0.777975 0.921714 0.329363
Si Si4 0.182128 0.919692 0.909326
Si Si5 0.636110 0.316922 0.306371
Si Si6 0.108962 0.295689 0.589184
O O1 0.500000 0.122877 0.724592
O O2 0.408630 0.141930 0.769548
O O3 0.436576 0.193738 0.642994
O O4 0.433107 0.065664 0.642867
O O5 0.500000 0.500000 0.921039
O O6 0.575680 0.500000 0.000000
O O7 0.750000 0.925390 0.250000
O O8 0.736214 0.902678 0.388119
O O9 0.819921 0.867934 0.316352
O O10 0.795704 0.000000 0.348458
O O11 0.147845 0.855333 0.886579
O O12 0.171940 0.000000 0.879344
O O13 0.177738 0.923715 0.000000
O O14 0.645313 0.250000 0.250000
O O15 0.627156 0.280501 0.387903
O O16 0.099150 0.304639 0.500000
#
# Coordination Sequence:
#
# PCOD9512339 Si02
#       6
#    32  16  32  32  32  32
#     4  10  21  36  55  79 112 147 180 223 277 336
#     4   9  18  32  54  86 112 133 173 225 277 332
#     4  10  20  34  54  76 101 140 186 228 269 322
#     4   9  19  35  54  79 110 143 180 226 287 341
#     4  10  22  36  51  78 110 147 185 226 274 334
#     4  10  21  35  54  81 112 147 184 228 278 332
#
# _framework density 18.652829000000001
#
# number of rings (size 3 to 8) (size 9 to 14) (size 15 to 20)
#    0.000    2.273    0.000    2.727    2.545    7.636 
#    0.000    1.818    0.000    0.000    0.000    0.000 
#    0.000    2.182    0.000    0.000    0.000    0.000 
#
# Total GULP energy -245046.222636 kJ/mol
# GULP energy per Si atom -5569.232333 kJ/mol
# Density = 1.861037 g / cm^3
# Si number density = 18.652829 Si / 1000 Ang^3
#
#
#
# Elastic Constant Matrix: (Units=GPa)
#
#
# Indices 1 2 3 4 5 6 
#
# 1 118.4486 56.9216 29.1740 0.0000 0.0000 0.0000
# 2 56.9216 74.6190 18.5323 0.0000 0.0000 0.0000
# 3 29.1740 18.5323 43.2670 0.0000 0.0000 0.0000
# 4 0.0000 0.0000 0.0000 -16.7065 0.0000 0.0000
# 5 0.0000 0.0000 0.0000 0.0000 23.8743 0.0000
# 6 0.0000 0.0000 0.0000 0.0000 0.0000 -429.1947
#
#
#
# Elastic Compliance Matrix: (Units=1/GPa)
#
#
# Indices 1 2 3 4 5 6 
#
# 1 0.014455 -0.009631 -0.005622 0.000000 0.000000 0.000000
# 2 -0.009631 0.021413 -0.002678 0.000000 0.000000 0.000000
# 3 -0.005622 -0.002678 0.028050 0.000000 0.000000 0.000000
# 4 0.000000 0.000000 0.000000 -0.059857 0.000000 0.000000
# 5 0.000000 0.000000 0.000000 0.000000 0.041886 0.000000
# 6 0.000000 0.000000 0.000000 0.000000 0.000000 -0.002330
#
#
# Mechanical properties :
#
#
# Convention : Reuss Voigt Hill
#
# Bulk Modulus (GPa) = 35.64122 49.51002 42.57562
# Shear Modulus (GPa) = 56.28668 -75.62494 -9.66913
#
# Velocity S-wave (km/s) = 5.49922 -6.37428 -2.27925
# Velocity P-wave (km/s) = 7.71175 5.25116 3.99352
#
# Compressibility (1/GPa) = 0.02805740
#
# Stress axis : x y z
#
# Youngs Moduli (GPa) = 69.17906 46.70045 35.65066
#
# Poissons Ratio (x) = 0.44976 0.20042
# Poissons Ratio (y) = 0.66624 0.09547
# Poissons Ratio (z) = 0.38891 0.12506
#
# Static dielectric constant tensor:
#      x y z
#    x 1.672450 0.000000 0.000000 
#    y 0.000000 1.803210 0.000000 
#    z 0.000000 0.000000 1.676590 
# 
# From -- ./inp_files/27658.got.cif
#   From: 2010.05.17/outbox.cif.g08.bks.cpg/sg69_14_cif.got.tgz:27658.got - 2010.06.03 19:29:58.
