data_PCOD9512932
_publ_section_title
;
Structure prediction by ZEFSAII (Michael W. Deem and Ramdas Pophale) SiO2 
 PCOD9512932
Probable space group: F M M M
;
_chemical_formula_sum "Si O2"
_cell_formula_units_Z 144
_cell_length_a 27.689852
_cell_length_b 8.916827
_cell_length_c 32.722912
_cell_angle_alpha 90.000000
_cell_angle_beta 90.000000
_cell_angle_gamma 90.000000
_cell_volume 8079.470874
_symmetry_space_group_name_H-M "F M M M"
_symmetry_group_IT_number 69
_symmetry_cell_setting 'orthorhombic'
loop_
_space_group_symop_operation_xyz
x,y,z
-x,-y,z
x,-y,-z
-x,y,-z
-x,-y,-z
x,y,-z
-x,y,z
x,-y,z
x,1/2+y,1/2+z
-x,1/2-y,1/2+z
x,1/2-y,1/2-z
-x,1/2+y,1/2-z
-x,1/2-y,1/2-z
x,1/2+y,1/2-z
-x,1/2+y,1/2+z
x,1/2-y,1/2+z
1/2+x,y,1/2+z
1/2-x,-y,1/2+z
1/2+x,-y,1/2-z
1/2-x,y,1/2-z
1/2-x,-y,1/2-z
1/2+x,y,1/2-z
1/2-x,y,1/2+z
1/2+x,-y,1/2+z
1/2+x,1/2+y,z
1/2-x,1/2-y,z
1/2+x,1/2-y,-z
1/2-x,1/2+y,-z
1/2-x,1/2-y,-z
1/2+x,1/2+y,-z
1/2-x,1/2+y,z
1/2+x,1/2-y,z
loop_
_atom_site_type_symbol
_atom_site_label
_atom_site_fract_x
_atom_site_fract_y
_atom_site_fract_z
Si Si1 0.555465 0.182942 0.500000
Si Si2 0.851435 0.678835 0.792256
Si Si3 0.944791 0.179881 0.830412
Si Si4 0.198364 0.679279 0.877274
Si Si5 0.894469 0.819934 0.084066
O O1 0.500000 0.233165 0.500000
O O2 0.582361 0.229180 0.541391
O O3 0.554838 0.000000 0.500000
O O4 0.852658 0.500000 0.788933
O O5 0.834462 0.750000 0.750000
O O6 0.904930 0.739734 0.802795
O O7 0.818260 0.720243 0.831049
O O8 0.929846 0.211032 0.877525
O O9 0.000000 0.225271 0.822657
O O10 0.941122 0.000000 0.824523
O O11 0.200459 0.500000 0.879995
O O12 0.250000 0.750000 0.886399
O O13 0.156167 0.742060 0.906116
O O14 0.887566 0.000000 0.082902
#
# Coordination Sequence:
#
# PCOD9512932 Si02
#       5
#    16  32  32  32  32
#     4   9  16  28  52  85 114 139 170 207 246 291
#     4  10  21  35  51  73 100 129 164 208 254 302
#     4   9  17  30  49  72 100 136 173 207 247 296
#     4  10  21  37  56  76  99 130 168 209 255 304
#     4   9  17  31  52  78 107 136 169 209 250 295
#
# _framework density 17.822949000000001
#
# number of rings (size 3 to 8) (size 9 to 14) (size 15 to 20)
#    0.000    2.556    0.000    2.000    0.000    6.667 
#    0.000    3.333    0.000    2.667    0.000    0.000 
#    0.000    0.000    0.000    0.000    0.000    0.000 
#
# Total GULP energy -200898.767478 kJ/mol
# GULP energy per Si atom -5580.521319 kJ/mol
# Density = 1.778238 g / cm^3
# Si number density = 17.822949 Si / 1000 Ang^3
#
#
#
# Elastic Constant Matrix: (Units=GPa)
#
#
# Indices 1 2 3 4 5 6 
#
# 1 112.7611 26.6872 33.7783 0.0000 0.0000 -0.0003
# 2 26.6872 19.5412 24.2927 0.0000 0.0000 -0.0001
# 3 33.7783 24.2927 101.3483 0.0000 0.0000 -0.0001
# 4 0.0000 0.0000 0.0000 18.0249 0.0000 0.0000
# 5 0.0000 0.0000 0.0000 0.0000 6.7366 0.0000
# 6 -0.0003 -0.0001 -0.0001 0.0000 0.0000 20.7688
#
#
#
# Elastic Compliance Matrix: (Units=1/GPa)
#
#
# Indices 1 2 3 4 5 6 
#
# 1 0.013105 -0.017759 -0.000111 0.000000 0.000000 0.000000
# 2 -0.017759 0.096961 -0.017322 0.000000 0.000000 0.000000
# 3 -0.000111 -0.017322 0.014056 0.000000 0.000000 0.000000
# 4 0.000000 0.000000 0.000000 0.055479 0.000000 0.000000
# 5 0.000000 0.000000 0.000000 0.000000 0.148443 0.000000
# 6 0.000000 0.000000 0.000000 0.000000 0.000000 0.048149
#
#
# Mechanical properties :
#
#
# Convention : Reuss Voigt Hill
#
# Bulk Modulus (GPa) = 18.60888 44.79633 31.70261
# Shear Modulus (GPa) = 10.76449 19.03221 14.89835
#
# Velocity S-wave (km/s) = 2.46024 3.27134 2.89434
# Velocity P-wave (km/s) = 4.30512 6.28152 5.38477
#
# Compressibility (1/GPa) = 0.05373777
#
# Stress axis : x y z
#
# Youngs Moduli (GPa) = 76.30957 10.31337 71.14396
#
# Poissons Ratio (x) = 0.18315 0.00789
# Poissons Ratio (y) = 1.35517 1.23238
# Poissons Ratio (z) = 0.00846 0.17865
#
# Static dielectric constant tensor:
#      x y z
#    x 1.579280 0.000000 0.000000 
#    y 0.000000 1.592380 0.000000 
#    z 0.000000 0.000000 1.606340 
# 
# From -- ./inp_files/5566.got.cif
#   From: 2010.05.17/outbox.cif.g08.bks.cpg/sg69_3_cif.got.tgz:5566.got - 2010.06.03 19:29:58.
