data_PCOD9512569
_publ_section_title
;
Structure prediction by ZEFSAII (Michael W. Deem and Ramdas Pophale) SiO2 
 PCOD9512569
Probable space group: F M M M
;
_chemical_formula_sum "Si O2"
_cell_formula_units_Z 112
_cell_length_a 20.569111
_cell_length_b 19.327174
_cell_length_c 14.035643
_cell_angle_alpha 90.000000
_cell_angle_beta 90.000000
_cell_angle_gamma 90.000000
_cell_volume 5579.768640
_symmetry_space_group_name_H-M "F M M M"
_symmetry_group_IT_number 69
_symmetry_cell_setting 'orthorhombic'
loop_
_space_group_symop_operation_xyz
x,y,z
-x,-y,z
x,-y,-z
-x,y,-z
-x,-y,-z
x,y,-z
-x,y,z
x,-y,z
x,1/2+y,1/2+z
-x,1/2-y,1/2+z
x,1/2-y,1/2-z
-x,1/2+y,1/2-z
-x,1/2-y,1/2-z
x,1/2+y,1/2-z
-x,1/2+y,1/2+z
x,1/2-y,1/2+z
1/2+x,y,1/2+z
1/2-x,-y,1/2+z
1/2+x,-y,1/2-z
1/2-x,y,1/2-z
1/2-x,-y,1/2-z
1/2+x,y,1/2-z
1/2-x,y,1/2+z
1/2+x,-y,1/2+z
1/2+x,1/2+y,z
1/2-x,1/2-y,z
1/2+x,1/2-y,-z
1/2-x,1/2+y,-z
1/2-x,1/2-y,-z
1/2+x,1/2+y,-z
1/2-x,1/2+y,z
1/2+x,1/2-y,z
loop_
_atom_site_type_symbol
_atom_site_label
_atom_site_fract_x
_atom_site_fract_y
_atom_site_fract_z
Si Si1 0.859113 0.250000 0.250000
Si Si2 0.576944 0.000000 0.801362
Si Si3 0.652559 0.000000 0.389916
Si Si4 0.625352 0.357867 0.609294
Si Si5 0.218238 0.851319 0.891476
O O1 0.899758 0.298657 0.179703
O O2 0.815889 0.199451 0.183127
O O3 0.605667 0.067637 0.851949
O O4 0.500000 0.000000 0.810527
O O5 0.598194 0.000000 0.690958
O O6 0.694497 0.069887 0.376541
O O7 0.629480 0.000000 0.500000
O O8 0.605452 0.349494 0.500000
O O9 0.703933 0.350703 0.614583
O O10 0.200486 0.830473 0.000000
#
# Coordination Sequence:
#
# PCOD9512569 Si02
#       5
#    16  16  16  32  32
#     4  12  21  34  61  96 133 160 180 233 308 379
#     4  12  26  44  65  84 111 163 216 252 293 338
#     4  10  21  39  64  89 118 151 199 255 301 353
#     4  11  23  38  60  92 127 158 197 245 295 357
#     4  10  20  35  60  95 125 155 190 237 308 371
#
# _framework density 20.072516
#
# number of rings (size 3 to 8) (size 9 to 14) (size 15 to 20)
#    0.000    1.143    2.857    4.714    0.000    7.143 
#    0.000    0.714    0.000    0.000    0.000    0.000 
#    0.000    0.000    0.000    0.000    0.000    0.000 
#
# Total GULP energy -156613.892210 kJ/mol
# GULP energy per Si atom -5593.353293 kJ/mol
# Density = 2.002683 g / cm^3
# Si number density = 20.072516 Si / 1000 Ang^3
#
#
#
# Elastic Constant Matrix: (Units=GPa)
#
#
# Indices 1 2 3 4 5 6 
#
# 1 8.9647 10.4993 19.6845 0.0000 0.0000 0.0000
# 2 10.4993 162.5217 93.4742 0.0000 0.0000 0.0000
# 3 19.6845 93.4742 171.5454 0.0000 0.0000 0.0000
# 4 0.0000 0.0000 0.0000 43.1161 0.0000 0.0000
# 5 0.0000 0.0000 0.0000 0.0000 10.8890 0.0000
# 6 0.0000 0.0000 0.0000 0.0000 0.0000 -15.5533
#
#
#
# Elastic Compliance Matrix: (Units=1/GPa)
#
#
# Indices 1 2 3 4 5 6 
#
# 1 0.149132 0.000303 -0.017278 0.000000 0.000000 0.000000
# 2 0.000303 0.008962 -0.004918 0.000000 0.000000 0.000000
# 3 -0.017278 -0.004918 0.010492 0.000000 0.000000 0.000000
# 4 0.000000 0.000000 0.000000 0.023193 0.000000 0.000000
# 5 0.000000 0.000000 0.000000 0.000000 0.091836 0.000000
# 6 0.000000 0.000000 0.000000 0.000000 0.000000 -0.064295
#
#
# Mechanical properties :
#
#
# Convention : Reuss Voigt Hill
#
# Bulk Modulus (GPa) = 8.01279 65.59421 36.80350
# Shear Modulus (GPa) = 16.40921 22.31527 19.36224
#
# Velocity S-wave (km/s) = 2.86229 3.33788 3.10919
# Velocity P-wave (km/s) = 3.86319 6.89963 5.59147
#
# Compressibility (1/GPa) = 0.12480044
#
# Stress axis : x y z
#
# Youngs Moduli (GPa) = 6.70545 111.58050 95.31220
#
# Poissons Ratio (x) = -0.03380 1.64678
# Poissons Ratio (y) = -0.00203 0.46876
# Poissons Ratio (z) = 0.11585 0.54877
#
# Static dielectric constant tensor:
#      x y z
#    x 1.652460 0.000000 0.000000 
#    y 0.000000 1.713430 0.000000 
#    z 0.000000 0.000000 1.752260 
# 
# From -- ./inp_files/17419.got.cif
#   From: 2010.05.17/outbox.cif.g08.bks.cpg/sg69_9_cif.got.tgz:17419.got - 2010.06.03 19:29:58.
