data_PCOD9512255
_publ_section_title
;
Structure prediction by ZEFSAII (Michael W. Deem and Ramdas Pophale) SiO2 
 PCOD9512255
Probable space group: F M M M
;
_chemical_formula_sum "Si O2"
_cell_formula_units_Z 168
_cell_length_a 22.285862
_cell_length_b 17.145506
_cell_length_c 24.194953
_cell_angle_alpha 90.000000
_cell_angle_beta 90.000000
_cell_angle_gamma 90.000000
_cell_volume 9244.949141
_symmetry_space_group_name_H-M "F M M M"
_symmetry_group_IT_number 69
_symmetry_cell_setting 'orthorhombic'
loop_
_space_group_symop_operation_xyz
x,y,z
-x,-y,z
x,-y,-z
-x,y,-z
-x,-y,-z
x,y,-z
-x,y,z
x,-y,z
x,1/2+y,1/2+z
-x,1/2-y,1/2+z
x,1/2-y,1/2-z
-x,1/2+y,1/2-z
-x,1/2-y,1/2-z
x,1/2+y,1/2-z
-x,1/2+y,1/2+z
x,1/2-y,1/2+z
1/2+x,y,1/2+z
1/2-x,-y,1/2+z
1/2+x,-y,1/2-z
1/2-x,y,1/2-z
1/2-x,-y,1/2-z
1/2+x,y,1/2-z
1/2-x,y,1/2+z
1/2+x,-y,1/2+z
1/2+x,1/2+y,z
1/2-x,1/2-y,z
1/2+x,1/2-y,-z
1/2-x,1/2+y,-z
1/2-x,1/2-y,-z
1/2+x,1/2+y,-z
1/2-x,1/2+y,z
1/2+x,1/2-y,z
loop_
_atom_site_type_symbol
_atom_site_label
_atom_site_fract_x
_atom_site_fract_y
_atom_site_fract_z
Si Si1 0.931027 0.312712 0.434716
Si Si2 0.409749 0.870032 0.935751
Si Si3 0.299675 0.592981 0.628621
Si Si4 0.822417 0.660859 0.756006
Si Si5 0.000000 0.500000 0.896271
Si Si6 0.838720 0.407536 0.640014
O O1 0.918535 0.325353 0.500000
O O2 0.925233 0.219913 0.424670
O O3 0.885137 0.359905 0.396931
O O4 0.000000 0.335831 0.424083
O O5 0.339734 0.882755 0.923041
O O6 0.447902 0.931381 0.900803
O O7 0.423788 0.886660 0.000000
O O8 0.298847 0.500000 0.634583
O O9 0.331869 0.628516 0.682778
O O10 0.230013 0.617856 0.626411
O O11 0.842632 0.750000 0.750000
O O12 0.750000 0.659147 0.750000
O O13 0.847471 0.611093 0.705077
O O14 0.844010 0.500000 0.630519
#
# Coordination Sequence:
#
# PCOD9512255 Si02
#       6
#    32  32  32  32   8  32
#     4  10  22  39  58  80 108 148 194 235 277 328
#     4  11  21  35  58  84 113 145 181 225 280 341
#     4  10  20  33  55  86 114 143 181 227 277 332
#     4   9  17  32  55  80 108 144 182 223 277 335
#     4  12  21  36  60  84 110 150 182 214 275 350
#     4  10  21  37  57  81 113 149 188 232 274 321
#
# _framework density 18.172084000000002
#
# number of rings (size 3 to 8) (size 9 to 14) (size 15 to 20)
#    0.000    1.905    1.905    2.571    0.000    6.095 
#    0.000    4.762    2.095    1.714    0.000    0.000 
#    0.000    0.000    0.000    0.000    0.000    0.000 
#
# Total GULP energy -233805.867121 kJ/mol
# GULP energy per Si atom -5566.806360 kJ/mol
# Density = 1.813072 g / cm^3
# Si number density = 18.172084 Si / 1000 Ang^3
#
#
#
# Elastic Constant Matrix: (Units=GPa)
#
#
# Indices 1 2 3 4 5 6 
#
# 1 90.5250 45.3199 44.8838 0.0000 0.0000 0.0000
# 2 45.3199 77.6386 39.2184 0.0000 0.0000 0.0000
# 3 44.8838 39.2184 55.2337 0.0000 0.0000 0.0000
# 4 0.0000 0.0000 0.0000 -41.9035 0.0000 0.0000
# 5 0.0000 0.0000 0.0000 0.0000 14.5414 0.0000
# 6 0.0000 0.0000 0.0000 0.0000 0.0000 35.4493
#
#
#
# Elastic Compliance Matrix: (Units=1/GPa)
#
#
# Indices 1 2 3 4 5 6 
#
# 1 0.019834 -0.005358 -0.012313 0.000000 0.000000 0.000000
# 2 -0.005358 0.021531 -0.010934 0.000000 0.000000 0.000000
# 3 -0.012313 -0.010934 0.035875 0.000000 0.000000 0.000000
# 4 0.000000 0.000000 0.000000 -0.023864 0.000000 0.000000
# 5 0.000000 0.000000 0.000000 0.000000 0.068769 0.000000
# 6 0.000000 0.000000 0.000000 0.000000 0.000000 0.028209
#
#
# Mechanical properties :
#
#
# Convention : Reuss Voigt Hill
#
# Bulk Modulus (GPa) = 49.92687 53.58238 51.75462
# Shear Modulus (GPa) = 23.33827 7.88246 15.61037
#
# Velocity S-wave (km/s) = 3.58759 2.08497 2.93410
# Velocity P-wave (km/s) = 6.68545 5.94527 6.32619
#
# Compressibility (1/GPa) = 0.02002930
#
# Stress axis : x y z
#
# Youngs Moduli (GPa) = 50.41827 46.44471 27.87493
#
# Poissons Ratio (x) = 0.24884 0.34323
# Poissons Ratio (y) = 0.27013 0.30479
# Poissons Ratio (z) = 0.62081 0.50783
#
# Static dielectric constant tensor:
#      x y z
#    x 1.634660 0.000000 0.000000 
#    y 0.000000 1.612840 0.000000 
#    z 0.000000 0.000000 1.635130 
# 
# From -- ./inp_files/42592.got.cif
#   From: 2010.05.17/outbox.cif.g08.bks.cpg/sg69_22_cif.got.tgz:42592.got - 2010.06.03 19:29:58.
