data_PCOD9512664
_publ_section_title
;
Structure prediction by ZEFSAII (Michael W. Deem and Ramdas Pophale) SiO2 
 PCOD9512664
Probable space group: F M M M
;
_chemical_formula_sum "Si O2"
_cell_formula_units_Z 152
_cell_length_a 28.936881
_cell_length_b 10.323573
_cell_length_c 26.363917
_cell_angle_alpha 90.000000
_cell_angle_beta 90.000000
_cell_angle_gamma 90.000000
_cell_volume 7875.745743
_symmetry_space_group_name_H-M "F M M M"
_symmetry_group_IT_number 69
_symmetry_cell_setting 'orthorhombic'
loop_
_space_group_symop_operation_xyz
x,y,z
-x,-y,z
x,-y,-z
-x,y,-z
-x,-y,-z
x,y,-z
-x,y,z
x,-y,z
x,1/2+y,1/2+z
-x,1/2-y,1/2+z
x,1/2-y,1/2-z
-x,1/2+y,1/2-z
-x,1/2-y,1/2-z
x,1/2+y,1/2-z
-x,1/2+y,1/2+z
x,1/2-y,1/2+z
1/2+x,y,1/2+z
1/2-x,-y,1/2+z
1/2+x,-y,1/2-z
1/2-x,y,1/2-z
1/2-x,-y,1/2-z
1/2+x,y,1/2-z
1/2-x,y,1/2+z
1/2+x,-y,1/2+z
1/2+x,1/2+y,z
1/2-x,1/2-y,z
1/2+x,1/2-y,-z
1/2-x,1/2+y,-z
1/2-x,1/2-y,-z
1/2+x,1/2+y,-z
1/2-x,1/2+y,z
1/2+x,1/2-y,z
loop_
_atom_site_type_symbol
_atom_site_label
_atom_site_fract_x
_atom_site_fract_y
_atom_site_fract_z
Si Si1 0.895443 0.500000 0.500000
Si Si2 0.552096 0.346343 0.609954
Si Si3 0.196554 0.727917 0.863298
Si Si4 0.944560 0.231328 0.500000
Si Si5 0.115702 0.347748 0.203915
Si Si6 0.286662 0.500000 0.440861
Si Si7 0.320952 0.500000 0.089013
O O1 0.928644 0.377735 0.500000
O O2 0.861368 0.500000 0.548001
O O3 0.500000 0.290322 0.612512
O O4 0.548388 0.500000 0.615267
O O5 0.572200 0.323895 0.553768
O O6 0.583583 0.304768 0.656559
O O7 0.250000 0.750000 0.849869
O O8 0.167343 0.667693 0.817891
O O9 0.195921 0.626942 0.910542
O O10 0.176814 0.867824 0.879018
O O11 0.000000 0.210804 0.500000
O O12 0.107147 0.500000 0.215965
O O13 0.108303 0.250000 0.250000
O O14 0.299468 0.500000 0.500000
O O15 0.230532 0.500000 0.436063
#
# Coordination Sequence:
#
# PCOD9512664 Si02
#       7
#     8  32  32  16  32  16  16
#     4  12  21  32  48  82 124 164 202 226 289 350
#     4   9  19  39  66  93 122 155 197 247 303 366
#     4  10  22  40  59  87 120 159 207 252 305 365
#     4  10  20  36  59  89 126 160 192 237 297 367
#     4  11  24  43  63  90 122 157 208 260 307 360
#     4  10  20  38  60  85 124 161 202 247 304 363
#     4  10  22  33  57  84 122 158 198 245 299 363
#
# _framework density 19.299759000000002
#
# number of rings (size 3 to 8) (size 9 to 14) (size 15 to 20)
#    0.000    1.895    1.579    1.737    2.947    3.368 
#    3.789    1.053    0.000    0.000    0.000    0.000 
#    0.000    0.000    0.000    0.000    0.000    0.000 
#
# Total GULP energy -212043.657948 kJ/mol
# GULP energy per Si atom -5580.096262 kJ/mol
# Density = 1.925583 g / cm^3
# Si number density = 19.299759 Si / 1000 Ang^3
#
#
#
# Elastic Constant Matrix: (Units=GPa)
#
#
# Indices 1 2 3 4 5 6 
#
# 1 27.5697 8.7951 48.0167 0.0000 0.0000 0.0000
# 2 8.7951 89.2878 49.7425 0.0000 0.0000 0.0000
# 3 48.0167 49.7425 151.1693 0.0000 0.0000 0.0000
# 4 0.0000 0.0000 0.0000 103.4260 0.0000 0.0000
# 5 0.0000 0.0000 0.0000 0.0000 -51.9174 0.0000
# 6 0.0000 0.0000 0.0000 0.0000 0.0000 11.6970
#
#
#
# Elastic Compliance Matrix: (Units=1/GPa)
#
#
# Indices 1 2 3 4 5 6 
#
# 1 0.085873 0.008249 -0.029991 0.000000 0.000000 0.000000
# 2 0.008249 0.014506 -0.007393 0.000000 0.000000 0.000000
# 3 -0.029991 -0.007393 0.018574 0.000000 0.000000 0.000000
# 4 0.000000 0.000000 0.000000 0.009669 0.000000 0.000000
# 5 0.000000 0.000000 0.000000 0.000000 -0.019261 0.000000
# 6 0.000000 0.000000 0.000000 0.000000 0.000000 0.085492
#
#
# Mechanical properties :
#
#
# Convention : Reuss Voigt Hill
#
# Bulk Modulus (GPa) = 16.47901 53.45948 34.96925
# Shear Modulus (GPa) = 18.29154 23.40596 20.84875
#
# Velocity S-wave (km/s) = 3.08191 3.48625 3.29030
# Velocity P-wave (km/s) = 4.60665 6.63060 5.70903
#
# Compressibility (1/GPa) = 0.06068326
#
# Stress axis : x y z
#
# Youngs Moduli (GPa) = 11.64507 68.93651 53.83857
#
# Poissons Ratio (x) = -0.56867 1.61466
# Poissons Ratio (y) = -0.09606 0.39805
# Poissons Ratio (z) = 0.34924 0.50968
#
# Static dielectric constant tensor:
#      x y z
#    x 1.717350 0.000000 0.000000 
#    y 0.000000 1.653700 0.000000 
#    z 0.000000 0.000000 1.661500 
# 
# From -- ./inp_files/38886.got.cif
#   From: 2010.05.17/outbox.cif.g08.bks.cpg/sg69_20_cif.got.tgz:38886.got - 2010.06.03 19:29:58.
