data_PCOD9512346
_publ_section_title
;
Structure prediction by ZEFSAII (Michael W. Deem and Ramdas Pophale) SiO2 
 PCOD9512346
Probable space group: F M M M
;
_chemical_formula_sum "Si O2"
_cell_formula_units_Z 128
_cell_length_a 26.655843
_cell_length_b 7.419028
_cell_length_c 29.337058
_cell_angle_alpha 90.000000
_cell_angle_beta 90.000000
_cell_angle_gamma 90.000000
_cell_volume 5801.709662
_symmetry_space_group_name_H-M "F M M M"
_symmetry_group_IT_number 69
_symmetry_cell_setting 'orthorhombic'
loop_
_space_group_symop_operation_xyz
x,y,z
-x,-y,z
x,-y,-z
-x,y,-z
-x,-y,-z
x,y,-z
-x,y,z
x,-y,z
x,1/2+y,1/2+z
-x,1/2-y,1/2+z
x,1/2-y,1/2-z
-x,1/2+y,1/2-z
-x,1/2-y,1/2-z
x,1/2+y,1/2-z
-x,1/2+y,1/2+z
x,1/2-y,1/2+z
1/2+x,y,1/2+z
1/2-x,-y,1/2+z
1/2+x,-y,1/2-z
1/2-x,y,1/2-z
1/2-x,-y,1/2-z
1/2+x,y,1/2-z
1/2-x,y,1/2+z
1/2+x,-y,1/2+z
1/2+x,1/2+y,z
1/2-x,1/2-y,z
1/2+x,1/2-y,-z
1/2-x,1/2+y,-z
1/2-x,1/2-y,-z
1/2+x,1/2+y,-z
1/2-x,1/2+y,z
1/2+x,1/2-y,z
loop_
_atom_site_type_symbol
_atom_site_label
_atom_site_fract_x
_atom_site_fract_y
_atom_site_fract_z
Si Si1 0.559558 0.283704 0.049515
Si Si2 0.691137 0.216634 0.899246
Si Si3 0.500000 0.783989 0.196480
Si Si4 0.598420 0.202730 0.147270
Si Si5 0.190129 0.785015 0.500000
O O1 0.500000 0.248653 0.049144
O O2 0.565602 0.500000 0.052543
O O3 0.580497 0.196386 0.094756
O O4 0.579805 0.223824 0.000000
O O5 0.750000 0.250000 0.892095
O O6 0.653654 0.285497 0.859938
O O7 0.675399 0.286555 0.949838
O O8 0.685296 0.000000 0.900393
O O9 0.500000 0.750000 0.250000
O O10 0.448274 0.712700 0.174275
O O11 0.500000 0.000000 0.187275
O O12 0.604756 0.000000 0.165908
O O13 0.250000 0.750000 0.500000
O O14 0.182316 0.000000 0.500000
#
# Coordination Sequence:
#
# PCOD9512346 Si02
#       5
#    32  32  16  32  16
#     4   9  18  31  46  70 107 145 178 211 251 306
#     4   9  18  31  48  72 104 140 178 217 252 297
#     4  10  22  40  59  82 105 129 166 217 275 330
#     4  10  20  34  54  79 105 135 177 221 262 311
#     4   8  14  26  42  63  95 136 176 207 240 278
#
# _framework density 22.062462
#
# number of rings (size 3 to 8) (size 9 to 14) (size 15 to 20)
#    0.000    2.750    1.250    0.750    1.750    2.500 
#    0.000    1.250    0.000    0.750    0.000    5.250 
#    0.000    0.000    0.000    0.000    0.000    0.000 
#
# Total GULP energy -178482.709617 kJ/mol
# GULP energy per Si atom -5577.584676 kJ/mol
# Density = 2.201225 g / cm^3
# Si number density = 22.062462 Si / 1000 Ang^3
#
#
#
# Elastic Constant Matrix: (Units=GPa)
#
#
# Indices 1 2 3 4 5 6 
#
# 1 173.3059 6.5488 69.1463 0.0000 0.0000 -0.0002
# 2 6.5488 77.5266 -5.2119 -0.0001 -0.0001 0.0000
# 3 69.1463 -5.2119 93.2616 0.0000 0.0000 0.0000
# 4 0.0000 -0.0001 0.0000 14.2799 0.0000 0.0000
# 5 0.0000 -0.0001 0.0000 0.0000 22.7074 0.0000
# 6 -0.0002 0.0000 0.0000 0.0000 0.0000 16.4204
#
#
#
# Elastic Compliance Matrix: (Units=1/GPa)
#
#
# Indices 1 2 3 4 5 6 
#
# 1 0.008289 -0.001118 -0.006208 0.000000 0.000000 0.000000
# 2 -0.001118 0.013098 0.001561 0.000000 0.000000 0.000000
# 3 -0.006208 0.001561 0.015413 0.000000 0.000000 0.000000
# 4 0.000000 0.000000 0.000000 0.070028 0.000000 0.000000
# 5 0.000000 0.000000 0.000000 0.000000 0.044038 0.000000
# 6 0.000000 0.000000 0.000000 0.000000 0.000000 0.060900
#
#
# Mechanical properties :
#
#
# Convention : Reuss Voigt Hill
#
# Bulk Modulus (GPa) = 39.57339 53.89559 46.73449
# Shear Modulus (GPa) = 21.57764 28.92227 25.24996
#
# Velocity S-wave (km/s) = 3.13073 3.62460 3.38668
# Velocity P-wave (km/s) = 5.57176 6.48064 6.04331
#
# Compressibility (1/GPa) = 0.02526950
#
# Stress axis : x y z
#
# Youngs Moduli (GPa) = 120.63542 76.34681 64.88106
#
# Poissons Ratio (x) = 0.08532 0.40281
# Poissons Ratio (y) = 0.13482 -0.10125
# Poissons Ratio (z) = 0.74896 -0.11915
#
# Static dielectric constant tensor:
#      x y z
#    x 1.966140 0.000000 0.000000 
#    y 0.000000 1.090930 0.000000 
#    z 0.000000 0.000000 1.763880 
# 
# From -- ./inp_files/5346.got.cif
#   From: 2010.05.17/outbox.cif.g08.bks.cpg/sg69_3_cif.got.tgz:5346.got - 2010.06.03 19:29:58.
