data_PCOD9512150
_publ_section_title
;
Structure prediction by ZEFSAII (Michael W. Deem and Ramdas Pophale) SiO2 
 PCOD9512150
Probable space group: F M M M
;
_chemical_formula_sum "Si O2"
_cell_formula_units_Z 168
_cell_length_a 21.045894
_cell_length_b 27.740387
_cell_length_c 15.915876
_cell_angle_alpha 90.000000
_cell_angle_beta 90.000000
_cell_angle_gamma 90.000000
_cell_volume 9292.026531
_symmetry_space_group_name_H-M "F M M M"
_symmetry_group_IT_number 69
_symmetry_cell_setting 'orthorhombic'
loop_
_space_group_symop_operation_xyz
x,y,z
-x,-y,z
x,-y,-z
-x,y,-z
-x,-y,-z
x,y,-z
-x,y,z
x,-y,z
x,1/2+y,1/2+z
-x,1/2-y,1/2+z
x,1/2-y,1/2-z
-x,1/2+y,1/2-z
-x,1/2-y,1/2-z
x,1/2+y,1/2-z
-x,1/2+y,1/2+z
x,1/2-y,1/2+z
1/2+x,y,1/2+z
1/2-x,-y,1/2+z
1/2+x,-y,1/2-z
1/2-x,y,1/2-z
1/2-x,-y,1/2-z
1/2+x,y,1/2-z
1/2-x,y,1/2+z
1/2+x,-y,1/2+z
1/2+x,1/2+y,z
1/2-x,1/2-y,z
1/2+x,1/2-y,-z
1/2-x,1/2+y,-z
1/2-x,1/2-y,-z
1/2+x,1/2+y,-z
1/2-x,1/2+y,z
1/2+x,1/2-y,z
loop_
_atom_site_type_symbol
_atom_site_label
_atom_site_fract_x
_atom_site_fract_y
_atom_site_fract_z
Si Si1 0.163102 0.554054 0.166635
Si Si2 0.808119 0.073233 0.861605
Si Si3 0.843563 0.773025 0.403300
Si Si4 0.573180 0.138672 0.898461
Si Si5 0.351948 0.000000 0.500000
Si Si6 0.781618 0.818909 0.842239
O O1 0.140500 0.500000 0.147010
O O2 0.173523 0.559440 0.266501
O O3 0.233193 0.560871 0.126994
O O4 0.116115 0.595497 0.136186
O O5 0.812093 0.130874 0.868692
O O6 0.847138 0.042118 0.926858
O O7 0.855924 0.759001 0.500000
O O8 0.897192 0.809856 0.372615
O O9 0.830022 0.725598 0.348676
O O10 0.777938 0.803540 0.399718
O O11 0.500000 0.133869 0.872996
O O12 0.576576 0.137421 0.000000
O O13 0.750000 0.824247 0.750000
#
# Coordination Sequence:
#
# PCOD9512150 Si02
#       6
#    32  32  32  32   8  32
#     4  11  20  37  53  79 119 155 194 237 290 344
#     4  11  21  34  53  86 117 154 183 242 303 349
#     4  10  20  32  49  79 111 144 189 234 281 337
#     4  10  22  38  58  83 117 159 193 234 289 345
#     4  12  24  30  56  86 124 146 192 224 318 372
#     4  11  19  31  55  79 113 149 186 232 284 342
#
# _framework density 18.080017000000002
#
# number of rings (size 3 to 8) (size 9 to 14) (size 15 to 20)
#    0.000    1.333    5.714    2.857    4.000    0.762 
#    0.000    0.952    0.000    9.143    0.000    1.333 
#    0.000    0.000    0.000    0.000    0.000    0.000 
#
# Total GULP energy -233941.504001 kJ/mol
# GULP energy per Si atom -5570.035810 kJ/mol
# Density = 1.803887 g / cm^3
# Si number density = 18.080017 Si / 1000 Ang^3
#
#
#
# Elastic Constant Matrix: (Units=GPa)
#
#
# Indices 1 2 3 4 5 6 
#
# 1 61.2504 28.6867 1.6214 0.0000 0.0000 0.0000
# 2 28.6867 165.5973 21.4980 0.0000 0.0000 0.0000
# 3 1.6214 21.4980 34.9145 0.0000 0.0000 0.0000
# 4 0.0000 0.0000 0.0000 20.8474 0.0000 0.0000
# 5 0.0000 0.0000 0.0000 0.0000 14.1876 0.0000
# 6 0.0000 0.0000 0.0000 0.0000 0.0000 -2.0257
#
#
#
# Elastic Compliance Matrix: (Units=1/GPa)
#
#
# Indices 1 2 3 4 5 6 
#
# 1 0.017812 -0.003237 0.001166 0.000000 0.000000 0.000000
# 2 -0.003237 0.007152 -0.004253 0.000000 0.000000 0.000000
# 3 0.001166 -0.004253 0.031206 0.000000 0.000000 0.000000
# 4 0.000000 0.000000 0.000000 0.047968 0.000000 0.000000
# 5 0.000000 0.000000 0.000000 0.000000 0.070484 0.000000
# 6 0.000000 0.000000 0.000000 0.000000 0.000000 -0.493667
#
#
# Mechanical properties :
#
#
# Convention : Reuss Voigt Hill
#
# Bulk Modulus (GPa) = 22.97741 40.59714 31.78727
# Shear Modulus (GPa) = -17.12968 20.59895 1.73464
#
# Velocity S-wave (km/s) = -3.08139 3.37905 0.98056
# Velocity P-wave (km/s) = 0.27640 6.14222 4.34760
#
# Compressibility (1/GPa) = 0.04352101
#
# Stress axis : x y z
#
# Youngs Moduli (GPa) = 56.14330 139.82821 32.04499
#
# Poissons Ratio (x) = 0.45261 -0.03736
# Poissons Ratio (y) = 0.18173 0.13629
# Poissons Ratio (z) = -0.06546 0.59472
#
# Static dielectric constant tensor:
#      x y z
#    x 1.602800 0.000000 0.000000 
#    y 0.000000 1.641840 0.000000 
#    z 0.000000 0.000000 1.648290 
# 
# From -- ./inp_files/16894.got.cif
#   From: 2010.05.17/outbox.cif.g08.bks.cpg/sg69_9_cif.got.tgz:16894.got - 2010.06.03 19:29:58.
