data_PCOD9512159
_publ_section_title
;
Structure prediction by ZEFSAII (Michael W. Deem and Ramdas Pophale) SiO2 
 PCOD9512159
Probable space group: F M M M
;
_chemical_formula_sum "Si O2"
_cell_formula_units_Z 240
_cell_length_a 29.892822
_cell_length_b 13.756395
_cell_length_c 27.102978
_cell_angle_alpha 90.000000
_cell_angle_beta 90.000000
_cell_angle_gamma 90.000000
_cell_volume 11145.217964
_symmetry_space_group_name_H-M "F M M M"
_symmetry_group_IT_number 69
_symmetry_cell_setting 'orthorhombic'
loop_
_space_group_symop_operation_xyz
x,y,z
-x,-y,z
x,-y,-z
-x,y,-z
-x,-y,-z
x,y,-z
-x,y,z
x,-y,z
x,1/2+y,1/2+z
-x,1/2-y,1/2+z
x,1/2-y,1/2-z
-x,1/2+y,1/2-z
-x,1/2-y,1/2-z
x,1/2+y,1/2-z
-x,1/2+y,1/2+z
x,1/2-y,1/2+z
1/2+x,y,1/2+z
1/2-x,-y,1/2+z
1/2+x,-y,1/2-z
1/2-x,y,1/2-z
1/2-x,-y,1/2-z
1/2+x,y,1/2-z
1/2-x,y,1/2+z
1/2+x,-y,1/2+z
1/2+x,1/2+y,z
1/2-x,1/2-y,z
1/2+x,1/2-y,-z
1/2-x,1/2+y,-z
1/2-x,1/2-y,-z
1/2+x,1/2+y,-z
1/2-x,1/2+y,z
1/2+x,1/2-y,z
loop_
_atom_site_type_symbol
_atom_site_label
_atom_site_fract_x
_atom_site_fract_y
_atom_site_fract_z
Si Si1 0.905966 0.190931 0.090725
Si Si2 0.629954 0.618926 0.805390
Si Si3 0.189389 0.386939 0.883218
Si Si4 0.916669 0.888103 0.625107
Si Si5 0.549832 0.115975 0.233849
Si Si6 0.222789 0.884667 0.159118
Si Si7 0.809394 0.699992 0.444918
Si Si8 0.552116 0.000000 0.553474
O O1 0.888052 0.170757 0.145705
O O2 0.926757 0.298509 0.088845
O O3 0.862633 0.185719 0.056290
O O4 0.936029 0.099322 0.079942
O O5 0.628714 0.500000 0.810643
O O6 0.594163 0.646312 0.763617
O O7 0.682614 0.647950 0.804768
O O8 0.197953 0.500000 0.895915
O O9 0.137473 0.382356 0.867536
O O10 0.225015 0.354193 0.841173
O O11 0.196890 0.312355 0.928188
O O12 0.941883 0.867094 0.676093
O O13 0.926374 0.000000 0.609993
O O14 0.500000 0.149117 0.249635
O O15 0.549070 0.000000 0.239949
O O16 0.208526 0.860705 0.102217
O O17 0.224009 0.000000 0.166143
O O18 0.792407 0.679094 0.500000
O O19 0.500000 0.000000 0.547915
O O20 0.574919 0.000000 0.500000
#
# Coordination Sequence:
#
# PCOD9512159 Si02
#       8
#    32  32  32  32  32  32  32  16
#     4  10  20  37  57  80 111 151 190 231 290 355
#     4   9  17  32  51  77 112 149 188 232 291 353
#     4   9  18  33  50  71 105 147 187 232 279 334
#     4   9  19  36  57  81 113 153 195 234 286 347
#     4   9  18  33  55  83 113 143 183 242 295 345
#     4   9  18  31  48  72 106 146 187 230 281 338
#     4  10  20  32  51  76 103 140 183 230 281 336
#     4  11  24  40  60  88 118 146 187 246 302 354
#
# _framework density 21.533899000000002
#
# number of rings (size 3 to 8) (size 9 to 14) (size 15 to 20)
#    0.000    2.600    0.667    0.800    0.933    3.200 
#    0.000    2.667    0.000    5.200    0.000    6.533 
#    0.000    0.000    0.000    0.400    0.000    0.667 
#
# Total GULP energy -334146.865482 kJ/mol
# GULP energy per Si atom -5569.114425 kJ/mol
# Density = 2.148489 g / cm^3
# Si number density = 21.533899 Si / 1000 Ang^3
#
#
#
# Elastic Constant Matrix: (Units=GPa)
#
#
# Indices 1 2 3 4 5 6 
#
# 1 79.3203 26.8833 18.5506 0.0000 0.0000 0.0000
# 2 26.8833 109.5425 -1.7552 0.0000 0.0000 0.0000
# 3 18.5506 -1.7552 11.2530 0.0000 0.0000 0.0000
# 4 0.0000 0.0000 0.0000 10.4917 0.0000 0.0000
# 5 0.0000 0.0000 0.0000 0.0000 15.2413 0.0000
# 6 0.0000 0.0000 0.0000 0.0000 0.0000 -51.6207
#
#
#
# Elastic Compliance Matrix: (Units=1/GPa)
#
#
# Indices 1 2 3 4 5 6 
#
# 1 0.024615 -0.006708 -0.041625 0.000000 0.000000 0.000000
# 2 -0.006708 0.010980 0.012771 0.000000 0.000000 0.000000
# 3 -0.041625 0.012771 0.159476 0.000000 0.000000 0.000000
# 4 0.000000 0.000000 0.000000 0.095314 0.000000 0.000000
# 5 0.000000 0.000000 0.000000 0.000000 0.065611 0.000000
# 6 0.000000 0.000000 0.000000 0.000000 0.000000 -0.019372
#
#
# Mechanical properties :
#
#
# Convention : Reuss Voigt Hill
#
# Bulk Modulus (GPa) = 8.06797 31.94146 20.00472
# Shear Modulus (GPa) = 11.13426 5.25158 8.19292
#
# Velocity S-wave (km/s) = 2.27636 1.56334 1.95267
# Velocity P-wave (km/s) = 3.26555 4.25723 3.79393
#
# Compressibility (1/GPa) = 0.12394694
#
# Stress axis : x y z
#
# Youngs Moduli (GPa) = 40.62500 91.07704 6.27052
#
# Poissons Ratio (x) = 0.61094 0.26101
# Poissons Ratio (y) = 0.27251 -0.08008
# Poissons Ratio (z) = 1.69101 -1.16311
#
# Static dielectric constant tensor:
#      x y z
#    x 1.845160 0.000000 0.000000 
#    y 0.000000 1.742610 0.000000 
#    z 0.000000 0.000000 1.753820 
# 
# From -- ./inp_files/47585.got.cif
#   From: 2010.05.17/outbox.cif.g08.bks.cpg/sg69_24_cif.got.tgz:47585.got - 2010.06.03 19:29:58.
