data_PCOD9512238
_publ_section_title
;
Structure prediction by ZEFSAII (Michael W. Deem and Ramdas Pophale) SiO2 
 PCOD9512238
Probable space group: F M M M
;
_chemical_formula_sum "Si O2"
_cell_formula_units_Z 200
_cell_length_a 15.454260
_cell_length_b 19.786335
_cell_length_c 33.137693
_cell_angle_alpha 90.000000
_cell_angle_beta 90.000000
_cell_angle_gamma 90.000000
_cell_volume 10132.948664
_symmetry_space_group_name_H-M "F M M M"
_symmetry_group_IT_number 69
_symmetry_cell_setting 'orthorhombic'
loop_
_space_group_symop_operation_xyz
x,y,z
-x,-y,z
x,-y,-z
-x,y,-z
-x,-y,-z
x,y,-z
-x,y,z
x,-y,z
x,1/2+y,1/2+z
-x,1/2-y,1/2+z
x,1/2-y,1/2-z
-x,1/2+y,1/2-z
-x,1/2-y,1/2-z
x,1/2+y,1/2-z
-x,1/2+y,1/2+z
x,1/2-y,1/2+z
1/2+x,y,1/2+z
1/2-x,-y,1/2+z
1/2+x,-y,1/2-z
1/2-x,y,1/2-z
1/2-x,-y,1/2-z
1/2+x,y,1/2-z
1/2-x,y,1/2+z
1/2+x,-y,1/2+z
1/2+x,1/2+y,z
1/2-x,1/2-y,z
1/2+x,1/2-y,-z
1/2-x,1/2+y,-z
1/2-x,1/2-y,-z
1/2+x,1/2+y,-z
1/2-x,1/2+y,z
1/2+x,1/2-y,z
loop_
_atom_site_type_symbol
_atom_site_label
_atom_site_fract_x
_atom_site_fract_y
_atom_site_fract_z
Si Si1 0.605129 0.348494 0.348139
Si Si2 0.100922 0.106385 0.435154
Si Si3 0.653117 0.077720 0.232880
Si Si4 0.837747 0.500000 0.000000
Si Si5 0.099807 0.075661 0.819746
Si Si6 0.853244 0.740968 0.455724
Si Si7 0.896382 0.198215 0.129398
O O1 0.500000 0.348230 0.346815
O O2 0.627819 0.391815 0.388102
O O3 0.638792 0.377718 0.306305
O O4 0.635710 0.271465 0.355610
O O5 0.106894 0.184672 0.448746
O O6 0.000000 0.085144 0.438552
O O7 0.154831 0.059063 0.464571
O O8 0.750000 0.081039 0.250000
O O9 0.599547 0.096294 0.272812
O O10 0.632028 0.000000 0.222411
O O11 0.141069 0.134570 0.846460
O O12 0.000000 0.069703 0.832701
O O13 0.139274 0.000000 0.822498
O O14 0.878497 0.715672 0.500000
O O15 0.750000 0.750000 0.454645
O O16 0.879619 0.695027 0.418223
O O17 0.000000 0.199555 0.135757
#
# Coordination Sequence:
#
# PCOD9512238 Si02
#       7
#    32  32  32   8  32  32  32
#     4   9  19  34  53  80 108 136 172 218 267 312
#     4  10  20  33  53  82 113 145 179 218 263 319
#     4  10  21  35  50  71 105 141 178 213 256 310
#     4  12  21  32  54  84 116 148 181 216 259 328
#     4   9  18  34  55  74  95 130 172 216 263 309
#     4  10  20  34  53  74 107 141 175 212 261 317
#     4   9  19  35  56  80 102 129 173 222 266 312
#
# _framework density 19.737590999999998
#
# number of rings (size 3 to 8) (size 9 to 14) (size 15 to 20)
#    0.000    2.400    0.800    2.640    1.120    5.120 
#    0.000    3.200    1.760    0.480    0.000    2.240 
#    0.000    0.000    0.000    0.000    0.000    0.000 
#
# Total GULP energy -278393.200006 kJ/mol
# GULP energy per Si atom -5567.864000 kJ/mol
# Density = 1.969267 g / cm^3
# Si number density = 19.737591 Si / 1000 Ang^3
#
#
#
# Elastic Constant Matrix: (Units=GPa)
#
#
# Indices 1 2 3 4 5 6 
#
# 1 12.2385 9.4812 -2.3706 0.0000 0.0000 0.0000
# 2 9.4812 86.5749 101.9790 0.0000 0.0000 0.0000
# 3 -2.3706 101.9790 185.5513 0.0000 0.0000 0.0000
# 4 0.0000 0.0000 0.0000 -23.8989 0.0000 0.0000
# 5 0.0000 0.0000 0.0000 0.0000 109.5004 0.0000
# 6 0.0000 0.0000 0.0000 0.0000 0.0000 7.0457
#
#
#
# Elastic Compliance Matrix: (Units=1/GPa)
#
#
# Indices 1 2 3 4 5 6 
#
# 1 0.119068 -0.042062 0.024638 0.000000 0.000000 0.000000
# 2 -0.042062 0.047616 -0.026707 0.000000 0.000000 0.000000
# 3 0.024638 -0.026707 0.020382 0.000000 0.000000 0.000000
# 4 0.000000 0.000000 0.000000 -0.041843 0.000000 0.000000
# 5 0.000000 0.000000 0.000000 0.000000 0.009132 0.000000
# 6 0.000000 0.000000 0.000000 0.000000 0.000000 0.141930
#
#
# Mechanical properties :
#
#
# Convention : Reuss Voigt Hill
#
# Bulk Modulus (GPa) = 10.12095 55.83818 32.97957
# Shear Modulus (GPa) = 11.97655 30.21446 21.09550
#
# Velocity S-wave (km/s) = 2.46598 3.91680 3.27279
# Velocity P-wave (km/s) = 3.63964 6.98618 5.57018
#
# Compressibility (1/GPa) = 0.09880494
#
# Stress axis : x y z
#
# Youngs Moduli (GPa) = 8.39859 21.00120 49.06176
#
# Poissons Ratio (x) = 0.88335 -1.20880
# Poissons Ratio (y) = 0.35326 1.31031
# Poissons Ratio (z) = -0.20693 0.56089
#
# Static dielectric constant tensor:
#      x y z
#    x 1.768790 0.000000 0.000000 
#    y 0.000000 1.705730 0.000000 
#    z 0.000000 0.000000 1.690960 
# 
# From -- ./inp_files/42045.got.cif
#   From: 2010.05.17/outbox.cif.g08.bks.cpg/sg69_22_cif.got.tgz:42045.got - 2010.06.03 19:29:58.
