data_PCOD9512462
_publ_section_title
;
Structure prediction by ZEFSAII (Michael W. Deem and Ramdas Pophale) SiO2 
 PCOD9512462
Probable space group: F M M M
;
_chemical_formula_sum "Si O2"
_cell_formula_units_Z 176
_cell_length_a 17.051039
_cell_length_b 28.286690
_cell_length_c 21.245235
_cell_angle_alpha 90.000000
_cell_angle_beta 90.000000
_cell_angle_gamma 90.000000
_cell_volume 10246.947663
_symmetry_space_group_name_H-M "F M M M"
_symmetry_group_IT_number 69
_symmetry_cell_setting 'orthorhombic'
loop_
_space_group_symop_operation_xyz
x,y,z
-x,-y,z
x,-y,-z
-x,y,-z
-x,-y,-z
x,y,-z
-x,y,z
x,-y,z
x,1/2+y,1/2+z
-x,1/2-y,1/2+z
x,1/2-y,1/2-z
-x,1/2+y,1/2-z
-x,1/2-y,1/2-z
x,1/2+y,1/2-z
-x,1/2+y,1/2+z
x,1/2-y,1/2+z
1/2+x,y,1/2+z
1/2-x,-y,1/2+z
1/2+x,-y,1/2-z
1/2-x,y,1/2-z
1/2-x,-y,1/2-z
1/2+x,y,1/2-z
1/2-x,y,1/2+z
1/2+x,-y,1/2+z
1/2+x,1/2+y,z
1/2-x,1/2-y,z
1/2+x,1/2-y,-z
1/2-x,1/2+y,-z
1/2-x,1/2-y,-z
1/2+x,1/2+y,-z
1/2-x,1/2+y,z
1/2+x,1/2-y,z
loop_
_atom_site_type_symbol
_atom_site_label
_atom_site_fract_x
_atom_site_fract_y
_atom_site_fract_z
Si Si1 0.905445 0.279667 0.813517
Si Si2 0.905446 0.211126 0.927510
Si Si3 0.092817 0.555054 0.738366
Si Si4 0.156618 0.890183 0.882914
Si Si5 0.590756 0.943802 0.500000
Si Si6 0.192910 0.624696 0.190073
O O1 0.885733 0.250000 0.750000
O O2 0.882501 0.250344 0.875982
O O3 0.862032 0.329699 0.814719
O O4 0.000000 0.286063 0.813161
O O5 0.876658 0.160965 0.901270
O O6 0.000000 0.210347 0.928546
O O7 0.878818 0.218570 0.000000
O O8 0.113707 0.500000 0.728215
O O9 0.115091 0.586813 0.677996
O O10 0.141308 0.578638 0.794696
O O11 0.000000 0.557892 0.749012
O O12 0.248181 0.884090 0.867330
O O13 0.135288 0.924434 0.939637
O O14 0.500000 0.926263 0.500000
O O15 0.588441 0.000000 0.500000
O O16 0.250000 0.632605 0.250000
#
# Coordination Sequence:
#
# PCOD9512462 Si02
#       6
#    32  32  32  32  16  32
#     4  10  20  36  58  81 107 148 197 235 275 329
#     4  10  20  35  55  79 110 148 185 229 279 329
#     4  10  20  35  57  82 107 142 185 228 279 338
#     4  11  21  34  53  81 114 146 178 224 281 339
#     4  11  22  36  56  79 107 145 187 228 269 330
#     4  10  22  35  52  79 114 143 176 226 283 330
#
# _framework density 17.175846
#
# number of rings (size 3 to 8) (size 9 to 14) (size 15 to 20)
#    0.000    1.727    0.909    4.909    0.000    9.455 
#    1.636    0.909    0.000    0.000    0.000    0.000 
#    0.000    2.909    0.000    0.000    0.000    0.000 
#
# Total GULP energy -245581.268050 kJ/mol
# GULP energy per Si atom -5581.392456 kJ/mol
# Density = 1.713675 g / cm^3
# Si number density = 17.175846 Si / 1000 Ang^3
#
#
#
# Elastic Constant Matrix: (Units=GPa)
#
#
# Indices 1 2 3 4 5 6 
#
# 1 55.3891 48.0142 43.3171 0.0000 0.0000 0.0000
# 2 48.0142 96.2044 47.3166 0.0000 0.0000 0.0000
# 3 43.3171 47.3166 95.4982 0.0000 0.0000 0.0000
# 4 0.0000 0.0000 0.0000 28.1008 0.0000 0.0000
# 5 0.0000 0.0000 0.0000 0.0000 1.3742 0.0000
# 6 0.0000 0.0000 0.0000 0.0000 0.0000 -85.2562
#
#
#
# Elastic Compliance Matrix: (Units=1/GPa)
#
#
# Indices 1 2 3 4 5 6 
#
# 1 0.038386 -0.014008 -0.010471 0.000000 0.000000 0.000000
# 2 -0.014008 0.018855 -0.002989 0.000000 0.000000 0.000000
# 3 -0.010471 -0.002989 0.016702 0.000000 0.000000 0.000000
# 4 0.000000 0.000000 0.000000 0.035586 0.000000 0.000000
# 5 0.000000 0.000000 0.000000 0.000000 0.727722 0.000000
# 6 0.000000 0.000000 0.000000 0.000000 0.000000 -0.011729
#
#
# Mechanical properties :
#
#
# Convention : Reuss Voigt Hill
#
# Bulk Modulus (GPa) = 52.60865 58.26528 55.43697
# Shear Modulus (GPa) = 5.63830 -3.92667 0.85581
#
# Velocity S-wave (km/s) = 1.81379 -1.51365 0.70664
# Velocity P-wave (km/s) = 5.92304 5.56252 5.74561
#
# Compressibility (1/GPa) = 0.01900828
#
# Stress axis : x y z
#
# Youngs Moduli (GPa) = 26.05149 53.03494 59.87436
#
# Poissons Ratio (x) = 0.74290 0.62694
# Poissons Ratio (y) = 0.36492 0.17894
# Poissons Ratio (z) = 0.27278 0.15850
#
# Static dielectric constant tensor:
#      x y z
#    x 1.579920 0.000000 0.000000 
#    y 0.000000 1.571900 0.000000 
#    z 0.000000 0.000000 1.609670 
# 
# From -- ./inp_files/17883.got.cif
#   From: 2010.05.17/outbox.cif.g08.bks.cpg/sg69_9_cif.got.tgz:17883.got - 2010.06.03 19:29:58.
