data_PCOD9512011
_publ_section_title
;
Structure prediction by ZEFSAII (Michael W. Deem and Ramdas Pophale) SiO2 
 PCOD9512011
Probable space group: F M M M
;
_chemical_formula_sum "Si O2"
_cell_formula_units_Z 144
_cell_length_a 18.631760
_cell_length_b 20.606943
_cell_length_c 19.840031
_cell_angle_alpha 90.000000
_cell_angle_beta 90.000000
_cell_angle_gamma 90.000000
_cell_volume 7617.453250
_symmetry_space_group_name_H-M "F M M M"
_symmetry_group_IT_number 69
_symmetry_cell_setting 'orthorhombic'
loop_
_space_group_symop_operation_xyz
x,y,z
-x,-y,z
x,-y,-z
-x,y,-z
-x,-y,-z
x,y,-z
-x,y,z
x,-y,z
x,1/2+y,1/2+z
-x,1/2-y,1/2+z
x,1/2-y,1/2-z
-x,1/2+y,1/2-z
-x,1/2-y,1/2-z
x,1/2+y,1/2-z
-x,1/2+y,1/2+z
x,1/2-y,1/2+z
1/2+x,y,1/2+z
1/2-x,-y,1/2+z
1/2+x,-y,1/2-z
1/2-x,y,1/2-z
1/2-x,-y,1/2-z
1/2+x,y,1/2-z
1/2-x,y,1/2+z
1/2+x,-y,1/2+z
1/2+x,1/2+y,z
1/2-x,1/2-y,z
1/2+x,1/2-y,-z
1/2-x,1/2+y,-z
1/2-x,1/2-y,-z
1/2+x,1/2+y,-z
1/2-x,1/2+y,z
1/2+x,1/2-y,z
loop_
_atom_site_type_symbol
_atom_site_label
_atom_site_fract_x
_atom_site_fract_y
_atom_site_fract_z
Si Si1 0.329376 0.684276 0.283023
Si Si2 0.160434 0.421985 0.426372
Si Si3 0.418185 0.000000 0.918803
Si Si4 0.676671 0.627666 0.421530
Si Si5 0.584945 0.075212 0.710826
O O1 0.358863 0.750000 0.250000
O O2 0.250000 0.676872 0.250000
O O3 0.329767 0.682602 0.364236
O O4 0.374967 0.622920 0.260398
O O5 0.133373 0.401005 0.500000
O O6 0.165763 0.500000 0.426985
O O7 0.240728 0.395488 0.417633
O O8 0.110131 0.405160 0.364207
O O9 0.373622 0.065529 0.903659
O O10 0.500000 0.000000 0.891008
O O11 0.423560 0.000000 0.000000
O O12 0.662121 0.645863 0.500000
O O13 0.500000 0.079895 0.717115
O O14 0.605882 0.000000 0.722147
#
# Coordination Sequence:
#
# PCOD9512011 Si02
#       5
#    32  32  16  32  32
#     4  11  24  41  59  85 123 159 201 248 302 362
#     4   9  16  30  55  87 119 152 194 244 299 356
#     4   9  18  32  55  92 129 155 191 248 303 355
#     4  10  19  35  60  87 118 157 199 243 298 360
#     4  10  22  38  59  88 118 156 203 248 302 360
#
# _framework density 18.903956999999998
#
# number of rings (size 3 to 8) (size 9 to 14) (size 15 to 20)
#    0.000    2.111    3.333    0.000    1.556    2.222 
#    0.000    5.556    0.000    0.000    0.000    0.000 
#    0.000    0.000    0.000    0.000    0.000    0.000 
#
# Total GULP energy -200766.479202 kJ/mol
# GULP energy per Si atom -5576.846644 kJ/mol
# Density = 1.886093 g / cm^3
# Si number density = 18.903957 Si / 1000 Ang^3
#
#
#
# Elastic Constant Matrix: (Units=GPa)
#
#
# Indices 1 2 3 4 5 6 
#
# 1 51.2649 33.2624 20.5432 0.0000 0.0000 0.0000
# 2 33.2624 49.0802 54.0204 0.0000 0.0000 0.0000
# 3 20.5432 54.0204 131.9352 0.0000 0.0000 0.0000
# 4 0.0000 0.0000 0.0000 26.0543 0.0000 0.0000
# 5 0.0000 0.0000 0.0000 0.0000 16.7311 0.0000
# 6 0.0000 0.0000 0.0000 0.0000 0.0000 3.4130
#
#
#
# Elastic Compliance Matrix: (Units=1/GPa)
#
#
# Indices 1 2 3 4 5 6 
#
# 1 0.039745 -0.036633 0.008811 0.000000 0.000000 0.000000
# 2 -0.036633 0.070855 -0.023307 0.000000 0.000000 0.000000
# 3 0.008811 -0.023307 0.015751 0.000000 0.000000 0.000000
# 4 0.000000 0.000000 0.000000 0.038381 0.000000 0.000000
# 5 0.000000 0.000000 0.000000 0.000000 0.059769 0.000000
# 6 0.000000 0.000000 0.000000 0.000000 0.000000 0.293000
#
#
# Mechanical properties :
#
#
# Convention : Reuss Voigt Hill
#
# Bulk Modulus (GPa) = 41.50937 49.77026 45.63982
# Shear Modulus (GPa) = 7.96444 17.53664 12.75054
#
# Velocity S-wave (km/s) = 2.05481 3.04907 2.59991
# Velocity P-wave (km/s) = 5.25694 6.22743 5.76265
#
# Compressibility (1/GPa) = 0.02409095
#
# Stress axis : x y z
#
# Youngs Moduli (GPa) = 25.16063 14.11336 63.48946
#
# Poissons Ratio (x) = 0.51702 -0.55939
# Poissons Ratio (y) = 0.92171 1.47976
# Poissons Ratio (z) = -0.22169 0.32894
#
# Static dielectric constant tensor:
#      x y z
#    x 1.624790 0.000000 0.000000 
#    y 0.000000 1.643760 0.000000 
#    z 0.000000 0.000000 1.717200 
# 
# From -- ./inp_files/24442.got.cif
#   From: 2010.05.17/outbox.cif.g08.bks.cpg/sg69_13_cif.got.tgz:24442.got - 2010.06.03 19:29:58.
