data_PCOD9512761
_publ_section_title
;
Structure prediction by ZEFSAII (Michael W. Deem and Ramdas Pophale) SiO2 
 PCOD9512761
Probable space group: F M M M
;
_chemical_formula_sum "Si O2"
_cell_formula_units_Z 176
_cell_length_a 19.751428
_cell_length_b 27.382114
_cell_length_c 18.175439
_cell_angle_alpha 90.000000
_cell_angle_beta 90.000000
_cell_angle_gamma 90.000000
_cell_volume 9829.929058
_symmetry_space_group_name_H-M "F M M M"
_symmetry_group_IT_number 69
_symmetry_cell_setting 'orthorhombic'
loop_
_space_group_symop_operation_xyz
x,y,z
-x,-y,z
x,-y,-z
-x,y,-z
-x,-y,-z
x,y,-z
-x,y,z
x,-y,z
x,1/2+y,1/2+z
-x,1/2-y,1/2+z
x,1/2-y,1/2-z
-x,1/2+y,1/2-z
-x,1/2-y,1/2-z
x,1/2+y,1/2-z
-x,1/2+y,1/2+z
x,1/2-y,1/2+z
1/2+x,y,1/2+z
1/2-x,-y,1/2+z
1/2+x,-y,1/2-z
1/2-x,y,1/2-z
1/2-x,-y,1/2-z
1/2+x,y,1/2-z
1/2-x,y,1/2+z
1/2+x,-y,1/2+z
1/2+x,1/2+y,z
1/2-x,1/2-y,z
1/2+x,1/2-y,-z
1/2-x,1/2+y,-z
1/2-x,1/2-y,-z
1/2+x,1/2+y,-z
1/2-x,1/2+y,z
1/2+x,1/2-y,z
loop_
_atom_site_type_symbol
_atom_site_label
_atom_site_fract_x
_atom_site_fract_y
_atom_site_fract_z
Si Si1 0.326616 0.771808 0.084082
Si Si2 0.269198 0.142995 0.829179
Si Si3 0.869392 0.058878 0.338587
Si Si4 0.076593 0.440976 0.000000
Si Si5 0.136335 0.169168 0.913314
Si Si6 0.500000 0.892730 0.585401
Si Si7 0.500000 0.441811 0.757974
O O1 0.250000 0.750000 0.083727
O O2 0.321706 0.820311 0.131767
O O3 0.369276 0.725547 0.112479
O O4 0.345632 0.783652 0.000000
O O5 0.250000 0.163753 0.750000
O O6 0.303723 0.090497 0.819875
O O7 0.199583 0.142912 0.874932
O O8 0.887533 0.071202 0.423453
O O9 0.932194 0.073951 0.285923
O O10 0.860171 0.000000 0.332773
O O11 0.072274 0.500000 0.000000
O O12 0.000000 0.421661 0.000000
O O13 0.067104 0.140024 0.906291
O O14 0.152907 0.172614 0.000000
O O15 0.500000 0.912171 0.500000
O O16 0.500000 0.927955 0.656120
O O17 0.500000 0.500000 0.751831
#
# Coordination Sequence:
#
# PCOD9512761 Si02
#       7
#    32  32  32  16  32  16  16
#     4   8  16  32  52  72  99 136 174 214 262 314
#     4  11  21  32  52  81 112 143 181 220 266 322
#     4  10  21  35  55  80 110 146 180 225 279 329
#     4   9  16  32  56  80 101 133 183 223 270 334
#     4   9  19  36  56  78 106 142 182 221 268 322
#     4  10  20  37  62  82 105 145 187 226 267 318
#     4  10  20  38  57  77 110 146 183 222 269 328
#
# _framework density 17.904503999999999
#
# number of rings (size 3 to 8) (size 9 to 14) (size 15 to 20)
#    0.000    2.455    0.909    2.727    2.545    3.818 
#    0.000    1.818    0.000    3.273    0.000    0.000 
#    0.000    0.000    0.000    0.000    0.000    0.000 
#
# Total GULP energy -245098.775159 kJ/mol
# GULP energy per Si atom -5570.426708 kJ/mol
# Density = 1.786375 g / cm^3
# Si number density = 17.904504 Si / 1000 Ang^3
#
#
#
# Elastic Constant Matrix: (Units=GPa)
#
#
# Indices 1 2 3 4 5 6 
#
# 1 77.0928 29.9382 31.4316 0.0000 0.0000 0.0000
# 2 29.9382 53.2514 23.3808 0.0000 0.0000 0.0000
# 3 31.4316 23.3808 85.7762 0.0000 0.0000 0.0000
# 4 0.0000 0.0000 0.0000 14.9826 0.0000 0.0000
# 5 0.0000 0.0000 0.0000 0.0000 13.7753 0.0000
# 6 0.0000 0.0000 0.0000 0.0000 0.0000 18.6036
#
#
#
# Elastic Compliance Matrix: (Units=1/GPa)
#
#
# Indices 1 2 3 4 5 6 
#
# 1 0.017911 -0.008165 -0.004338 0.000000 0.000000 0.000000
# 2 -0.008165 0.025054 -0.003837 0.000000 0.000000 0.000000
# 3 -0.004338 -0.003837 0.014294 0.000000 0.000000 0.000000
# 4 0.000000 0.000000 0.000000 0.066744 0.000000 0.000000
# 5 0.000000 0.000000 0.000000 0.000000 0.072594 0.000000
# 6 0.000000 0.000000 0.000000 0.000000 0.000000 0.053753
#
#
# Mechanical properties :
#
#
# Convention : Reuss Voigt Hill
#
# Bulk Modulus (GPa) = 40.68552 42.84686 41.76619
# Shear Modulus (GPa) = 17.16905 18.23029 17.69967
#
# Velocity S-wave (km/s) = 3.10001 3.19438 3.14755
# Velocity P-wave (km/s) = 5.96543 6.13092 6.04874
#
# Compressibility (1/GPa) = 0.02457877
#
# Stress axis : x y z
#
# Youngs Moduli (GPa) = 55.83272 39.91371 69.96129
#
# Poissons Ratio (x) = 0.32590 0.30346
# Poissons Ratio (y) = 0.45587 0.26846
# Poissons Ratio (z) = 0.24218 0.15316
#
# Static dielectric constant tensor:
#      x y z
#    x 1.612260 0.000000 0.000000 
#    y 0.000000 1.635860 0.000000 
#    z 0.000000 0.000000 1.642320 
# 
# From -- ./inp_files/23288.got.cif
#   From: 2010.05.17/outbox.cif.g08.bks.cpg/sg69_12_cif.got.tgz:23288.got - 2010.06.03 19:29:58.
