data_PCOD9512927
_publ_section_title
;
Structure prediction by ZEFSAII (Michael W. Deem and Ramdas Pophale) SiO2 
 PCOD9512927
Probable space group: F M M M
;
_chemical_formula_sum "Si O2"
_cell_formula_units_Z 144
_cell_length_a 7.413934
_cell_length_b 28.336792
_cell_length_c 28.289820
_cell_angle_alpha 90.000000
_cell_angle_beta 90.000000
_cell_angle_gamma 90.000000
_cell_volume 5943.326403
_symmetry_space_group_name_H-M "F M M M"
_symmetry_group_IT_number 69
_symmetry_cell_setting 'orthorhombic'
loop_
_space_group_symop_operation_xyz
x,y,z
-x,-y,z
x,-y,-z
-x,y,-z
-x,-y,-z
x,y,-z
-x,y,z
x,-y,z
x,1/2+y,1/2+z
-x,1/2-y,1/2+z
x,1/2-y,1/2-z
-x,1/2+y,1/2-z
-x,1/2-y,1/2-z
x,1/2+y,1/2-z
-x,1/2+y,1/2+z
x,1/2-y,1/2+z
1/2+x,y,1/2+z
1/2-x,-y,1/2+z
1/2+x,-y,1/2-z
1/2-x,y,1/2-z
1/2-x,-y,1/2-z
1/2+x,y,1/2-z
1/2-x,y,1/2+z
1/2+x,-y,1/2+z
1/2+x,1/2+y,z
1/2-x,1/2-y,z
1/2+x,1/2-y,-z
1/2-x,1/2+y,-z
1/2-x,1/2-y,-z
1/2+x,1/2+y,-z
1/2-x,1/2+y,z
1/2+x,1/2-y,z
loop_
_atom_site_type_symbol
_atom_site_label
_atom_site_fract_x
_atom_site_fract_y
_atom_site_fract_z
Si Si1 0.780445 0.555364 0.602459
Si Si2 0.715697 0.695135 0.154988
Si Si3 0.283936 0.442677 0.000000
Si Si4 0.284781 0.103409 0.698212
Si Si5 0.784247 0.806539 0.949225
O O1 0.738440 0.500000 0.603427
O O2 0.717664 0.574637 0.551260
O O3 0.715446 0.577469 0.651375
O O4 0.000000 0.559767 0.601754
O O5 0.500000 0.691398 0.152442
O O6 0.750000 0.750000 0.164086
O O7 0.780851 0.657506 0.193156
O O8 0.784050 0.679827 0.102695
O O9 0.258944 0.500000 0.000000
O O10 0.500000 0.434616 0.000000
O O11 0.500000 0.102991 0.694088
O O12 0.250000 0.083358 0.750000
O O13 0.750000 0.750000 0.949863
O O14 0.000000 0.814838 0.949291
O O15 0.715419 0.824733 0.000000
#
# Coordination Sequence:
#
# PCOD9512927 Si02
#       5
#    32  32  16  32  32
#     4   8  14  27  48  74 103 130 156 193 243 293
#     4   9  18  32  48  67  92 123 161 202 243 285
#     4   7  10  20  42  72 102 127 151 187 239 291
#     4  10  21  35  49  70  99 129 165 206 243 285
#     4   8  13  23  40  61  85 112 142 180 228 279
#
# _framework density 24.228856
#
# number of rings (size 3 to 8) (size 9 to 14) (size 15 to 20)
#    0.000    3.444    0.000    1.333    0.000    1.778 
#    2.000    2.222    0.000    0.000    0.000    0.778 
#    0.000    2.667    0.000    0.000    0.000    0.000 
#
# Total GULP energy -200755.936723 kJ/mol
# GULP energy per Si atom -5576.553798 kJ/mol
# Density = 2.417371 g / cm^3
# Si number density = 24.228856 Si / 1000 Ang^3
#
#
#
# Elastic Constant Matrix: (Units=GPa)
#
#
# Indices 1 2 3 4 5 6 
#
# 1 77.0033 -0.8076 4.2123 0.0000 0.0000 0.0000
# 2 -0.8076 60.2834 70.9767 0.0000 0.0000 0.0000
# 3 4.2123 70.9767 230.4428 0.0000 0.0000 0.0000
# 4 0.0000 0.0000 0.0000 30.1282 0.0000 0.0000
# 5 0.0000 0.0000 0.0000 0.0000 14.6745 0.0000
# 6 0.0000 0.0000 0.0000 0.0000 0.0000 -3.8477
#
#
#
# Elastic Compliance Matrix: (Units=1/GPa)
#
#
# Indices 1 2 3 4 5 6 
#
# 1 0.013019 0.000713 -0.000458 0.000000 0.000000 0.000000
# 2 0.000713 0.026065 -0.008041 0.000000 0.000000 0.000000
# 3 -0.000458 -0.008041 0.006825 0.000000 0.000000 0.000000
# 4 0.000000 0.000000 0.000000 0.033191 0.000000 0.000000
# 5 0.000000 0.000000 0.000000 0.000000 0.068146 0.000000
# 6 0.000000 0.000000 0.000000 0.000000 0.000000 -0.259895
#
#
# Mechanical properties :
#
#
# Convention : Reuss Voigt Hill
#
# Bulk Modulus (GPa) = 32.96231 57.38804 45.17517
# Shear Modulus (GPa) = -57.49430 27.74755 -14.87338
#
# Velocity S-wave (km/s) = -4.87660 3.38779 -2.48033
# Velocity P-wave (km/s) = 4.25137 6.24821 3.23774
#
# Compressibility (1/GPa) = 0.03033768
#
# Stress axis : x y z
#
# Youngs Moduli (GPa) = 76.81102 38.36492 146.52981
#
# Poissons Ratio (x) = -0.02736 0.06706
# Poissons Ratio (y) = -0.05478 1.17828
# Poissons Ratio (z) = 0.03515 0.30850
#
# Static dielectric constant tensor:
#      x y z
#    x 1.956660 0.000000 0.000000 
#    y 0.000000 1.954290 0.000000 
#    z 0.000000 0.000000 1.969150 
# 
# From -- ./inp_files/11431.got.cif
#   From: 2010.05.17/outbox.cif.g08.bks.cpg/sg69_6_cif.got.tgz:11431.got - 2010.06.03 19:29:58.
