data_PCOD9512954
_publ_section_title
;
Structure prediction by ZEFSAII (Michael W. Deem and Ramdas Pophale) SiO2 
 PCOD9512954
Probable space group: F M M M
;
_chemical_formula_sum "Si O2"
_cell_formula_units_Z 160
_cell_length_a 21.213489
_cell_length_b 14.859258
_cell_length_c 25.377385
_cell_angle_alpha 90.000000
_cell_angle_beta 90.000000
_cell_angle_gamma 90.000000
_cell_volume 7999.375710
_symmetry_space_group_name_H-M "F M M M"
_symmetry_group_IT_number 69
_symmetry_cell_setting 'orthorhombic'
loop_
_space_group_symop_operation_xyz
x,y,z
-x,-y,z
x,-y,-z
-x,y,-z
-x,-y,-z
x,y,-z
-x,y,z
x,-y,z
x,1/2+y,1/2+z
-x,1/2-y,1/2+z
x,1/2-y,1/2-z
-x,1/2+y,1/2-z
-x,1/2-y,1/2-z
x,1/2+y,1/2-z
-x,1/2+y,1/2+z
x,1/2-y,1/2+z
1/2+x,y,1/2+z
1/2-x,-y,1/2+z
1/2+x,-y,1/2-z
1/2-x,y,1/2-z
1/2-x,-y,1/2-z
1/2+x,y,1/2-z
1/2-x,y,1/2+z
1/2+x,-y,1/2+z
1/2+x,1/2+y,z
1/2-x,1/2-y,z
1/2+x,1/2-y,-z
1/2-x,1/2+y,-z
1/2-x,1/2-y,-z
1/2+x,1/2+y,-z
1/2-x,1/2+y,z
1/2+x,1/2-y,z
loop_
_atom_site_type_symbol
_atom_site_label
_atom_site_fract_x
_atom_site_fract_y
_atom_site_fract_z
Si Si1 0.326699 0.604483 0.559674
Si Si2 0.928610 0.774458 0.612371
Si Si3 0.892598 0.103967 0.290232
Si Si4 0.386132 0.601350 0.828406
Si Si5 0.242895 0.643373 0.165290
O O1 0.303811 0.615922 0.500000
O O2 0.347696 0.500000 0.565700
O O3 0.382591 0.673946 0.572465
O O4 0.275566 0.622844 0.604833
O O5 0.923115 0.832596 0.666231
O O6 0.905594 0.675315 0.629006
O O7 0.000000 0.772414 0.593695
O O8 0.908832 0.128026 0.230250
O O9 0.816963 0.112064 0.300510
O O10 0.910099 0.000000 0.298753
O O11 0.407871 0.500000 0.840118
O O12 0.310289 0.601211 0.823773
O O13 0.250000 0.750000 0.172900
#
# Coordination Sequence:
#
# PCOD9512954 Si02
#       5
#    32  32  32  32  32
#     4  10  22  41  64  89 113 138 178 236 300 356
#     4  11  23  39  57  81 113 150 194 242 283 325
#     4  10  21  35  55  84 116 152 192 233 278 333
#     4  11  22  36  55  82 118 159 193 223 271 332
#     4  11  19  34  59  87 117 149 184 227 285 341
#
# _framework density 20.001560999999999
#
# number of rings (size 3 to 8) (size 9 to 14) (size 15 to 20)
#    0.000    1.400    4.000    4.800    0.000    6.800 
#    0.000    3.000    0.000    0.600    0.000    1.400 
#    0.000    0.000    0.000    0.000    0.000    0.000 
#
# Total GULP energy -223520.344186 kJ/mol
# GULP energy per Si atom -5588.008605 kJ/mol
# Density = 1.995604 g / cm^3
# Si number density = 20.001561 Si / 1000 Ang^3
#
#
#
# Elastic Constant Matrix: (Units=GPa)
#
#
# Indices 1 2 3 4 5 6 
#
# 1 27.5491 -15.1571 -0.8718 0.0000 0.0000 0.0000
# 2 -15.1571 100.2058 16.8604 0.0000 0.0000 0.0000
# 3 -0.8718 16.8604 65.2240 0.0000 0.0000 0.0000
# 4 0.0000 0.0000 0.0000 27.7433 0.0000 0.0000
# 5 0.0000 0.0000 0.0000 0.0000 -6.6993 0.0000
# 6 0.0000 0.0000 0.0000 0.0000 0.0000 -84.5033
#
#
#
# Elastic Compliance Matrix: (Units=1/GPa)
#
#
# Indices 1 2 3 4 5 6 
#
# 1 0.039665 0.006179 -0.001067 0.000000 0.000000 0.000000
# 2 0.006179 0.011396 -0.002863 0.000000 0.000000 0.000000
# 3 -0.001067 -0.002863 0.016058 0.000000 0.000000 0.000000
# 4 0.000000 0.000000 0.000000 0.036045 0.000000 0.000000
# 5 0.000000 0.000000 0.000000 0.000000 -0.149269 0.000000
# 6 0.000000 0.000000 0.000000 0.000000 0.000000 -0.011834
#
#
# Mechanical properties :
#
#
# Convention : Reuss Voigt Hill
#
# Bulk Modulus (GPa) = 13.96339 21.62690 17.79514
# Shear Modulus (GPa) = -129.65130 0.11794 -64.76668
#
# Velocity S-wave (km/s) = -8.05986 0.24310 -5.69659
# Velocity P-wave (km/s) = 8.92294 3.30377 5.86105
#
# Compressibility (1/GPa) = 0.07161586
#
# Stress axis : x y z
#
# Youngs Moduli (GPa) = 25.21131 87.75095 62.27554
#
# Poissons Ratio (x) = -0.54223 0.06646
# Poissons Ratio (y) = -0.15579 0.17831
# Poissons Ratio (z) = 0.02691 0.25125
#
# Static dielectric constant tensor:
#      x y z
#    x 1.707730 0.000000 0.000000 
#    y 0.000000 1.720430 0.000000 
#    z 0.000000 0.000000 1.680650 
# 
# From -- ./inp_files/17703.got.cif
#   From: 2010.05.17/outbox.cif.g08.bks.cpg/sg69_9_cif.got.tgz:17703.got - 2010.06.03 19:29:58.
