data_PCOD9512078
_publ_section_title
;
Structure prediction by ZEFSAII (Michael W. Deem and Ramdas Pophale) SiO2 
 PCOD9512078
Probable space group: F M M M
;
_chemical_formula_sum "Si O2"
_cell_formula_units_Z 160
_cell_length_a 24.522372
_cell_length_b 25.555444
_cell_length_c 11.823066
_cell_angle_alpha 90.000000
_cell_angle_beta 90.000000
_cell_angle_gamma 90.000000
_cell_volume 7409.280235
_symmetry_space_group_name_H-M "F M M M"
_symmetry_group_IT_number 69
_symmetry_cell_setting 'orthorhombic'
loop_
_space_group_symop_operation_xyz
x,y,z
-x,-y,z
x,-y,-z
-x,y,-z
-x,-y,-z
x,y,-z
-x,y,z
x,-y,z
x,1/2+y,1/2+z
-x,1/2-y,1/2+z
x,1/2-y,1/2-z
-x,1/2+y,1/2-z
-x,1/2-y,1/2-z
x,1/2+y,1/2-z
-x,1/2+y,1/2+z
x,1/2-y,1/2+z
1/2+x,y,1/2+z
1/2-x,-y,1/2+z
1/2+x,-y,1/2-z
1/2-x,y,1/2-z
1/2-x,-y,1/2-z
1/2+x,y,1/2-z
1/2-x,y,1/2+z
1/2+x,-y,1/2+z
1/2+x,1/2+y,z
1/2-x,1/2-y,z
1/2+x,1/2-y,-z
1/2-x,1/2+y,-z
1/2-x,1/2-y,-z
1/2+x,1/2+y,-z
1/2-x,1/2+y,z
1/2+x,1/2-y,z
loop_
_atom_site_type_symbol
_atom_site_label
_atom_site_fract_x
_atom_site_fract_y
_atom_site_fract_z
Si Si1 0.562023 0.084874 0.192683
Si Si2 0.565052 0.500000 0.877535
Si Si3 0.822911 0.058801 0.625866
Si Si4 0.323122 0.218473 0.372487
Si Si5 0.750000 0.640510 0.750000
Si Si6 0.440519 0.806694 0.308323
O O1 0.500000 0.070978 0.157225
O O2 0.575464 0.052326 0.306764
O O3 0.612389 0.068266 0.117535
O O4 0.563231 0.146423 0.217945
O O5 0.500000 0.500000 0.889902
O O6 0.591643 0.500000 0.000000
O O7 0.799122 0.061951 0.500000
O O8 0.797002 0.103277 0.702297
O O9 0.813717 0.000000 0.670234
O O10 0.315821 0.242482 0.500000
O O11 0.322082 0.250000 0.250000
O O12 0.275984 0.176363 0.348128
O O13 0.383751 0.193584 0.374303
O O14 0.500000 0.814429 0.365857
O O15 0.442716 0.750000 0.250000
#
# Coordination Sequence:
#
# PCOD9512078 Si02
#       6
#    32  16  32  32  16  32
#     4  10  19  37  63  94 131 168 214 267 328 402
#     4   9  18  32  55  88 125 164 204 255 318 388
#     4  11  24  42  65  93 129 171 217 276 341 404
#     4  11  25  44  70 102 133 173 223 278 336 397
#     4  12  24  46  66  90 126 176 230 278 322 398
#     4   9  19  39  64  95 133 172 213 264 327 398
#
# _framework density 21.594539999999999
#
# number of rings (size 3 to 8) (size 9 to 14) (size 15 to 20)
#    0.000    1.700    3.000    1.200    0.000    4.000 
#    0.000    3.000    0.000    3.600    0.000    0.000 
#    0.000    0.000    0.000    0.000    0.000    0.000 
#
# Total GULP energy -222749.759961 kJ/mol
# GULP energy per Si atom -5568.743999 kJ/mol
# Density = 2.154539 g / cm^3
# Si number density = 21.594540 Si / 1000 Ang^3
#
#
#
# Elastic Constant Matrix: (Units=GPa)
#
#
# Indices 1 2 3 4 5 6 
#
# 1 116.1930 7.7032 24.2151 0.0000 0.0000 0.0000
# 2 7.7032 85.7356 26.2720 0.0000 0.0000 0.0000
# 3 24.2151 26.2720 109.8480 0.0001 0.0000 0.0000
# 4 0.0000 0.0000 0.0001 14.5315 0.0000 0.0000
# 5 0.0000 0.0000 0.0000 0.0000 4.2055 0.0000
# 6 0.0000 0.0000 0.0000 0.0000 0.0000 40.3738
#
#
#
# Elastic Compliance Matrix: (Units=1/GPa)
#
#
# Indices 1 2 3 4 5 6 
#
# 1 0.009025 -0.000217 -0.001937 0.000000 0.000000 0.000000
# 2 -0.000217 0.012591 -0.002964 0.000000 0.000000 0.000000
# 3 -0.001937 -0.002964 0.010239 0.000000 0.000000 0.000000
# 4 0.000000 0.000000 0.000000 0.068816 0.000000 0.000000
# 5 0.000000 0.000000 0.000000 0.000000 0.237786 0.000000
# 6 0.000000 0.000000 0.000000 0.000000 0.000000 0.024769
#
#
# Mechanical properties :
#
#
# Convention : Reuss Voigt Hill
#
# Bulk Modulus (GPa) = 46.25566 47.57301 46.91433
# Shear Modulus (GPa) = 13.13479 28.72791 20.93135
#
# Velocity S-wave (km/s) = 2.46894 3.65133 3.11672
# Velocity P-wave (km/s) = 5.44005 6.31302 5.89272
#
# Compressibility (1/GPa) = 0.02161898
#
# Stress axis : x y z
#
# Youngs Moduli (GPa) = 110.80892 79.41920 97.66219
#
# Poissons Ratio (x) = 0.01725 0.18922
# Poissons Ratio (y) = 0.02406 0.28943
# Poissons Ratio (z) = 0.21469 0.23537
#
# Static dielectric constant tensor:
#      x y z
#    x 1.810090 0.000000 0.000000 
#    y 0.000000 1.774150 0.000000 
#    z 0.000000 0.000000 1.818580 
# 
# From -- ./inp_files/12302.got.cif
#   From: 2010.05.17/outbox.cif.g08.bks.cpg/sg69_7_cif.got.tgz:12302.got - 2010.06.03 19:29:58.
