data_PCOD9512137
_publ_section_title
;
Structure prediction by ZEFSAII (Michael W. Deem and Ramdas Pophale) SiO2 
 PCOD9512137
Probable space group: F M M M
;
_chemical_formula_sum "Si O2"
_cell_formula_units_Z 176
_cell_length_a 13.941202
_cell_length_b 28.268997
_cell_length_c 23.931816
_cell_angle_alpha 90.000000
_cell_angle_beta 90.000000
_cell_angle_gamma 90.000000
_cell_volume 9431.619567
_symmetry_space_group_name_H-M "F M M M"
_symmetry_group_IT_number 69
_symmetry_cell_setting 'orthorhombic'
loop_
_space_group_symop_operation_xyz
x,y,z
-x,-y,z
x,-y,-z
-x,y,-z
-x,-y,-z
x,y,-z
-x,y,z
x,-y,z
x,1/2+y,1/2+z
-x,1/2-y,1/2+z
x,1/2-y,1/2-z
-x,1/2+y,1/2-z
-x,1/2-y,1/2-z
x,1/2+y,1/2-z
-x,1/2+y,1/2+z
x,1/2-y,1/2+z
1/2+x,y,1/2+z
1/2-x,-y,1/2+z
1/2+x,-y,1/2-z
1/2-x,y,1/2-z
1/2-x,-y,1/2-z
1/2+x,y,1/2-z
1/2-x,y,1/2+z
1/2+x,-y,1/2+z
1/2+x,1/2+y,z
1/2-x,1/2-y,z
1/2+x,1/2-y,-z
1/2-x,1/2+y,-z
1/2-x,1/2-y,-z
1/2+x,1/2+y,-z
1/2-x,1/2+y,z
1/2+x,1/2-y,z
loop_
_atom_site_type_symbol
_atom_site_label
_atom_site_fract_x
_atom_site_fract_y
_atom_site_fract_z
Si Si1 0.614322 0.276426 0.661542
Si Si2 0.384853 0.847607 0.063942
Si Si3 0.610471 0.164686 0.340146
Si Si4 0.309751 0.050788 0.067254
Si Si5 0.250000 0.325912 0.750000
Si Si6 0.607105 0.589265 0.065575
O O1 0.500000 0.283408 0.671081
O O2 0.644094 0.306949 0.607312
O O3 0.629449 0.220619 0.652809
O O4 0.674786 0.295335 0.713754
O O5 0.500000 0.846300 0.061120
O O6 0.355133 0.899588 0.085760
O O7 0.348250 0.841335 0.000000
O O8 0.500000 0.159709 0.321237
O O9 0.685233 0.146282 0.294333
O O10 0.619941 0.135899 0.397187
O O11 0.195938 0.055214 0.077384
O O12 0.345786 0.000000 0.088823
O O13 0.324852 0.050418 0.000000
O O14 0.500000 0.570043 0.076615
O O15 0.612127 0.601115 0.000000
#
# Coordination Sequence:
#
# PCOD9512137 Si02
#       6
#    32  32  32  32  16  32
#     4  10  20  32  48  71  97 127 162 196 232 277
#     4   9  18  32  49  71  99 127 156 192 234 282
#     4  10  20  32  48  71  97 127 162 196 232 277
#     4   9  17  29  46  69  97 127 157 190 231 281
#     4  12  21  32  48  66  95 132 165 200 236 268
#     4   9  18  32  49  71  99 127 156 192 234 282
#
# _framework density 18.660634999999999
#
# number of rings (size 3 to 8) (size 9 to 14) (size 15 to 20)
#    0.000    2.364    0.000    3.273    0.000    2.909 
#    0.000    7.273    0.000    5.455    0.000   10.182 
#    0.000   23.273    0.000    0.000    0.000    0.000 
#
# Total GULP energy -245351.879725 kJ/mol
# GULP energy per Si atom -5576.179085 kJ/mol
# Density = 1.861816 g / cm^3
# Si number density = 18.660635 Si / 1000 Ang^3
#
#
#
# Elastic Constant Matrix: (Units=GPa)
#
#
# Indices 1 2 3 4 5 6 
#
# 1 44.6652 13.4405 22.6745 0.0000 0.0000 0.0000
# 2 13.4405 47.0331 28.3734 0.0000 0.0000 0.0000
# 3 22.6745 28.3734 60.5357 0.0000 0.0000 0.0000
# 4 0.0000 0.0000 0.0000 2.0658 0.0000 0.0000
# 5 0.0000 0.0000 0.0000 0.0000 29.9850 0.0000
# 6 0.0000 0.0000 0.0000 0.0000 0.0000 -4.1265
#
#
#
# Elastic Compliance Matrix: (Units=1/GPa)
#
#
# Indices 1 2 3 4 5 6 
#
# 1 0.027826 -0.002320 -0.009335 0.000000 0.000000 0.000000
# 2 -0.002320 0.029837 -0.013116 0.000000 0.000000 0.000000
# 3 -0.009335 -0.013116 0.026163 0.000000 0.000000 0.000000
# 4 0.000000 0.000000 0.000000 0.484065 0.000000 0.000000
# 5 0.000000 0.000000 0.000000 0.000000 0.033350 0.000000
# 6 0.000000 0.000000 0.000000 0.000000 0.000000 -0.242339
#
#
# Mechanical properties :
#
#
# Convention : Reuss Voigt Hill
#
# Bulk Modulus (GPa) = 29.16805 31.24564 30.20685
# Shear Modulus (GPa) = 11.90838 11.43459 11.67149
#
# Velocity S-wave (km/s) = 2.52891 2.47809 2.50363
# Velocity P-wave (km/s) = 4.91853 4.99684 4.95784
#
# Compressibility (1/GPa) = 0.03428409
#
# Stress axis : x y z
#
# Youngs Moduli (GPa) = 35.93762 33.51567 38.22173
#
# Poissons Ratio (x) = 0.07776 0.35680
# Poissons Ratio (y) = 0.08338 0.50130
# Poissons Ratio (z) = 0.33548 0.43958
#
# Static dielectric constant tensor:
#      x y z
#    x 1.712340 0.000000 0.000000 
#    y 0.000000 1.632960 0.000000 
#    z 0.000000 0.000000 1.654040 
# 
# From -- ./inp_files/18092.got.cif
#   From: 2010.05.17/outbox.cif.g08.bks.cpg/sg69_10_cif.got.tgz:18092.got - 2010.06.03 19:29:58.
