data_PCOD9512969
_publ_section_title
;
Structure prediction by ZEFSAII (Michael W. Deem and Ramdas Pophale) SiO2 
 PCOD9512969
Probable space group: F M M M
;
_chemical_formula_sum "Si O2"
_cell_formula_units_Z 168
_cell_length_a 17.726343
_cell_length_b 21.472224
_cell_length_c 25.022172
_cell_angle_alpha 90.000000
_cell_angle_beta 90.000000
_cell_angle_gamma 90.000000
_cell_volume 9524.039385
_symmetry_space_group_name_H-M "F M M M"
_symmetry_group_IT_number 69
_symmetry_cell_setting 'orthorhombic'
loop_
_space_group_symop_operation_xyz
x,y,z
-x,-y,z
x,-y,-z
-x,y,-z
-x,-y,-z
x,y,-z
-x,y,z
x,-y,z
x,1/2+y,1/2+z
-x,1/2-y,1/2+z
x,1/2-y,1/2-z
-x,1/2+y,1/2-z
-x,1/2-y,1/2-z
x,1/2+y,1/2-z
-x,1/2+y,1/2+z
x,1/2-y,1/2+z
1/2+x,y,1/2+z
1/2-x,-y,1/2+z
1/2+x,-y,1/2-z
1/2-x,y,1/2-z
1/2-x,-y,1/2-z
1/2+x,y,1/2-z
1/2-x,y,1/2+z
1/2+x,-y,1/2+z
1/2+x,1/2+y,z
1/2-x,1/2-y,z
1/2+x,1/2-y,-z
1/2-x,1/2+y,-z
1/2-x,1/2-y,-z
1/2+x,1/2+y,-z
1/2-x,1/2+y,z
1/2+x,1/2-y,z
loop_
_atom_site_type_symbol
_atom_site_label
_atom_site_fract_x
_atom_site_fract_y
_atom_site_fract_z
Si Si1 0.587935 0.802487 0.437414
Si Si2 0.758676 0.500000 0.500000
Si Si3 0.410974 0.322410 0.267008
Si Si4 0.785999 0.603506 0.589860
Si Si5 0.822180 0.570292 0.710944
Si Si6 0.317767 0.293317 0.367506
O O1 0.594851 0.785791 0.500000
O O2 0.500000 0.809996 0.424524
O O3 0.635088 0.865087 0.427369
O O4 0.625755 0.750487 0.400218
O O5 0.761999 0.553650 0.546861
O O6 0.500000 0.332583 0.274833
O O7 0.400965 0.250000 0.250000
O O8 0.378004 0.373053 0.225830
O O9 0.363267 0.327840 0.321294
O O10 0.796443 0.577670 0.649754
O O11 0.724352 0.658300 0.594259
O O12 0.853663 0.500000 0.718497
O O13 0.750000 0.575926 0.750000
O O14 0.250000 0.250000 0.344434
#
# Coordination Sequence:
#
# PCOD9512969 Si02
#       6
#    32   8  32  32  32  32
#     4  10  21  37  58  88 123 157 199 250 304 362
#     4  12  24  40  61  92 117 152 206 260 296 344
#     4  11  23  38  61  94 127 160 202 250 306 369
#     4  11  22  39  63  88 119 155 201 251 298 361
#     4  11  23  40  62  89 121 162 206 245 304 361
#     4  10  21  35  61  90 118 158 197 250 303 357
#
# _framework density 17.639574
#
# number of rings (size 3 to 8) (size 9 to 14) (size 15 to 20)
#    0.000    1.333    3.810    2.857    1.333    3.810 
#    0.000    0.952    0.000    0.000    0.000    2.667 
#    0.000    0.000    0.000    0.000    0.000    0.000 
#
# Total GULP energy -233969.089375 kJ/mol
# GULP energy per Si atom -5570.692604 kJ/mol
# Density = 1.759943 g / cm^3
# Si number density = 17.639574 Si / 1000 Ang^3
#
#
#
# Elastic Constant Matrix: (Units=GPa)
#
#
# Indices 1 2 3 4 5 6 
#
# 1 63.3695 7.5442 9.6721 0.0000 0.0000 0.0000
# 2 7.5442 75.1385 -0.3158 0.0000 0.0000 0.0000
# 3 9.6721 -0.3158 77.9818 0.0000 0.0000 0.0000
# 4 0.0000 0.0000 0.0000 27.8876 0.0000 0.0000
# 5 0.0000 0.0000 0.0000 0.0000 20.1422 0.0000
# 6 0.0000 0.0000 0.0000 0.0000 0.0000 -2.2560
#
#
#
# Elastic Compliance Matrix: (Units=1/GPa)
#
#
# Indices 1 2 3 4 5 6 
#
# 1 0.016285 -0.001644 -0.002027 0.000000 0.000000 0.000000
# 2 -0.001644 0.013475 0.000258 0.000000 0.000000 0.000000
# 3 -0.002027 0.000258 0.013076 0.000000 0.000000 0.000000
# 4 0.000000 0.000000 0.000000 0.035858 0.000000 0.000000
# 5 0.000000 0.000000 0.000000 0.000000 0.049647 0.000000
# 6 0.000000 0.000000 0.000000 0.000000 0.000000 -0.443260
#
#
# Mechanical properties :
#
#
# Convention : Reuss Voigt Hill
#
# Bulk Modulus (GPa) = 27.76794 27.81006 27.78900
# Shear Modulus (GPa) = -16.88672 22.46072 2.78700
#
# Velocity S-wave (km/s) = -3.09742 3.57222 1.25833
# Velocity P-wave (km/s) = 1.72744 5.72838 4.23074
#
# Compressibility (1/GPa) = 0.03601275
#
# Stress axis : x y z
#
# Youngs Moduli (GPa) = 61.40448 74.21220 76.47657
#
# Poissons Ratio (x) = 0.12198 0.15498
# Poissons Ratio (y) = 0.10093 -0.01976
# Poissons Ratio (z) = 0.12444 -0.01918
#
# Static dielectric constant tensor:
#      x y z
#    x 1.582580 0.000000 0.000000 
#    y 0.000000 1.616980 0.000000 
#    z 0.000000 0.000000 1.597470 
# 
# From -- ./inp_files/17922.got.cif
#   From: 2010.05.17/outbox.cif.g08.bks.cpg/sg69_9_cif.got.tgz:17922.got - 2010.06.03 19:29:58.
