data_PCOD9512385
_publ_section_title
;
Structure prediction by ZEFSAII (Michael W. Deem and Ramdas Pophale) SiO2 
 PCOD9512385
Probable space group: F M M M
;
_chemical_formula_sum "Si O2"
_cell_formula_units_Z 200
_cell_length_a 21.153085
_cell_length_b 29.672329
_cell_length_c 14.581891
_cell_angle_alpha 90.000000
_cell_angle_beta 90.000000
_cell_angle_gamma 90.000000
_cell_volume 9152.488625
_symmetry_space_group_name_H-M "F M M M"
_symmetry_group_IT_number 69
_symmetry_cell_setting 'orthorhombic'
loop_
_space_group_symop_operation_xyz
x,y,z
-x,-y,z
x,-y,-z
-x,y,-z
-x,-y,-z
x,y,-z
-x,y,z
x,-y,z
x,1/2+y,1/2+z
-x,1/2-y,1/2+z
x,1/2-y,1/2-z
-x,1/2+y,1/2-z
-x,1/2-y,1/2-z
x,1/2+y,1/2-z
-x,1/2+y,1/2+z
x,1/2-y,1/2+z
1/2+x,y,1/2+z
1/2-x,-y,1/2+z
1/2+x,-y,1/2-z
1/2-x,y,1/2-z
1/2-x,-y,1/2-z
1/2+x,y,1/2-z
1/2-x,y,1/2+z
1/2+x,-y,1/2+z
1/2+x,1/2+y,z
1/2-x,1/2-y,z
1/2+x,1/2-y,-z
1/2-x,1/2+y,-z
1/2-x,1/2-y,-z
1/2+x,1/2+y,-z
1/2-x,1/2+y,z
1/2+x,1/2-y,z
loop_
_atom_site_type_symbol
_atom_site_label
_atom_site_fract_x
_atom_site_fract_y
_atom_site_fract_z
Si Si1 0.000000 0.835498 0.000000
Si Si2 0.110025 0.638821 0.642733
Si Si3 0.568352 0.225301 0.105619
Si Si4 0.179650 0.551124 0.363564
Si Si5 0.811139 0.721302 0.388282
Si Si6 0.571866 0.377540 0.647525
Si Si7 0.324089 0.551147 0.359501
O O1 0.056167 0.839474 0.079705
O O2 0.132827 0.590285 0.605912
O O3 0.171953 0.671219 0.645840
O O4 0.083265 0.630695 0.744237
O O5 0.500000 0.234496 0.148544
O O6 0.628426 0.250100 0.143939
O O7 0.578412 0.171949 0.105203
O O8 0.563683 0.240766 0.000000
O O9 0.163823 0.500000 0.391830
O O10 0.252345 0.560710 0.389927
O O11 0.177508 0.551638 0.252083
O O12 0.808716 0.718805 0.500000
O O13 0.750000 0.750000 0.359976
O O14 0.500000 0.393394 0.632068
O O15 0.624069 0.412458 0.612878
O O16 0.339991 0.500000 0.387119
#
# Coordination Sequence:
#
# PCOD9512385 Si02
#       7
#     8  32  32  32  32  32  32
#     4  12  24  40  59  86 118 172 194 228 303 360
#     4  11  22  37  59  82 116 155 197 238 286 348
#     4   9  20  37  58  79 108 149 183 228 296 356
#     4   8  16  33  55  81 110 148 194 235 284 337
#     4  10  22  38  57  82 111 150 199 243 295 351
#     4  10  20  34  55  88 118 145 194 244 282 345
#     4   8  15  30  55  81 110 149 188 234 289 341
#
# _framework density 21.851980000000001
#
# number of rings (size 3 to 8) (size 9 to 14) (size 15 to 20)
#    0.000    2.560    1.600    0.960    3.360    0.960 
#    0.000    3.600    0.000    0.480    0.000    2.240 
#    0.000    0.000    0.000    0.000    0.000    0.000 
#
# Total GULP energy -278725.947032 kJ/mol
# GULP energy per Si atom -5574.518941 kJ/mol
# Density = 2.180224 g / cm^3
# Si number density = 21.851980 Si / 1000 Ang^3
#
#
#
# Elastic Constant Matrix: (Units=GPa)
#
#
# Indices 1 2 3 4 5 6 
#
# 1 107.2523 78.9216 2.9135 0.0000 0.0000 0.0000
# 2 78.9216 109.6297 0.5447 0.0000 0.0000 0.0000
# 3 2.9135 0.5447 75.4924 0.0000 0.0000 0.0000
# 4 0.0000 0.0000 0.0000 20.0624 0.0000 0.0000
# 5 0.0000 0.0000 0.0000 0.0000 -57.1331 0.0000
# 6 0.0000 0.0000 0.0000 0.0000 0.0000 23.0676
#
#
#
# Elastic Compliance Matrix: (Units=1/GPa)
#
#
# Indices 1 2 3 4 5 6 
#
# 1 0.019860 -0.014294 -0.000663 0.000000 0.000000 0.000000
# 2 -0.014294 0.019409 0.000412 0.000000 0.000000 0.000000
# 3 -0.000663 0.000412 0.013269 0.000000 0.000000 0.000000
# 4 0.000000 0.000000 0.000000 0.049845 0.000000 0.000000
# 5 0.000000 0.000000 0.000000 0.000000 -0.017503 0.000000
# 6 0.000000 0.000000 0.000000 0.000000 0.000000 0.043351
#
#
# Mechanical properties :
#
#
# Convention : Reuss Voigt Hill
#
# Bulk Modulus (GPa) = 42.64839 50.79264 46.72052
# Shear Modulus (GPa) = 30.27786 11.19902 20.73844
#
# Velocity S-wave (km/s) = 3.72639 2.26629 3.08399
# Velocity P-wave (km/s) = 6.17041 5.49022 5.84022
#
# Compressibility (1/GPa) = 0.02344754
#
# Stress axis : x y z
#
# Youngs Moduli (GPa) = 50.35303 51.52133 75.36364
#
# Poissons Ratio (x) = 0.73643 0.04999
# Poissons Ratio (y) = 0.71973 -0.03102
# Poissons Ratio (z) = 0.03340 -0.02121
#
# Static dielectric constant tensor:
#      x y z
#    x 1.781660 0.000000 0.000000 
#    y 0.000000 1.802880 0.000000 
#    z 0.000000 0.000000 1.862700 
# 
# From -- ./inp_files/25179.got.cif
#   From: 2010.05.17/outbox.cif.g08.bks.cpg/sg69_13_cif.got.tgz:25179.got - 2010.06.03 19:29:58.
