data_PCOD9512612
_publ_section_title
;
Structure prediction by ZEFSAII (Michael W. Deem and Ramdas Pophale) SiO2 
 PCOD9512612
Probable space group: F M M M
;
_chemical_formula_sum "Si O2"
_cell_formula_units_Z 136
_cell_length_a 14.495242
_cell_length_b 24.094091
_cell_length_c 19.078177
_cell_angle_alpha 90.000000
_cell_angle_beta 90.000000
_cell_angle_gamma 90.000000
_cell_volume 6663.047209
_symmetry_space_group_name_H-M "F M M M"
_symmetry_group_IT_number 69
_symmetry_cell_setting 'orthorhombic'
loop_
_space_group_symop_operation_xyz
x,y,z
-x,-y,z
x,-y,-z
-x,y,-z
-x,-y,-z
x,y,-z
-x,y,z
x,-y,z
x,1/2+y,1/2+z
-x,1/2-y,1/2+z
x,1/2-y,1/2-z
-x,1/2+y,1/2-z
-x,1/2-y,1/2-z
x,1/2+y,1/2-z
-x,1/2+y,1/2+z
x,1/2-y,1/2+z
1/2+x,y,1/2+z
1/2-x,-y,1/2+z
1/2+x,-y,1/2-z
1/2-x,y,1/2-z
1/2-x,-y,1/2-z
1/2+x,y,1/2-z
1/2-x,y,1/2+z
1/2+x,-y,1/2+z
1/2+x,1/2+y,z
1/2-x,1/2-y,z
1/2+x,1/2-y,-z
1/2-x,1/2+y,-z
1/2-x,1/2-y,-z
1/2+x,1/2+y,-z
1/2-x,1/2+y,z
1/2+x,1/2-y,z
loop_
_atom_site_type_symbol
_atom_site_label
_atom_site_fract_x
_atom_site_fract_y
_atom_site_fract_z
Si Si1 0.000000 0.599720 0.000000
Si Si2 0.500000 0.436107 0.893507
Si Si3 0.662259 0.355066 0.919685
Si Si4 0.000000 0.435121 0.774250
Si Si5 0.638328 0.250043 0.169392
Si Si6 0.632494 0.627270 0.372778
O O1 0.920052 0.602046 0.061209
O O2 0.500000 0.500000 0.913629
O O3 0.590094 0.404611 0.919935
O O4 0.500000 0.432173 0.809064
O O5 0.617305 0.304367 0.875898
O O6 0.757619 0.373887 0.883170
O O7 0.682402 0.337147 0.000000
O O8 0.910261 0.404180 0.805970
O O9 0.000000 0.500000 0.795551
O O10 0.606559 0.250000 0.250000
O O11 0.750000 0.250000 0.171235
O O12 0.608758 0.192687 0.133867
#
# Coordination Sequence:
#
# PCOD9512612 Si02
#       6
#     8  16  32  16  32  32
#     4  10  20  36  57  90 118 158 195 244 314 368
#     4  11  26  45  63  88 127 166 217 268 309 371
#     4  11  23  40  65  95 129 170 211 254 318 384
#     4  10  23  43  65  92 121 163 218 271 314 372
#     4   9  19  35  60  93 128 165 208 256 308 373
#     4  10  21  39  65  90 129 161 205 259 320 369
#
# _framework density 20.411082
#
# number of rings (size 3 to 8) (size 9 to 14) (size 15 to 20)
#    0.000    1.882    1.176    1.765    1.647    8.000 
#    0.000   11.176    0.000    0.000    0.000    0.000 
#    0.000    0.000    0.000    0.000    0.000    0.000 
#
# Total GULP energy -189412.217019 kJ/mol
# GULP energy per Si atom -5570.947559 kJ/mol
# Density = 2.036463 g / cm^3
# Si number density = 20.411082 Si / 1000 Ang^3
#
#
#
# Elastic Constant Matrix: (Units=GPa)
#
#
# Indices 1 2 3 4 5 6 
#
# 1 124.4588 41.0132 12.1634 0.0000 0.0000 0.0000
# 2 41.0132 113.2656 24.0412 0.0000 0.0000 0.0000
# 3 12.1634 24.0412 96.3650 0.0000 0.0000 0.0000
# 4 0.0000 0.0000 0.0000 -119.6152 0.0000 0.0000
# 5 0.0000 0.0000 0.0000 0.0000 21.5474 0.0000
# 6 0.0000 0.0000 0.0000 0.0000 0.0000 -6.8452
#
#
#
# Elastic Compliance Matrix: (Units=1/GPa)
#
#
# Indices 1 2 3 4 5 6 
#
# 1 0.009134 -0.003234 -0.000346 0.000000 0.000000 0.000000
# 2 -0.003234 0.010467 -0.002203 0.000000 0.000000 0.000000
# 3 -0.000346 -0.002203 0.010971 0.000000 0.000000 0.000000
# 4 0.000000 0.000000 0.000000 -0.008360 0.000000 0.000000
# 5 0.000000 0.000000 0.000000 0.000000 0.046409 0.000000
# 6 0.000000 0.000000 0.000000 0.000000 0.000000 -0.146088
#
#
# Mechanical properties :
#
#
# Convention : Reuss Voigt Hill
#
# Bulk Modulus (GPa) = 52.61609 54.28054 53.44832
# Shear Modulus (GPa) = -83.94231 -3.85783 -43.90007
#
# Velocity S-wave (km/s) = -6.41990 -1.37629 -4.64270
# Velocity P-wave (km/s) = 5.39623 4.91181 1.58011
#
# Compressibility (1/GPa) = 0.01900559
#
# Stress axis : x y z
#
# Youngs Moduli (GPa) = 109.47699 95.53380 91.15299
#
# Poissons Ratio (x) = 0.30896 0.03155
# Poissons Ratio (y) = 0.35405 0.20083
# Poissons Ratio (z) = 0.03789 0.21048
#
# Static dielectric constant tensor:
#      x y z
#    x 1.738800 0.000000 0.000000 
#    y 0.000000 1.715760 0.000000 
#    z 0.000000 0.000000 1.717630 
# 
# From -- ./inp_files/29821.got.cif
#   From: 2010.05.17/outbox.cif.g08.bks.cpg/sg69_15_cif.got.tgz:29821.got - 2010.06.03 19:29:58.
