data_PCOD9512090
_publ_section_title
;
Structure prediction by ZEFSAII (Michael W. Deem and Ramdas Pophale) SiO2 
 PCOD9512090
Probable space group: F M M M
;
_chemical_formula_sum "Si O2"
_cell_formula_units_Z 160
_cell_length_a 34.339197
_cell_length_b 13.770567
_cell_length_c 18.029240
_cell_angle_alpha 90.000000
_cell_angle_beta 90.000000
_cell_angle_gamma 90.000000
_cell_volume 8525.490559
_symmetry_space_group_name_H-M "F M M M"
_symmetry_group_IT_number 69
_symmetry_cell_setting 'orthorhombic'
loop_
_space_group_symop_operation_xyz
x,y,z
-x,-y,z
x,-y,-z
-x,y,-z
-x,-y,-z
x,y,-z
-x,y,z
x,-y,z
x,1/2+y,1/2+z
-x,1/2-y,1/2+z
x,1/2-y,1/2-z
-x,1/2+y,1/2-z
-x,1/2-y,1/2-z
x,1/2+y,1/2-z
-x,1/2+y,1/2+z
x,1/2-y,1/2+z
1/2+x,y,1/2+z
1/2-x,-y,1/2+z
1/2+x,-y,1/2-z
1/2-x,y,1/2-z
1/2-x,-y,1/2-z
1/2+x,y,1/2-z
1/2-x,y,1/2+z
1/2+x,-y,1/2+z
1/2+x,1/2+y,z
1/2-x,1/2-y,z
1/2+x,1/2-y,-z
1/2-x,1/2+y,-z
1/2-x,1/2-y,-z
1/2+x,1/2+y,-z
1/2-x,1/2+y,z
1/2+x,1/2-y,z
loop_
_atom_site_type_symbol
_atom_site_label
_atom_site_fract_x
_atom_site_fract_y
_atom_site_fract_z
Si Si1 0.167772 0.000000 0.160486
Si Si2 0.293841 0.000000 0.188001
Si Si3 0.000000 0.883680 0.410925
Si Si4 0.143630 0.303806 0.586068
Si Si5 0.782583 0.667687 0.916934
Si Si6 0.425658 0.298717 0.671369
Si Si7 0.117905 0.000000 0.701867
O O1 0.164704 0.098141 0.114041
O O2 0.201928 0.000000 0.222961
O O3 0.129122 0.000000 0.211685
O O4 0.276123 0.906344 0.149524
O O5 0.339667 0.000000 0.163309
O O6 0.962621 0.827709 0.378166
O O7 0.000000 0.880012 0.500000
O O8 0.000000 0.000000 0.390255
O O9 0.133218 0.315271 0.500000
O O10 0.175712 0.219097 0.592534
O O11 0.105702 0.272250 0.632186
O O12 0.750000 0.750000 0.914976
O O13 0.781263 0.622995 0.000000
O O14 0.436635 0.250000 0.750000
O O15 0.404370 0.401826 0.684057
#
# Coordination Sequence:
#
# PCOD9512090 Si02
#       7
#    16  16  16  32  32  32  16
#     4  10  21  38  60  88 121 153 204 266 294 372
#     4  10  19  38  62  86 117 161 205 261 308 367
#     4  11  25  40  58  95 133 159 199 257 313 366
#     4  11  22  38  62  88 120 164 204 251 314 370
#     4  10  22  38  58  87 121 159 205 256 312 373
#     4  12  21  41  66  90 123 164 206 254 304 373
#     4  10  20  35  65  91 120 150 206 253 305 356
#
# _framework density 18.767249
#
# number of rings (size 3 to 8) (size 9 to 14) (size 15 to 20)
#    0.600    0.700    5.000    1.500    0.000    0.800 
#    0.000    6.000    0.000    0.000    0.000    2.800 
#    0.000    0.000    0.000    0.000    0.000    0.000 
#
# Total GULP energy -223184.426932 kJ/mol
# GULP energy per Si atom -5579.610673 kJ/mol
# Density = 1.872453 g / cm^3
# Si number density = 18.767249 Si / 1000 Ang^3
#
#
#
# Elastic Constant Matrix: (Units=GPa)
#
#
# Indices 1 2 3 4 5 6 
#
# 1 71.3075 13.8319 38.5613 0.0000 0.0000 0.0000
# 2 13.8319 107.2064 58.0101 0.0000 0.0000 0.0000
# 3 38.5613 58.0101 120.8080 0.0000 0.0000 0.0000
# 4 0.0000 0.0000 0.0000 30.3829 0.0000 0.0000
# 5 0.0000 0.0000 0.0000 0.0000 33.3952 0.0000
# 6 0.0000 0.0000 0.0000 0.0000 0.0000 24.7207
#
#
#
# Elastic Compliance Matrix: (Units=1/GPa)
#
#
# Indices 1 2 3 4 5 6 
#
# 1 0.017029 0.001005 -0.005918 0.000000 0.000000 0.000000
# 2 0.001005 0.012662 -0.006401 0.000000 0.000000 0.000000
# 3 -0.005918 -0.006401 0.013240 0.000000 0.000000 0.000000
# 4 0.000000 0.000000 0.000000 0.032913 0.000000 0.000000
# 5 0.000000 0.000000 0.000000 0.000000 0.029944 0.000000
# 6 0.000000 0.000000 0.000000 0.000000 0.000000 0.040452
#
#
# Mechanical properties :
#
#
# Convention : Reuss Voigt Hill
#
# Bulk Modulus (GPa) = 49.25275 57.79207 53.52241
# Shear Modulus (GPa) = 28.46792 30.29433 29.38113
#
# Velocity S-wave (km/s) = 3.89896 4.02209 3.96100
# Velocity P-wave (km/s) = 6.82423 7.24089 7.03565
#
# Compressibility (1/GPa) = 0.02030343
#
# Stress axis : x y z
#
# Youngs Moduli (GPa) = 58.72239 78.97895 75.52706
#
# Poissons Ratio (x) = -0.07940 0.44700
# Poissons Ratio (y) = -0.05904 0.48343
# Poissons Ratio (z) = 0.34754 0.50553
#
# Static dielectric constant tensor:
#      x y z
#    x 1.653400 0.000000 0.000000 
#    y 0.000000 1.636390 0.000000 
#    z 0.000000 0.000000 1.650790 
# 
# From -- ./inp_files/27533.got.cif
#   From: 2010.05.17/outbox.cif.g08.bks.cpg/sg69_14_cif.got.tgz:27533.got - 2010.06.03 19:29:58.
