data_PCOD9512662
_publ_section_title
;
Structure prediction by ZEFSAII (Michael W. Deem and Ramdas Pophale) SiO2 
 PCOD9512662
Probable space group: F M M M
;
_chemical_formula_sum "Si O2"
_cell_formula_units_Z 208
_cell_length_a 17.533827
_cell_length_b 21.850165
_cell_length_c 28.230127
_cell_angle_alpha 90.000000
_cell_angle_beta 90.000000
_cell_angle_gamma 90.000000
_cell_volume 10815.441934
_symmetry_space_group_name_H-M "F M M M"
_symmetry_group_IT_number 69
_symmetry_cell_setting 'orthorhombic'
loop_
_space_group_symop_operation_xyz
x,y,z
-x,-y,z
x,-y,-z
-x,y,-z
-x,-y,-z
x,y,-z
-x,y,z
x,-y,z
x,1/2+y,1/2+z
-x,1/2-y,1/2+z
x,1/2-y,1/2-z
-x,1/2+y,1/2-z
-x,1/2-y,1/2-z
x,1/2+y,1/2-z
-x,1/2+y,1/2+z
x,1/2-y,1/2+z
1/2+x,y,1/2+z
1/2-x,-y,1/2+z
1/2+x,-y,1/2-z
1/2-x,y,1/2-z
1/2-x,-y,1/2-z
1/2+x,y,1/2-z
1/2-x,y,1/2+z
1/2+x,-y,1/2+z
1/2+x,1/2+y,z
1/2-x,1/2-y,z
1/2+x,1/2-y,-z
1/2-x,1/2+y,-z
1/2-x,1/2-y,-z
1/2+x,1/2+y,-z
1/2-x,1/2+y,z
1/2+x,1/2-y,z
loop_
_atom_site_type_symbol
_atom_site_label
_atom_site_fract_x
_atom_site_fract_y
_atom_site_fract_z
Si Si1 0.228205 0.431659 0.694961
Si Si2 0.204507 0.312389 0.855799
Si Si3 0.663327 0.373162 0.445214
Si Si4 0.826622 0.928421 0.054177
Si Si5 0.089334 0.247122 0.802819
Si Si6 0.000000 0.429850 0.942332
Si Si7 0.409794 0.115805 0.647336
O O1 0.254183 0.500000 0.680373
O O2 0.250000 0.423751 0.750000
O O3 0.261618 0.374832 0.665328
O O4 0.138257 0.426759 0.683135
O O5 0.250000 0.250000 0.844393
O O6 0.191172 0.319184 0.911381
O O7 0.123740 0.302410 0.831714
O O8 0.656247 0.355454 0.500000
O O9 0.734833 0.420090 0.441852
O O10 0.580799 0.398638 0.429169
O O11 0.871073 0.892331 0.095516
O O12 0.845053 0.000000 0.060025
O O13 0.846715 0.909883 0.000000
O O14 0.123869 0.250000 0.750000
O O15 0.101020 0.183848 0.831117
O O16 0.000000 0.254865 0.798480
O O17 0.000000 0.500000 0.925840
O O18 0.000000 0.430730 0.000000
O O19 0.500000 0.102859 0.645103
#
# Coordination Sequence:
#
# PCOD9512662 Si02
#       7
#    32  32  32  32  32  16  32
#     4  11  24  41  62  92 126 158 200 260 319 376
#     4  12  23  38  65  90 115 164 210 255 304 377
#     4  10  21  36  57  88 126 162 207 259 311 368
#     4  10  20  36  59  88 126 171 214 257 308 377
#     4  10  22  40  63  90 120 157 209 264 313 375
#     4   9  18  34  58  88 121 166 213 251 304 375
#     4  11  22  40  64  93 125 164 209 262 319 375
#
# _framework density 19.231762
#
# number of rings (size 3 to 8) (size 9 to 14) (size 15 to 20)
#    0.000    1.462    3.077    1.846    1.077    4.308 
#    0.000    1.538    0.000    1.846    0.000    0.000 
#    0.000    0.000    0.000    0.000    0.000    0.000 
#
# Total GULP energy -289796.056331 kJ/mol
# GULP energy per Si atom -5573.001083 kJ/mol
# Density = 1.918799 g / cm^3
# Si number density = 19.231762 Si / 1000 Ang^3
#
#
#
# Elastic Constant Matrix: (Units=GPa)
#
#
# Indices 1 2 3 4 5 6 
#
# 1 98.8624 51.5630 59.7151 0.0000 0.0000 0.0000
# 2 51.5630 94.2804 47.4947 0.0000 0.0000 0.0000
# 3 59.7151 47.4947 126.6731 0.0000 0.0000 0.0000
# 4 0.0000 0.0000 0.0000 25.5715 0.0000 0.0000
# 5 0.0000 0.0000 0.0000 0.0000 32.0063 0.0000
# 6 0.0000 0.0000 0.0000 0.0000 0.0000 16.6128
#
#
#
# Elastic Compliance Matrix: (Units=1/GPa)
#
#
# Indices 1 2 3 4 5 6 
#
# 1 0.016783 -0.006403 -0.005511 0.000000 0.000000 0.000000
# 2 -0.006403 0.015519 -0.002800 0.000000 0.000000 0.000000
# 3 -0.005511 -0.002800 0.011542 0.000000 0.000000 0.000000
# 4 0.000000 0.000000 0.000000 0.039106 0.000000 0.000000
# 5 0.000000 0.000000 0.000000 0.000000 0.031244 0.000000
# 6 0.000000 0.000000 0.000000 0.000000 0.000000 0.060195
#
#
# Mechanical properties :
#
#
# Convention : Reuss Voigt Hill
#
# Bulk Modulus (GPa) = 69.36659 70.81794 70.09227
# Shear Modulus (GPa) = 23.96661 25.57431 24.77046
#
# Velocity S-wave (km/s) = 3.53398 3.65059 3.59276
# Velocity P-wave (km/s) = 7.26630 7.39408 7.33047
#
# Compressibility (1/GPa) = 0.01441616
#
# Stress axis : x y z
#
# Youngs Moduli (GPa) = 59.58271 64.43674 86.63711
#
# Poissons Ratio (x) = 0.41257 0.47748
# Poissons Ratio (y) = 0.38149 0.24262
# Poissons Ratio (z) = 0.32838 0.18045
#
# Static dielectric constant tensor:
#      x y z
#    x 1.717430 0.000000 0.000000 
#    y 0.000000 1.686040 0.000000 
#    z 0.000000 0.000000 1.706370 
# 
# From -- ./inp_files/46509.got.cif
#   From: 2010.05.17/outbox.cif.g08.bks.cpg/sg69_24_cif.got.tgz:46509.got - 2010.06.03 19:29:58.
