data_PCOD9512702
_publ_section_title
;
Structure prediction by ZEFSAII (Michael W. Deem and Ramdas Pophale) SiO2 
 PCOD9512702
Probable space group: F M M M
;
_chemical_formula_sum "Si O2"
_cell_formula_units_Z 200
_cell_length_a 17.979778
_cell_length_b 20.128064
_cell_length_c 31.933581
_cell_angle_alpha 90.000000
_cell_angle_beta 90.000000
_cell_angle_gamma 90.000000
_cell_volume 11556.703002
_symmetry_space_group_name_H-M "F M M M"
_symmetry_group_IT_number 69
_symmetry_cell_setting 'orthorhombic'
loop_
_space_group_symop_operation_xyz
x,y,z
-x,-y,z
x,-y,-z
-x,y,-z
-x,-y,-z
x,y,-z
-x,y,z
x,-y,z
x,1/2+y,1/2+z
-x,1/2-y,1/2+z
x,1/2-y,1/2-z
-x,1/2+y,1/2-z
-x,1/2-y,1/2-z
x,1/2+y,1/2-z
-x,1/2+y,1/2+z
x,1/2-y,1/2+z
1/2+x,y,1/2+z
1/2-x,-y,1/2+z
1/2+x,-y,1/2-z
1/2-x,y,1/2-z
1/2-x,-y,1/2-z
1/2+x,y,1/2-z
1/2-x,y,1/2+z
1/2+x,-y,1/2+z
1/2+x,1/2+y,z
1/2-x,1/2-y,z
1/2+x,1/2-y,-z
1/2-x,1/2+y,-z
1/2-x,1/2-y,-z
1/2+x,1/2+y,-z
1/2-x,1/2+y,z
1/2+x,1/2-y,z
loop_
_atom_site_type_symbol
_atom_site_label
_atom_site_fract_x
_atom_site_fract_y
_atom_site_fract_z
Si Si1 0.413620 0.757608 0.111867
Si Si2 0.087492 0.631129 0.330315
Si Si3 0.866437 0.610438 0.154754
Si Si4 0.500000 0.500000 0.349568
Si Si5 0.339165 0.171024 0.245722
Si Si6 0.713625 0.426332 0.112971
Si Si7 0.689809 0.809058 0.451832
O O1 0.500000 0.769955 0.107038
O O2 0.402850 0.704643 0.149437
O O3 0.376458 0.826650 0.123994
O O4 0.381290 0.722881 0.070806
O O5 0.118341 0.634473 0.283375
O O6 0.140582 0.585660 0.358617
O O7 0.000000 0.614207 0.331915
O O8 0.863706 0.640731 0.201491
O O9 0.786350 0.580880 0.142166
O O10 0.933667 0.558335 0.150658
O O11 0.355028 0.250000 0.250000
O O12 0.250000 0.163050 0.250000
O O13 0.712410 0.500000 0.094750
O O14 0.714290 0.370735 0.076879
O O15 0.677574 0.827908 0.500000
O O16 0.750000 0.750000 0.450432
#
# Coordination Sequence:
#
# PCOD9512702 Si02
#       7
#    32  32  32   8  32  32  32
#     4  10  20  36  62  87 121 156 199 253 306 358
#     4  10  22  38  57  89 118 161 208 258 306 358
#     4  12  22  39  58  89 121 164 214 252 305 368
#     4  12  28  40  56  88 127 168 210 248 303 372
#     4  11  22  35  61  90 119 155 210 270 321 355
#     4  11  23  41  62  86 125 169 202 246 308 378
#     4  10  21  37  64  98 121 147 197 252 303 367
#
# _framework density 17.305973999999999
#
# number of rings (size 3 to 8) (size 9 to 14) (size 15 to 20)
#    0.000    1.280    6.400    0.000    1.120    1.280 
#    1.440    1.200    0.000    0.000    0.000    5.600 
#    0.000    0.000    0.000    0.000    0.000    0.000 
#
# Total GULP energy -278458.807713 kJ/mol
# GULP energy per Si atom -5569.176154 kJ/mol
# Density = 1.726659 g / cm^3
# Si number density = 17.305974 Si / 1000 Ang^3
#
#
#
# Elastic Constant Matrix: (Units=GPa)
#
#
# Indices 1 2 3 4 5 6 
#
# 1 86.4678 45.3870 30.3212 0.0000 0.0000 0.0000
# 2 45.3870 99.3141 44.2667 0.0000 0.0000 0.0000
# 3 30.3212 44.2667 118.2903 0.0000 0.0000 0.0000
# 4 0.0000 0.0000 0.0000 -40.3335 0.0000 0.0000
# 5 0.0000 0.0000 0.0000 0.0000 17.2859 0.0000
# 6 0.0000 0.0000 0.0000 0.0000 0.0000 28.4590
#
#
#
# Elastic Compliance Matrix: (Units=1/GPa)
#
#
# Indices 1 2 3 4 5 6 
#
# 1 0.015458 -0.006359 -0.001583 0.000000 0.000000 0.000000
# 2 -0.006359 0.014701 -0.003871 0.000000 0.000000 0.000000
# 3 -0.001583 -0.003871 0.010308 0.000000 0.000000 0.000000
# 4 0.000000 0.000000 0.000000 -0.024793 0.000000 0.000000
# 5 0.000000 0.000000 0.000000 0.000000 0.057850 0.000000
# 6 0.000000 0.000000 0.000000 0.000000 0.000000 0.035138
#
#
# Mechanical properties :
#
#
# Convention : Reuss Voigt Hill
#
# Bulk Modulus (GPa) = 59.37918 60.44690 59.91304
# Shear Modulus (GPa) = 36.25783 13.35545 24.80664
#
# Velocity S-wave (km/s) = 4.58220 2.78101 3.79015
# Velocity P-wave (km/s) = 7.89818 6.73173 7.33817
#
# Compressibility (1/GPa) = 0.01684092
#
# Stress axis : x y z
#
# Youngs Moduli (GPa) = 64.69253 68.02433 97.01029
#
# Poissons Ratio (x) = 0.43256 0.15353
# Poissons Ratio (y) = 0.41137 0.37556
# Poissons Ratio (z) = 0.10239 0.26334
#
# Static dielectric constant tensor:
#      x y z
#    x 1.581250 0.000000 0.000000 
#    y 0.000000 1.555770 0.000000 
#    z 0.000000 0.000000 1.561810 
# 
# From -- ./inp_files/46532.got.cif
#   From: 2010.05.17/outbox.cif.g08.bks.cpg/sg69_24_cif.got.tgz:46532.got - 2010.06.03 19:29:58.
