data_PCOD9512270
_publ_section_title
;
Structure prediction by ZEFSAII (Michael W. Deem and Ramdas Pophale) SiO2 
 PCOD9512270
Probable space group: F M M M
;
_chemical_formula_sum "Si O2"
_cell_formula_units_Z 144
_cell_length_a 14.540833
_cell_length_b 14.699352
_cell_length_c 32.767668
_cell_angle_alpha 90.000000
_cell_angle_beta 90.000000
_cell_angle_gamma 90.000000
_cell_volume 7003.788314
_symmetry_space_group_name_H-M "F M M M"
_symmetry_group_IT_number 69
_symmetry_cell_setting 'orthorhombic'
loop_
_space_group_symop_operation_xyz
x,y,z
-x,-y,z
x,-y,-z
-x,y,-z
-x,-y,-z
x,y,-z
-x,y,z
x,-y,z
x,1/2+y,1/2+z
-x,1/2-y,1/2+z
x,1/2-y,1/2-z
-x,1/2+y,1/2-z
-x,1/2-y,1/2-z
x,1/2+y,1/2-z
-x,1/2+y,1/2+z
x,1/2-y,1/2+z
1/2+x,y,1/2+z
1/2-x,-y,1/2+z
1/2+x,-y,1/2-z
1/2-x,y,1/2-z
1/2-x,-y,1/2-z
1/2+x,y,1/2-z
1/2-x,y,1/2+z
1/2+x,-y,1/2+z
1/2+x,1/2+y,z
1/2-x,1/2-y,z
1/2+x,1/2-y,-z
1/2-x,1/2+y,-z
1/2-x,1/2-y,-z
1/2+x,1/2+y,-z
1/2-x,1/2+y,z
1/2+x,1/2-y,z
loop_
_atom_site_type_symbol
_atom_site_label
_atom_site_fract_x
_atom_site_fract_y
_atom_site_fract_z
Si Si1 0.397147 0.902183 0.678942
Si Si2 0.152852 0.393070 0.231624
Si Si3 0.250000 0.750000 0.586704
Si Si4 0.390809 0.210838 0.851245
Si Si5 0.106462 0.894874 0.950758
O O1 0.500000 0.909028 0.662541
O O2 0.405653 0.884592 0.727293
O O3 0.357533 0.814143 0.658202
O O4 0.349864 0.000000 0.673744
O O5 0.157700 0.500000 0.221886
O O6 0.250000 0.361769 0.250000
O O7 0.122894 0.341754 0.191319
O O8 0.322003 0.686967 0.612501
O O9 0.181081 0.679581 0.563651
O O10 0.500000 0.207609 0.860808
O O11 0.000000 0.872890 0.938313
O O12 0.124981 0.000000 0.936975
O O13 0.107577 0.895819 0.000000
#
# Coordination Sequence:
#
# PCOD9512270 Si02
#       5
#    32  32  16  32  32
#     4   9  18  33  51  69  94 138 199 256 294 327
#     4  10  20  34  51  69  95 141 200 254 298 341
#     4  12  23  36  59  92 128 160 194 234 289 358
#     4  11  23  35  51  80 118 157 193 237 300 364
#     4   9  20  42  71  98 122 153 196 242 286 340
#
# _framework density 20.560300999999999
#
# number of rings (size 3 to 8) (size 9 to 14) (size 15 to 20)
#    0.000    2.000    0.000    4.333    0.000    5.778 
#    0.000    2.222    0.000    2.000    0.000    7.778 
#    0.000    0.000    0.000    0.000    0.000    0.000 
#
# Total GULP energy -200646.126527 kJ/mol
# GULP energy per Si atom -5573.503515 kJ/mol
# Density = 2.051351 g / cm^3
# Si number density = 20.560301 Si / 1000 Ang^3
#
#
#
# Elastic Constant Matrix: (Units=GPa)
#
#
# Indices 1 2 3 4 5 6 
#
# 1 150.0268 48.2473 44.0440 0.0000 0.0000 0.0000
# 2 48.2473 93.3810 27.5536 0.0000 0.0000 0.0000
# 3 44.0440 27.5536 69.8043 0.0000 0.0000 0.0000
# 4 0.0000 0.0000 0.0000 -39.5180 0.0000 0.0000
# 5 0.0000 0.0000 0.0000 0.0000 40.8073 0.0000
# 6 0.0000 0.0000 0.0000 0.0000 0.0000 29.0447
#
#
#
# Elastic Compliance Matrix: (Units=1/GPa)
#
#
# Indices 1 2 3 4 5 6 
#
# 1 0.009034 -0.003379 -0.004366 0.000000 0.000000 0.000000
# 2 -0.003379 0.013385 -0.003151 0.000000 0.000000 0.000000
# 3 -0.004366 -0.003151 0.018324 0.000000 0.000000 0.000000
# 4 0.000000 0.000000 0.000000 -0.025305 0.000000 0.000000
# 5 0.000000 0.000000 0.000000 0.000000 0.024505 0.000000
# 6 0.000000 0.000000 0.000000 0.000000 0.000000 0.034430
#
#
# Mechanical properties :
#
#
# Convention : Reuss Voigt Hill
#
# Bulk Modulus (GPa) = 52.77058 61.43355 57.10206
# Shear Modulus (GPa) = 48.78853 18.95795 33.87324
#
# Velocity S-wave (km/s) = 4.87658 3.03985 4.06335
# Velocity P-wave (km/s) = 7.57826 6.50119 7.06029
#
# Compressibility (1/GPa) = 0.01894995
#
# Stress axis : x y z
#
# Youngs Moduli (GPa) = 110.69236 74.71293 54.57176
#
# Poissons Ratio (x) = 0.25248 0.23827
# Poissons Ratio (y) = 0.37406 0.17196
# Poissons Ratio (z) = 0.48331 0.23542
#
# Static dielectric constant tensor:
#      x y z
#    x 0.080860 0.000000 0.000000 
#    y 0.000000 1.787060 0.000000 
#    z 0.000000 0.000000 1.776600 
# 
# From -- ./inp_files/46173.got.cif
#   From: 2010.05.17/outbox.cif.g08.bks.cpg/sg69_24_cif.got.tgz:46173.got - 2010.06.03 19:29:58.
