data_PCOD9512047
_publ_section_title
;
Structure prediction by ZEFSAII (Michael W. Deem and Ramdas Pophale) SiO2 
 PCOD9512047
Probable space group: F M M M
;
_chemical_formula_sum "Si O2"
_cell_formula_units_Z 116
_cell_length_a 22.038335
_cell_length_b 7.796074
_cell_length_c 35.041020
_cell_angle_alpha 90.000000
_cell_angle_beta 90.000000
_cell_angle_gamma 90.000000
_cell_volume 6020.484916
_symmetry_space_group_name_H-M "F M M M"
_symmetry_group_IT_number 69
_symmetry_cell_setting 'orthorhombic'
loop_
_space_group_symop_operation_xyz
x,y,z
-x,-y,z
x,-y,-z
-x,y,-z
-x,-y,-z
x,y,-z
-x,y,z
x,-y,z
x,1/2+y,1/2+z
-x,1/2-y,1/2+z
x,1/2-y,1/2-z
-x,1/2+y,1/2-z
-x,1/2-y,1/2-z
x,1/2+y,1/2-z
-x,1/2+y,1/2+z
x,1/2-y,1/2+z
1/2+x,y,1/2+z
1/2-x,-y,1/2+z
1/2+x,-y,1/2-z
1/2-x,y,1/2-z
1/2-x,-y,1/2-z
1/2+x,y,1/2-z
1/2-x,y,1/2+z
1/2+x,-y,1/2+z
1/2+x,1/2+y,z
1/2-x,1/2-y,z
1/2+x,1/2-y,-z
1/2-x,1/2+y,-z
1/2-x,1/2-y,-z
1/2+x,1/2+y,-z
1/2-x,1/2+y,z
1/2+x,1/2-y,z
loop_
_atom_site_type_symbol
_atom_site_label
_atom_site_fract_x
_atom_site_fract_y
_atom_site_fract_z
Si Si1 0.500000 0.500000 0.500000
Si Si2 0.318854 0.293634 0.655252
Si Si3 0.595842 0.311055 0.000000
Si Si4 0.567946 0.793301 0.205480
Si Si5 0.318712 0.205639 0.932566
O O1 0.551586 0.651055 0.500000
O O2 0.322006 0.500000 0.655109
O O3 0.250000 0.250000 0.667764
O O4 0.374469 0.229066 0.681226
O O5 0.326821 0.235952 0.611366
O O6 0.636887 0.292030 0.962324
O O7 0.568104 0.500000 0.000000
O O8 0.500000 0.731917 0.193890
O O9 0.575787 0.750000 0.250000
O O10 0.567224 0.000000 0.201922
O O11 0.250000 0.250000 0.943309
O O12 0.327157 0.000000 0.933924
#
# Coordination Sequence:
#
# PCOD9512047 Si02
#       5
#     4  32  16  32  32
#     4  12  26  48  60  86 128 164 198 242 304 354
#     4   9  19  34  54  82 113 146 184 235 290 344
#     4  12  24  42  64  89 120 161 204 245 294 356
#     4   9  18  34  53  76 104 144 190 233 283 345
#     4  10  19  36  59  89 117 150 195 249 300 352
#
# _framework density 19.267551000000001
#
# number of rings (size 3 to 8) (size 9 to 14) (size 15 to 20)
#    0.000    2.207    1.379    1.448    0.000    2.759 
#    2.483    2.759    0.000    0.000    0.000    0.000 
#    0.000    0.000    0.000    0.000    0.000    0.000 
#
# Total GULP energy -161524.695890 kJ/mol
# GULP energy per Si atom -5569.817100 kJ/mol
# Density = 1.922370 g / cm^3
# Si number density = 19.267551 Si / 1000 Ang^3
#
#
#
# Elastic Constant Matrix: (Units=GPa)
#
#
# Indices 1 2 3 4 5 6 
#
# 1 196.7812 39.2108 99.9345 0.0000 0.0000 0.0000
# 2 39.2108 84.2828 20.1694 0.0001 0.0000 0.0000
# 3 99.9345 20.1694 77.0486 0.0000 0.0000 0.0000
# 4 0.0000 0.0001 0.0000 -65.3042 0.0000 0.0000
# 5 0.0000 0.0000 0.0000 0.0000 -33.2887 0.0000
# 6 0.0000 0.0000 0.0000 0.0000 0.0000 17.3662
#
#
#
# Elastic Compliance Matrix: (Units=1/GPa)
#
#
# Indices 1 2 3 4 5 6 
#
# 1 0.015383 -0.002541 -0.019287 0.000000 0.000000 0.000000
# 2 -0.002541 0.013078 -0.000128 0.000000 0.000000 0.000000
# 3 -0.019287 -0.000128 0.038028 0.000000 0.000000 0.000000
# 4 0.000000 0.000000 0.000000 -0.015313 0.000000 0.000000
# 5 0.000000 0.000000 0.000000 0.000000 -0.030040 0.000000
# 6 0.000000 0.000000 0.000000 0.000000 0.000000 0.057583
#
#
# Mechanical properties :
#
#
# Convention : Reuss Voigt Hill
#
# Bulk Modulus (GPa) = 44.29217 75.19357 59.74287
# Shear Modulus (GPa) = 38.41561 -2.99215 17.71173
#
# Velocity S-wave (km/s) = 4.47004 -1.24752 3.03521
# Velocity P-wave (km/s) = 7.04837 6.08569 6.58465
#
# Compressibility (1/GPa) = 0.02257736
#
# Stress axis : x y z
#
# Youngs Moduli (GPa) = 65.00711 76.46716 26.29638
#
# Poissons Ratio (x) = 0.19431 0.50718
# Poissons Ratio (y) = 0.16519 0.00335
# Poissons Ratio (z) = 1.25379 0.00975
#
# Static dielectric constant tensor:
#      x y z
#    x 1.662700 0.000000 0.000000 
#    y 0.000000 1.695310 0.000000 
#    z 0.000000 0.000000 1.653810 
# 
# From -- ./inp_files/46885.got.cif
#   From: 2010.05.17/outbox.cif.g08.bks.cpg/sg69_24_cif.got.tgz:46885.got - 2010.06.03 19:29:58.
