data_PCOD9512957
_publ_section_title
;
Structure prediction by ZEFSAII (Michael W. Deem and Ramdas Pophale) SiO2 
 PCOD9512957
Probable space group: F M M M
;
_chemical_formula_sum "Si O2"
_cell_formula_units_Z 168
_cell_length_a 15.100410
_cell_length_b 21.501799
_cell_length_c 26.482727
_cell_angle_alpha 90.000000
_cell_angle_beta 90.000000
_cell_angle_gamma 90.000000
_cell_volume 8598.570186
_symmetry_space_group_name_H-M "F M M M"
_symmetry_group_IT_number 69
_symmetry_cell_setting 'orthorhombic'
loop_
_space_group_symop_operation_xyz
x,y,z
-x,-y,z
x,-y,-z
-x,y,-z
-x,-y,-z
x,y,-z
-x,y,z
x,-y,z
x,1/2+y,1/2+z
-x,1/2-y,1/2+z
x,1/2-y,1/2-z
-x,1/2+y,1/2-z
-x,1/2-y,1/2-z
x,1/2+y,1/2-z
-x,1/2+y,1/2+z
x,1/2-y,1/2+z
1/2+x,y,1/2+z
1/2-x,-y,1/2+z
1/2+x,-y,1/2-z
1/2-x,y,1/2-z
1/2-x,-y,1/2-z
1/2+x,y,1/2-z
1/2-x,y,1/2+z
1/2+x,-y,1/2+z
1/2+x,1/2+y,z
1/2-x,1/2-y,z
1/2+x,1/2-y,-z
1/2-x,1/2+y,-z
1/2-x,1/2-y,-z
1/2+x,1/2+y,-z
1/2-x,1/2+y,z
1/2+x,1/2-y,z
loop_
_atom_site_type_symbol
_atom_site_label
_atom_site_fract_x
_atom_site_fract_y
_atom_site_fract_z
Si Si1 0.847649 0.929110 0.639334
Si Si2 0.606979 0.763075 0.641944
Si Si3 0.399215 0.335014 0.722450
Si Si4 0.345259 0.605497 0.175289
Si Si5 0.607473 0.665148 0.557838
Si Si6 0.000000 0.000000 0.171866
O O1 0.901589 0.886688 0.678439
O O2 0.747401 0.923925 0.659404
O O3 0.857296 0.896662 0.585114
O O4 0.877092 0.000000 0.639077
O O5 0.500000 0.762649 0.643299
O O6 0.635550 0.725866 0.692847
O O7 0.638473 0.833533 0.641010
O O8 0.635174 0.722380 0.593870
O O9 0.500000 0.323486 0.740339
O O10 0.346915 0.364707 0.768673
O O11 0.422529 0.554817 0.172376
O O12 0.635739 0.671536 0.500000
O O13 0.500000 0.662838 0.558822
#
# Coordination Sequence:
#
# PCOD9512957 Si02
#       6
#    32  32  32  32  32   8
#     4  11  24  36  53  86 122 155 189 238 286 335
#     4   9  18  36  60  86 113 152 193 245 291 336
#     4  10  21  35  56  82 117 157 199 237 284 341
#     4  12  22  37  55  82 118 160 205 237 273 333
#     4   9  20  41  66  91 113 139 182 233 301 367
#     4  12  24  36  56  84 111 170 211 222 270 342
#
# _framework density 19.538132000000001
#
# number of rings (size 3 to 8) (size 9 to 14) (size 15 to 20)
#    0.000    1.714    2.857    2.857    1.333    7.238 
#    0.000    6.667    0.000    0.000    0.000    2.667 
#    0.000    0.000    0.000    0.000    0.000    0.000 
#
# Total GULP energy -234114.220903 kJ/mol
# GULP energy per Si atom -5574.148117 kJ/mol
# Density = 1.949366 g / cm^3
# Si number density = 19.538132 Si / 1000 Ang^3
#
#
#
# Elastic Constant Matrix: (Units=GPa)
#
#
# Indices 1 2 3 4 5 6 
#
# 1 72.6539 13.1297 8.1161 0.0000 0.0000 0.0000
# 2 13.1297 154.7960 23.9917 0.0000 0.0000 0.0000
# 3 8.1161 23.9917 100.7998 0.0000 0.0000 0.0000
# 4 0.0000 0.0000 0.0000 8.9999 0.0000 0.0000
# 5 0.0000 0.0000 0.0000 0.0000 18.6661 0.0000
# 6 0.0000 0.0000 0.0000 0.0000 0.0000 23.8853
#
#
#
# Elastic Compliance Matrix: (Units=1/GPa)
#
#
# Indices 1 2 3 4 5 6 
#
# 1 0.014053 -0.001056 -0.000880 0.000000 0.000000 0.000000
# 2 -0.001056 0.006787 -0.001530 0.000000 0.000000 0.000000
# 3 -0.000880 -0.001530 0.010356 0.000000 0.000000 0.000000
# 4 0.000000 0.000000 0.000000 0.111112 0.000000 0.000000
# 5 0.000000 0.000000 0.000000 0.000000 0.053573 0.000000
# 6 0.000000 0.000000 0.000000 0.000000 0.000000 0.041867
#
#
# Mechanical properties :
#
#
# Convention : Reuss Voigt Hill
#
# Bulk Modulus (GPa) = 41.21459 46.52495 43.86977
# Shear Modulus (GPa) = 19.78102 29.17774 24.47938
#
# Velocity S-wave (km/s) = 3.18533 3.86861 3.54348
# Velocity P-wave (km/s) = 5.88801 6.61959 6.26449
#
# Compressibility (1/GPa) = 0.02426325
#
# Stress axis : x y z
#
# Youngs Moduli (GPa) = 71.15930 147.34404 96.56444
#
# Poissons Ratio (x) = 0.15553 0.08500
# Poissons Ratio (y) = 0.07511 0.14778
# Poissons Ratio (z) = 0.06264 0.22549
#
# Static dielectric constant tensor:
#      x y z
#    x 1.724100 0.000000 0.000000 
#    y 0.000000 1.692070 0.000000 
#    z 0.000000 0.000000 1.688210 
# 
# From -- ./inp_files/18825.got.cif
#   From: 2010.05.17/outbox.cif.g08.bks.cpg/sg69_10_cif.got.tgz:18825.got - 2010.06.03 19:29:58.
