data_PCOD9512043
_publ_section_title
;
Structure prediction by ZEFSAII (Michael W. Deem and Ramdas Pophale) SiO2 
 PCOD9512043
Probable space group: F M M M
;
_chemical_formula_sum "Si O2"
_cell_formula_units_Z 120
_cell_length_a 14.737375
_cell_length_b 25.931085
_cell_length_c 18.373714
_cell_angle_alpha 90.000000
_cell_angle_beta 90.000000
_cell_angle_gamma 90.000000
_cell_volume 7021.627322
_symmetry_space_group_name_H-M "F M M M"
_symmetry_group_IT_number 69
_symmetry_cell_setting 'orthorhombic'
loop_
_space_group_symop_operation_xyz
x,y,z
-x,-y,z
x,-y,-z
-x,y,-z
-x,-y,-z
x,y,-z
-x,y,z
x,-y,z
x,1/2+y,1/2+z
-x,1/2-y,1/2+z
x,1/2-y,1/2-z
-x,1/2+y,1/2-z
-x,1/2-y,1/2-z
x,1/2+y,1/2-z
-x,1/2+y,1/2+z
x,1/2-y,1/2+z
1/2+x,y,1/2+z
1/2-x,-y,1/2+z
1/2+x,-y,1/2-z
1/2-x,y,1/2-z
1/2-x,-y,1/2-z
1/2+x,y,1/2-z
1/2-x,y,1/2+z
1/2+x,-y,1/2+z
1/2+x,1/2+y,z
1/2-x,1/2-y,z
1/2+x,1/2-y,-z
1/2-x,1/2+y,-z
1/2-x,1/2-y,-z
1/2+x,1/2+y,-z
1/2-x,1/2+y,z
1/2+x,1/2-y,z
loop_
_atom_site_type_symbol
_atom_site_label
_atom_site_fract_x
_atom_site_fract_y
_atom_site_fract_z
Si Si1 0.000000 0.209775 0.684319
Si Si2 0.294336 0.500000 0.168921
Si Si3 0.325312 0.206867 0.084750
Si Si4 0.000000 0.000000 0.786874
Si Si5 0.000000 0.090609 0.670534
Si Si6 0.689170 0.411118 0.413565
O O1 0.000000 0.250000 0.750000
O O2 0.910809 0.217067 0.635504
O O3 0.000000 0.148642 0.702631
O O4 0.250000 0.500000 0.250000
O O5 0.403577 0.500000 0.171916
O O6 0.256051 0.550029 0.127103
O O7 0.250000 0.250000 0.096247
O O8 0.287623 0.149210 0.098099
O O9 0.354108 0.207940 0.000000
O O10 0.000000 0.049654 0.734672
O O11 0.911012 0.082906 0.620938
O O12 0.687587 0.421337 0.500000
#
# Coordination Sequence:
#
# PCOD9512043 Si02
#       6
#    16  16  32   8  16  32
#     4  10  21  33  52  86 115 144 183 231 285 335
#     4  12  23  38  57  82 117 149 179 227 283 346
#     4   9  19  37  58  80 110 147 189 234 277 324
#     4  12  24  38  52  80 118 154 176 216 286 342
#     4  10  19  36  59  83 112 139 186 247 287 321
#     4  10  20  37  61  85 107 143 194 241 282 326
#
# _framework density 17.090055
#
# number of rings (size 3 to 8) (size 9 to 14) (size 15 to 20)
#    0.000    1.867    2.667    1.200    0.000    5.867 
#    0.000    3.333    0.000    3.200    0.000    0.000 
#    0.000    0.000    0.000    0.000    0.000    0.000 
#
# Total GULP energy -167428.620289 kJ/mol
# GULP energy per Si atom -5580.954010 kJ/mol
# Density = 1.705116 g / cm^3
# Si number density = 17.090055 Si / 1000 Ang^3
#
#
#
# Elastic Constant Matrix: (Units=GPa)
#
#
# Indices 1 2 3 4 5 6 
#
# 1 122.2272 97.4598 76.0724 0.0000 0.0000 0.0000
# 2 97.4598 147.7598 105.4685 0.0000 0.0000 0.0000
# 3 76.0724 105.4685 104.4779 0.0000 0.0000 0.0000
# 4 0.0000 0.0000 0.0000 37.0731 0.0000 0.0000
# 5 0.0000 0.0000 0.0000 0.0000 29.0752 0.0000
# 6 0.0000 0.0000 0.0000 0.0000 0.0000 14.7730
#
#
#
# Elastic Compliance Matrix: (Units=1/GPa)
#
#
# Indices 1 2 3 4 5 6 
#
# 1 0.017701 -0.008859 -0.003945 0.000000 0.000000 0.000000
# 2 -0.008859 0.028652 -0.022473 0.000000 0.000000 0.000000
# 3 -0.003945 -0.022473 0.035130 0.000000 0.000000 0.000000
# 4 0.000000 0.000000 0.000000 0.026974 0.000000 0.000000
# 5 0.000000 0.000000 0.000000 0.000000 0.034394 0.000000
# 6 0.000000 0.000000 0.000000 0.000000 0.000000 0.067691
#
#
# Mechanical properties :
#
#
# Convention : Reuss Voigt Hill
#
# Bulk Modulus (GPa) = 91.50730 103.60738 97.55734
# Shear Modulus (GPa) = 17.55988 22.54854 20.05421
#
# Velocity S-wave (km/s) = 3.20893 3.63629 3.42927
# Velocity P-wave (km/s) = 8.20914 8.85359 8.53745
#
# Compressibility (1/GPa) = 0.01092809
#
# Stress axis : x y z
#
# Youngs Moduli (GPa) = 56.49404 34.90133 28.46544
#
# Poissons Ratio (x) = 0.30920 0.11230
# Poissons Ratio (y) = 0.50050 0.63971
# Poissons Ratio (z) = 0.22288 0.78435
#
# Static dielectric constant tensor:
#      x y z
#    x 1.553360 0.000000 0.000000 
#    y 0.000000 1.583850 0.000000 
#    z 0.000000 0.000000 1.560670 
# 
# From -- ./inp_files/14482.got.cif
#   From: 2010.05.17/outbox.cif.g08.bks.cpg/sg69_8_cif.got.tgz:14482.got - 2010.06.03 19:29:58.
