data_PCOD9512944
_publ_section_title
;
Structure prediction by ZEFSAII (Michael W. Deem and Ramdas Pophale) SiO2 
 PCOD9512944
Probable space group: F M M M
;
_chemical_formula_sum "Si O2"
_cell_formula_units_Z 112
_cell_length_a 14.686018
_cell_length_b 37.650672
_cell_length_c 10.664898
_cell_angle_alpha 90.000000
_cell_angle_beta 90.000000
_cell_angle_gamma 90.000000
_cell_volume 5897.032134
_symmetry_space_group_name_H-M "F M M M"
_symmetry_group_IT_number 69
_symmetry_cell_setting 'orthorhombic'
loop_
_space_group_symop_operation_xyz
x,y,z
-x,-y,z
x,-y,-z
-x,y,-z
-x,-y,-z
x,y,-z
-x,y,z
x,-y,z
x,1/2+y,1/2+z
-x,1/2-y,1/2+z
x,1/2-y,1/2-z
-x,1/2+y,1/2-z
-x,1/2-y,1/2-z
x,1/2+y,1/2-z
-x,1/2+y,1/2+z
x,1/2-y,1/2+z
1/2+x,y,1/2+z
1/2-x,-y,1/2+z
1/2+x,-y,1/2-z
1/2-x,y,1/2-z
1/2-x,-y,1/2-z
1/2+x,y,1/2-z
1/2-x,y,1/2+z
1/2+x,-y,1/2+z
1/2+x,1/2+y,z
1/2-x,1/2-y,z
1/2+x,1/2-y,-z
1/2-x,1/2+y,-z
1/2-x,1/2-y,-z
1/2+x,1/2+y,-z
1/2-x,1/2+y,z
1/2+x,1/2-y,z
loop_
_atom_site_type_symbol
_atom_site_label
_atom_site_fract_x
_atom_site_fract_y
_atom_site_fract_z
Si Si1 0.596815 0.615627 0.648814
Si Si2 0.250000 0.332915 0.750000
Si Si3 0.105779 0.779401 0.858155
Si Si4 0.669776 0.460861 0.352472
O O1 0.591072 0.617495 0.500000
O O2 0.500000 0.627435 0.704122
O O3 0.679227 0.640791 0.684302
O O4 0.612502 0.574142 0.678056
O O5 0.184677 0.308238 0.665077
O O6 0.116941 0.750000 0.750000
O O7 0.000000 0.792377 0.847885
O O8 0.115358 0.764883 0.000000
O O9 0.699596 0.457403 0.500000
O O10 0.625006 0.500000 0.343837
O O11 0.750000 0.460780 0.250000
#
# Coordination Sequence:
#
# PCOD9512944 Si02
#       4
#    32  16  32  32
#     4  10  21  35  53  82 116 152 194 236 282 337
#     4  12  21  36  59  84 116 154 186 228 285 338
#     4  10  23  42  63  88 116 147 187 232 280 337
#     4   9  17  32  55  81 110 147 193 241 285 331
#
# _framework density 18.992604
#
# number of rings (size 3 to 8) (size 9 to 14) (size 15 to 20)
#    0.000    2.000    1.429    2.143    0.000    4.000 
#    0.000    5.714    0.000    2.571    0.000    4.000 
#    0.000    0.000    0.000    0.000    0.000    0.000 
#
# Total GULP energy -155879.836171 kJ/mol
# GULP energy per Si atom -5567.137006 kJ/mol
# Density = 1.894938 g / cm^3
# Si number density = 18.992604 Si / 1000 Ang^3
#
#
#
# Elastic Constant Matrix: (Units=GPa)
#
#
# Indices 1 2 3 4 5 6 
#
# 1 139.4127 71.2306 42.0097 0.0000 0.0000 0.0000
# 2 71.2306 108.5158 52.0576 0.0000 0.0000 0.0000
# 3 42.0097 52.0576 82.0287 0.0000 0.0000 0.0000
# 4 0.0000 0.0000 0.0000 21.7989 0.0000 0.0000
# 5 0.0000 0.0000 0.0000 0.0000 18.5623 0.0000
# 6 0.0000 0.0000 0.0000 0.0000 0.0000 -16.9204
#
#
#
# Elastic Compliance Matrix: (Units=1/GPa)
#
#
# Indices 1 2 3 4 5 6 
#
# 1 0.010919 -0.006448 -0.001500 0.000000 0.000000 0.000000
# 2 -0.006448 0.017056 -0.007522 0.000000 0.000000 0.000000
# 3 -0.001500 -0.007522 0.017733 0.000000 0.000000 0.000000
# 4 0.000000 0.000000 0.000000 0.045874 0.000000 0.000000
# 5 0.000000 0.000000 0.000000 0.000000 0.053873 0.000000
# 6 0.000000 0.000000 0.000000 0.000000 0.000000 -0.059100
#
#
# Mechanical properties :
#
#
# Convention : Reuss Voigt Hill
#
# Bulk Modulus (GPa) = 67.71363 73.39478 70.55420
# Shear Modulus (GPa) = 40.91040 15.66544 28.28792
#
# Velocity S-wave (km/s) = 4.64617 2.87508 3.86348
# Velocity P-wave (km/s) = 8.03197 7.05331 7.55850
#
# Compressibility (1/GPa) = 0.01476808
#
# Stress axis : x y z
#
# Youngs Moduli (GPa) = 91.57944 58.62941 56.39224
#
# Poissons Ratio (x) = 0.37804 0.08460
# Poissons Ratio (y) = 0.59050 0.42419
# Poissons Ratio (z) = 0.13739 0.44102
#
# Static dielectric constant tensor:
#      x y z
#    x 1.680800 0.000000 0.000000 
#    y 0.000000 1.685970 0.000000 
#    z 0.000000 0.000000 1.623910 
# 
# From -- ./inp_files/7363.got.cif
#   From: 2010.05.17/outbox.cif.g08.bks.cpg/sg69_4_cif.got.tgz:7363.got - 2010.06.03 19:29:58.
