data_PCOD9512402
_publ_section_title
;
Structure prediction by ZEFSAII (Michael W. Deem and Ramdas Pophale) SiO2 
 PCOD9512402
Probable space group: F M M M
;
_chemical_formula_sum "Si O2"
_cell_formula_units_Z 160
_cell_length_a 22.239487
_cell_length_b 22.991062
_cell_length_c 16.766539
_cell_angle_alpha 90.000000
_cell_angle_beta 90.000000
_cell_angle_gamma 90.000000
_cell_volume 8572.889406
_symmetry_space_group_name_H-M "F M M M"
_symmetry_group_IT_number 69
_symmetry_cell_setting 'orthorhombic'
loop_
_space_group_symop_operation_xyz
x,y,z
-x,-y,z
x,-y,-z
-x,y,-z
-x,-y,-z
x,y,-z
-x,y,z
x,-y,z
x,1/2+y,1/2+z
-x,1/2-y,1/2+z
x,1/2-y,1/2-z
-x,1/2+y,1/2-z
-x,1/2-y,1/2-z
x,1/2+y,1/2-z
-x,1/2+y,1/2+z
x,1/2-y,1/2+z
1/2+x,y,1/2+z
1/2-x,-y,1/2+z
1/2+x,-y,1/2-z
1/2-x,y,1/2-z
1/2-x,-y,1/2-z
1/2+x,y,1/2-z
1/2-x,y,1/2+z
1/2+x,-y,1/2+z
1/2+x,1/2+y,z
1/2-x,1/2-y,z
1/2+x,1/2-y,-z
1/2-x,1/2+y,-z
1/2-x,1/2-y,-z
1/2+x,1/2+y,-z
1/2-x,1/2+y,z
1/2+x,1/2-y,z
loop_
_atom_site_type_symbol
_atom_site_label
_atom_site_fract_x
_atom_site_fract_y
_atom_site_fract_z
Si Si1 0.785937 0.163123 0.669565
Si Si2 0.000000 0.312700 0.904029
Si Si3 0.167217 0.622714 0.408437
Si Si4 0.377832 0.750176 0.404794
Si Si5 0.000000 0.933720 0.684508
Si Si6 0.632504 0.934439 0.751550
O O1 0.750000 0.177651 0.750000
O O2 0.736451 0.141102 0.606722
O O3 0.823575 0.216904 0.637349
O O4 0.831716 0.111773 0.694554
O O5 0.059680 0.278339 0.877145
O O6 0.000000 0.379311 0.875474
O O7 0.000000 0.311771 0.000000
O O8 0.158342 0.604779 0.500000
O O9 0.128344 0.681109 0.391820
O O10 0.149660 0.577579 0.340075
O O11 0.372571 0.740896 0.500000
O O12 0.061230 0.928448 0.734885
O O13 0.000000 0.000000 0.649831
O O14 0.650062 0.000000 0.773818
#
# Coordination Sequence:
#
# PCOD9512402 Si02
#       6
#    32  16  32  32  16  32
#     4  10  20  34  57  82 113 149 188 228 280 335
#     4  10  20  36  61  88 115 149 181 230 289 338
#     4  10  22  37  56  81 113 154 190 228 277 333
#     4  10  20  36  56  84 118 146 181 230 283 336
#     4  10  20  40  62  83 113 149 187 233 287 335
#     4  10  22  39  59  83 112 146 190 242 284 327
#
# _framework density 18.663485999999999
#
# number of rings (size 3 to 8) (size 9 to 14) (size 15 to 20)
#    0.000    2.000    2.000    1.200    0.000   12.200 
#    0.000    2.500    0.000    3.600    0.000    0.000 
#    0.000    0.000    0.000    0.000    0.000    0.000 
#
# Total GULP energy -223324.837963 kJ/mol
# GULP energy per Si atom -5583.120949 kJ/mol
# Density = 1.862101 g / cm^3
# Si number density = 18.663486 Si / 1000 Ang^3
#
#
#
# Elastic Constant Matrix: (Units=GPa)
#
#
# Indices 1 2 3 4 5 6 
#
# 1 88.3486 16.3393 0.8267 0.0000 0.0000 0.0000
# 2 16.3393 47.1350 8.0057 0.0000 0.0000 0.0000
# 3 0.8267 8.0057 22.3706 0.0000 0.0000 0.0000
# 4 0.0000 0.0000 0.0000 25.9368 0.0000 0.0000
# 5 0.0000 0.0000 0.0000 0.0000 19.6768 0.0000
# 6 0.0000 0.0000 0.0000 0.0000 0.0000 25.0927
#
#
#
# Elastic Compliance Matrix: (Units=1/GPa)
#
#
# Indices 1 2 3 4 5 6 
#
# 1 0.012121 -0.004393 0.001124 0.000000 0.000000 0.000000
# 2 -0.004393 0.024181 -0.008491 0.000000 0.000000 0.000000
# 3 0.001124 -0.008491 0.047699 0.000000 0.000000 0.000000
# 4 0.000000 0.000000 0.000000 0.038555 0.000000 0.000000
# 5 0.000000 0.000000 0.000000 0.000000 0.050821 0.000000
# 6 0.000000 0.000000 0.000000 0.000000 0.000000 0.039852
#
#
# Mechanical properties :
#
#
# Convention : Reuss Voigt Hill
#
# Bulk Modulus (GPa) = 16.53424 23.13309 19.83366
# Shear Modulus (GPa) = 19.46222 22.98676 21.22449
#
# Velocity S-wave (km/s) = 3.23274 3.51328 3.37593
# Velocity P-wave (km/s) = 4.77624 5.37395 5.08389
#
# Compressibility (1/GPa) = 0.06048056
#
# Stress axis : x y z
#
# Youngs Moduli (GPa) = 82.50389 41.35558 20.96497
#
# Poissons Ratio (x) = 0.18166 -0.02357
# Poissons Ratio (y) = 0.36240 0.17802
# Poissons Ratio (z) = -0.09274 0.35116
#
# Static dielectric constant tensor:
#      x y z
#    x 1.645590 0.000000 0.000000 
#    y 0.000000 1.635050 0.000000 
#    z 0.000000 0.000000 1.631280 
# 
# From -- ./inp_files/24609.got.cif
#   From: 2010.05.17/outbox.cif.g08.bks.cpg/sg69_13_cif.got.tgz:24609.got - 2010.06.03 19:29:58.
