data_PCOD9512308
_publ_section_title
;
Structure prediction by ZEFSAII (Michael W. Deem and Ramdas Pophale) SiO2 
 PCOD9512308
Probable space group: F M M M
;
_chemical_formula_sum "Si O2"
_cell_formula_units_Z 144
_cell_length_a 32.516461
_cell_length_b 8.606644
_cell_length_c 27.586601
_cell_angle_alpha 90.000000
_cell_angle_beta 90.000000
_cell_angle_gamma 90.000000
_cell_volume 7720.320057
_symmetry_space_group_name_H-M "F M M M"
_symmetry_group_IT_number 69
_symmetry_cell_setting 'orthorhombic'
loop_
_space_group_symop_operation_xyz
x,y,z
-x,-y,z
x,-y,-z
-x,y,-z
-x,-y,-z
x,y,-z
-x,y,z
x,-y,z
x,1/2+y,1/2+z
-x,1/2-y,1/2+z
x,1/2-y,1/2-z
-x,1/2+y,1/2-z
-x,1/2-y,1/2-z
x,1/2+y,1/2-z
-x,1/2+y,1/2+z
x,1/2-y,1/2+z
1/2+x,y,1/2+z
1/2-x,-y,1/2+z
1/2+x,-y,1/2-z
1/2-x,y,1/2-z
1/2-x,-y,1/2-z
1/2+x,y,1/2-z
1/2-x,y,1/2+z
1/2+x,-y,1/2+z
1/2+x,1/2+y,z
1/2-x,1/2-y,z
1/2+x,1/2-y,-z
1/2-x,1/2+y,-z
1/2-x,1/2-y,-z
1/2+x,1/2+y,-z
1/2-x,1/2+y,z
1/2+x,1/2-y,z
loop_
_atom_site_type_symbol
_atom_site_label
_atom_site_fract_x
_atom_site_fract_y
_atom_site_fract_z
Si Si1 0.377568 0.685207 0.801929
Si Si2 0.294034 0.186831 0.844817
Si Si3 0.500000 0.813802 0.556412
Si Si4 0.916487 0.186485 0.398345
Si Si5 0.169245 0.188493 0.553653
O O1 0.377343 0.500000 0.801676
O O2 0.390716 0.750000 0.750000
O O3 0.331758 0.747638 0.813763
O O4 0.405815 0.747312 0.845504
O O5 0.250000 0.250000 0.829223
O O6 0.303080 0.237418 0.900711
O O7 0.294953 0.000000 0.842743
O O8 0.500000 0.767229 0.500000
O O9 0.540963 0.749324 0.581350
O O10 0.500000 0.000000 0.559259
O O11 0.877723 0.230846 0.432633
O O12 0.917353 0.000000 0.396039
O O13 0.180490 0.245929 0.500000
O O14 0.170897 0.000000 0.552641
#
# Coordination Sequence:
#
# PCOD9512308 Si02
#       5
#    32  32  16  32  32
#     4  11  22  39  61  83 109 142 181 227 281 337
#     4  10  20  34  52  78 110 144 185 231 278 329
#     4  11  23  37  56  87 124 157 189 227 271 319
#     4  10  20  36  58  84 113 147 188 230 275 328
#     4   8  15  29  50  75 105 142 182 223 268 321
#
# _framework density 18.652077999999999
#
# number of rings (size 3 to 8) (size 9 to 14) (size 15 to 20)
#    0.000    2.111    0.000    5.667    0.000    2.667 
#    0.000    2.778    0.000   12.667    0.000    0.000 
#    0.000    0.000    0.000    0.000    0.000    0.000 
#
# Total GULP energy -201048.796538 kJ/mol
# GULP energy per Si atom -5584.688793 kJ/mol
# Density = 1.860962 g / cm^3
# Si number density = 18.652078 Si / 1000 Ang^3
#
#
#
# Elastic Constant Matrix: (Units=GPa)
#
#
# Indices 1 2 3 4 5 6 
#
# 1 98.3887 35.0206 23.3872 0.0000 0.0000 0.0000
# 2 35.0206 84.3755 33.5273 0.0000 0.0000 0.0000
# 3 23.3872 33.5273 103.7273 0.0000 0.0000 0.0000
# 4 0.0000 0.0000 0.0000 23.8839 0.0000 0.0000
# 5 0.0000 0.0000 0.0000 0.0000 5.0566 0.0000
# 6 0.0000 0.0000 0.0000 0.0000 0.0000 24.9907
#
#
#
# Elastic Compliance Matrix: (Units=1/GPa)
#
#
# Indices 1 2 3 4 5 6 
#
# 1 0.012068 -0.004507 -0.001264 0.000000 0.000000 0.000000
# 2 -0.004507 0.015281 -0.003923 0.000000 0.000000 0.000000
# 3 -0.001264 -0.003923 0.011194 0.000000 0.000000 0.000000
# 4 0.000000 0.000000 0.000000 0.041869 0.000000 0.000000
# 5 0.000000 0.000000 0.000000 0.000000 0.197762 0.000000
# 6 0.000000 0.000000 0.000000 0.000000 0.000000 0.040015
#
#
# Mechanical properties :
#
#
# Convention : Reuss Voigt Hill
#
# Bulk Modulus (GPa) = 52.20564 52.26242 52.23403
# Shear Modulus (GPa) = 14.53643 23.75666 19.14654
#
# Velocity S-wave (km/s) = 2.79471 3.57273 3.20740
# Velocity P-wave (km/s) = 6.20192 6.71563 6.46388
#
# Compressibility (1/GPa) = 0.01915502
#
# Stress axis : x y z
#
# Youngs Moduli (GPa) = 82.86089 65.43984 89.33507
#
# Poissons Ratio (x) = 0.29492 0.11295
# Poissons Ratio (y) = 0.37343 0.35048
# Poissons Ratio (z) = 0.10477 0.25673
#
# Static dielectric constant tensor:
#      x y z
#    x 1.612960 0.000000 0.000000 
#    y 0.000000 1.618990 0.000000 
#    z 0.000000 0.000000 1.651180 
# 
# From -- ./inp_files/47390.got.cif
#   From: 2010.05.17/outbox.cif.g08.bks.cpg/sg69_24_cif.got.tgz:47390.got - 2010.06.03 19:29:58.
