data_PCOD9512915
_publ_section_title
;
Structure prediction by ZEFSAII (Michael W. Deem and Ramdas Pophale) SiO2 
 PCOD9512915
Probable space group: F M M M
;
_chemical_formula_sum "Si O2"
_cell_formula_units_Z 200
_cell_length_a 29.889562
_cell_length_b 19.630047
_cell_length_c 15.354655
_cell_angle_alpha 90.000000
_cell_angle_beta 90.000000
_cell_angle_gamma 90.000000
_cell_volume 9009.090575
_symmetry_space_group_name_H-M "F M M M"
_symmetry_group_IT_number 69
_symmetry_cell_setting 'orthorhombic'
loop_
_space_group_symop_operation_xyz
x,y,z
-x,-y,z
x,-y,-z
-x,y,-z
-x,-y,-z
x,y,-z
-x,y,z
x,-y,z
x,1/2+y,1/2+z
-x,1/2-y,1/2+z
x,1/2-y,1/2-z
-x,1/2+y,1/2-z
-x,1/2-y,1/2-z
x,1/2+y,1/2-z
-x,1/2+y,1/2+z
x,1/2-y,1/2+z
1/2+x,y,1/2+z
1/2-x,-y,1/2+z
1/2+x,-y,1/2-z
1/2-x,y,1/2-z
1/2-x,-y,1/2-z
1/2+x,y,1/2-z
1/2-x,y,1/2+z
1/2+x,-y,1/2+z
1/2+x,1/2+y,z
1/2-x,1/2-y,z
1/2+x,1/2-y,-z
1/2-x,1/2+y,-z
1/2-x,1/2-y,-z
1/2+x,1/2+y,-z
1/2-x,1/2+y,z
1/2+x,1/2-y,z
loop_
_atom_site_type_symbol
_atom_site_label
_atom_site_fract_x
_atom_site_fract_y
_atom_site_fract_z
Si Si1 0.449545 0.682800 0.361380
Si Si2 0.234762 0.103033 0.656132
Si Si3 0.364981 0.423528 0.104431
Si Si4 0.196166 0.701561 0.605542
Si Si5 0.649382 0.841369 0.898812
Si Si6 0.950307 0.660059 0.346960
Si Si7 0.245609 0.000000 0.000000
O O1 0.500000 0.662958 0.391231
O O2 0.403691 0.648835 0.392627
O O3 0.449238 0.671088 0.257315
O O4 0.443741 0.763205 0.382892
O O5 0.250000 0.079454 0.750000
O O6 0.255024 0.179307 0.640087
O O7 0.181083 0.106345 0.650946
O O8 0.252240 0.058425 0.576582
O O9 0.358267 0.500000 0.138548
O O10 0.332074 0.364596 0.135670
O O11 0.413847 0.393686 0.123631
O O12 0.358648 0.427372 0.000000
O O13 0.198932 0.704523 0.500000
O O14 0.165913 0.766387 0.631905
O O15 0.662019 0.847369 0.000000
O O16 0.000000 0.637579 0.371854
#
# Coordination Sequence:
#
# PCOD9512915 Si02
#       7
#    32  32  32  32  32  32   8
#     4   9  19  35  60  89 121 166 220 279 349 401
#     4  12  27  43  71 101 129 183 222 268 343 401
#     4  10  21  34  54  85 119 170 217 254 316 397
#     4  10  21  39  62  91 135 176 214 273 329 392
#     4  11  22  40  65  99 136 170 221 292 345 383
#     4   9  18  34  53  81 121 164 213 280 338 390
#     4  12  26  56  66  94 149 168 221 282 316 414
#
# _framework density 22.199798999999999
#
# number of rings (size 3 to 8) (size 9 to 14) (size 15 to 20)
#    0.000    1.760    3.200    1.680    3.360    3.520 
#    0.000    2.400    0.000    0.000    0.000    0.560 
#    0.000    0.000    0.000    0.000    0.000    0.000 
#
# Total GULP energy -278737.501449 kJ/mol
# GULP energy per Si atom -5574.750029 kJ/mol
# Density = 2.214927 g / cm^3
# Si number density = 22.199799 Si / 1000 Ang^3
#
#
#
# Elastic Constant Matrix: (Units=GPa)
#
#
# Indices 1 2 3 4 5 6 
#
# 1 148.2804 13.2813 12.5880 0.0000 0.0000 0.0000
# 2 13.2813 47.9349 14.0572 0.0000 0.0000 0.0000
# 3 12.5880 14.0572 93.6033 0.0000 0.0000 0.0000
# 4 0.0000 0.0000 0.0000 -1.4799 0.0000 0.0000
# 5 0.0000 0.0000 0.0000 0.0000 29.3806 0.0000
# 6 0.0000 0.0000 0.0000 0.0000 0.0000 -31.4214
#
#
#
# Elastic Compliance Matrix: (Units=1/GPa)
#
#
# Indices 1 2 3 4 5 6 
#
# 1 0.006956 -0.001729 -0.000676 0.000000 0.000000 0.000000
# 2 -0.001729 0.022253 -0.003109 0.000000 0.000000 0.000000
# 3 -0.000676 -0.003109 0.011241 0.000000 0.000000 0.000000
# 4 0.000000 0.000000 0.000000 -0.675712 0.000000 0.000000
# 5 0.000000 0.000000 0.000000 0.000000 0.034036 0.000000
# 6 0.000000 0.000000 0.000000 0.000000 0.000000 -0.031825
#
#
# Mechanical properties :
#
#
# Convention : Reuss Voigt Hill
#
# Bulk Modulus (GPa) = 33.98887 41.07463 37.53175
# Shear Modulus (GPa) = -8.16706 15.95533 3.89414
#
# Velocity S-wave (km/s) = -1.92012 2.68379 1.32587
# Velocity P-wave (km/s) = 3.22922 5.30529 4.39169
#
# Compressibility (1/GPa) = 0.02942140
#
# Stress axis : x y z
#
# Youngs Moduli (GPa) = 143.75603 44.93869 88.95826
#
# Poissons Ratio (x) = 0.07771 0.06012
# Poissons Ratio (y) = 0.24858 0.27660
# Poissons Ratio (z) = 0.09715 0.13973
#
# Static dielectric constant tensor:
#      x y z
#    x 1.887570 0.000000 0.000000 
#    y 0.000000 1.832190 0.000000 
#    z 0.000000 0.000000 1.813660 
# 
# From -- ./inp_files/27891.got.cif
#   From: 2010.05.17/outbox.cif.g08.bks.cpg/sg69_14_cif.got.tgz:27891.got - 2010.06.03 19:29:58.
