data_PCOD9512138
_publ_section_title
;
Structure prediction by ZEFSAII (Michael W. Deem and Ramdas Pophale) SiO2 
 PCOD9512138
Probable space group: F M M M
;
_chemical_formula_sum "Si O2"
_cell_formula_units_Z 208
_cell_length_a 25.010152
_cell_length_b 25.735041
_cell_length_c 18.210788
_cell_angle_alpha 90.000000
_cell_angle_beta 90.000000
_cell_angle_gamma 90.000000
_cell_volume 11721.142185
_symmetry_space_group_name_H-M "F M M M"
_symmetry_group_IT_number 69
_symmetry_cell_setting 'orthorhombic'
loop_
_space_group_symop_operation_xyz
x,y,z
-x,-y,z
x,-y,-z
-x,y,-z
-x,-y,-z
x,y,-z
-x,y,z
x,-y,z
x,1/2+y,1/2+z
-x,1/2-y,1/2+z
x,1/2-y,1/2-z
-x,1/2+y,1/2-z
-x,1/2-y,1/2-z
x,1/2+y,1/2-z
-x,1/2+y,1/2+z
x,1/2-y,1/2+z
1/2+x,y,1/2+z
1/2-x,-y,1/2+z
1/2+x,-y,1/2-z
1/2-x,y,1/2-z
1/2-x,-y,1/2-z
1/2+x,y,1/2-z
1/2-x,y,1/2+z
1/2+x,-y,1/2+z
1/2+x,1/2+y,z
1/2-x,1/2-y,z
1/2+x,1/2-y,-z
1/2-x,1/2+y,-z
1/2-x,1/2-y,-z
1/2+x,1/2+y,-z
1/2-x,1/2+y,z
1/2+x,1/2-y,z
loop_
_atom_site_type_symbol
_atom_site_label
_atom_site_fract_x
_atom_site_fract_y
_atom_site_fract_z
Si Si1 0.064709 0.560166 0.500000
Si Si2 0.439116 0.594714 0.840260
Si Si3 0.937184 0.604843 0.085645
Si Si4 0.407599 0.291416 0.193211
Si Si5 0.364666 0.058336 0.209651
Si Si6 0.307291 0.665260 0.715047
Si Si7 0.367685 0.791232 0.914906
O O1 0.081206 0.500000 0.500000
O O2 0.081048 0.586210 0.576596
O O3 0.000000 0.561967 0.500000
O O4 0.500000 0.574790 0.834457
O O5 0.438786 0.655895 0.821811
O O6 0.400741 0.567001 0.782120
O O7 0.903911 0.568983 0.140670
O O8 0.911079 0.662140 0.093130
O O9 0.000000 0.605688 0.104200
O O10 0.931772 0.589550 0.000000
O O11 0.432805 0.250000 0.250000
O O12 0.353067 0.310110 0.233192
O O13 0.393046 0.260278 0.119905
O O14 0.320787 0.104029 0.208791
O O15 0.343417 0.000000 0.207428
O O16 0.250000 0.674524 0.750000
O O17 0.318072 0.691400 0.636029
O O18 0.354338 0.785754 0.000000
#
# Coordination Sequence:
#
# PCOD9512138 Si02
#       7
#    16  32  32  32  32  32  32
#     4   9  18  32  48  66  92 131 174 216 257 286
#     4  10  20  32  48  72 103 137 174 209 245 295
#     4   9  18  32  49  75 111 143 168 200 246 299
#     4   9  19  32  48  74 102 133 166 202 251 299
#     4  10  20  33  52  76  97 128 173 214 256 304
#     4   9  19  37  54  69  98 129 160 210 264 309
#     4   9  18  32  52  76 102 134 169 202 243 299
#
# _framework density 17.745711
#
# number of rings (size 3 to 8) (size 9 to 14) (size 15 to 20)
#    0.000    2.692    0.000    1.846    1.077    6.154 
#    0.000    2.308    1.692    0.000    0.000    0.000 
#    0.000    0.000    0.000    0.000    0.000    0.000 
#
# Total GULP energy -289979.329786 kJ/mol
# GULP energy per Si atom -5576.525573 kJ/mol
# Density = 1.770532 g / cm^3
# Si number density = 17.745711 Si / 1000 Ang^3
#
#
#
# Elastic Constant Matrix: (Units=GPa)
#
#
# Indices 1 2 3 4 5 6 
#
# 1 42.0734 -12.4726 15.6787 0.0000 0.0000 0.0000
# 2 -12.4726 71.4541 11.8319 0.0000 0.0000 0.0000
# 3 15.6787 11.8319 93.6650 0.0000 0.0000 0.0000
# 4 0.0000 0.0000 0.0000 20.5753 0.0000 0.0000
# 5 0.0000 0.0000 0.0000 0.0000 19.3418 0.0000
# 6 0.0000 0.0000 0.0000 0.0000 0.0000 12.0859
#
#
#
# Elastic Compliance Matrix: (Units=1/GPa)
#
#
# Indices 1 2 3 4 5 6 
#
# 1 0.027425 0.005666 -0.005306 0.000000 0.000000 0.000000
# 2 0.005666 0.015465 -0.002902 0.000000 0.000000 0.000000
# 3 -0.005306 -0.002902 0.011931 0.000000 0.000000 0.000000
# 4 0.000000 0.000000 0.000000 0.048602 0.000000 0.000000
# 5 0.000000 0.000000 0.000000 0.000000 0.051701 0.000000
# 6 0.000000 0.000000 0.000000 0.000000 0.000000 0.082741
#
#
# Mechanical properties :
#
#
# Convention : Reuss Voigt Hill
#
# Bulk Modulus (GPa) = 20.10625 26.36315 23.23470
# Shear Modulus (GPa) = 19.26567 23.21090 21.23829
#
# Velocity S-wave (km/s) = 3.29850 3.62051 3.46325
# Velocity P-wave (km/s) = 5.08543 5.68910 5.39571
#
# Compressibility (1/GPa) = 0.04973578
#
# Stress axis : x y z
#
# Youngs Moduli (GPa) = 36.46296 64.66421 83.81410
#
# Poissons Ratio (x) = -0.36638 0.44475
# Poissons Ratio (y) = -0.20659 0.24322
# Poissons Ratio (z) = 0.19349 0.18765
#
# Static dielectric constant tensor:
#      x y z
#    x 1.574450 0.000000 0.000000 
#    y 0.000000 1.619800 0.000000 
#    z 0.000000 0.000000 1.613460 
# 
# From -- ./inp_files/26985.got.cif
#   From: 2010.05.17/outbox.cif.g08.bks.cpg/sg69_14_cif.got.tgz:26985.got - 2010.06.03 19:29:58.
