data_PCOD9512214
_publ_section_title
;
Structure prediction by ZEFSAII (Michael W. Deem and Ramdas Pophale) SiO2 
 PCOD9512214
Probable space group: F M M M
;
_chemical_formula_sum "Si O2"
_cell_formula_units_Z 208
_cell_length_a 18.519840
_cell_length_b 22.259234
_cell_length_c 27.573587
_cell_angle_alpha 90.000000
_cell_angle_beta 90.000000
_cell_angle_gamma 90.000000
_cell_volume 11366.865253
_symmetry_space_group_name_H-M "F M M M"
_symmetry_group_IT_number 69
_symmetry_cell_setting 'orthorhombic'
loop_
_space_group_symop_operation_xyz
x,y,z
-x,-y,z
x,-y,-z
-x,y,-z
-x,-y,-z
x,y,-z
-x,y,z
x,-y,z
x,1/2+y,1/2+z
-x,1/2-y,1/2+z
x,1/2-y,1/2-z
-x,1/2+y,1/2-z
-x,1/2-y,1/2-z
x,1/2+y,1/2-z
-x,1/2+y,1/2+z
x,1/2-y,1/2+z
1/2+x,y,1/2+z
1/2-x,-y,1/2+z
1/2+x,-y,1/2-z
1/2-x,y,1/2-z
1/2-x,-y,1/2-z
1/2+x,y,1/2-z
1/2-x,y,1/2+z
1/2+x,-y,1/2+z
1/2+x,1/2+y,z
1/2-x,1/2-y,z
1/2+x,1/2-y,-z
1/2-x,1/2+y,-z
1/2-x,1/2-y,-z
1/2+x,1/2+y,-z
1/2-x,1/2+y,z
1/2+x,1/2-y,z
loop_
_atom_site_type_symbol
_atom_site_label
_atom_site_fract_x
_atom_site_fract_y
_atom_site_fract_z
Si Si1 0.664495 0.818927 0.808887
Si Si2 0.210582 0.932603 0.057766
Si Si3 0.342923 0.859094 0.088773
Si Si4 0.661272 0.321275 0.197614
Si Si5 0.080812 0.744560 0.442613
Si Si6 0.414083 0.930485 0.000000
Si Si7 0.082872 0.882279 0.888000
O O1 0.637149 0.858404 0.854149
O O2 0.642651 0.748573 0.814229
O O3 0.643726 0.834587 0.753846
O O4 0.752041 0.823366 0.809527
O O5 0.261857 0.882854 0.081849
O O6 0.132169 0.926736 0.081182
O O7 0.239088 0.000000 0.066605
O O8 0.208741 0.922813 0.000000
O O9 0.357742 0.790578 0.073460
O O10 0.385885 0.898057 0.048728
O O11 0.619890 0.366717 0.163007
O O12 0.085557 0.736062 0.500000
O O13 0.085388 0.680953 0.416803
O O14 0.000000 0.770274 0.431962
O O15 0.500000 0.927626 0.000000
O O16 0.390851 0.000000 0.000000
O O17 0.000000 0.900923 0.883126
#
# Coordination Sequence:
#
# PCOD9512214 Si02
#       7
#    32  32  32  32  32  16  32
#     4   9  18  31  59  82 117 149 183 232 288 349
#     4  11  24  40  58  82 111 149 202 249 282 331
#     4  12  19  34  60  88 114 148 189 240 291 342
#     4   9  17  35  52  86 116 148 187 230 290 351
#     4  10  20  33  51  83 122 153 182 226 292 362
#     4  11  24  40  58  83 121 165 196 231 295 361
#     4  11  22  37  57  81 117 156 191 236 291 346
#
# _framework density 18.298801000000001
#
# number of rings (size 3 to 8) (size 9 to 14) (size 15 to 20)
#    0.000    1.615    4.615    2.308    0.000    1.846 
#    0.000    5.385    0.000    2.769    0.000    0.000 
#    0.000    0.000    0.000    0.000    0.000    0.000 
#
# Total GULP energy -290019.975352 kJ/mol
# GULP energy per Si atom -5577.307218 kJ/mol
# Density = 1.825715 g / cm^3
# Si number density = 18.298801 Si / 1000 Ang^3
#
#
#
# Elastic Constant Matrix: (Units=GPa)
#
#
# Indices 1 2 3 4 5 6 
#
# 1 58.8879 16.0369 20.7467 0.0000 0.0000 0.0000
# 2 16.0369 41.3308 36.7886 0.0000 0.0000 0.0000
# 3 20.7467 36.7886 134.2802 0.0000 0.0000 0.0000
# 4 0.0000 0.0000 0.0000 6.0179 0.0000 0.0000
# 5 0.0000 0.0000 0.0000 0.0000 19.0395 0.0000
# 6 0.0000 0.0000 0.0000 0.0000 0.0000 25.9828
#
#
#
# Elastic Compliance Matrix: (Units=1/GPa)
#
#
# Indices 1 2 3 4 5 6 
#
# 1 0.019138 -0.006340 -0.001220 0.000000 0.000000 0.000000
# 2 -0.006340 0.034098 -0.008362 0.000000 0.000000 0.000000
# 3 -0.001220 -0.008362 0.009927 0.000000 0.000000 0.000000
# 4 0.000000 0.000000 0.000000 0.166171 0.000000 0.000000
# 5 0.000000 0.000000 0.000000 0.000000 0.052522 0.000000
# 6 0.000000 0.000000 0.000000 0.000000 0.000000 0.038487
#
#
# Mechanical properties :
#
#
# Convention : Reuss Voigt Hill
#
# Bulk Modulus (GPa) = 31.93006 42.40482 37.16744
# Shear Modulus (GPa) = 13.78827 20.93648 17.36238
#
# Velocity S-wave (km/s) = 2.74799 3.38619 3.08364
# Velocity P-wave (km/s) = 5.24935 6.20582 5.74752
#
# Compressibility (1/GPa) = 0.03131845
#
# Stress axis : x y z
#
# Youngs Moduli (GPa) = 52.25280 29.32691 100.73914
#
# Poissons Ratio (x) = 0.18593 0.12289
# Poissons Ratio (y) = 0.33128 0.84242
# Poissons Ratio (z) = 0.06374 0.24524
#
# Static dielectric constant tensor:
#      x y z
#    x 1.657180 0.000000 0.000000 
#    y 0.000000 1.617180 0.000000 
#    z 0.000000 0.000000 1.635780 
# 
# From -- ./inp_files/42122.got.cif
#   From: 2010.05.17/outbox.cif.g08.bks.cpg/sg69_22_cif.got.tgz:42122.got - 2010.06.03 19:29:58.
