data_PCOD9512824
_publ_section_title
;
Structure prediction by ZEFSAII (Michael W. Deem and Ramdas Pophale) SiO2 
 PCOD9512824
Probable space group: F M M M
;
_chemical_formula_sum "Si O2"
_cell_formula_units_Z 160
_cell_length_a 17.901039
_cell_length_b 22.695372
_cell_length_c 20.816113
_cell_angle_alpha 90.000000
_cell_angle_beta 90.000000
_cell_angle_gamma 90.000000
_cell_volume 8456.977618
_symmetry_space_group_name_H-M "F M M M"
_symmetry_group_IT_number 69
_symmetry_cell_setting 'orthorhombic'
loop_
_space_group_symop_operation_xyz
x,y,z
-x,-y,z
x,-y,-z
-x,y,-z
-x,-y,-z
x,y,-z
-x,y,z
x,-y,z
x,1/2+y,1/2+z
-x,1/2-y,1/2+z
x,1/2-y,1/2-z
-x,1/2+y,1/2-z
-x,1/2-y,1/2-z
x,1/2+y,1/2-z
-x,1/2+y,1/2+z
x,1/2-y,1/2+z
1/2+x,y,1/2+z
1/2-x,-y,1/2+z
1/2+x,-y,1/2-z
1/2-x,y,1/2-z
1/2-x,-y,1/2-z
1/2+x,y,1/2-z
1/2-x,y,1/2+z
1/2+x,-y,1/2+z
1/2+x,1/2+y,z
1/2-x,1/2-y,z
1/2+x,1/2-y,-z
1/2-x,1/2+y,-z
1/2-x,1/2-y,-z
1/2+x,1/2+y,-z
1/2-x,1/2+y,z
1/2+x,1/2-y,z
loop_
_atom_site_type_symbol
_atom_site_label
_atom_site_fract_x
_atom_site_fract_y
_atom_site_fract_z
Si Si1 0.000000 0.297544 0.075364
Si Si2 0.085263 0.380154 0.365248
Si Si3 0.780017 0.310820 0.573722
Si Si4 0.164544 0.500000 0.836074
Si Si5 0.633658 0.109804 0.925783
Si Si6 0.500000 0.706661 0.807187
Si Si7 0.156601 0.500000 0.683138
O O1 0.071359 0.340042 0.085505
O O2 0.000000 0.243928 0.126071
O O3 0.000000 0.278325 0.000000
O O4 0.145335 0.342726 0.403644
O O5 0.118044 0.442478 0.346342
O O6 0.000000 0.385908 0.392486
O O7 0.069670 0.337710 0.304541
O O8 0.795776 0.295655 0.500000
O O9 0.750000 0.250000 0.605227
O O10 0.713222 0.357616 0.577893
O O11 0.134417 0.556943 0.874718
O O12 0.145553 0.500000 0.760325
O O13 0.255543 0.500000 0.835298
O O14 0.623501 0.088581 0.000000
O O15 0.500000 0.750000 0.750000
#
# Coordination Sequence:
#
# PCOD9512824 Si02
#       7
#    16  32  32  16  32  16  16
#     4  10  22  41  64  95 130 162 207 260 326 389
#     4  10  23  41  63  89 128 164 211 257 308 377
#     4  10  20  38  64  93 125 163 205 257 322 377
#     4  11  23  39  67  86 122 162 216 256 310 377
#     4  10  21  38  64  91 123 160 202 262 316 374
#     4  10  24  39  63  95 125 165 201 265 316 370
#     4  11  23  44  61  88 122 174 210 261 310 373
#
# _framework density 18.919288000000002
#
# number of rings (size 3 to 8) (size 9 to 14) (size 15 to 20)
#    0.600    1.200    2.000    1.800    2.800    3.200 
#    1.800    2.000    0.000    1.200    0.000    0.000 
#    0.000    0.000    0.000    0.000    0.000    0.000 
#
# Total GULP energy -222774.701638 kJ/mol
# GULP energy per Si atom -5569.367541 kJ/mol
# Density = 1.887623 g / cm^3
# Si number density = 18.919288 Si / 1000 Ang^3
#
#
#
# Elastic Constant Matrix: (Units=GPa)
#
#
# Indices 1 2 3 4 5 6 
#
# 1 114.8814 34.7793 15.5060 0.0000 0.0000 0.0000
# 2 34.7793 133.6899 43.3652 0.0000 0.0000 0.0000
# 3 15.5060 43.3652 39.6340 0.0000 0.0000 0.0000
# 4 0.0000 0.0000 0.0000 18.4780 0.0000 0.0000
# 5 0.0000 0.0000 0.0000 0.0000 18.7971 0.0000
# 6 0.0000 0.0000 0.0000 0.0000 0.0000 16.5537
#
#
#
# Elastic Compliance Matrix: (Units=1/GPa)
#
#
# Indices 1 2 3 4 5 6 
#
# 1 0.009512 -0.001965 -0.001572 0.000000 0.000000 0.000000
# 2 -0.001965 0.012001 -0.012362 0.000000 0.000000 0.000000
# 3 -0.001572 -0.012362 0.039372 0.000000 0.000000 0.000000
# 4 0.000000 0.000000 0.000000 0.054118 0.000000 0.000000
# 5 0.000000 0.000000 0.000000 0.000000 0.053200 0.000000
# 6 0.000000 0.000000 0.000000 0.000000 0.000000 0.060409
#
#
# Mechanical properties :
#
#
# Convention : Reuss Voigt Hill
#
# Bulk Modulus (GPa) = 34.37915 52.83405 43.60660
# Shear Modulus (GPa) = 18.51137 23.73610 21.12373
#
# Velocity S-wave (km/s) = 3.13139 3.54587 3.34506
# Velocity P-wave (km/s) = 5.59331 6.68961 6.16588
#
# Compressibility (1/GPa) = 0.02908739
#
# Stress axis : x y z
#
# Youngs Moduli (GPa) = 105.13558 83.32600 25.39892
#
# Poissons Ratio (x) = 0.16371 0.03992
# Poissons Ratio (y) = 0.20655 0.31399
# Poissons Ratio (z) = 0.16523 1.03010
#
# Static dielectric constant tensor:
#      x y z
#    x 1.721270 0.000000 0.000000 
#    y 0.000000 1.651190 0.000000 
#    z 0.000000 0.000000 1.663910 
# 
# From -- ./inp_files/31054.got.cif
#   From: 2010.05.17/outbox.cif.g08.bks.cpg/sg69_16_cif.got.tgz:31054.got - 2010.06.03 19:29:58.
