data_PCOD9512808
_publ_section_title
;
Structure prediction by ZEFSAII (Michael W. Deem and Ramdas Pophale) SiO2 
 PCOD9512808
Probable space group: F M M M
;
_chemical_formula_sum "Si O2"
_cell_formula_units_Z 132
_cell_length_a 14.635756
_cell_length_b 30.307842
_cell_length_c 15.226795
_cell_angle_alpha 90.000000
_cell_angle_beta 90.000000
_cell_angle_gamma 90.000000
_cell_volume 6754.274019
_symmetry_space_group_name_H-M "F M M M"
_symmetry_group_IT_number 69
_symmetry_cell_setting 'orthorhombic'
loop_
_space_group_symop_operation_xyz
x,y,z
-x,-y,z
x,-y,-z
-x,y,-z
-x,-y,-z
x,y,-z
-x,y,z
x,-y,z
x,1/2+y,1/2+z
-x,1/2-y,1/2+z
x,1/2-y,1/2-z
-x,1/2+y,1/2-z
-x,1/2-y,1/2-z
x,1/2+y,1/2-z
-x,1/2+y,1/2+z
x,1/2-y,1/2+z
1/2+x,y,1/2+z
1/2-x,-y,1/2+z
1/2+x,-y,1/2-z
1/2-x,y,1/2-z
1/2-x,-y,1/2-z
1/2+x,y,1/2-z
1/2-x,y,1/2+z
1/2+x,-y,1/2+z
1/2+x,1/2+y,z
1/2-x,1/2-y,z
1/2+x,1/2-y,-z
1/2-x,1/2+y,-z
1/2-x,1/2-y,-z
1/2+x,1/2+y,-z
1/2-x,1/2+y,z
1/2+x,1/2-y,z
loop_
_atom_site_type_symbol
_atom_site_label
_atom_site_fract_x
_atom_site_fract_y
_atom_site_fract_z
Si Si1 0.860747 0.800112 0.752797
Si Si2 0.000000 0.000000 0.000000
Si Si3 0.135621 0.630266 0.100526
Si Si4 0.000000 0.050954 0.362080
Si Si5 0.000000 0.432385 0.338585
Si Si6 0.853736 0.634193 0.397850
O O1 0.893743 0.750000 0.750000
O O2 0.750000 0.798906 0.750000
O O3 0.891000 0.833212 0.674130
O O4 0.880887 0.821726 0.846594
O O5 0.000000 0.037089 0.922644
O O6 0.085178 0.583150 0.112881
O O7 0.245235 0.625756 0.108995
O O8 0.116669 0.645090 0.000000
O O9 0.000000 0.047311 0.257173
O O10 0.000000 0.000000 0.396366
O O11 0.090461 0.403153 0.348175
O O12 0.878081 0.635359 0.500000
#
# Coordination Sequence:
#
# PCOD9512808 Si02
#       6
#    32   4  32  16  16  32
#     4   9  18  34  60  92 124 157 198 242 293 358
#     4  12  24  40  60  96 118 142 212 248 316 360
#     4  10  22  40  61  86 123 161 200 247 294 351
#     4  12  25  42  62  87 115 159 203 247 301 354
#     4  12  22  39  62  87 118 153 190 254 300 354
#     4  10  20  38  62  87 120 159 195 241 304 352
#
# _framework density 19.54318
#
# number of rings (size 3 to 8) (size 9 to 14) (size 15 to 20)
#    0.000    1.697    4.242    0.364    0.000    1.939 
#    2.182    8.485    0.000    2.909    0.000    0.000 
#    0.000    0.000    0.000    0.000    0.000    0.000 
#
# Total GULP energy -183751.884203 kJ/mol
# GULP energy per Si atom -5568.238915 kJ/mol
# Density = 1.949870 g / cm^3
# Si number density = 19.543180 Si / 1000 Ang^3
#
#
#
# Elastic Constant Matrix: (Units=GPa)
#
#
# Indices 1 2 3 4 5 6 
#
# 1 78.5801 34.5859 22.7911 0.0000 0.0000 0.0000
# 2 34.5859 156.0998 46.1669 0.0000 0.0000 0.0000
# 3 22.7911 46.1669 121.7416 0.0000 0.0000 0.0000
# 4 0.0000 0.0000 0.0000 37.7441 0.0000 0.0000
# 5 0.0000 0.0000 0.0000 0.0000 21.1455 0.0000
# 6 0.0000 0.0000 0.0000 0.0000 0.0000 25.9945
#
#
#
# Elastic Compliance Matrix: (Units=1/GPa)
#
#
# Indices 1 2 3 4 5 6 
#
# 1 0.014397 -0.002695 -0.001673 0.000000 0.000000 0.000000
# 2 -0.002695 0.007720 -0.002423 0.000000 0.000000 0.000000
# 3 -0.001673 -0.002423 0.009446 0.000000 0.000000 0.000000
# 4 0.000000 0.000000 0.000000 0.026494 0.000000 0.000000
# 5 0.000000 0.000000 0.000000 0.000000 0.047291 0.000000
# 6 0.000000 0.000000 0.000000 0.000000 0.000000 0.038470
#
#
# Mechanical properties :
#
#
# Convention : Reuss Voigt Hill
#
# Bulk Modulus (GPa) = 55.61486 62.61212 59.11349
# Shear Modulus (GPa) = 30.60069 33.83534 32.21801
#
# Velocity S-wave (km/s) = 3.96131 4.16542 4.06465
# Velocity P-wave (km/s) = 7.03149 7.43247 7.23476
#
# Compressibility (1/GPa) = 0.01798081
#
# Stress axis : x y z
#
# Youngs Moduli (GPa) = 69.45710 129.53560 105.86241
#
# Poissons Ratio (x) = 0.34910 0.17714
# Poissons Ratio (y) = 0.18719 0.25650
# Poissons Ratio (z) = 0.11622 0.31386
#
# Static dielectric constant tensor:
#      x y z
#    x 1.721450 0.000000 0.000000 
#    y 0.000000 1.682750 0.000000 
#    z 0.000000 0.000000 1.669390 
# 
# From -- ./inp_files/15394.got.cif
#   From: 2010.05.17/outbox.cif.g08.bks.cpg/sg69_8_cif.got.tgz:15394.got - 2010.06.03 19:29:58.
