data_PCOD9512730
_publ_section_title
;
Structure prediction by ZEFSAII (Michael W. Deem and Ramdas Pophale) SiO2 
 PCOD9512730
Probable space group: F M M M
;
_chemical_formula_sum "Si O2"
_cell_formula_units_Z 168
_cell_length_a 14.463384
_cell_length_b 19.138554
_cell_length_c 32.857875
_cell_angle_alpha 90.000000
_cell_angle_beta 90.000000
_cell_angle_gamma 90.000000
_cell_volume 9095.331065
_symmetry_space_group_name_H-M "F M M M"
_symmetry_group_IT_number 69
_symmetry_cell_setting 'orthorhombic'
loop_
_space_group_symop_operation_xyz
x,y,z
-x,-y,z
x,-y,-z
-x,y,-z
-x,-y,-z
x,y,-z
-x,y,z
x,-y,z
x,1/2+y,1/2+z
-x,1/2-y,1/2+z
x,1/2-y,1/2-z
-x,1/2+y,1/2-z
-x,1/2-y,1/2-z
x,1/2+y,1/2-z
-x,1/2+y,1/2+z
x,1/2-y,1/2+z
1/2+x,y,1/2+z
1/2-x,-y,1/2+z
1/2+x,-y,1/2-z
1/2-x,y,1/2-z
1/2-x,-y,1/2-z
1/2+x,y,1/2-z
1/2-x,y,1/2+z
1/2+x,-y,1/2+z
1/2+x,1/2+y,z
1/2-x,1/2-y,z
1/2+x,1/2-y,-z
1/2-x,1/2+y,-z
1/2-x,1/2-y,-z
1/2+x,1/2+y,-z
1/2-x,1/2+y,z
1/2+x,1/2-y,z
loop_
_atom_site_type_symbol
_atom_site_label
_atom_site_fract_x
_atom_site_fract_y
_atom_site_fract_z
Si Si1 0.151703 0.717059 0.428544
Si Si2 0.000000 0.725942 0.500000
Si Si3 0.891505 0.835313 0.635565
Si Si4 0.893585 0.582664 0.697661
Si Si5 0.612162 0.178452 0.229368
Si Si6 0.783898 0.082458 0.114339
O O1 0.250000 0.750000 0.440647
O O2 0.122056 0.763136 0.389080
O O3 0.166084 0.636239 0.416104
O O4 0.079623 0.725433 0.464249
O O5 0.860855 0.827168 0.682500
O O6 0.822692 0.892694 0.616579
O O7 0.000000 0.854441 0.633962
O O8 0.895794 0.500000 0.704036
O O9 0.860280 0.618543 0.739053
O O10 0.831009 0.595562 0.658356
O O11 0.000000 0.606457 0.689506
O O12 0.500000 0.178176 0.228297
O O13 0.642359 0.250000 0.250000
O O14 0.792730 0.000000 0.104987
#
# Coordination Sequence:
#
# PCOD9512730 Si02
#       6
#    32   8  32  32  32  32
#     4  10  22  40  63  94 120 149 189 233 289 360
#     4  12  22  40  73  94 115 146 182 242 296 350
#     4  10  20  37  59  84 117 156 200 245 288 342
#     4   9  18  32  50  75 113 160 201 237 281 332
#     4   9  17  29  50  78 109 149 198 251 291 325
#     4  10  22  38  57  84 121 161 196 237 287 345
#
# _framework density 18.471015000000001
#
# number of rings (size 3 to 8) (size 9 to 14) (size 15 to 20)
#    0.000    2.286    0.952    1.429    1.333    3.429 
#    0.000    5.714    0.000    0.000    0.000    2.667 
#    0.000    0.000    0.000    0.000    0.000    0.000 
#
# Total GULP energy -233809.018822 kJ/mol
# GULP energy per Si atom -5566.881401 kJ/mol
# Density = 1.842897 g / cm^3
# Si number density = 18.471015 Si / 1000 Ang^3
#
#
#
# Elastic Constant Matrix: (Units=GPa)
#
#
# Indices 1 2 3 4 5 6 
#
# 1 103.8297 34.6623 42.7218 0.0000 0.0000 0.0000
# 2 34.6623 84.7327 49.9041 0.0000 0.0000 0.0000
# 3 42.7218 49.9041 89.2172 0.0000 0.0000 0.0000
# 4 0.0000 0.0000 0.0000 -0.7926 0.0000 0.0000
# 5 0.0000 0.0000 0.0000 0.0000 57.8053 0.0000
# 6 0.0000 0.0000 0.0000 0.0000 0.0000 6.7490
#
#
#
# Elastic Compliance Matrix: (Units=1/GPa)
#
#
# Indices 1 2 3 4 5 6 
#
# 1 0.012295 -0.002330 -0.004585 0.000000 0.000000 0.000000
# 2 -0.002330 0.018041 -0.008976 0.000000 0.000000 0.000000
# 3 -0.004585 -0.008976 0.018425 0.000000 0.000000 0.000000
# 4 0.000000 0.000000 0.000000 -1.261723 0.000000 0.000000
# 5 0.000000 0.000000 0.000000 0.000000 0.017299 0.000000
# 6 0.000000 0.000000 0.000000 0.000000 0.000000 0.148170
#
#
# Mechanical properties :
#
#
# Convention : Reuss Voigt Hill
#
# Bulk Modulus (GPa) = 58.88933 59.15068 59.02001
# Shear Modulus (GPa) = -4.95024 22.78512 8.91744
#
# Velocity S-wave (km/s) = -1.63885 3.51602 2.19961
# Velocity P-wave (km/s) = 5.32636 6.96966 6.20268
#
# Compressibility (1/GPa) = 0.01698100
#
# Stress axis : x y z
#
# Youngs Moduli (GPa) = 81.33250 55.42849 54.27518
#
# Poissons Ratio (x) = 0.12913 0.24882
# Poissons Ratio (y) = 0.18947 0.48717
# Poissons Ratio (z) = 0.37287 0.49752
#
# Static dielectric constant tensor:
#      x y z
#    x 1.680770 0.000000 0.000000 
#    y 0.000000 1.602620 0.000000 
#    z 0.000000 0.000000 1.624810 
# 
# From -- ./inp_files/40972.got.cif
#   From: 2010.05.17/outbox.cif.g08.bks.cpg/sg69_21_cif.got.tgz:40972.got - 2010.06.03 19:29:58.
