data_PCOD9512265
_publ_section_title
;
Structure prediction by ZEFSAII (Michael W. Deem and Ramdas Pophale) SiO2 
 PCOD9512265
Probable space group: F M M M
;
_chemical_formula_sum "Si O2"
_cell_formula_units_Z 160
_cell_length_a 30.758766
_cell_length_b 28.191638
_cell_length_c 10.347695
_cell_angle_alpha 90.000000
_cell_angle_beta 90.000000
_cell_angle_gamma 90.000000
_cell_volume 8972.900205
_symmetry_space_group_name_H-M "F M M M"
_symmetry_group_IT_number 69
_symmetry_cell_setting 'orthorhombic'
loop_
_space_group_symop_operation_xyz
x,y,z
-x,-y,z
x,-y,-z
-x,y,-z
-x,-y,-z
x,y,-z
-x,y,z
x,-y,z
x,1/2+y,1/2+z
-x,1/2-y,1/2+z
x,1/2-y,1/2-z
-x,1/2+y,1/2-z
-x,1/2-y,1/2-z
x,1/2+y,1/2-z
-x,1/2+y,1/2+z
x,1/2-y,1/2+z
1/2+x,y,1/2+z
1/2-x,-y,1/2+z
1/2+x,-y,1/2-z
1/2-x,y,1/2-z
1/2-x,-y,1/2-z
1/2+x,y,1/2-z
1/2-x,y,1/2+z
1/2+x,-y,1/2+z
1/2+x,1/2+y,z
1/2-x,1/2-y,z
1/2+x,1/2-y,-z
1/2-x,1/2+y,-z
1/2-x,1/2-y,-z
1/2+x,1/2+y,-z
1/2-x,1/2+y,z
1/2+x,1/2-y,z
loop_
_atom_site_type_symbol
_atom_site_label
_atom_site_fract_x
_atom_site_fract_y
_atom_site_fract_z
Si Si1 0.804152 0.311799 0.000000
Si Si2 0.209709 0.801836 0.000000
Si Si3 0.788902 0.056952 0.847671
Si Si4 0.615455 0.898628 0.652871
Si Si5 0.449947 0.057027 0.854562
Si Si6 0.352515 0.806022 0.739095
O O1 0.792820 0.255519 0.000000
O O2 0.754974 0.329616 0.000000
O O3 0.831959 0.321730 0.874223
O O4 0.184291 0.812568 0.869661
O O5 0.750000 0.071488 0.750000
O O6 0.835148 0.082619 0.822476
O O7 0.795248 0.000000 0.830311
O O8 0.778068 0.064260 0.000000
O O9 0.607448 0.904694 0.500000
O O10 0.582132 0.925853 0.743901
O O11 0.611896 0.843249 0.692714
O O12 0.500000 0.072150 0.832674
O O13 0.449669 0.000000 0.855427
O O14 0.436966 0.072875 0.000000
O O15 0.363988 0.750000 0.750000
#
# Coordination Sequence:
#
# PCOD9512265 Si02
#       6
#    16  16  32  32  32  32
#     4   9  18  28  50  68  92 143 196 238 284 327
#     4   9  16  32  46  68 100 137 188 246 288 319
#     4   9  19  35  52  73 106 146 185 225 268 321
#     4  11  22  36  55  84 114 147 188 232 280 332
#     4   9  20  40  65  92 118 140 170 220 280 342
#     4  10  20  34  49  73 108 146 189 236 285 331
#
# _framework density 17.831469999999999
#
# number of rings (size 3 to 8) (size 9 to 14) (size 15 to 20)
#    0.000    2.400    1.000    1.800    1.400    6.400 
#    0.000    3.000    0.000    0.600    0.000    0.000 
#    0.000    0.000    0.000    0.000    0.000    0.000 
#
# Total GULP energy -222887.724291 kJ/mol
# GULP energy per Si atom -5572.193107 kJ/mol
# Density = 1.779088 g / cm^3
# Si number density = 17.831470 Si / 1000 Ang^3
#
#
#
# Elastic Constant Matrix: (Units=GPa)
#
#
# Indices 1 2 3 4 5 6 
#
# 1 76.4716 34.8616 72.3703 0.0005 -0.0006 0.0002
# 2 34.8616 66.3744 36.7048 0.0032 -0.0033 -0.0014
# 3 72.3703 36.7048 160.1652 0.0091 -0.0089 -0.0028
# 4 0.0005 0.0032 0.0091 40.5221 -0.0059 -0.0020
# 5 -0.0006 -0.0033 -0.0089 -0.0059 41.7649 0.0022
# 6 0.0002 -0.0014 -0.0028 -0.0020 0.0022 3.6260
#
#
#
# Elastic Compliance Matrix: (Units=1/GPa)
#
#
# Indices 1 2 3 4 5 6 
#
# 1 0.026310 -0.008296 -0.009987 0.000003 -0.000002 -0.000012
# 2 -0.008296 0.019868 -0.000805 -0.000001 0.000001 0.000007
# 3 -0.009987 -0.000805 0.010941 -0.000002 0.000002 0.000009
# 4 0.000003 -0.000001 -0.000002 0.024678 0.000003 0.000013
# 5 -0.000002 0.000001 0.000002 0.000003 0.023944 -0.000014
# 6 -0.000012 0.000007 0.000009 0.000013 -0.000014 0.275783
#
#
# Mechanical properties :
#
#
# Convention : Reuss Voigt Hill
#
# Bulk Modulus (GPa) = 52.78810 65.65384 59.22097
# Shear Modulus (GPa) = 11.73674 27.78758 19.76216
#
# Velocity S-wave (km/s) = 2.56833 3.95187 3.33269
# Velocity P-wave (km/s) = 6.20188 7.59750 6.93489
#
# Compressibility (1/GPa) = 0.01894366
#
# Stress axis : x y z
#
# Youngs Moduli (GPa) = 38.00835 50.33141 91.40320
#
# Poissons Ratio (x) = 0.41755 0.91284
# Poissons Ratio (y) = 0.31532 0.07355
# Poissons Ratio (z) = 0.37959 0.04050
#
# Static dielectric constant tensor:
#      x y z
#    x 1.617470 0.000000 0.000000 
#    y 0.000000 1.716900 0.000000 
#    z 0.000000 0.000000 1.601950 
# 
# From -- ./inp_files/5767.got.cif
#   From: 2010.05.17/outbox.cif.g08.bks.cpg/sg69_3_cif.got.tgz:5767.got - 2010.06.03 19:29:58.
