data_PCOD9512823
_publ_section_title
;
Structure prediction by ZEFSAII (Michael W. Deem and Ramdas Pophale) SiO2 
 PCOD9512823
Probable space group: F M M M
;
_chemical_formula_sum "Si O2"
_cell_formula_units_Z 160
_cell_length_a 22.250982
_cell_length_b 19.270459
_cell_length_c 20.260987
_cell_angle_alpha 90.000000
_cell_angle_beta 90.000000
_cell_angle_gamma 90.000000
_cell_volume 8687.640465
_symmetry_space_group_name_H-M "F M M M"
_symmetry_group_IT_number 69
_symmetry_cell_setting 'orthorhombic'
loop_
_space_group_symop_operation_xyz
x,y,z
-x,-y,z
x,-y,-z
-x,y,-z
-x,-y,-z
x,y,-z
-x,y,z
x,-y,z
x,1/2+y,1/2+z
-x,1/2-y,1/2+z
x,1/2-y,1/2-z
-x,1/2+y,1/2-z
-x,1/2-y,1/2-z
x,1/2+y,1/2-z
-x,1/2+y,1/2+z
x,1/2-y,1/2+z
1/2+x,y,1/2+z
1/2-x,-y,1/2+z
1/2+x,-y,1/2-z
1/2-x,y,1/2-z
1/2-x,-y,1/2-z
1/2+x,y,1/2-z
1/2-x,y,1/2+z
1/2+x,-y,1/2+z
1/2+x,1/2+y,z
1/2-x,1/2-y,z
1/2+x,1/2-y,-z
1/2-x,1/2+y,-z
1/2-x,1/2-y,-z
1/2+x,1/2+y,-z
1/2-x,1/2+y,z
1/2+x,1/2-y,z
loop_
_atom_site_type_symbol
_atom_site_label
_atom_site_fract_x
_atom_site_fract_y
_atom_site_fract_z
Si Si1 0.765729 0.079584 0.172412
Si Si2 0.650076 0.417644 0.421679
Si Si3 0.072867 0.824425 0.327879
Si Si4 0.618281 0.332200 0.816447
Si Si5 0.070993 0.422415 0.430126
O O1 0.750000 0.078643 0.250000
O O2 0.710094 0.093238 0.122973
O O3 0.814748 0.140590 0.168943
O O4 0.786697 0.000000 0.157614
O O5 0.658047 0.401793 0.500000
O O6 0.635898 0.500000 0.416803
O O7 0.598598 0.371573 0.386822
O O8 0.103486 0.748254 0.328843
O O9 0.096395 0.852308 0.257026
O O10 0.000000 0.819234 0.328188
O O11 0.581393 0.374616 0.869186
O O12 0.095369 0.394641 0.500000
O O13 0.095270 0.500000 0.421144
O O14 0.000000 0.428377 0.436017
#
# Coordination Sequence:
#
# PCOD9512823 Si02
#       5
#    32  32  32  32  32
#     4  10  20  38  64  91 120 158 203 252 309 368
#     4  10  23  44  66  91 123 159 208 265 313 366
#     4  11  24  40  59  89 126 166 212 253 300 364
#     4  11  21  37  60  87 124 160 199 250 307 363
#     4   9  18  32  51  79 114 151 193 240 292 353
#
# _framework density 18.416968000000001
#
# number of rings (size 3 to 8) (size 9 to 14) (size 15 to 20)
#    0.000    1.800    2.000    3.600    0.000    4.000 
#    0.000    4.000    0.000    0.000    0.000    0.000 
#    0.000    0.000    0.000    0.000    0.000    0.000 
#
# Total GULP energy -222750.851097 kJ/mol
# GULP energy per Si atom -5568.771277 kJ/mol
# Density = 1.837505 g / cm^3
# Si number density = 18.416968 Si / 1000 Ang^3
#
#
#
# Elastic Constant Matrix: (Units=GPa)
#
#
# Indices 1 2 3 4 5 6 
#
# 1 97.3747 48.5385 37.3251 0.0000 0.0000 0.0000
# 2 48.5385 70.4579 65.2663 0.0000 0.0000 0.0000
# 3 37.3251 65.2663 152.5716 0.0000 0.0000 0.0000
# 4 0.0000 0.0000 0.0000 53.4001 0.0000 0.0000
# 5 0.0000 0.0000 0.0000 0.0000 32.6608 0.0000
# 6 0.0000 0.0000 0.0000 0.0000 0.0000 31.5967
#
#
#
# Elastic Compliance Matrix: (Units=1/GPa)
#
#
# Indices 1 2 3 4 5 6 
#
# 1 0.015797 -0.012096 0.001310 0.000000 0.000000 0.000000
# 2 -0.012096 0.032770 -0.011059 0.000000 0.000000 0.000000
# 3 0.001310 -0.011059 0.010965 0.000000 0.000000 0.000000
# 4 0.000000 0.000000 0.000000 0.018727 0.000000 0.000000
# 5 0.000000 0.000000 0.000000 0.000000 0.030618 0.000000
# 6 0.000000 0.000000 0.000000 0.000000 0.000000 0.031649
#
#
# Mechanical properties :
#
#
# Convention : Reuss Voigt Hill
#
# Bulk Modulus (GPa) = 63.12604 69.18487 66.15545
# Shear Modulus (GPa) = 26.38593 34.81648 30.60121
#
# Velocity S-wave (km/s) = 3.78920 4.35265 4.08067
# Velocity P-wave (km/s) = 7.31400 7.93147 7.62898
#
# Compressibility (1/GPa) = 0.01584132
#
# Stress axis : x y z
#
# Youngs Moduli (GPa) = 63.30334 30.51600 91.20223
#
# Poissons Ratio (x) = 0.36911 -0.11944
# Poissons Ratio (y) = 0.76570 1.00860
# Poissons Ratio (z) = -0.08291 0.33748
#
# Static dielectric constant tensor:
#      x y z
#    x 1.781330 0.000000 0.000000 
#    y 0.000000 1.677700 0.000000 
#    z 0.000000 0.000000 1.694190 
# 
# From -- ./inp_files/24595.got.cif
#   From: 2010.05.17/outbox.cif.g08.bks.cpg/sg69_13_cif.got.tgz:24595.got - 2010.06.03 19:29:58.
