data_PCOD9512013
_publ_section_title
;
Structure prediction by ZEFSAII (Michael W. Deem and Ramdas Pophale) SiO2 
 PCOD9512013
Probable space group: F M M M
;
_chemical_formula_sum "Si O2"
_cell_formula_units_Z 112
_cell_length_a 18.644510
_cell_length_b 17.198670
_cell_length_c 15.142250
_cell_angle_alpha 90.000000
_cell_angle_beta 90.000000
_cell_angle_gamma 90.000000
_cell_volume 4855.525617
_symmetry_space_group_name_H-M "F M M M"
_symmetry_group_IT_number 69
_symmetry_cell_setting 'orthorhombic'
loop_
_space_group_symop_operation_xyz
x,y,z
-x,-y,z
x,-y,-z
-x,y,-z
-x,-y,-z
x,y,-z
-x,y,z
x,-y,z
x,1/2+y,1/2+z
-x,1/2-y,1/2+z
x,1/2-y,1/2-z
-x,1/2+y,1/2-z
-x,1/2-y,1/2-z
x,1/2+y,1/2-z
-x,1/2+y,1/2+z
x,1/2-y,1/2+z
1/2+x,y,1/2+z
1/2-x,-y,1/2+z
1/2+x,-y,1/2-z
1/2-x,y,1/2-z
1/2-x,-y,1/2-z
1/2+x,y,1/2-z
1/2-x,y,1/2+z
1/2+x,-y,1/2+z
1/2+x,1/2+y,z
1/2-x,1/2-y,z
1/2+x,1/2-y,-z
1/2-x,1/2+y,-z
1/2-x,1/2-y,-z
1/2+x,1/2+y,-z
1/2-x,1/2+y,z
1/2+x,1/2-y,z
loop_
_atom_site_type_symbol
_atom_site_label
_atom_site_fract_x
_atom_site_fract_y
_atom_site_fract_z
Si Si1 0.582514 0.825831 0.892401
Si Si2 0.721820 0.587513 0.650119
Si Si3 0.358473 0.161423 0.398532
Si Si4 0.084991 0.500000 0.396358
O O1 0.500000 0.837722 0.866015
O O2 0.639757 0.888013 0.858549
O O3 0.611080 0.741204 0.861063
O O4 0.585274 0.827957 0.000000
O O5 0.732657 0.500000 0.614489
O O6 0.750000 0.588255 0.750000
O O7 0.772899 0.650638 0.603261
O O8 0.383944 0.161532 0.500000
O O9 0.387135 0.080931 0.357157
O O10 0.107811 0.500000 0.500000
O O11 0.000000 0.500000 0.393474
#
# Coordination Sequence:
#
# PCOD9512013 Si02
#       4
#    32  32  32  16
#     4  10  22  40  64  94 125 158 201 255 310 366
#     4  11  24  41  60  84 121 163 209 253 302 367
#     4  10  19  35  60  89 118 153 201 251 303 363
#     4   9  16  28  51  82 115 147 183 236 296 350
#
# _framework density 23.066503000000001
#
# number of rings (size 3 to 8) (size 9 to 14) (size 15 to 20)
#    0.000    1.857    1.429    2.571    0.000   10.286 
#    0.000    5.714    0.000    0.000    0.000    0.000 
#    0.000    0.000    0.000    0.000    0.000    0.000 
#
# Total GULP energy -156467.902756 kJ/mol
# GULP energy per Si atom -5588.139384 kJ/mol
# Density = 2.301400 g / cm^3
# Si number density = 23.066503 Si / 1000 Ang^3
#
#
#
# Elastic Constant Matrix: (Units=GPa)
#
#
# Indices 1 2 3 4 5 6 
#
# 1 174.6318 51.9892 18.7653 0.0000 0.0000 0.0000
# 2 51.9892 70.2393 13.2697 0.0000 0.0000 0.0000
# 3 18.7653 13.2697 51.0580 0.0000 0.0000 0.0000
# 4 0.0000 0.0000 0.0000 3.1363 0.0000 0.0000
# 5 0.0000 0.0000 0.0000 0.0000 21.2904 0.0000
# 6 0.0000 0.0000 0.0000 0.0000 0.0000 32.6911
#
#
#
# Elastic Compliance Matrix: (Units=1/GPa)
#
#
# Indices 1 2 3 4 5 6 
#
# 1 0.007435 -0.005244 -0.001370 0.000000 0.000000 0.000000
# 2 -0.005244 0.018671 -0.002925 0.000000 0.000000 0.000000
# 3 -0.001370 -0.002925 0.020849 0.000000 0.000000 0.000000
# 4 0.000000 0.000000 0.000000 0.318850 0.000000 0.000000
# 5 0.000000 0.000000 0.000000 0.000000 0.046970 0.000000
# 6 0.000000 0.000000 0.000000 0.000000 0.000000 0.030589
#
#
# Mechanical properties :
#
#
# Convention : Reuss Voigt Hill
#
# Bulk Modulus (GPa) = 35.87144 51.55305 43.71224
# Shear Modulus (GPa) = 10.59917 25.55055 18.07486
#
# Velocity S-wave (km/s) = 2.14593 3.33181 2.80232
# Velocity P-wave (km/s) = 4.66102 6.09914 5.42792
#
# Compressibility (1/GPa) = 0.02787733
#
# Stress axis : x y z
#
# Youngs Moduli (GPa) = 134.50345 53.55803 47.96356
#
# Poissons Ratio (x) = 0.28087 0.06569
# Poissons Ratio (y) = 0.70537 0.14030
# Poissons Ratio (z) = 0.18421 0.15667
#
# Static dielectric constant tensor:
#      x y z
#    x 1.860420 0.000000 0.000000 
#    y 0.000000 1.869190 0.000000 
#    z 0.000000 0.000000 1.901070 
# 
# From -- ./inp_files/22330.got.cif
#   From: 2010.05.17/outbox.cif.g08.bks.cpg/sg69_12_cif.got.tgz:22330.got - 2010.06.03 19:29:58.
