data_PCOD9512361
_publ_section_title
;
Structure prediction by ZEFSAII (Michael W. Deem and Ramdas Pophale) SiO2 
 PCOD9512361
Probable space group: F M M M
;
_chemical_formula_sum "Si O2"
_cell_formula_units_Z 168
_cell_length_a 32.278602
_cell_length_b 15.532814
_cell_length_c 14.698401
_cell_angle_alpha 90.000000
_cell_angle_beta 90.000000
_cell_angle_gamma 90.000000
_cell_volume 7369.447857
_symmetry_space_group_name_H-M "F M M M"
_symmetry_group_IT_number 69
_symmetry_cell_setting 'orthorhombic'
loop_
_space_group_symop_operation_xyz
x,y,z
-x,-y,z
x,-y,-z
-x,y,-z
-x,-y,-z
x,y,-z
-x,y,z
x,-y,z
x,1/2+y,1/2+z
-x,1/2-y,1/2+z
x,1/2-y,1/2-z
-x,1/2+y,1/2-z
-x,1/2-y,1/2-z
x,1/2+y,1/2-z
-x,1/2+y,1/2+z
x,1/2-y,1/2+z
1/2+x,y,1/2+z
1/2-x,-y,1/2+z
1/2+x,-y,1/2-z
1/2-x,y,1/2-z
1/2-x,-y,1/2-z
1/2+x,y,1/2-z
1/2-x,y,1/2+z
1/2+x,-y,1/2+z
1/2+x,1/2+y,z
1/2-x,1/2-y,z
1/2+x,1/2-y,-z
1/2-x,1/2+y,-z
1/2-x,1/2-y,-z
1/2+x,1/2+y,-z
1/2-x,1/2+y,z
1/2+x,1/2-y,z
loop_
_atom_site_type_symbol
_atom_site_label
_atom_site_fract_x
_atom_site_fract_y
_atom_site_fract_z
Si Si1 0.454677 0.153570 0.109639
Si Si2 0.000000 0.000000 0.180722
Si Si3 0.943951 0.147391 0.895084
Si Si4 0.648594 0.903406 0.365441
Si Si5 0.139249 0.403763 0.148258
Si Si6 0.202216 0.747628 0.138906
O O1 0.500000 0.116217 0.140299
O O2 0.454151 0.255143 0.132336
O O3 0.409966 0.116770 0.138059
O O4 0.454881 0.146740 0.000000
O O5 0.964455 0.924171 0.167649
O O6 0.895251 0.134687 0.893572
O O7 0.957226 0.133200 0.000000
O O8 0.647641 0.906005 0.255893
O O9 0.682819 0.836437 0.394058
O O10 0.653896 0.000000 0.398325
O O11 0.146772 0.500000 0.111339
O O12 0.171053 0.330694 0.112149
O O13 0.201797 0.750000 0.250000
O O14 0.250000 0.750000 0.110935
#
# Coordination Sequence:
#
# PCOD9512361 Si02
#       6
#    32   8  32  32  32  32
#     4  10  21  37  56  78 106 145 190 225 263 319
#     4  12  21  32  52  82 114 142 185 228 267 330
#     4  11  20  32  52  78 108 144 180 220 269 322
#     4  10  20  34  54  82 112 139 176 222 273 329
#     4  10  21  37  55  80 112 142 183 228 271 316
#     4   9  18  34  57  81 110 144 178 221 275 329
#
# _framework density 22.796823
#
# number of rings (size 3 to 8) (size 9 to 14) (size 15 to 20)
#    0.000    1.905    3.810    0.857    0.000    1.524 
#    1.714    5.714    0.000    2.286    0.000    2.667 
#    0.000    0.000    0.000    0.000    0.000    0.000 
#
# Total GULP energy -234170.264562 kJ/mol
# GULP energy per Si atom -5575.482490 kJ/mol
# Density = 2.274494 g / cm^3
# Si number density = 22.796823 Si / 1000 Ang^3
#
#
#
# Elastic Constant Matrix: (Units=GPa)
#
#
# Indices 1 2 3 4 5 6 
#
# 1 237.8566 89.1053 2.7241 0.0000 0.0000 0.0000
# 2 89.1053 97.0761 0.0065 0.0000 0.0000 0.0000
# 3 2.7241 0.0065 74.0817 0.0000 0.0000 0.0000
# 4 0.0000 0.0000 0.0000 -15.9776 0.0000 0.0000
# 5 0.0000 0.0000 0.0000 0.0000 -410.7065 0.0000
# 6 0.0000 0.0000 0.0000 0.0000 0.0000 -20.9640
#
#
#
# Elastic Compliance Matrix: (Units=1/GPa)
#
#
# Indices 1 2 3 4 5 6 
#
# 1 0.006412 -0.005885 -0.000235 0.000000 0.000000 0.000000
# 2 -0.005885 0.015703 0.000215 0.000000 0.000000 0.000000
# 3 -0.000235 0.000215 0.013507 0.000000 0.000000 0.000000
# 4 0.000000 0.000000 0.000000 -0.062588 0.000000 0.000000
# 5 0.000000 0.000000 0.000000 0.000000 -0.002435 0.000000
# 6 0.000000 0.000000 0.000000 0.000000 0.000000 -0.047701
#
#
# Mechanical properties :
#
#
# Convention : Reuss Voigt Hill
#
# Bulk Modulus (GPa) = 41.99699 65.85402 53.92550
# Shear Modulus (GPa) = -87.17852 -68.38440 -77.78146
#
# Velocity S-wave (km/s) = -6.19068 -5.48292 -5.84752
# Velocity P-wave (km/s) = 5.71289 3.33665 4.67816
#
# Compressibility (1/GPa) = 0.02381123
#
# Stress axis : x y z
#
# Youngs Moduli (GPa) = 155.96781 63.68173 74.03441
#
# Poissons Ratio (x) = 0.37477 0.01742
# Poissons Ratio (y) = 0.91789 -0.01592
# Poissons Ratio (z) = 0.03669 -0.01369
#
# Static dielectric constant tensor:
#      x y z
#    x 1.870500 0.000000 0.000000 
#    y 0.000000 1.825300 0.000000 
#    z 0.000000 0.000000 1.967980 
# 
# From -- ./inp_files/29984.got.cif
#   From: 2010.05.17/outbox.cif.g08.bks.cpg/sg69_15_cif.got.tgz:29984.got - 2010.06.03 19:29:58.
