data_PCOD9512499
_publ_section_title
;
Structure prediction by ZEFSAII (Michael W. Deem and Ramdas Pophale) SiO2 
 PCOD9512499
Probable space group: F M M M
;
_chemical_formula_sum "Si O2"
_cell_formula_units_Z 192
_cell_length_a 19.994030
_cell_length_b 26.414933
_cell_length_c 19.945468
_cell_angle_alpha 90.000000
_cell_angle_beta 90.000000
_cell_angle_gamma 90.000000
_cell_volume 10534.018674
_symmetry_space_group_name_H-M "F M M M"
_symmetry_group_IT_number 69
_symmetry_cell_setting 'orthorhombic'
loop_
_space_group_symop_operation_xyz
x,y,z
-x,-y,z
x,-y,-z
-x,y,-z
-x,-y,-z
x,y,-z
-x,y,z
x,-y,z
x,1/2+y,1/2+z
-x,1/2-y,1/2+z
x,1/2-y,1/2-z
-x,1/2+y,1/2-z
-x,1/2-y,1/2-z
x,1/2+y,1/2-z
-x,1/2+y,1/2+z
x,1/2-y,1/2+z
1/2+x,y,1/2+z
1/2-x,-y,1/2+z
1/2+x,-y,1/2-z
1/2-x,y,1/2-z
1/2-x,-y,1/2-z
1/2+x,y,1/2-z
1/2-x,y,1/2+z
1/2+x,-y,1/2+z
1/2+x,1/2+y,z
1/2-x,1/2-y,z
1/2+x,1/2-y,-z
1/2-x,1/2+y,-z
1/2-x,1/2-y,-z
1/2+x,1/2+y,-z
1/2-x,1/2+y,z
1/2+x,1/2-y,z
loop_
_atom_site_type_symbol
_atom_site_label
_atom_site_fract_x
_atom_site_fract_y
_atom_site_fract_z
Si Si1 0.423768 0.380441 0.196105
Si Si2 0.677354 0.441812 0.715545
Si Si3 0.421796 0.765503 0.327485
Si Si4 0.314130 0.284695 0.421502
Si Si5 0.127441 0.439877 0.575428
Si Si6 0.779461 0.597224 0.076516
O O1 0.500000 0.376694 0.220950
O O2 0.374507 0.403027 0.251645
O O3 0.403445 0.324843 0.170506
O O4 0.418658 0.417569 0.132776
O O5 0.657553 0.500000 0.729294
O O6 0.750000 0.433988 0.750000
O O7 0.685203 0.432739 0.636367
O O8 0.500000 0.759994 0.346010
O O9 0.414506 0.750000 0.250000
O O10 0.374550 0.732427 0.374447
O O11 0.330887 0.276409 0.500000
O O12 0.250000 0.250000 0.405661
O O13 0.294497 0.343414 0.413554
O O14 0.102623 0.430018 0.500000
O O15 0.136019 0.500000 0.583374
O O16 0.200469 0.414430 0.582247
O O17 0.798977 0.583349 0.000000
#
# Coordination Sequence:
#
# PCOD9512499 Si02
#       6
#    32  32  32  32  32  32
#     4  11  23  38  58  84 117 154 190 235 288 342
#     4  11  22  36  57  85 113 148 196 241 283 340
#     4  10  22  40  59  82 113 149 190 234 285 346
#     4  10  21  36  56  85 116 147 189 238 282 332
#     4  10  20  35  56  83 117 154 189 228 281 346
#     4  10  20  36  58  83 113 148 190 240 289 335
#
# _framework density 18.226662000000001
#
# number of rings (size 3 to 8) (size 9 to 14) (size 15 to 20)
#    0.000    1.667    1.667    3.000    0.000    5.333 
#    0.000    2.500    0.000    1.500    0.000    1.167 
#    0.000    0.000    0.000    0.000    0.000    0.000 
#
# Total GULP energy -268091.705298 kJ/mol
# GULP energy per Si atom -5585.243860 kJ/mol
# Density = 1.818518 g / cm^3
# Si number density = 18.226662 Si / 1000 Ang^3
#
#
#
# Elastic Constant Matrix: (Units=GPa)
#
#
# Indices 1 2 3 4 5 6 
#
# 1 30.5317 16.2764 15.1335 0.0000 0.0000 0.0000
# 2 16.2764 60.8955 15.9297 0.0000 0.0000 0.0000
# 3 15.1335 15.9297 68.8996 0.0000 0.0000 0.0000
# 4 0.0000 0.0000 0.0000 29.8107 0.0000 0.0000
# 5 0.0000 0.0000 0.0000 0.0000 -29.2799 0.0000
# 6 0.0000 0.0000 0.0000 0.0000 0.0000 14.5675
#
#
#
# Elastic Compliance Matrix: (Units=1/GPa)
#
#
# Indices 1 2 3 4 5 6 
#
# 1 0.041061 -0.009170 -0.006899 0.000000 0.000000 0.000000
# 2 -0.009170 0.019527 -0.002500 0.000000 0.000000 0.000000
# 3 -0.006899 -0.002500 0.016607 0.000000 0.000000 0.000000
# 4 0.000000 0.000000 0.000000 0.033545 0.000000 0.000000
# 5 0.000000 0.000000 0.000000 0.000000 -0.034153 0.000000
# 6 0.000000 0.000000 0.000000 0.000000 0.000000 0.068646
#
#
# Mechanical properties :
#
#
# Convention : Reuss Voigt Hill
#
# Bulk Modulus (GPa) = 24.96493 28.33399 26.64946
# Shear Modulus (GPa) = 25.54624 10.55214 18.04919
#
# Velocity S-wave (km/s) = 3.74784 2.40873 3.15026
# Velocity P-wave (km/s) = 5.69693 4.82857 5.28063
#
# Compressibility (1/GPa) = 0.04005619
#
# Stress axis : x y z
#
# Youngs Moduli (GPa) = 24.35401 51.21186 60.21475
#
# Poissons Ratio (x) = 0.46963 0.41540
# Poissons Ratio (y) = 0.22333 0.15056
# Poissons Ratio (z) = 0.16801 0.12805
#
# Static dielectric constant tensor:
#      x y z
#    x 1.604920 0.000000 0.000000 
#    y 0.000000 1.624690 0.000000 
#    z 0.000000 0.000000 1.626620 
# 
# From -- ./inp_files/32019.got.cif
#   From: 2010.05.17/outbox.cif.g08.bks.cpg/sg69_17_cif.got.tgz:32019.got - 2010.06.03 19:29:58.
