data_PCOD9512741
_publ_section_title
;
Structure prediction by ZEFSAII (Michael W. Deem and Ramdas Pophale) SiO2 
 PCOD9512741
Probable space group: F M M M
;
_chemical_formula_sum "Si O2"
_cell_formula_units_Z 176
_cell_length_a 17.140504
_cell_length_b 24.302838
_cell_length_c 21.146974
_cell_angle_alpha 90.000000
_cell_angle_beta 90.000000
_cell_angle_gamma 90.000000
_cell_volume 8809.044645
_symmetry_space_group_name_H-M "F M M M"
_symmetry_group_IT_number 69
_symmetry_cell_setting 'orthorhombic'
loop_
_space_group_symop_operation_xyz
x,y,z
-x,-y,z
x,-y,-z
-x,y,-z
-x,-y,-z
x,y,-z
-x,y,z
x,-y,z
x,1/2+y,1/2+z
-x,1/2-y,1/2+z
x,1/2-y,1/2-z
-x,1/2+y,1/2-z
-x,1/2-y,1/2-z
x,1/2+y,1/2-z
-x,1/2+y,1/2+z
x,1/2-y,1/2+z
1/2+x,y,1/2+z
1/2-x,-y,1/2+z
1/2+x,-y,1/2-z
1/2-x,y,1/2-z
1/2-x,-y,1/2-z
1/2+x,y,1/2-z
1/2-x,y,1/2+z
1/2+x,-y,1/2+z
1/2+x,1/2+y,z
1/2-x,1/2-y,z
1/2+x,1/2-y,-z
1/2-x,1/2+y,-z
1/2-x,1/2-y,-z
1/2+x,1/2+y,-z
1/2-x,1/2+y,z
1/2+x,1/2-y,z
loop_
_atom_site_type_symbol
_atom_site_label
_atom_site_fract_x
_atom_site_fract_y
_atom_site_fract_z
Si Si1 0.590877 0.562928 0.899805
Si Si2 0.912426 0.247075 0.424787
Si Si3 0.406979 0.938102 0.751407
Si Si4 0.866943 0.635823 0.861162
Si Si5 0.500000 0.436057 0.575291
Si Si6 0.292742 0.156749 0.570683
O O1 0.500000 0.573722 0.913845
O O2 0.607731 0.500000 0.918014
O O3 0.601761 0.567167 0.823848
O O4 0.647312 0.606461 0.930464
O O5 0.906390 0.231794 0.500000
O O6 0.903274 0.194968 0.378921
O O7 0.844188 0.290382 0.410634
O O8 0.000000 0.270604 0.416799
O O9 0.500000 0.936121 0.764175
O O10 0.369265 0.888590 0.790540
O O11 0.379198 0.000000 0.769495
O O12 0.779026 0.640926 0.885433
O O13 0.922414 0.593091 0.898528
O O14 0.500000 0.500000 0.593009
O O15 0.500000 0.431167 0.500000
O O16 0.261786 0.167221 0.500000
#
# Coordination Sequence:
#
# PCOD9512741 Si02
#       6
#    32  32  32  32  16  32
#     4   9  20  40  63  84 111 150 196 247 298 347
#     4  10  20  37  60  82 111 155 203 244 288 344
#     4   9  18  36  61  86 113 151 197 238 285 350
#     4  12  21  35  58  85 119 154 190 235 290 351
#     4  11  22  34  52  82 119 158 194 230 281 348
#     4  11  24  38  56  86 120 153 194 244 295 348
#
# _framework density 19.979464
#
# number of rings (size 3 to 8) (size 9 to 14) (size 15 to 20)
#    0.000    1.727    1.818    4.364    0.000    5.091 
#    0.000    3.636    0.000    5.455    0.000    0.000 
#    0.000    0.000    0.000    0.000    0.000    0.000 
#
# Total GULP energy -245733.898859 kJ/mol
# GULP energy per Si atom -5584.861338 kJ/mol
# Density = 1.993399 g / cm^3
# Si number density = 19.979464 Si / 1000 Ang^3
#
#
#
# Elastic Constant Matrix: (Units=GPa)
#
#
# Indices 1 2 3 4 5 6 
#
# 1 88.4495 53.7508 22.9387 0.0000 0.0000 0.0000
# 2 53.7508 87.1139 21.1298 0.0000 0.0000 0.0000
# 3 22.9387 21.1298 50.4646 0.0000 0.0000 0.0000
# 4 0.0000 0.0000 0.0000 13.8983 0.0000 0.0000
# 5 0.0000 0.0000 0.0000 0.0000 35.6994 0.0000
# 6 0.0000 0.0000 0.0000 0.0000 0.0000 -17.2722
#
#
#
# Elastic Compliance Matrix: (Units=1/GPa)
#
#
# Indices 1 2 3 4 5 6 
#
# 1 0.018825 -0.010618 -0.004111 0.000000 0.000000 0.000000
# 2 -0.010618 0.018766 -0.003031 0.000000 0.000000 0.000000
# 3 -0.004111 -0.003031 0.022954 0.000000 0.000000 0.000000
# 4 0.000000 0.000000 0.000000 0.071951 0.000000 0.000000
# 5 0.000000 0.000000 0.000000 0.000000 0.028012 0.000000
# 6 0.000000 0.000000 0.000000 0.000000 0.000000 -0.057896
#
#
# Mechanical properties :
#
#
# Convention : Reuss Voigt Hill
#
# Bulk Modulus (GPa) = 39.96114 46.85183 43.40648
# Shear Modulus (GPa) = 34.13627 15.01234 24.57431
#
# Velocity S-wave (km/s) = 4.13797 2.74412 3.51091
# Velocity P-wave (km/s) = 6.54789 5.79147 6.18126
#
# Compressibility (1/GPa) = 0.02502431
#
# Stress axis : x y z
#
# Youngs Moduli (GPa) = 53.12212 53.28822 43.56623
#
# Poissons Ratio (x) = 0.56581 0.17910
# Poissons Ratio (y) = 0.56405 0.13205
# Poissons Ratio (z) = 0.21838 0.16152
#
# Static dielectric constant tensor:
#      x y z
#    x 1.695330 0.000000 0.000000 
#    y 0.000000 1.695310 0.000000 
#    z 0.000000 0.000000 1.726300 
# 
# From -- ./inp_files/35913.got.cif
#   From: 2010.05.17/outbox.cif.g08.bks.cpg/sg69_18_cif.got.tgz:35913.got - 2010.06.03 19:29:58.
