data_PCOD9512285
_publ_section_title
;
Structure prediction by ZEFSAII (Michael W. Deem and Ramdas Pophale) SiO2 
 PCOD9512285
Probable space group: F M M M
;
_chemical_formula_sum "Si O2"
_cell_formula_units_Z 208
_cell_length_a 27.275981
_cell_length_b 18.945539
_cell_length_c 24.733632
_cell_angle_alpha 90.000000
_cell_angle_beta 90.000000
_cell_angle_gamma 90.000000
_cell_volume 12781.306207
_symmetry_space_group_name_H-M "F M M M"
_symmetry_group_IT_number 69
_symmetry_cell_setting 'orthorhombic'
loop_
_space_group_symop_operation_xyz
x,y,z
-x,-y,z
x,-y,-z
-x,y,-z
-x,-y,-z
x,y,-z
-x,y,z
x,-y,z
x,1/2+y,1/2+z
-x,1/2-y,1/2+z
x,1/2-y,1/2-z
-x,1/2+y,1/2-z
-x,1/2-y,1/2-z
x,1/2+y,1/2-z
-x,1/2+y,1/2+z
x,1/2-y,1/2+z
1/2+x,y,1/2+z
1/2-x,-y,1/2+z
1/2+x,-y,1/2-z
1/2-x,y,1/2-z
1/2-x,-y,1/2-z
1/2+x,y,1/2-z
1/2-x,y,1/2+z
1/2+x,-y,1/2+z
1/2+x,1/2+y,z
1/2-x,1/2-y,z
1/2+x,1/2-y,-z
1/2-x,1/2+y,-z
1/2-x,1/2-y,-z
1/2+x,1/2+y,-z
1/2-x,1/2+y,z
1/2+x,1/2-y,z
loop_
_atom_site_type_symbol
_atom_site_label
_atom_site_fract_x
_atom_site_fract_y
_atom_site_fract_z
Si Si1 0.635850 0.804775 0.936413
Si Si2 0.603328 0.354915 0.063569
Si Si3 0.314311 0.416579 0.140693
Si Si4 0.055615 0.581203 0.934271
Si Si5 0.278966 0.179635 0.852008
Si Si6 0.191544 0.579502 0.238306
Si Si7 0.500000 0.918845 0.565610
O O1 0.609815 0.728993 0.931805
O O2 0.598084 0.865289 0.917354
O O3 0.685069 0.803428 0.901317
O O4 0.646948 0.816546 0.000000
O O5 0.644863 0.391821 0.099014
O O6 0.549786 0.380098 0.081915
O O7 0.609192 0.373486 0.000000
O O8 0.305460 0.500000 0.136564
O O9 0.263888 0.374657 0.131366
O O10 0.330536 0.402913 0.203021
O O11 0.064993 0.500000 0.918121
O O12 0.000000 0.600479 0.917155
O O13 0.055330 0.582781 0.000000
O O14 0.250000 0.250000 0.833179
O O15 0.311195 0.140604 0.806047
O O16 0.176258 0.500000 0.221118
O O17 0.250000 0.575505 0.250000
O O18 0.500000 0.918863 0.500000
O O19 0.500000 0.000000 0.583732
#
# Coordination Sequence:
#
# PCOD9512285 Si02
#       7
#    32  32  32  32  32  32  16
#     4  10  21  33  47  72 107 141 169 205 252 307
#     4  10  20  34  51  77 109 138 170 208 254 303
#     4  10  20  35  53  75 102 134 171 209 257 304
#     4   8  15  29  49  71  94 125 169 214 250 292
#     4  11  20  33  49  75 101 136 174 211 252 298
#     4   8  17  33  52  72  95 123 166 219 255 291
#     4   9  18  32  52  76 100 131 175 219 248 291
#
# _framework density 16.273766999999999
#
# number of rings (size 3 to 8) (size 9 to 14) (size 15 to 20)
#    0.000    2.538    1.538    2.308    1.077    5.846 
#    0.000    0.000    0.000    0.000    2.000    1.077 
#    0.000    0.000    0.000    0.000    0.000    0.000 
#
# Total GULP energy -289640.680907 kJ/mol
# GULP energy per Si atom -5570.013094 kJ/mol
# Density = 1.623673 g / cm^3
# Si number density = 16.273767 Si / 1000 Ang^3
#
#
#
# Elastic Constant Matrix: (Units=GPa)
#
#
# Indices 1 2 3 4 5 6 
#
# 1 80.2984 46.5149 39.2080 0.0000 0.0000 0.0000
# 2 46.5149 90.2905 43.7158 0.0000 0.0000 0.0000
# 3 39.2080 43.7158 59.2511 0.0000 0.0000 0.0000
# 4 0.0000 0.0000 0.0000 22.9828 0.0000 0.0000
# 5 0.0000 0.0000 0.0000 0.0000 0.9334 0.0000
# 6 0.0000 0.0000 0.0000 0.0000 0.0000 25.1910
#
#
#
# Elastic Compliance Matrix: (Units=1/GPa)
#
#
# Indices 1 2 3 4 5 6 
#
# 1 0.020398 -0.006181 -0.008937 0.000000 0.000000 0.000000
# 2 -0.006181 0.019104 -0.010004 0.000000 0.000000 0.000000
# 3 -0.008937 -0.010004 0.030173 0.000000 0.000000 0.000000
# 4 0.000000 0.000000 0.000000 0.043511 0.000000 0.000000
# 5 0.000000 0.000000 0.000000 0.000000 1.071316 0.000000
# 6 0.000000 0.000000 0.000000 0.000000 0.000000 0.039697
#
#
# Mechanical properties :
#
#
# Convention : Reuss Voigt Hill
#
# Bulk Modulus (GPa) = 51.47135 54.30194 52.88665
# Shear Modulus (GPa) = 3.90344 16.51487 10.20916
#
# Velocity S-wave (km/s) = 1.55043 3.18907 2.50739
# Velocity P-wave (km/s) = 5.90781 6.85569 6.39932
#
# Compressibility (1/GPa) = 0.01942828
#
# Stress axis : x y z
#
# Youngs Moduli (GPa) = 49.02407 52.34612 33.14246
#
# Poissons Ratio (x) = 0.32357 0.29621
# Poissons Ratio (y) = 0.30303 0.33157
# Poissons Ratio (z) = 0.43815 0.52369
#
# Static dielectric constant tensor:
#      x y z
#    x 1.523960 0.000000 0.000000 
#    y 0.000000 1.569790 0.000000 
#    z 0.000000 0.000000 1.559800 
# 
# From -- ./inp_files/43299.got.cif
#   From: 2010.05.17/outbox.cif.g08.bks.cpg/sg69_22_cif.got.tgz:43299.got - 2010.06.03 19:29:58.
