data_PCOD9512484
_publ_section_title
;
Structure prediction by ZEFSAII (Michael W. Deem and Ramdas Pophale) SiO2 
 PCOD9512484
Probable space group: F M M M
;
_chemical_formula_sum "Si O2"
_cell_formula_units_Z 192
_cell_length_a 28.744346
_cell_length_b 14.734814
_cell_length_c 23.295618
_cell_angle_alpha 90.000000
_cell_angle_beta 90.000000
_cell_angle_gamma 90.000000
_cell_volume 9866.686427
_symmetry_space_group_name_H-M "F M M M"
_symmetry_group_IT_number 69
_symmetry_cell_setting 'orthorhombic'
loop_
_space_group_symop_operation_xyz
x,y,z
-x,-y,z
x,-y,-z
-x,y,-z
-x,-y,-z
x,y,-z
-x,y,z
x,-y,z
x,1/2+y,1/2+z
-x,1/2-y,1/2+z
x,1/2-y,1/2-z
-x,1/2+y,1/2-z
-x,1/2-y,1/2-z
x,1/2+y,1/2-z
-x,1/2+y,1/2+z
x,1/2-y,1/2+z
1/2+x,y,1/2+z
1/2-x,-y,1/2+z
1/2+x,-y,1/2-z
1/2-x,y,1/2-z
1/2-x,-y,1/2-z
1/2+x,y,1/2-z
1/2-x,y,1/2+z
1/2+x,-y,1/2+z
1/2+x,1/2+y,z
1/2-x,1/2-y,z
1/2+x,1/2-y,-z
1/2-x,1/2+y,-z
1/2-x,1/2-y,-z
1/2+x,1/2+y,-z
1/2-x,1/2+y,z
1/2+x,1/2-y,z
loop_
_atom_site_type_symbol
_atom_site_label
_atom_site_fract_x
_atom_site_fract_y
_atom_site_fract_z
Si Si1 0.274048 0.845959 0.000000
Si Si2 0.413079 0.395193 0.625066
Si Si3 0.356477 0.610014 0.824786
Si Si4 0.763501 0.894044 0.876477
Si Si5 0.051232 0.223011 0.816652
Si Si6 0.820011 0.891512 0.699344
Si Si7 0.876372 0.895257 0.500000
O O1 0.250000 0.750000 0.000000
O O2 0.257264 0.889543 0.059758
O O3 0.329489 0.838085 0.000000
O O4 0.427030 0.500000 0.636716
O O5 0.445611 0.317496 0.649331
O O6 0.363352 0.380137 0.656399
O O7 0.405445 0.383385 0.557495
O O8 0.363116 0.500000 0.825493
O O9 0.316232 0.640066 0.869392
O O10 0.405619 0.659112 0.833119
O O11 0.335368 0.638221 0.762585
O O12 0.726321 0.854003 0.831088
O O13 0.767629 0.000000 0.861284
O O14 0.056297 0.250000 0.750000
O O15 0.000000 0.181294 0.824805
O O16 0.813022 0.000000 0.705264
O O17 0.859090 0.000000 0.500000
#
# Coordination Sequence:
#
# PCOD9512484 Si02
#       7
#    16  32  32  32  32  32  16
#     4  12  24  32  48  84 121 156 196 235 274 338
#     4  10  20  37  63  90 118 153 193 242 300 361
#     4  10  21  37  58  86 119 157 197 237 285 349
#     4  10  20  35  56  80 116 159 195 232 281 341
#     4  11  24  40  60  85 115 151 195 251 305 353
#     4   9  16  31  56  85 116 151 189 231 281 343
#     4  10  20  38  63  85 117 161 195 237 300 360
#
# _framework density 19.459420000000001
#
# number of rings (size 3 to 8) (size 9 to 14) (size 15 to 20)
#    0.000    1.833    3.333    1.250    2.333    2.667 
#    0.000    2.083    0.000    1.500    0.000    0.000 
#    0.000    4.000    0.000    0.000    0.000    0.000 
#
# Total GULP energy -267890.653411 kJ/mol
# GULP energy per Si atom -5581.055279 kJ/mol
# Density = 1.941513 g / cm^3
# Si number density = 19.459420 Si / 1000 Ang^3
#
#
#
# Elastic Constant Matrix: (Units=GPa)
#
#
# Indices 1 2 3 4 5 6 
#
# 1 114.3025 31.5776 17.6659 0.0000 0.0000 0.0000
# 2 31.5776 56.7315 5.2982 0.0000 0.0000 0.0000
# 3 17.6659 5.2982 69.8633 0.0000 0.0000 0.0000
# 4 0.0000 0.0000 0.0000 12.6147 0.0000 0.0000
# 5 0.0000 0.0000 0.0000 0.0000 26.4579 0.0000
# 6 0.0000 0.0000 0.0000 0.0000 0.0000 25.7674
#
#
#
# Elastic Compliance Matrix: (Units=1/GPa)
#
#
# Indices 1 2 3 4 5 6 
#
# 1 0.010683 -0.005735 -0.002267 0.000000 0.000000 0.000000
# 2 -0.005735 0.020831 -0.000130 0.000000 0.000000 0.000000
# 3 -0.002267 -0.000130 0.014897 0.000000 0.000000 0.000000
# 4 0.000000 0.000000 0.000000 0.079273 0.000000 0.000000
# 5 0.000000 0.000000 0.000000 0.000000 0.037796 0.000000
# 6 0.000000 0.000000 0.000000 0.000000 0.000000 0.038809
#
#
# Mechanical properties :
#
#
# Convention : Reuss Voigt Hill
#
# Bulk Modulus (GPa) = 33.16850 38.88674 36.02762
# Shear Modulus (GPa) = 21.87226 25.39170 23.63198
#
# Velocity S-wave (km/s) = 3.35624 3.61619 3.48864
# Velocity P-wave (km/s) = 5.66578 6.12068 5.89762
#
# Compressibility (1/GPa) = 0.03014909
#
# Stress axis : x y z
#
# Youngs Moduli (GPa) = 93.60363 48.00511 67.12932
#
# Poissons Ratio (x) = 0.27530 0.15215
# Poissons Ratio (y) = 0.53680 0.00870
# Poissons Ratio (z) = 0.21215 0.00622
#
# Static dielectric constant tensor:
#      x y z
#    x 1.700390 0.000000 0.000000 
#    y 0.000000 1.736180 0.000000 
#    z 0.000000 0.000000 1.773350 
# 
# From -- ./inp_files/38383.got.cif
#   From: 2010.05.17/outbox.cif.g08.bks.cpg/sg69_20_cif.got.tgz:38383.got - 2010.06.03 19:29:58.
