data_PCOD9512465
_publ_section_title
;
Structure prediction by ZEFSAII (Michael W. Deem and Ramdas Pophale) SiO2 
 PCOD9512465
Probable space group: F M M M
;
_chemical_formula_sum "Si O2"
_cell_formula_units_Z 192
_cell_length_a 26.495288
_cell_length_b 19.826792
_cell_length_c 16.585864
_cell_angle_alpha 90.000000
_cell_angle_beta 90.000000
_cell_angle_gamma 90.000000
_cell_volume 8712.829090
_symmetry_space_group_name_H-M "F M M M"
_symmetry_group_IT_number 69
_symmetry_cell_setting 'orthorhombic'
loop_
_space_group_symop_operation_xyz
x,y,z
-x,-y,z
x,-y,-z
-x,y,-z
-x,-y,-z
x,y,-z
-x,y,z
x,-y,z
x,1/2+y,1/2+z
-x,1/2-y,1/2+z
x,1/2-y,1/2-z
-x,1/2+y,1/2-z
-x,1/2-y,1/2-z
x,1/2+y,1/2-z
-x,1/2+y,1/2+z
x,1/2-y,1/2+z
1/2+x,y,1/2+z
1/2-x,-y,1/2+z
1/2+x,-y,1/2-z
1/2-x,y,1/2-z
1/2-x,-y,1/2-z
1/2+x,y,1/2-z
1/2-x,y,1/2+z
1/2+x,-y,1/2+z
1/2+x,1/2+y,z
1/2-x,1/2-y,z
1/2+x,1/2-y,-z
1/2-x,1/2+y,-z
1/2-x,1/2-y,-z
1/2+x,1/2+y,-z
1/2-x,1/2+y,z
1/2+x,1/2-y,z
loop_
_atom_site_type_symbol
_atom_site_label
_atom_site_fract_x
_atom_site_fract_y
_atom_site_fract_z
Si Si1 0.914731 0.927772 0.000000
Si Si2 0.850440 0.580315 0.094869
Si Si3 0.559477 0.210586 0.675220
Si Si4 0.742857 0.171338 0.152927
Si Si5 0.908724 0.576180 0.245048
Si Si6 0.172662 0.072816 0.130660
Si Si7 0.443376 0.219783 0.500000
O O1 0.876141 0.925522 0.925631
O O2 0.947569 0.861726 0.000000
O O3 0.940969 0.000000 0.000000
O O4 0.836593 0.500000 0.106409
O O5 0.807332 0.633060 0.122826
O O6 0.899918 0.591163 0.151028
O O7 0.860168 0.589790 0.000000
O O8 0.500000 0.227145 0.669800
O O9 0.583795 0.250000 0.750000
O O10 0.563029 0.133157 0.704207
O O11 0.581478 0.230814 0.587761
O O12 0.750000 0.164146 0.250000
O O13 0.750000 0.250000 0.133950
O O14 0.789264 0.131461 0.113566
O O15 0.928564 0.500000 0.256196
O O16 0.851753 0.576878 0.281083
O O17 0.197931 0.000000 0.120136
O O18 0.500000 0.249268 0.500000
#
# Coordination Sequence:
#
# PCOD9512465 Si02
#       7
#    16  32  32  32  32  32  16
#     4  10  20  35  55  87 120 146 181 229 291 356
#     4  10  22  40  59  80 110 152 201 246 292 346
#     4  10  22  40  61  88 122 158 193 232 287 353
#     4  11  23  37  54  80 112 147 190 243 294 345
#     4  10  20  37  61  85 113 150 193 241 292 350
#     4  10  20  35  55  80 113 152 189 229 285 350
#     4  10  20  37  60  89 123 155 192 236 285 350
#
# _framework density 22.036470999999999
#
# number of rings (size 3 to 8) (size 9 to 14) (size 15 to 20)
#    0.000    1.833    3.333    0.500    1.167    2.833 
#    1.500    1.667    0.000    0.000    0.000    2.333 
#    0.000    0.000    0.000    0.000    0.000    0.000 
#
# Total GULP energy -267599.018305 kJ/mol
# GULP energy per Si atom -5574.979548 kJ/mol
# Density = 2.198631 g / cm^3
# Si number density = 22.036471 Si / 1000 Ang^3
#
#
#
# Elastic Constant Matrix: (Units=GPa)
#
#
# Indices 1 2 3 4 5 6 
#
# 1 19.0793 1.3824 7.1123 0.0000 0.0000 0.0000
# 2 1.3824 71.9171 32.9210 0.0000 0.0000 0.0000
# 3 7.1123 32.9210 170.7713 0.0000 0.0000 0.0000
# 4 0.0000 0.0000 0.0000 21.2815 0.0000 0.0000
# 5 0.0000 0.0000 0.0000 0.0000 1.5314 0.0000
# 6 0.0000 0.0000 0.0000 0.0000 0.0000 23.5502
#
#
#
# Elastic Compliance Matrix: (Units=1/GPa)
#
#
# Indices 1 2 3 4 5 6 
#
# 1 0.053239 -0.000009 -0.002216 0.000000 0.000000 0.000000
# 2 -0.000009 0.015251 -0.002940 0.000000 0.000000 0.000000
# 3 -0.002216 -0.002940 0.006515 0.000000 0.000000 0.000000
# 4 0.000000 0.000000 0.000000 0.046989 0.000000 0.000000
# 5 0.000000 0.000000 0.000000 0.000000 0.652997 0.000000
# 6 0.000000 0.000000 0.000000 0.000000 0.000000 0.042462
#
#
# Mechanical properties :
#
#
# Convention : Reuss Voigt Hill
#
# Bulk Modulus (GPa) = 15.46166 38.28880 26.87523
# Shear Modulus (GPa) = 5.88692 23.96275 14.92484
#
# Velocity S-wave (km/s) = 1.63623 3.30117 2.60528
# Velocity P-wave (km/s) = 3.25596 5.65183 4.61219
#
# Compressibility (1/GPa) = 0.06467609
#
# Stress axis : x y z
#
# Youngs Moduli (GPa) = 18.78310 65.57063 153.49775
#
# Poissons Ratio (x) = 0.00060 0.34008
# Poissons Ratio (y) = 0.00017 0.45123
# Poissons Ratio (z) = 0.04161 0.19275
#
# Static dielectric constant tensor:
#      x y z
#    x 1.784330 0.000000 0.000000 
#    y 0.000000 1.838400 0.000000 
#    z 0.000000 0.000000 1.964300 
# 
# From -- ./inp_files/27787.got.cif
#   From: 2010.05.17/outbox.cif.g08.bks.cpg/sg69_14_cif.got.tgz:27787.got - 2010.06.03 19:29:58.
