data_PCOD9512129
_publ_section_title
;
Structure prediction by ZEFSAII (Michael W. Deem and Ramdas Pophale) SiO2 
 PCOD9512129
Probable space group: F M M M
;
_chemical_formula_sum "Si O2"
_cell_formula_units_Z 144
_cell_length_a 8.880223
_cell_length_b 29.159178
_cell_length_c 37.080441
_cell_angle_alpha 90.000000
_cell_angle_beta 90.000000
_cell_angle_gamma 90.000000
_cell_volume 9601.609509
_symmetry_space_group_name_H-M "F M M M"
_symmetry_group_IT_number 69
_symmetry_cell_setting 'orthorhombic'
loop_
_space_group_symop_operation_xyz
x,y,z
-x,-y,z
x,-y,-z
-x,y,-z
-x,-y,-z
x,y,-z
-x,y,z
x,-y,z
x,1/2+y,1/2+z
-x,1/2-y,1/2+z
x,1/2-y,1/2-z
-x,1/2+y,1/2-z
-x,1/2-y,1/2-z
x,1/2+y,1/2-z
-x,1/2+y,1/2+z
x,1/2-y,1/2+z
1/2+x,y,1/2+z
1/2-x,-y,1/2+z
1/2+x,-y,1/2-z
1/2-x,y,1/2-z
1/2-x,-y,1/2-z
1/2+x,y,1/2-z
1/2-x,y,1/2+z
1/2+x,-y,1/2+z
1/2+x,1/2+y,z
1/2-x,1/2-y,z
1/2+x,1/2-y,-z
1/2-x,1/2+y,-z
1/2-x,1/2-y,-z
1/2+x,1/2+y,-z
1/2-x,1/2+y,z
1/2+x,1/2-y,z
loop_
_atom_site_type_symbol
_atom_site_label
_atom_site_fract_x
_atom_site_fract_y
_atom_site_fract_z
Si Si1 0.818836 0.109129 0.429030
Si Si2 0.679921 0.945913 0.362924
Si Si3 0.182978 0.947572 0.500000
Si Si4 0.319989 0.299271 0.957398
Si Si5 0.673208 0.055728 0.212947
O O1 0.757473 0.084137 0.393637
O O2 0.771170 0.079240 0.464020
O O3 0.751825 0.159579 0.434850
O O4 0.000000 0.111046 0.428224
O O5 0.500000 0.941634 0.364801
O O6 0.737712 0.931955 0.323265
O O7 0.718265 0.000000 0.368115
O O8 0.000000 0.948519 0.500000
O O9 0.236578 0.000000 0.500000
O O10 0.500000 0.298333 0.953290
O O11 0.250000 0.250000 0.947979
O O12 0.285838 0.307378 0.000000
O O13 0.500000 0.070634 0.210864
O O14 0.750000 0.071700 0.250000
O O15 0.673585 0.000000 0.214195
#
# Coordination Sequence:
#
# PCOD9512129 Si02
#       5
#    32  32  16  32  32
#     4  11  20  32  49  68  93 123 159 198 240 285
#     4  10  20  32  45  65  95 129 163 199 237 278
#     4   9  18  30  44  63  88 121 160 197 230 271
#     4  10  20  34  52  71  92 116 150 194 243 291
#     4   9  16  27  44  65  89 120 157 195 235 279
#
# _framework density 14.997486
#
# number of rings (size 3 to 8) (size 9 to 14) (size 15 to 20)
#    0.000    2.111    1.111    3.333    0.000    5.778 
#    0.000    0.000    0.000    2.667    0.000    0.000 
#    0.000    0.889    0.000    8.889    0.000    5.778 
#
# Total GULP energy -200854.302150 kJ/mol
# GULP energy per Si atom -5579.286171 kJ/mol
# Density = 1.496335 g / cm^3
# Si number density = 14.997486 Si / 1000 Ang^3
#
#
#
# Elastic Constant Matrix: (Units=GPa)
#
#
# Indices 1 2 3 4 5 6 
#
# 1 73.4436 46.3294 52.4704 0.0000 0.0000 0.0000
# 2 46.3294 97.3528 64.5968 0.0000 0.0000 0.0000
# 3 52.4704 64.5968 129.8267 0.0000 0.0000 0.0000
# 4 0.0000 0.0000 0.0000 3.3121 0.0000 0.0000
# 5 0.0000 0.0000 0.0000 0.0000 27.7738 0.0000
# 6 0.0000 0.0000 0.0000 0.0000 0.0000 21.2424
#
#
#
# Elastic Compliance Matrix: (Units=1/GPa)
#
#
# Indices 1 2 3 4 5 6 
#
# 1 0.021755 -0.006746 -0.005436 0.000000 0.000000 0.000000
# 2 -0.006746 0.017427 -0.005944 0.000000 0.000000 0.000000
# 3 -0.005436 -0.005944 0.012857 0.000000 0.000000 0.000000
# 4 0.000000 0.000000 0.000000 0.301923 0.000000 0.000000
# 5 0.000000 0.000000 0.000000 0.000000 0.036005 0.000000
# 6 0.000000 0.000000 0.000000 0.000000 0.000000 0.047076
#
#
# Mechanical properties :
#
#
# Convention : Reuss Voigt Hill
#
# Bulk Modulus (GPa) = 63.34648 69.71292 66.52970
# Shear Modulus (GPa) = 10.44806 19.61411 15.03108
#
# Velocity S-wave (km/s) = 2.64228 3.62031 3.16925
# Velocity P-wave (km/s) = 7.18600 8.00372 7.60586
#
# Compressibility (1/GPa) = 0.01578620
#
# Stress axis : x y z
#
# Youngs Moduli (GPa) = 45.96650 57.38357 77.77785
#
# Poissons Ratio (x) = 0.38712 0.42278
# Poissons Ratio (y) = 0.31010 0.46233
# Poissons Ratio (z) = 0.24986 0.34110
#
# Static dielectric constant tensor:
#      x y z
#    x 1.497570 0.000000 0.000000 
#    y 0.000000 1.473060 0.000000 
#    z 0.000000 0.000000 1.482280 
# 
# From -- ./inp_files/5592.got.cif
#   From: 2010.05.17/outbox.cif.g08.bks.cpg/sg69_3_cif.got.tgz:5592.got - 2010.06.03 19:29:58.
