data_PCOD9512139
_publ_section_title
;
Structure prediction by ZEFSAII (Michael W. Deem and Ramdas Pophale) SiO2 
 PCOD9512139
Probable space group: F M M M
;
_chemical_formula_sum "Si O2"
_cell_formula_units_Z 176
_cell_length_a 28.604869
_cell_length_b 16.060815
_cell_length_c 23.903997
_cell_angle_alpha 90.000000
_cell_angle_beta 90.000000
_cell_angle_gamma 90.000000
_cell_volume 10981.914759
_symmetry_space_group_name_H-M "F M M M"
_symmetry_group_IT_number 69
_symmetry_cell_setting 'orthorhombic'
loop_
_space_group_symop_operation_xyz
x,y,z
-x,-y,z
x,-y,-z
-x,y,-z
-x,-y,-z
x,y,-z
-x,y,z
x,-y,z
x,1/2+y,1/2+z
-x,1/2-y,1/2+z
x,1/2-y,1/2-z
-x,1/2+y,1/2-z
-x,1/2-y,1/2-z
x,1/2+y,1/2-z
-x,1/2+y,1/2+z
x,1/2-y,1/2+z
1/2+x,y,1/2+z
1/2-x,-y,1/2+z
1/2+x,-y,1/2-z
1/2-x,y,1/2-z
1/2-x,-y,1/2-z
1/2+x,y,1/2-z
1/2-x,y,1/2+z
1/2+x,-y,1/2+z
1/2+x,1/2+y,z
1/2-x,1/2-y,z
1/2+x,1/2-y,-z
1/2-x,1/2+y,-z
1/2-x,1/2-y,-z
1/2+x,1/2+y,-z
1/2-x,1/2+y,z
1/2+x,1/2-y,z
loop_
_atom_site_type_symbol
_atom_site_label
_atom_site_fract_x
_atom_site_fract_y
_atom_site_fract_z
Si Si1 0.193300 0.346523 0.249093
Si Si2 0.556817 0.000000 0.936550
Si Si3 0.553034 0.181971 0.931791
Si Si4 0.148769 0.752242 0.066793
Si Si5 0.693952 0.092998 0.629104
Si Si6 0.307080 0.593667 0.373290
O O1 0.178057 0.250000 0.250000
O O2 0.250000 0.346001 0.250000
O O3 0.179802 0.392005 0.306226
O O4 0.178936 0.389565 0.191312
O O5 0.567810 0.910443 0.910790
O O6 0.500000 0.000000 0.940538
O O7 0.575995 0.000000 0.000000
O O8 0.500000 0.200916 0.913805
O O9 0.593956 0.245284 0.917372
O O10 0.551815 0.176138 0.000000
O O11 0.172343 0.832825 0.093410
O O12 0.172962 0.668325 0.089733
O O13 0.152737 0.754373 0.000000
O O14 0.750442 0.098142 0.625337
O O15 0.680183 0.000000 0.611272
O O16 0.321014 0.500000 0.390591
#
# Coordination Sequence:
#
# PCOD9512139 Si02
#       6
#    32  16  32  32  32  32
#     4   9  15  29  52  71  90 118 157 206 247 272
#     4   7  10  20  40  62  82 108 141 180 232 282
#     4   8  15  28  45  64  88 119 156 199 239 274
#     4  11  22  32  46  69  99 132 163 192 230 289
#     4  10  20  34  50  68  94 130 167 201 234 269
#     4  10  20  32  48  72  99 126 159 198 239 281
#
# _framework density 16.026349
#
# number of rings (size 3 to 8) (size 9 to 14) (size 15 to 20)
#    0.000    2.636    1.818    2.182    1.273    4.364 
#    0.000    1.818    0.000    0.545    0.000    5.091 
#    0.000    2.909    0.000    0.000    0.000    0.000 
#
# Total GULP energy -245052.501611 kJ/mol
# GULP energy per Si atom -5569.375037 kJ/mol
# Density = 1.598987 g / cm^3
# Si number density = 16.026349 Si / 1000 Ang^3
#
#
#
# Elastic Constant Matrix: (Units=GPa)
#
#
# Indices 1 2 3 4 5 6 
#
# 1 51.7184 48.9980 23.9550 0.0000 0.0000 0.0000
# 2 48.9980 136.6960 46.0157 0.0000 0.0000 0.0000
# 3 23.9550 46.0157 65.7229 0.0000 0.0000 0.0000
# 4 0.0000 0.0000 0.0000 7.4962 0.0000 0.0000
# 5 0.0000 0.0000 0.0000 0.0000 -6.7734 0.0000
# 6 0.0000 0.0000 0.0000 0.0000 0.0000 16.3669
#
#
#
# Elastic Compliance Matrix: (Units=1/GPa)
#
#
# Indices 1 2 3 4 5 6 
#
# 1 0.030260 -0.009334 -0.004494 0.000000 0.000000 0.000000
# 2 -0.009334 0.012450 -0.005315 0.000000 0.000000 0.000000
# 3 -0.004494 -0.005315 0.020575 0.000000 0.000000 0.000000
# 4 0.000000 0.000000 0.000000 0.133400 0.000000 0.000000
# 5 0.000000 0.000000 0.000000 0.000000 -0.147637 0.000000
# 6 0.000000 0.000000 0.000000 0.000000 0.000000 0.061099
#
#
# Mechanical properties :
#
#
# Convention : Reuss Voigt Hill
#
# Bulk Modulus (GPa) = 40.00176 54.67496 47.33836
# Shear Modulus (GPa) = 31.89460 12.42919 22.16189
#
# Velocity S-wave (km/s) = 4.46593 2.78789 3.72269
# Velocity P-wave (km/s) = 7.18380 6.67479 6.93396
#
# Compressibility (1/GPa) = 0.02499890
#
# Stress axis : x y z
#
# Youngs Moduli (GPa) = 33.04718 80.31965 48.60299
#
# Poissons Ratio (x) = 0.74966 0.21844
# Poissons Ratio (y) = 0.30845 0.25833
# Poissons Ratio (z) = 0.14853 0.42690
#
# Static dielectric constant tensor:
#      x y z
#    x 1.543550 0.000000 0.000000 
#    y 0.000000 1.554250 0.000000 
#    z 0.000000 0.000000 1.538800 
# 
# From -- ./inp_files/36161.got.cif
#   From: 2010.05.17/outbox.cif.g08.bks.cpg/sg69_19_cif.got.tgz:36161.got - 2010.06.03 19:29:58.
