data_PCOD9512829
_publ_section_title
;
Structure prediction by ZEFSAII (Michael W. Deem and Ramdas Pophale) SiO2 
 PCOD9512829
Probable space group: F M M M
;
_chemical_formula_sum "Si O2"
_cell_formula_units_Z 160
_cell_length_a 21.797882
_cell_length_b 17.613745
_cell_length_c 19.911651
_cell_angle_alpha 90.000000
_cell_angle_beta 90.000000
_cell_angle_gamma 90.000000
_cell_volume 7644.925780
_symmetry_space_group_name_H-M "F M M M"
_symmetry_group_IT_number 69
_symmetry_cell_setting 'orthorhombic'
loop_
_space_group_symop_operation_xyz
x,y,z
-x,-y,z
x,-y,-z
-x,y,-z
-x,-y,-z
x,y,-z
-x,y,z
x,-y,z
x,1/2+y,1/2+z
-x,1/2-y,1/2+z
x,1/2-y,1/2-z
-x,1/2+y,1/2-z
-x,1/2-y,1/2-z
x,1/2+y,1/2-z
-x,1/2+y,1/2+z
x,1/2-y,1/2+z
1/2+x,y,1/2+z
1/2-x,-y,1/2+z
1/2+x,-y,1/2-z
1/2-x,y,1/2-z
1/2-x,-y,1/2-z
1/2+x,y,1/2-z
1/2-x,y,1/2+z
1/2+x,-y,1/2+z
1/2+x,1/2+y,z
1/2-x,1/2-y,z
1/2+x,1/2-y,-z
1/2-x,1/2+y,-z
1/2-x,1/2-y,-z
1/2+x,1/2+y,-z
1/2-x,1/2+y,z
1/2+x,1/2-y,z
loop_
_atom_site_type_symbol
_atom_site_label
_atom_site_fract_x
_atom_site_fract_y
_atom_site_fract_z
Si Si1 0.823936 0.341641 0.750172
Si Si2 0.238974 0.160228 0.500000
Si Si3 0.828848 0.589815 0.395085
Si Si4 0.570837 0.855342 0.143634
Si Si5 0.608227 0.587753 0.500000
Si Si6 0.432698 0.199087 0.426087
O O1 0.831865 0.250000 0.750000
O O2 0.750000 0.353964 0.750000
O O3 0.838397 0.383307 0.680854
O O4 0.871546 0.373015 0.806992
O O5 0.250000 0.250000 0.500000
O O6 0.270045 0.124661 0.433459
O O7 0.168141 0.140479 0.500000
O O8 0.827526 0.500000 0.401597
O O9 0.885626 0.631570 0.428716
O O10 0.500000 0.865529 0.169327
O O11 0.579589 0.766111 0.125906
O O12 0.575073 0.896943 0.071278
O O13 0.627838 0.500000 0.500000
O O14 0.433255 0.236042 0.500000
O O15 0.500000 0.168375 0.412061
#
# Coordination Sequence:
#
# PCOD9512829 Si02
#       6
#    32  16  32  32  16  32
#     4  11  25  42  67  97 136 182 232 281 347 423
#     4  12  26  43  74  99 136 183 232 287 348 435
#     4  12  25  42  65 100 137 174 226 288 351 417
#     4  11  23  43  70 101 135 183 243 291 346 429
#     4  12  25  42  68 105 141 174 224 299 368 416
#     4  10  20  38  65  95 130 174 224 282 346 416
#
# _framework density 20.928913999999999
#
# number of rings (size 3 to 8) (size 9 to 14) (size 15 to 20)
#    0.000    0.800    4.000    3.600    2.800    3.600 
#    0.000    1.000    0.000    0.000    0.000    0.000 
#    0.000    0.000    0.000    0.000    0.000    0.000 
#
# Total GULP energy -223086.297100 kJ/mol
# GULP energy per Si atom -5577.157427 kJ/mol
# Density = 2.088128 g / cm^3
# Si number density = 20.928914 Si / 1000 Ang^3
#
#
#
# Elastic Constant Matrix: (Units=GPa)
#
#
# Indices 1 2 3 4 5 6 
#
# 1 135.8035 23.5787 58.7564 0.0000 0.0000 0.0000
# 2 23.5787 70.6997 2.0237 0.0000 0.0000 0.0000
# 3 58.7564 2.0237 121.0771 0.0000 0.0000 0.0000
# 4 0.0000 0.0000 0.0000 15.0562 0.0000 0.0000
# 5 0.0000 0.0000 0.0000 0.0000 45.3458 0.0000
# 6 0.0000 0.0000 0.0000 0.0000 0.0000 6.9054
#
#
#
# Elastic Compliance Matrix: (Units=1/GPa)
#
#
# Indices 1 2 3 4 5 6 
#
# 1 0.009994 -0.003196 -0.004796 0.000000 0.000000 0.000000
# 2 -0.003196 0.015173 0.001297 0.000000 0.000000 0.000000
# 3 -0.004796 0.001297 0.010565 0.000000 0.000000 0.000000
# 4 0.000000 0.000000 0.000000 0.066418 0.000000 0.000000
# 5 0.000000 0.000000 0.000000 0.000000 0.022053 0.000000
# 6 0.000000 0.000000 0.000000 0.000000 0.000000 0.144814
#
#
# Mechanical properties :
#
#
# Convention : Reuss Voigt Hill
#
# Bulk Modulus (GPa) = 44.75850 55.14423 49.95137
# Shear Modulus (GPa) = 17.25013 29.67625 23.46319
#
# Velocity S-wave (km/s) = 2.87405 3.76966 3.35190
# Velocity P-wave (km/s) = 5.69613 6.73444 6.23693
#
# Compressibility (1/GPa) = 0.02234212
#
# Stress axis : x y z
#
# Youngs Moduli (GPa) = 100.06445 65.90677 94.65163
#
# Poissons Ratio (x) = 0.21061 0.45398
# Poissons Ratio (y) = 0.31977 -0.12278
# Poissons Ratio (z) = 0.47994 -0.08549
#
# Static dielectric constant tensor:
#      x y z
#    x 1.879620 0.000000 0.000000 
#    y 0.000000 1.703780 0.000000 
#    z 0.000000 0.000000 1.711830 
# 
# From -- ./inp_files/31747.got.cif
#   From: 2010.05.17/outbox.cif.g08.bks.cpg/sg69_16_cif.got.tgz:31747.got - 2010.06.03 19:29:58.
