data_PCOD9512320
_publ_section_title
;
Structure prediction by ZEFSAII (Michael W. Deem and Ramdas Pophale) SiO2 
 PCOD9512320
Probable space group: F M M M
;
_chemical_formula_sum "Si O2"
_cell_formula_units_Z 144
_cell_length_a 25.958016
_cell_length_b 35.232889
_cell_length_c 7.913410
_cell_angle_alpha 90.000000
_cell_angle_beta 90.000000
_cell_angle_gamma 90.000000
_cell_volume 7237.414044
_symmetry_space_group_name_H-M "F M M M"
_symmetry_group_IT_number 69
_symmetry_cell_setting 'orthorhombic'
loop_
_space_group_symop_operation_xyz
x,y,z
-x,-y,z
x,-y,-z
-x,y,-z
-x,-y,-z
x,y,-z
-x,y,z
x,-y,z
x,1/2+y,1/2+z
-x,1/2-y,1/2+z
x,1/2-y,1/2-z
-x,1/2+y,1/2-z
-x,1/2-y,1/2-z
x,1/2+y,1/2-z
-x,1/2+y,1/2+z
x,1/2-y,1/2+z
1/2+x,y,1/2+z
1/2-x,-y,1/2+z
1/2+x,-y,1/2-z
1/2-x,y,1/2-z
1/2-x,-y,1/2-z
1/2+x,y,1/2-z
1/2-x,y,1/2+z
1/2+x,-y,1/2+z
1/2+x,1/2+y,z
1/2-x,1/2-y,z
1/2+x,1/2-y,-z
1/2-x,1/2+y,-z
1/2-x,1/2-y,-z
1/2+x,1/2+y,-z
1/2-x,1/2+y,z
1/2+x,1/2-y,z
loop_
_atom_site_type_symbol
_atom_site_label
_atom_site_fract_x
_atom_site_fract_y
_atom_site_fract_z
Si Si1 0.500000 0.206154 0.295964
Si Si2 0.831510 0.540423 0.800339
Si Si3 0.056790 0.436937 0.294781
Si Si4 0.805631 0.123545 0.299207
Si Si5 0.084711 0.851845 0.798073
O O1 0.500000 0.204473 0.500000
O O2 0.500000 0.250000 0.250000
O O3 0.449897 0.182761 0.233862
O O4 0.813509 0.500000 0.726971
O O5 0.893276 0.542714 0.778052
O O6 0.811065 0.580307 0.727199
O O7 0.819739 0.540244 0.000000
O O8 0.059954 0.438947 0.500000
O O9 0.062671 0.392740 0.241995
O O10 0.000000 0.450742 0.245451
O O11 0.808697 0.120726 0.500000
O O12 0.750000 0.138904 0.250000
O O13 0.854922 0.147555 0.242793
O O14 0.079770 0.851937 0.000000
#
# Coordination Sequence:
#
# PCOD9512320 Si02
#       5
#    16  32  32  32  32
#     4  10  20  34  56  86 117 144 167 197 246 301
#     4   9  19  33  45  63  95 131 168 213 264 312
#     4   9  16  28  47  68  92 127 171 212 250 297
#     4  10  20  34  53  76  99 132 177 221 262 306
#     4   9  17  33  54  76 105 139 171 207 249 298
#
# _framework density 19.896609999999999
#
# number of rings (size 3 to 8) (size 9 to 14) (size 15 to 20)
#    0.000    2.667    1.111    0.667    0.000    3.556 
#    0.000    2.222    0.000    0.667    0.000    4.667 
#    0.000    0.000    0.000    0.000    0.000    0.000 
#
# Total GULP energy -200793.910796 kJ/mol
# GULP energy per Si atom -5577.608633 kJ/mol
# Density = 1.985132 g / cm^3
# Si number density = 19.896610 Si / 1000 Ang^3
#
#
#
# Elastic Constant Matrix: (Units=GPa)
#
#
# Indices 1 2 3 4 5 6 
#
# 1 133.7453 49.9645 -8.1511 -0.0044 0.0154 0.0101
# 2 49.9645 115.1406 11.7884 -0.0057 0.0171 -0.0068
# 3 -8.1511 11.7884 15.3893 -0.0127 0.0224 0.0141
# 4 -0.0044 -0.0057 -0.0127 11.0339 0.0078 -0.0349
# 5 0.0154 0.0171 0.0224 0.0078 21.6993 -0.0241
# 6 0.0101 -0.0068 0.0141 -0.0349 -0.0241 30.5574
#
#
#
# Elastic Compliance Matrix: (Units=1/GPa)
#
#
# Indices 1 2 3 4 5 6 
#
# 1 0.010035 -0.005316 0.009387 0.000012 -0.000013 -0.000009
# 2 -0.005316 0.012240 -0.012191 -0.000010 0.000007 0.000010
# 3 0.009387 -0.012191 0.079291 0.000089 -0.000079 -0.000042
# 4 0.000012 -0.000010 0.000089 0.090630 -0.000033 0.000104
# 5 -0.000013 0.000007 -0.000079 -0.000033 0.046085 0.000036
# 6 -0.000009 0.000010 -0.000042 0.000104 0.000036 0.032725
#
#
# Mechanical properties :
#
#
# Convention : Reuss Voigt Hill
#
# Bulk Modulus (GPa) = 11.71980 41.27540 26.49760
# Shear Modulus (GPa) = 15.83842 26.70303 21.27072
#
# Velocity S-wave (km/s) = 2.82447 3.66743 3.27320
# Velocity P-wave (km/s) = 4.06694 6.22281 5.25658
#
# Compressibility (1/GPa) = 0.08532568
#
# Stress axis : x y z
#
# Youngs Moduli (GPa) = 99.65346 81.70027 12.61175
#
# Poissons Ratio (x) = 0.43428 -0.11838
# Poissons Ratio (y) = 0.52971 0.15375
# Poissons Ratio (z) = -0.93543 0.99604
#
# Static dielectric constant tensor:
#      x y z
#    x 1.659640 0.000010 0.000060 
#    y 0.000010 1.712690 0.000000 
#    z 0.000060 0.000000 1.719730 
# 
# From -- ./inp_files/5573.got.cif
#   From: 2010.05.17/outbox.cif.g08.bks.cpg/sg69_3_cif.got.tgz:5573.got - 2010.06.03 19:29:58.
