data_PCOD9512809
_publ_section_title
;
Structure prediction by ZEFSAII (Michael W. Deem and Ramdas Pophale) SiO2 
 PCOD9512809
Probable space group: F M M M
;
_chemical_formula_sum "Si O2"
_cell_formula_units_Z 164
_cell_length_a 32.576862
_cell_length_b 13.906927
_cell_length_c 19.027140
_cell_angle_alpha 90.000000
_cell_angle_beta 90.000000
_cell_angle_gamma 90.000000
_cell_volume 8620.132408
_symmetry_space_group_name_H-M "F M M M"
_symmetry_group_IT_number 69
_symmetry_cell_setting 'orthorhombic'
loop_
_space_group_symop_operation_xyz
x,y,z
-x,-y,z
x,-y,-z
-x,y,-z
-x,-y,-z
x,y,-z
-x,y,z
x,-y,z
x,1/2+y,1/2+z
-x,1/2-y,1/2+z
x,1/2-y,1/2-z
-x,1/2+y,1/2-z
-x,1/2-y,1/2-z
x,1/2+y,1/2-z
-x,1/2+y,1/2+z
x,1/2-y,1/2+z
1/2+x,y,1/2+z
1/2-x,-y,1/2+z
1/2+x,-y,1/2-z
1/2-x,y,1/2-z
1/2-x,-y,1/2-z
1/2+x,y,1/2-z
1/2-x,y,1/2+z
1/2+x,-y,1/2+z
1/2+x,1/2+y,z
1/2-x,1/2-y,z
1/2+x,1/2-y,-z
1/2-x,1/2+y,-z
1/2-x,1/2-y,-z
1/2+x,1/2+y,-z
1/2-x,1/2+y,z
1/2+x,1/2-y,z
loop_
_atom_site_type_symbol
_atom_site_label
_atom_site_fract_x
_atom_site_fract_y
_atom_site_fract_z
Si Si1 0.667694 0.111591 0.500000
Si Si2 0.951848 0.262715 0.862705
Si Si3 0.920915 0.609348 0.251879
Si Si4 0.203793 0.280828 0.363885
Si Si5 0.175291 0.388462 0.769021
Si Si6 0.073882 0.160686 0.000000
Si Si7 0.000000 0.000000 0.000000
O O1 0.683180 0.167655 0.569575
O O2 0.618315 0.112303 0.500000
O O3 0.681795 0.000000 0.500000
O O4 0.933910 0.356732 0.825472
O O5 0.943585 0.177545 0.806757
O O6 0.930065 0.228478 0.932523
O O7 0.000000 0.273618 0.874713
O O8 0.931987 0.500000 0.265732
O O9 0.871888 0.620748 0.256957
O O10 0.250000 0.250000 0.381020
O O11 0.202565 0.352584 0.296617
O O12 0.181703 0.184891 0.333470
O O13 0.182893 0.500000 0.786308
O O14 0.036481 0.084372 0.000000
#
# Coordination Sequence:
#
# PCOD9512809 Si02
#       7
#    16  32  32  32  32  16   4
#     4  12  25  41  63  85 121 163 196 246 307 365
#     4  11  22  36  55  83 116 152 191 246 298 349
#     4  10  21  36  58  84 116 152 196 235 289 356
#     4  11  23  39  60  90 121 152 199 246 291 352
#     4  10  20  38  62  88 115 156 195 241 295 348
#     4  12  24  41  60  89 121 150 201 247 303 360
#     4  12  24  40  60  96 118 152 196 254 304 364
#
# _framework density 19.025230000000001
#
# number of rings (size 3 to 8) (size 9 to 14) (size 15 to 20)
#    0.000    1.171    1.463    7.902    1.366    5.463 
#    0.000    0.976    0.000    4.683    0.000    0.000 
#    0.000    0.000    0.000    0.000    0.000    0.000 
#
# Total GULP energy -228805.021939 kJ/mol
# GULP energy per Si atom -5580.610291 kJ/mol
# Density = 1.898193 g / cm^3
# Si number density = 19.025230 Si / 1000 Ang^3
#
#
#
# Elastic Constant Matrix: (Units=GPa)
#
#
# Indices 1 2 3 4 5 6 
#
# 1 71.1589 22.0906 10.8868 0.0000 0.0000 0.0000
# 2 22.0906 93.6955 31.1619 0.0000 0.0000 0.0000
# 3 10.8868 31.1619 108.4716 0.0000 0.0000 0.0000
# 4 0.0000 0.0000 0.0000 6.8240 0.0000 0.0000
# 5 0.0000 0.0000 0.0000 0.0000 29.1791 0.0000
# 6 0.0000 0.0000 0.0000 0.0000 0.0000 20.4539
#
#
#
# Elastic Compliance Matrix: (Units=1/GPa)
#
#
# Indices 1 2 3 4 5 6 
#
# 1 0.015192 -0.003400 -0.000548 0.000000 0.000000 0.000000
# 2 -0.003400 0.012561 -0.003267 0.000000 0.000000 0.000000
# 3 -0.000548 -0.003267 0.010213 0.000000 0.000000 0.000000
# 4 0.000000 0.000000 0.000000 0.146542 0.000000 0.000000
# 5 0.000000 0.000000 0.000000 0.000000 0.034271 0.000000
# 6 0.000000 0.000000 0.000000 0.000000 0.000000 0.048891
#
#
# Mechanical properties :
#
#
# Convention : Reuss Voigt Hill
#
# Bulk Modulus (GPa) = 42.48838 44.62274 43.55556
# Shear Modulus (GPa) = 17.24463 25.23716 21.24089
#
# Velocity S-wave (km/s) = 3.01393 3.64608 3.34497
# Velocity P-wave (km/s) = 5.87306 6.42111 6.15319
#
# Compressibility (1/GPa) = 0.02353584
#
# Stress axis : x y z
#
# Youngs Moduli (GPa) = 65.82291 79.61098 97.91756
#
# Poissons Ratio (x) = 0.27064 0.05367
# Poissons Ratio (y) = 0.22377 0.31993
# Poissons Ratio (z) = 0.03608 0.26012
#
# Static dielectric constant tensor:
#      x y z
#    x 1.665770 0.000000 0.000000 
#    y 0.000000 1.665120 0.000000 
#    z 0.000000 0.000000 1.642970 
# 
# From -- ./inp_files/27557.got.cif
#   From: 2010.05.17/outbox.cif.g08.bks.cpg/sg69_14_cif.got.tgz:27557.got - 2010.06.03 19:29:58.
