data_PCOD9512034
_publ_section_title
;
Structure prediction by ZEFSAII (Michael W. Deem and Ramdas Pophale) SiO2 
 PCOD9512034
Probable space group: F M M M
;
_chemical_formula_sum "Si O2"
_cell_formula_units_Z 160
_cell_length_a 33.728132
_cell_length_b 15.113459
_cell_length_c 17.155341
_cell_angle_alpha 90.000000
_cell_angle_beta 90.000000
_cell_angle_gamma 90.000000
_cell_volume 8744.913461
_symmetry_space_group_name_H-M "F M M M"
_symmetry_group_IT_number 69
_symmetry_cell_setting 'orthorhombic'
loop_
_space_group_symop_operation_xyz
x,y,z
-x,-y,z
x,-y,-z
-x,y,-z
-x,-y,-z
x,y,-z
-x,y,z
x,-y,z
x,1/2+y,1/2+z
-x,1/2-y,1/2+z
x,1/2-y,1/2-z
-x,1/2+y,1/2-z
-x,1/2-y,1/2-z
x,1/2+y,1/2-z
-x,1/2+y,1/2+z
x,1/2-y,1/2+z
1/2+x,y,1/2+z
1/2-x,-y,1/2+z
1/2+x,-y,1/2-z
1/2-x,y,1/2-z
1/2-x,-y,1/2-z
1/2+x,y,1/2-z
1/2-x,y,1/2+z
1/2+x,-y,1/2+z
1/2+x,1/2+y,z
1/2-x,1/2-y,z
1/2+x,1/2-y,-z
1/2-x,1/2+y,-z
1/2-x,1/2-y,-z
1/2+x,1/2+y,-z
1/2-x,1/2+y,z
1/2+x,1/2-y,z
loop_
_atom_site_type_symbol
_atom_site_label
_atom_site_fract_x
_atom_site_fract_y
_atom_site_fract_z
Si Si1 0.546842 0.000000 0.743183
Si Si2 0.629758 0.327543 0.349680
Si Si3 0.282859 0.820051 0.093439
Si Si4 0.393457 0.139746 0.322446
Si Si5 0.341271 0.500000 0.091449
Si Si6 0.587892 0.500000 0.411006
Si Si7 0.747102 0.000000 0.342448
O O1 0.567412 0.084930 0.701714
O O2 0.500000 0.000000 0.734567
O O3 0.558668 0.000000 0.835458
O O4 0.673330 0.299951 0.376122
O O5 0.601971 0.240288 0.351519
O O6 0.630430 0.356233 0.259267
O O7 0.613920 0.411013 0.398391
O O8 0.250000 0.750000 0.120249
O O9 0.268934 0.914747 0.123394
O O10 0.283781 0.819517 0.000000
O O11 0.367399 0.083816 0.382337
O O12 0.298814 0.500000 0.132748
O O13 0.334378 0.500000 0.000000
O O14 0.572007 0.500000 0.500000
O O15 0.750000 0.000000 0.250000
#
# Coordination Sequence:
#
# PCOD9512034 Si02
#       7
#    16  32  32  32  16  16  16
#     4   9  19  39  65  89 113 138 171 223 277 330
#     4  10  19  36  56  77 111 150 191 231 266 322
#     4  11  23  36  53  79 110 146 190 240 288 325
#     4   9  20  37  58  84 106 140 188 225 272 335
#     4  11  21  35  55  78 108 142 184 238 287 329
#     4  10  20  33  55  86 118 154 186 217 268 333
#     4  12  24  37  53  75 109 151 194 239 282 322
#
# _framework density 18.296351000000001
#
# number of rings (size 3 to 8) (size 9 to 14) (size 15 to 20)
#    0.000    1.800    0.000    5.100    0.000    5.400 
#    0.000    8.000    0.000    4.800    0.000    0.000 
#    0.000    0.000    0.000    0.000    0.000    0.000 
#
# Total GULP energy -223316.849385 kJ/mol
# GULP energy per Si atom -5582.921235 kJ/mol
# Density = 1.825471 g / cm^3
# Si number density = 18.296351 Si / 1000 Ang^3
#
#
#
# Elastic Constant Matrix: (Units=GPa)
#
#
# Indices 1 2 3 4 5 6 
#
# 1 125.6941 48.6735 50.2011 0.0000 0.0000 0.0000
# 2 48.6735 136.5607 35.5589 0.0000 0.0000 0.0000
# 3 50.2011 35.5589 78.3614 0.0000 0.0000 0.0000
# 4 0.0000 0.0000 0.0000 123.9161 0.0000 0.0000
# 5 0.0000 0.0000 0.0000 0.0000 22.5472 0.0000
# 6 0.0000 0.0000 0.0000 0.0000 0.0000 -44.7166
#
#
#
# Elastic Compliance Matrix: (Units=1/GPa)
#
#
# Indices 1 2 3 4 5 6 
#
# 1 0.011368 -0.002444 -0.006174 0.000000 0.000000 0.000000
# 2 -0.002444 0.008830 -0.002441 0.000000 0.000000 0.000000
# 3 -0.006174 -0.002441 0.017824 0.000000 0.000000 0.000000
# 4 0.000000 0.000000 0.000000 0.008070 0.000000 0.000000
# 5 0.000000 0.000000 0.000000 0.000000 0.044351 0.000000
# 6 0.000000 0.000000 0.000000 0.000000 0.000000 -0.022363
#
#
# Mechanical properties :
#
#
# Convention : Reuss Voigt Hill
#
# Bulk Modulus (GPa) = 62.87640 67.72035 65.29837
# Shear Modulus (GPa) = 52.35688 34.09487 43.22588
#
# Velocity S-wave (km/s) = 5.35520 4.32149 4.86587
# Velocity P-wave (km/s) = 8.52512 7.87361 8.20583
#
# Compressibility (1/GPa) = 0.01590422
#
# Stress axis : x y z
#
# Youngs Moduli (GPa) = 87.96601 113.25664 56.10426
#
# Poissons Ratio (x) = 0.27683 0.34636
# Poissons Ratio (y) = 0.21502 0.13694
# Poissons Ratio (z) = 0.54307 0.27643
#
# Static dielectric constant tensor:
#      x y z
#    x 1.588770 0.000000 0.000000 
#    y 0.000000 1.653730 0.000000 
#    z 0.000000 0.000000 1.619570 
# 
# From -- ./inp_files/27548.got.cif
#   From: 2010.05.17/outbox.cif.g08.bks.cpg/sg69_14_cif.got.tgz:27548.got - 2010.06.03 19:29:58.
