data_PCOD9512325
_publ_section_title
;
Structure prediction by ZEFSAII (Michael W. Deem and Ramdas Pophale) SiO2 
 PCOD9512325
Probable space group: F M M M
;
_chemical_formula_sum "Si O2"
_cell_formula_units_Z 144
_cell_length_a 24.568678
_cell_length_b 31.119114
_cell_length_c 10.441301
_cell_angle_alpha 90.000000
_cell_angle_beta 90.000000
_cell_angle_gamma 90.000000
_cell_volume 7982.954018
_symmetry_space_group_name_H-M "F M M M"
_symmetry_group_IT_number 69
_symmetry_cell_setting 'orthorhombic'
loop_
_space_group_symop_operation_xyz
x,y,z
-x,-y,z
x,-y,-z
-x,y,-z
-x,-y,-z
x,y,-z
-x,y,z
x,-y,z
x,1/2+y,1/2+z
-x,1/2-y,1/2+z
x,1/2-y,1/2-z
-x,1/2+y,1/2-z
-x,1/2-y,1/2-z
x,1/2+y,1/2-z
-x,1/2+y,1/2+z
x,1/2-y,1/2+z
1/2+x,y,1/2+z
1/2-x,-y,1/2+z
1/2+x,-y,1/2-z
1/2-x,y,1/2-z
1/2-x,-y,1/2-z
1/2+x,y,1/2-z
1/2-x,y,1/2+z
1/2+x,-y,1/2+z
1/2+x,1/2+y,z
1/2-x,1/2-y,z
1/2+x,1/2-y,-z
1/2-x,1/2+y,-z
1/2-x,1/2-y,-z
1/2+x,1/2+y,-z
1/2-x,1/2+y,z
1/2+x,1/2-y,z
loop_
_atom_site_type_symbol
_atom_site_label
_atom_site_fract_x
_atom_site_fract_y
_atom_site_fract_z
Si Si1 0.820322 0.391392 0.500000
Si Si2 0.879269 0.087217 0.260049
Si Si3 0.192397 0.383277 0.000000
Si Si4 0.123786 0.200194 0.000000
Si Si5 0.563861 0.677346 0.258635
Si Si6 0.564586 0.500000 0.346368
Si Si7 0.135628 0.795158 0.500000
O O1 0.846966 0.411608 0.373354
O O2 0.755541 0.394561 0.500000
O O3 0.836818 0.340931 0.500000
O O4 0.837839 0.098159 0.375215
O O5 0.922563 0.126390 0.257141
O O6 0.908403 0.042501 0.288082
O O7 0.181710 0.331817 0.000000
O O8 0.086462 0.196275 0.125990
O O9 0.153762 0.245874 0.000000
O O10 0.500000 0.684945 0.273580
O O11 0.598135 0.696609 0.375865
O O12 0.500000 0.500000 0.323150
O O13 0.573154 0.500000 0.500000
#
# Coordination Sequence:
#
# PCOD9512325 Si02
#       7
#    16  32  16  16  32  16  16
#     4  10  22  39  60  79 115 155 185 233 290 331
#     4  10  21  39  58  87 114 144 192 232 278 340
#     4  10  20  39  60  81 111 151 193 237 282 327
#     4  10  21  35  51  79 111 147 190 234 279 334
#     4  10  20  34  53  77 112 150 182 227 286 341
#     4  11  22  39  66  92 117 146 181 229 278 332
#     4  10  21  33  53  81 109 141 196 242 269 330
#
# _framework density 18.038435
#
# number of rings (size 3 to 8) (size 9 to 14) (size 15 to 20)
#    0.000    1.889    1.111    2.667    0.000    3.556 
#    0.000    5.556    0.000    8.000    0.000    0.000 
#    0.000    0.000    0.000    0.000    0.000    0.000 
#
# Total GULP energy -201095.018157 kJ/mol
# GULP energy per Si atom -5585.972727 kJ/mol
# Density = 1.799738 g / cm^3
# Si number density = 18.038435 Si / 1000 Ang^3
#
#
#
# Elastic Constant Matrix: (Units=GPa)
#
#
# Indices 1 2 3 4 5 6 
#
# 1 82.4053 39.0170 40.4095 0.0001 -0.0003 -0.0001
# 2 39.0170 150.6605 46.3691 0.0000 -0.0002 -0.0001
# 3 40.4095 46.3691 152.5203 0.0001 -0.0009 -0.0003
# 4 0.0001 0.0000 0.0001 48.4229 0.0001 0.0000
# 5 -0.0003 -0.0002 -0.0009 0.0001 -3.7044 0.0002
# 6 -0.0001 -0.0001 -0.0003 0.0000 0.0002 4.4550
#
#
#
# Elastic Compliance Matrix: (Units=1/GPa)
#
#
# Indices 1 2 3 4 5 6 
#
# 1 0.015045 -0.002945 -0.003091 0.000000 0.000000 0.000000
# 2 -0.002945 0.007899 -0.001621 0.000000 0.000000 0.000000
# 3 -0.003091 -0.001621 0.007868 0.000000 -0.000002 0.000000
# 4 0.000000 0.000000 0.000000 0.020651 0.000000 0.000000
# 5 0.000000 0.000000 -0.000002 0.000000 -0.269947 0.000013
# 6 0.000000 0.000000 0.000000 0.000000 0.000013 0.224469
#
#
# Mechanical properties :
#
#
# Convention : Reuss Voigt Hill
#
# Bulk Modulus (GPa) = 64.52248 70.79749 67.65999
# Shear Modulus (GPa) = 188.91708 27.15405 108.03557
#
# Velocity S-wave (km/s) = 10.24488 3.88409 7.74738
# Velocity P-wave (km/s) = 13.25861 7.71026 10.84525
#
# Compressibility (1/GPa) = 0.01549847
#
# Stress axis : x y z
#
# Youngs Moduli (GPa) = 66.46635 126.59697 127.09260
#
# Poissons Ratio (x) = 0.37283 0.39282
# Poissons Ratio (y) = 0.19575 0.20604
# Poissons Ratio (z) = 0.20543 0.20524
#
# Static dielectric constant tensor:
#      x y z
#    x 1.561070 0.000000 0.000000 
#    y 0.000000 1.619850 0.000000 
#    z 0.000000 0.000000 1.600600 
# 
# From -- ./inp_files/10429.got.cif
#   From: 2010.05.17/outbox.cif.g08.bks.cpg/sg69_6_cif.got.tgz:10429.got - 2010.06.03 19:29:58.
