data_PCOD9512726
_publ_section_title
;
Structure prediction by ZEFSAII (Michael W. Deem and Ramdas Pophale) SiO2 
 PCOD9512726
Probable space group: F M M M
;
_chemical_formula_sum "Si O2"
_cell_formula_units_Z 168
_cell_length_a 20.404747
_cell_length_b 25.086711
_cell_length_c 17.105815
_cell_angle_alpha 90.000000
_cell_angle_beta 90.000000
_cell_angle_gamma 90.000000
_cell_volume 8756.261275
_symmetry_space_group_name_H-M "F M M M"
_symmetry_group_IT_number 69
_symmetry_cell_setting 'orthorhombic'
loop_
_space_group_symop_operation_xyz
x,y,z
-x,-y,z
x,-y,-z
-x,y,-z
-x,-y,-z
x,y,-z
-x,y,z
x,-y,z
x,1/2+y,1/2+z
-x,1/2-y,1/2+z
x,1/2-y,1/2-z
-x,1/2+y,1/2-z
-x,1/2-y,1/2-z
x,1/2+y,1/2-z
-x,1/2+y,1/2+z
x,1/2-y,1/2+z
1/2+x,y,1/2+z
1/2-x,-y,1/2+z
1/2+x,-y,1/2-z
1/2-x,y,1/2-z
1/2-x,-y,1/2-z
1/2+x,y,1/2-z
1/2-x,y,1/2+z
1/2+x,-y,1/2+z
1/2+x,1/2+y,z
1/2-x,1/2-y,z
1/2+x,1/2-y,-z
1/2-x,1/2+y,-z
1/2-x,1/2-y,-z
1/2+x,1/2+y,-z
1/2-x,1/2+y,z
1/2+x,1/2-y,z
loop_
_atom_site_type_symbol
_atom_site_label
_atom_site_fract_x
_atom_site_fract_y
_atom_site_fract_z
Si Si1 0.097009 0.795255 0.636111
Si Si2 0.806005 0.060714 0.316233
Si Si3 0.233006 0.338108 0.092112
Si Si4 0.115125 0.823185 0.906460
Si Si5 0.000000 0.829759 0.500000
Si Si6 0.927678 0.620295 0.738946
O O1 0.175226 0.803749 0.629894
O O2 0.084544 0.733467 0.618158
O O3 0.077127 0.822260 0.717385
O O4 0.057468 0.826614 0.568746
O O5 0.750000 0.061896 0.250000
O O6 0.782578 0.101461 0.382672
O O7 0.871998 0.084003 0.277653
O O8 0.814728 0.000000 0.342780
O O9 0.307219 0.323409 0.113397
O O10 0.227366 0.330695 0.000000
O O11 0.084607 0.868736 0.852319
O O12 0.107584 0.830075 0.000000
O O13 0.000000 0.598281 0.752085
#
# Coordination Sequence:
#
# PCOD9512726 Si02
#       6
#    32  32  32  32   8  32
#     4  11  22  35  56  81 122 159 195 234 279 344
#     4  10  21  41  63  82 107 143 189 245 299 350
#     4  10  20  37  58  86 114 148 191 242 290 341
#     4  11  22  36  56  83 118 158 201 235 280 336
#     4  12  20  36  52  88 115 172 191 230 292 340
#     4  11  24  38  57  87 117 154 196 240 291 348
#
# _framework density 19.186271000000001
#
# number of rings (size 3 to 8) (size 9 to 14) (size 15 to 20)
#    0.000    1.333    4.762    1.143    1.333    3.429 
#    0.000    1.905    0.000    0.571    0.000    6.667 
#    0.000    0.000    0.000    0.000    0.000    0.000 
#
# Total GULP energy -233936.285101 kJ/mol
# GULP energy per Si atom -5569.911550 kJ/mol
# Density = 1.914260 g / cm^3
# Si number density = 19.186271 Si / 1000 Ang^3
#
#
#
# Elastic Constant Matrix: (Units=GPa)
#
#
# Indices 1 2 3 4 5 6 
#
# 1 114.3846 5.4707 14.5261 0.0000 0.0000 0.0000
# 2 5.4707 56.1854 -3.2864 0.0000 0.0000 0.0000
# 3 14.5261 -3.2864 53.0431 0.0000 0.0000 0.0000
# 4 0.0000 0.0000 0.0000 9.3965 0.0000 0.0000
# 5 0.0000 0.0000 0.0000 0.0000 32.0453 0.0000
# 6 0.0000 0.0000 0.0000 0.0000 0.0000 -3.3215
#
#
#
# Elastic Compliance Matrix: (Units=1/GPa)
#
#
# Indices 1 2 3 4 5 6 
#
# 1 0.009117 -0.001038 -0.002561 0.000000 0.000000 0.000000
# 2 -0.001038 0.017981 0.001398 0.000000 0.000000 0.000000
# 3 -0.002561 0.001398 0.019641 0.000000 0.000000 0.000000
# 4 0.000000 0.000000 0.000000 0.106422 0.000000 0.000000
# 5 0.000000 0.000000 0.000000 0.000000 0.031206 0.000000
# 6 0.000000 0.000000 0.000000 0.000000 0.000000 -0.301072
#
#
# Mechanical properties :
#
#
# Convention : Reuss Voigt Hill
#
# Bulk Modulus (GPa) = 23.61943 28.55932 26.08938
# Shear Modulus (GPa) = -50.92088 21.41758 -14.75165
#
# Velocity S-wave (km/s) = -5.15731 3.34473 -2.77585
# Velocity P-wave (km/s) = 4.80901 5.46204 1.83130
#
# Compressibility (1/GPa) = 0.04233802
#
# Stress axis : x y z
#
# Youngs Moduli (GPa) = 109.68162 55.61416 50.91494
#
# Poissons Ratio (x) = 0.05770 0.13040
# Poissons Ratio (y) = 0.11380 -0.07119
# Poissons Ratio (z) = 0.28091 -0.07776
#
# Static dielectric constant tensor:
#      x y z
#    x 1.694900 0.000000 0.000000 
#    y 0.000000 1.665040 0.000000 
#    z 0.000000 0.000000 1.662540 
# 
# From -- ./inp_files/16854.got.cif
#   From: 2010.05.17/outbox.cif.g08.bks.cpg/sg69_9_cif.got.tgz:16854.got - 2010.06.03 19:29:58.
