data_PCOD9512088
_publ_section_title
;
Structure prediction by ZEFSAII (Michael W. Deem and Ramdas Pophale) SiO2 
 PCOD9512088
Probable space group: F M M M
;
_chemical_formula_sum "Si O2"
_cell_formula_units_Z 96
_cell_length_a 23.975332
_cell_length_b 19.436899
_cell_length_c 11.086850
_cell_angle_alpha 90.000000
_cell_angle_beta 90.000000
_cell_angle_gamma 90.000000
_cell_volume 5166.539803
_symmetry_space_group_name_H-M "F M M M"
_symmetry_group_IT_number 69
_symmetry_cell_setting 'orthorhombic'
loop_
_space_group_symop_operation_xyz
x,y,z
-x,-y,z
x,-y,-z
-x,y,-z
-x,-y,-z
x,y,-z
-x,y,z
x,-y,z
x,1/2+y,1/2+z
-x,1/2-y,1/2+z
x,1/2-y,1/2-z
-x,1/2+y,1/2-z
-x,1/2-y,1/2-z
x,1/2+y,1/2-z
-x,1/2+y,1/2+z
x,1/2-y,1/2+z
1/2+x,y,1/2+z
1/2-x,-y,1/2+z
1/2+x,-y,1/2-z
1/2-x,y,1/2-z
1/2-x,-y,1/2-z
1/2+x,y,1/2-z
1/2-x,y,1/2+z
1/2+x,-y,1/2+z
1/2+x,1/2+y,z
1/2-x,1/2-y,z
1/2+x,1/2-y,-z
1/2-x,1/2+y,-z
1/2-x,1/2-y,-z
1/2+x,1/2+y,-z
1/2-x,1/2+y,z
1/2+x,1/2-y,z
loop_
_atom_site_type_symbol
_atom_site_label
_atom_site_fract_x
_atom_site_fract_y
_atom_site_fract_z
Si Si1 0.433611 0.421249 0.753513
Si Si2 0.812205 0.222855 0.000000
Si Si3 0.089801 0.785047 0.368645
Si Si4 0.864523 0.079336 0.000000
O O1 0.500000 0.411481 0.768100
O O2 0.424186 0.500000 0.715205
O O3 0.411166 0.365542 0.659705
O O4 0.402825 0.411382 0.881478
O O5 0.750000 0.250000 0.000000
O O6 0.848453 0.253736 0.889077
O O7 0.819417 0.140414 0.000000
O O8 0.063197 0.771377 0.500000
O O9 0.064821 0.750000 0.250000
O O10 0.843919 0.000000 0.000000
#
# Coordination Sequence:
#
# PCOD9512088 Si02
#       4
#    32  16  32  16
#     4  10  20  36  59  86 122 161 192 234 295 356
#     4  10  22  41  63  85 115 153 196 247 303 343
#     4  10  21  39  57  87 117 152 195 245 293 344
#     4  10  19  38  60  89 120 150 200 246 283 347
#
# _framework density 18.581102000000001
#
# number of rings (size 3 to 8) (size 9 to 14) (size 15 to 20)
#    1.000    1.000    3.333    0.500    0.000    4.667 
#    0.000    3.333    0.000    4.000    0.000    0.000 
#    0.000    0.000    0.000    0.000    0.000    0.000 
#
# Total GULP energy -133630.952086 kJ/mol
# GULP energy per Si atom -5567.956337 kJ/mol
# Density = 1.853881 g / cm^3
# Si number density = 18.581102 Si / 1000 Ang^3
#
#
#
# Elastic Constant Matrix: (Units=GPa)
#
#
# Indices 1 2 3 4 5 6 
#
# 1 87.3031 64.0413 19.2171 0.0000 0.0000 0.0000
# 2 64.0413 153.7639 52.1286 0.0000 0.0000 0.0000
# 3 19.2171 52.1286 134.0526 0.0000 0.0000 0.0000
# 4 0.0000 0.0000 0.0000 39.1132 0.0000 0.0000
# 5 0.0000 0.0000 0.0000 0.0000 44.6365 0.0000
# 6 0.0000 0.0000 0.0000 0.0000 0.0000 22.7124
#
#
#
# Elastic Compliance Matrix: (Units=1/GPa)
#
#
# Indices 1 2 3 4 5 6 
#
# 1 0.016508 -0.006995 0.000354 0.000000 0.000000 0.000000
# 2 -0.006995 0.010455 -0.003063 0.000000 0.000000 0.000000
# 3 0.000354 -0.003063 0.008600 0.000000 0.000000 0.000000
# 4 0.000000 0.000000 0.000000 0.025567 0.000000 0.000000
# 5 0.000000 0.000000 0.000000 0.000000 0.022403 0.000000
# 6 0.000000 0.000000 0.000000 0.000000 0.000000 0.044029
#
#
# Mechanical properties :
#
#
# Convention : Reuss Voigt Hill
#
# Bulk Modulus (GPa) = 61.90268 71.76596 66.83432
# Shear Modulus (GPa) = 32.81787 37.27459 35.04623
#
# Velocity S-wave (km/s) = 4.20717 4.48375 4.34766
# Velocity P-wave (km/s) = 7.54901 8.09397 7.82623
#
# Compressibility (1/GPa) = 0.01615439
#
# Stress axis : x y z
#
# Youngs Moduli (GPa) = 60.57701 95.64472 116.27751
#
# Poissons Ratio (x) = 0.66907 -0.04113
# Poissons Ratio (y) = 0.42376 0.35615
# Poissons Ratio (z) = -0.02143 0.29295
#
# Static dielectric constant tensor:
#      x y z
#    x 1.594470 0.000000 0.000000 
#    y 0.000000 1.681330 0.000000 
#    z 0.000000 0.000000 1.668350 
# 
# From -- ./inp_files/8005.got.cif
#   From: 2010.05.17/outbox.cif.g08.bks.cpg/sg69_5_cif.got.tgz:8005.got - 2010.06.03 19:29:58.
