data_PCOD9512386
_publ_section_title
;
Structure prediction by ZEFSAII (Michael W. Deem and Ramdas Pophale) SiO2 
 PCOD9512386
Probable space group: F M M M
;
_chemical_formula_sum "Si O2"
_cell_formula_units_Z 136
_cell_length_a 19.475650
_cell_length_b 26.035207
_cell_length_c 14.459539
_cell_angle_alpha 90.000000
_cell_angle_beta 90.000000
_cell_angle_gamma 90.000000
_cell_volume 7331.746544
_symmetry_space_group_name_H-M "F M M M"
_symmetry_group_IT_number 69
_symmetry_cell_setting 'orthorhombic'
loop_
_space_group_symop_operation_xyz
x,y,z
-x,-y,z
x,-y,-z
-x,y,-z
-x,-y,-z
x,y,-z
-x,y,z
x,-y,z
x,1/2+y,1/2+z
-x,1/2-y,1/2+z
x,1/2-y,1/2-z
-x,1/2+y,1/2-z
-x,1/2-y,1/2-z
x,1/2+y,1/2-z
-x,1/2+y,1/2+z
x,1/2-y,1/2+z
1/2+x,y,1/2+z
1/2-x,-y,1/2+z
1/2+x,-y,1/2-z
1/2-x,y,1/2-z
1/2-x,-y,1/2-z
1/2+x,y,1/2-z
1/2-x,y,1/2+z
1/2+x,-y,1/2+z
1/2+x,1/2+y,z
1/2-x,1/2-y,z
1/2+x,1/2-y,-z
1/2-x,1/2+y,-z
1/2-x,1/2-y,-z
1/2+x,1/2+y,-z
1/2-x,1/2+y,z
1/2+x,1/2-y,z
loop_
_atom_site_type_symbol
_atom_site_label
_atom_site_fract_x
_atom_site_fract_y
_atom_site_fract_z
Si Si1 0.423619 0.237196 0.611585
Si Si2 0.717772 0.092131 0.148890
Si Si3 0.421530 0.642373 0.388057
Si Si4 0.279837 0.302567 0.146717
Si Si5 0.272590 0.000000 0.000000
O O1 0.422895 0.233901 0.500000
O O2 0.500000 0.222547 0.643693
O O3 0.411870 0.297243 0.634408
O O4 0.361380 0.203549 0.647841
O O5 0.750000 0.082189 0.250000
O O6 0.637611 0.108233 0.156397
O O7 0.754317 0.143528 0.108032
O O8 0.725899 0.044955 0.080700
O O9 0.415395 0.637786 0.500000
O O10 0.500000 0.628468 0.363747
O O11 0.250000 0.303222 0.250000
O O12 0.250000 0.250000 0.103058
#
# Coordination Sequence:
#
# PCOD9512386 Si02
#       5
#    32  32  32  32   8
#     4   9  18  31  53  87 126 164 197 230 284 365
#     4  11  23  40  62  91 123 158 205 252 302 364
#     4   9  17  33  57  90 128 159 191 245 307 362
#     4  10  20  34  55  88 124 156 191 233 297 362
#     4  12  26  44  63  86 113 166 210 262 312 334
#
# _framework density 18.549468000000001
#
# number of rings (size 3 to 8) (size 9 to 14) (size 15 to 20)
#    0.000    2.118    3.529    1.765    1.647    0.471 
#    0.000    8.235    0.000    0.000    0.000    5.765 
#    0.000    0.000    0.000    0.000    0.000    0.000 
#
# Total GULP energy -189313.539094 kJ/mol
# GULP energy per Si atom -5568.045267 kJ/mol
# Density = 1.850725 g / cm^3
# Si number density = 18.549468 Si / 1000 Ang^3
#
#
#
# Elastic Constant Matrix: (Units=GPa)
#
#
# Indices 1 2 3 4 5 6 
#
# 1 163.6092 71.1208 57.1038 0.0000 0.0000 0.0000
# 2 71.1208 157.3355 43.6646 0.0000 0.0000 0.0000
# 3 57.1038 43.6646 89.1612 0.0000 0.0000 0.0000
# 4 0.0000 0.0000 0.0000 -55.7959 0.0000 0.0000
# 5 0.0000 0.0000 0.0000 0.0000 28.9786 0.0000
# 6 0.0000 0.0000 0.0000 0.0000 0.0000 -0.5308
#
#
#
# Elastic Compliance Matrix: (Units=1/GPa)
#
#
# Indices 1 2 3 4 5 6 
#
# 1 0.008823 -0.002801 -0.004279 0.000000 0.000000 0.000000
# 2 -0.002801 0.008245 -0.002244 0.000000 0.000000 0.000000
# 3 -0.004279 -0.002244 0.015055 0.000000 0.000000 0.000000
# 4 0.000000 0.000000 0.000000 -0.017922 0.000000 0.000000
# 5 0.000000 0.000000 0.000000 0.000000 0.034508 0.000000
# 6 0.000000 0.000000 0.000000 0.000000 0.000000 -1.884118
#
#
# Mechanical properties :
#
#
# Convention : Reuss Voigt Hill
#
# Bulk Modulus (GPa) = 74.21006 83.76492 78.98749
# Shear Modulus (GPa) = -2.75897 10.41150 3.82627
#
# Velocity S-wave (km/s) = -1.22090 2.37171 1.43778
# Velocity P-wave (km/s) = 6.17300 7.26331 6.74024
#
# Compressibility (1/GPa) = 0.01347526
#
# Stress axis : x y z
#
# Youngs Moduli (GPa) = 113.33782 121.29143 66.42235
#
# Poissons Ratio (x) = 0.33971 0.28424
# Poissons Ratio (y) = 0.31743 0.14904
# Poissons Ratio (z) = 0.48500 0.27216
#
# Static dielectric constant tensor:
#      x y z
#    x 1.670390 0.000000 0.000000 
#    y 0.000000 1.632930 0.000000 
#    z 0.000000 0.000000 1.726560 
# 
# From -- ./inp_files/16554.got.cif
#   From: 2010.05.17/outbox.cif.g08.bks.cpg/sg69_9_cif.got.tgz:16554.got - 2010.06.03 19:29:58.
