data_PCOD9512018
_publ_section_title
;
Structure prediction by ZEFSAII (Michael W. Deem and Ramdas Pophale) SiO2 
 PCOD9512018
Probable space group: F M M M
;
_chemical_formula_sum "Si O2"
_cell_formula_units_Z 128
_cell_length_a 14.326443
_cell_length_b 23.048329
_cell_length_c 20.771367
_cell_angle_alpha 90.000000
_cell_angle_beta 90.000000
_cell_angle_gamma 90.000000
_cell_volume 6858.717258
_symmetry_space_group_name_H-M "F M M M"
_symmetry_group_IT_number 69
_symmetry_cell_setting 'orthorhombic'
loop_
_space_group_symop_operation_xyz
x,y,z
-x,-y,z
x,-y,-z
-x,y,-z
-x,-y,-z
x,y,-z
-x,y,z
x,-y,z
x,1/2+y,1/2+z
-x,1/2-y,1/2+z
x,1/2-y,1/2-z
-x,1/2+y,1/2-z
-x,1/2-y,1/2-z
x,1/2+y,1/2-z
-x,1/2+y,1/2+z
x,1/2-y,1/2+z
1/2+x,y,1/2+z
1/2-x,-y,1/2+z
1/2+x,-y,1/2-z
1/2-x,y,1/2-z
1/2-x,-y,1/2-z
1/2+x,y,1/2-z
1/2-x,y,1/2+z
1/2+x,-y,1/2+z
1/2+x,1/2+y,z
1/2-x,1/2-y,z
1/2+x,1/2-y,-z
1/2-x,1/2+y,-z
1/2-x,1/2-y,-z
1/2+x,1/2+y,-z
1/2-x,1/2+y,z
1/2+x,1/2-y,z
loop_
_atom_site_type_symbol
_atom_site_label
_atom_site_fract_x
_atom_site_fract_y
_atom_site_fract_z
Si Si1 0.225205 0.000000 0.577995
Si Si2 0.724754 0.816776 0.837728
Si Si3 0.840987 0.000000 0.204471
Si Si4 0.394870 0.885601 0.923540
Si Si5 0.606167 0.129510 0.719446
O O1 0.162484 0.943542 0.593411
O O2 0.246265 0.000000 0.500000
O O3 0.309596 0.000000 0.629208
O O4 0.750000 0.750000 0.828139
O O5 0.664667 0.831023 0.900177
O O6 0.658301 0.842751 0.781323
O O7 0.822832 0.850931 0.836701
O O8 0.750000 0.000000 0.250000
O O9 0.892049 0.059921 0.220797
O O10 0.500000 0.886461 0.896202
O O11 0.401964 0.885429 0.000000
O O12 0.500000 0.150194 0.713653
#
# Coordination Sequence:
#
# PCOD9512018 Si02
#       5
#    16  32  16  32  32
#     4  10  19  35  61  90 121 153 187 238 304 358
#     4  11  23  38  57  82 115 156 193 235 292 342
#     4  12  19  36  61  86 117 152 187 244 304 354
#     4  10  20  36  61  90 117 148 190 240 293 348
#     4  11  22  37  58  84 113 147 191 238 291 350
#
# _framework density 18.662382000000001
#
# number of rings (size 3 to 8) (size 9 to 14) (size 15 to 20)
#    0.000    1.250    5.000    3.000    0.000    5.000 
#    0.000    3.750    0.000    3.750    0.000    0.000 
#    0.000    0.000    0.000    0.000    0.000    0.000 
#
# Total GULP energy -178474.264845 kJ/mol
# GULP energy per Si atom -5577.320776 kJ/mol
# Density = 1.861991 g / cm^3
# Si number density = 18.662382 Si / 1000 Ang^3
#
#
#
# Elastic Constant Matrix: (Units=GPa)
#
#
# Indices 1 2 3 4 5 6 
#
# 1 126.9285 37.3335 18.6590 0.0000 0.0000 0.0000
# 2 37.3335 133.9767 17.4709 0.0000 0.0000 0.0000
# 3 18.6590 17.4709 31.2517 0.0000 0.0000 0.0000
# 4 0.0000 0.0000 0.0000 15.8181 0.0000 0.0000
# 5 0.0000 0.0000 0.0000 0.0000 15.6963 0.0000
# 6 0.0000 0.0000 0.0000 0.0000 0.0000 3.3904
#
#
#
# Elastic Compliance Matrix: (Units=1/GPa)
#
#
# Indices 1 2 3 4 5 6 
#
# 1 0.009094 -0.001970 -0.004329 0.000000 0.000000 0.000000
# 2 -0.001970 0.008478 -0.003563 0.000000 0.000000 0.000000
# 3 -0.004329 -0.003563 0.036575 0.000000 0.000000 0.000000
# 4 0.000000 0.000000 0.000000 0.063219 0.000000 0.000000
# 5 0.000000 0.000000 0.000000 0.000000 0.063709 0.000000
# 6 0.000000 0.000000 0.000000 0.000000 0.000000 0.294953
#
#
# Mechanical properties :
#
#
# Convention : Reuss Voigt Hill
#
# Bulk Modulus (GPa) = 29.05012 48.78709 38.91861
# Shear Modulus (GPa) = 9.85756 21.56052 15.70904
#
# Velocity S-wave (km/s) = 2.30076 3.40265 2.90444
# Velocity P-wave (km/s) = 4.76004 6.45260 5.66983
#
# Compressibility (1/GPa) = 0.03442326
#
# Stress axis : x y z
#
# Youngs Moduli (GPa) = 109.96136 117.95922 27.34136
#
# Poissons Ratio (x) = 0.23234 0.11835
# Poissons Ratio (y) = 0.21659 0.09742
# Poissons Ratio (z) = 0.47597 0.42032
#
# Static dielectric constant tensor:
#      x y z
#    x 1.665890 0.000000 0.000000 
#    y 0.000000 1.652590 0.000000 
#    z 0.000000 0.000000 1.717480 
# 
# From -- ./inp_files/16379.got.cif
#   From: 2010.05.17/outbox.cif.g08.bks.cpg/sg69_9_cif.got.tgz:16379.got - 2010.06.03 19:29:58.
