data_PCOD9512081
_publ_section_title
;
Structure prediction by ZEFSAII (Michael W. Deem and Ramdas Pophale) SiO2 
 PCOD9512081
Probable space group: F M M M
;
_chemical_formula_sum "Si O2"
_cell_formula_units_Z 128
_cell_length_a 15.848332
_cell_length_b 20.577877
_cell_length_c 19.659211
_cell_angle_alpha 90.000000
_cell_angle_beta 90.000000
_cell_angle_gamma 90.000000
_cell_volume 6411.360709
_symmetry_space_group_name_H-M "F M M M"
_symmetry_group_IT_number 69
_symmetry_cell_setting 'orthorhombic'
loop_
_space_group_symop_operation_xyz
x,y,z
-x,-y,z
x,-y,-z
-x,y,-z
-x,-y,-z
x,y,-z
-x,y,z
x,-y,z
x,1/2+y,1/2+z
-x,1/2-y,1/2+z
x,1/2-y,1/2-z
-x,1/2+y,1/2-z
-x,1/2-y,1/2-z
x,1/2+y,1/2-z
-x,1/2+y,1/2+z
x,1/2-y,1/2+z
1/2+x,y,1/2+z
1/2-x,-y,1/2+z
1/2+x,-y,1/2-z
1/2-x,y,1/2-z
1/2-x,-y,1/2-z
1/2+x,y,1/2-z
1/2-x,y,1/2+z
1/2+x,-y,1/2+z
1/2+x,1/2+y,z
1/2-x,1/2-y,z
1/2+x,1/2-y,-z
1/2-x,1/2+y,-z
1/2-x,1/2-y,-z
1/2+x,1/2+y,-z
1/2-x,1/2+y,z
1/2+x,1/2-y,z
loop_
_atom_site_type_symbol
_atom_site_label
_atom_site_fract_x
_atom_site_fract_y
_atom_site_fract_z
Si Si1 0.250000 0.614143 0.250000
Si Si2 0.591944 0.929133 0.332477
Si Si3 0.398873 0.575427 0.500000
Si Si4 0.176355 0.830759 0.612506
Si Si5 0.632470 0.307038 0.923304
O O1 0.326430 0.575649 0.215159
O O2 0.203368 0.653579 0.189756
O O3 0.500000 0.926386 0.296946
O O4 0.596349 0.867297 0.381629
O O5 0.595977 0.000000 0.367554
O O6 0.370846 0.500000 0.500000
O O7 0.500000 0.576968 0.500000
O O8 0.366610 0.612978 0.567667
O O9 0.266729 0.818728 0.577089
O O10 0.122584 0.764478 0.608799
O O11 0.601178 0.305720 0.000000
#
# Coordination Sequence:
#
# PCOD9512081 Si02
#       5
#    16  32  16  32  32
#     4  10  23  41  68  92 123 173 216 264 333 385
#     4  10  23  40  58  89 128 164 211 264 317 383
#     4  11  24  39  58  88 126 169 214 263 316 372
#     4  10  20  40  62  91 123 159 210 267 313 381
#     4  10  19  37  65  90 119 159 204 252 321 376
#
# _framework density 19.964559999999999
#
# number of rings (size 3 to 8) (size 9 to 14) (size 15 to 20)
#    0.000    1.875    2.500    1.125    0.000   16.000 
#    0.000    5.000    0.000    0.000    0.000    0.000 
#    0.000    0.000    0.000    0.000    0.000    0.000 
#
# Total GULP energy -178311.630514 kJ/mol
# GULP energy per Si atom -5572.238454 kJ/mol
# Density = 1.991912 g / cm^3
# Si number density = 19.964560 Si / 1000 Ang^3
#
#
#
# Elastic Constant Matrix: (Units=GPa)
#
#
# Indices 1 2 3 4 5 6 
#
# 1 95.8454 54.2188 25.9283 0.0000 0.0000 0.0000
# 2 54.2188 195.4944 82.1491 0.0000 0.0000 0.0000
# 3 25.9283 82.1491 125.9233 0.0000 0.0000 0.0000
# 4 0.0000 0.0000 0.0000 12.8984 0.0000 0.0000
# 5 0.0000 0.0000 0.0000 0.0000 3.7643 0.0000
# 6 0.0000 0.0000 0.0000 0.0000 0.0000 49.5665
#
#
#
# Elastic Compliance Matrix: (Units=1/GPa)
#
#
# Indices 1 2 3 4 5 6 
#
# 1 0.012392 -0.003258 -0.000426 0.000000 0.000000 0.000000
# 2 -0.003258 0.007903 -0.004485 0.000000 0.000000 0.000000
# 3 -0.000426 -0.004485 0.010955 0.000000 0.000000 0.000000
# 4 0.000000 0.000000 0.000000 0.077529 0.000000 0.000000
# 5 0.000000 0.000000 0.000000 0.000000 0.265653 0.000000
# 6 0.000000 0.000000 0.000000 0.000000 0.000000 0.020175
#
#
# Mechanical properties :
#
#
# Convention : Reuss Voigt Hill
#
# Bulk Modulus (GPa) = 67.06054 82.42839 74.74447
# Shear Modulus (GPa) = 12.02167 30.24365 21.13266
#
# Velocity S-wave (km/s) = 2.45654 3.89635 3.25700
# Velocity P-wave (km/s) = 6.45824 7.84978 7.18776
#
# Compressibility (1/GPa) = 0.01491190
#
# Stress axis : x y z
#
# Youngs Moduli (GPa) = 80.70003 126.52707 91.28089
#
# Poissons Ratio (x) = 0.41217 0.03892
# Poissons Ratio (y) = 0.26288 0.40942
# Poissons Ratio (z) = 0.03441 0.56751
#
# Static dielectric constant tensor:
#      x y z
#    x 1.706330 0.000000 0.000000 
#    y 0.000000 1.733020 0.000000 
#    z 0.000000 0.000000 1.710850 
# 
# From -- ./inp_files/30688.got.cif
#   From: 2010.05.17/outbox.cif.g08.bks.cpg/sg69_16_cif.got.tgz:30688.got - 2010.06.03 19:29:58.
