data_PCOD9512473
_publ_section_title
;
Structure prediction by ZEFSAII (Michael W. Deem and Ramdas Pophale) SiO2 
 PCOD9512473
Probable space group: F M M M
;
_chemical_formula_sum "Si O2"
_cell_formula_units_Z 192
_cell_length_a 23.779976
_cell_length_b 17.520504
_cell_length_c 24.140899
_cell_angle_alpha 90.000000
_cell_angle_beta 90.000000
_cell_angle_gamma 90.000000
_cell_volume 10057.995711
_symmetry_space_group_name_H-M "F M M M"
_symmetry_group_IT_number 69
_symmetry_cell_setting 'orthorhombic'
loop_
_space_group_symop_operation_xyz
x,y,z
-x,-y,z
x,-y,-z
-x,y,-z
-x,-y,-z
x,y,-z
-x,y,z
x,-y,z
x,1/2+y,1/2+z
-x,1/2-y,1/2+z
x,1/2-y,1/2-z
-x,1/2+y,1/2-z
-x,1/2-y,1/2-z
x,1/2+y,1/2-z
-x,1/2+y,1/2+z
x,1/2-y,1/2+z
1/2+x,y,1/2+z
1/2-x,-y,1/2+z
1/2+x,-y,1/2-z
1/2-x,y,1/2-z
1/2-x,-y,1/2-z
1/2+x,y,1/2-z
1/2-x,y,1/2+z
1/2+x,-y,1/2+z
1/2+x,1/2+y,z
1/2-x,1/2-y,z
1/2+x,1/2-y,-z
1/2-x,1/2+y,-z
1/2-x,1/2-y,-z
1/2+x,1/2+y,-z
1/2-x,1/2+y,z
1/2+x,1/2-y,z
loop_
_atom_site_type_symbol
_atom_site_label
_atom_site_fract_x
_atom_site_fract_y
_atom_site_fract_z
Si Si1 0.068493 0.000000 0.937880
Si Si2 0.367757 0.779432 0.934251
Si Si3 0.932536 0.662329 0.752298
Si Si4 0.931931 0.353059 0.629372
Si Si5 0.750985 0.412815 0.183223
Si Si6 0.620652 0.415062 0.641157
Si Si7 0.250000 0.250000 0.375768
O O1 0.086088 0.075491 0.906817
O O2 0.000000 0.000000 0.938417
O O3 0.089257 0.000000 0.000000
O O4 0.404995 0.720747 0.898346
O O5 0.385143 0.862748 0.912612
O O6 0.303712 0.767876 0.914006
O O7 0.374027 0.768808 0.000000
O O8 0.913718 0.750000 0.750000
O O9 0.914984 0.630392 0.692659
O O10 0.909667 0.621511 0.805956
O O11 0.000000 0.661016 0.754998
O O12 0.000000 0.345372 0.628673
O O13 0.726285 0.500000 0.170473
O O14 0.750000 0.406710 0.250000
O O15 0.814291 0.417474 0.159757
O O16 0.733524 0.328264 0.158719
O O17 0.599853 0.500000 0.631566
#
# Coordination Sequence:
#
# PCOD9512473 Si02
#       7
#    16  32  32  32  32  32  16
#     4   9  18  34  54  80 116 149 185 233 284 345
#     4  11  23  40  61  82 113 156 202 249 295 352
#     4  10  20  35  55  83 117 146 181 232 287 348
#     4  10  21  37  59  86 114 152 194 237 295 352
#     4   9  19  35  56  84 115 148 188 238 294 356
#     4  10  22  37  57  85 115 150 192 236 289 350
#     4  10  22  38  58  84 116 155 199 246 304 356
#
# _framework density 19.089290999999999
#
# number of rings (size 3 to 8) (size 9 to 14) (size 15 to 20)
#    0.000    2.083    1.667    1.000    3.500    1.667 
#    1.500    0.000    0.000    1.000    0.000    2.333 
#    0.000    0.000    0.000    0.000    0.000    0.000 
#
# Total GULP energy -267495.002625 kJ/mol
# GULP energy per Si atom -5572.812555 kJ/mol
# Density = 1.904584 g / cm^3
# Si number density = 19.089291 Si / 1000 Ang^3
#
#
#
# Elastic Constant Matrix: (Units=GPa)
#
#
# Indices 1 2 3 4 5 6 
#
# 1 15.1879 16.2493 13.4090 0.0000 0.0000 0.0000
# 2 16.2493 125.9892 27.3637 0.0000 0.0000 0.0000
# 3 13.4090 27.3637 87.5154 0.0000 0.0000 0.0000
# 4 0.0000 0.0000 0.0000 24.2754 0.0000 0.0000
# 5 0.0000 0.0000 0.0000 0.0000 15.3044 0.0000
# 6 0.0000 0.0000 0.0000 0.0000 0.0000 20.1914
#
#
#
# Elastic Compliance Matrix: (Units=1/GPa)
#
#
# Indices 1 2 3 4 5 6 
#
# 1 0.084065 -0.008631 -0.010182 0.000000 0.000000 0.000000
# 2 -0.008631 0.009402 -0.001617 0.000000 0.000000 0.000000
# 3 -0.010182 -0.001617 0.013492 0.000000 0.000000 0.000000
# 4 0.000000 0.000000 0.000000 0.041194 0.000000 0.000000
# 5 0.000000 0.000000 0.000000 0.000000 0.065341 0.000000
# 6 0.000000 0.000000 0.000000 0.000000 0.000000 0.049526
#
#
# Mechanical properties :
#
#
# Convention : Reuss Voigt Hill
#
# Bulk Modulus (GPa) = 15.12877 38.08182 26.60529
# Shear Modulus (GPa) = 15.34158 23.39895 19.37027
#
# Velocity S-wave (km/s) = 2.83799 3.50489 3.18892
# Velocity P-wave (km/s) = 4.32220 6.03089 5.24657
#
# Compressibility (1/GPa) = 0.06609924
#
# Stress axis : x y z
#
# Youngs Moduli (GPa) = 11.89560 106.36521 74.11665
#
# Poissons Ratio (x) = 0.91801 0.75463
# Poissons Ratio (y) = 0.10267 0.11986
# Poissons Ratio (z) = 0.12112 0.17202
#
# Static dielectric constant tensor:
#      x y z
#    x 1.672560 0.000000 0.000000 
#    y 0.000000 1.708030 0.000000 
#    z 0.000000 0.000000 1.690620 
# 
# From -- ./inp_files/36082.got.cif
#   From: 2010.05.17/outbox.cif.g08.bks.cpg/sg69_19_cif.got.tgz:36082.got - 2010.06.03 19:29:58.
