data_PCOD9512436
_publ_section_title
;
Structure prediction by ZEFSAII (Michael W. Deem and Ramdas Pophale) SiO2 
 PCOD9512436
Probable space group: F M M M
;
_chemical_formula_sum "Si O2"
_cell_formula_units_Z 208
_cell_length_a 17.309697
_cell_length_b 23.890838
_cell_length_c 28.894545
_cell_angle_alpha 90.000000
_cell_angle_beta 90.000000
_cell_angle_gamma 90.000000
_cell_volume 11949.141644
_symmetry_space_group_name_H-M "F M M M"
_symmetry_group_IT_number 69
_symmetry_cell_setting 'orthorhombic'
loop_
_space_group_symop_operation_xyz
x,y,z
-x,-y,z
x,-y,-z
-x,y,-z
-x,-y,-z
x,y,-z
-x,y,z
x,-y,z
x,1/2+y,1/2+z
-x,1/2-y,1/2+z
x,1/2-y,1/2-z
-x,1/2+y,1/2-z
-x,1/2-y,1/2-z
x,1/2+y,1/2-z
-x,1/2+y,1/2+z
x,1/2-y,1/2+z
1/2+x,y,1/2+z
1/2-x,-y,1/2+z
1/2+x,-y,1/2-z
1/2-x,y,1/2-z
1/2-x,-y,1/2-z
1/2+x,y,1/2-z
1/2-x,y,1/2+z
1/2+x,-y,1/2+z
1/2+x,1/2+y,z
1/2-x,1/2-y,z
1/2+x,1/2-y,-z
1/2-x,1/2+y,-z
1/2-x,1/2-y,-z
1/2+x,1/2+y,-z
1/2-x,1/2+y,z
1/2+x,1/2-y,z
loop_
_atom_site_type_symbol
_atom_site_label
_atom_site_fract_x
_atom_site_fract_y
_atom_site_fract_z
Si Si1 0.813555 0.135004 0.553732
Si Si2 0.089338 0.752421 0.446355
Si Si3 0.178939 0.935181 0.823830
Si Si4 0.415345 0.932394 0.235738
Si Si5 0.861246 0.637140 0.590261
Si Si6 0.644847 0.935741 0.858371
Si Si7 0.000000 0.437662 0.554460
O O1 0.825051 0.117672 0.500000
O O2 0.851936 0.196190 0.558884
O O3 0.722320 0.135005 0.565422
O O4 0.851684 0.096496 0.593276
O O5 0.095972 0.732499 0.500000
O O6 0.109905 0.700632 0.413699
O O7 0.000000 0.770030 0.439681
O O8 0.151673 0.919430 0.772355
O O9 0.146271 0.889378 0.858991
O O10 0.269759 0.936246 0.835068
O O11 0.151828 0.000000 0.832158
O O12 0.500000 0.916838 0.254334
O O13 0.405287 0.910654 0.183510
O O14 0.413143 0.000000 0.231108
O O15 0.924389 0.597421 0.566898
O O16 0.622266 0.000000 0.867521
O O17 0.000000 0.500000 0.575907
O O18 0.000000 0.443754 0.500000
#
# Coordination Sequence:
#
# PCOD9512436 Si02
#       7
#    32  32  32  32  32  32  16
#     4  10  21  35  54  78 103 138 185 227 264 316
#     4  10  20  35  54  74  99 136 184 234 275 309
#     4   9  18  31  49  75 106 138 171 208 253 315
#     4   9  17  29  49  74 100 133 172 213 257 312
#     4  11  20  33  52  75 107 144 179 217 260 315
#     4   9  18  33  51  74 104 136 168 210 268 321
#     4  11  22  32  46  74 114 151 175 205 258 323
#
# _framework density 17.407108999999998
#
# number of rings (size 3 to 8) (size 9 to 14) (size 15 to 20)
#    0.000    2.231    0.769    2.769    1.077    4.615 
#    0.000    0.000    0.000    0.923    0.000   10.769 
#    0.000    0.000    0.000    0.000    0.000    0.000 
#
# Total GULP energy -289651.215105 kJ/mol
# GULP energy per Si atom -5570.215675 kJ/mol
# Density = 1.736749 g / cm^3
# Si number density = 17.407109 Si / 1000 Ang^3
#
#
#
# Elastic Constant Matrix: (Units=GPa)
#
#
# Indices 1 2 3 4 5 6 
#
# 1 50.2484 31.0974 29.0102 0.0000 0.0000 0.0000
# 2 31.0974 70.9557 44.2372 0.0000 0.0000 0.0000
# 3 29.0102 44.2372 109.8963 0.0000 0.0000 0.0000
# 4 0.0000 0.0000 0.0000 13.4586 0.0000 0.0000
# 5 0.0000 0.0000 0.0000 0.0000 23.5676 0.0000
# 6 0.0000 0.0000 0.0000 0.0000 0.0000 58.6682
#
#
#
# Elastic Compliance Matrix: (Units=1/GPa)
#
#
# Indices 1 2 3 4 5 6 
#
# 1 0.028173 -0.010294 -0.003293 0.000000 0.000000 0.000000
# 2 -0.010294 0.022576 -0.006370 0.000000 0.000000 0.000000
# 3 -0.003293 -0.006370 0.012533 0.000000 0.000000 0.000000
# 4 0.000000 0.000000 0.000000 0.074302 0.000000 0.000000
# 5 0.000000 0.000000 0.000000 0.000000 0.042431 0.000000
# 6 0.000000 0.000000 0.000000 0.000000 0.000000 0.017045
#
#
# Mechanical properties :
#
#
# Convention : Reuss Voigt Hill
#
# Bulk Modulus (GPa) = 42.79517 48.86556 45.83037
# Shear Modulus (GPa) = 20.42771 27.58926 24.00849
#
# Velocity S-wave (km/s) = 3.42939 3.98545 3.71783
# Velocity P-wave (km/s) = 6.34974 7.02222 6.69443
#
# Compressibility (1/GPa) = 0.02336713
#
# Stress axis : x y z
#
# Youngs Moduli (GPa) = 35.49465 44.29389 79.78807
#
# Poissons Ratio (x) = 0.45596 0.26277
# Poissons Ratio (y) = 0.36538 0.50828
# Poissons Ratio (z) = 0.11690 0.28217
#
# Static dielectric constant tensor:
#      x y z
#    x 1.640410 0.000000 0.000000 
#    y 0.000000 1.569880 0.000000 
#    z 0.000000 0.000000 1.600970 
# 
# From -- ./inp_files/27906.got.cif
#   From: 2010.05.17/outbox.cif.g08.bks.cpg/sg69_14_cif.got.tgz:27906.got - 2010.06.03 19:29:58.
