data_PCOD9512369
_publ_section_title
;
Structure prediction by ZEFSAII (Michael W. Deem and Ramdas Pophale) SiO2 
 PCOD9512369
Probable space group: F M M M
;
_chemical_formula_sum "Si O2"
_cell_formula_units_Z 160
_cell_length_a 17.444448
_cell_length_b 22.644935
_cell_length_c 23.121683
_cell_angle_alpha 90.000000
_cell_angle_beta 90.000000
_cell_angle_gamma 90.000000
_cell_volume 9133.721234
_symmetry_space_group_name_H-M "F M M M"
_symmetry_group_IT_number 69
_symmetry_cell_setting 'orthorhombic'
loop_
_space_group_symop_operation_xyz
x,y,z
-x,-y,z
x,-y,-z
-x,y,-z
-x,-y,-z
x,y,-z
-x,y,z
x,-y,z
x,1/2+y,1/2+z
-x,1/2-y,1/2+z
x,1/2-y,1/2-z
-x,1/2+y,1/2-z
-x,1/2-y,1/2-z
x,1/2+y,1/2-z
-x,1/2+y,1/2+z
x,1/2-y,1/2+z
1/2+x,y,1/2+z
1/2-x,-y,1/2+z
1/2+x,-y,1/2-z
1/2-x,y,1/2-z
1/2-x,-y,1/2-z
1/2+x,y,1/2-z
1/2-x,y,1/2+z
1/2+x,-y,1/2+z
1/2+x,1/2+y,z
1/2-x,1/2-y,z
1/2+x,1/2-y,-z
1/2-x,1/2+y,-z
1/2-x,1/2-y,-z
1/2+x,1/2+y,-z
1/2-x,1/2+y,z
1/2+x,1/2-y,z
loop_
_atom_site_type_symbol
_atom_site_label
_atom_site_fract_x
_atom_site_fract_y
_atom_site_fract_z
Si Si1 0.689340 0.338966 0.797885
Si Si2 0.364908 0.277417 0.000000
Si Si3 0.326508 0.123832 0.876084
Si Si4 0.588481 0.750225 0.372402
Si Si5 0.716459 0.648147 0.500000
Si Si6 0.590670 0.567793 0.274778
O O1 0.750000 0.316413 0.750000
O O2 0.744259 0.368017 0.845761
O O3 0.637584 0.290341 0.828926
O O4 0.636077 0.386911 0.766142
O O5 0.407140 0.276103 0.061964
O O6 0.322797 0.213344 0.000000
O O7 0.305244 0.331862 0.000000
O O8 0.372202 0.186001 0.872053
O O9 0.375375 0.077985 0.838930
O O10 0.310214 0.114101 0.943172
O O11 0.500000 0.746372 0.354789
O O12 0.500000 0.579858 0.273961
O O13 0.603375 0.500000 0.257112
#
# Coordination Sequence:
#
# PCOD9512369 Si02
#       6
#    32  16  32  32  16  32
#     4  10  21  34  53  77 104 141 180 217 259 312
#     4   9  17  30  52  76 108 144 171 205 254 312
#     4  10  20  34  55  78 108 143 176 216 260 316
#     4  11  20  32  51  82 115 141 174 212 264 317
#     4   9  16  32  53  77 106 138 174 208 255 307
#     4  10  22  40  57  75 101 135 178 228 276 316
#
# _framework density 17.517503999999999
#
# number of rings (size 3 to 8) (size 9 to 14) (size 15 to 20)
#    0.000    2.000    2.000    2.100    0.000    9.200 
#    0.000    7.000    0.000    1.200    0.000    0.700 
#    0.000    4.800    0.000    0.000    0.000    0.000 
#
# Total GULP energy -223103.110951 kJ/mol
# GULP energy per Si atom -5577.577774 kJ/mol
# Density = 1.747763 g / cm^3
# Si number density = 17.517504 Si / 1000 Ang^3
#
#
#
# Elastic Constant Matrix: (Units=GPa)
#
#
# Indices 1 2 3 4 5 6 
#
# 1 99.3039 26.4709 30.5183 0.0000 0.0000 0.0000
# 2 26.4709 45.0396 17.8598 0.0000 0.0000 0.0000
# 3 30.5183 17.8598 105.7198 0.0000 0.0000 0.0000
# 4 0.0000 0.0000 0.0000 7.1276 0.0000 0.0000
# 5 0.0000 0.0000 0.0000 0.0000 20.1724 0.0000
# 6 0.0000 0.0000 0.0000 0.0000 0.0000 15.7037
#
#
#
# Elastic Compliance Matrix: (Units=1/GPa)
#
#
# Indices 1 2 3 4 5 6 
#
# 1 0.012550 -0.006366 -0.002547 0.000000 0.000000 0.000000
# 2 -0.006366 0.027026 -0.002728 0.000000 0.000000 0.000000
# 3 -0.002547 -0.002728 0.010655 0.000000 0.000000 0.000000
# 4 0.000000 0.000000 0.000000 0.140301 0.000000 0.000000
# 5 0.000000 0.000000 0.000000 0.000000 0.049573 0.000000
# 6 0.000000 0.000000 0.000000 0.000000 0.000000 0.063679
#
#
# Mechanical properties :
#
#
# Convention : Reuss Voigt Hill
#
# Bulk Modulus (GPa) = 37.10779 44.41793 40.76286
# Shear Modulus (GPa) = 14.87883 20.28170 17.58026
#
# Velocity S-wave (km/s) = 2.91756 3.40633 3.17137
# Velocity P-wave (km/s) = 5.70778 6.39392 6.06057
#
# Compressibility (1/GPa) = 0.02694852
#
# Stress axis : x y z
#
# Youngs Moduli (GPa) = 79.68223 37.00180 93.85112
#
# Poissons Ratio (x) = 0.23554 0.23907
# Poissons Ratio (y) = 0.50724 0.25602
# Poissons Ratio (z) = 0.20298 0.10094
#
# Static dielectric constant tensor:
#      x y z
#    x 1.590780 0.000000 0.000000 
#    y 0.000000 1.563860 0.000000 
#    z 0.000000 0.000000 1.623060 
# 
# From -- ./inp_files/24916.got.cif
#   From: 2010.05.17/outbox.cif.g08.bks.cpg/sg69_13_cif.got.tgz:24916.got - 2010.06.03 19:29:58.
