data_PCOD9512764
_publ_section_title
;
Structure prediction by ZEFSAII (Michael W. Deem and Ramdas Pophale) SiO2 
 PCOD9512764
Probable space group: F M M M
;
_chemical_formula_sum "Si O2"
_cell_formula_units_Z 224
_cell_length_a 31.715670
_cell_length_b 19.364024
_cell_length_c 18.235965
_cell_angle_alpha 90.000000
_cell_angle_beta 90.000000
_cell_angle_gamma 90.000000
_cell_volume 11199.490163
_symmetry_space_group_name_H-M "F M M M"
_symmetry_group_IT_number 69
_symmetry_cell_setting 'orthorhombic'
loop_
_space_group_symop_operation_xyz
x,y,z
-x,-y,z
x,-y,-z
-x,y,-z
-x,-y,-z
x,y,-z
-x,y,z
x,-y,z
x,1/2+y,1/2+z
-x,1/2-y,1/2+z
x,1/2-y,1/2-z
-x,1/2+y,1/2-z
-x,1/2-y,1/2-z
x,1/2+y,1/2-z
-x,1/2+y,1/2+z
x,1/2-y,1/2+z
1/2+x,y,1/2+z
1/2-x,-y,1/2+z
1/2+x,-y,1/2-z
1/2-x,y,1/2-z
1/2-x,-y,1/2-z
1/2+x,y,1/2-z
1/2-x,y,1/2+z
1/2+x,-y,1/2+z
1/2+x,1/2+y,z
1/2-x,1/2-y,z
1/2+x,1/2-y,-z
1/2-x,1/2+y,-z
1/2-x,1/2-y,-z
1/2+x,1/2+y,-z
1/2-x,1/2+y,z
1/2+x,1/2-y,z
loop_
_atom_site_type_symbol
_atom_site_label
_atom_site_fract_x
_atom_site_fract_y
_atom_site_fract_z
Si Si1 0.952618 0.278584 0.414705
Si Si2 0.797969 0.262631 0.585513
Si Si3 0.627463 0.647503 0.153172
Si Si4 0.813012 0.397742 0.084178
Si Si5 0.548794 0.612182 0.418416
Si Si6 0.354462 0.500000 0.088245
Si Si7 0.884044 0.424851 0.800477
Si Si8 0.259358 0.500000 0.912251
O O1 0.949371 0.300129 0.500000
O O2 0.913585 0.310083 0.371605
O O3 0.949662 0.195504 0.414427
O O4 0.000000 0.297230 0.388200
O O5 0.795252 0.287227 0.500000
O O6 0.750000 0.250000 0.612473
O O7 0.829835 0.312411 0.628756
O O8 0.815419 0.184829 0.585363
O O9 0.626442 0.572612 0.114192
O O10 0.624267 0.632685 0.239575
O O11 0.846584 0.424042 0.141250
O O12 0.768099 0.431903 0.105233
O O13 0.821061 0.419020 0.000000
O O14 0.565077 0.592241 0.500000
O O15 0.500000 0.591299 0.414657
O O16 0.574876 0.585186 0.350181
O O17 0.306150 0.500000 0.118458
O O18 0.354584 0.500000 0.000000
O O19 0.885713 0.500000 0.763902
O O20 0.264139 0.500000 0.000000
#
# Coordination Sequence:
#
# PCOD9512764 Si02
#       8
#    32  32  32  32  32  16  32  16
#     4   9  19  39  67  96 122 153 201 259 318 380
#     4  10  21  39  65  94 120 152 208 274 324 370
#     4  12  24  40  58  89 129 169 208 258 318 379
#     4  10  20  37  62  89 115 153 202 254 315 375
#     4   9  20  40  67  96 122 156 206 264 326 388
#     4  11  22  39  62  83 112 163 218 257 305 366
#     4  12  25  40  55  84 128 170 208 250 308 378
#     4   9  18  35  61  88 113 148 199 255 306 373
#
# _framework density 20.000910999999999
#
# number of rings (size 3 to 8) (size 9 to 14) (size 15 to 20)
#    0.000    1.714    1.429    4.286    0.000    8.571 
#    0.000    6.786    0.000    1.286    0.000    0.000 
#    0.000    0.000    0.000    0.000    0.000    0.000 
#
# Total GULP energy -312631.215927 kJ/mol
# GULP energy per Si atom -5582.700284 kJ/mol
# Density = 1.995539 g / cm^3
# Si number density = 20.000911 Si / 1000 Ang^3
#
#
#
# Elastic Constant Matrix: (Units=GPa)
#
#
# Indices 1 2 3 4 5 6 
#
# 1 99.9458 23.8987 42.7653 0.0000 0.0000 0.0000
# 2 23.8987 78.3751 26.7813 0.0000 0.0000 0.0000
# 3 42.7653 26.7813 82.3097 0.0000 0.0000 0.0000
# 4 0.0000 0.0000 0.0000 41.2604 0.0000 0.0000
# 5 0.0000 0.0000 0.0000 0.0000 -27.8218 0.0000
# 6 0.0000 0.0000 0.0000 0.0000 0.0000 -5.0956
#
#
#
# Elastic Compliance Matrix: (Units=1/GPa)
#
#
# Indices 1 2 3 4 5 6 
#
# 1 0.013107 -0.001879 -0.006199 0.000000 0.000000 0.000000
# 2 -0.001879 0.014624 -0.003782 0.000000 0.000000 0.000000
# 3 -0.006199 -0.003782 0.016601 0.000000 0.000000 0.000000
# 4 0.000000 0.000000 0.000000 0.024236 0.000000 0.000000
# 5 0.000000 0.000000 0.000000 0.000000 -0.035943 0.000000
# 6 0.000000 0.000000 0.000000 0.000000 0.000000 -0.196248
#
#
# Mechanical properties :
#
#
# Convention : Reuss Voigt Hill
#
# Bulk Modulus (GPa) = 48.51368 49.72455 49.11912
# Shear Modulus (GPa) = -37.58467 12.81431 -12.38518
#
# Velocity S-wave (km/s) = -4.33962 2.53392 -2.49113
# Velocity P-wave (km/s) = 0.89516 5.78586 4.04196
#
# Compressibility (1/GPa) = 0.02061274
#
# Stress axis : x y z
#
# Youngs Moduli (GPa) = 76.29545 68.37873 60.23900
#
# Poissons Ratio (x) = 0.12845 0.37340
# Poissons Ratio (y) = 0.14332 0.22785
# Poissons Ratio (z) = 0.47293 0.25863
#
# Static dielectric constant tensor:
#      x y z
#    x 1.717350 0.000000 0.000000 
#    y 0.000000 1.731350 0.000000 
#    z 0.000000 0.000000 1.693050 
# 
# From -- ./inp_files/27968.got.cif
#   From: 2010.05.17/outbox.cif.g08.bks.cpg/sg69_14_cif.got.tgz:27968.got - 2010.06.03 19:29:58.
