data_PCOD9512794
_publ_section_title
;
Structure prediction by ZEFSAII (Michael W. Deem and Ramdas Pophale) SiO2 
 PCOD9512794
Probable space group: F M M M
;
_chemical_formula_sum "Si O2"
_cell_formula_units_Z 168
_cell_length_a 15.225032
_cell_length_b 25.799671
_cell_length_c 19.256021
_cell_angle_alpha 90.000000
_cell_angle_beta 90.000000
_cell_angle_gamma 90.000000
_cell_volume 7563.780773
_symmetry_space_group_name_H-M "F M M M"
_symmetry_group_IT_number 69
_symmetry_cell_setting 'orthorhombic'
loop_
_space_group_symop_operation_xyz
x,y,z
-x,-y,z
x,-y,-z
-x,y,-z
-x,-y,-z
x,y,-z
-x,y,z
x,-y,z
x,1/2+y,1/2+z
-x,1/2-y,1/2+z
x,1/2-y,1/2-z
-x,1/2+y,1/2-z
-x,1/2-y,1/2-z
x,1/2+y,1/2-z
-x,1/2+y,1/2+z
x,1/2-y,1/2+z
1/2+x,y,1/2+z
1/2-x,-y,1/2+z
1/2+x,-y,1/2-z
1/2-x,y,1/2-z
1/2-x,-y,1/2-z
1/2+x,y,1/2-z
1/2-x,y,1/2+z
1/2+x,-y,1/2+z
1/2+x,1/2+y,z
1/2-x,1/2-y,z
1/2+x,1/2-y,-z
1/2-x,1/2+y,-z
1/2-x,1/2-y,-z
1/2+x,1/2+y,-z
1/2-x,1/2+y,z
1/2+x,1/2-y,z
loop_
_atom_site_type_symbol
_atom_site_label
_atom_site_fract_x
_atom_site_fract_y
_atom_site_fract_z
Si Si1 0.832994 0.789382 0.076212
Si Si2 0.906063 0.789821 0.669377
Si Si3 0.398785 0.439766 0.212003
Si Si4 0.400194 0.901426 0.134547
Si Si5 0.750000 0.250000 0.250000
Si Si6 0.715766 0.409694 0.079639
O O1 0.750000 0.750000 0.078533
O O2 0.899338 0.765211 0.130980
O O3 0.800311 0.847600 0.086455
O O4 0.872775 0.786268 0.000000
O O5 0.901944 0.839675 0.620061
O O6 0.818149 0.788410 0.713586
O O7 0.000000 0.795497 0.706110
O O8 0.500000 0.428217 0.193055
O O9 0.392362 0.500000 0.232685
O O10 0.379694 0.408423 0.282940
O O11 0.339450 0.431837 0.144174
O O12 0.500000 0.921485 0.123007
O O13 0.318180 0.923097 0.092216
O O14 0.690818 0.424108 0.000000
#
# Coordination Sequence:
#
# PCOD9512794 Si02
#       6
#    32  32  32  32   8  32
#     4  10  20  38  59  84 125 173 207 246 303 368
#     4  11  23  36  57  86 117 163 209 252 306 362
#     4  10  24  46  69  92 123 164 211 270 333 388
#     4  10  22  39  62  93 125 164 212 258 311 381
#     4  12  22  36  50  78 122 160 190 254 300 354
#     4  11  23  39  65  96 128 169 215 262 317 378
#
# _framework density 22.211113999999998
#
# number of rings (size 3 to 8) (size 9 to 14) (size 15 to 20)
#    0.000    1.524    2.857    0.857    5.333    3.810 
#    0.000    4.762    0.000    0.000    0.000    4.000 
#    0.000    0.000    0.000    0.000    0.000    0.000 
#
# Total GULP energy -234170.792341 kJ/mol
# GULP energy per Si atom -5575.495056 kJ/mol
# Density = 2.216056 g / cm^3
# Si number density = 22.211114 Si / 1000 Ang^3
#
#
#
# Elastic Constant Matrix: (Units=GPa)
#
#
# Indices 1 2 3 4 5 6 
#
# 1 121.1395 6.4096 36.2694 0.0000 0.0000 0.0000
# 2 6.4096 40.5190 9.4870 0.0000 0.0000 0.0000
# 3 36.2694 9.4870 69.5282 0.0000 0.0000 0.0000
# 4 0.0000 0.0000 0.0000 16.5103 0.0000 0.0000
# 5 0.0000 0.0000 0.0000 0.0000 -7.3882 0.0000
# 6 0.0000 0.0000 0.0000 0.0000 0.0000 22.9114
#
#
#
# Elastic Compliance Matrix: (Units=1/GPa)
#
#
# Indices 1 2 3 4 5 6 
#
# 1 0.009788 -0.000365 -0.005056 0.000000 0.000000 0.000000
# 2 -0.000365 0.025508 -0.003290 0.000000 0.000000 0.000000
# 3 -0.005056 -0.003290 0.017469 0.000000 0.000000 0.000000
# 4 0.000000 0.000000 0.000000 0.060568 0.000000 0.000000
# 5 0.000000 0.000000 0.000000 0.000000 -0.135351 0.000000
# 6 0.000000 0.000000 0.000000 0.000000 0.000000 0.043646
#
#
# Mechanical properties :
#
#
# Convention : Reuss Voigt Hill
#
# Bulk Modulus (GPa) = 28.29419 37.27985 32.78702
# Shear Modulus (GPa) = 98.36370 18.34142 58.35256
#
# Velocity S-wave (km/s) = 6.66198 2.87675 5.13116
# Velocity P-wave (km/s) = 8.48188 5.27779 7.06390
#
# Compressibility (1/GPa) = 0.03534295
#
# Stress axis : x y z
#
# Youngs Moduli (GPa) = 102.16520 39.20364 57.24371
#
# Poissons Ratio (x) = 0.01429 0.28944
# Poissons Ratio (y) = 0.03724 0.18835
# Poissons Ratio (z) = 0.51657 0.12899
#
# Static dielectric constant tensor:
#      x y z
#    x 1.832870 0.000000 0.000000 
#    y 0.000000 1.817930 0.000000 
#    z 0.000000 0.000000 1.901630 
# 
# From -- ./inp_files/35934.got.cif
#   From: 2010.05.17/outbox.cif.g08.bks.cpg/sg69_18_cif.got.tgz:35934.got - 2010.06.03 19:29:58.
