data_PCOD9512070
_publ_section_title
;
Structure prediction by ZEFSAII (Michael W. Deem and Ramdas Pophale) SiO2 
 PCOD9512070
Probable space group: F M M M
;
_chemical_formula_sum "Si O2"
_cell_formula_units_Z 176
_cell_length_a 17.481165
_cell_length_b 17.652595
_cell_length_c 25.758387
_cell_angle_alpha 90.000000
_cell_angle_beta 90.000000
_cell_angle_gamma 90.000000
_cell_volume 7948.727218
_symmetry_space_group_name_H-M "F M M M"
_symmetry_group_IT_number 69
_symmetry_cell_setting 'orthorhombic'
loop_
_space_group_symop_operation_xyz
x,y,z
-x,-y,z
x,-y,-z
-x,y,-z
-x,-y,-z
x,y,-z
-x,y,z
x,-y,z
x,1/2+y,1/2+z
-x,1/2-y,1/2+z
x,1/2-y,1/2-z
-x,1/2+y,1/2-z
-x,1/2-y,1/2-z
x,1/2+y,1/2-z
-x,1/2+y,1/2+z
x,1/2-y,1/2+z
1/2+x,y,1/2+z
1/2-x,-y,1/2+z
1/2+x,-y,1/2-z
1/2-x,y,1/2-z
1/2-x,-y,1/2-z
1/2+x,y,1/2-z
1/2-x,y,1/2+z
1/2+x,-y,1/2+z
1/2+x,1/2+y,z
1/2-x,1/2-y,z
1/2+x,1/2-y,-z
1/2-x,1/2+y,-z
1/2-x,1/2-y,-z
1/2+x,1/2+y,-z
1/2-x,1/2+y,z
1/2+x,1/2-y,z
loop_
_atom_site_type_symbol
_atom_site_label
_atom_site_fract_x
_atom_site_fract_y
_atom_site_fract_z
Si Si1 0.834904 0.339771 0.737073
Si Si2 0.592715 0.667992 0.560850
Si Si3 0.322501 0.206143 0.374327
Si Si4 0.000000 0.159331 0.240613
Si Si5 0.151950 0.916313 0.939463
Si Si6 0.411252 0.000000 0.063062
Si Si7 0.000000 0.087422 0.129113
O O1 0.834189 0.250000 0.750000
O O2 0.750000 0.371035 0.750000
O O3 0.845244 0.343564 0.675109
O O4 0.916237 0.369288 0.760566
O O5 0.614806 0.682159 0.500000
O O6 0.500000 0.667325 0.561472
O O7 0.620990 0.733008 0.599972
O O8 0.619977 0.583194 0.577176
O O9 0.250000 0.250000 0.353574
O O10 0.295510 0.150916 0.420167
O O11 0.000000 0.250000 0.250000
O O12 0.000000 0.140480 0.179175
O O13 0.073029 0.903437 0.908481
O O14 0.181603 0.000000 0.927424
O O15 0.136948 0.911971 0.000000
O O16 0.500000 0.000000 0.079878
O O17 0.410602 0.000000 0.000000
O O18 0.000000 0.000000 0.147792
#
# Coordination Sequence:
#
# PCOD9512070 Si02
#       7
#    32  32  32  16  32  16  16
#     4  10  20  39  60  90 118 153 203 262 326 383
#     4   9  19  34  57  89 122 158 201 249 299 368
#     4  12  23  37  61  88 122 159 208 262 312 374
#     4  10  20  35  67  98 116 161 218 260 325 382
#     4  10  22  39  59  89 133 174 209 256 315 384
#     4   7  12  30  54  80 117 158 195 237 296 357
#     4  10  19  36  64  99 129 166 214 257 316 395
#
# _framework density 22.141909999999999
#
# number of rings (size 3 to 8) (size 9 to 14) (size 15 to 20)
#    0.000    2.091    3.636    1.909    2.545    2.545 
#    1.636    0.000    0.000    2.182   11.818    0.636 
#    0.000    0.000    0.000    0.000    0.000    0.000 
#
# Total GULP energy -245036.975544 kJ/mol
# GULP energy per Si atom -5569.022171 kJ/mol
# Density = 2.209151 g / cm^3
# Si number density = 22.141910 Si / 1000 Ang^3
#
#
#
# Elastic Constant Matrix: (Units=GPa)
#
#
# Indices 1 2 3 4 5 6 
#
# 1 126.2051 8.6012 10.3755 0.0000 0.0000 0.0000
# 2 8.6012 78.6527 37.0186 0.0000 0.0000 0.0000
# 3 10.3755 37.0186 64.1477 0.0000 0.0000 0.0000
# 4 0.0000 0.0000 0.0000 22.5500 0.0000 0.0000
# 5 0.0000 0.0000 0.0000 0.0000 -71.7781 0.0000
# 6 0.0000 0.0000 0.0000 0.0000 0.0000 14.6579
#
#
#
# Elastic Compliance Matrix: (Units=1/GPa)
#
#
# Indices 1 2 3 4 5 6 
#
# 1 0.008038 -0.000367 -0.001088 0.000000 0.000000 0.000000
# 2 -0.000367 0.017472 -0.010023 0.000000 0.000000 0.000000
# 3 -0.001088 -0.010023 0.021549 0.000000 0.000000 0.000000
# 4 0.000000 0.000000 0.000000 0.044346 0.000000 0.000000
# 5 0.000000 0.000000 0.000000 0.000000 -0.013932 0.000000
# 6 0.000000 0.000000 0.000000 0.000000 0.000000 0.068223
#
#
# Mechanical properties :
#
#
# Convention : Reuss Voigt Hill
#
# Bulk Modulus (GPa) = 41.49010 42.33291 41.91150
# Shear Modulus (GPa) = 28.29860 7.28664 17.79262
#
# Velocity S-wave (km/s) = 3.57887 1.81605 2.83781
# Velocity P-wave (km/s) = 5.98805 4.85364 5.45043
#
# Compressibility (1/GPa) = 0.02410214
#
# Stress axis : x y z
#
# Youngs Moduli (GPa) = 124.40773 57.23498 46.40498
#
# Poissons Ratio (x) = 0.02099 0.05051
# Poissons Ratio (y) = 0.04562 0.46514
# Poissons Ratio (z) = 0.13542 0.57369
#
# Static dielectric constant tensor:
#      x y z
#    x 1.948880 0.000000 0.000000 
#    y 0.000000 1.981240 0.000000 
#    z 0.000000 0.000000 1.852720 
# 
# From -- ./inp_files/41892.got.cif
#   From: 2010.05.17/outbox.cif.g08.bks.cpg/sg69_21_cif.got.tgz:41892.got - 2010.06.03 19:29:58.
