data_PCOD9512548
_publ_section_title
;
Structure prediction by ZEFSAII (Michael W. Deem and Ramdas Pophale) SiO2 
 PCOD9512548
Probable space group: F M M M
;
_chemical_formula_sum "Si O2"
_cell_formula_units_Z 160
_cell_length_a 19.708169
_cell_length_b 16.605041
_cell_length_c 22.181782
_cell_angle_alpha 90.000000
_cell_angle_beta 90.000000
_cell_angle_gamma 90.000000
_cell_volume 7259.098054
_symmetry_space_group_name_H-M "F M M M"
_symmetry_group_IT_number 69
_symmetry_cell_setting 'orthorhombic'
loop_
_space_group_symop_operation_xyz
x,y,z
-x,-y,z
x,-y,-z
-x,y,-z
-x,-y,-z
x,y,-z
-x,y,z
x,-y,z
x,1/2+y,1/2+z
-x,1/2-y,1/2+z
x,1/2-y,1/2-z
-x,1/2+y,1/2-z
-x,1/2-y,1/2-z
x,1/2+y,1/2-z
-x,1/2+y,1/2+z
x,1/2-y,1/2+z
1/2+x,y,1/2+z
1/2-x,-y,1/2+z
1/2+x,-y,1/2-z
1/2-x,y,1/2-z
1/2-x,-y,1/2-z
1/2+x,y,1/2-z
1/2-x,y,1/2+z
1/2+x,-y,1/2+z
1/2+x,1/2+y,z
1/2-x,1/2-y,z
1/2+x,1/2-y,-z
1/2-x,1/2+y,-z
1/2-x,1/2-y,-z
1/2+x,1/2+y,-z
1/2-x,1/2+y,z
1/2+x,1/2-y,z
loop_
_atom_site_type_symbol
_atom_site_label
_atom_site_fract_x
_atom_site_fract_y
_atom_site_fract_z
Si Si1 0.783787 0.903604 0.934280
Si Si2 0.924849 0.346190 0.253607
Si Si3 0.319280 0.909225 0.159202
Si Si4 0.078570 0.342985 0.929512
Si Si5 0.076728 0.157597 0.893934
O O1 0.745307 0.870045 0.874888
O O2 0.862985 0.885047 0.928582
O O3 0.773106 0.000000 0.933642
O O4 0.759687 0.873027 0.000000
O O5 0.927391 0.250000 0.250000
O O6 0.860070 0.372828 0.215212
O O7 0.919052 0.367234 0.323916
O O8 0.000000 0.375695 0.231791
O O9 0.374100 0.904308 0.105332
O O10 0.301387 0.000000 0.176230
O O11 0.087012 0.254026 0.900627
O O12 0.000000 0.365187 0.923243
O O13 0.094398 0.337577 0.000000
O O14 0.000000 0.141027 0.915549
#
# Coordination Sequence:
#
# PCOD9512548 Si02
#       5
#    32  32  32  32  32
#     4  10  23  42  61  86 125 168 206 253 314 371
#     4  10  20  39  64  89 124 165 202 249 306 361
#     4  11  23  39  60  89 126 164 203 248 303 370
#     4  10  20  35  58  88 121 160 204 252 307 362
#     4  10  21  39  64  91 120 157 211 266 310 365
#
# _framework density 22.041305000000001
#
# number of rings (size 3 to 8) (size 9 to 14) (size 15 to 20)
#    0.000    1.800    2.000    1.800    0.000    6.800 
#    0.000    9.000    0.000    0.000    0.000    0.000 
#    0.000    0.000    0.000    0.000    0.000    0.000 
#
# Total GULP energy -223268.331836 kJ/mol
# GULP energy per Si atom -5581.708296 kJ/mol
# Density = 2.199114 g / cm^3
# Si number density = 22.041305 Si / 1000 Ang^3
#
#
#
# Elastic Constant Matrix: (Units=GPa)
#
#
# Indices 1 2 3 4 5 6 
#
# 1 90.8228 10.8862 22.0406 0.0000 0.0000 0.0000
# 2 10.8862 8.9024 -0.2402 0.0000 0.0000 0.0000
# 3 22.0406 -0.2402 78.1733 0.0000 0.0000 0.0000
# 4 0.0000 0.0000 0.0000 23.3733 0.0000 0.0000
# 5 0.0000 0.0000 0.0000 0.0000 38.2197 0.0000
# 6 0.0000 0.0000 0.0000 0.0000 0.0000 27.4639
#
#
#
# Elastic Compliance Matrix: (Units=1/GPa)
#
#
# Indices 1 2 3 4 5 6 
#
# 1 0.014059 -0.017300 -0.004017 0.000000 0.000000 0.000000
# 2 -0.017300 0.133628 0.005288 0.000000 0.000000 0.000000
# 3 -0.004017 0.005288 0.013941 0.000000 0.000000 0.000000
# 4 0.000000 0.000000 0.000000 0.042784 0.000000 0.000000
# 5 0.000000 0.000000 0.000000 0.000000 0.026165 0.000000
# 6 0.000000 0.000000 0.000000 0.000000 0.000000 0.036411
#
#
# Mechanical properties :
#
#
# Convention : Reuss Voigt Hill
#
# Bulk Modulus (GPa) = 7.71786 27.03019 17.37402
# Shear Modulus (GPa) = 14.60984 27.49217 21.05100
#
# Velocity S-wave (km/s) = 2.57736 3.53555 3.09377
# Velocity P-wave (km/s) = 3.51656 5.38116 4.54549
#
# Compressibility (1/GPa) = 0.12956965
#
# Stress axis : x y z
#
# Youngs Moduli (GPa) = 71.12905 7.48348 71.73125
#
# Poissons Ratio (x) = 0.12947 0.28815
# Poissons Ratio (y) = 1.23056 -0.37934
# Poissons Ratio (z) = 0.28573 -0.03958
#
# Static dielectric constant tensor:
#      x y z
#    x 1.826800 0.000000 0.000000 
#    y 0.000000 1.789770 0.000000 
#    z 0.000000 0.000000 1.845900 
# 
# From -- ./inp_files/24558.got.cif
#   From: 2010.05.17/outbox.cif.g08.bks.cpg/sg69_13_cif.got.tgz:24558.got - 2010.06.03 19:29:58.
