data_PCOD9512600
_publ_section_title
;
Structure prediction by ZEFSAII (Michael W. Deem and Ramdas Pophale) SiO2 
 PCOD9512600
Probable space group: F M M M
;
_chemical_formula_sum "Si O2"
_cell_formula_units_Z 192
_cell_length_a 18.517745
_cell_length_b 31.248489
_cell_length_c 14.350863
_cell_angle_alpha 90.000000
_cell_angle_beta 90.000000
_cell_angle_gamma 90.000000
_cell_volume 8304.149132
_symmetry_space_group_name_H-M "F M M M"
_symmetry_group_IT_number 69
_symmetry_cell_setting 'orthorhombic'
loop_
_space_group_symop_operation_xyz
x,y,z
-x,-y,z
x,-y,-z
-x,y,-z
-x,-y,-z
x,y,-z
-x,y,z
x,-y,z
x,1/2+y,1/2+z
-x,1/2-y,1/2+z
x,1/2-y,1/2-z
-x,1/2+y,1/2-z
-x,1/2-y,1/2-z
x,1/2+y,1/2-z
-x,1/2+y,1/2+z
x,1/2-y,1/2+z
1/2+x,y,1/2+z
1/2-x,-y,1/2+z
1/2+x,-y,1/2-z
1/2-x,y,1/2-z
1/2-x,-y,1/2-z
1/2+x,y,1/2-z
1/2-x,y,1/2+z
1/2+x,-y,1/2+z
1/2+x,1/2+y,z
1/2-x,1/2-y,z
1/2+x,1/2-y,-z
1/2-x,1/2+y,-z
1/2-x,1/2-y,-z
1/2+x,1/2+y,-z
1/2-x,1/2+y,z
1/2+x,1/2-y,z
loop_
_atom_site_type_symbol
_atom_site_label
_atom_site_fract_x
_atom_site_fract_y
_atom_site_fract_z
Si Si1 0.302002 0.047985 0.875436
Si Si2 0.219605 0.795892 0.113608
Si Si3 0.346876 0.644478 0.603184
Si Si4 0.500000 0.622630 0.616515
Si Si5 0.084229 0.656355 0.613347
Si Si6 0.000000 0.454859 0.265515
Si Si7 0.851784 0.566039 0.665903
O O1 0.333923 0.093459 0.907082
O O2 0.216213 0.051461 0.894231
O O3 0.323124 0.052678 0.767367
O O4 0.326081 0.000000 0.902710
O O5 0.250000 0.750000 0.140947
O O6 0.277727 0.831967 0.145696
O O7 0.136997 0.804916 0.142018
O O8 0.217647 0.797685 0.000000
O O9 0.353342 0.663501 0.500000
O O10 0.426964 0.647473 0.643637
O O11 0.500000 0.615439 0.500000
O O12 0.500000 0.580842 0.683943
O O13 0.082831 0.653541 0.500000
O O14 0.129696 0.615517 0.649475
O O15 0.000000 0.656647 0.642891
O O16 0.068603 0.452793 0.333192
O O17 0.000000 0.500000 0.214539
#
# Coordination Sequence:
#
# PCOD9512600 Si02
#       7
#    32  32  32  16  32  16  32
#     4  11  22  36  55  82 111 149 198 239 279 335
#     4   9  18  36  61  86 113 147 187 232 284 342
#     4  10  20  36  57  82 114 147 184 232 284 340
#     4  10  22  37  54  82 114 147 187 236 293 339
#     4  10  20  36  59  87 117 149 187 234 288 343
#     4  12  22  35  55  81 109 150 196 235 281 334
#     4  11  21  35  55  80 111 148 193 235 277 337
#
# _framework density 23.120971000000001
#
# number of rings (size 3 to 8) (size 9 to 14) (size 15 to 20)
#    0.000    1.667    4.167    2.000    0.000    0.500 
#    1.500    1.667    0.000    6.500    0.000    2.333 
#    0.000    0.000    0.000    0.000    0.000    0.000 
#
# Total GULP energy -267323.840235 kJ/mol
# GULP energy per Si atom -5569.246672 kJ/mol
# Density = 2.306835 g / cm^3
# Si number density = 23.120971 Si / 1000 Ang^3
#
#
#
# Elastic Constant Matrix: (Units=GPa)
#
#
# Indices 1 2 3 4 5 6 
#
# 1 204.0768 60.0033 7.9784 0.0000 0.0000 0.0000
# 2 60.0033 114.8202 0.3826 0.0000 0.0000 0.0000
# 3 7.9784 0.3826 56.3987 0.0000 0.0000 0.0000
# 4 0.0000 0.0000 0.0000 16.9143 0.0000 0.0000
# 5 0.0000 0.0000 0.0000 0.0000 -66.4278 0.0000
# 6 0.0000 0.0000 0.0000 0.0000 0.0000 56.9250
#
#
#
# Elastic Compliance Matrix: (Units=1/GPa)
#
#
# Indices 1 2 3 4 5 6 
#
# 1 0.005826 -0.003042 -0.000804 0.000000 0.000000 0.000000
# 2 -0.003042 0.010298 0.000360 0.000000 0.000000 0.000000
# 3 -0.000804 0.000360 0.017842 0.000000 0.000000 0.000000
# 4 0.000000 0.000000 0.000000 0.059122 0.000000 0.000000
# 5 0.000000 0.000000 0.000000 0.000000 -0.015054 0.000000
# 6 0.000000 0.000000 0.000000 0.000000 0.000000 0.017567
#
#
# Mechanical properties :
#
#
# Convention : Reuss Voigt Hill
#
# Bulk Modulus (GPa) = 37.04269 56.89159 46.96714
# Shear Modulus (GPa) = 44.81540 21.94440 33.37990
#
# Velocity S-wave (km/s) = 4.40739 3.08411 3.80374
# Velocity P-wave (km/s) = 6.47736 6.11079 6.29674
#
# Compressibility (1/GPa) = 0.02699588
#
# Stress axis : x y z
#
# Youngs Moduli (GPa) = 171.64719 97.10914 56.04716
#
# Poissons Ratio (x) = 0.29539 0.04504
# Poissons Ratio (y) = 0.52212 -0.02020
# Poissons Ratio (z) = 0.13792 -0.03500
#
# Static dielectric constant tensor:
#      x y z
#    x 1.911520 0.000000 0.000000 
#    y 0.000000 1.903690 0.000000 
#    z 0.000000 0.000000 2.530270 
# 
# From -- ./inp_files/23701.got.cif
#   From: 2010.05.17/outbox.cif.g08.bks.cpg/sg69_12_cif.got.tgz:23701.got - 2010.06.03 19:29:58.
