data_PCOD9512288
_publ_section_title
;
Structure prediction by ZEFSAII (Michael W. Deem and Ramdas Pophale) SiO2 
 PCOD9512288
Probable space group: F M M M
;
_chemical_formula_sum "Si O2"
_cell_formula_units_Z 160
_cell_length_a 30.112024
_cell_length_b 19.907638
_cell_length_c 13.452542
_cell_angle_alpha 90.000000
_cell_angle_beta 90.000000
_cell_angle_gamma 90.000000
_cell_volume 8064.251051
_symmetry_space_group_name_H-M "F M M M"
_symmetry_group_IT_number 69
_symmetry_cell_setting 'orthorhombic'
loop_
_space_group_symop_operation_xyz
x,y,z
-x,-y,z
x,-y,-z
-x,y,-z
-x,-y,-z
x,y,-z
-x,y,z
x,-y,z
x,1/2+y,1/2+z
-x,1/2-y,1/2+z
x,1/2-y,1/2-z
-x,1/2+y,1/2-z
-x,1/2-y,1/2-z
x,1/2+y,1/2-z
-x,1/2+y,1/2+z
x,1/2-y,1/2+z
1/2+x,y,1/2+z
1/2-x,-y,1/2+z
1/2+x,-y,1/2-z
1/2-x,y,1/2-z
1/2-x,-y,1/2-z
1/2+x,y,1/2-z
1/2-x,y,1/2+z
1/2+x,-y,1/2+z
1/2+x,1/2+y,z
1/2-x,1/2-y,z
1/2+x,1/2-y,-z
1/2-x,1/2+y,-z
1/2-x,1/2-y,-z
1/2+x,1/2+y,-z
1/2-x,1/2+y,z
1/2+x,1/2-y,z
loop_
_atom_site_type_symbol
_atom_site_label
_atom_site_fract_x
_atom_site_fract_y
_atom_site_fract_z
Si Si1 0.877101 0.000000 0.119227
Si Si2 0.052239 0.500000 0.217619
Si Si3 0.638109 0.719666 0.378789
Si Si4 0.268295 0.326876 0.383851
Si Si5 0.174469 0.634498 0.378522
Si Si6 0.449244 0.857373 0.119883
O O1 0.922488 0.000000 0.178877
O O2 0.850776 0.932898 0.148953
O O3 0.882762 0.000000 0.000000
O O4 0.062298 0.567866 0.157143
O O5 0.000000 0.500000 0.234750
O O6 0.638316 0.718151 0.500000
O O7 0.681119 0.675433 0.346821
O O8 0.649138 0.796549 0.350841
O O9 0.590307 0.692007 0.347206
O O10 0.272033 0.345005 0.500000
O O11 0.250000 0.250000 0.378313
O O12 0.225728 0.366434 0.343734
O O13 0.176206 0.636358 0.500000
O O14 0.500000 0.840796 0.152718
O O15 0.449775 0.857436 0.000000
#
# Coordination Sequence:
#
# PCOD9512288 Si02
#       6
#    16  16  32  32  32  32
#     4  10  20  34  52  71  95 132 171 204 239 276
#     4  10  21  37  53  70  96 129 164 200 241 294
#     4   8  13  24  46  75 102 127 159 200 246 295
#     4   7  10  19  39  67  96 125 158 194 232 280
#     4   8  14  26  45  70  99 132 169 203 237 282
#     4   9  17  31  53  78 100 123 153 195 251 306
#
# _framework density 19.840651999999999
#
# number of rings (size 3 to 8) (size 9 to 14) (size 15 to 20)
#    0.000    3.600    0.000    2.700    0.000    1.400 
#    0.000    3.000    0.000   13.200    0.000    4.200 
#    0.000    0.000    0.000    0.000    0.000    0.600 
#
# Total GULP energy -222969.664147 kJ/mol
# GULP energy per Si atom -5574.241604 kJ/mol
# Density = 1.979549 g / cm^3
# Si number density = 19.840652 Si / 1000 Ang^3
#
#
#
# Elastic Constant Matrix: (Units=GPa)
#
#
# Indices 1 2 3 4 5 6 
#
# 1 129.0547 73.0850 36.2161 0.0000 0.0000 0.0000
# 2 73.0850 98.5049 12.7189 0.0000 0.0000 0.0000
# 3 36.2161 12.7189 50.3519 0.0000 0.0000 0.0000
# 4 0.0000 0.0000 0.0000 2.5275 0.0000 0.0000
# 5 0.0000 0.0000 0.0000 0.0000 32.0695 0.0000
# 6 0.0000 0.0000 0.0000 0.0000 0.0000 18.8813
#
#
#
# Elastic Compliance Matrix: (Units=1/GPa)
#
#
# Indices 1 2 3 4 5 6 
#
# 1 0.016637 -0.011163 -0.009147 0.000000 0.000000 0.000000
# 2 -0.011163 0.017984 0.003486 0.000000 0.000000 0.000000
# 3 -0.009147 0.003486 0.025558 0.000000 0.000000 0.000000
# 4 0.000000 0.000000 0.000000 0.395647 0.000000 0.000000
# 5 0.000000 0.000000 0.000000 0.000000 0.031182 0.000000
# 6 0.000000 0.000000 0.000000 0.000000 0.000000 0.052962
#
#
# Mechanical properties :
#
#
# Convention : Reuss Voigt Hill
#
# Bulk Modulus (GPa) = 37.68910 57.99460 47.84185
# Shear Modulus (GPa) = 8.58427 21.08844 14.83635
#
# Velocity S-wave (km/s) = 2.08231 3.26374 2.73751
# Velocity P-wave (km/s) = 4.98181 6.59517 5.84443
#
# Compressibility (1/GPa) = 0.02653287
#
# Stress axis : x y z
#
# Youngs Moduli (GPa) = 60.10721 55.60598 39.12606
#
# Poissons Ratio (x) = 0.62071 0.35787
# Poissons Ratio (y) = 0.67096 -0.13640
# Poissons Ratio (z) = 0.54978 -0.19385
#
# Static dielectric constant tensor:
#      x y z
#    x 1.709440 0.000000 0.000000 
#    y 0.000000 1.670340 0.000000 
#    z 0.000000 0.000000 1.751190 
# 
# From -- ./inp_files/27647.got.cif
#   From: 2010.05.17/outbox.cif.g08.bks.cpg/sg69_14_cif.got.tgz:27647.got - 2010.06.03 19:29:58.
