data_PCOD9512335
_publ_section_title
;
Structure prediction by ZEFSAII (Michael W. Deem and Ramdas Pophale) SiO2 
 PCOD9512335
Probable space group: F M M M
;
_chemical_formula_sum "Si O2"
_cell_formula_units_Z 152
_cell_length_a 27.324870
_cell_length_b 13.641959
_cell_length_c 24.168833
_cell_angle_alpha 90.000000
_cell_angle_beta 90.000000
_cell_angle_gamma 90.000000
_cell_volume 9009.289141
_symmetry_space_group_name_H-M "F M M M"
_symmetry_group_IT_number 69
_symmetry_cell_setting 'orthorhombic'
loop_
_space_group_symop_operation_xyz
x,y,z
-x,-y,z
x,-y,-z
-x,y,-z
-x,-y,-z
x,y,-z
-x,y,z
x,-y,z
x,1/2+y,1/2+z
-x,1/2-y,1/2+z
x,1/2-y,1/2-z
-x,1/2+y,1/2-z
-x,1/2-y,1/2-z
x,1/2+y,1/2-z
-x,1/2+y,1/2+z
x,1/2-y,1/2+z
1/2+x,y,1/2+z
1/2-x,-y,1/2+z
1/2+x,-y,1/2-z
1/2-x,y,1/2-z
1/2-x,-y,1/2-z
1/2+x,y,1/2-z
1/2-x,y,1/2+z
1/2+x,-y,1/2+z
1/2+x,1/2+y,z
1/2-x,1/2-y,z
1/2+x,1/2-y,-z
1/2-x,1/2+y,-z
1/2-x,1/2-y,-z
1/2+x,1/2+y,-z
1/2-x,1/2+y,z
1/2+x,1/2-y,z
loop_
_atom_site_type_symbol
_atom_site_label
_atom_site_fract_x
_atom_site_fract_y
_atom_site_fract_z
Si Si1 0.500000 0.616284 0.289333
Si Si2 0.891761 0.884524 0.328377
Si Si3 0.832764 0.387196 0.287105
Si Si4 0.000000 0.118936 0.835399
Si Si5 0.398435 0.689334 0.884665
Si Si6 0.750000 0.250000 0.750000
Si Si7 0.060059 0.618716 0.500000
O O1 0.500000 0.500000 0.280532
O O2 0.550678 0.634193 0.319211
O O3 0.500000 0.653710 0.227465
O O4 0.865035 0.866489 0.268916
O O5 0.880192 0.801179 0.373610
O O6 0.883935 0.000000 0.342282
O O7 0.818090 0.500000 0.282944
O O8 0.863199 0.371296 0.343225
O O9 0.785747 0.318187 0.285477
O O10 0.048123 0.163393 0.861227
O O11 0.000000 0.000000 0.841286
O O12 0.408724 0.658484 0.947637
O O13 0.060299 0.500000 0.500000
O O14 0.000000 0.645154 0.500000
#
# Coordination Sequence:
#
# PCOD9512335 Si02
#       7
#    16  32  32  16  32   8  16
#     4   9  17  27  45  77 113 142 174 219 270 338
#     4  10  20  34  53  83 114 146 186 228 281 348
#     4  11  22  37  59  87 118 148 185 236 295 351
#     4  11  19  28  51  79 113 149 182 224 274 337
#     4  12  21  36  56  81 115 155 190 229 280 334
#     4  12  22  40  56  90 120 144 186 236 302 356
#     4  11  24  38  55  82 117 155 196 234 270 325
#
# _framework density 16.871476000000001
#
# number of rings (size 3 to 8) (size 9 to 14) (size 15 to 20)
#    0.000    1.158    5.263    2.842    0.000    0.842 
#    0.000    0.526    0.000    1.263    0.000    0.000 
#    0.000    0.000    0.000    0.000    0.000    0.000 
#
# Total GULP energy -211576.279698 kJ/mol
# GULP energy per Si atom -5567.796834 kJ/mol
# Density = 1.683308 g / cm^3
# Si number density = 16.871476 Si / 1000 Ang^3
#
#
#
# Elastic Constant Matrix: (Units=GPa)
#
#
# Indices 1 2 3 4 5 6 
#
# 1 82.5171 34.6941 24.5357 0.0000 0.0000 0.0000
# 2 34.6941 132.8066 58.5058 0.0000 0.0000 0.0000
# 3 24.5357 58.5058 103.4886 0.0000 0.0000 0.0000
# 4 0.0000 0.0000 0.0000 17.3532 0.0000 0.0000
# 5 0.0000 0.0000 0.0000 0.0000 12.3720 0.0000
# 6 0.0000 0.0000 0.0000 0.0000 0.0000 35.2818
#
#
#
# Elastic Compliance Matrix: (Units=1/GPa)
#
#
# Indices 1 2 3 4 5 6 
#
# 1 0.013821 -0.002886 -0.001645 0.000000 0.000000 0.000000
# 2 -0.002886 0.010629 -0.005325 0.000000 0.000000 0.000000
# 3 -0.001645 -0.005325 0.013063 0.000000 0.000000 0.000000
# 4 0.000000 0.000000 0.000000 0.057626 0.000000 0.000000
# 5 0.000000 0.000000 0.000000 0.000000 0.080828 0.000000
# 6 0.000000 0.000000 0.000000 0.000000 0.000000 0.028343
#
#
# Mechanical properties :
#
#
# Convention : Reuss Voigt Hill
#
# Bulk Modulus (GPa) = 56.17431 61.58707 58.88069
# Shear Modulus (GPa) = 21.74312 26.40650 24.07481
#
# Velocity S-wave (km/s) = 3.59381 3.96050 3.78160
# Velocity P-wave (km/s) = 7.11255 7.58268 7.35137
#
# Compressibility (1/GPa) = 0.01780173
#
# Stress axis : x y z
#
# Youngs Moduli (GPa) = 72.35223 94.07795 76.54956
#
# Poissons Ratio (x) = 0.27149 0.12595
# Poissons Ratio (y) = 0.20879 0.40763
# Poissons Ratio (z) = 0.11905 0.50097
#
# Static dielectric constant tensor:
#      x y z
#    x 1.647780 0.000000 0.000000 
#    y 0.000000 1.647970 0.000000 
#    z 0.000000 0.000000 1.649420 
# 
# From -- ./inp_files/33370.got.cif
#   From: 2010.05.17/outbox.cif.g08.bks.cpg/sg69_17_cif.got.tgz:33370.got - 2010.06.03 19:29:58.
