data_PCOD9512435
_publ_section_title
;
Structure prediction by ZEFSAII (Michael W. Deem and Ramdas Pophale) SiO2 
 PCOD9512435
Probable space group: F M M M
;
_chemical_formula_sum "Si O2"
_cell_formula_units_Z 128
_cell_length_a 19.448795
_cell_length_b 24.783450
_cell_length_c 13.081744
_cell_angle_alpha 90.000000
_cell_angle_beta 90.000000
_cell_angle_gamma 90.000000
_cell_volume 6305.508381
_symmetry_space_group_name_H-M "F M M M"
_symmetry_group_IT_number 69
_symmetry_cell_setting 'orthorhombic'
loop_
_space_group_symop_operation_xyz
x,y,z
-x,-y,z
x,-y,-z
-x,y,-z
-x,-y,-z
x,y,-z
-x,y,z
x,-y,z
x,1/2+y,1/2+z
-x,1/2-y,1/2+z
x,1/2-y,1/2-z
-x,1/2+y,1/2-z
-x,1/2-y,1/2-z
x,1/2+y,1/2-z
-x,1/2+y,1/2+z
x,1/2-y,1/2+z
1/2+x,y,1/2+z
1/2-x,-y,1/2+z
1/2+x,-y,1/2-z
1/2-x,y,1/2-z
1/2-x,-y,1/2-z
1/2+x,y,1/2-z
1/2-x,y,1/2+z
1/2+x,-y,1/2+z
1/2+x,1/2+y,z
1/2-x,1/2-y,z
1/2+x,1/2-y,-z
1/2-x,1/2+y,-z
1/2-x,1/2-y,-z
1/2+x,1/2+y,-z
1/2-x,1/2+y,z
1/2+x,1/2-y,z
loop_
_atom_site_type_symbol
_atom_site_label
_atom_site_fract_x
_atom_site_fract_y
_atom_site_fract_z
Si Si1 0.000000 0.560845 0.749487
Si Si2 0.140090 0.939699 0.122624
Si Si3 0.000000 0.668337 0.876636
Si Si4 0.713678 0.168435 0.375845
Si Si5 0.356870 0.779138 0.875763
O O1 0.067354 0.565869 0.678969
O O2 0.000000 0.608377 0.831332
O O3 0.000000 0.500000 0.793700
O O4 0.188100 0.890343 0.155265
O O5 0.167491 0.000000 0.144579
O O6 0.129766 0.936198 0.000000
O O7 0.069281 0.699036 0.842720
O O8 0.000000 0.666177 0.000000
O O9 0.714011 0.168266 0.500000
O O10 0.662698 0.217741 0.347663
O O11 0.791283 0.184154 0.346044
O O12 0.358450 0.780008 0.000000
#
# Coordination Sequence:
#
# PCOD9512435 Si02
#       5
#    16  32  16  32  32
#     4  10  21  36  51  72 104 134 164 207 252 296
#     4   9  17  31  53  78 102 130 163 202 253 308
#     4  10  20  35  54  73  96 132 176 210 240 288
#     4   8  14  28  51  77 104 132 163 204 255 300
#     4   8  15  29  50  75 103 135 168 205 248 293
#
# _framework density 20.299710999999999
#
# number of rings (size 3 to 8) (size 9 to 14) (size 15 to 20)
#    0.000    3.250    0.000    1.875    0.000    2.750 
#    0.000    8.750    0.000   10.500    0.000    0.000 
#    0.000    0.000    0.000    0.000    0.000    0.000 
#
# Total GULP energy -178737.040483 kJ/mol
# GULP energy per Si atom -5585.532515 kJ/mol
# Density = 2.025351 g / cm^3
# Si number density = 20.299711 Si / 1000 Ang^3
#
#
#
# Elastic Constant Matrix: (Units=GPa)
#
#
# Indices 1 2 3 4 5 6 
#
# 1 170.3061 130.5102 36.9732 0.0000 0.0000 0.0000
# 2 130.5102 211.7108 49.2584 0.0000 0.0000 0.0000
# 3 36.9732 49.2584 58.7338 0.0000 0.0000 0.0000
# 4 0.0000 0.0000 0.0000 35.4465 0.0000 0.0000
# 5 0.0000 0.0000 0.0000 0.0000 25.2200 0.0000
# 6 0.0000 0.0000 0.0000 0.0000 0.0000 32.7528
#
#
#
# Elastic Compliance Matrix: (Units=1/GPa)
#
#
# Indices 1 2 3 4 5 6 
#
# 1 0.011245 -0.006566 -0.001572 0.000000 0.000000 0.000000
# 2 -0.006566 0.009703 -0.004004 0.000000 0.000000 0.000000
# 3 -0.001572 -0.004004 0.021373 0.000000 0.000000 0.000000
# 4 0.000000 0.000000 0.000000 0.028212 0.000000 0.000000
# 5 0.000000 0.000000 0.000000 0.000000 0.039651 0.000000
# 6 0.000000 0.000000 0.000000 0.000000 0.000000 0.030532
#
#
# Mechanical properties :
#
#
# Convention : Reuss Voigt Hill
#
# Bulk Modulus (GPa) = 55.44128 97.13714 76.28921
# Shear Modulus (GPa) = 29.23771 33.61780 31.42775
#
# Velocity S-wave (km/s) = 3.79925 4.07390 3.93897
# Velocity P-wave (km/s) = 6.82762 8.37164 7.63874
#
# Compressibility (1/GPa) = 0.01803710
#
# Stress axis : x y z
#
# Youngs Moduli (GPa) = 88.92887 103.06251 46.78704
#
# Poissons Ratio (x) = 0.67674 0.07354
# Poissons Ratio (y) = 0.58393 0.18733
# Poissons Ratio (z) = 0.13978 0.41266
#
# Static dielectric constant tensor:
#      x y z
#    x 1.673430 0.000000 0.000000 
#    y 0.000000 1.695630 0.000000 
#    z 0.000000 0.000000 1.783810 
# 
# From -- ./inp_files/16360.got.cif
#   From: 2010.05.17/outbox.cif.g08.bks.cpg/sg69_9_cif.got.tgz:16360.got - 2010.06.03 19:29:58.
