data_PCOD9512946
_publ_section_title
;
Structure prediction by ZEFSAII (Michael W. Deem and Ramdas Pophale) SiO2 
 PCOD9512946
Probable space group: F M M M
;
_chemical_formula_sum "Si O2"
_cell_formula_units_Z 176
_cell_length_a 29.258479
_cell_length_b 16.409475
_cell_length_c 19.908839
_cell_angle_alpha 90.000000
_cell_angle_beta 90.000000
_cell_angle_gamma 90.000000
_cell_volume 9558.557714
_symmetry_space_group_name_H-M "F M M M"
_symmetry_group_IT_number 69
_symmetry_cell_setting 'orthorhombic'
loop_
_space_group_symop_operation_xyz
x,y,z
-x,-y,z
x,-y,-z
-x,y,-z
-x,-y,-z
x,y,-z
-x,y,z
x,-y,z
x,1/2+y,1/2+z
-x,1/2-y,1/2+z
x,1/2-y,1/2-z
-x,1/2+y,1/2-z
-x,1/2-y,1/2-z
x,1/2+y,1/2-z
-x,1/2+y,1/2+z
x,1/2-y,1/2+z
1/2+x,y,1/2+z
1/2-x,-y,1/2+z
1/2+x,-y,1/2-z
1/2-x,y,1/2-z
1/2-x,-y,1/2-z
1/2+x,y,1/2-z
1/2-x,y,1/2+z
1/2+x,-y,1/2+z
1/2+x,1/2+y,z
1/2-x,1/2-y,z
1/2+x,1/2-y,-z
1/2-x,1/2+y,-z
1/2-x,1/2-y,-z
1/2+x,1/2+y,-z
1/2-x,1/2+y,z
1/2+x,1/2-y,z
loop_
_atom_site_type_symbol
_atom_site_label
_atom_site_fract_x
_atom_site_fract_y
_atom_site_fract_z
Si Si1 0.154247 0.192439 0.926845
Si Si2 0.750000 0.750000 0.374669
Si Si3 0.051398 0.902579 0.304305
Si Si4 0.370134 0.095817 0.294154
Si Si5 0.798333 0.591485 0.824579
Si Si6 0.381163 0.872633 0.076832
O O1 0.206624 0.220893 0.917426
O O2 0.139958 0.139580 0.863460
O O3 0.125431 0.275503 0.924946
O O4 0.148694 0.152956 0.000000
O O5 0.766017 0.830556 0.334252
O O6 0.086081 0.870734 0.247054
O O7 0.075822 0.891450 0.376111
O O8 0.000000 0.869603 0.301572
O O9 0.049146 0.000000 0.293973
O O10 0.327456 0.103158 0.243224
O O11 0.376952 0.000000 0.306127
O O12 0.777431 0.500000 0.824556
O O13 0.836215 0.594162 0.884414
O O14 0.384381 0.901583 0.000000
#
# Coordination Sequence:
#
# PCOD9512946 Si02
#       6
#    32  16  32  32  32  32
#     4  10  21  36  52  72 102 139 176 216 261 306
#     4  10  21  35  54  78 105 139 176 220 265 309
#     4   9  18  33  54  79 104 131 166 209 256 309
#     4   9  19  36  55  76 103 135 174 216 260 313
#     4   9  19  34  52  77 107 139 176 216 261 314
#     4   9  18  32  50  75 108 141 170 203 253 317
#
# _framework density 18.41282
#
# number of rings (size 3 to 8) (size 9 to 14) (size 15 to 20)
#    0.000    2.727    0.000    1.909    0.000   11.636 
#    0.000    4.545    0.000    1.636    0.000    2.545 
#    0.000    0.000    0.000    0.000    0.000    0.000 
#
# Total GULP energy -245393.795714 kJ/mol
# GULP energy per Si atom -5577.131721 kJ/mol
# Density = 1.837091 g / cm^3
# Si number density = 18.412820 Si / 1000 Ang^3
#
#
#
# Elastic Constant Matrix: (Units=GPa)
#
#
# Indices 1 2 3 4 5 6 
#
# 1 78.2191 33.2050 43.1894 0.0000 0.0000 0.0000
# 2 33.2050 82.9602 51.2028 0.0000 0.0000 0.0000
# 3 43.1894 51.2028 166.7841 0.0000 0.0000 0.0000
# 4 0.0000 0.0000 0.0000 26.5693 0.0000 0.0000
# 5 0.0000 0.0000 0.0000 0.0000 10.6834 0.0000
# 6 0.0000 0.0000 0.0000 0.0000 0.0000 20.9566
#
#
#
# Elastic Compliance Matrix: (Units=1/GPa)
#
#
# Indices 1 2 3 4 5 6 
#
# 1 0.016362 -0.004853 -0.002747 0.000000 0.000000 0.000000
# 2 -0.004853 0.016312 -0.003751 0.000000 0.000000 0.000000
# 3 -0.002747 -0.003751 0.007859 0.000000 0.000000 0.000000
# 4 0.000000 0.000000 0.000000 0.037637 0.000000 0.000000
# 5 0.000000 0.000000 0.000000 0.000000 0.093603 0.000000
# 6 0.000000 0.000000 0.000000 0.000000 0.000000 0.047718
#
#
# Mechanical properties :
#
#
# Convention : Reuss Voigt Hill
#
# Bulk Modulus (GPa) = 56.08683 64.79531 60.44107
# Shear Modulus (GPa) = 20.15027 24.99962 22.57494
#
# Velocity S-wave (km/s) = 3.31170 3.68873 3.50529
# Velocity P-wave (km/s) = 6.71938 7.30815 7.01994
#
# Compressibility (1/GPa) = 0.01782950
#
# Stress axis : x y z
#
# Youngs Moduli (GPa) = 61.11847 61.30620 127.24895
#
# Poissons Ratio (x) = 0.29754 0.34954
# Poissons Ratio (y) = 0.29663 0.47729
# Poissons Ratio (z) = 0.16789 0.22995
#
# Static dielectric constant tensor:
#      x y z
#    x 1.646930 0.000000 0.000000 
#    y 0.000000 1.647720 0.000000 
#    z 0.000000 0.000000 1.635350 
# 
# From -- ./inp_files/27713.got.cif
#   From: 2010.05.17/outbox.cif.g08.bks.cpg/sg69_14_cif.got.tgz:27713.got - 2010.06.03 19:29:58.
