data_PCOD9512164
_publ_section_title
;
Structure prediction by ZEFSAII (Michael W. Deem and Ramdas Pophale) SiO2 
 PCOD9512164
Probable space group: F M M M
;
_chemical_formula_sum "Si O2"
_cell_formula_units_Z 128
_cell_length_a 16.035157
_cell_length_b 24.088667
_cell_length_c 14.468783
_cell_angle_alpha 90.000000
_cell_angle_beta 90.000000
_cell_angle_gamma 90.000000
_cell_volume 5588.792528
_symmetry_space_group_name_H-M "F M M M"
_symmetry_group_IT_number 69
_symmetry_cell_setting 'orthorhombic'
loop_
_space_group_symop_operation_xyz
x,y,z
-x,-y,z
x,-y,-z
-x,y,-z
-x,-y,-z
x,y,-z
-x,y,z
x,-y,z
x,1/2+y,1/2+z
-x,1/2-y,1/2+z
x,1/2-y,1/2-z
-x,1/2+y,1/2-z
-x,1/2-y,1/2-z
x,1/2+y,1/2-z
-x,1/2+y,1/2+z
x,1/2-y,1/2+z
1/2+x,y,1/2+z
1/2-x,-y,1/2+z
1/2+x,-y,1/2-z
1/2-x,y,1/2-z
1/2-x,-y,1/2-z
1/2+x,y,1/2-z
1/2-x,y,1/2+z
1/2+x,-y,1/2+z
1/2+x,1/2+y,z
1/2-x,1/2-y,z
1/2+x,1/2-y,-z
1/2-x,1/2+y,-z
1/2-x,1/2-y,-z
1/2+x,1/2+y,-z
1/2-x,1/2+y,z
1/2+x,1/2-y,z
loop_
_atom_site_type_symbol
_atom_site_label
_atom_site_fract_x
_atom_site_fract_y
_atom_site_fract_z
Si Si1 0.728458 0.640790 0.859369
Si Si2 0.407600 0.265686 0.891515
Si Si3 0.408698 0.143023 0.853493
Si Si4 0.908795 0.935531 0.172980
O O1 0.750000 0.642343 0.750000
O O2 0.671251 0.694314 0.879313
O O3 0.819924 0.634412 0.901823
O O4 0.668405 0.589446 0.882075
O O5 0.500000 0.291847 0.874888
O O6 0.403823 0.209178 0.832652
O O7 0.406832 0.248700 0.000000
O O8 0.500000 0.135476 0.898130
O O9 0.410709 0.102391 0.765168
O O10 0.000000 0.930263 0.127790
O O11 0.896348 0.000000 0.195979
#
# Coordination Sequence:
#
# PCOD9512164 Si02
#       4
#    32  32  32  32
#     4  10  20  32  52  80 109 141 182 230 278 329
#     4  10  21  37  56  79 111 149 187 229 278 334
#     4   9  19  32  47  72 105 140 177 218 269 325
#     4   9  18  33  53  77 106 140 182 235 285 326
#
# _framework density 22.902979999999999
#
# number of rings (size 3 to 8) (size 9 to 14) (size 15 to 20)
#    0.000    2.500    0.000    1.500    0.000   14.500 
#    0.000   11.250    0.000    1.500    0.000   15.750 
#    0.000    0.000    0.000    0.000    0.000    0.000 
#
# Total GULP energy -178358.283859 kJ/mol
# GULP energy per Si atom -5573.696371 kJ/mol
# Density = 2.285085 g / cm^3
# Si number density = 22.902980 Si / 1000 Ang^3
#
#
#
# Elastic Constant Matrix: (Units=GPa)
#
#
# Indices 1 2 3 4 5 6 
#
# 1 290.9239 76.0877 20.6277 0.0000 0.0000 0.0000
# 2 76.0877 136.4053 12.8481 0.0000 0.0000 0.0000
# 3 20.6277 12.8481 62.6355 0.0000 0.0000 0.0000
# 4 0.0000 0.0000 0.0000 -8.6426 0.0000 0.0000
# 5 0.0000 0.0000 0.0000 0.0000 -8.6075 0.0000
# 6 0.0000 0.0000 0.0000 0.0000 0.0000 25.4994
#
#
#
# Elastic Compliance Matrix: (Units=1/GPa)
#
#
# Indices 1 2 3 4 5 6 
#
# 1 0.004073 -0.002188 -0.000893 0.000000 0.000000 0.000000
# 2 -0.002188 0.008651 -0.001054 0.000000 0.000000 0.000000
# 3 -0.000893 -0.001054 0.016476 0.000000 0.000000 0.000000
# 4 0.000000 0.000000 0.000000 -0.115706 0.000000 0.000000
# 5 0.000000 0.000000 0.000000 0.000000 -0.116178 0.000000
# 6 0.000000 0.000000 0.000000 0.000000 0.000000 0.039217
#
#
# Mechanical properties :
#
#
# Convention : Reuss Voigt Hill
#
# Bulk Modulus (GPa) = 47.77721 78.78796 63.28259
# Shear Modulus (GPa) = -33.73297 27.00995 -3.36151
#
# Velocity S-wave (km/s) = -3.84195 3.43785 -1.21281
# Velocity P-wave (km/s) = 1.10687 7.08758 5.07243
#
# Compressibility (1/GPa) = 0.02093048
#
# Stress axis : x y z
#
# Youngs Moduli (GPa) = 245.53191 115.59738 60.69612
#
# Poissons Ratio (x) = 0.25290 0.05417
# Poissons Ratio (y) = 0.53716 0.06397
# Poissons Ratio (z) = 0.21914 0.12184
#
# Static dielectric constant tensor:
#      x y z
#    x 1.966720 0.000000 0.000000 
#    y 0.000000 1.818070 0.000000 
#    z 0.000000 0.000000 1.858830 
# 
# From -- ./inp_files/30912.got.cif
#   From: 2010.05.17/outbox.cif.g08.bks.cpg/sg69_16_cif.got.tgz:30912.got - 2010.06.03 19:29:58.
