data_PCOD9512839
_publ_section_title
;
Structure prediction by ZEFSAII (Michael W. Deem and Ramdas Pophale) SiO2 
 PCOD9512839
Probable space group: F M M M
;
_chemical_formula_sum "Si O2"
_cell_formula_units_Z 240
_cell_length_a 26.806493
_cell_length_b 22.295294
_cell_length_c 18.972483
_cell_angle_alpha 90.000000
_cell_angle_beta 90.000000
_cell_angle_gamma 90.000000
_cell_volume 11339.068435
_symmetry_space_group_name_H-M "F M M M"
_symmetry_group_IT_number 69
_symmetry_cell_setting 'orthorhombic'
loop_
_space_group_symop_operation_xyz
x,y,z
-x,-y,z
x,-y,-z
-x,y,-z
-x,-y,-z
x,y,-z
-x,y,z
x,-y,z
x,1/2+y,1/2+z
-x,1/2-y,1/2+z
x,1/2-y,1/2-z
-x,1/2+y,1/2-z
-x,1/2-y,1/2-z
x,1/2+y,1/2-z
-x,1/2+y,1/2+z
x,1/2-y,1/2+z
1/2+x,y,1/2+z
1/2-x,-y,1/2+z
1/2+x,-y,1/2-z
1/2-x,y,1/2-z
1/2-x,-y,1/2-z
1/2+x,y,1/2-z
1/2-x,y,1/2+z
1/2+x,-y,1/2+z
1/2+x,1/2+y,z
1/2-x,1/2-y,z
1/2+x,1/2-y,-z
1/2-x,1/2+y,-z
1/2-x,1/2-y,-z
1/2+x,1/2+y,-z
1/2-x,1/2+y,z
1/2+x,1/2-y,z
loop_
_atom_site_type_symbol
_atom_site_label
_atom_site_fract_x
_atom_site_fract_y
_atom_site_fract_z
Si Si1 0.403315 0.261154 0.082236
Si Si2 0.058969 0.875286 0.422264
Si Si3 0.158804 0.070425 0.081640
Si Si4 0.678263 0.785282 0.818955
Si Si5 0.889837 0.896882 0.282182
Si Si6 0.250689 0.886337 0.164992
Si Si7 0.556506 0.381984 0.861276
Si Si8 0.183910 0.000000 0.685725
O O1 0.429133 0.195647 0.084516
O O2 0.351835 0.254483 0.125159
O O3 0.436308 0.312014 0.119055
O O4 0.395801 0.276309 0.000000
O O5 0.076857 0.894435 0.500000
O O6 0.085565 0.908417 0.358404
O O7 0.000000 0.884003 0.418533
O O8 0.196594 0.107026 0.131014
O O9 0.101285 0.085775 0.097311
O O10 0.166649 0.000000 0.094610
O O11 0.169795 0.083275 0.000000
O O12 0.695496 0.750000 0.750000
O O13 0.638374 0.833620 0.788725
O O14 0.720698 0.825535 0.855270
O O15 0.930027 0.893085 0.220508
O O16 0.849207 0.948219 0.273223
O O17 0.250000 0.885218 0.250000
O O18 0.282472 0.946249 0.148636
O O19 0.500000 0.400722 0.877230
#
# Coordination Sequence:
#
# PCOD9512839 Si02
#       8
#    32  32  32  32  32  32  32  16
#     4  10  21  38  61  90 128 171 216 266 320 390
#     4   9  18  35  58  87 128 173 211 257 327 396
#     4  11  26  47  67  94 132 170 220 279 334 390
#     4  10  20  39  62 100 135 165 206 259 330 390
#     4  10  21  37  63  96 132 167 219 277 317 383
#     4  11  23  40  71  98 126 166 215 265 320 404
#     4  12  25  41  65  94 127 175 232 279 324 378
#     4  10  21  40  66  93 122 164 217 266 326 385
#
# _framework density 21.165759999999999
#
# number of rings (size 3 to 8) (size 9 to 14) (size 15 to 20)
#    0.000    1.600    2.000    3.000    2.800    2.667 
#    0.000    6.667    0.000    2.400    0.000    0.000 
#    0.000    0.000    0.000    0.000    0.000    0.000 
#
# Total GULP energy -334290.685524 kJ/mol
# GULP energy per Si atom -5571.511425 kJ/mol
# Density = 2.111759 g / cm^3
# Si number density = 21.165760 Si / 1000 Ang^3
#
#
#
# Elastic Constant Matrix: (Units=GPa)
#
#
# Indices 1 2 3 4 5 6 
#
# 1 132.0508 23.8302 41.1463 0.0000 0.0000 0.0000
# 2 23.8302 48.8511 13.4386 0.0000 0.0000 0.0000
# 3 41.1463 13.4386 97.9394 0.0000 0.0000 0.0000
# 4 0.0000 0.0000 0.0000 17.5080 0.0000 0.0000
# 5 0.0000 0.0000 0.0000 0.0000 8.8956 0.0000
# 6 0.0000 0.0000 0.0000 0.0000 0.0000 -6.9403
#
#
#
# Elastic Compliance Matrix: (Units=1/GPa)
#
#
# Indices 1 2 3 4 5 6 
#
# 1 0.009282 -0.003591 -0.003407 0.000000 0.000000 0.000000
# 2 -0.003591 0.022662 -0.001601 0.000000 0.000000 0.000000
# 3 -0.003407 -0.001601 0.011861 0.000000 0.000000 0.000000
# 4 0.000000 0.000000 0.000000 0.057117 0.000000 0.000000
# 5 0.000000 0.000000 0.000000 0.000000 0.112415 0.000000
# 6 0.000000 0.000000 0.000000 0.000000 0.000000 -0.144086
#
#
# Mechanical properties :
#
#
# Convention : Reuss Voigt Hill
#
# Bulk Modulus (GPa) = 37.58187 48.40795 42.99491
# Shear Modulus (GPa) = 52.45493 17.25441 34.85467
#
# Velocity S-wave (km/s) = 4.98365 2.85827 4.06242
# Velocity P-wave (km/s) = 7.13513 5.81494 6.50860
#
# Compressibility (1/GPa) = 0.02660858
#
# Stress axis : x y z
#
# Youngs Moduli (GPa) = 107.72986 44.12583 84.30678
#
# Poissons Ratio (x) = 0.15845 0.28724
# Poissons Ratio (y) = 0.38684 0.13498
# Poissons Ratio (z) = 0.36704 0.07065
#
# Static dielectric constant tensor:
#      x y z
#    x 1.781320 0.000000 0.000000 
#    y 0.000000 1.799390 0.000000 
#    z 0.000000 0.000000 1.772170 
# 
# From -- ./inp_files/33577.got.cif
#   From: 2010.05.17/outbox.cif.g08.bks.cpg/sg69_17_cif.got.tgz:33577.got - 2010.06.03 19:29:58.
