data_PCOD9512224
_publ_section_title
;
Structure prediction by ZEFSAII (Michael W. Deem and Ramdas Pophale) SiO2 
 PCOD9512224
Probable space group: F M M M
;
_chemical_formula_sum "Si O2"
_cell_formula_units_Z 192
_cell_length_a 20.894039
_cell_length_b 24.956006
_cell_length_c 19.499196
_cell_angle_alpha 90.000000
_cell_angle_beta 90.000000
_cell_angle_gamma 90.000000
_cell_volume 10167.500141
_symmetry_space_group_name_H-M "F M M M"
_symmetry_group_IT_number 69
_symmetry_cell_setting 'orthorhombic'
loop_
_space_group_symop_operation_xyz
x,y,z
-x,-y,z
x,-y,-z
-x,y,-z
-x,-y,-z
x,y,-z
-x,y,z
x,-y,z
x,1/2+y,1/2+z
-x,1/2-y,1/2+z
x,1/2-y,1/2-z
-x,1/2+y,1/2-z
-x,1/2-y,1/2-z
x,1/2+y,1/2-z
-x,1/2+y,1/2+z
x,1/2-y,1/2+z
1/2+x,y,1/2+z
1/2-x,-y,1/2+z
1/2+x,-y,1/2-z
1/2-x,y,1/2-z
1/2-x,-y,1/2-z
1/2+x,y,1/2-z
1/2-x,y,1/2+z
1/2+x,-y,1/2+z
1/2+x,1/2+y,z
1/2-x,1/2-y,z
1/2+x,1/2-y,-z
1/2-x,1/2+y,-z
1/2-x,1/2-y,-z
1/2+x,1/2+y,-z
1/2-x,1/2+y,z
1/2+x,1/2-y,z
loop_
_atom_site_type_symbol
_atom_site_label
_atom_site_fract_x
_atom_site_fract_y
_atom_site_fract_z
Si Si1 0.927022 0.061267 0.308724
Si Si2 0.071801 0.160601 0.082179
Si Si3 0.747664 0.061224 0.422933
Si Si4 0.621686 0.562284 0.162491
Si Si5 0.628096 0.365269 0.579435
Si Si6 0.824056 0.248472 0.083227
O O1 0.882660 0.072789 0.243475
O O2 0.917090 0.102730 0.369563
O O3 0.000000 0.063682 0.283491
O O4 0.915126 0.000000 0.332090
O O5 0.079595 0.104527 0.120987
O O6 0.129912 0.199646 0.104674
O O7 0.000000 0.182642 0.095160
O O8 0.077437 0.153162 0.000000
O O9 0.719519 0.067226 0.500000
O O10 0.692882 0.068457 0.367353
O O11 0.804455 0.103151 0.416959
O O12 0.772078 0.000000 0.417867
O O13 0.602478 0.500000 0.151977
O O14 0.606627 0.366583 0.500000
O O15 0.641446 0.304319 0.600210
O O16 0.750000 0.250000 0.107431
O O17 0.820943 0.245861 0.000000
#
# Coordination Sequence:
#
# PCOD9512224 Si02
#       6
#    32  32  32  32  32  32
#     4  10  22  38  54  76 108 145 185 226 267 316
#     4  10  20  33  52  80 110 138 175 224 270 317
#     4   9  17  30  52  83 112 136 171 220 269 322
#     4  10  20  35  55  77 107 146 180 214 266 328
#     4  10  20  35  57  81 106 140 181 225 273 323
#     4   9  18  34  56  80 107 140 177 220 272 326
#
# _framework density 18.883697999999999
#
# number of rings (size 3 to 8) (size 9 to 14) (size 15 to 20)
#    0.000    2.333    0.000    2.500    0.000    7.333 
#    0.000    6.667    0.000    3.000    0.000    0.000 
#    0.000    0.000    0.000    0.000    0.000    0.000 
#
# Total GULP energy -267732.153564 kJ/mol
# GULP energy per Si atom -5577.753199 kJ/mol
# Density = 1.884072 g / cm^3
# Si number density = 18.883698 Si / 1000 Ang^3
#
#
#
# Elastic Constant Matrix: (Units=GPa)
#
#
# Indices 1 2 3 4 5 6 
#
# 1 51.5457 21.2513 16.0595 0.0000 0.0000 0.0000
# 2 21.2513 88.6487 30.0512 0.0000 0.0000 0.0000
# 3 16.0595 30.0512 45.2485 0.0000 0.0000 0.0000
# 4 0.0000 0.0000 0.0000 13.4093 0.0000 0.0000
# 5 0.0000 0.0000 0.0000 0.0000-1457.6775 0.0000
# 6 0.0000 0.0000 0.0000 0.0000 0.0000 28.1792
#
#
#
# Elastic Compliance Matrix: (Units=1/GPa)
#
#
# Indices 1 2 3 4 5 6 
#
# 1 0.022617 -0.003485 -0.005712 0.000000 0.000000 0.000000
# 2 -0.003485 0.015095 -0.008788 0.000000 0.000000 0.000000
# 3 -0.005712 -0.008788 0.029964 0.000000 0.000000 0.000000
# 4 0.000000 0.000000 0.000000 0.074575 0.000000 0.000000
# 5 0.000000 0.000000 0.000000 0.000000 -0.000686 0.000000
# 6 0.000000 0.000000 0.000000 0.000000 0.000000 0.035487
#
#
# Mechanical properties :
#
#
# Convention : Reuss Voigt Hill
#
# Bulk Modulus (GPa) = 31.54144 35.57410 33.55777
# Shear Modulus (GPa) = 22.36207 -275.34575 -126.49184
#
# Velocity S-wave (km/s) = 3.44495 -12.08834 -8.19330
# Velocity P-wave (km/s) = 5.70639 13.26491 8.46743
#
# Compressibility (1/GPa) = 0.03170432
#
# Stress axis : x y z
#
# Youngs Moduli (GPa) = 44.21461 66.24633 33.37311
#
# Poissons Ratio (x) = 0.23089 0.19064
# Poissons Ratio (y) = 0.15411 0.29329
# Poissons Ratio (z) = 0.25257 0.58219
#
# Static dielectric constant tensor:
#      x y z
#    x 1.661920 0.000000 0.000000 
#    y 0.000000 1.663430 0.000000 
#    z 0.000000 0.000000 1.635370 
# 
# From -- ./inp_files/32012.got.cif
#   From: 2010.05.17/outbox.cif.g08.bks.cpg/sg69_17_cif.got.tgz:32012.got - 2010.06.03 19:29:58.
