data_PCOD9512069
_publ_section_title
;
Structure prediction by ZEFSAII (Michael W. Deem and Ramdas Pophale) SiO2 
 PCOD9512069
Probable space group: F M M M
;
_chemical_formula_sum "Si O2"
_cell_formula_units_Z 120
_cell_length_a 18.931656
_cell_length_b 16.945444
_cell_length_c 18.119620
_cell_angle_alpha 90.000000
_cell_angle_beta 90.000000
_cell_angle_gamma 90.000000
_cell_volume 5812.870430
_symmetry_space_group_name_H-M "F M M M"
_symmetry_group_IT_number 69
_symmetry_cell_setting 'orthorhombic'
loop_
_space_group_symop_operation_xyz
x,y,z
-x,-y,z
x,-y,-z
-x,y,-z
-x,-y,-z
x,y,-z
-x,y,z
x,-y,z
x,1/2+y,1/2+z
-x,1/2-y,1/2+z
x,1/2-y,1/2-z
-x,1/2+y,1/2-z
-x,1/2-y,1/2-z
x,1/2+y,1/2-z
-x,1/2+y,1/2+z
x,1/2-y,1/2+z
1/2+x,y,1/2+z
1/2-x,-y,1/2+z
1/2+x,-y,1/2-z
1/2-x,y,1/2-z
1/2-x,-y,1/2-z
1/2+x,y,1/2-z
1/2-x,y,1/2+z
1/2+x,-y,1/2+z
1/2+x,1/2+y,z
1/2-x,1/2-y,z
1/2+x,1/2-y,-z
1/2-x,1/2+y,-z
1/2-x,1/2-y,-z
1/2+x,1/2+y,-z
1/2-x,1/2+y,z
1/2+x,1/2-y,z
loop_
_atom_site_type_symbol
_atom_site_label
_atom_site_fract_x
_atom_site_fract_y
_atom_site_fract_z
Si Si1 0.621142 0.250000 0.250000
Si Si2 0.653023 0.122410 0.347925
Si Si3 0.000000 0.174885 0.342931
Si Si4 0.000000 0.000000 0.653693
Si Si5 0.000000 0.346270 0.587427
Si Si6 0.250383 0.500000 0.418595
Si Si7 0.150391 0.500000 0.221472
O O1 0.663381 0.210633 0.317188
O O2 0.567603 0.187799 0.210730
O O3 0.571835 0.119884 0.376350
O O4 0.666940 0.072728 0.274097
O O5 0.702059 0.078129 0.406662
O O6 0.000000 0.251759 0.395634
O O7 0.000000 0.088724 0.380973
O O8 0.068596 0.000000 0.703805
O O9 0.000000 0.360384 0.500000
O O10 0.281433 0.500000 0.500000
O O11 0.307989 0.500000 0.354503
#
# Coordination Sequence:
#
# PCOD9512069 Si02
#       7
#    16  32  16   8  16  16  16
#     4   9  16  32  57  92 124 146 200 252 292 347
#     4  10  19  36  64  91 124 163 200 248 303 366
#     4   9  18  30  54  90 124 154 193 249 297 346
#     4  12  18  36  67  84 109 154 208 258 294 354
#     4  10  20  35  59  97 136 159 192 250 316 375
#     4  11  25  43  58  85 130 166 201 258 321 373
#     4  11  22  38  62  94 114 155 211 261 298 365
#
# _framework density 20.643844999999999
#
# number of rings (size 3 to 8) (size 9 to 14) (size 15 to 20)
#    0.000    1.867    2.667    4.000    0.000    1.600 
#    0.000    8.000    0.000    1.600    0.000    0.000 
#    0.000    0.000    0.000    0.000    0.000    0.000 
#
# Total GULP energy -167137.963527 kJ/mol
# GULP energy per Si atom -5571.265451 kJ/mol
# Density = 2.059686 g / cm^3
# Si number density = 20.643845 Si / 1000 Ang^3
#
#
#
# Elastic Constant Matrix: (Units=GPa)
#
#
# Indices 1 2 3 4 5 6 
#
# 1 69.4339 15.6841 40.0874 0.0000 0.0000 0.0000
# 2 15.6841 90.4241 19.4476 0.0000 0.0000 0.0000
# 3 40.0874 19.4476 137.9154 0.0000 0.0000 0.0000
# 4 0.0000 0.0000 0.0000 17.3607 0.0000 0.0000
# 5 0.0000 0.0000 0.0000 0.0000 25.0094 0.0000
# 6 0.0000 0.0000 0.0000 0.0000 0.0000 -36.5246
#
#
#
# Elastic Compliance Matrix: (Units=1/GPa)
#
#
# Indices 1 2 3 4 5 6 
#
# 1 0.017657 -0.002020 -0.004847 0.000000 0.000000 0.000000
# 2 -0.002020 0.011636 -0.001054 0.000000 0.000000 0.000000
# 3 -0.004847 -0.001054 0.008808 0.000000 0.000000 0.000000
# 4 0.000000 0.000000 0.000000 0.057601 0.000000 0.000000
# 5 0.000000 0.000000 0.000000 0.000000 0.039985 0.000000
# 6 0.000000 0.000000 0.000000 0.000000 0.000000 -0.027379
#
#
# Mechanical properties :
#
#
# Convention : Reuss Voigt Hill
#
# Bulk Modulus (GPa) = 44.92535 49.80127 47.36331
# Shear Modulus (GPa) = 38.00222 16.00606 27.00414
#
# Velocity S-wave (km/s) = 4.29517 2.78752 3.62069
# Velocity P-wave (km/s) = 6.81229 5.87680 6.36176
#
# Compressibility (1/GPa) = 0.02225915
#
# Stress axis : x y z
#
# Youngs Moduli (GPa) = 56.63421 85.94022 113.52798
#
# Poissons Ratio (x) = 0.17361 0.55033
# Poissons Ratio (y) = 0.11441 0.11962
# Poissons Ratio (z) = 0.27453 0.09055
#
# Static dielectric constant tensor:
#      x y z
#    x 1.763000 0.000000 0.000000 
#    y 0.000000 1.922880 0.000000 
#    z 0.000000 0.000000 1.721670 
# 
# From -- ./inp_files/24184.got.cif
#   From: 2010.05.17/outbox.cif.g08.bks.cpg/sg69_13_cif.got.tgz:24184.got - 2010.06.03 19:29:58.
