data_PCOD9512755
_publ_section_title
;
Structure prediction by ZEFSAII (Michael W. Deem and Ramdas Pophale) SiO2 
 PCOD9512755
Probable space group: F M M M
;
_chemical_formula_sum "Si O2"
_cell_formula_units_Z 144
_cell_length_a 23.881327
_cell_length_b 15.509042
_cell_length_c 19.944461
_cell_angle_alpha 90.000000
_cell_angle_beta 90.000000
_cell_angle_gamma 90.000000
_cell_volume 7386.959729
_symmetry_space_group_name_H-M "F M M M"
_symmetry_group_IT_number 69
_symmetry_cell_setting 'orthorhombic'
loop_
_space_group_symop_operation_xyz
x,y,z
-x,-y,z
x,-y,-z
-x,y,-z
-x,-y,-z
x,y,-z
-x,y,z
x,-y,z
x,1/2+y,1/2+z
-x,1/2-y,1/2+z
x,1/2-y,1/2-z
-x,1/2+y,1/2-z
-x,1/2-y,1/2-z
x,1/2+y,1/2-z
-x,1/2+y,1/2+z
x,1/2-y,1/2+z
1/2+x,y,1/2+z
1/2-x,-y,1/2+z
1/2+x,-y,1/2-z
1/2-x,y,1/2-z
1/2-x,-y,1/2-z
1/2+x,y,1/2-z
1/2-x,y,1/2+z
1/2+x,-y,1/2+z
1/2+x,1/2+y,z
1/2-x,1/2-y,z
1/2+x,1/2-y,-z
1/2-x,1/2+y,-z
1/2-x,1/2-y,-z
1/2+x,1/2+y,-z
1/2-x,1/2+y,z
1/2+x,1/2-y,z
loop_
_atom_site_type_symbol
_atom_site_label
_atom_site_fract_x
_atom_site_fract_y
_atom_site_fract_z
Si Si1 0.850281 0.500000 0.725646
Si Si2 0.000000 0.596029 0.918822
Si Si3 0.914144 0.759198 0.422089
Si Si4 0.434554 0.660519 0.790215
Si Si5 0.263685 0.500000 0.349387
Si Si6 0.712186 0.823096 0.077904
O O1 0.890827 0.416045 0.725260
O O2 0.803069 0.500000 0.666720
O O3 0.807147 0.500000 0.787563
O O4 0.052445 0.654747 0.900759
O O5 0.000000 0.500000 0.890744
O O6 0.000000 0.589094 0.000000
O O7 0.928540 0.738787 0.500000
O O8 0.928625 0.685806 0.368860
O O9 0.850013 0.786303 0.419394
O O10 0.500000 0.637787 0.776333
O O11 0.422254 0.750000 0.750000
O O12 0.278874 0.414179 0.388990
O O13 0.750000 0.750000 0.111195
O O14 0.728291 0.832717 0.000000
#
# Coordination Sequence:
#
# PCOD9512755 Si02
#       6
#    16  16  32  32  16  32
#     4  11  25  42  62  85 116 159 211 248 297 360
#     4   9  18  32  53  87 121 153 194 237 288 356
#     4  10  20  37  61  88 123 161 198 243 299 363
#     4  11  23  42  63  89 122 158 196 253 308 360
#     4  11  23  40  62  86 117 160 202 250 293 362
#     4  10  21  37  60  91 123 154 193 245 302 358
#
# _framework density 19.493811000000001
#
# number of rings (size 3 to 8) (size 9 to 14) (size 15 to 20)
#    0.000    1.667    1.111    3.333    1.556    0.000 
#    2.000    3.889    0.000    1.333    0.000    0.000 
#    0.000    0.000    0.000    0.000    0.000    0.000 
#
# Total GULP energy -200909.462352 kJ/mol
# GULP energy per Si atom -5580.818399 kJ/mol
# Density = 1.944944 g / cm^3
# Si number density = 19.493811 Si / 1000 Ang^3
#
#
#
# Elastic Constant Matrix: (Units=GPa)
#
#
# Indices 1 2 3 4 5 6 
#
# 1 117.8455 60.8038 28.4681 0.0000 0.0000 0.0000
# 2 60.8038 105.3592 29.4140 0.0000 0.0000 0.0000
# 3 28.4681 29.4140 57.6021 0.0000 0.0000 0.0000
# 4 0.0000 0.0000 0.0000 36.6788 0.0000 0.0000
# 5 0.0000 0.0000 0.0000 0.0000 47.6465 0.0000
# 6 0.0000 0.0000 0.0000 0.0000 0.0000 17.2293
#
#
#
# Elastic Compliance Matrix: (Units=1/GPa)
#
#
# Indices 1 2 3 4 5 6 
#
# 1 0.012487 -0.006395 -0.002906 0.000000 0.000000 0.000000
# 2 -0.006395 0.014345 -0.004164 0.000000 0.000000 0.000000
# 3 -0.002906 -0.004164 0.020923 0.000000 0.000000 0.000000
# 4 0.000000 0.000000 0.000000 0.027264 0.000000 0.000000
# 5 0.000000 0.000000 0.000000 0.000000 0.020988 0.000000
# 6 0.000000 0.000000 0.000000 0.000000 0.000000 0.058041
#
#
# Mechanical properties :
#
#
# Convention : Reuss Voigt Hill
#
# Bulk Modulus (GPa) = 48.02086 57.57542 52.79814
# Shear Modulus (GPa) = 26.60711 31.11899 28.86305
#
# Velocity S-wave (km/s) = 3.69846 3.99977 3.85207
# Velocity P-wave (km/s) = 6.55176 7.13654 6.85039
#
# Compressibility (1/GPa) = 0.02082428
#
# Stress axis : x y z
#
# Youngs Moduli (GPa) = 80.08065 69.71186 47.79418
#
# Poissons Ratio (x) = 0.44583 0.13888
# Poissons Ratio (y) = 0.51215 0.19903
# Poissons Ratio (z) = 0.23270 0.29030
#
# Static dielectric constant tensor:
#      x y z
#    x 1.667530 0.000000 0.000000 
#    y 0.000000 1.643170 0.000000 
#    z 0.000000 0.000000 1.734120 
# 
# From -- ./inp_files/31708.got.cif
#   From: 2010.05.17/outbox.cif.g08.bks.cpg/sg69_16_cif.got.tgz:31708.got - 2010.06.03 19:29:58.
