data_PCOD9512896
_publ_section_title
;
Structure prediction by ZEFSAII (Michael W. Deem and Ramdas Pophale) SiO2 
 PCOD9512896
Probable space group: F M M M
;
_chemical_formula_sum "Si O2"
_cell_formula_units_Z 160
_cell_length_a 33.485202
_cell_length_b 10.930762
_cell_length_c 26.408072
_cell_angle_alpha 90.000000
_cell_angle_beta 90.000000
_cell_angle_gamma 90.000000
_cell_volume 9665.850126
_symmetry_space_group_name_H-M "F M M M"
_symmetry_group_IT_number 69
_symmetry_cell_setting 'orthorhombic'
loop_
_space_group_symop_operation_xyz
x,y,z
-x,-y,z
x,-y,-z
-x,y,-z
-x,-y,-z
x,y,-z
-x,y,z
x,-y,z
x,1/2+y,1/2+z
-x,1/2-y,1/2+z
x,1/2-y,1/2-z
-x,1/2+y,1/2-z
-x,1/2-y,1/2-z
x,1/2+y,1/2-z
-x,1/2+y,1/2+z
x,1/2-y,1/2+z
1/2+x,y,1/2+z
1/2-x,-y,1/2+z
1/2+x,-y,1/2-z
1/2-x,y,1/2-z
1/2-x,-y,1/2-z
1/2+x,y,1/2-z
1/2-x,y,1/2+z
1/2+x,-y,1/2+z
1/2+x,1/2+y,z
1/2-x,1/2-y,z
1/2+x,1/2-y,-z
1/2-x,1/2+y,-z
1/2-x,1/2-y,-z
1/2+x,1/2+y,-z
1/2-x,1/2+y,z
1/2+x,1/2-y,z
loop_
_atom_site_type_symbol
_atom_site_label
_atom_site_fract_x
_atom_site_fract_y
_atom_site_fract_z
Si Si1 0.452036 0.000000 0.439778
Si Si2 0.574485 0.797358 0.636383
Si Si3 0.158986 0.258080 0.311227
Si Si4 0.300389 0.000000 0.187954
Si Si5 0.454770 0.144768 0.945068
Si Si6 0.000000 0.642663 0.291525
Si Si7 0.208508 0.000000 0.189341
O O1 0.431076 0.112567 0.411430
O O2 0.500000 0.000000 0.429273
O O3 0.447118 0.000000 0.500000
O O4 0.616329 0.790117 0.664575
O O5 0.566839 0.671609 0.607257
O O6 0.539475 0.835577 0.674718
O O7 0.155209 0.250000 0.250000
O O8 0.176919 0.125515 0.326732
O O9 0.187407 0.372504 0.325440
O O10 0.254215 0.000000 0.171225
O O11 0.295695 0.000000 0.249293
O O12 0.500000 0.196379 0.941320
O O13 0.457742 0.000000 0.948641
O O14 0.438323 0.187389 0.000000
O O15 0.000000 0.750000 0.250000
O O16 0.000000 0.500000 0.273764
#
# Coordination Sequence:
#
# PCOD9512896 Si02
#       7
#    16  32  32  16  32  16  16
#     4  11  21  36  60  80 101 139 194 245 292 321
#     4  12  20  36  53  76 111 142 186 227 278 320
#     4  10  21  33  51  79 113 148 181 223 268 323
#     4   9  18  34  54  79 100 143 184 220 276 335
#     4   9  18  32  51  74 101 136 182 232 283 326
#     4  12  26  42  54  73 108 160 201 230 256 324
#     4   9  17  34  56  73 105 139 184 231 276 319
#
# _framework density 16.553122999999999
#
# number of rings (size 3 to 8) (size 9 to 14) (size 15 to 20)
#    0.000    1.700    3.000    3.000    1.400    4.800 
#    3.600    0.000    0.000    0.000    0.000    0.000 
#    0.000   33.600    0.000    0.000    0.000    0.000 
#
# Total GULP energy -222716.901416 kJ/mol
# GULP energy per Si atom -5567.922535 kJ/mol
# Density = 1.651545 g / cm^3
# Si number density = 16.553123 Si / 1000 Ang^3
#
#
#
# Elastic Constant Matrix: (Units=GPa)
#
#
# Indices 1 2 3 4 5 6 
#
# 1 133.0219 62.6785 38.1236 0.0000 0.0000 0.0000
# 2 62.6785 127.9806 41.2055 0.0000 0.0000 0.0000
# 3 38.1236 41.2055 62.0319 0.0000 0.0000 0.0000
# 4 0.0000 0.0000 0.0000 12.8419 0.0000 0.0000
# 5 0.0000 0.0000 0.0000 0.0000 9.1199 0.0000
# 6 0.0000 0.0000 0.0000 0.0000 0.0000 18.3653
#
#
#
# Elastic Compliance Matrix: (Units=1/GPa)
#
#
# Indices 1 2 3 4 5 6 
#
# 1 0.010447 -0.003879 -0.003844 0.000000 0.000000 0.000000
# 2 -0.003879 0.011380 -0.005175 0.000000 0.000000 0.000000
# 3 -0.003844 -0.005175 0.021921 0.000000 0.000000 0.000000
# 4 0.000000 0.000000 0.000000 0.077870 0.000000 0.000000
# 5 0.000000 0.000000 0.000000 0.000000 0.109650 0.000000
# 6 0.000000 0.000000 0.000000 0.000000 0.000000 0.054450
#
#
# Mechanical properties :
#
#
# Convention : Reuss Voigt Hill
#
# Bulk Modulus (GPa) = 55.70571 67.44994 61.57783
# Shear Modulus (GPa) = 15.74815 20.13387 17.94101
#
# Velocity S-wave (km/s) = 3.08777 3.49136 3.29575
# Velocity P-wave (km/s) = 6.81456 7.55571 7.19469
#
# Compressibility (1/GPa) = 0.01795148
#
# Stress axis : x y z
#
# Youngs Moduli (GPa) = 95.72280 87.87711 45.61867
#
# Poissons Ratio (x) = 0.34085 0.17536
# Poissons Ratio (y) = 0.37128 0.23609
# Poissons Ratio (z) = 0.36795 0.45478
#
# Static dielectric constant tensor:
#      x y z
#    x 1.557320 0.000000 0.000000 
#    y 0.000000 1.827930 0.000000 
#    z 0.000000 0.000000 1.553210 
# 
# From -- ./inp_files/43534.got.cif
#   From: 2010.05.17/outbox.cif.g08.bks.cpg/sg69_22_cif.got.tgz:43534.got - 2010.06.03 19:29:58.
