data_PCOD9512443
_publ_section_title
;
Structure prediction by ZEFSAII (Michael W. Deem and Ramdas Pophale) SiO2 
 PCOD9512443
Probable space group: F M M M
;
_chemical_formula_sum "Si O2"
_cell_formula_units_Z 144
_cell_length_a 32.654456
_cell_length_b 27.088932
_cell_length_c 9.640889
_cell_angle_alpha 90.000000
_cell_angle_beta 90.000000
_cell_angle_gamma 90.000000
_cell_volume 8528.083006
_symmetry_space_group_name_H-M "F M M M"
_symmetry_group_IT_number 69
_symmetry_cell_setting 'orthorhombic'
loop_
_space_group_symop_operation_xyz
x,y,z
-x,-y,z
x,-y,-z
-x,y,-z
-x,-y,-z
x,y,-z
-x,y,z
x,-y,z
x,1/2+y,1/2+z
-x,1/2-y,1/2+z
x,1/2-y,1/2-z
-x,1/2+y,1/2-z
-x,1/2-y,1/2-z
x,1/2+y,1/2-z
-x,1/2+y,1/2+z
x,1/2-y,1/2+z
1/2+x,y,1/2+z
1/2-x,-y,1/2+z
1/2+x,-y,1/2-z
1/2-x,y,1/2-z
1/2-x,-y,1/2-z
1/2+x,y,1/2-z
1/2-x,y,1/2+z
1/2+x,-y,1/2+z
1/2+x,1/2+y,z
1/2-x,1/2-y,z
1/2+x,1/2-y,-z
1/2-x,1/2+y,-z
1/2-x,1/2-y,-z
1/2+x,1/2+y,-z
1/2-x,1/2+y,z
1/2+x,1/2-y,z
loop_
_atom_site_type_symbol
_atom_site_label
_atom_site_fract_x
_atom_site_fract_y
_atom_site_fract_z
Si Si1 0.922989 0.057977 0.157623
Si Si2 0.311597 0.442971 0.500000
Si Si3 0.500000 0.559833 0.342585
Si Si4 0.160448 0.895681 0.231572
Si Si5 0.781198 0.060179 0.000000
Si Si6 0.792446 0.698168 0.828131
O O1 0.883817 0.093496 0.168658
O O2 0.958849 0.073509 0.261219
O O3 0.911254 0.000000 0.184641
O O4 0.938651 0.059146 0.000000
O O5 0.303829 0.500000 0.500000
O O6 0.336861 0.428082 0.631745
O O7 0.265647 0.421011 0.500000
O O8 0.500000 0.500000 0.344345
O O9 0.500000 0.577830 0.500000
O O10 0.173478 0.841386 0.281942
O O11 0.194915 0.917772 0.130372
O O12 0.783581 0.000000 0.000000
O O13 0.801577 0.750000 0.750000
O O14 0.750000 0.682548 0.750000
O O15 0.789052 0.701742 0.000000
#
# Coordination Sequence:
#
# PCOD9512443 Si02
#       6
#    32  16  16  32  16  32
#     4  10  20  35  54  78 111 150 188 225 271 332
#     4  11  22  34  49  74 112 150 184 228 269 323
#     4   9  19  33  53  79 108 143 182 229 279 327
#     4  12  23  35  55  80 109 146 193 233 278 330
#     4  11  22  36  51  74 110 154 192 222 267 325
#     4  11  24  40  60  81 105 142 190 245 297 338
#
# _framework density 16.885389
#
# number of rings (size 3 to 8) (size 9 to 14) (size 15 to 20)
#    0.000    1.222    2.222    5.667    4.667    3.111 
#    0.000    0.000    0.000    0.000    0.000    0.778 
#    0.000    0.000    0.000    0.000    0.000    0.000 
#
# Total GULP energy -200699.531033 kJ/mol
# GULP energy per Si atom -5574.986973 kJ/mol
# Density = 1.684696 g / cm^3
# Si number density = 16.885389 Si / 1000 Ang^3
#
#
#
# Elastic Constant Matrix: (Units=GPa)
#
#
# Indices 1 2 3 4 5 6 
#
# 1 65.5774 26.4844 24.3479 -0.0002 0.0001 0.0001
# 2 26.4844 64.7175 27.6421 -0.0011 0.0006 0.0002
# 3 24.3479 27.6421 131.9887 -0.0031 0.0011 0.0003
# 4 -0.0002 -0.0011 -0.0031 20.8915 0.0003 0.0003
# 5 0.0001 0.0006 0.0011 0.0003 41.9310 0.0001
# 6 0.0001 0.0002 0.0003 0.0003 0.0001 18.1398
#
#
#
# Elastic Compliance Matrix: (Units=1/GPa)
#
#
# Indices 1 2 3 4 5 6 
#
# 1 0.018753 -0.006805 -0.002034 -0.000001 0.000000 0.000000
# 2 -0.006805 0.019439 -0.002816 0.000001 0.000000 0.000000
# 3 -0.002034 -0.002816 0.008541 0.000001 0.000000 0.000000
# 4 -0.000001 0.000001 0.000001 0.047866 0.000000 -0.000001
# 5 0.000000 0.000000 0.000000 0.000000 0.023849 0.000000
# 6 0.000000 0.000000 0.000000 -0.000001 0.000000 0.055127
#
#
# Mechanical properties :
#
#
# Convention : Reuss Voigt Hill
#
# Bulk Modulus (GPa) = 42.69300 46.58137 44.63719
# Shear Modulus (GPa) = 24.42667 28.44642 26.43654
#
# Velocity S-wave (km/s) = 3.80757 4.10893 3.96112
# Velocity P-wave (km/s) = 6.68348 7.08222 6.88574
#
# Compressibility (1/GPa) = 0.02342304
#
# Stress axis : x y z
#
# Youngs Moduli (GPa) = 53.32520 51.44185 117.07784
#
# Poissons Ratio (x) = 0.35009 0.23815
# Poissons Ratio (y) = 0.36290 0.32966
# Poissons Ratio (z) = 0.10847 0.14485
#
# Static dielectric constant tensor:
#      x y z
#    x 1.564640 0.000000 0.000000 
#    y 0.000000 1.583990 0.000000 
#    z 0.000000 0.000000 1.555990 
# 
# From -- ./inp_files/5673.got.cif
#   From: 2010.05.17/outbox.cif.g08.bks.cpg/sg69_3_cif.got.tgz:5673.got - 2010.06.03 19:29:58.
