data_PCOD9512415
_publ_section_title
;
Structure prediction by ZEFSAII (Michael W. Deem and Ramdas Pophale) SiO2 
 PCOD9512415
Probable space group: F M M M
;
_chemical_formula_sum "Si O2"
_cell_formula_units_Z 160
_cell_length_a 21.761364
_cell_length_b 25.170992
_cell_length_c 13.823532
_cell_angle_alpha 90.000000
_cell_angle_beta 90.000000
_cell_angle_gamma 90.000000
_cell_volume 7571.910418
_symmetry_space_group_name_H-M "F M M M"
_symmetry_group_IT_number 69
_symmetry_cell_setting 'orthorhombic'
loop_
_space_group_symop_operation_xyz
x,y,z
-x,-y,z
x,-y,-z
-x,y,-z
-x,-y,-z
x,y,-z
-x,y,z
x,-y,z
x,1/2+y,1/2+z
-x,1/2-y,1/2+z
x,1/2-y,1/2-z
-x,1/2+y,1/2-z
-x,1/2-y,1/2-z
x,1/2+y,1/2-z
-x,1/2+y,1/2+z
x,1/2-y,1/2+z
1/2+x,y,1/2+z
1/2-x,-y,1/2+z
1/2+x,-y,1/2-z
1/2-x,y,1/2-z
1/2-x,-y,1/2-z
1/2+x,y,1/2-z
1/2-x,y,1/2+z
1/2+x,-y,1/2+z
1/2+x,1/2+y,z
1/2-x,1/2-y,z
1/2+x,1/2-y,-z
1/2-x,1/2+y,-z
1/2-x,1/2-y,-z
1/2+x,1/2+y,-z
1/2-x,1/2+y,z
1/2+x,1/2-y,z
loop_
_atom_site_type_symbol
_atom_site_label
_atom_site_fract_x
_atom_site_fract_y
_atom_site_fract_z
Si Si1 0.430348 0.198840 0.387916
Si Si2 0.750000 0.146805 0.250000
Si Si3 0.156281 0.438833 0.682892
Si Si4 0.844253 0.702030 0.109075
Si Si5 0.930321 0.063097 0.000000
Si Si6 0.070120 0.621951 0.799776
O O1 0.422092 0.179347 0.500000
O O2 0.500000 0.222136 0.384910
O O3 0.377774 0.242254 0.370806
O O4 0.428482 0.157931 0.298939
O O5 0.791408 0.105943 0.187396
O O6 0.792550 0.183380 0.316576
O O7 0.177926 0.500000 0.678993
O O8 0.111506 0.428006 0.593038
O O9 0.113516 0.427833 0.776219
O O10 0.898119 0.658276 0.120166
O O11 0.820055 0.703143 0.000000
O O12 0.000000 0.086058 0.000000
O O13 0.939470 0.000000 0.000000
O O14 0.000000 0.608123 0.819391
#
# Coordination Sequence:
#
# PCOD9512415 Si02
#       6
#    32  16  32  32  16  32
#     4   9  18  34  59  89 120 151 184 231 288 344
#     4  10  23  40  61  82 108 154 206 240 276 338
#     4  10  21  37  57  82 115 153 191 238 289 341
#     4  10  21  38  58  82 113 150 193 238 282 337
#     4   9  18  32  54  84 111 140 181 235 300 351
#     4  10  20  34  58  89 118 149 187 233 284 348
#
# _framework density 21.130731999999998
#
# number of rings (size 3 to 8) (size 9 to 14) (size 15 to 20)
#    0.000    2.300    0.000    2.100    2.800    4.000 
#    0.000    8.000    0.000   22.200    0.000    5.600 
#    0.000    0.000    0.000    0.000    0.000    0.000 
#
# Total GULP energy -223342.486198 kJ/mol
# GULP energy per Si atom -5583.562155 kJ/mol
# Density = 2.108264 g / cm^3
# Si number density = 21.130732 Si / 1000 Ang^3
#
#
#
# Elastic Constant Matrix: (Units=GPa)
#
#
# Indices 1 2 3 4 5 6 
#
# 1 109.8263 43.2677 30.3246 0.0000 0.0000 0.0000
# 2 43.2677 82.2642 32.2379 0.0000 0.0000 0.0000
# 3 30.3246 32.2379 70.5207 0.0000 0.0000 0.0000
# 4 0.0000 0.0000 0.0000 -21.8391 0.0000 0.0000
# 5 0.0000 0.0000 0.0000 0.0000 25.3228 0.0000
# 6 0.0000 0.0000 0.0000 0.0000 0.0000 27.2830
#
#
#
# Elastic Compliance Matrix: (Units=1/GPa)
#
#
# Indices 1 2 3 4 5 6 
#
# 1 0.011907 -0.005185 -0.002750 0.000000 0.000000 0.000000
# 2 -0.005185 0.017067 -0.005572 0.000000 0.000000 0.000000
# 3 -0.002750 -0.005572 0.017910 0.000000 0.000000 0.000000
# 4 0.000000 0.000000 0.000000 -0.045789 0.000000 0.000000
# 5 0.000000 0.000000 0.000000 0.000000 0.039490 0.000000
# 6 0.000000 0.000000 0.000000 0.000000 0.000000 0.036653
#
#
# Mechanical properties :
#
#
# Convention : Reuss Voigt Hill
#
# Bulk Modulus (GPa) = 50.32838 52.69684 51.51261
# Shear Modulus (GPa) = 45.09558 16.60541 30.85050
#
# Velocity S-wave (km/s) = 4.62467 2.80633 3.82512
# Velocity P-wave (km/s) = 7.23782 5.95762 6.62870
#
# Compressibility (1/GPa) = 0.01986950
#
# Stress axis : x y z
#
# Youngs Moduli (GPa) = 83.98174 58.59324 55.83464
#
# Poissons Ratio (x) = 0.30381 0.15354
# Poissons Ratio (y) = 0.43546 0.31113
# Poissons Ratio (z) = 0.23094 0.32650
#
# Static dielectric constant tensor:
#      x y z
#    x 1.784620 0.000000 0.000000 
#    y 0.000000 1.792370 0.000000 
#    z 0.000000 0.000000 1.771280 
# 
# From -- ./inp_files/18015.got.cif
#   From: 2010.05.17/outbox.cif.g08.bks.cpg/sg69_10_cif.got.tgz:18015.got - 2010.06.03 19:29:58.
