data_PCOD9512876
_publ_section_title
;
Structure prediction by ZEFSAII (Michael W. Deem and Ramdas Pophale) SiO2 
 PCOD9512876
Probable space group: F M M M
;
_chemical_formula_sum "Si O2"
_cell_formula_units_Z 128
_cell_length_a 17.349774
_cell_length_b 20.936372
_cell_length_c 17.793195
_cell_angle_alpha 90.000000
_cell_angle_beta 90.000000
_cell_angle_gamma 90.000000
_cell_volume 6463.223685
_symmetry_space_group_name_H-M "F M M M"
_symmetry_group_IT_number 69
_symmetry_cell_setting 'orthorhombic'
loop_
_space_group_symop_operation_xyz
x,y,z
-x,-y,z
x,-y,-z
-x,y,-z
-x,-y,-z
x,y,-z
-x,y,z
x,-y,z
x,1/2+y,1/2+z
-x,1/2-y,1/2+z
x,1/2-y,1/2-z
-x,1/2+y,1/2-z
-x,1/2-y,1/2-z
x,1/2+y,1/2-z
-x,1/2+y,1/2+z
x,1/2-y,1/2+z
1/2+x,y,1/2+z
1/2-x,-y,1/2+z
1/2+x,-y,1/2-z
1/2-x,y,1/2-z
1/2-x,-y,1/2-z
1/2+x,y,1/2-z
1/2-x,y,1/2+z
1/2+x,-y,1/2+z
1/2+x,1/2+y,z
1/2-x,1/2-y,z
1/2+x,1/2-y,-z
1/2-x,1/2+y,-z
1/2-x,1/2-y,-z
1/2+x,1/2+y,-z
1/2-x,1/2+y,z
1/2+x,1/2-y,z
loop_
_atom_site_type_symbol
_atom_site_label
_atom_site_fract_x
_atom_site_fract_y
_atom_site_fract_z
Si Si1 0.157022 0.750132 0.500000
Si Si2 0.644949 0.869791 0.415610
Si Si3 0.408492 0.107292 0.000000
Si Si4 0.415795 0.076914 0.734508
Si Si5 0.195543 0.426372 0.136883
O O1 0.250000 0.750000 0.500000
O O2 0.133703 0.705760 0.570898
O O3 0.118871 0.818699 0.500000
O O4 0.632162 0.897344 0.500000
O O5 0.594192 0.898005 0.349643
O O6 0.732547 0.885673 0.391983
O O7 0.369824 0.076116 0.073113
O O8 0.500000 0.101550 0.000000
O O9 0.500000 0.096253 0.764407
O O10 0.345165 0.097723 0.787258
O O11 0.413111 0.000000 0.734147
O O12 0.221492 0.500000 0.147281
#
# Coordination Sequence:
#
# PCOD9512876 Si02
#       5
#    16  32  16  32  32
#     4  10  20  42  60  82 113 153 202 247 293 335
#     4  10  21  37  66  84 116 153 207 244 291 349
#     4  12  23  37  62  88 119 159 199 245 296 352
#     4  10  22  38  56  88 129 159 189 239 299 355
#     4  11  21  37  61  91 124 155 194 242 298 364
#
# _framework density 19.804358000000001
#
# number of rings (size 3 to 8) (size 9 to 14) (size 15 to 20)
#    0.750    0.750    3.750    2.625    0.000    7.000 
#    0.000    2.500    0.000    3.000    0.000    0.000 
#    0.000    0.000    0.000    0.000    0.000    0.000 
#
# Total GULP energy -178521.209377 kJ/mol
# GULP energy per Si atom -5578.787793 kJ/mol
# Density = 1.975928 g / cm^3
# Si number density = 19.804358 Si / 1000 Ang^3
#
#
#
# Elastic Constant Matrix: (Units=GPa)
#
#
# Indices 1 2 3 4 5 6 
#
# 1 53.6709 3.1037 -4.5171 0.0000 0.0000 0.0000
# 2 3.1037 48.4582 3.1013 0.0000 0.0000 0.0000
# 3 -4.5171 3.1013 91.0423 0.0000 0.0000 0.0000
# 4 0.0000 0.0000 0.0000 164.1719 0.0000 0.0000
# 5 0.0000 0.0000 0.0000 0.0000 28.8628 0.0000
# 6 0.0000 0.0000 0.0000 0.0000 0.0000 18.6080
#
#
#
# Elastic Compliance Matrix: (Units=1/GPa)
#
#
# Indices 1 2 3 4 5 6 
#
# 1 0.018787 -0.001266 0.000975 0.000000 0.000000 0.000000
# 2 -0.001266 0.020767 -0.000770 0.000000 0.000000 0.000000
# 3 0.000975 -0.000770 0.011059 0.000000 0.000000 0.000000
# 4 0.000000 0.000000 0.000000 0.006091 0.000000 0.000000
# 5 0.000000 0.000000 0.000000 0.000000 0.034647 0.000000
# 6 0.000000 0.000000 0.000000 0.000000 0.000000 0.053740
#
#
# Mechanical properties :
#
#
# Convention : Reuss Voigt Hill
#
# Bulk Modulus (GPa) = 20.62230 21.83859 21.23044
# Shear Modulus (GPa) = 30.60426 55.09410 42.84918
#
# Velocity S-wave (km/s) = 3.93533 5.28011 4.65652
# Velocity P-wave (km/s) = 5.57537 6.94434 6.29717
#
# Compressibility (1/GPa) = 0.04849120
#
# Stress axis : x y z
#
# Youngs Moduli (GPa) = 53.22729 48.15405 90.42795
#
# Poissons Ratio (x) = 0.06095 -0.08819
# Poissons Ratio (y) = 0.06737 0.06965
# Poissons Ratio (z) = -0.05191 0.03709
#
# Static dielectric constant tensor:
#      x y z
#    x 1.714070 0.000000 0.000000 
#    y 0.000000 1.672370 0.000000 
#    z 0.000000 0.000000 1.710400 
# 
# From -- ./inp_files/29648.got.cif
#   From: 2010.05.17/outbox.cif.g08.bks.cpg/sg69_15_cif.got.tgz:29648.got - 2010.06.03 19:29:58.
