data_PCOD9512671
_publ_section_title
;
Structure prediction by ZEFSAII (Michael W. Deem and Ramdas Pophale) SiO2 
 PCOD9512671
Probable space group: F M M M
;
_chemical_formula_sum "Si O2"
_cell_formula_units_Z 144
_cell_length_a 16.219425
_cell_length_b 27.725090
_cell_length_c 17.132036
_cell_angle_alpha 90.000000
_cell_angle_beta 90.000000
_cell_angle_gamma 90.000000
_cell_volume 7704.019915
_symmetry_space_group_name_H-M "F M M M"
_symmetry_group_IT_number 69
_symmetry_cell_setting 'orthorhombic'
loop_
_space_group_symop_operation_xyz
x,y,z
-x,-y,z
x,-y,-z
-x,y,-z
-x,-y,-z
x,y,-z
-x,y,z
x,-y,z
x,1/2+y,1/2+z
-x,1/2-y,1/2+z
x,1/2-y,1/2-z
-x,1/2+y,1/2-z
-x,1/2-y,1/2-z
x,1/2+y,1/2-z
-x,1/2+y,1/2+z
x,1/2-y,1/2+z
1/2+x,y,1/2+z
1/2-x,-y,1/2+z
1/2+x,-y,1/2-z
1/2-x,y,1/2-z
1/2-x,-y,1/2-z
1/2+x,y,1/2-z
1/2-x,y,1/2+z
1/2+x,-y,1/2+z
1/2+x,1/2+y,z
1/2-x,1/2-y,z
1/2+x,1/2-y,-z
1/2-x,1/2+y,-z
1/2-x,1/2-y,-z
1/2+x,1/2+y,-z
1/2-x,1/2+y,z
1/2+x,1/2-y,z
loop_
_atom_site_type_symbol
_atom_site_label
_atom_site_fract_x
_atom_site_fract_y
_atom_site_fract_z
Si Si1 0.500000 0.444913 0.592606
Si Si2 0.855338 0.108525 0.678355
Si Si3 0.687696 0.137201 0.408892
Si Si4 0.597619 0.055613 0.328209
Si Si5 0.597293 0.198317 0.284497
O O1 0.500000 0.500000 0.624411
O O2 0.500000 0.447641 0.500000
O O3 0.579143 0.415784 0.621425
O O4 0.772271 0.120911 0.632835
O O5 0.851853 0.071642 0.751413
O O6 0.887922 0.157428 0.718983
O O7 0.698561 0.147410 0.500000
O O8 0.625276 0.092469 0.395024
O O9 0.649491 0.181273 0.359229
O O10 0.500000 0.062114 0.310975
O O11 0.612019 0.000000 0.347720
O O12 0.500000 0.199498 0.303793
O O13 0.621592 0.250000 0.250000
#
# Coordination Sequence:
#
# PCOD9512671 Si02
#       5
#    16  32  32  32  32
#     4  11  22  36  57  84 119 159 200 253 306 348
#     4  11  20  38  60  85 117 156 200 246 298 357
#     4  11  24  38  57  89 127 158 192 247 311 363
#     4  10  20  36  60  85 113 158 210 250 291 353
#     4  10  21  41  69  91 113 154 203 244 293 361
#
# _framework density 18.691541000000001
#
# number of rings (size 3 to 8) (size 9 to 14) (size 15 to 20)
#    0.000    1.444    2.222    6.000    0.000    6.667 
#    0.000    4.444    0.000    0.000    0.000    0.000 
#    0.000    0.000    0.000    0.000    0.000    0.000 
#
# Total GULP energy -201033.227240 kJ/mol
# GULP energy per Si atom -5584.256312 kJ/mol
# Density = 1.864900 g / cm^3
# Si number density = 18.691541 Si / 1000 Ang^3
#
#
#
# Elastic Constant Matrix: (Units=GPa)
#
#
# Indices 1 2 3 4 5 6 
#
# 1 105.4211 30.9064 48.0773 0.0000 0.0000 0.0000
# 2 30.9064 99.6578 24.7320 0.0000 0.0000 0.0000
# 3 48.0773 24.7320 102.4904 0.0000 0.0000 0.0000
# 4 0.0000 0.0000 0.0000 16.9163 0.0000 0.0000
# 5 0.0000 0.0000 0.0000 0.0000 3.6852 0.0000
# 6 0.0000 0.0000 0.0000 0.0000 0.0000 8.5661
#
#
#
# Elastic Compliance Matrix: (Units=1/GPa)
#
#
# Indices 1 2 3 4 5 6 
#
# 1 0.012676 -0.002612 -0.005316 0.000000 0.000000 0.000000
# 2 -0.002612 0.011212 -0.001480 0.000000 0.000000 0.000000
# 3 -0.005316 -0.001480 0.012608 0.000000 0.000000 0.000000
# 4 0.000000 0.000000 0.000000 0.059115 0.000000 0.000000
# 5 0.000000 0.000000 0.000000 0.000000 0.271355 0.000000
# 6 0.000000 0.000000 0.000000 0.000000 0.000000 0.116739
#
#
# Mechanical properties :
#
#
# Convention : Reuss Voigt Hill
#
# Bulk Modulus (GPa) = 56.56317 57.22230 56.89273
# Shear Modulus (GPa) = 9.83452 19.42376 14.62914
#
# Velocity S-wave (km/s) = 2.29628 3.22712 2.80064
# Velocity P-wave (km/s) = 6.11209 6.67579 6.40015
#
# Compressibility (1/GPa) = 0.01767935
#
# Stress axis : x y z
#
# Youngs Moduli (GPa) = 78.89063 89.19248 79.31580
#
# Poissons Ratio (x) = 0.23296 0.42163
# Poissons Ratio (y) = 0.20605 0.11741
# Poissons Ratio (z) = 0.41937 0.13203
#
# Static dielectric constant tensor:
#      x y z
#    x 1.669750 0.000000 0.000000 
#    y 0.000000 1.642980 0.000000 
#    z 0.000000 0.000000 1.635460 
# 
# From -- ./inp_files/21729.got.cif
#   From: 2010.05.17/outbox.cif.g08.bks.cpg/sg69_11_cif.got.tgz:21729.got - 2010.06.03 19:29:58.
