data_PCOD9512170
_publ_section_title
;
Structure prediction by ZEFSAII (Michael W. Deem and Ramdas Pophale) SiO2 
 PCOD9512170
Probable space group: F M M M
;
_chemical_formula_sum "Si O2"
_cell_formula_units_Z 176
_cell_length_a 20.896505
_cell_length_b 18.716428
_cell_length_c 18.562592
_cell_angle_alpha 90.000000
_cell_angle_beta 90.000000
_cell_angle_gamma 90.000000
_cell_volume 7259.976956
_symmetry_space_group_name_H-M "F M M M"
_symmetry_group_IT_number 69
_symmetry_cell_setting 'orthorhombic'
loop_
_space_group_symop_operation_xyz
x,y,z
-x,-y,z
x,-y,-z
-x,y,-z
-x,-y,-z
x,y,-z
-x,y,z
x,-y,z
x,1/2+y,1/2+z
-x,1/2-y,1/2+z
x,1/2-y,1/2-z
-x,1/2+y,1/2-z
-x,1/2-y,1/2-z
x,1/2+y,1/2-z
-x,1/2+y,1/2+z
x,1/2-y,1/2+z
1/2+x,y,1/2+z
1/2-x,-y,1/2+z
1/2+x,-y,1/2-z
1/2-x,y,1/2-z
1/2-x,-y,1/2-z
1/2+x,y,1/2-z
1/2-x,y,1/2+z
1/2+x,-y,1/2+z
1/2+x,1/2+y,z
1/2-x,1/2-y,z
1/2+x,1/2-y,-z
1/2-x,1/2+y,-z
1/2-x,1/2-y,-z
1/2+x,1/2+y,-z
1/2-x,1/2+y,z
1/2+x,1/2-y,z
loop_
_atom_site_type_symbol
_atom_site_label
_atom_site_fract_x
_atom_site_fract_y
_atom_site_fract_z
Si Si1 0.924035 0.084660 0.500000
Si Si2 0.423023 0.582413 0.660554
Si Si3 0.895196 0.159577 0.917420
Si Si4 0.857663 0.281348 0.822695
Si Si5 0.257401 0.000000 0.334910
Si Si6 0.259287 0.859336 0.916464
Si Si7 0.108468 0.500000 0.586264
O O1 0.903981 0.107347 0.579100
O O2 0.000000 0.096096 0.500000
O O3 0.912590 0.000000 0.500000
O O4 0.500000 0.583147 0.665339
O O5 0.403893 0.500000 0.674316
O O6 0.392214 0.646021 0.704557
O O7 0.905261 0.224709 0.862054
O O8 0.817561 0.150294 0.915216
O O9 0.922039 0.079038 0.902591
O O10 0.912930 0.178864 0.000000
O O11 0.829224 0.250000 0.750000
O O12 0.801754 0.300203 0.878306
O O13 0.250000 0.000000 0.250000
O O14 0.227813 0.930566 0.371261
O O15 0.330981 0.000000 0.360866
O O16 0.277160 0.866750 0.000000
O O17 0.127242 0.500000 0.500000
#
# Coordination Sequence:
#
# PCOD9512170 Si02
#       7
#    16  32  32  32  16  32  16
#     4   7  12  28  58  86 105 133 177 225 280 354
#     4   9  20  41  63  84 115 152 189 239 311 378
#     4   9  19  38  59  80 112 160 206 244 292 348
#     4  12  26  35  54  91 119 152 195 252 300 361
#     4  10  20  32  58  84 109 158 204 259 297 338
#     4  10  22  39  57  81 122 168 205 243 298 364
#     4   8  16  34  58  74 101 152 206 242 281 346
#
# _framework density 24.242502000000002
#
# number of rings (size 3 to 8) (size 9 to 14) (size 15 to 20)
#    0.000    2.455    0.000    4.091    8.909    2.545 
#    1.636    0.000    0.000    0.000    0.000    0.000 
#    0.000    2.182    0.000    0.182    0.000    0.000 
#
# Total GULP energy -245732.027139 kJ/mol
# GULP energy per Si atom -5584.818799 kJ/mol
# Density = 2.418732 g / cm^3
# Si number density = 24.242502 Si / 1000 Ang^3
#
#
#
# Elastic Constant Matrix: (Units=GPa)
#
#
# Indices 1 2 3 4 5 6 
#
# 1 65.8813 28.0650 17.1839 0.0000 0.0000 0.0000
# 2 28.0650 164.4898 50.4973 0.0000 0.0000 0.0000
# 3 17.1839 50.4973 110.4888 0.0000 0.0000 0.0000
# 4 0.0000 0.0000 0.0000 26.8876 0.0000 0.0000
# 5 0.0000 0.0000 0.0000 0.0000 -2.2746 0.0000
# 6 0.0000 0.0000 0.0000 0.0000 0.0000 8.7308
#
#
#
# Elastic Compliance Matrix: (Units=1/GPa)
#
#
# Indices 1 2 3 4 5 6 
#
# 1 0.016578 -0.002369 -0.001495 0.000000 0.000000 0.000000
# 2 -0.002369 0.007410 -0.003018 0.000000 0.000000 0.000000
# 3 -0.001495 -0.003018 0.010663 0.000000 0.000000 0.000000
# 4 0.000000 0.000000 0.000000 0.037192 0.000000 0.000000
# 5 0.000000 0.000000 0.000000 0.000000 -0.439636 0.000000
# 6 0.000000 0.000000 0.000000 0.000000 0.000000 0.114537
#
#
# Mechanical properties :
#
#
# Convention : Reuss Voigt Hill
#
# Bulk Modulus (GPa) = 47.88132 59.15024 53.51578
# Shear Modulus (GPa) = -21.50273 23.00968 0.75348
#
# Velocity S-wave (km/s) = -2.98146 3.08416 0.55811
# Velocity P-wave (km/s) = 2.81811 6.09386 4.74747
#
# Compressibility (1/GPa) = 0.02088497
#
# Stress axis : x y z
#
# Youngs Moduli (GPa) = 60.32000 134.94804 93.78484
#
# Poissons Ratio (x) = 0.31976 0.14025
# Poissons Ratio (y) = 0.14293 0.28306
# Poissons Ratio (z) = 0.09020 0.40731
#
# Static dielectric constant tensor:
#      x y z
#    x 1.951000 0.000000 0.000000 
#    y 0.000000 1.922500 0.000000 
#    z 0.000000 0.000000 1.925260 
# 
# From -- ./inp_files/26820.got.cif
#   From: 2010.05.17/outbox.cif.g08.bks.cpg/sg69_14_cif.got.tgz:26820.got - 2010.06.03 19:29:58.
