data_PCOD9512956
_publ_section_title
;
Structure prediction by ZEFSAII (Michael W. Deem and Ramdas Pophale) SiO2 
 PCOD9512956
Probable space group: F M M M
;
_chemical_formula_sum "Si O2"
_cell_formula_units_Z 176
_cell_length_a 17.527193
_cell_length_b 23.026321
_cell_length_c 24.009627
_cell_angle_alpha 90.000000
_cell_angle_beta 90.000000
_cell_angle_gamma 90.000000
_cell_volume 9689.967864
_symmetry_space_group_name_H-M "F M M M"
_symmetry_group_IT_number 69
_symmetry_cell_setting 'orthorhombic'
loop_
_space_group_symop_operation_xyz
x,y,z
-x,-y,z
x,-y,-z
-x,y,-z
-x,-y,-z
x,y,-z
-x,y,z
x,-y,z
x,1/2+y,1/2+z
-x,1/2-y,1/2+z
x,1/2-y,1/2-z
-x,1/2+y,1/2-z
-x,1/2-y,1/2-z
x,1/2+y,1/2-z
-x,1/2+y,1/2+z
x,1/2-y,1/2+z
1/2+x,y,1/2+z
1/2-x,-y,1/2+z
1/2+x,-y,1/2-z
1/2-x,y,1/2-z
1/2-x,-y,1/2-z
1/2+x,y,1/2-z
1/2-x,y,1/2+z
1/2+x,-y,1/2+z
1/2+x,1/2+y,z
1/2-x,1/2-y,z
1/2+x,1/2-y,-z
1/2-x,1/2+y,-z
1/2-x,1/2-y,-z
1/2+x,1/2+y,-z
1/2-x,1/2+y,z
1/2+x,1/2-y,z
loop_
_atom_site_type_symbol
_atom_site_label
_atom_site_fract_x
_atom_site_fract_y
_atom_site_fract_z
Si Si1 0.411087 0.334683 0.063185
Si Si2 0.500000 0.570659 0.435933
Si Si3 0.410077 0.230640 0.327628
Si Si4 0.786017 0.567537 0.564135
Si Si5 0.838707 0.161809 0.266590
Si Si6 0.858498 0.930731 0.358450
O O1 0.500000 0.351215 0.069744
O O2 0.394547 0.286416 0.109125
O O3 0.356517 0.389555 0.071638
O O4 0.400241 0.313681 0.000000
O O5 0.500000 0.500000 0.438549
O O6 0.500000 0.591395 0.500000
O O7 0.573697 0.587784 0.400057
O O8 0.500000 0.244076 0.320657
O O9 0.387817 0.176062 0.288446
O O10 0.359355 0.284020 0.306685
O O11 0.757572 0.574253 0.500000
O O12 0.808115 0.500000 0.570342
O O13 0.720034 0.580255 0.608420
O O14 0.750000 0.161451 0.250000
O O15 0.859484 0.104568 0.301139
O O16 0.865191 0.000000 0.349113
#
# Coordination Sequence:
#
# PCOD9512956 Si02
#       6
#    32  16  32  32  32  32
#     4   9  18  34  56  82 111 142 181 233 287 329
#     4   9  18  34  56  81 112 150 187 226 278 338
#     4  10  21  37  58  77 105 146 184 228 273 332
#     4   9  17  31  52  78 110 147 184 221 271 335
#     4  11  22  36  57  79 107 144 189 224 264 334
#     4  10  21  35  56  82 113 146 182 232 282 330
#
# _framework density 18.163115000000001
#
# number of rings (size 3 to 8) (size 9 to 14) (size 15 to 20)
#    0.000    2.273    0.000    3.818    2.545    2.909 
#    0.000    4.545    0.000    5.455    0.000    0.000 
#    0.000    0.000    0.000    0.000    0.000    0.000 
#
# Total GULP energy -245448.498394 kJ/mol
# GULP energy per Si atom -5578.374963 kJ/mol
# Density = 1.812178 g / cm^3
# Si number density = 18.163115 Si / 1000 Ang^3
#
#
#
# Elastic Constant Matrix: (Units=GPa)
#
#
# Indices 1 2 3 4 5 6 
#
# 1 74.3048 30.3739 52.8864 0.0000 0.0000 0.0000
# 2 30.3739 43.3947 49.8603 0.0000 0.0000 0.0000
# 3 52.8864 49.8603 103.5067 0.0000 0.0000 0.0000
# 4 0.0000 0.0000 0.0000 31.8385 0.0000 0.0000
# 5 0.0000 0.0000 0.0000 0.0000 25.6075 0.0000
# 6 0.0000 0.0000 0.0000 0.0000 0.0000 20.5344
#
#
#
# Elastic Compliance Matrix: (Units=1/GPa)
#
#
# Indices 1 2 3 4 5 6 
#
# 1 0.021718 -0.005490 -0.008452 0.000000 0.000000 0.000000
# 2 -0.005490 0.052997 -0.022724 0.000000 0.000000 0.000000
# 3 -0.008452 -0.022724 0.024926 0.000000 0.000000 0.000000
# 4 0.000000 0.000000 0.000000 0.031409 0.000000 0.000000
# 5 0.000000 0.000000 0.000000 0.000000 0.039051 0.000000
# 6 0.000000 0.000000 0.000000 0.000000 0.000000 0.048699
#
#
# Mechanical properties :
#
#
# Convention : Reuss Voigt Hill
#
# Bulk Modulus (GPa) = 38.01022 54.16084 46.08553
# Shear Modulus (GPa) = 16.61675 21.46845 19.04260
#
# Velocity S-wave (km/s) = 3.02795 3.44172 3.24145
# Velocity P-wave (km/s) = 5.76170 6.75854 6.27993
#
# Compressibility (1/GPa) = 0.02630872
#
# Stress axis : x y z
#
# Youngs Moduli (GPa) = 46.04460 18.86911 40.11830
#
# Poissons Ratio (x) = 0.10359 0.33909
# Poissons Ratio (y) = 0.25278 0.91165
# Poissons Ratio (z) = 0.38918 0.42878
#
# Static dielectric constant tensor:
#      x y z
#    x 1.613220 0.000000 0.000000 
#    y 0.000000 1.608320 0.000000 
#    z 0.000000 0.000000 1.635160 
# 
# From -- ./inp_files/36044.got.cif
#   From: 2010.05.17/outbox.cif.g08.bks.cpg/sg69_19_cif.got.tgz:36044.got - 2010.06.03 19:29:58.
