data_PCOD9512828
_publ_section_title
;
Structure prediction by ZEFSAII (Michael W. Deem and Ramdas Pophale) SiO2 
 PCOD9512828
Probable space group: F M M M
;
_chemical_formula_sum "Si O2"
_cell_formula_units_Z 132
_cell_length_a 26.519400
_cell_length_b 14.843708
_cell_length_c 16.774725
_cell_angle_alpha 90.000000
_cell_angle_beta 90.000000
_cell_angle_gamma 90.000000
_cell_volume 6603.307254
_symmetry_space_group_name_H-M "F M M M"
_symmetry_group_IT_number 69
_symmetry_cell_setting 'orthorhombic'
loop_
_space_group_symop_operation_xyz
x,y,z
-x,-y,z
x,-y,-z
-x,y,-z
-x,-y,-z
x,y,-z
-x,y,z
x,-y,z
x,1/2+y,1/2+z
-x,1/2-y,1/2+z
x,1/2-y,1/2-z
-x,1/2+y,1/2-z
-x,1/2-y,1/2-z
x,1/2+y,1/2-z
-x,1/2+y,1/2+z
x,1/2-y,1/2+z
1/2+x,y,1/2+z
1/2-x,-y,1/2+z
1/2+x,-y,1/2-z
1/2-x,y,1/2-z
1/2-x,-y,1/2-z
1/2+x,y,1/2-z
1/2-x,y,1/2+z
1/2+x,-y,1/2+z
1/2+x,1/2+y,z
1/2-x,1/2-y,z
1/2+x,1/2-y,-z
1/2-x,1/2+y,-z
1/2-x,1/2-y,-z
1/2+x,1/2+y,-z
1/2-x,1/2+y,z
1/2+x,1/2-y,z
loop_
_atom_site_type_symbol
_atom_site_label
_atom_site_fract_x
_atom_site_fract_y
_atom_site_fract_z
Si Si1 0.253862 0.140530 0.841268
Si Si2 0.500000 0.000000 0.500000
Si Si3 0.353142 0.352183 0.906956
Si Si4 0.863084 0.360673 0.905164
Si Si5 0.442348 0.000000 0.835635
Si Si6 0.423621 0.000000 0.652331
O O1 0.250000 0.110554 0.750000
O O2 0.250000 0.250000 0.841392
O O3 0.204072 0.116887 0.890381
O O4 0.307193 0.110527 0.876714
O O5 0.457343 0.000000 0.572532
O O6 0.362738 0.246805 0.889036
O O7 0.389055 0.412081 0.853877
O O8 0.364103 0.365513 0.000000
O O9 0.908394 0.414860 0.864001
O O10 0.867007 0.374015 0.000000
O O11 0.446498 0.000000 0.740083
O O12 0.500000 0.000000 0.867991
#
# Coordination Sequence:
#
# PCOD9512828 Si02
#       6
#    32   4  32  32  16  16
#     4   9  17  32  58  92 129 160 197 249 305 366
#     4  12  24  48  64  88 122 158 196 268 322 360
#     4  10  20  38  65  95 123 160 200 249 310 376
#     4  10  22  41  63  91 129 168 207 248 303 364
#     4  12  27  45  62  88 121 165 216 264 299 356
#     4  12  24  44  67  90 122 151 206 262 317 370
#
# _framework density 19.989984
#
# number of rings (size 3 to 8) (size 9 to 14) (size 15 to 20)
#    0.000    1.697    1.818    2.545    0.000    7.758 
#    2.182    6.061    0.000    0.000    0.000    0.000 
#    0.000    0.000    0.000    0.000    0.000    0.000 
#
# Total GULP energy -183943.932799 kJ/mol
# GULP energy per Si atom -5574.058570 kJ/mol
# Density = 1.994449 g / cm^3
# Si number density = 19.989984 Si / 1000 Ang^3
#
#
#
# Elastic Constant Matrix: (Units=GPa)
#
#
# Indices 1 2 3 4 5 6 
#
# 1 178.9554 58.2333 61.5486 0.0000 0.0000 0.0000
# 2 58.2333 82.6038 44.7300 0.0000 0.0000 0.0000
# 3 61.5486 44.7300 104.4727 0.0000 0.0000 0.0000
# 4 0.0000 0.0000 0.0000 20.7335 0.0000 0.0000
# 5 0.0000 0.0000 0.0000 0.0000 32.0427 0.0000
# 6 0.0000 0.0000 0.0000 0.0000 0.0000 34.4729
#
#
#
# Elastic Compliance Matrix: (Units=1/GPa)
#
#
# Indices 1 2 3 4 5 6 
#
# 1 0.007894 -0.003966 -0.002953 0.000000 0.000000 0.000000
# 2 -0.003966 0.017753 -0.005264 0.000000 0.000000 0.000000
# 3 -0.002953 -0.005264 0.013565 0.000000 0.000000 0.000000
# 4 0.000000 0.000000 0.000000 0.048231 0.000000 0.000000
# 5 0.000000 0.000000 0.000000 0.000000 0.031208 0.000000
# 6 0.000000 0.000000 0.000000 0.000000 0.000000 0.029008
#
#
# Mechanical properties :
#
#
# Convention : Reuss Voigt Hill
#
# Bulk Modulus (GPa) = 67.35816 77.22839 72.29327
# Shear Modulus (GPa) = 28.25271 30.88449 29.56860
#
# Velocity S-wave (km/s) = 3.76352 3.93491 3.85017
# Velocity P-wave (km/s) = 7.25635 7.70468 7.48387
#
# Compressibility (1/GPa) = 0.01484601
#
# Stress axis : x y z
#
# Youngs Moduli (GPa) = 126.67639 56.32969 73.71841
#
# Poissons Ratio (x) = 0.22342 0.21766
# Poissons Ratio (y) = 0.50244 0.38806
# Poissons Ratio (z) = 0.37402 0.29652
#
# Static dielectric constant tensor:
#      x y z
#    x 1.694240 0.000000 0.000000 
#    y 0.000000 1.739070 0.000000 
#    z 0.000000 0.000000 1.677250 
# 
# From -- ./inp_files/26529.got.cif
#   From: 2010.05.17/outbox.cif.g08.bks.cpg/sg69_14_cif.got.tgz:26529.got - 2010.06.03 19:29:58.
