data_PCOD9512497
_publ_section_title
;
Structure prediction by ZEFSAII (Michael W. Deem and Ramdas Pophale) SiO2 
 PCOD9512497
Probable space group: F M M M
;
_chemical_formula_sum "Si O2"
_cell_formula_units_Z 160
_cell_length_a 25.812737
_cell_length_b 19.289745
_cell_length_c 17.608006
_cell_angle_alpha 90.000000
_cell_angle_beta 90.000000
_cell_angle_gamma 90.000000
_cell_volume 8767.397971
_symmetry_space_group_name_H-M "F M M M"
_symmetry_group_IT_number 69
_symmetry_cell_setting 'orthorhombic'
loop_
_space_group_symop_operation_xyz
x,y,z
-x,-y,z
x,-y,-z
-x,y,-z
-x,-y,-z
x,y,-z
-x,y,z
x,-y,z
x,1/2+y,1/2+z
-x,1/2-y,1/2+z
x,1/2-y,1/2-z
-x,1/2+y,1/2-z
-x,1/2-y,1/2-z
x,1/2+y,1/2-z
-x,1/2+y,1/2+z
x,1/2-y,1/2+z
1/2+x,y,1/2+z
1/2-x,-y,1/2+z
1/2+x,-y,1/2-z
1/2-x,y,1/2-z
1/2-x,-y,1/2-z
1/2+x,y,1/2-z
1/2-x,y,1/2+z
1/2+x,-y,1/2+z
1/2+x,1/2+y,z
1/2-x,1/2-y,z
1/2+x,1/2-y,-z
1/2-x,1/2+y,-z
1/2-x,1/2-y,-z
1/2+x,1/2+y,-z
1/2-x,1/2+y,z
1/2+x,1/2-y,z
loop_
_atom_site_type_symbol
_atom_site_label
_atom_site_fract_x
_atom_site_fract_y
_atom_site_fract_z
Si Si1 0.556046 0.115342 0.409939
Si Si2 0.665916 0.318953 0.699994
Si Si3 0.340157 0.424640 0.835804
Si Si4 0.943249 0.267425 0.839576
Si Si5 0.268301 0.082349 0.089547
O O1 0.556218 0.110050 0.500000
O O2 0.500000 0.090167 0.381051
O O3 0.605453 0.077195 0.377913
O O4 0.560052 0.195803 0.385507
O O5 0.681923 0.250000 0.750000
O O6 0.656056 0.371709 0.767877
O O7 0.612087 0.305140 0.654754
O O8 0.704209 0.359708 0.642640
O O9 0.329340 0.500000 0.802725
O O10 0.292808 0.409509 0.892363
O O11 0.945309 0.250000 0.750000
O O12 0.000000 0.300043 0.858582
O O13 0.281249 0.000000 0.105948
O O14 0.278447 0.093594 0.000000
#
# Coordination Sequence:
#
# PCOD9512497 Si02
#       5
#    32  32  32  32  32
#     4  10  20  35  56  83 114 147 186 232 282 339
#     4  11  21  38  60  91 113 147 192 241 286 338
#     4  11  22  38  58  82 115 154 191 229 284 349
#     4   9  17  34  57  80 112 149 183 225 279 340
#     4  10  23  42  61  81 113 158 199 238 288 345
#
# _framework density 18.249428000000002
#
# number of rings (size 3 to 8) (size 9 to 14) (size 15 to 20)
#    0.000    1.800    4.000    1.800    0.000    5.600 
#    0.000    2.000    0.000    1.800    0.000    1.400 
#    0.000    0.000    0.000    0.000    0.000    0.000 
#
# Total GULP energy -222675.765527 kJ/mol
# GULP energy per Si atom -5566.894138 kJ/mol
# Density = 1.820789 g / cm^3
# Si number density = 18.249428 Si / 1000 Ang^3
#
#
#
# Elastic Constant Matrix: (Units=GPa)
#
#
# Indices 1 2 3 4 5 6 
#
# 1 140.6942 57.9951 41.0157 0.0000 0.0000 0.0000
# 2 57.9951 88.2057 38.1278 0.0000 0.0000 0.0000
# 3 41.0157 38.1278 58.0075 0.0000 0.0000 0.0000
# 4 0.0000 0.0000 0.0000 -8.8510 0.0000 0.0000
# 5 0.0000 0.0000 0.0000 0.0000 38.8411 0.0000
# 6 0.0000 0.0000 0.0000 0.0000 0.0000 47.4142
#
#
#
# Elastic Compliance Matrix: (Units=1/GPa)
#
#
# Indices 1 2 3 4 5 6 
#
# 1 0.010369 -0.005097 -0.003982 0.000000 0.000000 0.000000
# 2 -0.005097 0.018342 -0.008452 0.000000 0.000000 0.000000
# 3 -0.003982 -0.008452 0.025610 0.000000 0.000000 0.000000
# 4 0.000000 0.000000 0.000000 -0.112982 0.000000 0.000000
# 5 0.000000 0.000000 0.000000 0.000000 0.025746 0.000000
# 6 0.000000 0.000000 0.000000 0.000000 0.000000 0.021091
#
#
# Mechanical properties :
#
#
# Convention : Reuss Voigt Hill
#
# Bulk Modulus (GPa) = 51.92154 62.35386 57.13770
# Shear Modulus (GPa) = 168.59596 25.46546 97.03071
#
# Velocity S-wave (km/s) = 9.62210 3.73957 7.29963
# Velocity P-wave (km/s) = 12.32717 7.27239 10.12045
#
# Compressibility (1/GPa) = 0.01925983
#
# Stress axis : x y z
#
# Youngs Moduli (GPa) = 96.43878 54.52083 39.04695
#
# Poissons Ratio (x) = 0.27787 0.15548
# Poissons Ratio (y) = 0.49150 0.33003
# Poissons Ratio (z) = 0.38401 0.46082
#
# Static dielectric constant tensor:
#      x y z
#    x 1.699730 0.000000 0.000000 
#    y 0.000000 1.636530 0.000000 
#    z 0.000000 0.000000 1.590570 
# 
# From -- ./inp_files/23161.got.cif
#   From: 2010.05.17/outbox.cif.g08.bks.cpg/sg69_12_cif.got.tgz:23161.got - 2010.06.03 19:29:58.
