data_PCOD9512736
_publ_section_title
;
Structure prediction by ZEFSAII (Michael W. Deem and Ramdas Pophale) SiO2 
 PCOD9512736
Probable space group: F M M M
;
_chemical_formula_sum "Si O2"
_cell_formula_units_Z 112
_cell_length_a 21.805231
_cell_length_b 27.609937
_cell_length_c 8.826554
_cell_angle_alpha 90.000000
_cell_angle_beta 90.000000
_cell_angle_gamma 90.000000
_cell_volume 5313.947875
_symmetry_space_group_name_H-M "F M M M"
_symmetry_group_IT_number 69
_symmetry_cell_setting 'orthorhombic'
loop_
_space_group_symop_operation_xyz
x,y,z
-x,-y,z
x,-y,-z
-x,y,-z
-x,-y,-z
x,y,-z
-x,y,z
x,-y,z
x,1/2+y,1/2+z
-x,1/2-y,1/2+z
x,1/2-y,1/2-z
-x,1/2+y,1/2-z
-x,1/2-y,1/2-z
x,1/2+y,1/2-z
-x,1/2+y,1/2+z
x,1/2-y,1/2+z
1/2+x,y,1/2+z
1/2-x,-y,1/2+z
1/2+x,-y,1/2-z
1/2-x,y,1/2-z
1/2-x,-y,1/2-z
1/2+x,y,1/2-z
1/2-x,y,1/2+z
1/2+x,-y,1/2+z
1/2+x,1/2+y,z
1/2-x,1/2-y,z
1/2+x,1/2-y,-z
1/2-x,1/2+y,-z
1/2-x,1/2-y,-z
1/2+x,1/2+y,-z
1/2-x,1/2+y,z
1/2+x,1/2-y,z
loop_
_atom_site_type_symbol
_atom_site_label
_atom_site_fract_x
_atom_site_fract_y
_atom_site_fract_z
Si Si1 0.188282 0.603276 0.179393
Si Si2 0.635928 0.303815 0.182039
Si Si3 0.568732 0.441608 0.175673
Si Si4 0.500000 0.196360 0.318686
O O1 0.250000 0.581056 0.250000
O O2 0.180983 0.657244 0.247142
O O3 0.126573 0.575923 0.229734
O O4 0.193319 0.604800 0.000000
O O5 0.643161 0.250000 0.250000
O O6 0.566965 0.323001 0.223227
O O7 0.641465 0.301804 0.000000
O O8 0.500000 0.426148 0.225716
O O9 0.568606 0.500000 0.175539
O O10 0.575902 0.425320 0.000000
O O11 0.500000 0.199177 0.500000
O O12 0.500000 0.250000 0.250000
#
# Coordination Sequence:
#
# PCOD9512736 Si02
#       4
#    32  32  32  16
#     4  12  26  42  61  90 126 168 213 259 310 368
#     4  10  20  37  59  87 122 164 209 257 310 367
#     4   9  20  42  71  99 127 161 201 249 309 374
#     4   8  16  30  52  80 111 148 191 242 298 353
#
# _framework density 21.076608
#
# number of rings (size 3 to 8) (size 9 to 14) (size 15 to 20)
#    0.000    2.000    0.000    4.286    2.000    3.429 
#    0.000    4.286    0.000    0.000    0.000    0.000 
#    0.000    0.000    0.000    0.000    0.000    0.000 
#
# Total GULP energy -156408.844307 kJ/mol
# GULP energy per Si atom -5586.030154 kJ/mol
# Density = 2.102864 g / cm^3
# Si number density = 21.076608 Si / 1000 Ang^3
#
#
#
# Elastic Constant Matrix: (Units=GPa)
#
#
# Indices 1 2 3 4 5 6 
#
# 1 163.7971 33.4474 71.7932 0.0000 0.0000 0.0001
# 2 33.4474 55.2384 28.4813 0.0000 0.0001 0.0000
# 3 71.7932 28.4813 114.0640 0.0001 -0.0002 0.0003
# 4 0.0000 0.0000 0.0001 32.1250 0.0000 0.0001
# 5 0.0000 0.0001 -0.0002 0.0000 28.9975 -0.0001
# 6 0.0001 0.0000 0.0003 0.0001 -0.0001 20.0110
#
#
#
# Elastic Compliance Matrix: (Units=1/GPa)
#
#
# Indices 1 2 3 4 5 6 
#
# 1 0.008803 -0.002839 -0.004832 0.000000 0.000000 0.000000
# 2 -0.002839 0.021694 -0.003630 0.000000 0.000000 0.000000
# 3 -0.004832 -0.003630 0.012714 0.000000 0.000000 0.000000
# 4 0.000000 0.000000 0.000000 0.031128 0.000000 0.000000
# 5 0.000000 0.000000 0.000000 0.000000 0.034486 0.000000
# 6 0.000000 0.000000 0.000000 0.000000 0.000000 0.049972
#
#
# Mechanical properties :
#
#
# Convention : Reuss Voigt Hill
#
# Bulk Modulus (GPa) = 48.52018 66.72703 57.62360
# Shear Modulus (GPa) = 26.55782 29.51855 28.03818
#
# Velocity S-wave (km/s) = 3.55359 3.74643 3.65128
# Velocity P-wave (km/s) = 6.31729 7.10228 6.72125
#
# Compressibility (1/GPa) = 0.02060998
#
# Stress axis : x y z
#
# Youngs Moduli (GPa) = 113.60409 46.09576 78.65061
#
# Poissons Ratio (x) = 0.13086 0.38000
# Poissons Ratio (y) = 0.32250 0.28551
# Poissons Ratio (z) = 0.54888 0.16733
#
# Static dielectric constant tensor:
#      x y z
#    x 1.802410 0.000000 0.000000 
#    y 0.000000 1.774160 0.000000 
#    z 0.000000 0.000000 1.715510 
# 
# From -- ./inp_files/3729.got.cif
#   From: 2010.05.17/outbox.cif.g08.bks.cpg/sg69_2_cif.got.tgz:3729.got - 2010.06.03 19:29:58.
