data_PCOD9512171
_publ_section_title
;
Structure prediction by ZEFSAII (Michael W. Deem and Ramdas Pophale) SiO2 
 PCOD9512171
Probable space group: F M M M
;
_chemical_formula_sum "Si O2"
_cell_formula_units_Z 128
_cell_length_a 16.956643
_cell_length_b 17.427831
_cell_length_c 21.374214
_cell_angle_alpha 90.000000
_cell_angle_beta 90.000000
_cell_angle_gamma 90.000000
_cell_volume 6316.454468
_symmetry_space_group_name_H-M "F M M M"
_symmetry_group_IT_number 69
_symmetry_cell_setting 'orthorhombic'
loop_
_space_group_symop_operation_xyz
x,y,z
-x,-y,z
x,-y,-z
-x,y,-z
-x,-y,-z
x,y,-z
-x,y,z
x,-y,z
x,1/2+y,1/2+z
-x,1/2-y,1/2+z
x,1/2-y,1/2-z
-x,1/2+y,1/2-z
-x,1/2-y,1/2-z
x,1/2+y,1/2-z
-x,1/2+y,1/2+z
x,1/2-y,1/2+z
1/2+x,y,1/2+z
1/2-x,-y,1/2+z
1/2+x,-y,1/2-z
1/2-x,y,1/2-z
1/2-x,-y,1/2-z
1/2+x,y,1/2-z
1/2-x,y,1/2+z
1/2+x,-y,1/2+z
1/2+x,1/2+y,z
1/2-x,1/2-y,z
1/2+x,1/2-y,-z
1/2-x,1/2+y,-z
1/2-x,1/2-y,-z
1/2+x,1/2+y,-z
1/2-x,1/2+y,z
1/2+x,1/2-y,z
loop_
_atom_site_type_symbol
_atom_site_label
_atom_site_fract_x
_atom_site_fract_y
_atom_site_fract_z
Si Si1 0.338489 0.716068 0.500000
Si Si2 0.594295 0.307150 0.627093
Si Si3 0.592382 0.382538 0.000000
Si Si4 0.662072 0.912549 0.235251
Si Si5 0.594287 0.372696 0.865607
O O1 0.250000 0.750000 0.500000
O O2 0.358962 0.672014 0.563662
O O3 0.397633 0.789855 0.500000
O O4 0.500000 0.312471 0.617537
O O5 0.619606 0.358728 0.685330
O O6 0.614700 0.217706 0.639689
O O7 0.626230 0.404738 0.932117
O O8 0.500000 0.403356 0.000000
O O9 0.750000 0.884325 0.250000
O O10 0.620151 0.912025 0.302351
O O11 0.666266 0.000000 0.211484
O O12 0.500000 0.377126 0.869920
#
# Coordination Sequence:
#
# PCOD9512171 Si02
#       5
#    16  32  16  32  32
#     4  10  20  32  59  94 116 145 182 243 299 363
#     4  10  21  38  61  89 119 152 194 246 304 367
#     4   8  16  32  55  84 116 140 174 235 294 349
#     4  11  25  39  53  79 120 163 205 249 292 345
#     4   9  18  35  60  86 112 145 189 241 299 360
#
# _framework density 20.264533
#
# number of rings (size 3 to 8) (size 9 to 14) (size 15 to 20)
#    0.000    2.250    0.000    4.125    7.000    5.000 
#    0.000    1.250    0.000    6.750    0.000    0.000 
#    0.000    0.000    0.000    0.000    0.000    0.000 
#
# Total GULP energy -178517.187317 kJ/mol
# GULP energy per Si atom -5578.662104 kJ/mol
# Density = 2.021841 g / cm^3
# Si number density = 20.264533 Si / 1000 Ang^3
#
#
#
# Elastic Constant Matrix: (Units=GPa)
#
#
# Indices 1 2 3 4 5 6 
#
# 1 56.2892 31.3349 43.9592 0.0000 0.0000 0.0000
# 2 31.3349 40.3486 41.6841 0.0000 0.0000 0.0000
# 3 43.9592 41.6841 178.7901 0.0000 0.0000 0.0000
# 4 0.0000 0.0000 0.0000 -30.3992 0.0000 0.0000
# 5 0.0000 0.0000 0.0000 0.0000 12.5194 0.0000
# 6 0.0000 0.0000 0.0000 0.0000 0.0000 39.1762
#
#
#
# Elastic Compliance Matrix: (Units=1/GPa)
#
#
# Indices 1 2 3 4 5 6 
#
# 1 0.032294 -0.022232 -0.002757 0.000000 0.000000 0.000000
# 2 -0.022232 0.047952 -0.005714 0.000000 0.000000 0.000000
# 3 -0.002757 -0.005714 0.007603 0.000000 0.000000 0.000000
# 4 0.000000 0.000000 0.000000 -0.032896 0.000000 0.000000
# 5 0.000000 0.000000 0.000000 0.000000 0.079876 0.000000
# 6 0.000000 0.000000 0.000000 0.000000 0.000000 0.025526
#
#
# Mechanical properties :
#
#
# Convention : Reuss Voigt Hill
#
# Bulk Modulus (GPa) = 37.81466 56.59825 47.20646
# Shear Modulus (GPa) = 21.68489 14.82261 18.25375
#
# Velocity S-wave (km/s) = 3.27477 2.70748 3.00454
# Velocity P-wave (km/s) = 5.74455 6.14526 5.94828
#
# Compressibility (1/GPa) = 0.02644477
#
# Stress axis : x y z
#
# Youngs Moduli (GPa) = 30.96511 20.85415 131.52471
#
# Poissons Ratio (x) = 0.46362 0.36261
# Poissons Ratio (y) = 0.68841 0.75149
# Poissons Ratio (z) = 0.08537 0.11915
#
# Static dielectric constant tensor:
#      x y z
#    x 1.725550 0.000000 0.000000 
#    y 0.000000 1.708450 0.000000 
#    z 0.000000 0.000000 1.802690 
# 
# From -- ./inp_files/29639.got.cif
#   From: 2010.05.17/outbox.cif.g08.bks.cpg/sg69_15_cif.got.tgz:29639.got - 2010.06.03 19:29:58.
