data_PCOD9512185
_publ_section_title
;
Structure prediction by ZEFSAII (Michael W. Deem and Ramdas Pophale) SiO2 
 PCOD9512185
Probable space group: F M M M
;
_chemical_formula_sum "Si O2"
_cell_formula_units_Z 160
_cell_length_a 30.075378
_cell_length_b 32.955190
_cell_length_c 9.162296
_cell_angle_alpha 90.000000
_cell_angle_beta 90.000000
_cell_angle_gamma 90.000000
_cell_volume 9081.116191
_symmetry_space_group_name_H-M "F M M M"
_symmetry_group_IT_number 69
_symmetry_cell_setting 'orthorhombic'
loop_
_space_group_symop_operation_xyz
x,y,z
-x,-y,z
x,-y,-z
-x,y,-z
-x,-y,-z
x,y,-z
-x,y,z
x,-y,z
x,1/2+y,1/2+z
-x,1/2-y,1/2+z
x,1/2-y,1/2-z
-x,1/2+y,1/2-z
-x,1/2-y,1/2-z
x,1/2+y,1/2-z
-x,1/2+y,1/2+z
x,1/2-y,1/2+z
1/2+x,y,1/2+z
1/2-x,-y,1/2+z
1/2+x,-y,1/2-z
1/2-x,y,1/2-z
1/2-x,-y,1/2-z
1/2+x,y,1/2-z
1/2-x,y,1/2+z
1/2+x,-y,1/2+z
1/2+x,1/2+y,z
1/2-x,1/2-y,z
1/2+x,1/2-y,-z
1/2-x,1/2+y,-z
1/2-x,1/2-y,-z
1/2+x,1/2+y,-z
1/2-x,1/2+y,z
1/2+x,1/2-y,z
loop_
_atom_site_type_symbol
_atom_site_label
_atom_site_fract_x
_atom_site_fract_y
_atom_site_fract_z
Si Si1 0.624102 0.860033 0.669957
Si Si2 0.074694 0.000000 0.670570
Si Si3 0.452561 0.074243 0.339927
Si Si4 0.796663 0.091963 0.676611
Si Si5 0.949012 0.706069 0.676800
Si Si6 0.175116 0.000000 0.677161
O O1 0.637734 0.853295 0.500000
O O2 0.588081 0.895936 0.671642
O O3 0.665122 0.877623 0.763365
O O4 0.593110 0.822191 0.720053
O O5 0.050409 0.960129 0.721705
O O6 0.124565 0.000000 0.733198
O O7 0.079260 0.000000 0.500000
O O8 0.450458 0.054504 0.500000
O O9 0.500000 0.096099 0.331073
O O10 0.795330 0.093729 0.500000
O O11 0.750000 0.103392 0.750000
O O12 0.805352 0.044200 0.719561
O O13 0.947655 0.708467 0.500000
O O14 0.943933 0.750000 0.750000
O O15 0.000000 0.692168 0.714324
O O16 0.176192 0.000000 0.500000
#
# Coordination Sequence:
#
# PCOD9512185 Si02
#       6
#    32  16  32  32  32  16
#     4  10  20  35  55  79 107 141 178 219 266 316
#     4  11  20  33  48  68 100 138 178 222 267 309
#     4  10  20  33  49  71 101 139 181 219 258 309
#     4  11  22  38  57  79 106 139 180 228 277 324
#     4   9  18  34  57  85 116 147 179 215 258 313
#     4   9  19  35  53  73 102 137 177 227 277 319
#
# _framework density 17.618979
#
# number of rings (size 3 to 8) (size 9 to 14) (size 15 to 20)
#    0.000    2.000    2.000    2.100    0.000    4.800 
#    0.000    1.500    0.000    4.200    0.000    4.200 
#    0.000    0.000    0.000    0.000    0.000    0.000 
#
# Total GULP energy -222714.041505 kJ/mol
# GULP energy per Si atom -5567.851038 kJ/mol
# Density = 1.757888 g / cm^3
# Si number density = 17.618979 Si / 1000 Ang^3
#
#
#
# Elastic Constant Matrix: (Units=GPa)
#
#
# Indices 1 2 3 4 5 6 
#
# 1 154.0305 50.4673 49.4743 -0.0020 0.0052 -0.0016
# 2 50.4673 91.8327 33.0464 -0.0005 0.0011 -0.0081
# 3 49.4743 33.0464 50.1666 -0.0064 0.0138 -0.0111
# 4 -0.0020 -0.0005 -0.0064 23.7883 0.0021 -0.0061
# 5 0.0052 0.0011 0.0138 0.0021 22.5708 0.0032
# 6 -0.0016 -0.0081 -0.0111 -0.0061 0.0032 -3.9033
#
#
#
# Elastic Compliance Matrix: (Units=1/GPa)
#
#
# Indices 1 2 3 4 5 6 
#
# 1 0.009933 -0.002534 -0.008126 -0.000001 0.000003 0.000024
# 2 -0.002534 0.014919 -0.007328 -0.000002 0.000004 -0.000009
# 3 -0.008126 -0.007328 0.032775 0.000008 -0.000018 -0.000074
# 4 -0.000001 -0.000002 0.000008 0.042037 -0.000004 -0.000066
# 5 0.000003 0.000004 -0.000018 -0.000004 0.044305 0.000037
# 6 0.000024 -0.000009 -0.000074 -0.000066 0.000037 -0.256196
#
#
# Mechanical properties :
#
#
# Convention : Reuss Voigt Hill
#
# Bulk Modulus (GPa) = 46.19119 62.44510 54.31815
# Shear Modulus (GPa) = -72.43022 19.36063 -26.53480
#
# Velocity S-wave (km/s) = -6.41860 3.31849 -3.88498
# Velocity P-wave (km/s) = 5.35328 7.08534 3.28210
#
# Compressibility (1/GPa) = 0.02164915
#
# Stress axis : x y z
#
# Youngs Moduli (GPa) = 100.67751 67.02720 30.51095
#
# Poissons Ratio (x) = 0.16987 0.24794
# Poissons Ratio (y) = 0.25515 0.22360
# Poissons Ratio (z) = 0.81812 0.49121
#
# Static dielectric constant tensor:
#      x y z
#    x 1.626860 0.000000 0.000000 
#    y 0.000000 1.603180 0.000000 
#    z 0.000000 0.000000 1.606530 
# 
# From -- ./inp_files/5794.got.cif
#   From: 2010.05.17/outbox.cif.g08.bks.cpg/sg69_3_cif.got.tgz:5794.got - 2010.06.03 19:29:58.
