data_PCOD9512930
_publ_section_title
;
Structure prediction by ZEFSAII (Michael W. Deem and Ramdas Pophale) SiO2 
 PCOD9512930
Probable space group: F M M M
;
_chemical_formula_sum "Si O2"
_cell_formula_units_Z 176
_cell_length_a 27.575140
_cell_length_b 7.357215
_cell_length_c 34.320588
_cell_angle_alpha 90.000000
_cell_angle_beta 90.000000
_cell_angle_gamma 90.000000
_cell_volume 6962.831630
_symmetry_space_group_name_H-M "F M M M"
_symmetry_group_IT_number 69
_symmetry_cell_setting 'orthorhombic'
loop_
_space_group_symop_operation_xyz
x,y,z
-x,-y,z
x,-y,-z
-x,y,-z
-x,-y,-z
x,y,-z
-x,y,z
x,-y,z
x,1/2+y,1/2+z
-x,1/2-y,1/2+z
x,1/2-y,1/2-z
-x,1/2+y,1/2-z
-x,1/2-y,1/2-z
x,1/2+y,1/2-z
-x,1/2+y,1/2+z
x,1/2-y,1/2+z
1/2+x,y,1/2+z
1/2-x,-y,1/2+z
1/2+x,-y,1/2-z
1/2-x,y,1/2-z
1/2-x,-y,1/2-z
1/2+x,y,1/2-z
1/2-x,y,1/2+z
1/2+x,-y,1/2+z
1/2+x,1/2+y,z
1/2-x,1/2-y,z
1/2+x,1/2-y,-z
1/2-x,1/2+y,-z
1/2-x,1/2-y,-z
1/2+x,1/2+y,-z
1/2-x,1/2+y,z
1/2+x,1/2-y,z
loop_
_atom_site_type_symbol
_atom_site_label
_atom_site_fract_x
_atom_site_fract_y
_atom_site_fract_z
Si Si1 0.942741 0.219401 0.873491
Si Si2 0.691639 0.217810 0.500000
Si Si3 0.100629 0.783461 0.792709
Si Si4 0.941554 0.780626 0.042266
Si Si5 0.808192 0.217171 0.915614
Si Si6 0.193634 0.216873 0.170352
O O1 0.924260 0.287743 0.831970
O O2 0.922912 0.284205 0.915542
O O3 0.000000 0.252188 0.874260
O O4 0.935342 0.000000 0.873832
O O5 0.750000 0.250000 0.500000
O O6 0.674116 0.286169 0.542244
O O7 0.683767 0.000000 0.500000
O O8 0.079964 0.750000 0.750000
O O9 0.156269 0.718332 0.797102
O O10 0.099424 0.000000 0.795991
O O11 0.000000 0.749064 0.042371
O O12 0.935101 0.000000 0.042074
O O13 0.923586 0.714850 0.000000
O O14 0.750000 0.250000 0.915807
O O15 0.822279 0.285950 0.872688
O O16 0.817053 0.000000 0.915771
O O17 0.250000 0.250000 0.177473
O O18 0.189115 0.000000 0.168041
#
# Coordination Sequence:
#
# PCOD9512930 Si02
#       6
#    32  16  32  32  32  32
#     4   8  14  26  45  68  96 129 158 187 230 281
#     4   8  12  18  32  54  78 104 135 169 205 253
#     4  10  21  35  50  69  94 123 157 198 241 284
#     4   7   9  15  32  60  92 124 154 181 216 269
#     4   8  13  22  37  57  80 107 138 172 213 259
#     4   9  18  32  49  67  89 118 152 193 238 282
#
# _framework density 25.277070999999999
#
# number of rings (size 3 to 8) (size 9 to 14) (size 15 to 20)
#    0.000    3.636    0.000    1.636    0.000    1.455 
#    0.000    1.818    2.000    0.000    0.000    0.000 
#    0.000    0.727    0.000    4.545    0.000    3.636 
#
# Total GULP energy -245439.065362 kJ/mol
# GULP energy per Si atom -5578.160576 kJ/mol
# Density = 2.521954 g / cm^3
# Si number density = 25.277071 Si / 1000 Ang^3
#
#
#
# Elastic Constant Matrix: (Units=GPa)
#
#
# Indices 1 2 3 4 5 6 
#
# 1 50.1786 1.2951 61.8305 -0.0007 -0.0001 -0.0003
# 2 1.2951 88.7423 6.1051 -0.0031 -0.0004 0.0037
# 3 61.8305 6.1051 255.6961 0.0003 -0.0001 -0.0013
# 4 -0.0007 -0.0031 0.0003 6.3471 -0.0005 0.0022
# 5 -0.0001 -0.0004 -0.0001 -0.0005 33.6363 0.0003
# 6 -0.0003 0.0037 -0.0013 0.0022 0.0003 -4.1176
#
#
#
# Elastic Compliance Matrix: (Units=1/GPa)
#
#
# Indices 1 2 3 4 5 6 
#
# 1 0.028387 0.000058 -0.006866 0.000003 0.000000 0.000000
# 2 0.000058 0.011287 -0.000284 0.000006 0.000000 0.000010
# 3 -0.006866 -0.000284 0.005578 -0.000001 0.000000 -0.000002
# 4 0.000003 0.000006 -0.000001 0.157552 0.000002 0.000083
# 5 0.000000 0.000000 0.000000 0.000002 0.029730 0.000002
# 6 0.000000 0.000010 -0.000002 0.000083 0.000002 -0.242861
#
#
# Mechanical properties :
#
#
# Convention : Reuss Voigt Hill
#
# Bulk Modulus (GPa) = 32.18539 59.23095 45.70817
# Shear Modulus (GPa) = 351.78817 28.86557 190.32687
#
# Velocity S-wave (km/s) = 11.80995 3.38297 8.68676
# Velocity P-wave (km/s) = 14.09707 6.22437 10.89656
#
# Compressibility (1/GPa) = 0.03106999
#
# Stress axis : x y z
#
# Youngs Moduli (GPa) = 35.22678 88.59558 179.27864
#
# Poissons Ratio (x) = -0.00514 1.23090
# Poissons Ratio (y) = -0.00204 0.05083
# Poissons Ratio (z) = 0.24186 0.02512
#
# Static dielectric constant tensor:
#      x y z
#    x 2.027120 0.000000 0.000000 
#    y 0.000000 1.845810 0.000000 
#    z 0.000000 0.000000 2.028620 
# 
# From -- ./inp_files/47270.got.cif
#   From: 2010.05.17/outbox.cif.g08.bks.cpg/sg69_24_cif.got.tgz:47270.got - 2010.06.03 19:29:58.
