data_PCOD9512161
_publ_section_title
;
Structure prediction by ZEFSAII (Michael W. Deem and Ramdas Pophale) SiO2 
 PCOD9512161
Probable space group: F M M M
;
_chemical_formula_sum "Si O2"
_cell_formula_units_Z 176
_cell_length_a 11.269534
_cell_length_b 33.856369
_cell_length_c 26.154431
_cell_angle_alpha 90.000000
_cell_angle_beta 90.000000
_cell_angle_gamma 90.000000
_cell_volume 9979.105494
_symmetry_space_group_name_H-M "F M M M"
_symmetry_group_IT_number 69
_symmetry_cell_setting 'orthorhombic'
loop_
_space_group_symop_operation_xyz
x,y,z
-x,-y,z
x,-y,-z
-x,y,-z
-x,-y,-z
x,y,-z
-x,y,z
x,-y,z
x,1/2+y,1/2+z
-x,1/2-y,1/2+z
x,1/2-y,1/2-z
-x,1/2+y,1/2-z
-x,1/2-y,1/2-z
x,1/2+y,1/2-z
-x,1/2+y,1/2+z
x,1/2-y,1/2+z
1/2+x,y,1/2+z
1/2-x,-y,1/2+z
1/2+x,-y,1/2-z
1/2-x,y,1/2-z
1/2-x,-y,1/2-z
1/2+x,y,1/2-z
1/2-x,y,1/2+z
1/2+x,-y,1/2+z
1/2+x,1/2+y,z
1/2-x,1/2-y,z
1/2+x,1/2-y,-z
1/2-x,1/2+y,-z
1/2-x,1/2-y,-z
1/2+x,1/2+y,-z
1/2-x,1/2+y,z
1/2+x,1/2-y,z
loop_
_atom_site_type_symbol
_atom_site_label
_atom_site_fract_x
_atom_site_fract_y
_atom_site_fract_z
Si Si1 0.500000 0.788912 0.937976
Si Si2 0.871310 0.620443 0.729933
Si Si3 0.868867 0.455370 0.196967
Si Si4 0.238518 0.662821 0.061826
Si Si5 0.202029 0.089570 0.876872
Si Si6 0.500000 0.198009 0.438057
Si Si7 0.500000 0.453213 0.060579
O O1 0.624608 0.810157 0.923643
O O2 0.500000 0.743492 0.920529
O O3 0.500000 0.788379 0.000000
O O4 0.750000 0.640460 0.750000
O O5 0.869545 0.577517 0.758378
O O6 0.860743 0.613050 0.669698
O O7 0.000000 0.638523 0.742247
O O8 0.849748 0.500000 0.215373
O O9 0.779069 0.442288 0.153563
O O10 0.000000 0.453965 0.174109
O O11 0.225259 0.621131 0.090209
O O12 0.372126 0.678520 0.075963
O O13 0.237272 0.658937 0.000000
O O14 0.111717 0.067693 0.913673
O O15 0.500000 0.197647 0.500000
O O16 0.500000 0.500000 0.070672
O O17 0.500000 0.446814 0.000000
#
# Coordination Sequence:
#
# PCOD9512161 Si02
#       7
#    16  32  32  32  32  16  16
#     4   9  18  33  52  76 103 136 173 210 259 309
#     4   9  18  32  49  73  98 125 163 212 264 319
#     4   9  19  34  52  74 100 129 169 222 276 323
#     4  10  20  32  51  77 107 142 174 209 254 308
#     4  11  20  32  51  72 103 136 171 212 263 313
#     4   9  17  32  53  76 105 136 169 211 256 306
#     4  11  23  35  47  66  96 140 190 226 252 296
#
# _framework density 17.636852000000001
#
# number of rings (size 3 to 8) (size 9 to 14) (size 15 to 20)
#    0.000    2.273    0.909    2.182    1.273    6.909 
#    0.000    0.000    0.000    0.000    0.000    3.818 
#    0.000   39.273    0.000    0.000    0.000    0.000 
#
# Total GULP energy -244954.797453 kJ/mol
# GULP energy per Si atom -5567.154488 kJ/mol
# Density = 1.759671 g / cm^3
# Si number density = 17.636852 Si / 1000 Ang^3
#
#
#
# Elastic Constant Matrix: (Units=GPa)
#
#
# Indices 1 2 3 4 5 6 
#
# 1 115.3982 0.0390 13.4011 0.0000 0.0000 0.0000
# 2 0.0390 20.8350 19.9634 0.0000 0.0000 0.0000
# 3 13.4011 19.9634 46.3351 0.0000 0.0000 0.0000
# 4 0.0000 0.0000 0.0000 3.7242 0.0000 0.0000
# 5 0.0000 0.0000 0.0000 0.0000 11.8315 0.0000
# 6 0.0000 0.0000 0.0000 0.0000 0.0000 17.5200
#
#
#
# Elastic Compliance Matrix: (Units=1/GPa)
#
#
# Indices 1 2 3 4 5 6 
#
# 1 0.009188 0.004307 -0.004513 0.000000 0.000000 0.000000
# 2 0.004307 0.083760 -0.037334 0.000000 0.000000 0.000000
# 3 -0.004513 -0.037334 0.038972 0.000000 0.000000 0.000000
# 4 0.000000 0.000000 0.000000 0.268513 0.000000 0.000000
# 5 0.000000 0.000000 0.000000 0.000000 0.084520 0.000000
# 6 0.000000 0.000000 0.000000 0.000000 0.000000 0.057077
#
#
# Mechanical properties :
#
#
# Convention : Reuss Voigt Hill
#
# Bulk Modulus (GPa) = 17.59279 27.70837 22.65058
# Shear Modulus (GPa) = 7.86092 16.55946 12.21019
#
# Velocity S-wave (km/s) = 2.11347 3.06749 2.63404
# Velocity P-wave (km/s) = 3.99404 5.31889 4.70335
#
# Compressibility (1/GPa) = 0.05684146
#
# Stress axis : x y z
#
# Youngs Moduli (GPa) = 108.83395 11.93888 25.65924
#
# Poissons Ratio (x) = -0.05142 0.11581
# Poissons Ratio (y) = -0.46877 0.95795
# Poissons Ratio (z) = 0.49119 0.44572
#
# Static dielectric constant tensor:
#      x y z
#    x 1.678980 0.000000 0.000000 
#    y 0.000000 1.595170 0.000000 
#    z 0.000000 0.000000 1.575810 
# 
# From -- ./inp_files/40474.got.cif
#   From: 2010.05.17/outbox.cif.g08.bks.cpg/sg69_21_cif.got.tgz:40474.got - 2010.06.03 19:29:58.
