data_PCOD9512353
_publ_section_title
;
Structure prediction by ZEFSAII (Michael W. Deem and Ramdas Pophale) SiO2 
 PCOD9512353
Probable space group: F M M M
;
_chemical_formula_sum "Si O2"
_cell_formula_units_Z 160
_cell_length_a 32.431720
_cell_length_b 9.284766
_cell_length_c 31.190510
_cell_angle_alpha 90.000000
_cell_angle_beta 90.000000
_cell_angle_gamma 90.000000
_cell_volume 9392.115415
_symmetry_space_group_name_H-M "F M M M"
_symmetry_group_IT_number 69
_symmetry_cell_setting 'orthorhombic'
loop_
_space_group_symop_operation_xyz
x,y,z
-x,-y,z
x,-y,-z
-x,y,-z
-x,-y,-z
x,y,-z
-x,y,z
x,-y,z
x,1/2+y,1/2+z
-x,1/2-y,1/2+z
x,1/2-y,1/2-z
-x,1/2+y,1/2-z
-x,1/2-y,1/2-z
x,1/2+y,1/2-z
-x,1/2+y,1/2+z
x,1/2-y,1/2+z
1/2+x,y,1/2+z
1/2-x,-y,1/2+z
1/2+x,-y,1/2-z
1/2-x,y,1/2-z
1/2-x,-y,1/2-z
1/2+x,y,1/2-z
1/2-x,y,1/2+z
1/2+x,-y,1/2+z
1/2+x,1/2+y,z
1/2-x,1/2-y,z
1/2+x,1/2-y,-z
1/2-x,1/2+y,-z
1/2-x,1/2-y,-z
1/2+x,1/2+y,-z
1/2-x,1/2+y,z
1/2+x,1/2-y,z
loop_
_atom_site_type_symbol
_atom_site_label
_atom_site_fract_x
_atom_site_fract_y
_atom_site_fract_z
Si Si1 0.450819 0.169690 0.705132
Si Si2 0.882458 0.828611 0.658744
Si Si3 0.311923 0.837494 0.290865
Si Si4 0.324054 0.837727 0.079898
Si Si5 0.250000 0.750000 0.860773
Si Si6 0.294286 0.829416 0.500000
O O1 0.500000 0.181201 0.698649
O O2 0.441000 0.250000 0.750000
O O3 0.425364 0.250055 0.668148
O O4 0.440229 0.000000 0.707608
O O5 0.850405 0.752190 0.690932
O O6 0.862207 0.808714 0.611788
O O7 0.884940 0.000000 0.666540
O O8 0.296393 0.750000 0.250000
O O9 0.278161 0.841431 0.328535
O O10 0.323413 0.000000 0.279087
O O11 0.282717 0.830501 0.109139
O O12 0.318155 0.724215 0.042185
O O13 0.327670 0.000000 0.062553
O O14 0.250000 0.750000 0.500000
O O15 0.288335 0.000000 0.500000
#
# Coordination Sequence:
#
# PCOD9512353 Si02
#       6
#    32  32  32  32  16  16
#     4  10  20  34  54  80 110 144 180 218 260 308
#     4  10  21  36  54  76 103 135 172 216 262 309
#     4  11  22  34  48  67  95 134 176 218 259 303
#     4  10  21  37  55  76 102 132 170 214 262 314
#     4  10  21  33  52  70  94 128 174 215 259 302
#     4  12  24  36  56  80 105 136 171 214 266 317
#
# _framework density 17.035564999999998
#
# number of rings (size 3 to 8) (size 9 to 14) (size 15 to 20)
#    0.000    1.600    1.000    4.200    0.000    8.400 
#    0.000    0.000    0.000    0.000    0.000    0.700 
#    0.000    5.600    0.000    0.000    0.000    0.000 
#
# Total GULP energy -223305.400700 kJ/mol
# GULP energy per Si atom -5582.635018 kJ/mol
# Density = 1.699679 g / cm^3
# Si number density = 17.035565 Si / 1000 Ang^3
#
#
#
# Elastic Constant Matrix: (Units=GPa)
#
#
# Indices 1 2 3 4 5 6 
#
# 1 66.8944 49.7231 32.4240 0.0000 0.0000 0.0000
# 2 49.7231 167.2964 65.9643 0.0000 0.0000 0.0001
# 3 32.4240 65.9643 82.6282 0.0000 0.0000 0.0000
# 4 0.0000 0.0000 0.0000 25.7851 0.0000 0.0000
# 5 0.0000 0.0000 0.0000 0.0000 18.3255 0.0000
# 6 0.0000 0.0001 0.0000 0.0000 0.0000 6.2060
#
#
#
# Elastic Compliance Matrix: (Units=1/GPa)
#
#
# Indices 1 2 3 4 5 6 
#
# 1 0.020319 -0.004225 -0.004600 0.000000 0.000000 0.000000
# 2 -0.004225 0.009602 -0.006007 0.000000 0.000000 0.000000
# 3 -0.004600 -0.006007 0.018703 0.000000 0.000000 0.000000
# 4 0.000000 0.000000 0.000000 0.038782 0.000000 0.000000
# 5 0.000000 0.000000 0.000000 0.000000 0.054569 0.000000
# 6 0.000000 0.000000 0.000000 0.000000 0.000000 0.161136
#
#
# Mechanical properties :
#
#
# Convention : Reuss Voigt Hill
#
# Bulk Modulus (GPa) = 52.74621 68.11576 60.43098
# Shear Modulus (GPa) = 14.74503 21.31047 18.02775
#
# Velocity S-wave (km/s) = 2.94520 3.54070 3.25659
# Velocity P-wave (km/s) = 6.52650 7.53569 7.04918
#
# Compressibility (1/GPa) = 0.01895871
#
# Stress axis : x y z
#
# Youngs Moduli (GPa) = 49.21391 104.14528 53.46595
#
# Poissons Ratio (x) = 0.44005 0.24596
# Poissons Ratio (y) = 0.20795 0.32119
# Poissons Ratio (z) = 0.22640 0.62565
#
# Static dielectric constant tensor:
#      x y z
#    x 1.586590 0.000000 0.000000 
#    y 0.000000 1.582010 0.000000 
#    z 0.000000 0.000000 1.582720 
# 
# From -- ./inp_files/47513.got.cif
#   From: 2010.05.17/outbox.cif.g08.bks.cpg/sg69_24_cif.got.tgz:47513.got - 2010.06.03 19:29:58.
