data_PCOD9512806
_publ_section_title
;
Structure prediction by ZEFSAII (Michael W. Deem and Ramdas Pophale) SiO2 
 PCOD9512806
Probable space group: F M M M
;
_chemical_formula_sum "Si O2"
_cell_formula_units_Z 160
_cell_length_a 16.839717
_cell_length_b 24.915650
_cell_length_c 21.005644
_cell_angle_alpha 90.000000
_cell_angle_beta 90.000000
_cell_angle_gamma 90.000000
_cell_volume 8813.390459
_symmetry_space_group_name_H-M "F M M M"
_symmetry_group_IT_number 69
_symmetry_cell_setting 'orthorhombic'
loop_
_space_group_symop_operation_xyz
x,y,z
-x,-y,z
x,-y,-z
-x,y,-z
-x,-y,-z
x,y,-z
-x,y,z
x,-y,z
x,1/2+y,1/2+z
-x,1/2-y,1/2+z
x,1/2-y,1/2-z
-x,1/2+y,1/2-z
-x,1/2-y,1/2-z
x,1/2+y,1/2-z
-x,1/2+y,1/2+z
x,1/2-y,1/2+z
1/2+x,y,1/2+z
1/2-x,-y,1/2+z
1/2+x,-y,1/2-z
1/2-x,y,1/2-z
1/2-x,-y,1/2-z
1/2+x,y,1/2-z
1/2-x,y,1/2+z
1/2+x,-y,1/2+z
1/2+x,1/2+y,z
1/2-x,1/2-y,z
1/2+x,1/2-y,-z
1/2-x,1/2+y,-z
1/2-x,1/2-y,-z
1/2+x,1/2+y,-z
1/2-x,1/2+y,z
1/2+x,1/2-y,z
loop_
_atom_site_type_symbol
_atom_site_label
_atom_site_fract_x
_atom_site_fract_y
_atom_site_fract_z
Si Si1 0.906978 0.215855 0.189093
Si Si2 0.847404 0.500000 0.747281
Si Si3 0.701425 0.900905 0.928025
Si Si4 0.187505 0.105909 0.192074
Si Si5 0.906007 0.500000 0.108005
Si Si6 0.337707 0.223644 0.927585
O O1 0.878121 0.250000 0.250000
O O2 0.860270 0.160403 0.183821
O O3 0.891916 0.250443 0.125982
O O4 0.000000 0.205286 0.197904
O O5 0.750000 0.500000 0.750000
O O6 0.866328 0.444765 0.711786
O O7 0.884355 0.500000 0.817029
O O8 0.765242 0.908456 0.872161
O O9 0.668421 0.840504 0.919657
O O10 0.635204 0.946767 0.920204
O O11 0.734351 0.903996 0.000000
O O12 0.250000 0.114134 0.250000
O O13 0.000000 0.500000 0.098010
O O14 0.250000 0.250000 0.920223
O O15 0.363934 0.234892 0.000000
#
# Coordination Sequence:
#
# PCOD9512806 Si02
#       6
#    32  16  32  32  16  32
#     4  11  25  38  57  92 125 156 201 257 312 359
#     4  10  20  38  62  85 111 157 202 241 293 354
#     4  11  22  38  63  92 121 159 206 250 298 366
#     4  11  20  39  64  84 117 161 203 249 300 359
#     4  12  25  41  62  92 130 166 201 252 317 378
#     4  10  21  39  63  89 119 160 205 245 298 366
#
# _framework density 18.154194
#
# number of rings (size 3 to 8) (size 9 to 14) (size 15 to 20)
#    0.000    1.200    6.000    1.500    0.000    2.800 
#    0.000    2.000    0.000    0.000    0.000    0.000 
#    0.000    5.600    0.000    0.000    0.000    0.000 
#
# Total GULP energy -223375.276797 kJ/mol
# GULP energy per Si atom -5584.381920 kJ/mol
# Density = 1.811287 g / cm^3
# Si number density = 18.154194 Si / 1000 Ang^3
#
#
#
# Elastic Constant Matrix: (Units=GPa)
#
#
# Indices 1 2 3 4 5 6 
#
# 1 43.5047 33.7512 22.6197 0.0000 0.0000 0.0000
# 2 33.7512 140.2964 44.1574 0.0000 0.0000 0.0000
# 3 22.6197 44.1574 121.2451 0.0000 0.0000 0.0000
# 4 0.0000 0.0000 0.0000 32.7703 0.0000 0.0000
# 5 0.0000 0.0000 0.0000 0.0000 16.2298 0.0000
# 6 0.0000 0.0000 0.0000 0.0000 0.0000 -22.7202
#
#
#
# Elastic Compliance Matrix: (Units=1/GPa)
#
#
# Indices 1 2 3 4 5 6 
#
# 1 0.029373 -0.006033 -0.003283 0.000000 0.000000 0.000000
# 2 -0.006033 0.009290 -0.002258 0.000000 0.000000 0.000000
# 3 -0.003283 -0.002258 0.009682 0.000000 0.000000 0.000000
# 4 0.000000 0.000000 0.000000 0.030515 0.000000 0.000000
# 5 0.000000 0.000000 0.000000 0.000000 0.061615 0.000000
# 6 0.000000 0.000000 0.000000 0.000000 0.000000 -0.044014
#
#
# Mechanical properties :
#
#
# Convention : Reuss Voigt Hill
#
# Bulk Modulus (GPa) = 39.68508 56.23364 47.95936
# Shear Modulus (GPa) = 39.05970 18.89050 28.97510
#
# Velocity S-wave (km/s) = 4.64352 3.22927 3.99940
# Velocity P-wave (km/s) = 7.11738 6.70426 6.91390
#
# Compressibility (1/GPa) = 0.02519839
#
# Stress axis : x y z
#
# Youngs Moduli (GPa) = 34.04441 107.64504 103.27948
#
# Poissons Ratio (x) = 0.64944 0.33903
# Poissons Ratio (y) = 0.20540 0.23318
# Poissons Ratio (z) = 0.11176 0.24304
#
# Static dielectric constant tensor:
#      x y z
#    x 1.599850 0.000000 0.000000 
#    y 0.000000 1.636330 0.000000 
#    z 0.000000 0.000000 1.629410 
# 
# From -- ./inp_files/30812.got.cif
#   From: 2010.05.17/outbox.cif.g08.bks.cpg/sg69_16_cif.got.tgz:30812.got - 2010.06.03 19:29:58.
