data_PCOD9512798
_publ_section_title
;
Structure prediction by ZEFSAII (Michael W. Deem and Ramdas Pophale) SiO2 
 PCOD9512798
Probable space group: F M M M
;
_chemical_formula_sum "Si O2"
_cell_formula_units_Z 176
_cell_length_a 18.796751
_cell_length_b 17.624376
_cell_length_c 24.808954
_cell_angle_alpha 90.000000
_cell_angle_beta 90.000000
_cell_angle_gamma 90.000000
_cell_volume 8218.735269
_symmetry_space_group_name_H-M "F M M M"
_symmetry_group_IT_number 69
_symmetry_cell_setting 'orthorhombic'
loop_
_space_group_symop_operation_xyz
x,y,z
-x,-y,z
x,-y,-z
-x,y,-z
-x,-y,-z
x,y,-z
-x,y,z
x,-y,z
x,1/2+y,1/2+z
-x,1/2-y,1/2+z
x,1/2-y,1/2-z
-x,1/2+y,1/2-z
-x,1/2-y,1/2-z
x,1/2+y,1/2-z
-x,1/2+y,1/2+z
x,1/2-y,1/2+z
1/2+x,y,1/2+z
1/2-x,-y,1/2+z
1/2+x,-y,1/2-z
1/2-x,y,1/2-z
1/2-x,-y,1/2-z
1/2+x,y,1/2-z
1/2-x,y,1/2+z
1/2+x,-y,1/2+z
1/2+x,1/2+y,z
1/2-x,1/2-y,z
1/2+x,1/2-y,-z
1/2-x,1/2+y,-z
1/2-x,1/2-y,-z
1/2+x,1/2+y,-z
1/2-x,1/2+y,z
1/2+x,1/2-y,z
loop_
_atom_site_type_symbol
_atom_site_label
_atom_site_fract_x
_atom_site_fract_y
_atom_site_fract_z
Si Si1 0.829772 0.908579 0.114929
Si Si2 0.666462 0.917064 0.741546
Si Si3 0.183196 0.636441 0.061708
Si Si4 0.075717 0.304807 0.198828
Si Si5 0.580817 0.500000 0.565642
Si Si6 0.582343 0.726407 0.915939
O O1 0.844124 0.896344 0.178767
O O2 0.753458 0.873117 0.097780
O O3 0.888840 0.859486 0.083156
O O4 0.829194 0.000000 0.105366
O O5 0.750000 0.921195 0.750000
O O6 0.637223 0.861926 0.786808
O O7 0.633890 0.000000 0.749229
O O8 0.125053 0.574574 0.080839
O O9 0.141483 0.716446 0.060048
O O10 0.204127 0.617560 0.000000
O O11 0.073900 0.250000 0.250000
O O12 0.082658 0.255358 0.145775
O O13 0.000000 0.346345 0.195676
O O14 0.500000 0.500000 0.585538
O O15 0.577466 0.500000 0.500000
O O16 0.500000 0.734018 0.935185
#
# Coordination Sequence:
#
# PCOD9512798 Si02
#       6
#    32  32  32  32  16  32
#     4  11  23  40  63  92 125 166 214 261 314 380
#     4  10  21  36  57  86 120 159 205 256 307 370
#     4  11  23  42  66  92 125 163 206 260 323 385
#     4  10  20  38  60  85 120 162 207 255 309 366
#     4   9  18  36  64  92 118 155 201 251 313 378
#     4  11  24  41  63  94 129 167 215 265 316 380
#
# _framework density 21.414487999999999
#
# number of rings (size 3 to 8) (size 9 to 14) (size 15 to 20)
#    0.000    1.545    2.727    2.182    0.000    3.636 
#    1.636    1.818    0.000    0.000    0.000    2.545 
#    0.000    0.000    0.000    0.000    0.000    0.000 
#
# Total GULP energy -245561.342036 kJ/mol
# GULP energy per Si atom -5580.939592 kJ/mol
# Density = 2.136575 g / cm^3
# Si number density = 21.414488 Si / 1000 Ang^3
#
#
#
# Elastic Constant Matrix: (Units=GPa)
#
#
# Indices 1 2 3 4 5 6 
#
# 1 99.1663 49.2647 10.0586 0.0000 0.0000 0.0000
# 2 49.2647 100.2213 11.4401 0.0000 0.0000 0.0000
# 3 10.0586 11.4401 60.1706 0.0000 0.0000 0.0000
# 4 0.0000 0.0000 0.0000 16.7749 0.0000 0.0000
# 5 0.0000 0.0000 0.0000 0.0000 7.1430 0.0000
# 6 0.0000 0.0000 0.0000 0.0000 0.0000 41.9331
#
#
#
# Elastic Compliance Matrix: (Units=1/GPa)
#
#
# Indices 1 2 3 4 5 6 
#
# 1 0.013402 -0.006473 -0.001010 0.000000 0.000000 0.000000
# 2 -0.006473 0.013325 -0.001452 0.000000 0.000000 0.000000
# 3 -0.001010 -0.001452 0.017064 0.000000 0.000000 0.000000
# 4 0.000000 0.000000 0.000000 0.059613 0.000000 0.000000
# 5 0.000000 0.000000 0.000000 0.000000 0.139998 0.000000
# 6 0.000000 0.000000 0.000000 0.000000 0.000000 0.023848
#
#
# Mechanical properties :
#
#
# Convention : Reuss Voigt Hill
#
# Bulk Modulus (GPa) = 38.57469 44.56500 41.56985
# Shear Modulus (GPa) = 17.02076 25.75650 21.38863
#
# Velocity S-wave (km/s) = 2.82232 3.47185 3.16380
# Velocity P-wave (km/s) = 5.35473 6.07680 5.72716
#
# Compressibility (1/GPa) = 0.02592373
#
# Stress axis : x y z
#
# Youngs Moduli (GPa) = 74.61566 75.04533 58.60228
#
# Poissons Ratio (x) = 0.48574 0.05917
# Poissons Ratio (y) = 0.48296 0.08506
# Poissons Ratio (z) = 0.07534 0.10893
#
# Static dielectric constant tensor:
#      x y z
#    x 1.781800 0.000000 0.000000 
#    y 0.000000 1.783060 0.000000 
#    z 0.000000 0.000000 1.790820 
# 
# From -- ./inp_files/27664.got.cif
#   From: 2010.05.17/outbox.cif.g08.bks.cpg/sg69_14_cif.got.tgz:27664.got - 2010.06.03 19:29:58.
