data_PCOD9512901
_publ_section_title
;
Structure prediction by ZEFSAII (Michael W. Deem and Ramdas Pophale) SiO2 
 PCOD9512901
Probable space group: F M M M
;
_chemical_formula_sum "Si O2"
_cell_formula_units_Z 232
_cell_length_a 24.146732
_cell_length_b 20.815860
_cell_length_c 26.504536
_cell_angle_alpha 90.000000
_cell_angle_beta 90.000000
_cell_angle_gamma 90.000000
_cell_volume 13322.107261
_symmetry_space_group_name_H-M "F M M M"
_symmetry_group_IT_number 69
_symmetry_cell_setting 'orthorhombic'
loop_
_space_group_symop_operation_xyz
x,y,z
-x,-y,z
x,-y,-z
-x,y,-z
-x,-y,-z
x,y,-z
-x,y,z
x,-y,z
x,1/2+y,1/2+z
-x,1/2-y,1/2+z
x,1/2-y,1/2-z
-x,1/2+y,1/2-z
-x,1/2-y,1/2-z
x,1/2+y,1/2-z
-x,1/2+y,1/2+z
x,1/2-y,1/2+z
1/2+x,y,1/2+z
1/2-x,-y,1/2+z
1/2+x,-y,1/2-z
1/2-x,y,1/2-z
1/2-x,-y,1/2-z
1/2+x,y,1/2-z
1/2-x,y,1/2+z
1/2+x,-y,1/2+z
1/2+x,1/2+y,z
1/2-x,1/2-y,z
1/2+x,1/2-y,-z
1/2-x,1/2+y,-z
1/2-x,1/2-y,-z
1/2+x,1/2+y,-z
1/2-x,1/2+y,z
1/2+x,1/2-y,z
loop_
_atom_site_type_symbol
_atom_site_label
_atom_site_fract_x
_atom_site_fract_y
_atom_site_fract_z
Si Si1 0.096886 0.333808 0.696850
Si Si2 0.936669 0.777053 0.377236
Si Si3 0.500000 0.000000 0.193598
Si Si4 0.364636 0.185794 0.441305
Si Si5 0.714945 0.313916 0.151010
Si Si6 0.280463 0.572601 0.303947
Si Si7 0.092540 0.886998 0.304206
Si Si8 0.933938 0.075263 0.110158
O O1 0.066261 0.277372 0.666654
O O2 0.161934 0.318776 0.688339
O O3 0.081930 0.343637 0.754487
O O4 0.082515 0.398796 0.665773
O O5 0.901236 0.746160 0.422229
O O6 0.912285 0.841364 0.352945
O O7 0.000000 0.787037 0.392011
O O8 0.451675 0.943613 0.193795
O O9 0.352363 0.188227 0.500000
O O10 0.311661 0.186007 0.404629
O O11 0.400341 0.122085 0.427114
O O12 0.750000 0.250000 0.160374
O O13 0.753108 0.375109 0.160028
O O14 0.271700 0.500000 0.322070
O O15 0.250000 0.578721 0.250000
O O16 0.345438 0.586285 0.298588
O O17 0.000000 0.083686 0.103537
O O18 0.921005 0.000000 0.104398
#
# Coordination Sequence:
#
# PCOD9512901 Si02
#       8
#    32  32   8  32  32  32  32  32
#     4  10  21  33  54  83 119 161 200 242 284 351
#     4  10  21  36  56  82 115 158 202 249 303 359
#     4  12  28  36  56  88 125 168 191 248 284 358
#     4  10  22  40  59  85 113 146 199 257 314 367
#     4  10  21  39  58  86 113 152 195 251 304 347
#     4  11  22  37  57  82 117 161 207 245 282 350
#     4  12  23  39  54  87 122 161 205 238 298 348
#     4   9  19  32  52  82 120 161 196 238 288 354
#
# _framework density 17.414662
#
# number of rings (size 3 to 8) (size 9 to 14) (size 15 to 20)
#    0.000    1.931    2.759    3.724    2.897    4.690 
#    0.000    0.690    0.000    0.000    0.000    0.966 
#    0.000    0.000    0.000    0.000    0.000    0.000 
#
# Total GULP energy -323253.594066 kJ/mol
# GULP energy per Si atom -5573.337829 kJ/mol
# Density = 1.737502 g / cm^3
# Si number density = 17.414662 Si / 1000 Ang^3
#
#
#
# Elastic Constant Matrix: (Units=GPa)
#
#
# Indices 1 2 3 4 5 6 
#
# 1 108.9370 44.9781 9.0548 0.0000 0.0000 0.0000
# 2 44.9781 99.8559 28.7447 0.0000 0.0000 0.0000
# 3 9.0548 28.7447 51.0577 0.0000 0.0000 0.0000
# 4 0.0000 0.0000 0.0000 5.9245 0.0000 0.0000
# 5 0.0000 0.0000 0.0000 0.0000 -0.5120 0.0000
# 6 0.0000 0.0000 0.0000 0.0000 0.0000 12.4402
#
#
#
# Elastic Compliance Matrix: (Units=1/GPa)
#
#
# Indices 1 2 3 4 5 6 
#
# 1 0.011322 -0.005396 0.001030 0.000000 0.000000 0.000000
# 2 -0.005396 0.014523 -0.007219 0.000000 0.000000 0.000000
# 3 0.001030 -0.007219 0.023467 0.000000 0.000000 0.000000
# 4 0.000000 0.000000 0.000000 0.168789 0.000000 0.000000
# 5 0.000000 0.000000 0.000000 0.000000 -1.953153 0.000000
# 6 0.000000 0.000000 0.000000 0.000000 0.000000 0.080384
#
#
# Mechanical properties :
#
#
# Convention : Reuss Voigt Hill
#
# Bulk Modulus (GPa) = 38.25322 47.26731 42.76026
# Shear Modulus (GPa) = -3.08113 15.37542 6.14715
#
# Velocity S-wave (km/s) = -1.33158 2.97459 1.88083
# Velocity P-wave (km/s) = 4.43279 6.24490 5.41518
#
# Compressibility (1/GPa) = 0.02614159
#
# Stress axis : x y z
#
# Youngs Moduli (GPa) = 88.32338 68.85502 42.61235
#
# Poissons Ratio (x) = 0.37156 -0.04390
# Poissons Ratio (y) = 0.47662 0.30763
# Poissons Ratio (z) = -0.09098 0.49709
#
# Static dielectric constant tensor:
#      x y z
#    x 1.604890 0.000000 0.000000 
#    y 0.000000 1.593090 0.000000 
#    z 0.000000 0.000000 1.573870 
# 
# From -- ./inp_files/47061.got.cif
#   From: 2010.05.17/outbox.cif.g08.bks.cpg/sg69_24_cif.got.tgz:47061.got - 2010.06.03 19:29:58.
