data_PCOD9512305
_publ_section_title
;
Structure prediction by ZEFSAII (Michael W. Deem and Ramdas Pophale) SiO2 
 PCOD9512305
Probable space group: F M M M
;
_chemical_formula_sum "Si O2"
_cell_formula_units_Z 144
_cell_length_a 27.754771
_cell_length_b 32.843866
_cell_length_c 8.505169
_cell_angle_alpha 90.000000
_cell_angle_beta 90.000000
_cell_angle_gamma 90.000000
_cell_volume 7753.090752
_symmetry_space_group_name_H-M "F M M M"
_symmetry_group_IT_number 69
_symmetry_cell_setting 'orthorhombic'
loop_
_space_group_symop_operation_xyz
x,y,z
-x,-y,z
x,-y,-z
-x,y,-z
-x,-y,-z
x,y,-z
-x,y,z
x,-y,z
x,1/2+y,1/2+z
-x,1/2-y,1/2+z
x,1/2-y,1/2-z
-x,1/2+y,1/2-z
-x,1/2-y,1/2-z
x,1/2+y,1/2-z
-x,1/2+y,1/2+z
x,1/2-y,1/2+z
1/2+x,y,1/2+z
1/2-x,-y,1/2+z
1/2+x,-y,1/2-z
1/2-x,y,1/2-z
1/2-x,-y,1/2-z
1/2+x,y,1/2-z
1/2-x,y,1/2+z
1/2+x,-y,1/2+z
1/2+x,1/2+y,z
1/2-x,1/2-y,z
1/2+x,1/2-y,-z
1/2-x,1/2+y,-z
1/2-x,1/2-y,-z
1/2+x,1/2+y,-z
1/2-x,1/2+y,z
1/2+x,1/2-y,z
loop_
_atom_site_type_symbol
_atom_site_label
_atom_site_fract_x
_atom_site_fract_y
_atom_site_fract_z
Si Si1 0.846334 0.793821 0.311463
Si Si2 0.553478 0.331041 0.308887
Si Si3 0.055604 0.500000 0.192161
Si Si4 0.698040 0.123685 0.686729
Si Si5 0.102120 0.584682 0.190078
O O1 0.845185 0.794545 0.500000
O O2 0.830898 0.750000 0.250000
O O3 0.901573 0.803261 0.258288
O O4 0.814576 0.831106 0.249400
O O5 0.552577 0.329604 0.500000
O O6 0.500000 0.320151 0.251920
O O7 0.567647 0.377389 0.265039
O O8 0.081736 0.541381 0.243148
O O9 0.000000 0.500000 0.241419
O O10 0.055934 0.500000 0.000000
O O11 0.698381 0.124356 0.500000
O O12 0.750000 0.111032 0.750000
O O13 0.654891 0.095131 0.746780
O O14 0.104099 0.584688 0.000000
#
# Coordination Sequence:
#
# PCOD9512305 Si02
#       5
#    32  32  16  32  32
#     4  10  20  34  52  77 107 137 173 216 261 310
#     4   8  14  26  46  71 102 140 176 210 250 298
#     4   9  16  28  54  89 118 145 178 215 254 301
#     4  11  22  38  58  77 100 133 174 218 268 318
#     4   9  17  31  52  80 111 140 175 216 258 307
#
# _framework density 18.573238
#
# number of rings (size 3 to 8) (size 9 to 14) (size 15 to 20)
#    0.000    2.556    0.000    4.667    0.000    3.556 
#    0.000    3.333    0.000   22.667    0.000    0.000 
#    0.000    0.000    0.000    0.000    0.000    0.000 
#
# Total GULP energy -200876.057621 kJ/mol
# GULP energy per Si atom -5579.890489 kJ/mol
# Density = 1.853096 g / cm^3
# Si number density = 18.573238 Si / 1000 Ang^3
#
#
#
# Elastic Constant Matrix: (Units=GPa)
#
#
# Indices 1 2 3 4 5 6 
#
# 1 99.7412 24.2685 14.1145 -0.0083 0.0171 0.0017
# 2 24.2685 100.5783 17.3999 -0.0077 0.0105 0.0026
# 3 14.1145 17.3999 39.5743 -0.0216 0.0336 0.0111
# 4 -0.0083 -0.0077 -0.0216 16.6901 0.0164 0.0078
# 5 0.0171 0.0105 0.0336 0.0164 18.0566 -0.0082
# 6 0.0017 0.0026 0.0111 0.0078 -0.0082 8.4662
#
#
#
# Elastic Compliance Matrix: (Units=1/GPa)
#
#
# Indices 1 2 3 4 5 6 
#
# 1 0.010965 -0.002131 -0.002974 0.000001 -0.000004 0.000002
# 2 -0.002131 0.011175 -0.004153 -0.000001 0.000003 0.000002
# 3 -0.002974 -0.004153 0.028156 0.000033 -0.000047 -0.000035
# 4 0.000001 -0.000001 0.000033 0.059916 -0.000055 -0.000055
# 5 -0.000004 0.000003 -0.000047 -0.000055 0.055382 0.000053
# 6 0.000002 0.000002 -0.000035 -0.000055 0.000053 0.118116
#
#
# Mechanical properties :
#
#
# Convention : Reuss Voigt Hill
#
# Bulk Modulus (GPa) = 31.46692 39.05107 35.25900
# Shear Modulus (GPa) = 15.98363 20.91665 18.45014
#
# Velocity S-wave (km/s) = 2.93673 3.35949 3.15520
# Velocity P-wave (km/s) = 5.33648 6.00993 5.68319
#
# Compressibility (1/GPa) = 0.03177940
#
# Stress axis : x y z
#
# Youngs Moduli (GPa) = 91.19618 89.48303 35.51677
#
# Poissons Ratio (x) = 0.19072 0.10562
# Poissons Ratio (y) = 0.19437 0.14751
# Poissons Ratio (z) = 0.27120 0.37165
#
# Static dielectric constant tensor:
#      x y z
#    x 1.640210 0.000000 0.000010 
#    y 0.000000 1.622460 -0.000010 
#    z 0.000010 -0.000010 1.628580 
# 
# From -- ./inp_files/5567.got.cif
#   From: 2010.05.17/outbox.cif.g08.bks.cpg/sg69_3_cif.got.tgz:5567.got - 2010.06.03 19:29:58.
