data_PCOD9512508
_publ_section_title
;
Structure prediction by ZEFSAII (Michael W. Deem and Ramdas Pophale) SiO2 
 PCOD9512508
Probable space group: F M M M
;
_chemical_formula_sum "Si O2"
_cell_formula_units_Z 160
_cell_length_a 17.881021
_cell_length_b 28.854460
_cell_length_c 15.528552
_cell_angle_alpha 90.000000
_cell_angle_beta 90.000000
_cell_angle_gamma 90.000000
_cell_volume 8011.913005
_symmetry_space_group_name_H-M "F M M M"
_symmetry_group_IT_number 69
_symmetry_cell_setting 'orthorhombic'
loop_
_space_group_symop_operation_xyz
x,y,z
-x,-y,z
x,-y,-z
-x,y,-z
-x,-y,-z
x,y,-z
-x,y,z
x,-y,z
x,1/2+y,1/2+z
-x,1/2-y,1/2+z
x,1/2-y,1/2-z
-x,1/2+y,1/2-z
-x,1/2-y,1/2-z
x,1/2+y,1/2-z
-x,1/2+y,1/2+z
x,1/2-y,1/2+z
1/2+x,y,1/2+z
1/2-x,-y,1/2+z
1/2+x,-y,1/2-z
1/2-x,y,1/2-z
1/2-x,-y,1/2-z
1/2+x,y,1/2-z
1/2-x,y,1/2+z
1/2+x,-y,1/2+z
1/2+x,1/2+y,z
1/2-x,1/2-y,z
1/2+x,1/2-y,-z
1/2-x,1/2+y,-z
1/2-x,1/2-y,-z
1/2+x,1/2+y,-z
1/2-x,1/2+y,z
1/2+x,1/2-y,z
loop_
_atom_site_type_symbol
_atom_site_label
_atom_site_fract_x
_atom_site_fract_y
_atom_site_fract_z
Si Si1 0.244927 0.050589 0.395731
Si Si2 0.913556 0.216289 0.895515
Si Si3 0.371925 0.317612 0.401810
Si Si4 0.918417 0.417402 0.105196
Si Si5 0.717138 0.150506 0.655630
O O1 0.247065 0.052109 0.500000
O O2 0.157560 0.056720 0.369471
O O3 0.287701 0.095774 0.362695
O O4 0.272032 0.000000 0.367539
O O5 0.890373 0.267731 0.863560
O O6 0.858560 0.177970 0.858087
O O7 0.000000 0.208177 0.875206
O O8 0.904963 0.215266 0.000000
O O9 0.399937 0.315368 0.500000
O O10 0.408578 0.364123 0.364148
O O11 0.283397 0.327835 0.402555
O O12 0.000000 0.435435 0.131502
O O13 0.917468 0.417236 0.000000
O O14 0.750000 0.157149 0.750000
#
# Coordination Sequence:
#
# PCOD9512508 Si02
#       5
#    32  32  32  32  32
#     4   9  18  33  53  74  95 127 174 223 268 316
#     4  10  20  35  57  81 105 139 185 231 265 298
#     4   9  17  31  51  74 101 136 177 214 252 305
#     4   8  13  23  42  70 101 125 150 194 250 304
#     4  11  22  35  51  75 107 141 174 212 267 328
#
# _framework density 19.970261000000001
#
# number of rings (size 3 to 8) (size 9 to 14) (size 15 to 20)
#    0.000    2.600    0.000    4.200    0.000    6.400 
#    0.000    8.000    0.000    0.600    0.000    2.800 
#    0.000    0.000    0.000    0.000    0.000    0.000 
#
# Total GULP energy -223141.095990 kJ/mol
# GULP energy per Si atom -5578.527400 kJ/mol
# Density = 1.992481 g / cm^3
# Si number density = 19.970261 Si / 1000 Ang^3
#
#
#
# Elastic Constant Matrix: (Units=GPa)
#
#
# Indices 1 2 3 4 5 6 
#
# 1 63.1848 54.8803 5.1385 0.0000 0.0000 0.0000
# 2 54.8803 121.4474 16.2761 0.0000 0.0000 0.0000
# 3 5.1385 16.2761 34.2831 0.0000 0.0000 0.0000
# 4 0.0000 0.0000 0.0000 0.4686 0.0000 0.0000
# 5 0.0000 0.0000 0.0000 0.0000 0.6370 0.0000
# 6 0.0000 0.0000 0.0000 0.0000 0.0000 3.9488
#
#
#
# Elastic Compliance Matrix: (Units=1/GPa)
#
#
# Indices 1 2 3 4 5 6 
#
# 1 0.026156 -0.012062 0.001806 0.000000 0.000000 0.000000
# 2 -0.012062 0.014356 -0.005008 0.000000 0.000000 0.000000
# 3 0.001806 -0.005008 0.031276 0.000000 0.000000 0.000000
# 4 0.000000 0.000000 0.000000 2.133829 0.000000 0.000000
# 5 0.000000 0.000000 0.000000 0.000000 1.569969 0.000000
# 6 0.000000 0.000000 0.000000 0.000000 0.000000 0.253243
#
#
# Mechanical properties :
#
#
# Convention : Reuss Voigt Hill
#
# Bulk Modulus (GPa) = 24.23611 41.27833 32.75722
# Shear Modulus (GPa) = 1.22756 10.51890 5.87323
#
# Velocity S-wave (km/s) = 0.78488 2.29755 1.71679
# Velocity P-wave (km/s) = 3.60331 5.26812 4.51314
#
# Compressibility (1/GPa) = 0.04126075
#
# Stress axis : x y z
#
# Youngs Moduli (GPa) = 38.23213 69.65948 31.97388
#
# Poissons Ratio (x) = 0.84020 -0.05774
# Poissons Ratio (y) = 0.46114 0.16011
# Poissons Ratio (z) = -0.06904 0.34882
#
# Static dielectric constant tensor:
#      x y z
#    x 1.697820 0.000000 0.000000 
#    y 0.000000 1.719650 0.000000 
#    z 0.000000 0.000000 1.780890 
# 
# From -- ./inp_files/23159.got.cif
#   From: 2010.05.17/outbox.cif.g08.bks.cpg/sg69_12_cif.got.tgz:23159.got - 2010.06.03 19:29:58.
