data_PCOD9512553
_publ_section_title
;
Structure prediction by ZEFSAII (Michael W. Deem and Ramdas Pophale) SiO2 
 PCOD9512553
Probable space group: F M M M
;
_chemical_formula_sum "Si O2"
_cell_formula_units_Z 136
_cell_length_a 24.793896
_cell_length_b 21.112910
_cell_length_c 13.391763
_cell_angle_alpha 90.000000
_cell_angle_beta 90.000000
_cell_angle_gamma 90.000000
_cell_volume 7010.203517
_symmetry_space_group_name_H-M "F M M M"
_symmetry_group_IT_number 69
_symmetry_cell_setting 'orthorhombic'
loop_
_space_group_symop_operation_xyz
x,y,z
-x,-y,z
x,-y,-z
-x,y,-z
-x,-y,-z
x,y,-z
-x,y,z
x,-y,z
x,1/2+y,1/2+z
-x,1/2-y,1/2+z
x,1/2-y,1/2-z
-x,1/2+y,1/2-z
-x,1/2-y,1/2-z
x,1/2+y,1/2-z
-x,1/2+y,1/2+z
x,1/2-y,1/2+z
1/2+x,y,1/2+z
1/2-x,-y,1/2+z
1/2+x,-y,1/2-z
1/2-x,y,1/2-z
1/2-x,-y,1/2-z
1/2+x,y,1/2-z
1/2-x,y,1/2+z
1/2+x,-y,1/2+z
1/2+x,1/2+y,z
1/2-x,1/2-y,z
1/2+x,1/2-y,-z
1/2-x,1/2+y,-z
1/2-x,1/2-y,-z
1/2+x,1/2+y,-z
1/2-x,1/2+y,z
1/2+x,1/2-y,z
loop_
_atom_site_type_symbol
_atom_site_label
_atom_site_fract_x
_atom_site_fract_y
_atom_site_fract_z
Si Si1 0.939361 0.749218 0.132647
Si Si2 0.170052 0.927516 0.000000
Si Si3 0.832561 0.331486 0.885656
Si Si4 0.187438 0.927656 0.779668
Si Si5 0.250000 0.750000 0.750000
Si Si6 0.439613 0.630261 0.000000
O O1 0.938762 0.750000 0.250000
O O2 0.888297 0.707045 0.104329
O O3 0.932643 0.820349 0.091202
O O4 0.000000 0.728008 0.102846
O O5 0.185709 0.898865 0.892125
O O6 0.105571 0.922255 0.000000
O O7 0.190545 0.000000 0.000000
O O8 0.841207 0.389985 0.809477
O O9 0.788542 0.290340 0.823885
O O10 0.815041 0.347527 0.000000
O O11 0.250000 0.929705 0.750000
O O12 0.166897 0.000000 0.786466
O O13 0.500000 0.605159 0.000000
#
# Coordination Sequence:
#
# PCOD9512553 Si02
#       6
#    32  16  32  32   8  16
#     4  10  20  36  58  85 116 155 195 235 287 351
#     4  10  22  39  61  83 115 154 195 253 299 345
#     4  12  24  38  60  89 124 160 193 250 301 353
#     4  10  23  41  60  84 115 158 206 243 292 357
#     4  12  26  40  52  94 124 158 200 244 298 360
#     4  10  20  35  59  85 112 147 193 241 291 350
#
# _framework density 19.400293000000001
#
# number of rings (size 3 to 8) (size 9 to 14) (size 15 to 20)
#    0.000    1.412    3.529    1.765    1.647    0.706 
#    0.000    0.000    0.000    2.118    0.000    1.647 
#    0.000    0.000    0.000    0.000    0.000    0.000 
#
# Total GULP energy -189445.778667 kJ/mol
# GULP energy per Si atom -5571.934667 kJ/mol
# Density = 1.935614 g / cm^3
# Si number density = 19.400293 Si / 1000 Ang^3
#
#
#
# Elastic Constant Matrix: (Units=GPa)
#
#
# Indices 1 2 3 4 5 6 
#
# 1 89.4390 14.8125 28.1206 0.0000 0.0000 0.0000
# 2 14.8125 36.5173 25.0493 0.0000 0.0000 0.0000
# 3 28.1206 25.0493 213.7291 0.0000 0.0000 0.0000
# 4 0.0000 0.0000 0.0000 16.6664 0.0000 0.0000
# 5 0.0000 0.0000 0.0000 0.0000 13.2761 0.0000
# 6 0.0000 0.0000 0.0000 0.0000 0.0000 26.2853
#
#
#
# Elastic Compliance Matrix: (Units=1/GPa)
#
#
# Indices 1 2 3 4 5 6 
#
# 1 0.012227 -0.004193 -0.001117 0.000000 0.000000 0.000000
# 2 -0.004193 0.031216 -0.003107 0.000000 0.000000 0.000000
# 3 -0.001117 -0.003107 0.005190 0.000000 0.000000 0.000000
# 4 0.000000 0.000000 0.000000 0.060001 0.000000 0.000000
# 5 0.000000 0.000000 0.000000 0.000000 0.075323 0.000000
# 6 0.000000 0.000000 0.000000 0.000000 0.000000 0.038044
#
#
# Mechanical properties :
#
#
# Convention : Reuss Voigt Hill
#
# Bulk Modulus (GPa) = 31.44817 52.85005 42.14911
# Shear Modulus (GPa) = 20.04531 29.35909 24.70220
#
# Velocity S-wave (km/s) = 3.21790 3.89438 3.57219
# Velocity P-wave (km/s) = 5.48196 6.89366 6.22794
#
# Compressibility (1/GPa) = 0.03179835
#
# Stress axis : x y z
#
# Youngs Moduli (GPa) = 81.78946 32.03457 192.68021
#
# Poissons Ratio (x) = 0.13432 0.21527
# Poissons Ratio (y) = 0.34295 0.59864
# Poissons Ratio (z) = 0.09138 0.09953
#
# Static dielectric constant tensor:
#      x y z
#    x 1.685010 0.000000 0.000000 
#    y 0.000000 1.720830 0.000000 
#    z 0.000000 0.000000 1.737610 
# 
# From -- ./inp_files/10214.got.cif
#   From: 2010.05.17/outbox.cif.g08.bks.cpg/sg69_6_cif.got.tgz:10214.got - 2010.06.03 19:29:58.
