data_PCOD9512534
_publ_section_title
;
Structure prediction by ZEFSAII (Michael W. Deem and Ramdas Pophale) SiO2 
 PCOD9512534
Probable space group: F M M M
;
_chemical_formula_sum "Si O2"
_cell_formula_units_Z 192
_cell_length_a 18.982532
_cell_length_b 21.246539
_cell_length_c 25.519075
_cell_angle_alpha 90.000000
_cell_angle_beta 90.000000
_cell_angle_gamma 90.000000
_cell_volume 10292.177412
_symmetry_space_group_name_H-M "F M M M"
_symmetry_group_IT_number 69
_symmetry_cell_setting 'orthorhombic'
loop_
_space_group_symop_operation_xyz
x,y,z
-x,-y,z
x,-y,-z
-x,y,-z
-x,-y,-z
x,y,-z
-x,y,z
x,-y,z
x,1/2+y,1/2+z
-x,1/2-y,1/2+z
x,1/2-y,1/2-z
-x,1/2+y,1/2-z
-x,1/2-y,1/2-z
x,1/2+y,1/2-z
-x,1/2+y,1/2+z
x,1/2-y,1/2+z
1/2+x,y,1/2+z
1/2-x,-y,1/2+z
1/2+x,-y,1/2-z
1/2-x,y,1/2-z
1/2-x,-y,1/2-z
1/2+x,y,1/2-z
1/2-x,y,1/2+z
1/2+x,-y,1/2+z
1/2+x,1/2+y,z
1/2-x,1/2-y,z
1/2+x,1/2-y,-z
1/2-x,1/2+y,-z
1/2-x,1/2-y,-z
1/2+x,1/2+y,-z
1/2-x,1/2+y,z
1/2+x,1/2-y,z
loop_
_atom_site_type_symbol
_atom_site_label
_atom_site_fract_x
_atom_site_fract_y
_atom_site_fract_z
Si Si1 0.086049 0.000000 0.939822
Si Si2 0.420874 0.634193 0.062399
Si Si3 0.828995 0.764563 0.112651
Si Si4 0.914456 0.927678 0.500000
Si Si5 0.083847 0.927592 0.280028
Si Si6 0.084050 0.137293 0.390273
Si Si7 0.329261 0.816649 0.727860
O O1 0.105738 0.933000 0.915441
O O2 0.000000 0.000000 0.941241
O O3 0.111931 0.000000 0.000000
O O4 0.500000 0.646448 0.082787
O O5 0.371279 0.692033 0.073130
O O6 0.426370 0.625515 0.000000
O O7 0.750000 0.750000 0.095519
O O8 0.871615 0.700018 0.120478
O O9 0.825356 0.804581 0.166174
O O10 0.894382 0.892570 0.446193
O O11 0.000000 0.929336 0.500000
O O12 0.889648 0.000000 0.500000
O O13 0.094596 0.909736 0.341368
O O14 0.125114 0.875868 0.246080
O O15 0.000000 0.922482 0.269910
O O16 0.105126 0.000000 0.270396
O O17 0.000000 0.151410 0.392756
O O18 0.358222 0.750000 0.750000
O O19 0.250000 0.823620 0.750000
#
# Coordination Sequence:
#
# PCOD9512534 Si02
#       7
#    16  32  32  16  32  32  32
#     4   7  12  30  58  82 107 146 187 223 274 338
#     4   9  19  36  60  87 116 151 190 234 289 349
#     4  12  23  37  58  82 115 151 195 239 286 337
#     4   9  18  34  57  82 110 145 187 230 272 336
#     4  10  21  37  60  90 118 143 184 246 304 350
#     4  10  20  35  58  84 112 150 191 232 288 346
#     4  11  21  42  62  79 108 156 200 238 286 346
#
# _framework density 18.654945000000001
#
# number of rings (size 3 to 8) (size 9 to 14) (size 15 to 20)
#    0.000    2.000    3.333    2.000    1.167    4.333 
#    1.500    0.000    3.667    0.000    0.000    0.000 
#    0.000    0.000    0.000    0.000    0.000    0.000 
#
# Total GULP energy -267645.409314 kJ/mol
# GULP energy per Si atom -5575.946027 kJ/mol
# Density = 1.861249 g / cm^3
# Si number density = 18.654945 Si / 1000 Ang^3
#
#
#
# Elastic Constant Matrix: (Units=GPa)
#
#
# Indices 1 2 3 4 5 6 
#
# 1 65.6447 70.9469 23.8566 0.0000 0.0000 0.0000
# 2 70.9469 163.5206 32.1392 0.0000 0.0000 0.0000
# 3 23.8566 32.1392 43.4610 0.0000 0.0000 0.0000
# 4 0.0000 0.0000 0.0000 23.3570 0.0000 0.0000
# 5 0.0000 0.0000 0.0000 0.0000 17.7129 0.0000
# 6 0.0000 0.0000 0.0000 0.0000 0.0000 458.7052
#
#
#
# Elastic Compliance Matrix: (Units=1/GPa)
#
#
# Indices 1 2 3 4 5 6 
#
# 1 0.031039 -0.011839 -0.008283 0.000000 0.000000 0.000000
# 2 -0.011839 0.011671 -0.002132 0.000000 0.000000 0.000000
# 3 -0.008283 -0.002132 0.029132 0.000000 0.000000 0.000000
# 4 0.000000 0.000000 0.000000 0.042814 0.000000 0.000000
# 5 0.000000 0.000000 0.000000 0.000000 0.056456 0.000000
# 6 0.000000 0.000000 0.000000 0.000000 0.000000 0.002180
#
#
# Mechanical properties :
#
#
# Convention : Reuss Voigt Hill
#
# Bulk Modulus (GPa) = 36.58391 58.50128 47.54260
# Shear Modulus (GPa) = 22.03500 109.66725 65.85112
#
# Velocity S-wave (km/s) = 3.44057 7.67560 5.94779
# Velocity P-wave (km/s) = 5.95288 10.48718 8.52695
#
# Compressibility (1/GPa) = 0.02733442
#
# Stress axis : x y z
#
# Youngs Moduli (GPa) = 32.21771 85.68216 34.32593
#
# Poissons Ratio (x) = 1.01438 0.28432
# Poissons Ratio (y) = 0.38142 0.07319
# Poissons Ratio (z) = 0.26686 0.18268
#
# Static dielectric constant tensor:
#      x y z
#    x 1.620550 0.000000 0.000000 
#    y 0.000000 1.650130 0.000000 
#    z 0.000000 0.000000 1.686530 
# 
# From -- ./inp_files/37404.got.cif
#   From: 2010.05.17/outbox.cif.g08.bks.cpg/sg69_19_cif.got.tgz:37404.got - 2010.06.03 19:29:58.
