data_PCOD9512292
_publ_section_title
;
Structure prediction by ZEFSAII (Michael W. Deem and Ramdas Pophale) SiO2 
 PCOD9512292
Probable space group: F M M M
;
_chemical_formula_sum "Si O2"
_cell_formula_units_Z 160
_cell_length_a 7.350323
_cell_length_b 30.114331
_cell_length_c 32.230884
_cell_angle_alpha 90.000000
_cell_angle_beta 90.000000
_cell_angle_gamma 90.000000
_cell_volume 7134.308100
_symmetry_space_group_name_H-M "F M M M"
_symmetry_group_IT_number 69
_symmetry_cell_setting 'orthorhombic'
loop_
_space_group_symop_operation_xyz
x,y,z
-x,-y,z
x,-y,-z
-x,y,-z
-x,-y,-z
x,y,-z
-x,y,z
x,-y,z
x,1/2+y,1/2+z
-x,1/2-y,1/2+z
x,1/2-y,1/2-z
-x,1/2+y,1/2-z
-x,1/2-y,1/2-z
x,1/2+y,1/2-z
-x,1/2+y,1/2+z
x,1/2-y,1/2+z
1/2+x,y,1/2+z
1/2-x,-y,1/2+z
1/2+x,-y,1/2-z
1/2-x,y,1/2-z
1/2-x,-y,1/2-z
1/2+x,y,1/2-z
1/2-x,y,1/2+z
1/2+x,-y,1/2+z
1/2+x,1/2+y,z
1/2-x,1/2-y,z
1/2+x,1/2-y,-z
1/2-x,1/2+y,-z
1/2-x,1/2-y,-z
1/2+x,1/2+y,-z
1/2-x,1/2+y,z
1/2+x,1/2-y,z
loop_
_atom_site_type_symbol
_atom_site_label
_atom_site_fract_x
_atom_site_fract_y
_atom_site_fract_z
Si Si1 0.220764 0.951272 0.918905
Si Si2 0.777670 0.642447 0.453905
Si Si3 0.720904 0.951428 0.321310
Si Si4 0.782797 0.197766 0.125082
Si Si5 0.716966 0.143560 0.295666
O O1 0.280307 0.907922 0.943501
O O2 0.267766 0.947019 0.870162
O O3 0.000000 0.951368 0.920541
O O4 0.281479 0.000000 0.933542
O O5 0.719995 0.655645 0.500000
O O6 0.715462 0.674378 0.416893
O O7 0.000000 0.642615 0.453646
O O8 0.500000 0.952052 0.319202
O O9 0.786853 0.907126 0.298834
O O10 0.784023 0.000000 0.306525
O O11 0.750000 0.250000 0.125945
O O12 0.712868 0.173033 0.166295
O O13 0.000000 0.191405 0.124921
O O14 0.500000 0.140885 0.300717
O O15 0.750000 0.162175 0.250000
#
# Coordination Sequence:
#
# PCOD9512292 Si02
#       5
#    32  32  32  32  32
#     4   8  12  20  38  65  97 131 162 191 230 283
#     4   9  16  27  45  70 100 131 162 197 240 290
#     4   8  13  24  44  68  96 130 162 192 232 284
#     4  10  21  37  54  72  97 129 163 204 252 294
#     4  10  20  34  52  74 100 129 163 201 244 292
#
# _framework density 22.426839999999999
#
# number of rings (size 3 to 8) (size 9 to 14) (size 15 to 20)
#    0.000    3.000    2.000    1.200    0.000    2.400 
#    0.000    4.000    0.000    0.000    0.000    0.000 
#    0.000    0.800    0.000    1.800    0.000    2.000 
#
# Total GULP energy -223340.275383 kJ/mol
# GULP energy per Si atom -5583.506885 kJ/mol
# Density = 2.237580 g / cm^3
# Si number density = 22.426840 Si / 1000 Ang^3
#
#
#
# Elastic Constant Matrix: (Units=GPa)
#
#
# Indices 1 2 3 4 5 6 
#
# 1 83.8136 1.3318 3.9360 0.0000 0.0000 0.0000
# 2 1.3318 169.8391 111.2486 0.0000 0.0000 0.0000
# 3 3.9360 111.2486 183.5439 0.0000 0.0000 0.0000
# 4 0.0000 0.0000 0.0000 0.1619 0.0000 0.0000
# 5 0.0000 0.0000 0.0000 0.0000 -1.1374 0.0000
# 6 0.0000 0.0000 0.0000 0.0000 0.0000 -2.6090
#
#
#
# Elastic Compliance Matrix: (Units=1/GPa)
#
#
# Indices 1 2 3 4 5 6 
#
# 1 0.011945 0.000123 -0.000331 0.000000 0.000000 0.000000
# 2 0.000123 0.009766 -0.005922 0.000000 0.000000 0.000000
# 3 -0.000331 -0.005922 0.009045 0.000000 0.000000 0.000000
# 4 0.000000 0.000000 0.000000 6.177568 0.000000 0.000000
# 5 0.000000 0.000000 0.000000 0.000000 -0.879171 0.000000
# 6 0.000000 0.000000 0.000000 0.000000 0.000000 -0.383295
#
#
# Mechanical properties :
#
#
# Convention : Reuss Voigt Hill
#
# Bulk Modulus (GPa) = 54.06518 74.46996 64.26757
# Shear Modulus (GPa) = 1.00720 20.66178 10.83449
#
# Velocity S-wave (km/s) = 0.67088 3.03858 2.20035
# Velocity P-wave (km/s) = 4.97592 6.75192 5.93078
#
# Compressibility (1/GPa) = 0.01849619
#
# Stress axis : x y z
#
# Youngs Moduli (GPa) = 83.71836 102.39644 110.56145
#
# Poissons Ratio (x) = -0.01259 0.03656
# Poissons Ratio (y) = -0.01029 0.65474
# Poissons Ratio (z) = 0.02768 0.60638
#
# Static dielectric constant tensor:
#      x y z
#    x 1.938560 0.000000 0.000000 
#    y 0.000000 1.799870 0.000000 
#    z 0.000000 0.000000 1.805910 
# 
# From -- ./inp_files/11472.got.cif
#   From: 2010.05.17/outbox.cif.g08.bks.cpg/sg69_6_cif.got.tgz:11472.got - 2010.06.03 19:29:58.
