data_PCOD9512995
_publ_section_title
;
Structure prediction by ZEFSAII (Michael W. Deem and Ramdas Pophale) SiO2 
 PCOD9512995
Probable space group: F M M M
;
_chemical_formula_sum "Si O2"
_cell_formula_units_Z 160
_cell_length_a 8.720877
_cell_length_b 34.034355
_cell_length_c 29.223646
_cell_angle_alpha 90.000000
_cell_angle_beta 90.000000
_cell_angle_gamma 90.000000
_cell_volume 8673.853529
_symmetry_space_group_name_H-M "F M M M"
_symmetry_group_IT_number 69
_symmetry_cell_setting 'orthorhombic'
loop_
_space_group_symop_operation_xyz
x,y,z
-x,-y,z
x,-y,-z
-x,y,-z
-x,-y,-z
x,y,-z
-x,y,z
x,-y,z
x,1/2+y,1/2+z
-x,1/2-y,1/2+z
x,1/2-y,1/2-z
-x,1/2+y,1/2-z
-x,1/2-y,1/2-z
x,1/2+y,1/2-z
-x,1/2+y,1/2+z
x,1/2-y,1/2+z
1/2+x,y,1/2+z
1/2-x,-y,1/2+z
1/2+x,-y,1/2-z
1/2-x,y,1/2-z
1/2-x,-y,1/2-z
1/2+x,y,1/2-z
1/2-x,y,1/2+z
1/2+x,-y,1/2+z
1/2+x,1/2+y,z
1/2-x,1/2-y,z
1/2+x,1/2-y,-z
1/2-x,1/2+y,-z
1/2-x,1/2-y,-z
1/2+x,1/2+y,-z
1/2-x,1/2+y,z
1/2+x,1/2-y,z
loop_
_atom_site_type_symbol
_atom_site_label
_atom_site_fract_x
_atom_site_fract_y
_atom_site_fract_z
Si Si1 0.817273 0.353942 0.122185
Si Si2 0.315558 0.500000 0.446253
Si Si3 0.316976 0.708502 0.699588
Si Si4 0.320736 0.707769 0.054821
Si Si5 0.815921 0.000000 0.698710
Si Si6 0.182969 0.440432 0.625702
O O1 0.778407 0.326997 0.165985
O O2 0.766508 0.327576 0.079290
O O3 0.732163 0.395293 0.124175
O O4 0.000000 0.360466 0.121342
O O5 0.500000 0.500000 0.441665
O O6 0.277228 0.500000 0.500000
O O7 0.247726 0.537210 0.419025
O O8 0.500000 0.712041 0.702244
O O9 0.250000 0.701932 0.750000
O O10 0.250000 0.750000 0.682611
O O11 0.500000 0.706911 0.067409
O O12 0.250000 0.750000 0.067665
O O13 0.308414 0.704161 0.000000
O O14 0.750000 0.000000 0.750000
O O15 0.755868 0.962722 0.669414
O O16 0.000000 0.000000 0.699685
O O17 0.000000 0.444661 0.627393
#
# Coordination Sequence:
#
# PCOD9512995 Si02
#       6
#    32  16  32  32  16  32
#     4  11  23  38  57  83 115 151 190 235 285 335
#     4  10  21  40  65  88 114 150 187 228 281 339
#     4  10  21  36  56  80 109 146 188 232 277 329
#     4  10  21  37  57  82 112 149 193 238 286 341
#     4  11  22  41  66  89 117 151 188 230 281 341
#     4  11  23  39  60  88 119 150 188 234 283 339
#
# _framework density 18.446242000000002
#
# number of rings (size 3 to 8) (size 9 to 14) (size 15 to 20)
#    0.000    1.500    0.000    7.200    0.000    8.400 
#    0.000    2.000    0.000    0.000    0.000    0.000 
#    0.000    0.000    0.000    0.000    0.000    0.000 
#
# Total GULP energy -223612.375295 kJ/mol
# GULP energy per Si atom -5590.309382 kJ/mol
# Density = 1.840426 g / cm^3
# Si number density = 18.446242 Si / 1000 Ang^3
#
#
#
# Elastic Constant Matrix: (Units=GPa)
#
#
# Indices 1 2 3 4 5 6 
#
# 1 122.0962 69.1913 67.3730 0.0000 0.0000 0.0000
# 2 69.1913 158.3414 68.5509 0.0000 0.0000 0.0000
# 3 67.3730 68.5509 117.7149 0.0000 0.0000 0.0000
# 4 0.0000 0.0000 0.0000 90.7243 0.0000 0.0000
# 5 0.0000 0.0000 0.0000 0.0000 26.6393 0.0000
# 6 0.0000 0.0000 0.0000 0.0000 0.0000 35.0357
#
#
#
# Elastic Compliance Matrix: (Units=1/GPa)
#
#
# Indices 1 2 3 4 5 6 
#
# 1 0.013165 -0.003330 -0.005596 0.000000 0.000000 0.000000
# 2 -0.003330 0.009287 -0.003502 0.000000 0.000000 0.000000
# 3 -0.005596 -0.003502 0.013737 0.000000 0.000000 0.000000
# 4 0.000000 0.000000 0.000000 0.011022 0.000000 0.000000
# 5 0.000000 0.000000 0.000000 0.000000 0.037539 0.000000
# 6 0.000000 0.000000 0.000000 0.000000 0.000000 0.028542
#
#
# Mechanical properties :
#
#
# Convention : Reuss Voigt Hill
#
# Bulk Modulus (GPa) = 88.23651 89.82032 89.02842
# Shear Modulus (GPa) = 35.22955 43.34902 39.28929
#
# Velocity S-wave (km/s) = 4.37492 4.85296 4.62013
# Velocity P-wave (km/s) = 8.57078 8.95546 8.76523
#
# Compressibility (1/GPa) = 0.01133318
#
# Stress axis : x y z
#
# Youngs Moduli (GPa) = 75.95774 107.67813 72.79560
#
# Poissons Ratio (x) = 0.35861 0.40733
# Poissons Ratio (y) = 0.25297 0.25494
# Poissons Ratio (z) = 0.42502 0.37710
#
# Static dielectric constant tensor:
#      x y z
#    x 1.620720 0.000000 0.000000 
#    y 0.000000 1.602760 0.000000 
#    z 0.000000 0.000000 1.627780 
# 
# From -- ./inp_files/44619.got.cif
#   From: 2010.05.17/outbox.cif.g08.bks.cpg/sg69_23_cif.got.tgz:44619.got - 2010.06.03 19:29:58.
