data_PCOD9512037
_publ_section_title
;
Structure prediction by ZEFSAII (Michael W. Deem and Ramdas Pophale) SiO2 
 PCOD9512037
Probable space group: F M M M
;
_chemical_formula_sum "Si O2"
_cell_formula_units_Z 168
_cell_length_a 13.845664
_cell_length_b 24.342363
_cell_length_c 27.013629
_cell_angle_alpha 90.000000
_cell_angle_beta 90.000000
_cell_angle_gamma 90.000000
_cell_volume 9104.570301
_symmetry_space_group_name_H-M "F M M M"
_symmetry_group_IT_number 69
_symmetry_cell_setting 'orthorhombic'
loop_
_space_group_symop_operation_xyz
x,y,z
-x,-y,z
x,-y,-z
-x,y,-z
-x,-y,-z
x,y,-z
-x,y,z
x,-y,z
x,1/2+y,1/2+z
-x,1/2-y,1/2+z
x,1/2-y,1/2-z
-x,1/2+y,1/2-z
-x,1/2-y,1/2-z
x,1/2+y,1/2-z
-x,1/2+y,1/2+z
x,1/2-y,1/2+z
1/2+x,y,1/2+z
1/2-x,-y,1/2+z
1/2+x,-y,1/2-z
1/2-x,y,1/2-z
1/2-x,-y,1/2-z
1/2+x,y,1/2-z
1/2-x,y,1/2+z
1/2+x,-y,1/2+z
1/2+x,1/2+y,z
1/2-x,1/2-y,z
1/2+x,1/2-y,-z
1/2-x,1/2+y,-z
1/2-x,1/2-y,-z
1/2+x,1/2+y,-z
1/2-x,1/2+y,z
1/2+x,1/2-y,z
loop_
_atom_site_type_symbol
_atom_site_label
_atom_site_fract_x
_atom_site_fract_y
_atom_site_fract_z
Si Si1 0.882779 0.210191 0.055368
Si Si2 0.253077 0.816181 0.692230
Si Si3 0.614760 0.619039 0.127710
Si Si4 0.244621 0.000000 0.000000
Si Si5 0.385087 0.326058 0.397993
Si Si6 0.114876 0.395021 0.000000
Si Si7 0.382388 0.500000 0.098801
O O1 0.850760 0.153368 0.079797
O O2 0.858562 0.263548 0.087120
O O3 0.000000 0.209490 0.053426
O O4 0.846342 0.215327 0.000000
O O5 0.250000 0.830909 0.750000
O O6 0.250000 0.750000 0.689608
O O7 0.350486 0.843579 0.672335
O O8 0.173832 0.838668 0.652375
O O9 0.500000 0.618261 0.126202
O O10 0.646098 0.556010 0.126710
O O11 0.314176 0.053100 0.000000
O O12 0.174177 0.000000 0.047275
O O13 0.500000 0.328598 0.387755
O O14 0.369683 0.360825 0.448742
O O15 0.000000 0.409987 0.000000
O O16 0.500000 0.500000 0.091545
#
# Coordination Sequence:
#
# PCOD9512037 Si02
#       7
#    32  32  32   8  32  16  16
#     4   9  16  29  52  80 111 145 182 226 275 335
#     4  11  23  37  55  85 119 150 193 241 295 359
#     4  10  21  39  58  80 112 152 195 239 288 341
#     4  12  22  36  54  84 126 158 194 230 288 342
#     4  10  19  36  57  83 116 151 190 236 289 345
#     4  10  21  37  61  87 118 156 197 239 287 348
#     4  10  23  39  58  81 114 155 199 243 282 341
#
# _framework density 18.452271
#
# number of rings (size 3 to 8) (size 9 to 14) (size 15 to 20)
#    0.000    1.905    2.857    1.429    1.333    0.762 
#    1.714    3.810    0.000    0.000    0.000    2.667 
#    0.000    0.000    0.000    0.000    0.000    0.000 
#
# Total GULP energy -234201.499470 kJ/mol
# GULP energy per Si atom -5576.226178 kJ/mol
# Density = 1.841027 g / cm^3
# Si number density = 18.452271 Si / 1000 Ang^3
#
#
#
# Elastic Constant Matrix: (Units=GPa)
#
#
# Indices 1 2 3 4 5 6 
#
# 1 52.0937 15.4087 22.6102 0.0000 0.0000 0.0000
# 2 15.4087 107.6969 24.7620 0.0000 0.0000 0.0000
# 3 22.6102 24.7620 122.5219 0.0000 0.0000 0.0000
# 4 0.0000 0.0000 0.0000 11.8589 0.0000 0.0000
# 5 0.0000 0.0000 0.0000 0.0000 17.8259 0.0000
# 6 0.0000 0.0000 0.0000 0.0000 0.0000 19.0639
#
#
#
# Elastic Compliance Matrix: (Units=1/GPa)
#
#
# Indices 1 2 3 4 5 6 
#
# 1 0.021378 -0.002256 -0.003489 0.000000 0.000000 0.000000
# 2 -0.002256 0.009976 -0.001600 0.000000 0.000000 0.000000
# 3 -0.003489 -0.001600 0.009129 0.000000 0.000000 0.000000
# 4 0.000000 0.000000 0.000000 0.084325 0.000000 0.000000
# 5 0.000000 0.000000 0.000000 0.000000 0.056098 0.000000
# 6 0.000000 0.000000 0.000000 0.000000 0.000000 0.052455
#
#
# Mechanical properties :
#
#
# Convention : Reuss Voigt Hill
#
# Bulk Modulus (GPa) = 38.77111 45.31937 42.04524
# Shear Modulus (GPa) = 19.48185 24.38519 21.93352
#
# Velocity S-wave (km/s) = 3.25283 3.63923 3.45144
# Velocity P-wave (km/s) = 5.93001 6.50171 6.22243
#
# Compressibility (1/GPa) = 0.02579240
#
# Stress axis : x y z
#
# Youngs Moduli (GPa) = 46.77720 100.24075 109.54116
#
# Poissons Ratio (x) = 0.22619 0.38219
# Poissons Ratio (y) = 0.10555 0.17524
# Poissons Ratio (z) = 0.16321 0.16036
#
# Static dielectric constant tensor:
#      x y z
#    x 1.692220 0.000000 0.000000 
#    y 0.000000 1.629380 0.000000 
#    z 0.000000 0.000000 1.646520 
# 
# From -- ./inp_files/41017.got.cif
#   From: 2010.05.17/outbox.cif.g08.bks.cpg/sg69_21_cif.got.tgz:41017.got - 2010.06.03 19:29:58.
