data_PCOD9512297
_publ_section_title
;
Structure prediction by ZEFSAII (Michael W. Deem and Ramdas Pophale) SiO2 
 PCOD9512297
Probable space group: F M M M
;
_chemical_formula_sum "Si O2"
_cell_formula_units_Z 176
_cell_length_a 15.715800
_cell_length_b 25.351438
_cell_length_c 22.323864
_cell_angle_alpha 90.000000
_cell_angle_beta 90.000000
_cell_angle_gamma 90.000000
_cell_volume 8894.232134
_symmetry_space_group_name_H-M "F M M M"
_symmetry_group_IT_number 69
_symmetry_cell_setting 'orthorhombic'
loop_
_space_group_symop_operation_xyz
x,y,z
-x,-y,z
x,-y,-z
-x,y,-z
-x,-y,-z
x,y,-z
-x,y,z
x,-y,z
x,1/2+y,1/2+z
-x,1/2-y,1/2+z
x,1/2-y,1/2-z
-x,1/2+y,1/2-z
-x,1/2-y,1/2-z
x,1/2+y,1/2-z
-x,1/2+y,1/2+z
x,1/2-y,1/2+z
1/2+x,y,1/2+z
1/2-x,-y,1/2+z
1/2+x,-y,1/2-z
1/2-x,y,1/2-z
1/2-x,-y,1/2-z
1/2+x,y,1/2-z
1/2-x,y,1/2+z
1/2+x,-y,1/2+z
1/2+x,1/2+y,z
1/2-x,1/2-y,z
1/2+x,1/2-y,-z
1/2-x,1/2+y,-z
1/2-x,1/2-y,-z
1/2+x,1/2+y,-z
1/2-x,1/2+y,z
1/2+x,1/2-y,z
loop_
_atom_site_type_symbol
_atom_site_label
_atom_site_fract_x
_atom_site_fract_y
_atom_site_fract_z
Si Si1 0.096389 0.661826 0.630431
Si Si2 0.598419 0.935584 0.000000
Si Si3 0.763244 0.313647 0.065801
Si Si4 0.149518 0.863592 0.255921
Si Si5 0.406316 0.713703 0.654462
Si Si6 0.897161 0.438576 0.133956
O O1 0.175640 0.658126 0.585051
O O2 0.113003 0.627065 0.689606
O O3 0.102500 0.723640 0.649874
O O4 0.000000 0.653365 0.607587
O O5 0.633961 0.922404 0.066673
O O6 0.500000 0.916808 0.000000
O O7 0.596168 0.000000 0.000000
O O8 0.750000 0.250000 0.062251
O O9 0.835017 0.315553 0.115906
O O10 0.791078 0.330675 0.000000
O O11 0.250000 0.854835 0.250000
O O12 0.105311 0.810429 0.280263
O O13 0.132317 0.906775 0.307296
O O14 0.500000 0.700017 0.631410
O O15 0.874299 0.500000 0.141695
O O16 0.000000 0.434793 0.132316
#
# Coordination Sequence:
#
# PCOD9512297 Si02
#       6
#    32  16  32  32  32  32
#     4  10  20  34  53  74 102 140 181 223 262 310
#     4   7  12  28  54  78 100 129 161 199 255 318
#     4   9  18  33  51  73 102 136 176 222 269 317
#     4  12  22  33  50  74 105 138 177 220 264 312
#     4  10  20  34  52  75 103 138 176 219 268 317
#     4   9  18  34  55  78 105 135 170 213 260 317
#
# _framework density 19.788105000000002
#
# number of rings (size 3 to 8) (size 9 to 14) (size 15 to 20)
#    0.000    2.273    1.818    3.273    0.000    3.273 
#    1.636    3.636    0.000    0.000    0.000    0.000 
#    0.000    0.000    0.000    3.818    0.000    2.364 
#
# Total GULP energy -245261.948775 kJ/mol
# GULP energy per Si atom -5574.135199 kJ/mol
# Density = 1.974307 g / cm^3
# Si number density = 19.788105 Si / 1000 Ang^3
#
#
#
# Elastic Constant Matrix: (Units=GPa)
#
#
# Indices 1 2 3 4 5 6 
#
# 1 90.6327 -6.3203 23.9598 0.0000 0.0000 0.0000
# 2 -6.3203 55.4960 15.6317 0.0000 0.0000 0.0000
# 3 23.9598 15.6317 95.8999 0.0000 0.0000 0.0000
# 4 0.0000 0.0000 0.0000 26.9896 0.0000 0.0000
# 5 0.0000 0.0000 0.0000 0.0000 32.2356 0.0000
# 6 0.0000 0.0000 0.0000 0.0000 0.0000 7.6009
#
#
#
# Elastic Compliance Matrix: (Units=1/GPa)
#
#
# Indices 1 2 3 4 5 6 
#
# 1 0.012096 0.002336 -0.003403 0.000000 0.000000 0.000000
# 2 0.002336 0.019338 -0.003736 0.000000 0.000000 0.000000
# 3 -0.003403 -0.003736 0.011887 0.000000 0.000000 0.000000
# 4 0.000000 0.000000 0.000000 0.037051 0.000000 0.000000
# 5 0.000000 0.000000 0.000000 0.000000 0.031022 0.000000
# 6 0.000000 0.000000 0.000000 0.000000 0.000000 0.131563
#
#
# Mechanical properties :
#
#
# Convention : Reuss Voigt Hill
#
# Bulk Modulus (GPa) = 29.66009 34.28566 31.97288
# Shear Modulus (GPa) = 18.95378 27.28238 23.11808
#
# Velocity S-wave (km/s) = 3.09825 3.71715 3.42172
# Velocity P-wave (km/s) = 5.27449 5.98222 5.63947
#
# Compressibility (1/GPa) = 0.03371533
#
# Stress axis : x y z
#
# Youngs Moduli (GPa) = 82.67167 51.71267 84.12809
#
# Poissons Ratio (x) = -0.12080 0.28628
# Poissons Ratio (y) = -0.19313 0.31428
# Poissons Ratio (z) = 0.28132 0.19318
#
# Static dielectric constant tensor:
#      x y z
#    x 1.708570 0.000000 0.000000 
#    y 0.000000 1.731200 0.000000 
#    z 0.000000 0.000000 1.711770 
# 
# From -- ./inp_files/35925.got.cif
#   From: 2010.05.17/outbox.cif.g08.bks.cpg/sg69_18_cif.got.tgz:35925.got - 2010.06.03 19:29:58.
