data_PCOD9512483
_publ_section_title
;
Structure prediction by ZEFSAII (Michael W. Deem and Ramdas Pophale) SiO2 
 PCOD9512483
Probable space group: F M M M
;
_chemical_formula_sum "Si O2"
_cell_formula_units_Z 160
_cell_length_a 22.395980
_cell_length_b 22.451661
_cell_length_c 17.121517
_cell_angle_alpha 90.000000
_cell_angle_beta 90.000000
_cell_angle_gamma 90.000000
_cell_volume 8609.160185
_symmetry_space_group_name_H-M "F M M M"
_symmetry_group_IT_number 69
_symmetry_cell_setting 'orthorhombic'
loop_
_space_group_symop_operation_xyz
x,y,z
-x,-y,z
x,-y,-z
-x,y,-z
-x,-y,-z
x,y,-z
-x,y,z
x,-y,z
x,1/2+y,1/2+z
-x,1/2-y,1/2+z
x,1/2-y,1/2-z
-x,1/2+y,1/2-z
-x,1/2-y,1/2-z
x,1/2+y,1/2-z
-x,1/2+y,1/2+z
x,1/2-y,1/2+z
1/2+x,y,1/2+z
1/2-x,-y,1/2+z
1/2+x,-y,1/2-z
1/2-x,y,1/2-z
1/2-x,-y,1/2-z
1/2+x,y,1/2-z
1/2-x,y,1/2+z
1/2+x,-y,1/2+z
1/2+x,1/2+y,z
1/2-x,1/2-y,z
1/2+x,1/2-y,-z
1/2-x,1/2+y,-z
1/2-x,1/2-y,-z
1/2+x,1/2+y,-z
1/2-x,1/2+y,z
1/2+x,1/2-y,z
loop_
_atom_site_type_symbol
_atom_site_label
_atom_site_fract_x
_atom_site_fract_y
_atom_site_fract_z
Si Si1 0.935004 0.130018 0.736702
Si Si2 0.803498 0.000000 0.593922
Si Si3 0.609559 0.192903 0.087469
Si Si4 0.665452 0.296527 0.179783
Si Si5 0.067222 0.500000 0.830308
Si Si6 0.237095 0.627955 0.090370
O O1 0.931290 0.163673 0.653315
O O2 0.880542 0.155604 0.785791
O O3 0.000000 0.142685 0.772333
O O4 0.929623 0.060065 0.720228
O O5 0.873432 0.000000 0.616872
O O6 0.770601 0.939605 0.620246
O O7 0.801299 0.000000 0.500000
O O8 0.630995 0.257870 0.114737
O O9 0.670499 0.154383 0.088585
O O10 0.585036 0.192281 0.000000
O O11 0.679396 0.250000 0.250000
O O12 0.721742 0.330069 0.143082
O O13 0.000000 0.500000 0.867778
O O14 0.258956 0.627884 0.000000
#
# Coordination Sequence:
#
# PCOD9512483 Si02
#       6
#    32  16  32  32  16  32
#     4  10  22  38  56  80 110 143 184 232 272 319
#     4  10  20  36  57  85 112 140 178 230 278 320
#     4  10  20  35  56  80 110 145 183 223 270 328
#     4  10  22  36  55  79 112 151 187 219 270 326
#     4  10  20  38  57  77 108 146 182 221 275 329
#     4  10  20  36  56  81 113 142 179 226 273 325
#
# _framework density 18.584855999999998
#
# number of rings (size 3 to 8) (size 9 to 14) (size 15 to 20)
#    0.000    2.000    2.000    1.200    0.000   12.200 
#    0.000    3.000    0.000    1.800    0.000    0.000 
#    0.000   12.000    0.000    0.000    0.000    0.000 
#
# Total GULP energy -223246.577941 kJ/mol
# GULP energy per Si atom -5581.164449 kJ/mol
# Density = 1.854256 g / cm^3
# Si number density = 18.584856 Si / 1000 Ang^3
#
#
#
# Elastic Constant Matrix: (Units=GPa)
#
#
# Indices 1 2 3 4 5 6 
#
# 1 72.9780 30.0776 8.6914 0.0000 0.0000 0.0000
# 2 30.0776 109.8090 11.2242 0.0000 0.0000 0.0000
# 3 8.6914 11.2242 31.7914 0.0000 0.0000 0.0000
# 4 0.0000 0.0000 0.0000 17.0857 0.0000 0.0000
# 5 0.0000 0.0000 0.0000 0.0000 2.9430 0.0000
# 6 0.0000 0.0000 0.0000 0.0000 0.0000 47.0773
#
#
#
# Elastic Compliance Matrix: (Units=1/GPa)
#
#
# Indices 1 2 3 4 5 6 
#
# 1 0.015696 -0.004005 -0.002877 0.000000 0.000000 0.000000
# 2 -0.004005 0.010470 -0.002601 0.000000 0.000000 0.000000
# 3 -0.002877 -0.002601 0.033160 0.000000 0.000000 0.000000
# 4 0.000000 0.000000 0.000000 0.058528 0.000000 0.000000
# 5 0.000000 0.000000 0.000000 0.000000 0.339789 0.000000
# 6 0.000000 0.000000 0.000000 0.000000 0.000000 0.021242
#
#
# Mechanical properties :
#
#
# Convention : Reuss Voigt Hill
#
# Bulk Modulus (GPa) = 24.77796 34.95165 29.86481
# Shear Modulus (GPa) = 9.77890 24.39356 17.08623
#
# Velocity S-wave (km/s) = 2.29634 3.62684 3.03539
# Velocity P-wave (km/s) = 4.51577 6.03208 5.32814
#
# Compressibility (1/GPa) = 0.04035844
#
# Stress axis : x y z
#
# Youngs Moduli (GPa) = 63.70990 95.51380 30.15679
#
# Poissons Ratio (x) = 0.38255 0.08676
# Poissons Ratio (y) = 0.25517 0.07845
# Poissons Ratio (z) = 0.18330 0.24847
#
# Static dielectric constant tensor:
#      x y z
#    x 1.627830 0.000000 0.000000 
#    y 0.000000 1.654520 0.000000 
#    z 0.000000 0.000000 1.649360 
# 
# From -- ./inp_files/24613.got.cif
#   From: 2010.05.17/outbox.cif.g08.bks.cpg/sg69_13_cif.got.tgz:24613.got - 2010.06.03 19:29:58.
