data_PCOD9512085
_publ_section_title
;
Structure prediction by ZEFSAII (Michael W. Deem and Ramdas Pophale) SiO2 
 PCOD9512085
Probable space group: F M M M
;
_chemical_formula_sum "Si O2"
_cell_formula_units_Z 240
_cell_length_a 33.317740
_cell_length_b 19.142354
_cell_length_c 19.804683
_cell_angle_alpha 90.000000
_cell_angle_beta 90.000000
_cell_angle_gamma 90.000000
_cell_volume 12631.030200
_symmetry_space_group_name_H-M "F M M M"
_symmetry_group_IT_number 69
_symmetry_cell_setting 'orthorhombic'
loop_
_space_group_symop_operation_xyz
x,y,z
-x,-y,z
x,-y,-z
-x,y,-z
-x,-y,-z
x,y,-z
-x,y,z
x,-y,z
x,1/2+y,1/2+z
-x,1/2-y,1/2+z
x,1/2-y,1/2-z
-x,1/2+y,1/2-z
-x,1/2-y,1/2-z
x,1/2+y,1/2-z
-x,1/2+y,1/2+z
x,1/2-y,1/2+z
1/2+x,y,1/2+z
1/2-x,-y,1/2+z
1/2+x,-y,1/2-z
1/2-x,y,1/2-z
1/2-x,-y,1/2-z
1/2+x,y,1/2-z
1/2-x,y,1/2+z
1/2+x,-y,1/2+z
1/2+x,1/2+y,z
1/2-x,1/2-y,z
1/2+x,1/2-y,-z
1/2-x,1/2+y,-z
1/2-x,1/2-y,-z
1/2+x,1/2+y,-z
1/2-x,1/2+y,z
1/2+x,1/2-y,z
loop_
_atom_site_type_symbol
_atom_site_label
_atom_site_fract_x
_atom_site_fract_y
_atom_site_fract_z
Si Si1 0.328519 0.827963 0.669685
Si Si2 0.254111 0.165303 0.421867
Si Si3 0.044773 0.576487 0.255171
Si Si4 0.953605 0.196170 0.422888
Si Si5 0.180064 0.659358 0.173944
Si Si6 0.420272 0.335924 0.869120
Si Si7 0.101372 0.579779 0.126505
Si Si8 0.048116 0.416472 0.500000
O O1 0.296393 0.851941 0.613752
O O2 0.326193 0.743209 0.670176
O O3 0.317796 0.854581 0.745311
O O4 0.373882 0.846649 0.650085
O O5 0.250815 0.141228 0.500000
O O6 0.250000 0.250000 0.423945
O O7 0.219215 0.141585 0.370403
O O8 0.047637 0.500000 0.289312
O O9 0.052880 0.636034 0.308318
O O10 0.077605 0.578796 0.197349
O O11 0.000000 0.581756 0.226383
O O12 0.954157 0.221301 0.500000
O O13 0.930601 0.254943 0.380605
O O14 0.928162 0.125449 0.419355
O O15 0.000000 0.187907 0.401586
O O16 0.142883 0.619188 0.140459
O O17 0.432658 0.379878 0.934732
O O18 0.107095 0.500000 0.103796
O O19 0.054598 0.500000 0.500000
O O20 0.000000 0.404161 0.500000
#
# Coordination Sequence:
#
# PCOD9512085 Si02
#       8
#    32  32  32  32  32  32  32  16
#     4  10  20  34  60  91 125 153 194 246 306 367
#     4   9  19  34  59  91 121 152 192 242 301 365
#     4  10  21  37  58  86 121 160 203 249 298 359
#     4  11  24  40  58  84 119 159 208 263 313 361
#     4  10  19  38  57  88 123 155 193 247 306 368
#     4  12  21  36  61  90 123 161 201 248 305 360
#     4  11  23  40  60  84 116 159 210 258 308 363
#     4  11  24  40  58  86 126 173 211 239 293 368
#
# _framework density 19.000826
#
# number of rings (size 3 to 8) (size 9 to 14) (size 15 to 20)
#    0.000    1.533    3.333    2.400    0.933    4.800 
#    0.000    2.000    0.000    3.200    0.000    0.000 
#    0.000    0.000    0.000    0.000    0.000    0.000 
#
# Total GULP energy -334850.023873 kJ/mol
# GULP energy per Si atom -5580.833731 kJ/mol
# Density = 1.895758 g / cm^3
# Si number density = 19.000826 Si / 1000 Ang^3
#
#
#
# Elastic Constant Matrix: (Units=GPa)
#
#
# Indices 1 2 3 4 5 6 
#
# 1 142.6724 28.4913 51.7668 0.0000 0.0000 0.0000
# 2 28.4913 59.2149 23.7167 0.0000 0.0000 0.0000
# 3 51.7668 23.7167 92.7677 0.0000 0.0000 0.0000
# 4 0.0000 0.0000 0.0000 20.2943 0.0000 0.0000
# 5 0.0000 0.0000 0.0000 0.0000 34.1749 0.0000
# 6 0.0000 0.0000 0.0000 0.0000 0.0000 19.8022
#
#
#
# Elastic Compliance Matrix: (Units=1/GPa)
#
#
# Indices 1 2 3 4 5 6 
#
# 1 0.009140 -0.002624 -0.004430 0.000000 0.000000 0.000000
# 2 -0.002624 0.019567 -0.003538 0.000000 0.000000 0.000000
# 3 -0.004430 -0.003538 0.014156 0.000000 0.000000 0.000000
# 4 0.000000 0.000000 0.000000 0.049275 0.000000 0.000000
# 5 0.000000 0.000000 0.000000 0.000000 0.029261 0.000000
# 6 0.000000 0.000000 0.000000 0.000000 0.000000 0.050499
#
#
# Mechanical properties :
#
#
# Convention : Reuss Voigt Hill
#
# Bulk Modulus (GPa) = 46.12547 55.84493 50.98520
# Shear Modulus (GPa) = 24.96135 27.56628 26.26382
#
# Velocity S-wave (km/s) = 3.62843 3.81306 3.72189
# Velocity P-wave (km/s) = 6.47165 6.98860 6.73508
#
# Compressibility (1/GPa) = 0.02167999
#
# Stress axis : x y z
#
# Youngs Moduli (GPa) = 109.40585 51.10586 70.64059
#
# Poissons Ratio (x) = 0.13408 0.31292
# Poissons Ratio (y) = 0.28704 0.24996
# Poissons Ratio (z) = 0.48464 0.18083
#
# Static dielectric constant tensor:
#      x y z
#    x 1.631960 0.000000 0.000000 
#    y 0.000000 1.659890 0.000000 
#    z 0.000000 0.000000 1.673700 
# 
# From -- ./inp_files/33576.got.cif
#   From: 2010.05.17/outbox.cif.g08.bks.cpg/sg69_17_cif.got.tgz:33576.got - 2010.06.03 19:29:58.
