data_PCOD9512340
_publ_section_title
;
Structure prediction by ZEFSAII (Michael W. Deem and Ramdas Pophale) SiO2 
 PCOD9512340
Probable space group: F M M M
;
_chemical_formula_sum "Si O2"
_cell_formula_units_Z 148
_cell_length_a 16.058964
_cell_length_b 16.907472
_cell_length_c 29.781557
_cell_angle_alpha 90.000000
_cell_angle_beta 90.000000
_cell_angle_gamma 90.000000
_cell_volume 8086.183650
_symmetry_space_group_name_H-M "F M M M"
_symmetry_group_IT_number 69
_symmetry_cell_setting 'orthorhombic'
loop_
_space_group_symop_operation_xyz
x,y,z
-x,-y,z
x,-y,-z
-x,y,-z
-x,-y,-z
x,y,-z
-x,y,z
x,-y,z
x,1/2+y,1/2+z
-x,1/2-y,1/2+z
x,1/2-y,1/2-z
-x,1/2+y,1/2-z
-x,1/2-y,1/2-z
x,1/2+y,1/2-z
-x,1/2+y,1/2+z
x,1/2-y,1/2+z
1/2+x,y,1/2+z
1/2-x,-y,1/2+z
1/2+x,-y,1/2-z
1/2-x,y,1/2-z
1/2-x,-y,1/2-z
1/2+x,y,1/2-z
1/2-x,y,1/2+z
1/2+x,-y,1/2+z
1/2+x,1/2+y,z
1/2-x,1/2-y,z
1/2+x,1/2-y,-z
1/2-x,1/2+y,-z
1/2-x,1/2-y,-z
1/2+x,1/2+y,-z
1/2-x,1/2+y,z
1/2+x,1/2-y,z
loop_
_atom_site_type_symbol
_atom_site_label
_atom_site_fract_x
_atom_site_fract_y
_atom_site_fract_z
Si Si1 0.093784 0.135940 0.158551
Si Si2 0.500000 0.500000 0.000000
Si Si3 0.099910 0.909286 0.738629
Si Si4 0.757782 0.091914 0.094354
Si Si5 0.325030 0.911243 0.500000
Si Si6 0.166423 0.799244 0.339384
O O1 0.115281 0.117160 0.210274
O O2 0.161271 0.096685 0.126492
O O3 0.099782 0.230465 0.152095
O O4 0.000000 0.107509 0.149845
O O5 0.424193 0.431230 0.000000
O O6 0.142036 0.853043 0.702487
O O7 0.000000 0.905513 0.732168
O O8 0.127038 0.000000 0.732812
O O9 0.688601 0.146173 0.118012
O O10 0.731869 0.000000 0.092082
O O11 0.790090 0.123709 0.046245
O O12 0.287886 0.000000 0.500000
O O13 0.250000 0.750000 0.328989
#
# Coordination Sequence:
#
# PCOD9512340 Si02
#       6
#    32   4  32  32  16  32
#     4  10  21  34  51  74 105 139 174 215 260 308
#     4   8  16  32  56  84 108 132 166 216 274 320
#     4  10  20  35  54  76 100 135 182 228 261 297
#     4  10  20  34  54  78 103 131 168 213 262 312
#     4   8  18  32  53  81 104 134 164 212 266 305
#     4  10  21  35  49  73 105 142 172 204 258 320
#
# _framework density 18.302824999999999
#
# number of rings (size 3 to 8) (size 9 to 14) (size 15 to 20)
#    0.324    1.946    0.000    2.595    1.514    9.081 
#    0.000   10.270    0.000    0.000    0.000    2.270 
#    0.000   12.108    0.000    0.000    0.000    0.000 
#
# Total GULP energy -206010.981667 kJ/mol
# GULP energy per Si atom -5567.864369 kJ/mol
# Density = 1.826117 g / cm^3
# Si number density = 18.302825 Si / 1000 Ang^3
#
#
#
# Elastic Constant Matrix: (Units=GPa)
#
#
# Indices 1 2 3 4 5 6 
#
# 1 21.6189 8.8534 15.9410 0.0000 0.0000 0.0000
# 2 8.8534 89.7987 25.9061 0.0000 0.0000 0.0000
# 3 15.9410 25.9061 93.9677 0.0000 0.0000 0.0000
# 4 0.0000 0.0000 0.0000 -255.2352 0.0000 0.0000
# 5 0.0000 0.0000 0.0000 0.0000 -17.7525 0.0000
# 6 0.0000 0.0000 0.0000 0.0000 0.0000 18.1002
#
#
#
# Elastic Compliance Matrix: (Units=1/GPa)
#
#
# Indices 1 2 3 4 5 6 
#
# 1 0.053550 -0.002889 -0.008288 0.000000 0.000000 0.000000
# 2 -0.002889 0.012254 -0.002888 0.000000 0.000000 0.000000
# 3 -0.008288 -0.002888 0.012844 0.000000 0.000000 0.000000
# 4 0.000000 0.000000 0.000000 -0.003918 0.000000 0.000000
# 5 0.000000 0.000000 0.000000 0.000000 -0.056330 0.000000
# 6 0.000000 0.000000 0.000000 0.000000 0.000000 0.055248
#
#
# Mechanical properties :
#
#
# Convention : Reuss Voigt Hill
#
# Bulk Modulus (GPa) = 19.79476 34.08736 26.94106
# Shear Modulus (GPa) = 42.15229 -40.66517 0.74356
#
# Velocity S-wave (km/s) = 4.80421 -4.71871 0.63807
# Velocity P-wave (km/s) = 6.45078 3.32020 3.91081
#
# Compressibility (1/GPa) = 0.05051843
#
# Stress axis : x y z
#
# Youngs Moduli (GPa) = 18.67416 81.60561 77.85580
#
# Poissons Ratio (x) = 0.23572 0.64527
# Poissons Ratio (y) = 0.05394 0.22487
# Poissons Ratio (z) = 0.15477 0.23570
#
# Static dielectric constant tensor:
#      x y z
#    x 1.642040 0.000000 0.000000 
#    y 0.000000 1.660850 0.000000 
#    z 0.000000 0.000000 1.646570 
# 
# From -- ./inp_files/46202.got.cif
#   From: 2010.05.17/outbox.cif.g08.bks.cpg/sg69_24_cif.got.tgz:46202.got - 2010.06.03 19:29:58.
