data_PCOD9512213
_publ_section_title
;
Structure prediction by ZEFSAII (Michael W. Deem and Ramdas Pophale) SiO2 
 PCOD9512213
Probable space group: F M M M
;
_chemical_formula_sum "Si O2"
_cell_formula_units_Z 240
_cell_length_a 27.728900
_cell_length_b 16.779711
_cell_length_c 27.542479
_cell_angle_alpha 90.000000
_cell_angle_beta 90.000000
_cell_angle_gamma 90.000000
_cell_volume 12815.045283
_symmetry_space_group_name_H-M "F M M M"
_symmetry_group_IT_number 69
_symmetry_cell_setting 'orthorhombic'
loop_
_space_group_symop_operation_xyz
x,y,z
-x,-y,z
x,-y,-z
-x,y,-z
-x,-y,-z
x,y,-z
-x,y,z
x,-y,z
x,1/2+y,1/2+z
-x,1/2-y,1/2+z
x,1/2-y,1/2-z
-x,1/2+y,1/2-z
-x,1/2-y,1/2-z
x,1/2+y,1/2-z
-x,1/2+y,1/2+z
x,1/2-y,1/2+z
1/2+x,y,1/2+z
1/2-x,-y,1/2+z
1/2+x,-y,1/2-z
1/2-x,y,1/2-z
1/2-x,-y,1/2-z
1/2+x,y,1/2-z
1/2-x,y,1/2+z
1/2+x,-y,1/2+z
1/2+x,1/2+y,z
1/2-x,1/2-y,z
1/2+x,1/2-y,-z
1/2-x,1/2+y,-z
1/2-x,1/2-y,-z
1/2+x,1/2+y,-z
1/2-x,1/2+y,z
1/2+x,1/2-y,z
loop_
_atom_site_type_symbol
_atom_site_label
_atom_site_fract_x
_atom_site_fract_y
_atom_site_fract_z
Si Si1 0.631848 0.092622 0.363221
Si Si2 0.327064 0.405634 0.556590
Si Si3 0.777073 0.327410 0.801578
Si Si4 0.117084 0.251431 0.302922
Si Si5 0.236327 0.092849 0.108718
Si Si6 0.500000 0.093968 0.055174
Si Si7 0.085514 0.688306 0.097721
Si Si8 0.557663 0.357911 0.943734
O O1 0.624563 0.157007 0.320400
O O2 0.681995 0.123171 0.387215
O O3 0.589641 0.097058 0.403425
O O4 0.637027 0.000000 0.347241
O O5 0.338423 0.400594 0.500000
O O6 0.331600 0.500000 0.570392
O O7 0.272846 0.377276 0.568022
O O8 0.363071 0.349122 0.585217
O O9 0.750000 0.342864 0.750000
O O10 0.750000 0.250000 0.822656
O O11 0.832500 0.299025 0.797491
O O12 0.764665 0.394843 0.840369
O O13 0.094080 0.250000 0.250000
O O14 0.086536 0.212946 0.346167
O O15 0.229987 0.000000 0.098781
O O16 0.546375 0.123715 0.083499
O O17 0.500000 0.000000 0.052030
O O18 0.500000 0.126675 0.000000
O O19 0.072397 0.766121 0.066166
O O20 0.500000 0.367191 0.935989
O O21 0.567873 0.379527 0.000000
#
# Coordination Sequence:
#
# PCOD9512213 Si02
#       8
#    32  32  32  32  32  16  32  32
#     4  10  22  38  58  84 117 152 193 243 297 352
#     4  10  20  33  51  80 123 167 196 231 291 359
#     4  11  18  32  57  80 111 150 196 242 286 340
#     4  11  21  38  61  86 115 156 197 243 299 350
#     4  10  20  34  51  80 118 155 194 238 288 350
#     4  11  22  38  63  92 123 159 198 247 304 360
#     4  11  21  36  60  86 120 153 199 249 295 357
#     4  10  21  38  61  86 111 145 192 246 298 347
#
# _framework density 18.727986999999999
#
# number of rings (size 3 to 8) (size 9 to 14) (size 15 to 20)
#    0.000    1.533    4.667    1.600    0.000    2.400 
#    0.000    4.333    0.000    3.200    0.000    0.000 
#    0.000    0.000    0.000    0.000    0.000    0.000 
#
# Total GULP energy -334424.480408 kJ/mol
# GULP energy per Si atom -5573.741340 kJ/mol
# Density = 1.868536 g / cm^3
# Si number density = 18.727987 Si / 1000 Ang^3
#
#
#
# Elastic Constant Matrix: (Units=GPa)
#
#
# Indices 1 2 3 4 5 6 
#
# 1 62.3955 22.6486 35.2864 0.0000 0.0000 0.0000
# 2 22.6486 42.6772 20.1394 0.0000 0.0000 0.0000
# 3 35.2864 20.1394 96.4238 0.0000 0.0000 0.0000
# 4 0.0000 0.0000 0.0000 18.3276 0.0000 0.0000
# 5 0.0000 0.0000 0.0000 0.0000 28.3510 0.0000
# 6 0.0000 0.0000 0.0000 0.0000 0.0000 21.8980
#
#
#
# Elastic Compliance Matrix: (Units=1/GPa)
#
#
# Indices 1 2 3 4 5 6 
#
# 1 0.023034 -0.009148 -0.006519 0.000000 0.000000 0.000000
# 2 -0.009148 0.029627 -0.002840 0.000000 0.000000 0.000000
# 3 -0.006519 -0.002840 0.013350 0.000000 0.000000 0.000000
# 4 0.000000 0.000000 0.000000 0.054562 0.000000 0.000000
# 5 0.000000 0.000000 0.000000 0.000000 0.035272 0.000000
# 6 0.000000 0.000000 0.000000 0.000000 0.000000 0.045666
#
#
# Mechanical properties :
#
#
# Convention : Reuss Voigt Hill
#
# Bulk Modulus (GPa) = 34.48662 39.73838 37.11250
# Shear Modulus (GPa) = 20.14588 21.94348 21.04468
#
# Velocity S-wave (km/s) = 3.28336 3.42672 3.35580
# Velocity P-wave (km/s) = 5.72961 6.07629 5.90549
#
# Compressibility (1/GPa) = 0.02899675
#
# Stress axis : x y z
#
# Youngs Moduli (GPa) = 43.41464 33.75331 74.90857
#
# Poissons Ratio (x) = 0.30877 0.48830
# Poissons Ratio (y) = 0.39715 0.21276
# Poissons Ratio (z) = 0.28300 0.09587
#
# Static dielectric constant tensor:
#      x y z
#    x 1.618750 0.000000 0.000000 
#    y 0.000000 1.670500 0.000000 
#    z 0.000000 0.000000 1.646040 
# 
# From -- ./inp_files/43693.got.cif
#   From: 2010.05.17/outbox.cif.g08.bks.cpg/sg69_22_cif.got.tgz:43693.got - 2010.06.03 19:29:58.
