data_PCOD9512306
_publ_section_title
;
Structure prediction by ZEFSAII (Michael W. Deem and Ramdas Pophale) SiO2 
 PCOD9512306
Probable space group: F M M M
;
_chemical_formula_sum "Si O2"
_cell_formula_units_Z 144
_cell_length_a 32.765163
_cell_length_b 8.570799
_cell_length_c 27.839863
_cell_angle_alpha 90.000000
_cell_angle_beta 90.000000
_cell_angle_gamma 90.000000
_cell_volume 7818.091283
_symmetry_space_group_name_H-M "F M M M"
_symmetry_group_IT_number 69
_symmetry_cell_setting 'orthorhombic'
loop_
_space_group_symop_operation_xyz
x,y,z
-x,-y,z
x,-y,-z
-x,y,-z
-x,-y,-z
x,y,-z
-x,y,z
x,-y,z
x,1/2+y,1/2+z
-x,1/2-y,1/2+z
x,1/2-y,1/2-z
-x,1/2+y,1/2-z
-x,1/2-y,1/2-z
x,1/2+y,1/2-z
-x,1/2+y,1/2+z
x,1/2-y,1/2+z
1/2+x,y,1/2+z
1/2-x,-y,1/2+z
1/2+x,-y,1/2-z
1/2-x,y,1/2-z
1/2-x,-y,1/2-z
1/2+x,y,1/2-z
1/2-x,y,1/2+z
1/2+x,-y,1/2+z
1/2+x,1/2+y,z
1/2-x,1/2-y,z
1/2+x,1/2-y,-z
1/2-x,1/2+y,-z
1/2-x,1/2-y,-z
1/2+x,1/2+y,-z
1/2-x,1/2+y,z
1/2+x,1/2-y,z
loop_
_atom_site_type_symbol
_atom_site_label
_atom_site_fract_x
_atom_site_fract_y
_atom_site_fract_z
Si Si1 0.083468 0.688125 0.652164
Si Si2 0.793632 0.687028 0.602869
Si Si3 0.165994 0.813747 0.697849
Si Si4 0.500000 0.186258 0.195882
Si Si5 0.377202 0.810403 0.446714
O O1 0.083801 0.500000 0.654802
O O2 0.120764 0.751520 0.684349
O O3 0.093825 0.736652 0.597335
O O4 0.040574 0.752212 0.669895
O O5 0.792901 0.500000 0.605067
O O6 0.750000 0.750000 0.587036
O O7 0.804847 0.751933 0.655551
O O8 0.831180 0.734191 0.568467
O O9 0.177708 0.750000 0.750000
O O10 0.165901 0.000000 0.698053
O O11 0.500000 0.250000 0.250000
O O12 0.500000 0.000000 0.196681
O O13 0.387635 0.753796 0.500000
O O14 0.378142 0.000000 0.447658
#
# Coordination Sequence:
#
# PCOD9512306 Si02
#       5
#    32  32  32  16  32
#     4  10  20  36  57  82 111 141 178 220 264 314
#     4  10  20  34  52  77 108 140 179 224 269 317
#     4  11  21  35  54  76 105 141 180 219 267 322
#     4  12  24  38  57  82 113 145 180 219 263 312
#     4   8  16  33  57  81 106 139 178 220 265 314
#
# _framework density 18.418817000000001
#
# number of rings (size 3 to 8) (size 9 to 14) (size 15 to 20)
#    0.000    2.000    0.000    6.333    0.000    0.889 
#    0.000    2.778    0.000   26.667    0.000    0.000 
#    0.000    0.000    0.000    0.000    0.000    0.000 
#
# Total GULP energy -201051.418398 kJ/mol
# GULP energy per Si atom -5584.761622 kJ/mol
# Density = 1.837690 g / cm^3
# Si number density = 18.418817 Si / 1000 Ang^3
#
#
#
# Elastic Constant Matrix: (Units=GPa)
#
#
# Indices 1 2 3 4 5 6 
#
# 1 100.0006 24.0650 31.0813 0.0000 0.0000 -0.0001
# 2 24.0650 96.4739 21.3188 0.0000 0.0000 0.0000
# 3 31.0813 21.3188 116.0351 0.0000 0.0000 0.0000
# 4 0.0000 0.0000 0.0000 14.6302 0.0000 0.0000
# 5 0.0000 0.0000 0.0000 0.0000 4.0957 -0.0001
# 6 -0.0001 0.0000 0.0000 0.0000 -0.0001 34.6590
#
#
#
# Elastic Compliance Matrix: (Units=1/GPa)
#
#
# Indices 1 2 3 4 5 6 
#
# 1 0.011359 -0.002253 -0.002629 0.000000 0.000000 0.000000
# 2 -0.002253 0.011251 -0.001464 0.000000 0.000000 0.000000
# 3 -0.002629 -0.001464 0.009591 0.000000 0.000000 0.000000
# 4 0.000000 0.000000 0.000000 0.068352 0.000000 0.000000
# 5 0.000000 0.000000 0.000000 0.000000 0.244160 0.000000
# 6 0.000000 0.000000 0.000000 0.000000 0.000000 0.028853
#
#
# Mechanical properties :
#
#
# Convention : Reuss Voigt Hill
#
# Bulk Modulus (GPa) = 51.25331 51.71553 51.48442
# Shear Modulus (GPa) = 12.73044 26.41327 19.57186
#
# Velocity S-wave (km/s) = 2.63185 3.79098 3.26329
# Velocity P-wave (km/s) = 6.09283 6.87754 6.49704
#
# Compressibility (1/GPa) = 0.01951093
#
# Stress axis : x y z
#
# Youngs Moduli (GPa) = 88.03536 88.88232 104.26275
#
# Poissons Ratio (x) = 0.20021 0.27409
# Poissons Ratio (y) = 0.19830 0.15261
# Poissons Ratio (z) = 0.23143 0.13010
#
# Static dielectric constant tensor:
#      x y z
#    x 1.611110 0.000000 0.000000 
#    y 0.000000 1.621610 0.000000 
#    z 0.000000 0.000000 1.567390 
# 
# From -- ./inp_files/47378.got.cif
#   From: 2010.05.17/outbox.cif.g08.bks.cpg/sg69_24_cif.got.tgz:47378.got - 2010.06.03 19:29:58.
