data_PCOD9512585
_publ_section_title
;
Structure prediction by ZEFSAII (Michael W. Deem and Ramdas Pophale) SiO2 
 PCOD9512585
Probable space group: F M M M
;
_chemical_formula_sum "Si O2"
_cell_formula_units_Z 144
_cell_length_a 20.780962
_cell_length_b 29.583239
_cell_length_c 14.007234
_cell_angle_alpha 90.000000
_cell_angle_beta 90.000000
_cell_angle_gamma 90.000000
_cell_volume 8611.201550
_symmetry_space_group_name_H-M "F M M M"
_symmetry_group_IT_number 69
_symmetry_cell_setting 'orthorhombic'
loop_
_space_group_symop_operation_xyz
x,y,z
-x,-y,z
x,-y,-z
-x,y,-z
-x,-y,-z
x,y,-z
-x,y,z
x,-y,z
x,1/2+y,1/2+z
-x,1/2-y,1/2+z
x,1/2-y,1/2-z
-x,1/2+y,1/2-z
-x,1/2-y,1/2-z
x,1/2+y,1/2-z
-x,1/2+y,1/2+z
x,1/2-y,1/2+z
1/2+x,y,1/2+z
1/2-x,-y,1/2+z
1/2+x,-y,1/2-z
1/2-x,y,1/2-z
1/2-x,-y,1/2-z
1/2+x,y,1/2-z
1/2-x,y,1/2+z
1/2+x,-y,1/2+z
1/2+x,1/2+y,z
1/2-x,1/2-y,z
1/2+x,1/2-y,-z
1/2-x,1/2+y,-z
1/2-x,1/2-y,-z
1/2+x,1/2+y,-z
1/2-x,1/2+y,z
1/2+x,1/2-y,z
loop_
_atom_site_type_symbol
_atom_site_label
_atom_site_fract_x
_atom_site_fract_y
_atom_site_fract_z
Si Si1 0.851355 0.917261 0.201724
Si Si2 0.422100 0.230919 0.105254
Si Si3 0.423443 0.500000 0.890681
Si Si4 0.282645 0.054521 0.888583
Si Si5 0.077810 0.323321 0.292474
O O1 0.785005 0.923585 0.143277
O O2 0.834192 0.926893 0.312599
O O3 0.884279 0.868964 0.187935
O O4 0.897831 0.956088 0.162931
O O5 0.500000 0.229637 0.103773
O O6 0.406110 0.282107 0.136152
O O7 0.403668 0.196265 0.188220
O O8 0.397648 0.220069 0.000000
O O9 0.500000 0.500000 0.892798
O O10 0.398781 0.500000 0.000000
O O11 0.277252 0.000000 0.875436
O O12 0.296526 0.063108 0.000000
O O13 0.000000 0.330268 0.295416
#
# Coordination Sequence:
#
# PCOD9512585 Si02
#       5
#    32  32  16  32  32
#     4  11  19  34  53  76 104 134 169 214 257 297
#     4   8  15  30  49  70 100 136 170 202 241 298
#     4  11  22  33  49  77 111 139 159 194 256 317
#     4  10  20  36  56  72  92 134 187 223 248 288
#     4   9  18  30  49  78 106 132 163 202 253 311
#
# _framework density 16.722404999999998
#
# number of rings (size 3 to 8) (size 9 to 14) (size 15 to 20)
#    0.000    2.333    2.222    3.333    0.000    2.667 
#    0.000    2.222    0.000   13.333    0.000   12.444 
#    0.000    0.000    0.000    0.000    0.000    0.000 
#
# Total GULP energy -200686.417231 kJ/mol
# GULP energy per Si atom -5574.622701 kJ/mol
# Density = 1.668434 g / cm^3
# Si number density = 16.722405 Si / 1000 Ang^3
#
#
#
# Elastic Constant Matrix: (Units=GPa)
#
#
# Indices 1 2 3 4 5 6 
#
# 1 37.5141 18.3523 6.9019 0.0000 0.0000 0.0000
# 2 18.3523 81.9960 -7.3711 0.0000 0.0000 0.0000
# 3 6.9019 -7.3711 67.7245 0.0000 0.0000 0.0000
# 4 0.0000 0.0000 0.0000 2.7551 0.0000 0.0000
# 5 0.0000 0.0000 0.0000 0.0000 16.0427 0.0000
# 6 0.0000 0.0000 0.0000 0.0000 0.0000 56.7631
#
#
#
# Elastic Compliance Matrix: (Units=1/GPa)
#
#
# Indices 1 2 3 4 5 6 
#
# 1 0.030944 -0.007281 -0.003946 0.000000 0.000000 0.000000
# 2 -0.007281 0.014029 0.002269 0.000000 0.000000 0.000000
# 3 -0.003946 0.002269 0.015415 0.000000 0.000000 0.000000
# 4 0.000000 0.000000 0.000000 0.362961 0.000000 0.000000
# 5 0.000000 0.000000 0.000000 0.000000 0.062334 0.000000
# 6 0.000000 0.000000 0.000000 0.000000 0.000000 0.017617
#
#
# Mechanical properties :
#
#
# Convention : Reuss Voigt Hill
#
# Bulk Modulus (GPa) = 23.54443 24.77786 24.16114
# Shear Modulus (GPa) = 9.33928 26.40228 17.87078
#
# Velocity S-wave (km/s) = 2.36580 3.97779 3.27260
# Velocity P-wave (km/s) = 4.64465 5.99554 5.36280
#
# Compressibility (1/GPa) = 0.04247289
#
# Stress axis : x y z
#
# Youngs Moduli (GPa) = 32.31603 71.27962 64.87274
#
# Poissons Ratio (x) = 0.51897 0.25599
# Poissons Ratio (y) = 0.23528 -0.14719
# Poissons Ratio (z) = 0.12752 -0.16173
#
# Static dielectric constant tensor:
#      x y z
#    x 1.546490 0.000000 0.000000 
#    y 0.000000 1.534170 0.000000 
#    z 0.000000 0.000000 1.591270 
# 
# From -- ./inp_files/15529.got.cif
#   From: 2010.05.17/outbox.cif.g08.bks.cpg/sg69_8_cif.got.tgz:15529.got - 2010.06.03 19:29:58.
