data_PCOD9512856
_publ_section_title
;
Structure prediction by ZEFSAII (Michael W. Deem and Ramdas Pophale) SiO2 
 PCOD9512856
Probable space group: F M M M
;
_chemical_formula_sum "Si O2"
_cell_formula_units_Z 224
_cell_length_a 28.710926
_cell_length_b 23.192228
_cell_length_c 17.994037
_cell_angle_alpha 90.000000
_cell_angle_beta 90.000000
_cell_angle_gamma 90.000000
_cell_volume 11981.695569
_symmetry_space_group_name_H-M "F M M M"
_symmetry_group_IT_number 69
_symmetry_cell_setting 'orthorhombic'
loop_
_space_group_symop_operation_xyz
x,y,z
-x,-y,z
x,-y,-z
-x,y,-z
-x,-y,-z
x,y,-z
-x,y,z
x,-y,z
x,1/2+y,1/2+z
-x,1/2-y,1/2+z
x,1/2-y,1/2-z
-x,1/2+y,1/2-z
-x,1/2-y,1/2-z
x,1/2+y,1/2-z
-x,1/2+y,1/2+z
x,1/2-y,1/2+z
1/2+x,y,1/2+z
1/2-x,-y,1/2+z
1/2+x,-y,1/2-z
1/2-x,y,1/2-z
1/2-x,-y,1/2-z
1/2+x,y,1/2-z
1/2-x,y,1/2+z
1/2+x,-y,1/2+z
1/2+x,1/2+y,z
1/2-x,1/2-y,z
1/2+x,1/2-y,-z
1/2-x,1/2+y,-z
1/2-x,1/2-y,-z
1/2+x,1/2+y,-z
1/2-x,1/2+y,z
1/2+x,1/2-y,z
loop_
_atom_site_type_symbol
_atom_site_label
_atom_site_fract_x
_atom_site_fract_y
_atom_site_fract_z
Si Si1 0.300004 0.220475 0.084443
Si Si2 0.380477 0.398729 0.820705
Si Si3 0.893989 0.712620 0.587104
Si Si4 0.798465 0.878980 0.704526
Si Si5 0.555940 0.935870 0.190240
Si Si6 0.331807 0.000000 0.588307
Si Si7 0.556057 0.169926 0.913841
Si Si8 0.231907 0.000000 0.664990
O O1 0.250000 0.250000 0.092213
O O2 0.340217 0.267951 0.092940
O O3 0.304980 0.171474 0.145568
O O4 0.304006 0.197314 0.000000
O O5 0.400520 0.343900 0.864174
O O6 0.339600 0.380083 0.764238
O O7 0.419661 0.427356 0.769314
O O8 0.357117 0.444345 0.876624
O O9 0.904610 0.701750 0.500000
O O10 0.923048 0.768954 0.611295
O O11 0.750000 0.871745 0.750000
O O12 0.796129 0.940378 0.661406
O O13 0.500000 0.932511 0.197100
O O14 0.571156 0.883980 0.136181
O O15 0.567558 0.000000 0.161443
O O16 0.277742 0.000000 0.614054
O O17 0.334827 0.000000 0.500000
O O18 0.500000 0.172831 0.911586
O O19 0.570253 0.161714 0.000000
O O20 0.250000 0.000000 0.750000
#
# Coordination Sequence:
#
# PCOD9512856 Si02
#       8
#    32  32  32  32  32  16  32  16
#     4  10  22  37  53  78 116 153 188 233 285 348
#     4  12  22  39  62  87 119 158 196 251 298 356
#     4  10  22  39  57  84 118 151 197 247 292 349
#     4  11  21  36  58  82 115 149 192 240 294 348
#     4  10  22  38  60  90 123 160 198 246 304 356
#     4  12  24  40  65  89 114 159 210 245 295 361
#     4   9  19  38  62  88 119 156 200 248 298 355
#     4  10  20  40  56  84 116 145 186 255 287 334
#
# _framework density 18.695184000000001
#
# number of rings (size 3 to 8) (size 9 to 14) (size 15 to 20)
#    0.000    1.571    3.571    2.143    0.000    5.143 
#    0.000    2.857    0.000    1.714    0.000    0.000 
#    0.000    0.000    0.000    0.000    0.000    0.000 
#
# Total GULP energy -312764.408599 kJ/mol
# GULP energy per Si atom -5585.078725 kJ/mol
# Density = 1.865263 g / cm^3
# Si number density = 18.695184 Si / 1000 Ang^3
#
#
#
# Elastic Constant Matrix: (Units=GPa)
#
#
# Indices 1 2 3 4 5 6 
#
# 1 28.4631 18.5945 20.2734 0.0000 0.0000 0.0000
# 2 18.5945 124.4058 68.6629 0.0000 0.0000 0.0000
# 3 20.2734 68.6629 100.6183 0.0000 0.0000 0.0000
# 4 0.0000 0.0000 0.0000 49.8584 0.0000 0.0000
# 5 0.0000 0.0000 0.0000 0.0000 20.9329 0.0000
# 6 0.0000 0.0000 0.0000 0.0000 0.0000 27.2038
#
#
#
# Elastic Compliance Matrix: (Units=1/GPa)
#
#
# Indices 1 2 3 4 5 6 
#
# 1 0.041518 -0.002548 -0.006626 0.000000 0.000000 0.000000
# 2 -0.002548 0.013051 -0.008393 0.000000 0.000000 0.000000
# 3 -0.006626 -0.008393 0.017001 0.000000 0.000000 0.000000
# 4 0.000000 0.000000 0.000000 0.020057 0.000000 0.000000
# 5 0.000000 0.000000 0.000000 0.000000 0.047772 0.000000
# 6 0.000000 0.000000 0.000000 0.000000 0.000000 0.036760
#
#
# Mechanical properties :
#
#
# Convention : Reuss Voigt Hill
#
# Bulk Modulus (GPa) = 27.44610 52.06099 39.75354
# Shear Modulus (GPa) = 22.37753 29.32944 25.85348
#
# Velocity S-wave (km/s) = 3.46348 3.96513 3.72276
# Velocity P-wave (km/s) = 5.54138 6.99076 6.30784
#
# Compressibility (1/GPa) = 0.03643505
#
# Stress axis : x y z
#
# Youngs Moduli (GPa) = 24.08613 76.62021 58.81965
#
# Poissons Ratio (x) = 0.19524 0.38976
# Poissons Ratio (y) = 0.06138 0.49367
# Poissons Ratio (z) = 0.15960 0.64307
#
# Static dielectric constant tensor:
#      x y z
#    x 1.660820 0.000000 0.000000 
#    y 0.000000 1.658620 0.000000 
#    z 0.000000 0.000000 1.623950 
# 
# From -- ./inp_files/27996.got.cif
#   From: 2010.05.17/outbox.cif.g08.bks.cpg/sg69_14_cif.got.tgz:27996.got - 2010.06.03 19:29:58.
