data_PCOD9512135
_publ_section_title
;
Structure prediction by ZEFSAII (Michael W. Deem and Ramdas Pophale) SiO2 
 PCOD9512135
Probable space group: F M M M
;
_chemical_formula_sum "Si O2"
_cell_formula_units_Z 152
_cell_length_a 35.383928
_cell_length_b 7.301694
_cell_length_c 26.315209
_cell_angle_alpha 90.000000
_cell_angle_beta 90.000000
_cell_angle_gamma 90.000000
_cell_volume 6798.866206
_symmetry_space_group_name_H-M "F M M M"
_symmetry_group_IT_number 69
_symmetry_cell_setting 'orthorhombic'
loop_
_space_group_symop_operation_xyz
x,y,z
-x,-y,z
x,-y,-z
-x,y,-z
-x,-y,-z
x,y,-z
-x,y,z
x,-y,z
x,1/2+y,1/2+z
-x,1/2-y,1/2+z
x,1/2-y,1/2-z
-x,1/2+y,1/2-z
-x,1/2-y,1/2-z
x,1/2+y,1/2-z
-x,1/2+y,1/2+z
x,1/2-y,1/2+z
1/2+x,y,1/2+z
1/2-x,-y,1/2+z
1/2+x,-y,1/2-z
1/2-x,y,1/2-z
1/2-x,-y,1/2-z
1/2+x,y,1/2-z
1/2-x,y,1/2+z
1/2+x,-y,1/2+z
1/2+x,1/2+y,z
1/2-x,1/2-y,z
1/2+x,1/2-y,-z
1/2-x,1/2+y,-z
1/2-x,1/2-y,-z
1/2+x,1/2+y,-z
1/2-x,1/2+y,z
1/2+x,1/2-y,z
loop_
_atom_site_type_symbol
_atom_site_label
_atom_site_fract_x
_atom_site_fract_y
_atom_site_fract_z
Si Si1 0.750000 0.250000 0.750000
Si Si2 0.954023 0.709538 0.000000
Si Si3 0.813057 0.774703 0.330278
Si Si4 0.294965 0.217367 0.944598
Si Si5 0.602408 0.283062 0.306825
Si Si6 0.543489 0.275282 0.389675
O O1 0.781432 0.306263 0.707235
O O2 0.943715 0.788472 0.054402
O O3 0.940237 0.500000 0.000000
O O4 0.000000 0.705411 0.000000
O O5 0.808987 0.719239 0.389424
O O6 0.854702 0.717577 0.312665
O O7 0.808819 0.000000 0.326810
O O8 0.250000 0.250000 0.944180
O O9 0.302136 0.000000 0.944934
O O10 0.308946 0.287790 0.000000
O O11 0.604783 0.500000 0.315485
O O12 0.588876 0.250000 0.250000
O O13 0.572545 0.212293 0.347394
O O14 0.500000 0.220987 0.380600
O O15 0.543208 0.500000 0.390882
#
# Coordination Sequence:
#
# PCOD9512135 Si02
#       6
#     8  16  32  32  32  32
#     4  12  18  32  50  66  90 128 166 198 226 284
#     4   7  10  20  40  68  97 122 151 187 229 277
#     4  10  20  32  47  69  94 123 158 197 237 279
#     4   9  17  31  49  68  91 118 151 192 237 283
#     4  10  20  34  48  68  99 126 156 196 237 276
#     4   8  14  26  46  70  97 127 156 189 232 281
#
# _framework density 22.356670000000001
#
# number of rings (size 3 to 8) (size 9 to 14) (size 15 to 20)
#    0.000    2.842    2.105    1.579    0.000    0.421 
#    1.895    1.053    0.000    0.000    0.000    0.737 
#    0.000    2.526    0.000    0.000    0.000    0.000 
#
# Total GULP energy -211677.660916 kJ/mol
# GULP energy per Si atom -5570.464761 kJ/mol
# Density = 2.230578 g / cm^3
# Si number density = 22.356670 Si / 1000 Ang^3
#
#
#
# Elastic Constant Matrix: (Units=GPa)
#
#
# Indices 1 2 3 4 5 6 
#
# 1 123.5834 8.6013 102.2064 0.0006 -0.0004 -0.0046
# 2 8.6013 100.5160 9.5800 0.0008 -0.0008 -0.0116
# 3 102.2064 9.5800 261.8677 0.0000 0.0000 -0.0016
# 4 0.0006 0.0008 0.0000 -3.5518 -0.0001 -0.0030
# 5 -0.0004 -0.0008 0.0000 -0.0001 50.2247 0.0004
# 6 -0.0046 -0.0116 -0.0016 -0.0030 0.0004 -24.1091
#
#
#
# Elastic Compliance Matrix: (Units=1/GPa)
#
#
# Indices 1 2 3 4 5 6 
#
# 1 0.011982 -0.000582 -0.004655 0.000002 0.000000 -0.000002
# 2 -0.000582 0.010012 -0.000139 0.000002 0.000000 -0.000005
# 3 -0.004655 -0.000139 0.005641 -0.000001 0.000000 0.000001
# 4 0.000002 0.000002 -0.000001 -0.281549 -0.000001 0.000035
# 5 0.000000 0.000000 0.000000 -0.000001 0.019911 0.000000
# 6 -0.000002 -0.000005 0.000001 0.000035 0.000000 -0.041478
#
#
# Mechanical properties :
#
#
# Convention : Reuss Voigt Hill
#
# Bulk Modulus (GPa) = 59.23380 80.74917 69.99149
# Shear Modulus (GPa) = -19.29740 28.88473 4.79366
#
# Velocity S-wave (km/s) = -2.94115 3.59833 1.46589
# Velocity P-wave (km/s) = 3.87539 7.31170 5.85148
#
# Compressibility (1/GPa) = 0.01688225
#
# Stress axis : x y z
#
# Youngs Moduli (GPa) = 83.45647 99.88303 177.27973
#
# Poissons Ratio (x) = 0.05810 0.82531
# Poissons Ratio (y) = 0.04854 0.02469
# Poissons Ratio (z) = 0.38852 0.01391
#
# Static dielectric constant tensor:
#      x y z
#    x 1.748300 0.000000 0.000000 
#    y 0.000000 1.818480 0.000000 
#    z 0.000000 0.000000 1.826510 
# 
# From -- ./inp_files/38848.got.cif
#   From: 2010.05.17/outbox.cif.g08.bks.cpg/sg69_20_cif.got.tgz:38848.got - 2010.06.03 19:29:58.
