data_PCOD9512077
_publ_section_title
;
Structure prediction by ZEFSAII (Michael W. Deem and Ramdas Pophale) SiO2 
 PCOD9512077
Probable space group: F M M M
;
_chemical_formula_sum "Si O2"
_cell_formula_units_Z 176
_cell_length_a 14.479227
_cell_length_b 25.272583
_cell_length_c 22.748288
_cell_angle_alpha 90.000000
_cell_angle_beta 90.000000
_cell_angle_gamma 90.000000
_cell_volume 8324.223387
_symmetry_space_group_name_H-M "F M M M"
_symmetry_group_IT_number 69
_symmetry_cell_setting 'orthorhombic'
loop_
_space_group_symop_operation_xyz
x,y,z
-x,-y,z
x,-y,-z
-x,y,-z
-x,-y,-z
x,y,-z
-x,y,z
x,-y,z
x,1/2+y,1/2+z
-x,1/2-y,1/2+z
x,1/2-y,1/2-z
-x,1/2+y,1/2-z
-x,1/2-y,1/2-z
x,1/2+y,1/2-z
-x,1/2+y,1/2+z
x,1/2-y,1/2+z
1/2+x,y,1/2+z
1/2-x,-y,1/2+z
1/2+x,-y,1/2-z
1/2-x,y,1/2-z
1/2-x,-y,1/2-z
1/2+x,y,1/2-z
1/2-x,y,1/2+z
1/2+x,-y,1/2+z
1/2+x,1/2+y,z
1/2-x,1/2-y,z
1/2+x,1/2-y,-z
1/2-x,1/2+y,-z
1/2-x,1/2-y,-z
1/2+x,1/2+y,-z
1/2-x,1/2+y,z
1/2+x,1/2-y,z
loop_
_atom_site_type_symbol
_atom_site_label
_atom_site_fract_x
_atom_site_fract_y
_atom_site_fract_z
Si Si1 0.605958 0.388407 0.343062
Si Si2 0.152385 0.281388 0.565613
Si Si3 0.608769 0.438251 0.218278
Si Si4 0.295769 0.395789 0.111063
Si Si5 0.896937 0.000000 0.931027
Si Si6 0.358590 0.233525 0.185898
O O1 0.500000 0.392494 0.362994
O O2 0.619563 0.426255 0.286970
O O3 0.685476 0.400022 0.389788
O O4 0.625968 0.328775 0.321380
O O5 0.110677 0.275377 0.500000
O O6 0.250000 0.250000 0.563155
O O7 0.172267 0.342842 0.578935
O O8 0.105003 0.259540 0.625154
O O9 0.500000 0.429784 0.205137
O O10 0.632471 0.500000 0.206871
O O11 0.669449 0.398526 0.179006
O O12 0.343895 0.447265 0.085788
O O13 0.000000 0.000000 0.905050
O O14 0.905622 0.000000 0.000000
O O15 0.395413 0.250000 0.250000
O O16 0.250000 0.250000 0.186762
#
# Coordination Sequence:
#
# PCOD9512077 Si02
#       6
#    32  32  32  32  16  32
#     4  11  24  38  58  95 134 175 222 272 333 408
#     4  10  20  37  64  94 125 172 229 274 332 411
#     4  10  22  39  62  96 133 171 224 284 345 415
#     4  12  21  40  69  93 131 180 215 277 346 413
#     4  11  26  46  70 101 129 161 222 290 348 411
#     4  10  19  37  63  92 126 170 228 283 344 406
#
# _framework density 21.143114000000001
#
# number of rings (size 3 to 8) (size 9 to 14) (size 15 to 20)
#    0.000    1.364    4.545    2.727    3.818    1.091 
#    0.000    1.818    0.000    7.636    0.000    0.000 
#    0.000    0.000    0.000    0.000    0.000    0.000 
#
# Total GULP energy -245702.582752 kJ/mol
# GULP energy per Si atom -5584.149608 kJ/mol
# Density = 2.109499 g / cm^3
# Si number density = 21.143114 Si / 1000 Ang^3
#
#
#
# Elastic Constant Matrix: (Units=GPa)
#
#
# Indices 1 2 3 4 5 6 
#
# 1 100.9193 32.0884 27.8774 0.0000 0.0000 0.0000
# 2 32.0884 129.5486 33.6778 0.0000 0.0000 0.0000
# 3 27.8774 33.6778 134.3384 0.0000 0.0000 0.0000
# 4 0.0000 0.0000 0.0000 -9.8248 0.0000 0.0000
# 5 0.0000 0.0000 0.0000 0.0000 -3.5191 0.0000
# 6 0.0000 0.0000 0.0000 0.0000 0.0000 26.9179
#
#
#
# Elastic Compliance Matrix: (Units=1/GPa)
#
#
# Indices 1 2 3 4 5 6 
#
# 1 0.011119 -0.002305 -0.001730 0.000000 0.000000 0.000000
# 2 -0.002305 0.008735 -0.001712 0.000000 0.000000 0.000000
# 3 -0.001730 -0.001712 0.008232 0.000000 0.000000 0.000000
# 4 0.000000 0.000000 0.000000 -0.101783 0.000000 0.000000
# 5 0.000000 0.000000 0.000000 0.000000 -0.284163 0.000000
# 6 0.000000 0.000000 0.000000 0.000000 0.000000 0.037150
#
#
# Mechanical properties :
#
#
# Convention : Reuss Voigt Hill
#
# Bulk Modulus (GPa) = 60.26061 61.34371 60.80216
# Shear Modulus (GPa) = -16.46434 20.79231 2.16399
#
# Velocity S-wave (km/s) = -2.79356 3.13934 1.01278
# Velocity P-wave (km/s) = 4.26120 6.49747 5.49431
#
# Compressibility (1/GPa) = 0.01659459
#
# Stress axis : x y z
#
# Youngs Moduli (GPa) = 89.93231 114.48358 121.47855
#
# Poissons Ratio (x) = 0.26383 0.21013
# Poissons Ratio (y) = 0.20725 0.20792
# Poissons Ratio (z) = 0.15556 0.19594
#
# Static dielectric constant tensor:
#      x y z
#    x 1.780100 0.000000 0.000000 
#    y 0.000000 1.698830 0.000000 
#    z 0.000000 0.000000 1.823860 
# 
# From -- ./inp_files/35918.got.cif
#   From: 2010.05.17/outbox.cif.g08.bks.cpg/sg69_18_cif.got.tgz:35918.got - 2010.06.03 19:29:58.
