data_PCOD9512685
_publ_section_title
;
Structure prediction by ZEFSAII (Michael W. Deem and Ramdas Pophale) SiO2 
 PCOD9512685
Probable space group: F M M M
;
_chemical_formula_sum "Si O2"
_cell_formula_units_Z 160
_cell_length_a 16.687411
_cell_length_b 23.333605
_cell_length_c 22.151668
_cell_angle_alpha 90.000000
_cell_angle_beta 90.000000
_cell_angle_gamma 90.000000
_cell_volume 8625.360149
_symmetry_space_group_name_H-M "F M M M"
_symmetry_group_IT_number 69
_symmetry_cell_setting 'orthorhombic'
loop_
_space_group_symop_operation_xyz
x,y,z
-x,-y,z
x,-y,-z
-x,y,-z
-x,-y,-z
x,y,-z
-x,y,z
x,-y,z
x,1/2+y,1/2+z
-x,1/2-y,1/2+z
x,1/2-y,1/2-z
-x,1/2+y,1/2-z
-x,1/2-y,1/2-z
x,1/2+y,1/2-z
-x,1/2+y,1/2+z
x,1/2-y,1/2+z
1/2+x,y,1/2+z
1/2-x,-y,1/2+z
1/2+x,-y,1/2-z
1/2-x,y,1/2-z
1/2-x,-y,1/2-z
1/2+x,y,1/2-z
1/2-x,y,1/2+z
1/2+x,-y,1/2+z
1/2+x,1/2+y,z
1/2-x,1/2-y,z
1/2+x,1/2-y,-z
1/2-x,1/2+y,-z
1/2-x,1/2-y,-z
1/2+x,1/2+y,-z
1/2-x,1/2+y,z
1/2+x,1/2-y,z
loop_
_atom_site_type_symbol
_atom_site_label
_atom_site_fract_x
_atom_site_fract_y
_atom_site_fract_z
Si Si1 0.749111 0.934154 0.370792
Si Si2 0.593037 0.686933 0.000000
Si Si3 0.167172 0.156904 0.782198
Si Si4 0.653751 0.246374 0.378972
Si Si5 0.665930 0.564987 0.000000
Si Si6 0.907822 0.869912 0.342627
O O1 0.696664 0.893183 0.327423
O O2 0.718423 0.929139 0.439334
O O3 0.840976 0.914039 0.366037
O O4 0.740950 0.000000 0.351565
O O5 0.630816 0.714857 0.940488
O O6 0.500000 0.700227 0.000000
O O7 0.606337 0.618560 0.000000
O O8 0.250000 0.176888 0.750000
O O9 0.130083 0.207092 0.822135
O O10 0.109584 0.136409 0.728993
O O11 0.750000 0.250000 0.377121
O O12 0.614568 0.308540 0.372131
O O13 0.631575 0.500000 0.000000
O O14 0.000000 0.884599 0.354129
#
# Coordination Sequence:
#
# PCOD9512685 Si02
#       6
#    32  16  32  32  16  32
#     4  10  21  40  65  88 114 154 208 253 290 352
#     4  12  25  38  58  92 124 157 192 250 315 357
#     4  10  20  36  61  87 112 156 204 242 287 353
#     4  12  21  39  62  85 119 157 206 242 291 358
#     4  10  20  42  69  89 110 155 209 251 295 355
#     4  11  24  37  57  90 126 158 189 244 305 354
#
# _framework density 18.549949999999999
#
# number of rings (size 3 to 8) (size 9 to 14) (size 15 to 20)
#    0.000    1.200    6.000    1.500    0.000    7.400 
#    0.000    1.500    0.000    1.800    0.000    0.000 
#    0.000    0.000    0.000    0.000    0.000    0.000 
#
# Total GULP energy -223453.749420 kJ/mol
# GULP energy per Si atom -5586.343735 kJ/mol
# Density = 1.850773 g / cm^3
# Si number density = 18.549950 Si / 1000 Ang^3
#
#
#
# Elastic Constant Matrix: (Units=GPa)
#
#
# Indices 1 2 3 4 5 6 
#
# 1 41.3052 7.6859 -7.7842 0.0000 0.0000 0.0000
# 2 7.6859 73.2901 30.0472 0.0000 0.0000 0.0000
# 3 -7.7842 30.0472 89.2049 0.0000 0.0000 0.0000
# 4 0.0000 0.0000 0.0000 27.5213 0.0000 0.0000
# 5 0.0000 0.0000 0.0000 0.0000 8.7641 0.0000
# 6 0.0000 0.0000 0.0000 0.0000 0.0000 15.1183
#
#
#
# Elastic Compliance Matrix: (Units=1/GPa)
#
#
# Indices 1 2 3 4 5 6 
#
# 1 0.025678 -0.004190 0.003652 0.000000 0.000000 0.000000
# 2 -0.004190 0.016514 -0.005928 0.000000 0.000000 0.000000
# 3 0.003652 -0.005928 0.013526 0.000000 0.000000 0.000000
# 4 0.000000 0.000000 0.000000 0.036336 0.000000 0.000000
# 5 0.000000 0.000000 0.000000 0.000000 0.114102 0.000000
# 6 0.000000 0.000000 0.000000 0.000000 0.000000 0.066145
#
#
# Mechanical properties :
#
#
# Convention : Reuss Voigt Hill
#
# Bulk Modulus (GPa) = 23.37245 29.29978 26.33612
# Shear Modulus (GPa) = 16.69479 21.87082 19.28280
#
# Velocity S-wave (km/s) = 3.00324 3.43742 3.22764
# Velocity P-wave (km/s) = 4.96518 5.61995 5.30268
#
# Compressibility (1/GPa) = 0.04278541
#
# Stress axis : x y z
#
# Youngs Moduli (GPa) = 38.94393 60.55385 73.93364
#
# Poissons Ratio (x) = 0.25373 -0.27001
# Poissons Ratio (y) = 0.16318 0.43829
# Poissons Ratio (z) = -0.14223 0.35897
#
# Static dielectric constant tensor:
#      x y z
#    x 1.613250 0.000000 0.000000 
#    y 0.000000 1.646400 0.000000 
#    z 0.000000 0.000000 1.690480 
# 
# From -- ./inp_files/24659.got.cif
#   From: 2010.05.17/outbox.cif.g08.bks.cpg/sg69_13_cif.got.tgz:24659.got - 2010.06.03 19:29:58.
