data_PCOD9512797
_publ_section_title
;
Structure prediction by ZEFSAII (Michael W. Deem and Ramdas Pophale) SiO2 
 PCOD9512797
Probable space group: F M M M
;
_chemical_formula_sum "Si O2"
_cell_formula_units_Z 164
_cell_length_a 29.887218
_cell_length_b 15.029332
_cell_length_c 18.925887
_cell_angle_alpha 90.000000
_cell_angle_beta 90.000000
_cell_angle_gamma 90.000000
_cell_volume 8501.223074
_symmetry_space_group_name_H-M "F M M M"
_symmetry_group_IT_number 69
_symmetry_cell_setting 'orthorhombic'
loop_
_space_group_symop_operation_xyz
x,y,z
-x,-y,z
x,-y,-z
-x,y,-z
-x,-y,-z
x,y,-z
-x,y,z
x,-y,z
x,1/2+y,1/2+z
-x,1/2-y,1/2+z
x,1/2-y,1/2-z
-x,1/2+y,1/2-z
-x,1/2-y,1/2-z
x,1/2+y,1/2-z
-x,1/2+y,1/2+z
x,1/2-y,1/2+z
1/2+x,y,1/2+z
1/2-x,-y,1/2+z
1/2+x,-y,1/2-z
1/2-x,y,1/2-z
1/2-x,-y,1/2-z
1/2+x,y,1/2-z
1/2-x,y,1/2+z
1/2+x,-y,1/2+z
1/2+x,1/2+y,z
1/2-x,1/2-y,z
1/2+x,1/2-y,-z
1/2-x,1/2+y,-z
1/2-x,1/2-y,-z
1/2+x,1/2+y,-z
1/2-x,1/2+y,z
1/2+x,1/2-y,z
loop_
_atom_site_type_symbol
_atom_site_label
_atom_site_fract_x
_atom_site_fract_y
_atom_site_fract_z
Si Si1 0.586404 0.894884 0.769730
Si Si2 0.000000 0.500000 0.500000
Si Si3 0.231966 0.155431 0.866782
Si Si4 0.551160 0.226043 0.347490
Si Si5 0.571930 0.666347 0.000000
Si Si6 0.810754 0.100215 0.270481
Si Si7 0.327356 0.898843 0.500000
O O1 0.580600 0.848640 0.692971
O O2 0.559956 0.825111 0.818485
O O3 0.638228 0.887615 0.791657
O O4 0.573845 0.000000 0.769936
O O5 0.039996 0.578534 0.500000
O O6 0.250000 0.250000 0.891089
O O7 0.202262 0.162649 0.795329
O O8 0.276138 0.107706 0.835000
O O9 0.202993 0.116564 0.930302
O O10 0.500000 0.201499 0.332076
O O11 0.560059 0.219502 0.429614
O O12 0.625659 0.652660 0.000000
O O13 0.806719 0.000000 0.240606
O O14 0.341841 0.000000 0.500000
#
# Coordination Sequence:
#
# PCOD9512797 Si02
#       7
#    32   4  32  32  16  32  16
#     4  10  23  39  65  96 126 167 216 262 325 383
#     4  12  24  48  68 104 126 172 216 270 340 404
#     4  11  23  36  58  88 121 159 207 253 308 364
#     4  11  24  41  64  95 131 166 207 274 328 395
#     4  12  26  43  68  95 132 164 216 264 333 396
#     4  10  20  38  60  85 119 164 204 255 302 369
#     4  12  25  41  60  89 120 167 204 261 321 379
#
# _framework density 19.291342
#
# number of rings (size 3 to 8) (size 9 to 14) (size 15 to 20)
#    0.000    1.171    1.463    6.146    9.561    3.122 
#    0.000    0.488    0.000    1.171    0.000    0.000 
#    0.000    0.000    0.000    0.000    0.000    0.000 
#
# Total GULP energy -228428.987187 kJ/mol
# GULP energy per Si atom -5571.438712 kJ/mol
# Density = 1.924743 g / cm^3
# Si number density = 19.291342 Si / 1000 Ang^3
#
#
#
# Elastic Constant Matrix: (Units=GPa)
#
#
# Indices 1 2 3 4 5 6 
#
# 1 103.2610 3.6615 25.0456 0.0000 0.0000 0.0000
# 2 3.6615 78.3803 24.8682 0.0000 0.0000 0.0000
# 3 25.0456 24.8682 113.2793 0.0000 0.0000 0.0000
# 4 0.0000 0.0000 0.0000 3.9148 0.0000 0.0000
# 5 0.0000 0.0000 0.0000 0.0000 15.6504 0.0000
# 6 0.0000 0.0000 0.0000 0.0000 0.0000 34.0631
#
#
#
# Elastic Compliance Matrix: (Units=1/GPa)
#
#
# Indices 1 2 3 4 5 6 
#
# 1 0.010238 0.000258 -0.002320 0.000000 0.000000 0.000000
# 2 0.000258 0.013720 -0.003069 0.000000 0.000000 0.000000
# 3 -0.002320 -0.003069 0.010014 0.000000 0.000000 0.000000
# 4 0.000000 0.000000 0.000000 0.255442 0.000000 0.000000
# 5 0.000000 0.000000 0.000000 0.000000 0.063896 0.000000
# 6 0.000000 0.000000 0.000000 0.000000 0.000000 0.029357
#
#
# Mechanical properties :
#
#
# Convention : Reuss Voigt Hill
#
# Bulk Modulus (GPa) = 42.17678 44.67460 43.42569
# Shear Modulus (GPa) = 12.47402 26.81533 19.64468
#
# Velocity S-wave (km/s) = 2.54562 3.73234 3.19457
# Velocity P-wave (km/s) = 5.52727 6.46390 6.01385
#
# Compressibility (1/GPa) = 0.02370973
#
# Stress axis : x y z
#
# Youngs Moduli (GPa) = 97.67727 72.88644 99.85574
#
# Poissons Ratio (x) = -0.01880 0.23168
# Poissons Ratio (y) = -0.02519 0.30645
# Poissons Ratio (z) = 0.22663 0.22369
#
# Static dielectric constant tensor:
#      x y z
#    x 1.686200 0.000000 0.000000 
#    y 0.000000 1.697400 0.000000 
#    z 0.000000 0.000000 1.653670 
# 
# From -- ./inp_files/27561.got.cif
#   From: 2010.05.17/outbox.cif.g08.bks.cpg/sg69_14_cif.got.tgz:27561.got - 2010.06.03 19:29:58.
