data_PCOD9512096
_publ_section_title
;
Structure prediction by ZEFSAII (Michael W. Deem and Ramdas Pophale) SiO2 
 PCOD9512096
Probable space group: F M M M
;
_chemical_formula_sum "Si O2"
_cell_formula_units_Z 104
_cell_length_a 15.476189
_cell_length_b 16.976849
_cell_length_c 20.048286
_cell_angle_alpha 90.000000
_cell_angle_beta 90.000000
_cell_angle_gamma 90.000000
_cell_volume 5267.424990
_symmetry_space_group_name_H-M "F M M M"
_symmetry_group_IT_number 69
_symmetry_cell_setting 'orthorhombic'
loop_
_space_group_symop_operation_xyz
x,y,z
-x,-y,z
x,-y,-z
-x,y,-z
-x,-y,-z
x,y,-z
-x,y,z
x,-y,z
x,1/2+y,1/2+z
-x,1/2-y,1/2+z
x,1/2-y,1/2-z
-x,1/2+y,1/2-z
-x,1/2-y,1/2-z
x,1/2+y,1/2-z
-x,1/2+y,1/2+z
x,1/2-y,1/2+z
1/2+x,y,1/2+z
1/2-x,-y,1/2+z
1/2+x,-y,1/2-z
1/2-x,y,1/2-z
1/2-x,-y,1/2-z
1/2+x,y,1/2-z
1/2-x,y,1/2+z
1/2+x,-y,1/2+z
1/2+x,1/2+y,z
1/2-x,1/2-y,z
1/2+x,1/2-y,-z
1/2-x,1/2+y,-z
1/2-x,1/2-y,-z
1/2+x,1/2+y,-z
1/2-x,1/2+y,z
1/2+x,1/2-y,z
loop_
_atom_site_type_symbol
_atom_site_label
_atom_site_fract_x
_atom_site_fract_y
_atom_site_fract_z
Si Si1 0.000000 0.404283 0.856792
Si Si2 0.899906 0.409765 0.391334
Si Si3 0.000000 0.323014 0.000000
Si Si4 0.161321 0.705293 0.500000
Si Si5 0.151752 0.405301 0.241451
O O1 0.000000 0.373485 0.932067
O O2 0.086360 0.377095 0.816344
O O3 0.000000 0.500000 0.855958
O O4 0.871020 0.500000 0.401753
O O5 0.846743 0.350240 0.435633
O O6 0.892606 0.393098 0.313004
O O7 0.000000 0.404302 0.411821
O O8 0.083226 0.266899 0.000000
O O9 0.250000 0.750000 0.500000
O O10 0.159096 0.500000 0.230989
O O11 0.250000 0.374568 0.250000
#
# Coordination Sequence:
#
# PCOD9512096 Si02
#       5
#    16  32   8  16  32
#     4  10  21  41  64  91 124 167 213 254 306 380
#     4  10  19  40  70  94 116 158 214 271 319 359
#     4  12  27  44  59  84 134 180 204 250 321 388
#     4  12  27  43  58  88 133 169 206 255 318 383
#     4   9  18  34  62  95 122 149 203 269 312 356
#
# _framework density 19.743991999999999
#
# number of rings (size 3 to 8) (size 9 to 14) (size 15 to 20)
#    0.000    1.846    3.077    0.692    4.308    1.231 
#    0.000    4.615    0.000    0.000    0.000    0.000 
#    0.000    0.000    0.000    0.000    0.000    0.000 
#
# Total GULP energy -145148.201967 kJ/mol
# GULP energy per Si atom -5582.623153 kJ/mol
# Density = 1.969905 g / cm^3
# Si number density = 19.743992 Si / 1000 Ang^3
#
#
#
# Elastic Constant Matrix: (Units=GPa)
#
#
# Indices 1 2 3 4 5 6 
#
# 1 145.7614 50.8158 78.6196 0.0000 0.0000 0.0000
# 2 50.8158 56.5941 57.1345 0.0000 0.0000 0.0000
# 3 78.6196 57.1345 129.7732 0.0000 0.0000 0.0000
# 4 0.0000 0.0000 0.0000 -73.9566 0.0000 0.0000
# 5 0.0000 0.0000 0.0000 0.0000 55.7372 0.0000
# 6 0.0000 0.0000 0.0000 0.0000 0.0000 21.1798
#
#
#
# Elastic Compliance Matrix: (Units=1/GPa)
#
#
# Indices 1 2 3 4 5 6 
#
# 1 0.011138 -0.005740 -0.004221 0.000000 0.000000 0.000000
# 2 -0.005740 0.034765 -0.011828 0.000000 0.000000 0.000000
# 3 -0.004221 -0.011828 0.015470 0.000000 0.000000 0.000000
# 4 0.000000 0.000000 0.000000 -0.013521 0.000000 0.000000
# 5 0.000000 0.000000 0.000000 0.000000 0.017941 0.000000
# 6 0.000000 0.000000 0.000000 0.000000 0.000000 0.047215
#
#
# Mechanical properties :
#
#
# Convention : Reuss Voigt Hill
#
# Bulk Modulus (GPa) = 56.19415 78.36316 67.27866
# Shear Modulus (GPa) = 30.76588 10.29601 20.53095
#
# Velocity S-wave (km/s) = 3.95174 2.28606 3.22818
# Velocity P-wave (km/s) = 7.02459 6.83695 6.93140
#
# Compressibility (1/GPa) = 0.01779545
#
# Stress axis : x y z
#
# Youngs Moduli (GPa) = 89.78204 28.76462 64.64003
#
# Poissons Ratio (x) = 0.16511 0.27282
# Poissons Ratio (y) = 0.51535 0.76459
# Poissons Ratio (z) = 0.37893 0.34024
#
# Static dielectric constant tensor:
#      x y z
#    x 1.707510 0.000000 0.000000 
#    y 0.000000 1.676460 0.000000 
#    z 0.000000 0.000000 1.676870 
# 
# From -- ./inp_files/16187.got.cif
#   From: 2010.05.17/outbox.cif.g08.bks.cpg/sg69_9_cif.got.tgz:16187.got - 2010.06.03 19:29:58.
