data_PCOD9512518
_publ_section_title
;
Structure prediction by ZEFSAII (Michael W. Deem and Ramdas Pophale) SiO2 
 PCOD9512518
Probable space group: F M M M
;
_chemical_formula_sum "Si O2"
_cell_formula_units_Z 176
_cell_length_a 27.152834
_cell_length_b 19.397253
_cell_length_c 16.523614
_cell_angle_alpha 90.000000
_cell_angle_beta 90.000000
_cell_angle_gamma 90.000000
_cell_volume 8702.828715
_symmetry_space_group_name_H-M "F M M M"
_symmetry_group_IT_number 69
_symmetry_cell_setting 'orthorhombic'
loop_
_space_group_symop_operation_xyz
x,y,z
-x,-y,z
x,-y,-z
-x,y,-z
-x,-y,-z
x,y,-z
-x,y,z
x,-y,z
x,1/2+y,1/2+z
-x,1/2-y,1/2+z
x,1/2-y,1/2-z
-x,1/2+y,1/2-z
-x,1/2-y,1/2-z
x,1/2+y,1/2-z
-x,1/2+y,1/2+z
x,1/2-y,1/2+z
1/2+x,y,1/2+z
1/2-x,-y,1/2+z
1/2+x,-y,1/2-z
1/2-x,y,1/2-z
1/2-x,-y,1/2-z
1/2+x,y,1/2-z
1/2-x,y,1/2+z
1/2+x,-y,1/2+z
1/2+x,1/2+y,z
1/2-x,1/2-y,z
1/2+x,1/2-y,-z
1/2-x,1/2+y,-z
1/2-x,1/2-y,-z
1/2+x,1/2+y,-z
1/2-x,1/2+y,z
1/2+x,1/2-y,z
loop_
_atom_site_type_symbol
_atom_site_label
_atom_site_fract_x
_atom_site_fract_y
_atom_site_fract_z
Si Si1 0.228232 0.319824 0.659467
Si Si2 0.500000 0.919659 0.099167
Si Si3 0.900821 0.152370 0.405569
Si Si4 0.112678 0.706856 0.667394
Si Si5 0.059212 0.578763 0.595103
Si Si6 0.303008 0.077671 0.903038
O O1 0.250000 0.322066 0.750000
O O2 0.250000 0.250000 0.620262
O O3 0.169939 0.313429 0.661807
O O4 0.252018 0.385332 0.617093
O O5 0.450422 0.881904 0.128648
O O6 0.500000 0.000000 0.121680
O O7 0.500000 0.916682 0.000000
O O8 0.900847 0.133889 0.500000
O O9 0.900417 0.234350 0.397620
O O10 0.849758 0.121664 0.370845
O O11 0.104208 0.750000 0.750000
O O12 0.082090 0.638030 0.650778
O O13 0.072600 0.590423 0.500000
O O14 0.074103 0.500000 0.616018
O O15 0.000000 0.581962 0.599915
O O16 0.305505 0.000000 0.871340
O O17 0.306845 0.075240 0.000000
#
# Coordination Sequence:
#
# PCOD9512518 Si02
#       6
#    32  16  32  32  32  32
#     4  11  21  41  59  79 114 160 205 240 293 361
#     4   9  18  34  55  78 111 151 191 234 282 358
#     4  10  20  35  57  85 115 156 201 246 306 368
#     4  12  23  38  63  91 123 158 203 259 309 368
#     4   9  21  44  70  94 125 166 209 256 311 369
#     4  10  21  36  57  87 119 151 195 253 309 361
#
# _framework density 20.223309
#
# number of rings (size 3 to 8) (size 9 to 14) (size 15 to 20)
#    0.000    1.727    3.636    1.636    1.273    5.455 
#    0.000    5.455    0.000    0.000    0.000    0.000 
#    0.000    0.000    0.000    0.000    0.000    0.000 
#
# Total GULP energy -245541.560406 kJ/mol
# GULP energy per Si atom -5580.490009 kJ/mol
# Density = 2.017728 g / cm^3
# Si number density = 20.223309 Si / 1000 Ang^3
#
#
#
# Elastic Constant Matrix: (Units=GPa)
#
#
# Indices 1 2 3 4 5 6 
#
# 1 101.2076 72.8581 31.1560 0.0000 0.0000 0.0000
# 2 72.8581 163.8439 30.2147 0.0000 0.0000 0.0000
# 3 31.1560 30.2147 27.4799 0.0000 0.0000 0.0000
# 4 0.0000 0.0000 0.0000 22.6826 0.0000 0.0000
# 5 0.0000 0.0000 0.0000 0.0000 19.1993 0.0000
# 6 0.0000 0.0000 0.0000 0.0000 0.0000 26.8297
#
#
#
# Elastic Compliance Matrix: (Units=1/GPa)
#
#
# Indices 1 2 3 4 5 6 
#
# 1 0.018357 -0.005425 -0.014848 0.000000 0.000000 0.000000
# 2 -0.005425 0.009259 -0.004030 0.000000 0.000000 0.000000
# 3 -0.014848 -0.004030 0.057655 0.000000 0.000000 0.000000
# 4 0.000000 0.000000 0.000000 0.044087 0.000000 0.000000
# 5 0.000000 0.000000 0.000000 0.000000 0.052085 0.000000
# 6 0.000000 0.000000 0.000000 0.000000 0.000000 0.037272
#
#
# Mechanical properties :
#
#
# Convention : Reuss Voigt Hill
#
# Bulk Modulus (GPa) = 27.27318 62.33209 44.80264
# Shear Modulus (GPa) = 17.88648 24.29583 21.09115
#
# Velocity S-wave (km/s) = 2.97719 3.46985 3.23292
# Velocity P-wave (km/s) = 5.03324 6.85142 6.01147
#
# Compressibility (1/GPa) = 0.03666606
#
# Stress axis : x y z
#
# Youngs Moduli (GPa) = 54.47636 108.00558 17.34455
#
# Poissons Ratio (x) = 0.58590 0.25753
# Poissons Ratio (y) = 0.29552 0.06990
# Poissons Ratio (z) = 0.80884 0.43524
#
# Static dielectric constant tensor:
#      x y z
#    x 1.706390 0.000000 0.000000 
#    y 0.000000 1.716890 0.000000 
#    z 0.000000 0.000000 1.819160 
# 
# From -- ./inp_files/26721.got.cif
#   From: 2010.05.17/outbox.cif.g08.bks.cpg/sg69_14_cif.got.tgz:26721.got - 2010.06.03 19:29:58.
