data_PCOD9512098
_publ_section_title
;
Structure prediction by ZEFSAII (Michael W. Deem and Ramdas Pophale) SiO2 
 PCOD9512098
Probable space group: F M M M
;
_chemical_formula_sum "Si O2"
_cell_formula_units_Z 160
_cell_length_a 24.799719
_cell_length_b 20.974719
_cell_length_c 17.812171
_cell_angle_alpha 90.000000
_cell_angle_beta 90.000000
_cell_angle_gamma 90.000000
_cell_volume 9265.305998
_symmetry_space_group_name_H-M "F M M M"
_symmetry_group_IT_number 69
_symmetry_cell_setting 'orthorhombic'
loop_
_space_group_symop_operation_xyz
x,y,z
-x,-y,z
x,-y,-z
-x,y,-z
-x,-y,-z
x,y,-z
-x,y,z
x,-y,z
x,1/2+y,1/2+z
-x,1/2-y,1/2+z
x,1/2-y,1/2-z
-x,1/2+y,1/2-z
-x,1/2-y,1/2-z
x,1/2+y,1/2-z
-x,1/2+y,1/2+z
x,1/2-y,1/2+z
1/2+x,y,1/2+z
1/2-x,-y,1/2+z
1/2+x,-y,1/2-z
1/2-x,y,1/2-z
1/2-x,-y,1/2-z
1/2+x,y,1/2-z
1/2-x,y,1/2+z
1/2+x,-y,1/2+z
1/2+x,1/2+y,z
1/2-x,1/2-y,z
1/2+x,1/2-y,-z
1/2-x,1/2+y,-z
1/2-x,1/2-y,-z
1/2+x,1/2+y,-z
1/2-x,1/2+y,z
1/2+x,1/2-y,z
loop_
_atom_site_type_symbol
_atom_site_label
_atom_site_fract_x
_atom_site_fract_y
_atom_site_fract_z
Si Si1 0.938393 0.342710 0.913929
Si Si2 0.833516 0.258899 0.084374
Si Si3 0.223603 0.895524 0.585581
Si Si4 0.698527 0.850994 0.303617
Si Si5 0.627023 0.928298 0.810031
O O1 0.893602 0.287469 0.906813
O O2 0.922526 0.395394 0.852809
O O3 0.000000 0.321488 0.905211
O O4 0.932050 0.367368 0.000000
O O5 0.794294 0.320462 0.086619
O O6 0.820653 0.210405 0.150495
O O7 0.828203 0.230753 0.000000
O O8 0.229547 0.915254 0.500000
O O9 0.277118 0.899811 0.635004
O O10 0.174696 0.929389 0.627711
O O11 0.750000 0.836757 0.250000
O O12 0.651795 0.883151 0.254525
O O13 0.616046 0.000000 0.784435
#
# Coordination Sequence:
#
# PCOD9512098 Si02
#       5
#    32  32  32  32  32
#     4   9  19  35  54  75  95 117 150 194 243 291
#     4   9  17  31  50  72  97 122 154 197 240 284
#     4   9  18  30  47  71  95 124 163 199 231 276
#     4  10  20  30  46  69 100 135 162 187 227 279
#     4  10  21  34  46  66  98 130 162 200 235 269
#
# _framework density 17.268723000000001
#
# number of rings (size 3 to 8) (size 9 to 14) (size 15 to 20)
#    0.000    2.600    0.000    3.000    0.000   18.400 
#    0.000    3.000    0.000    1.800    0.000    0.000 
#    0.000    0.000    0.000   12.200    0.000    0.000 
#
# Total GULP energy -223087.063330 kJ/mol
# GULP energy per Si atom -5577.176583 kJ/mol
# Density = 1.722942 g / cm^3
# Si number density = 17.268723 Si / 1000 Ang^3
#
#
#
# Elastic Constant Matrix: (Units=GPa)
#
#
# Indices 1 2 3 4 5 6 
#
# 1 78.9218 14.4186 28.8673 0.0000 0.0000 0.0000
# 2 14.4186 61.5401 34.8696 0.0000 0.0000 0.0000
# 3 28.8673 34.8696 97.3243 0.0000 0.0000 0.0000
# 4 0.0000 0.0000 0.0000 -4.2476 0.0000 0.0000
# 5 0.0000 0.0000 0.0000 0.0000 25.9271 0.0000
# 6 0.0000 0.0000 0.0000 0.0000 0.0000 -0.6887
#
#
#
# Elastic Compliance Matrix: (Units=1/GPa)
#
#
# Indices 1 2 3 4 5 6 
#
# 1 0.014281 -0.001187 -0.003811 0.000000 0.000000 0.000000
# 2 -0.001187 0.020487 -0.006988 0.000000 0.000000 0.000000
# 3 -0.003811 -0.006988 0.013909 0.000000 0.000000 0.000000
# 4 0.000000 0.000000 0.000000 -0.235426 0.000000 0.000000
# 5 0.000000 0.000000 0.000000 0.000000 0.038570 0.000000
# 6 0.000000 0.000000 0.000000 0.000000 0.000000 -1.452054
#
#
# Mechanical properties :
#
#
# Convention : Reuss Voigt Hill
#
# Bulk Modulus (GPa) = 40.47589 43.78858 42.13224
# Shear Modulus (GPa) = -3.18873 14.84020 5.82574
#
# Velocity S-wave (km/s) = -1.36035 2.93468 1.83872
# Velocity P-wave (km/s) = 4.58501 6.07415 5.38134
#
# Compressibility (1/GPa) = 0.02470607
#
# Stress axis : x y z
#
# Youngs Moduli (GPa) = 70.02078 48.81078 71.89584
#
# Poissons Ratio (x) = 0.05793 0.27398
# Poissons Ratio (y) = 0.08310 0.50242
# Poissons Ratio (z) = 0.26684 0.34110
#
# Static dielectric constant tensor:
#      x y z
#    x 1.577770 0.000000 0.000000 
#    y 0.000000 1.600150 0.000000 
#    z 0.000000 0.000000 1.624430 
# 
# From -- ./inp_files/27607.got.cif
#   From: 2010.05.17/outbox.cif.g08.bks.cpg/sg69_14_cif.got.tgz:27607.got - 2010.06.03 19:29:58.
