data_PCOD9512793
_publ_section_title
;
Structure prediction by ZEFSAII (Michael W. Deem and Ramdas Pophale) SiO2 
 PCOD9512793
Probable space group: F M M M
;
_chemical_formula_sum "Si O2"
_cell_formula_units_Z 192
_cell_length_a 16.378027
_cell_length_b 19.051051
_cell_length_c 29.798881
_cell_angle_alpha 90.000000
_cell_angle_beta 90.000000
_cell_angle_gamma 90.000000
_cell_volume 9297.805955
_symmetry_space_group_name_H-M "F M M M"
_symmetry_group_IT_number 69
_symmetry_cell_setting 'orthorhombic'
loop_
_space_group_symop_operation_xyz
x,y,z
-x,-y,z
x,-y,-z
-x,y,-z
-x,-y,-z
x,y,-z
-x,y,z
x,-y,z
x,1/2+y,1/2+z
-x,1/2-y,1/2+z
x,1/2-y,1/2-z
-x,1/2+y,1/2-z
-x,1/2-y,1/2-z
x,1/2+y,1/2-z
-x,1/2+y,1/2+z
x,1/2-y,1/2+z
1/2+x,y,1/2+z
1/2-x,-y,1/2+z
1/2+x,-y,1/2-z
1/2-x,y,1/2-z
1/2-x,-y,1/2-z
1/2+x,y,1/2-z
1/2-x,y,1/2+z
1/2+x,-y,1/2+z
1/2+x,1/2+y,z
1/2-x,1/2-y,z
1/2+x,1/2-y,-z
1/2-x,1/2+y,-z
1/2-x,1/2-y,-z
1/2+x,1/2+y,-z
1/2-x,1/2+y,z
1/2+x,1/2-y,z
loop_
_atom_site_type_symbol
_atom_site_label
_atom_site_fract_x
_atom_site_fract_y
_atom_site_fract_z
Si Si1 0.595783 0.603480 0.823539
Si Si2 0.099585 0.767352 0.949442
Si Si3 0.598140 0.151553 0.122389
Si Si4 0.153903 0.500000 0.248846
Si Si5 0.099922 0.075801 0.922942
Si Si6 0.901059 0.000000 0.644999
Si Si7 0.847785 0.753772 0.301663
O O1 0.500000 0.590767 0.823463
O O2 0.627848 0.566957 0.778704
O O3 0.627111 0.575069 0.870899
O O4 0.614087 0.685492 0.824229
O O5 0.129063 0.709485 0.913382
O O6 0.126300 0.848324 0.941745
O O7 0.000000 0.768406 0.946284
O O8 0.121402 0.746158 0.000000
O O9 0.500000 0.150636 0.118215
O O10 0.621237 0.179258 0.171681
O O11 0.627710 0.071297 0.120656
O O12 0.250000 0.500000 0.250000
O O13 0.123116 0.500000 0.197751
O O14 0.000000 0.077290 0.924424
O O15 0.124023 0.000000 0.943249
O O16 0.000000 0.000000 0.644059
O O17 0.872652 0.750000 0.250000
O O18 0.750000 0.750000 0.304029
#
# Coordination Sequence:
#
# PCOD9512793 Si02
#       7
#    32  32  32  16  32  16  32
#     4  11  21  37  58  80 112 159 203 237 283 352
#     4   9  17  31  54  84 115 147 189 247 308 359
#     4  10  20  38  59  81 112 154 199 243 298 357
#     4  12  26  36  56  85 124 156 195 250 303 348
#     4   9  16  29  50  79 112 148 190 232 281 353
#     4  10  22  38  57  78 110 156 206 247 288 352
#     4  11  24  36  54  82 117 148 195 248 297 353
#
# _framework density 20.650034000000002
#
# number of rings (size 3 to 8) (size 9 to 14) (size 15 to 20)
#    0.000    1.833    2.500    2.250    4.667    3.000 
#    0.000    2.083    0.000    3.000    0.000    0.000 
#    0.000    0.000    0.000    0.000    0.000    0.000 
#
# Total GULP energy -267816.117569 kJ/mol
# GULP energy per Si atom -5579.502449 kJ/mol
# Density = 2.060303 g / cm^3
# Si number density = 20.650034 Si / 1000 Ang^3
#
#
#
# Elastic Constant Matrix: (Units=GPa)
#
#
# Indices 1 2 3 4 5 6 
#
# 1 6.9436 5.1370 4.9568 0.0000 0.0000 0.0000
# 2 5.1370 173.9596 57.1704 0.0000 0.0000 0.0000
# 3 4.9568 57.1704 101.4061 0.0000 0.0000 0.0000
# 4 0.0000 0.0000 0.0000 -3.6225 0.0000 0.0000
# 5 0.0000 0.0000 0.0000 0.0000 -11.5520 0.0000
# 6 0.0000 0.0000 0.0000 0.0000 0.0000 74.1378
#
#
#
# Elastic Compliance Matrix: (Units=1/GPa)
#
#
# Indices 1 2 3 4 5 6 
#
# 1 0.150093 -0.002481 -0.005938 0.000000 0.000000 0.000000
# 2 -0.002481 0.007097 -0.003880 0.000000 0.000000 0.000000
# 3 -0.005938 -0.003880 0.012339 0.000000 0.000000 0.000000
# 4 0.000000 0.000000 0.000000 -0.276051 0.000000 0.000000
# 5 0.000000 0.000000 0.000000 0.000000 -0.086565 0.000000
# 6 0.000000 0.000000 0.000000 0.000000 0.000000 0.013488
#
#
# Mechanical properties :
#
#
# Convention : Reuss Voigt Hill
#
# Bulk Modulus (GPa) = 6.89983 46.31531 26.60757
# Shear Modulus (GPa) = -46.86389 26.12897 -10.36746
#
# Velocity S-wave (km/s) = -4.76903 3.56100 -2.24309
# Velocity P-wave (km/s) = 5.19387 6.27575 2.49086
#
# Compressibility (1/GPa) = 0.14493104
#
# Stress axis : x y z
#
# Youngs Moduli (GPa) = 6.66256 140.90943 81.04452
#
# Poissons Ratio (x) = 0.34956 0.48125
# Poissons Ratio (y) = 0.01653 0.31443
# Poissons Ratio (z) = 0.03956 0.54669
#
# Static dielectric constant tensor:
#      x y z
#    x 1.701020 0.000000 0.000000 
#    y 0.000000 1.803700 0.000000 
#    z 0.000000 0.000000 1.763980 
# 
# From -- ./inp_files/46409.got.cif
#   From: 2010.05.17/outbox.cif.g08.bks.cpg/sg69_24_cif.got.tgz:46409.got - 2010.06.03 19:29:58.
