data_PCOD9512968
_publ_section_title
;
Structure prediction by ZEFSAII (Michael W. Deem and Ramdas Pophale) SiO2 
 PCOD9512968
Probable space group: F M M M
;
_chemical_formula_sum "Si O2"
_cell_formula_units_Z 112
_cell_length_a 10.247799
_cell_length_b 20.836836
_cell_length_c 29.562381
_cell_angle_alpha 90.000000
_cell_angle_beta 90.000000
_cell_angle_gamma 90.000000
_cell_volume 6312.505682
_symmetry_space_group_name_H-M "F M M M"
_symmetry_group_IT_number 69
_symmetry_cell_setting 'orthorhombic'
loop_
_space_group_symop_operation_xyz
x,y,z
-x,-y,z
x,-y,-z
-x,y,-z
-x,-y,-z
x,y,-z
-x,y,z
x,-y,z
x,1/2+y,1/2+z
-x,1/2-y,1/2+z
x,1/2-y,1/2-z
-x,1/2+y,1/2-z
-x,1/2-y,1/2-z
x,1/2+y,1/2-z
-x,1/2+y,1/2+z
x,1/2-y,1/2+z
1/2+x,y,1/2+z
1/2-x,-y,1/2+z
1/2+x,-y,1/2-z
1/2-x,y,1/2-z
1/2-x,-y,1/2-z
1/2+x,y,1/2-z
1/2-x,y,1/2+z
1/2+x,-y,1/2+z
1/2+x,1/2+y,z
1/2-x,1/2-y,z
1/2+x,1/2-y,-z
1/2-x,1/2+y,-z
1/2-x,1/2-y,-z
1/2+x,1/2+y,-z
1/2-x,1/2+y,z
1/2+x,1/2-y,z
loop_
_atom_site_type_symbol
_atom_site_label
_atom_site_fract_x
_atom_site_fract_y
_atom_site_fract_z
Si Si1 0.266905 0.874310 0.090505
Si Si2 0.354225 0.192603 0.000000
Si Si3 0.000000 0.291659 0.203730
Si Si4 0.000000 0.424638 0.550740
Si Si5 0.000000 0.924505 0.345918
Si Si6 0.750000 0.750000 0.352278
O O1 0.133315 0.908530 0.076680
O O2 0.372197 0.910321 0.122540
O O3 0.222708 0.810624 0.116606
O O4 0.335225 0.850926 0.044349
O O5 0.250000 0.250000 0.000000
O O6 0.500000 0.220049 0.000000
O O7 0.000000 0.250000 0.250000
O O8 0.000000 0.370184 0.194727
O O9 0.872392 0.268092 0.177855
O O10 0.000000 0.500000 0.545242
O O11 0.000000 0.394390 0.500000
O O12 0.000000 0.000000 0.332229
#
# Coordination Sequence:
#
# PCOD9512968 Si02
#       6
#    32  16  16  16  16  16
#     4  11  21  37  55  82 121 156 204 249 293 347
#     4  12  24  34  53  84 122 162 209 255 306 338
#     4  10  21  39  64  89 115 142 187 244 310 375
#     4  11  23  34  49  75 112 166 210 244 278 323
#     4  10  22  40  62  85 119 158 197 244 299 374
#     4  10  21  35  60  88 110 146 186 241 311 348
#
# _framework density 17.742559
#
# number of rings (size 3 to 8) (size 9 to 14) (size 15 to 20)
#    0.000    1.286    4.286    2.143    2.000    0.000 
#    0.000    0.714    0.000   17.143    0.000    0.000 
#    0.000    0.000    0.000    0.000    0.000    0.000 
#
# Total GULP energy -156081.039677 kJ/mol
# GULP energy per Si atom -5574.322846 kJ/mol
# Density = 1.770218 g / cm^3
# Si number density = 17.742559 Si / 1000 Ang^3
#
#
#
# Elastic Constant Matrix: (Units=GPa)
#
#
# Indices 1 2 3 4 5 6 
#
# 1 132.7297 54.1013 20.7334 0.0000 0.0000 0.0000
# 2 54.1013 134.9960 57.6527 0.0000 0.0000 0.0000
# 3 20.7334 57.6527 90.7989 0.0000 0.0000 0.0000
# 4 0.0000 0.0000 0.0000 35.8820 0.0000 0.0000
# 5 0.0000 0.0000 0.0000 0.0000 21.8735 0.0000
# 6 0.0000 0.0000 0.0000 0.0000 0.0000 28.9090
#
#
#
# Elastic Compliance Matrix: (Units=1/GPa)
#
#
# Indices 1 2 3 4 5 6 
#
# 1 0.009012 -0.003750 0.000323 0.000000 0.000000 0.000000
# 2 -0.003750 0.011724 -0.006588 0.000000 0.000000 0.000000
# 3 0.000323 -0.006588 0.015123 0.000000 0.000000 0.000000
# 4 0.000000 0.000000 0.000000 0.027869 0.000000 0.000000
# 5 0.000000 0.000000 0.000000 0.000000 0.045717 0.000000
# 6 0.000000 0.000000 0.000000 0.000000 0.000000 0.034591
#
#
# Mechanical properties :
#
#
# Convention : Reuss Voigt Hill
#
# Bulk Modulus (GPa) = 63.17347 69.27773 66.22560
# Shear Modulus (GPa) = 29.52615 32.40205 30.96410
#
# Velocity S-wave (km/s) = 4.08382 4.27808 4.18208
# Velocity P-wave (km/s) = 7.61050 7.97079 7.79273
#
# Compressibility (1/GPa) = 0.01582943
#
# Stress axis : x y z
#
# Youngs Moduli (GPa) = 110.96292 85.29674 66.12655
#
# Poissons Ratio (x) = 0.31983 -0.02136
# Poissons Ratio (y) = 0.41607 0.43563
# Poissons Ratio (z) = -0.03584 0.56192
#
# Static dielectric constant tensor:
#      x y z
#    x 1.570410 0.000000 0.000000 
#    y 0.000000 1.412720 0.000000 
#    z 0.000000 0.000000 1.649380 
# 
# From -- ./inp_files/3851.got.cif
#   From: 2010.05.17/outbox.cif.g08.bks.cpg/sg69_2_cif.got.tgz:3851.got - 2010.06.03 19:29:58.
