data_PCOD9512527
_publ_section_title
;
Structure prediction by ZEFSAII (Michael W. Deem and Ramdas Pophale) SiO2 
 PCOD9512527
Probable space group: F M M M
;
_chemical_formula_sum "Si O2"
_cell_formula_units_Z 168
_cell_length_a 14.263424
_cell_length_b 23.440353
_cell_length_c 25.301962
_cell_angle_alpha 90.000000
_cell_angle_beta 90.000000
_cell_angle_gamma 90.000000
_cell_volume 8459.450221
_symmetry_space_group_name_H-M "F M M M"
_symmetry_group_IT_number 69
_symmetry_cell_setting 'orthorhombic'
loop_
_space_group_symop_operation_xyz
x,y,z
-x,-y,z
x,-y,-z
-x,y,-z
-x,-y,-z
x,y,-z
-x,y,z
x,-y,z
x,1/2+y,1/2+z
-x,1/2-y,1/2+z
x,1/2-y,1/2-z
-x,1/2+y,1/2-z
-x,1/2-y,1/2-z
x,1/2+y,1/2-z
-x,1/2+y,1/2+z
x,1/2-y,1/2+z
1/2+x,y,1/2+z
1/2-x,-y,1/2+z
1/2+x,-y,1/2-z
1/2-x,y,1/2-z
1/2-x,-y,1/2-z
1/2+x,y,1/2-z
1/2-x,y,1/2+z
1/2+x,-y,1/2+z
1/2+x,1/2+y,z
1/2-x,1/2-y,z
1/2+x,1/2-y,-z
1/2-x,1/2+y,-z
1/2-x,1/2-y,-z
1/2+x,1/2+y,-z
1/2-x,1/2+y,z
1/2+x,1/2-y,z
loop_
_atom_site_type_symbol
_atom_site_label
_atom_site_fract_x
_atom_site_fract_y
_atom_site_fract_z
Si Si1 0.392502 0.568335 0.364264
Si Si2 0.389376 0.705369 0.206521
Si Si3 0.287412 0.654084 0.559325
Si Si4 0.889928 0.228469 0.915297
Si Si5 0.000000 0.000000 0.799571
Si Si6 0.351412 0.914830 0.257107
O O1 0.500000 0.576516 0.383489
O O2 0.372236 0.500000 0.366364
O O3 0.322352 0.607604 0.398177
O O4 0.391241 0.586900 0.302627
O O5 0.500000 0.693766 0.215589
O O6 0.358389 0.750000 0.250000
O O7 0.379705 0.729624 0.148124
O O8 0.338918 0.646150 0.215770
O O9 0.296481 0.630772 0.500000
O O10 0.181755 0.678798 0.566691
O O11 0.352342 0.710821 0.564176
O O12 0.000000 0.219473 0.928251
O O13 0.919094 0.048974 0.793417
O O14 0.250000 0.940637 0.250000
#
# Coordination Sequence:
#
# PCOD9512527 Si02
#       6
#    32  32  32  32   8  32
#     4  11  22  40  62  89 122 154 193 244 299 353
#     4  10  20  35  57  87 122 154 189 237 291 355
#     4  11  24  40  61  88 115 151 202 253 304 362
#     4  10  21  39  60  86 119 155 195 245 301 355
#     4  12  22  40  54  86 121 164 207 238 276 336
#     4  12  22  38  61  87 121 163 201 237 286 346
#
# _framework density 19.859446999999999
#
# number of rings (size 3 to 8) (size 9 to 14) (size 15 to 20)
#    0.000    1.143    2.857    4.286    0.000    6.476 
#    0.000    0.952    0.000    0.571    0.000    1.333 
#    0.000    0.000    0.000    0.000    0.000    0.000 
#
# Total GULP energy -234079.608885 kJ/mol
# GULP energy per Si atom -5573.324021 kJ/mol
# Density = 1.981425 g / cm^3
# Si number density = 19.859447 Si / 1000 Ang^3
#
#
#
# Elastic Constant Matrix: (Units=GPa)
#
#
# Indices 1 2 3 4 5 6 
#
# 1 118.6933 4.8188 0.6198 0.0000 0.0000 0.0000
# 2 4.8188 51.7542 9.8050 0.0000 0.0000 0.0000
# 3 0.6198 9.8050 66.2110 0.0000 0.0000 0.0000
# 4 0.0000 0.0000 0.0000 -119.6385 0.0000 0.0000
# 5 0.0000 0.0000 0.0000 0.0000 11.6945 0.0000
# 6 0.0000 0.0000 0.0000 0.0000 0.0000 40.0425
#
#
#
# Elastic Compliance Matrix: (Units=1/GPa)
#
#
# Indices 1 2 3 4 5 6 
#
# 1 0.008457 -0.000795 0.000039 0.000000 0.000000 0.000000
# 2 -0.000795 0.019955 -0.002948 0.000000 0.000000 0.000000
# 3 0.000039 -0.002948 0.015539 0.000000 0.000000 0.000000
# 4 0.000000 0.000000 0.000000 -0.008359 0.000000 0.000000
# 5 0.000000 0.000000 0.000000 0.000000 0.085510 0.000000
# 6 0.000000 0.000000 0.000000 0.000000 0.000000 0.024973
#
#
# Mechanical properties :
#
#
# Convention : Reuss Voigt Hill
#
# Bulk Modulus (GPa) = 27.36469 29.68287 28.52378
# Shear Modulus (GPa) = 30.18146 1.18071 15.68108
#
# Velocity S-wave (km/s) = 3.90263 0.77190 2.81304
# Velocity P-wave (km/s) = 5.84093 3.97157 4.99449
#
# Compressibility (1/GPa) = 0.03654344
#
# Stress axis : x y z
#
# Youngs Moduli (GPa) = 118.24329 50.11396 64.35265
#
# Poissons Ratio (x) = 0.03983 -0.00248
# Poissons Ratio (y) = 0.09397 0.18968
# Poissons Ratio (z) = -0.00456 0.14771
#
# Static dielectric constant tensor:
#      x y z
#    x 1.742760 0.000000 0.000000 
#    y 0.000000 1.649290 0.000000 
#    z 0.000000 0.000000 1.696130 
# 
# From -- ./inp_files/17897.got.cif
#   From: 2010.05.17/outbox.cif.g08.bks.cpg/sg69_9_cif.got.tgz:17897.got - 2010.06.03 19:29:58.
