data_PCOD9512877
_publ_section_title
;
Structure prediction by ZEFSAII (Michael W. Deem and Ramdas Pophale) SiO2 
 PCOD9512877
Probable space group: F M M M
;
_chemical_formula_sum "Si O2"
_cell_formula_units_Z 192
_cell_length_a 32.224755
_cell_length_b 17.386839
_cell_length_c 17.688795
_cell_angle_alpha 90.000000
_cell_angle_beta 90.000000
_cell_angle_gamma 90.000000
_cell_volume 9910.795286
_symmetry_space_group_name_H-M "F M M M"
_symmetry_group_IT_number 69
_symmetry_cell_setting 'orthorhombic'
loop_
_space_group_symop_operation_xyz
x,y,z
-x,-y,z
x,-y,-z
-x,y,-z
-x,-y,-z
x,y,-z
-x,y,z
x,-y,z
x,1/2+y,1/2+z
-x,1/2-y,1/2+z
x,1/2-y,1/2-z
-x,1/2+y,1/2-z
-x,1/2-y,1/2-z
x,1/2+y,1/2-z
-x,1/2+y,1/2+z
x,1/2-y,1/2+z
1/2+x,y,1/2+z
1/2-x,-y,1/2+z
1/2+x,-y,1/2-z
1/2-x,y,1/2-z
1/2-x,-y,1/2-z
1/2+x,y,1/2-z
1/2-x,y,1/2+z
1/2+x,-y,1/2+z
1/2+x,1/2+y,z
1/2-x,1/2-y,z
1/2+x,1/2-y,-z
1/2-x,1/2+y,-z
1/2-x,1/2-y,-z
1/2+x,1/2+y,-z
1/2-x,1/2+y,z
1/2+x,1/2-y,z
loop_
_atom_site_type_symbol
_atom_site_label
_atom_site_fract_x
_atom_site_fract_y
_atom_site_fract_z
Si Si1 0.500000 0.343896 0.586615
Si Si2 0.907940 0.166738 0.795332
Si Si3 0.156147 0.907859 0.908820
Si Si4 0.754366 0.338114 0.592136
Si Si5 0.085637 0.911259 0.644457
Si Si6 0.329609 0.413559 0.589930
Si Si7 0.500000 0.800825 0.327539
O O1 0.500000 0.367677 0.500000
O O2 0.541967 0.372995 0.625430
O O3 0.500000 0.253368 0.599604
O O4 0.903018 0.250000 0.750000
O O5 0.875442 0.145450 0.860886
O O6 0.904426 0.101636 0.731587
O O7 0.955239 0.160018 0.825029
O O8 0.202913 0.880453 0.887632
O O9 0.151197 0.000000 0.894420
O O10 0.151141 0.896650 0.000000
O O11 0.753703 0.339115 0.500000
O O12 0.750000 0.250000 0.616072
O O13 0.712261 0.377418 0.620616
O O14 0.125894 0.875079 0.604100
O O15 0.081475 0.000000 0.622021
O O16 0.324831 0.417456 0.500000
O O17 0.332879 0.500000 0.620572
O O18 0.500000 0.750000 0.250000
#
# Coordination Sequence:
#
# PCOD9512877 Si02
#       7
#    16  32  32  32  32  32  16
#     4  12  23  37  60  90 122 154 193 246 300 353
#     4  11  22  41  65  86 119 160 204 249 299 370
#     4  10  22  41  65  93 123 159 207 261 310 360
#     4   9  18  32  56  87 117 154 204 255 303 354
#     4  11  22  37  58  86 120 159 196 239 299 366
#     4   9  18  33  53  80 116 156 195 240 296 358
#     4  10  20  42  60  82 117 157 203 241 299 357
#
# _framework density 19.372814000000002
#
# number of rings (size 3 to 8) (size 9 to 14) (size 15 to 20)
#    0.000    1.833    3.333    1.750    2.333    4.000 
#    0.000    2.083    0.000    4.000    0.000    0.000 
#    0.000    0.000    0.000    0.000    0.000    0.000 
#
# Total GULP energy -267325.360891 kJ/mol
# GULP energy per Si atom -5569.278352 kJ/mol
# Density = 1.932872 g / cm^3
# Si number density = 19.372814 Si / 1000 Ang^3
#
#
#
# Elastic Constant Matrix: (Units=GPa)
#
#
# Indices 1 2 3 4 5 6 
#
# 1 177.9522 47.5429 37.4169 0.0000 0.0000 0.0000
# 2 47.5429 54.5727 15.3458 0.0000 0.0000 0.0000
# 3 37.4169 15.3458 44.3257 0.0000 0.0000 0.0000
# 4 0.0000 0.0000 0.0000 19.3184 0.0000 0.0000
# 5 0.0000 0.0000 0.0000 0.0000 -14.5307 0.0000
# 6 0.0000 0.0000 0.0000 0.0000 0.0000 24.3889
#
#
#
# Elastic Compliance Matrix: (Units=1/GPa)
#
#
# Indices 1 2 3 4 5 6 
#
# 1 0.008191 -0.005752 -0.004923 0.000000 0.000000 0.000000
# 2 -0.005752 0.024339 -0.003571 0.000000 0.000000 0.000000
# 3 -0.004923 -0.003571 0.027953 0.000000 0.000000 0.000000
# 4 0.000000 0.000000 0.000000 0.051764 0.000000 0.000000
# 5 0.000000 0.000000 0.000000 0.000000 -0.068820 0.000000
# 6 0.000000 0.000000 0.000000 0.000000 0.000000 0.041002
#
#
# Mechanical properties :
#
#
# Convention : Reuss Voigt Hill
#
# Bulk Modulus (GPa) = 31.25899 53.05131 42.15515
# Shear Modulus (GPa) = 40.45783 17.60500 29.03142
#
# Velocity S-wave (km/s) = 4.57484 3.01781 3.87533
# Velocity P-wave (km/s) = 6.63898 6.29180 6.46772
#
# Compressibility (1/GPa) = 0.03199079
#
# Stress axis : x y z
#
# Youngs Moduli (GPa) = 122.07970 41.08601 35.77485
#
# Poissons Ratio (x) = 0.23632 0.17613
# Poissons Ratio (y) = 0.70217 0.12775
# Poissons Ratio (z) = 0.60104 0.14672
#
# Static dielectric constant tensor:
#      x y z
#    x 1.728370 0.000000 0.000000 
#    y 0.000000 1.490500 0.000000 
#    z 0.000000 0.000000 1.686170 
# 
# From -- ./inp_files/27765.got.cif
#   From: 2010.05.17/outbox.cif.g08.bks.cpg/sg69_14_cif.got.tgz:27765.got - 2010.06.03 19:29:58.
