data_PCOD9512718
_publ_section_title
;
Structure prediction by ZEFSAII (Michael W. Deem and Ramdas Pophale) SiO2 
 PCOD9512718
Probable space group: F M M M
;
_chemical_formula_sum "Si O2"
_cell_formula_units_Z 144
_cell_length_a 25.883981
_cell_length_b 28.410963
_cell_length_c 11.895372
_cell_angle_alpha 90.000000
_cell_angle_beta 90.000000
_cell_angle_gamma 90.000000
_cell_volume 8747.723656
_symmetry_space_group_name_H-M "F M M M"
_symmetry_group_IT_number 69
_symmetry_cell_setting 'orthorhombic'
loop_
_space_group_symop_operation_xyz
x,y,z
-x,-y,z
x,-y,-z
-x,y,-z
-x,-y,-z
x,y,-z
-x,y,z
x,-y,z
x,1/2+y,1/2+z
-x,1/2-y,1/2+z
x,1/2-y,1/2-z
-x,1/2+y,1/2-z
-x,1/2-y,1/2-z
x,1/2+y,1/2-z
-x,1/2+y,1/2+z
x,1/2-y,1/2+z
1/2+x,y,1/2+z
1/2-x,-y,1/2+z
1/2+x,-y,1/2-z
1/2-x,y,1/2-z
1/2-x,-y,1/2-z
1/2+x,y,1/2-z
1/2-x,y,1/2+z
1/2+x,-y,1/2+z
1/2+x,1/2+y,z
1/2-x,1/2-y,z
1/2+x,1/2-y,-z
1/2-x,1/2+y,-z
1/2-x,1/2-y,-z
1/2+x,1/2+y,-z
1/2-x,1/2+y,z
1/2+x,1/2-y,z
loop_
_atom_site_type_symbol
_atom_site_label
_atom_site_fract_x
_atom_site_fract_y
_atom_site_fract_z
Si Si1 0.397642 0.889692 0.365912
Si Si2 0.635225 0.053642 0.000000
Si Si3 0.439020 0.856523 0.000000
Si Si4 0.561720 0.695276 0.264438
Si Si5 0.000000 0.553948 0.363083
Si Si6 0.689975 0.054848 0.239134
O O1 0.395763 0.891249 0.500000
O O2 0.407494 0.837388 0.321686
O O3 0.448126 0.919479 0.326654
O O4 0.347164 0.913119 0.313736
O O5 0.670103 0.058299 0.111255
O O6 0.593447 0.095354 0.000000
O O7 0.613412 0.000000 0.000000
O O8 0.428308 0.825587 0.888693
O O9 0.500000 0.867662 0.000000
O O10 0.500000 0.690585 0.242655
O O11 0.574692 0.750000 0.250000
O O12 0.000000 0.500000 0.325309
O O13 0.000000 0.554130 0.500000
O O14 0.750000 0.067589 0.250000
O O15 0.684584 0.000000 0.274218
#
# Coordination Sequence:
#
# PCOD9512718 Si02
#       6
#    32  16  16  32  16  32
#     4  11  21  34  55  83 112 144 185 228 277 333
#     4  10  20  37  58  81 113 150 187 227 276 336
#     4  10  20  37  56  83 115 147 186 226 279 341
#     4  10  21  36  56  81 113 149 186 230 278 330
#     4   9  18  32  49  75 113 147 171 214 275 334
#     4  10  22  38  57  81 111 149 191 232 273 326
#
# _framework density 16.461425999999999
#
# number of rings (size 3 to 8) (size 9 to 14) (size 15 to 20)
#    0.000    1.889    3.333    0.667    3.111    1.556 
#    0.000    0.000    0.000    0.667    0.000    3.111 
#    0.000    0.000    0.000    0.000    0.000    0.000 
#
# Total GULP energy -200939.044429 kJ/mol
# GULP energy per Si atom -5581.640123 kJ/mol
# Density = 1.642396 g / cm^3
# Si number density = 16.461426 Si / 1000 Ang^3
#
#
#
# Elastic Constant Matrix: (Units=GPa)
#
#
# Indices 1 2 3 4 5 6 
#
# 1 110.6328 90.3642 50.2317 0.0000 0.0000 0.0000
# 2 90.3642 153.9163 57.8952 0.0000 0.0000 0.0000
# 3 50.2317 57.8952 86.9118 -0.0001 0.0000 0.0000
# 4 0.0000 0.0000 -0.0001 20.5128 0.0000 0.0000
# 5 0.0000 0.0000 0.0000 0.0000 13.5038 0.0000
# 6 0.0000 0.0000 0.0000 0.0000 0.0000 16.1420
#
#
#
# Elastic Compliance Matrix: (Units=1/GPa)
#
#
# Indices 1 2 3 4 5 6 
#
# 1 0.018681 -0.009215 -0.004658 0.000000 0.000000 0.000000
# 2 -0.009215 0.013215 -0.003477 0.000000 0.000000 0.000000
# 3 -0.004658 -0.003477 0.016514 0.000000 0.000000 0.000000
# 4 0.000000 0.000000 0.000000 0.048750 0.000000 0.000000
# 5 0.000000 0.000000 0.000000 0.000000 0.074053 0.000000
# 6 0.000000 0.000000 0.000000 0.000000 0.000000 0.061950
#
#
# Mechanical properties :
#
#
# Convention : Reuss Voigt Hill
#
# Bulk Modulus (GPa) = 72.94277 83.16032 78.05155
# Shear Modulus (GPa) = 18.35298 20.22971 19.29135
#
# Velocity S-wave (km/s) = 3.34265 3.50939 3.42703
# Velocity P-wave (km/s) = 7.70099 8.18835 7.94841
#
# Compressibility (1/GPa) = 0.01370938
#
# Stress axis : x y z
#
# Youngs Moduli (GPa) = 53.53019 75.66986 60.55351
#
# Poissons Ratio (x) = 0.69733 0.28207
# Poissons Ratio (y) = 0.49331 0.21054
# Poissons Ratio (z) = 0.24935 0.26310
#
# Static dielectric constant tensor:
#      x y z
#    x 1.524320 0.000000 0.000000 
#    y 0.000000 1.540860 0.000000 
#    z 0.000000 0.000000 1.556060 
# 
# From -- ./inp_files/10397.got.cif
#   From: 2010.05.17/outbox.cif.g08.bks.cpg/sg69_6_cif.got.tgz:10397.got - 2010.06.03 19:29:58.
