data_PCOD9512410
_publ_section_title
;
Structure prediction by ZEFSAII (Michael W. Deem and Ramdas Pophale) SiO2 
 PCOD9512410
Probable space group: F M M M
;
_chemical_formula_sum "Si O2"
_cell_formula_units_Z 136
_cell_length_a 18.154172
_cell_length_b 22.714533
_cell_length_c 17.542577
_cell_angle_alpha 90.000000
_cell_angle_beta 90.000000
_cell_angle_gamma 90.000000
_cell_volume 7233.919135
_symmetry_space_group_name_H-M "F M M M"
_symmetry_group_IT_number 69
_symmetry_cell_setting 'orthorhombic'
loop_
_space_group_symop_operation_xyz
x,y,z
-x,-y,z
x,-y,-z
-x,y,-z
-x,-y,-z
x,y,-z
-x,y,z
x,-y,z
x,1/2+y,1/2+z
-x,1/2-y,1/2+z
x,1/2-y,1/2-z
-x,1/2+y,1/2-z
-x,1/2-y,1/2-z
x,1/2+y,1/2-z
-x,1/2+y,1/2+z
x,1/2-y,1/2+z
1/2+x,y,1/2+z
1/2-x,-y,1/2+z
1/2+x,-y,1/2-z
1/2-x,y,1/2-z
1/2-x,-y,1/2-z
1/2+x,y,1/2-z
1/2-x,y,1/2+z
1/2+x,-y,1/2+z
1/2+x,1/2+y,z
1/2-x,1/2-y,z
1/2+x,1/2-y,-z
1/2-x,1/2+y,-z
1/2-x,1/2-y,-z
1/2+x,1/2+y,-z
1/2-x,1/2+y,z
1/2+x,1/2-y,z
loop_
_atom_site_type_symbol
_atom_site_label
_atom_site_fract_x
_atom_site_fract_y
_atom_site_fract_z
Si Si1 0.912357 0.630617 0.819519
Si Si2 0.587850 0.755307 0.083095
Si Si3 0.783541 0.569574 0.090148
Si Si4 0.750000 0.250000 0.750000
Si Si5 0.158989 0.652380 0.661138
O O1 0.894045 0.696015 0.852756
O O2 0.858809 0.588379 0.867400
O O3 0.889722 0.627752 0.730858
O O4 0.000000 0.620304 0.829289
O O5 0.500000 0.756719 0.080016
O O6 0.611026 0.688716 0.100867
O O7 0.618020 0.773444 0.000000
O O8 0.771668 0.500000 0.099716
O O9 0.715527 0.605644 0.126372
O O10 0.789032 0.582488 0.000000
O O11 0.794447 0.294540 0.697392
#
# Coordination Sequence:
#
# PCOD9512410 Si02
#       5
#    32  32  32   8  32
#     4  11  22  37  60  89 122 155 192 242 300 358
#     4  10  20  34  57  90 124 157 191 235 298 361
#     4  11  25  43  62  84 114 159 209 249 288 341
#     4  12  20  32  58  92 116 144 188 234 296 356
#     4  12  20  38  59  89 122 152 195 244 296 349
#
# _framework density 18.800321
#
# number of rings (size 3 to 8) (size 9 to 14) (size 15 to 20)
#    0.000    0.941    4.706    2.118    0.000    5.647 
#    0.000    4.706    0.000    2.118    0.000    8.235 
#    0.000    0.000    0.000    0.000    0.000    0.000 
#
# Total GULP energy -189735.765565 kJ/mol
# GULP energy per Si atom -5580.463693 kJ/mol
# Density = 1.875753 g / cm^3
# Si number density = 18.800321 Si / 1000 Ang^3
#
#
#
# Elastic Constant Matrix: (Units=GPa)
#
#
# Indices 1 2 3 4 5 6 
#
# 1 69.1883 43.6776 42.0600 0.0000 0.0000 0.0000
# 2 43.6776 96.4381 44.3310 0.0000 0.0000 0.0000
# 3 42.0600 44.3310 96.8451 0.0000 0.0000 0.0000
# 4 0.0000 0.0000 0.0000 41.2684 0.0000 0.0000
# 5 0.0000 0.0000 0.0000 0.0000 28.3986 0.0000
# 6 0.0000 0.0000 0.0000 0.0000 0.0000 2.8027
#
#
#
# Elastic Compliance Matrix: (Units=1/GPa)
#
#
# Indices 1 2 3 4 5 6 
#
# 1 0.023209 -0.007444 -0.006672 0.000000 0.000000 0.000000
# 2 -0.007444 0.015521 -0.003871 0.000000 0.000000 0.000000
# 3 -0.006672 -0.003871 0.014996 0.000000 0.000000 0.000000
# 4 0.000000 0.000000 0.000000 0.024232 0.000000 0.000000
# 5 0.000000 0.000000 0.000000 0.000000 0.035213 0.000000
# 6 0.000000 0.000000 0.000000 0.000000 0.000000 0.356803
#
#
# Mechanical properties :
#
#
# Convention : Reuss Voigt Hill
#
# Bulk Modulus (GPa) = 56.34018 58.06764 57.20391
# Shear Modulus (GPa) = 9.76821 23.32080 16.54450
#
# Velocity S-wave (km/s) = 2.28190 3.52582 2.96972
# Velocity P-wave (km/s) = 6.08074 6.89411 6.50016
#
# Compressibility (1/GPa) = 0.01774932
#
# Stress axis : x y z
#
# Youngs Moduli (GPa) = 43.08710 64.43028 66.68645
#
# Poissons Ratio (x) = 0.47965 0.44493
# Poissons Ratio (y) = 0.32076 0.25817
# Poissons Ratio (z) = 0.28747 0.24944
#
# Static dielectric constant tensor:
#      x y z
#    x 1.679510 0.000000 0.000000 
#    y 0.000000 1.616820 0.000000 
#    z 0.000000 0.000000 1.730400 
# 
# From -- ./inp_files/22594.got.cif
#   From: 2010.05.17/outbox.cif.g08.bks.cpg/sg69_12_cif.got.tgz:22594.got - 2010.06.03 19:29:58.
