data_PCOD9512676
_publ_section_title
;
Structure prediction by ZEFSAII (Michael W. Deem and Ramdas Pophale) SiO2 
 PCOD9512676
Probable space group: F M M M
;
_chemical_formula_sum "Si O2"
_cell_formula_units_Z 176
_cell_length_a 26.381039
_cell_length_b 19.862358
_cell_length_c 18.560400
_cell_angle_alpha 90.000000
_cell_angle_beta 90.000000
_cell_angle_gamma 90.000000
_cell_volume 9725.457333
_symmetry_space_group_name_H-M "F M M M"
_symmetry_group_IT_number 69
_symmetry_cell_setting 'orthorhombic'
loop_
_space_group_symop_operation_xyz
x,y,z
-x,-y,z
x,-y,-z
-x,y,-z
-x,-y,-z
x,y,-z
-x,y,z
x,-y,z
x,1/2+y,1/2+z
-x,1/2-y,1/2+z
x,1/2-y,1/2-z
-x,1/2+y,1/2-z
-x,1/2-y,1/2-z
x,1/2+y,1/2-z
-x,1/2+y,1/2+z
x,1/2-y,1/2+z
1/2+x,y,1/2+z
1/2-x,-y,1/2+z
1/2+x,-y,1/2-z
1/2-x,y,1/2-z
1/2-x,-y,1/2-z
1/2+x,y,1/2-z
1/2-x,y,1/2+z
1/2+x,-y,1/2+z
1/2+x,1/2+y,z
1/2-x,1/2-y,z
1/2+x,1/2-y,-z
1/2-x,1/2+y,-z
1/2-x,1/2-y,-z
1/2+x,1/2+y,-z
1/2-x,1/2+y,z
1/2+x,1/2-y,z
loop_
_atom_site_type_symbol
_atom_site_label
_atom_site_fract_x
_atom_site_fract_y
_atom_site_fract_z
Si Si1 0.060453 0.700678 0.080570
Si Si2 0.443251 0.421620 0.000000
Si Si3 0.724913 0.321933 0.086553
Si Si4 0.106991 0.342435 0.620148
Si Si5 0.880768 0.827956 0.275700
Si Si6 0.287205 0.922352 0.181747
O O1 0.078158 0.777720 0.088479
O O2 0.085822 0.669802 0.151957
O O3 0.000000 0.695108 0.084443
O O4 0.076649 0.676793 0.000000
O O5 0.410955 0.401334 0.930757
O O6 0.449368 0.500000 0.000000
O O7 0.500000 0.390147 0.000000
O O8 0.750000 0.250000 0.108282
O O9 0.667207 0.328532 0.114135
O O10 0.757829 0.382907 0.118518
O O11 0.723871 0.323896 0.000000
O O12 0.093269 0.354916 0.703094
O O13 0.869314 0.750000 0.250000
O O14 0.832803 0.873842 0.293956
O O15 0.250000 0.925401 0.250000
O O16 0.301408 0.000000 0.163762
#
# Coordination Sequence:
#
# PCOD9512676 Si02
#       6
#    32  16  32  32  32  32
#     4  10  20  36  60  89 121 150 190 252 309 354
#     4  11  24  38  55  80 114 160 202 239 298 365
#     4  11  22  37  60  89 118 155 203 245 291 353
#     4  11  20  36  57  83 114 157 194 246 299 346
#     4  10  22  37  62  92 117 157 206 248 295 358
#     4  11  24  39  58  86 121 162 197 237 297 355
#
# _framework density 18.096834999999999
#
# number of rings (size 3 to 8) (size 9 to 14) (size 15 to 20)
#    0.000    1.364    3.636    2.727    0.000    8.000 
#    0.000    0.000    0.000    0.545    0.000    1.273 
#    0.000    0.000    0.000    0.000    0.000    0.000 
#
# Total GULP energy -245299.352868 kJ/mol
# GULP energy per Si atom -5574.985292 kJ/mol
# Density = 1.805565 g / cm^3
# Si number density = 18.096835 Si / 1000 Ang^3
#
#
#
# Elastic Constant Matrix: (Units=GPa)
#
#
# Indices 1 2 3 4 5 6 
#
# 1 85.1079 44.5484 51.1228 0.0000 0.0000 0.0000
# 2 44.5484 73.7972 46.3102 0.0000 0.0000 0.0000
# 3 51.1228 46.3102 160.8407 0.0000 0.0000 0.0000
# 4 0.0000 0.0000 0.0000 9.5568 0.0000 0.0000
# 5 0.0000 0.0000 0.0000 0.0000 34.4693 0.0000
# 6 0.0000 0.0000 0.0000 0.0000 0.0000 -50.1187
#
#
#
# Elastic Compliance Matrix: (Units=1/GPa)
#
#
# Indices 1 2 3 4 5 6 
#
# 1 0.018470 -0.009112 -0.003247 0.000000 0.000000 0.000000
# 2 -0.009112 0.021034 -0.003160 0.000000 0.000000 0.000000
# 3 -0.003247 -0.003160 0.008159 0.000000 0.000000 0.000000
# 4 0.000000 0.000000 0.000000 0.104638 0.000000 0.000000
# 5 0.000000 0.000000 0.000000 0.000000 0.029011 0.000000
# 6 0.000000 0.000000 0.000000 0.000000 0.000000 -0.019953
#
#
# Mechanical properties :
#
#
# Convention : Reuss Voigt Hill
#
# Bulk Modulus (GPa) = 60.14954 67.07876 63.61415
# Shear Modulus (GPa) = 25.26029 10.63243 17.94636
#
# Velocity S-wave (km/s) = 3.74015 2.42653 3.15252
# Velocity P-wave (km/s) = 7.20842 6.70804 6.96273
#
# Compressibility (1/GPa) = 0.01662523
#
# Stress axis : x y z
#
# Youngs Moduli (GPa) = 54.14298 47.54177 122.56002
#
# Poissons Ratio (x) = 0.43319 0.39795
# Poissons Ratio (y) = 0.49334 0.38730
# Poissons Ratio (z) = 0.17580 0.15024
#
# Static dielectric constant tensor:
#      x y z
#    x 1.626730 0.000000 0.000000 
#    y 0.000000 1.619680 0.000000 
#    z 0.000000 0.000000 1.649260 
# 
# From -- ./inp_files/26768.got.cif
#   From: 2010.05.17/outbox.cif.g08.bks.cpg/sg69_14_cif.got.tgz:26768.got - 2010.06.03 19:29:58.
