data_PCOD9512628
_publ_section_title
;
Structure prediction by ZEFSAII (Michael W. Deem and Ramdas Pophale) SiO2 
 PCOD9512628
Probable space group: F M M M
;
_chemical_formula_sum "Si O2"
_cell_formula_units_Z 124
_cell_length_a 25.531977
_cell_length_b 15.859997
_cell_length_c 16.543831
_cell_angle_alpha 90.000000
_cell_angle_beta 90.000000
_cell_angle_gamma 90.000000
_cell_volume 6699.210594
_symmetry_space_group_name_H-M "F M M M"
_symmetry_group_IT_number 69
_symmetry_cell_setting 'orthorhombic'
loop_
_space_group_symop_operation_xyz
x,y,z
-x,-y,z
x,-y,-z
-x,y,-z
-x,-y,-z
x,y,-z
-x,y,z
x,-y,z
x,1/2+y,1/2+z
-x,1/2-y,1/2+z
x,1/2-y,1/2-z
-x,1/2+y,1/2-z
-x,1/2-y,1/2-z
x,1/2+y,1/2-z
-x,1/2+y,1/2+z
x,1/2-y,1/2+z
1/2+x,y,1/2+z
1/2-x,-y,1/2+z
1/2+x,-y,1/2-z
1/2-x,y,1/2-z
1/2-x,-y,1/2-z
1/2+x,y,1/2-z
1/2-x,y,1/2+z
1/2+x,-y,1/2+z
1/2+x,1/2+y,z
1/2-x,1/2-y,z
1/2+x,1/2-y,-z
1/2-x,1/2+y,-z
1/2-x,1/2-y,-z
1/2+x,1/2+y,-z
1/2-x,1/2+y,z
1/2+x,1/2-y,z
loop_
_atom_site_type_symbol
_atom_site_label
_atom_site_fract_x
_atom_site_fract_y
_atom_site_fract_z
Si Si1 0.500000 0.500000 0.000000
Si Si2 0.280779 0.666867 0.902800
Si Si3 0.000000 0.000000 0.707099
Si Si4 0.000000 0.133445 0.148381
Si Si5 0.386724 0.000000 0.201898
Si Si6 0.386855 0.829162 0.691962
Si Si7 0.217158 0.000000 0.402207
O O1 0.500000 0.572649 0.071461
O O2 0.250000 0.750000 0.874218
O O3 0.339754 0.667016 0.871356
O O4 0.249679 0.582947 0.877504
O O5 0.281322 0.667738 0.000000
O O6 0.944693 0.000000 0.662035
O O7 0.000000 0.079015 0.768603
O O8 0.944389 0.180611 0.152039
O O9 0.384347 0.083245 0.258024
O O10 0.339109 0.000000 0.139856
O O11 0.378262 0.750000 0.750000
O O12 0.212090 0.000000 0.500000
#
# Coordination Sequence:
#
# PCOD9512628 Si02
#       7
#     4  32   8  16  16  32  16
#     4  10  20  36  64  92 122 150 194 244 294 358
#     4  10  22  38  54  80 116 151 192 244 301 347
#     4   7  16  35  51  80 115 140 178 232 295 332
#     4   9  20  36  56  89 117 151 183 239 296 345
#     4  10  20  36  58  83 111 150 199 240 300 362
#     4  11  22  37  59  86 118 157 194 245 298 361
#     4  10  21  37  56  80 111 152 194 251 300 351
#
# _framework density 18.509643000000001
#
# number of rings (size 3 to 8) (size 9 to 14) (size 15 to 20)
#    0.000    2.065    0.000    3.484    1.806    4.645 
#    2.323    0.323    0.000    0.000    0.000    0.000 
#    0.000    0.000    0.000    0.000    0.000    0.000 
#
# Total GULP energy -172688.153628 kJ/mol
# GULP energy per Si atom -5570.585601 kJ/mol
# Density = 1.846751 g / cm^3
# Si number density = 18.509643 Si / 1000 Ang^3
#
#
#
# Elastic Constant Matrix: (Units=GPa)
#
#
# Indices 1 2 3 4 5 6 
#
# 1 193.3837 46.5995 35.2481 0.0000 0.0000 0.0000
# 2 46.5995 128.2960 22.6215 0.0000 0.0000 0.0000
# 3 35.2481 22.6215 28.4995 0.0000 0.0000 0.0000
# 4 0.0000 0.0000 0.0000 6.7930 0.0000 0.0000
# 5 0.0000 0.0000 0.0000 0.0000 -18.6673 0.0000
# 6 0.0000 0.0000 0.0000 0.0000 0.0000 6.2328
#
#
#
# Elastic Compliance Matrix: (Units=1/GPa)
#
#
# Indices 1 2 3 4 5 6 
#
# 1 0.006819 -0.001151 -0.007520 0.000000 0.000000 0.000000
# 2 -0.001151 0.009257 -0.005924 0.000000 0.000000 0.000000
# 3 -0.007520 -0.005924 0.049092 0.000000 0.000000 0.000000
# 4 0.000000 0.000000 0.000000 0.147209 0.000000 0.000000
# 5 0.000000 0.000000 0.000000 0.000000 -0.053569 0.000000
# 6 0.000000 0.000000 0.000000 0.000000 0.000000 0.160443
#
#
# Mechanical properties :
#
#
# Convention : Reuss Voigt Hill
#
# Bulk Modulus (GPa) = 27.79558 62.12415 44.95987
# Shear Modulus (GPa) = 13.87213 15.25236 14.56225
#
# Velocity S-wave (km/s) = 2.74059 2.87369 2.80793
# Velocity P-wave (km/s) = 5.00638 6.68183 5.90384
#
# Compressibility (1/GPa) = 0.03597694
#
# Stress axis : x y z
#
# Youngs Moduli (GPa) = 146.64624 108.02524 20.36983
#
# Poissons Ratio (x) = 0.12432 0.15319
# Poissons Ratio (y) = 0.16876 0.12068
# Poissons Ratio (z) = 1.10284 0.63999
#
# Static dielectric constant tensor:
#      x y z
#    x 1.652570 0.000000 0.000000 
#    y 0.000000 1.638040 0.000000 
#    z 0.000000 0.000000 1.605860 
# 
# From -- ./inp_files/24183.got.cif
#   From: 2010.05.17/outbox.cif.g08.bks.cpg/sg69_13_cif.got.tgz:24183.got - 2010.06.03 19:29:58.
