data_PCOD9512524
_publ_section_title
;
Structure prediction by ZEFSAII (Michael W. Deem and Ramdas Pophale) SiO2 
 PCOD9512524
Probable space group: F M M M
;
_chemical_formula_sum "Si O2"
_cell_formula_units_Z 176
_cell_length_a 16.877571
_cell_length_b 31.338321
_cell_length_c 17.553371
_cell_angle_alpha 90.000000
_cell_angle_beta 90.000000
_cell_angle_gamma 90.000000
_cell_volume 9284.236618
_symmetry_space_group_name_H-M "F M M M"
_symmetry_group_IT_number 69
_symmetry_cell_setting 'orthorhombic'
loop_
_space_group_symop_operation_xyz
x,y,z
-x,-y,z
x,-y,-z
-x,y,-z
-x,-y,-z
x,y,-z
-x,y,z
x,-y,z
x,1/2+y,1/2+z
-x,1/2-y,1/2+z
x,1/2-y,1/2-z
-x,1/2+y,1/2-z
-x,1/2-y,1/2-z
x,1/2+y,1/2-z
-x,1/2+y,1/2+z
x,1/2-y,1/2+z
1/2+x,y,1/2+z
1/2-x,-y,1/2+z
1/2+x,-y,1/2-z
1/2-x,y,1/2-z
1/2-x,-y,1/2-z
1/2+x,y,1/2-z
1/2-x,y,1/2+z
1/2+x,-y,1/2+z
1/2+x,1/2+y,z
1/2-x,1/2-y,z
1/2+x,1/2-y,-z
1/2-x,1/2+y,-z
1/2-x,1/2-y,-z
1/2+x,1/2+y,-z
1/2-x,1/2+y,z
1/2+x,1/2-y,z
loop_
_atom_site_type_symbol
_atom_site_label
_atom_site_fract_x
_atom_site_fract_y
_atom_site_fract_z
Si Si1 0.094555 0.836345 0.416639
Si Si2 0.407549 0.000000 0.915604
Si Si3 0.328722 0.918569 0.143394
Si Si4 0.655460 0.449360 0.908344
Si Si5 0.844925 0.799422 0.259498
Si Si6 0.908898 0.115201 0.208348
O O1 0.108540 0.816833 0.500000
O O2 0.140360 0.881120 0.411061
O O3 0.127385 0.810948 0.344740
O O4 0.000000 0.842975 0.408545
O O5 0.383076 0.041054 0.869949
O O6 0.500000 0.000000 0.925091
O O7 0.368584 0.000000 0.000000
O O8 0.241783 0.934374 0.121278
O O9 0.347144 0.902090 0.228195
O O10 0.642806 0.500000 0.889684
O O11 0.599586 0.415548 0.864578
O O12 0.650628 0.445535 0.000000
O O13 0.866563 0.750000 0.250000
O O14 0.750000 0.803654 0.250000
O O15 0.885461 0.834600 0.203812
O O16 0.000000 0.112906 0.235712
#
# Coordination Sequence:
#
# PCOD9512524 Si02
#       6
#    32  16  32  32  32  32
#     4  10  20  35  57  86 120 157 193 235 296 361
#     4  11  20  28  45  78 116 148 181 231 290 342
#     4  11  20  35  57  82 115 150 194 245 291 350
#     4  11  24  41  60  83 117 164 211 252 296 344
#     4  10  21  40  64  91 120 152 193 243 300 362
#     4  11  24  40  61  88 117 155 199 246 299 356
#
# _framework density 18.956862999999998
#
# number of rings (size 3 to 8) (size 9 to 14) (size 15 to 20)
#    0.000    1.364    0.909    7.636    1.273    4.364 
#    0.000    3.636    0.000    0.000    0.000    0.000 
#    0.000    0.000    0.000    0.000    0.000    0.000 
#
# Total GULP energy -245397.081890 kJ/mol
# GULP energy per Si atom -5577.206407 kJ/mol
# Density = 1.891372 g / cm^3
# Si number density = 18.956863 Si / 1000 Ang^3
#
#
#
# Elastic Constant Matrix: (Units=GPa)
#
#
# Indices 1 2 3 4 5 6 
#
# 1 58.3200 31.6106 25.8675 0.0000 0.0000 0.0000
# 2 31.6106 156.2851 53.8361 0.0000 0.0000 0.0000
# 3 25.8675 53.8361 87.4872 0.0000 0.0000 0.0000
# 4 0.0000 0.0000 0.0000 17.7633 0.0000 0.0000
# 5 0.0000 0.0000 0.0000 0.0000 -16.8415 0.0000
# 6 0.0000 0.0000 0.0000 0.0000 0.0000 29.0519
#
#
#
# Elastic Compliance Matrix: (Units=1/GPa)
#
#
# Indices 1 2 3 4 5 6 
#
# 1 0.020546 -0.002618 -0.004464 0.000000 0.000000 0.000000
# 2 -0.002618 0.008453 -0.004428 0.000000 0.000000 0.000000
# 3 -0.004464 -0.004428 0.015475 0.000000 0.000000 0.000000
# 4 0.000000 0.000000 0.000000 0.056296 0.000000 0.000000
# 5 0.000000 0.000000 0.000000 0.000000 -0.059377 0.000000
# 6 0.000000 0.000000 0.000000 0.000000 0.000000 0.034421
#
#
# Mechanical properties :
#
#
# Convention : Reuss Voigt Hill
#
# Bulk Modulus (GPa) = 46.60991 58.30231 52.45611
# Shear Modulus (GPa) = 47.17687 18.71328 32.94508
#
# Velocity S-wave (km/s) = 4.99404 3.14530 4.17333
# Velocity P-wave (km/s) = 7.60886 6.63420 7.13818
#
# Compressibility (1/GPa) = 0.02145466
#
# Stress axis : x y z
#
# Youngs Moduli (GPa) = 48.67216 118.29658 64.62151
#
# Poissons Ratio (x) = 0.30970 0.28846
# Poissons Ratio (y) = 0.12742 0.28613
# Poissons Ratio (z) = 0.21726 0.52379
#
# Static dielectric constant tensor:
#      x y z
#    x 1.674030 0.000000 0.000000 
#    y 0.000000 1.737940 0.000000 
#    z 0.000000 0.000000 1.699450 
# 
# From -- ./inp_files/23608.got.cif
#   From: 2010.05.17/outbox.cif.g08.bks.cpg/sg69_12_cif.got.tgz:23608.got - 2010.06.03 19:29:58.
