data_PCOD9512028
_publ_section_title
;
Structure prediction by ZEFSAII (Michael W. Deem and Ramdas Pophale) SiO2 
 PCOD9512028
Probable space group: F M M M
;
_chemical_formula_sum "Si O2"
_cell_formula_units_Z 116
_cell_length_a 10.315123
_cell_length_b 21.576579
_cell_length_c 27.274088
_cell_angle_alpha 90.000000
_cell_angle_beta 90.000000
_cell_angle_gamma 90.000000
_cell_volume 6070.259204
_symmetry_space_group_name_H-M "F M M M"
_symmetry_group_IT_number 69
_symmetry_cell_setting 'orthorhombic'
loop_
_space_group_symop_operation_xyz
x,y,z
-x,-y,z
x,-y,-z
-x,y,-z
-x,-y,-z
x,y,-z
-x,y,z
x,-y,z
x,1/2+y,1/2+z
-x,1/2-y,1/2+z
x,1/2-y,1/2-z
-x,1/2+y,1/2-z
-x,1/2-y,1/2-z
x,1/2+y,1/2-z
-x,1/2+y,1/2+z
x,1/2-y,1/2+z
1/2+x,y,1/2+z
1/2-x,-y,1/2+z
1/2+x,-y,1/2-z
1/2-x,y,1/2-z
1/2-x,-y,1/2-z
1/2+x,y,1/2-z
1/2-x,y,1/2+z
1/2+x,-y,1/2+z
1/2+x,1/2+y,z
1/2-x,1/2-y,z
1/2+x,1/2-y,-z
1/2-x,1/2+y,-z
1/2-x,1/2-y,-z
1/2+x,1/2+y,-z
1/2-x,1/2+y,z
1/2+x,1/2-y,z
loop_
_atom_site_type_symbol
_atom_site_label
_atom_site_fract_x
_atom_site_fract_y
_atom_site_fract_z
Si Si1 0.000000 0.500000 0.500000
Si Si2 0.725220 0.610097 0.633397
Si Si3 0.000000 0.403483 0.586978
Si Si4 0.500000 0.263283 0.056179
Si Si5 0.500000 0.575255 0.441369
Si Si6 0.850976 0.000000 0.294051
Si Si7 0.250000 0.250000 0.878734
O O1 0.000000 0.448557 0.542477
O O2 0.869122 0.589517 0.617958
O O3 0.626375 0.601701 0.587103
O O4 0.672481 0.561981 0.673519
O O5 0.742670 0.683006 0.648283
O O6 0.000000 0.336708 0.561751
O O7 0.626581 0.244915 0.085957
O O8 0.500000 0.242912 0.000000
O O9 0.500000 0.500000 0.435993
O O10 0.500000 0.588404 0.500000
O O11 0.750000 0.000000 0.250000
O O12 0.000000 0.000000 0.277326
#
# Coordination Sequence:
#
# PCOD9512028 Si02
#       7
#     4  32  16  16  16  16  16
#     4  12  20  32  48  82 120 180 212 268 288 356
#     4  11  22  45  60  98 129 171 215 268 321 385
#     4  10  24  31  58  83 130 169 215 259 306 362
#     4  10  19  36  49  87 122 177 223 256 299 363
#     4  11  23  37  64  95 136 183 226 269 322 377
#     4  12  27  48  77  98 125 161 210 271 338 398
#     4  10  23  34  65  84 130 172 210 266 322 372
#
# _framework density 19.109563000000001
#
# number of rings (size 3 to 8) (size 9 to 14) (size 15 to 20)
#    0.000    1.241    3.448    2.069    3.862    3.310 
#    0.000    0.690    0.000    1.655    0.000    0.000 
#    0.000    0.000    0.000    0.000    0.000    0.000 
#
# Total GULP energy -161485.837787 kJ/mol
# GULP energy per Si atom -5568.477165 kJ/mol
# Density = 1.906607 g / cm^3
# Si number density = 19.109563 Si / 1000 Ang^3
#
#
#
# Elastic Constant Matrix: (Units=GPa)
#
#
# Indices 1 2 3 4 5 6 
#
# 1 169.6796 28.4549 40.2762 0.0000 0.0000 0.0000
# 2 28.4549 128.8397 43.1428 0.0000 0.0000 0.0000
# 3 40.2762 43.1428 76.9023 0.0000 0.0000 0.0000
# 4 0.0000 0.0000 0.0000 12.1233 0.0000 0.0000
# 5 0.0000 0.0000 0.0000 0.0000 23.6920 0.0000
# 6 0.0000 0.0000 0.0000 0.0000 0.0000 47.1386
#
#
#
# Elastic Compliance Matrix: (Units=1/GPa)
#
#
# Indices 1 2 3 4 5 6 
#
# 1 0.006745 -0.000378 -0.003321 0.000000 0.000000 0.000000
# 2 -0.000378 0.009578 -0.005176 0.000000 0.000000 0.000000
# 3 -0.003321 -0.005176 0.017646 0.000000 0.000000 0.000000
# 4 0.000000 0.000000 0.000000 0.082486 0.000000 0.000000
# 5 0.000000 0.000000 0.000000 0.000000 0.042208 0.000000
# 6 0.000000 0.000000 0.000000 0.000000 0.000000 0.021214
#
#
# Mechanical properties :
#
#
# Convention : Reuss Voigt Hill
#
# Bulk Modulus (GPa) = 61.64706 66.57439 64.11073
# Shear Modulus (GPa) = 24.62662 34.16061 29.39362
#
# Velocity S-wave (km/s) = 3.59375 4.23261 3.92620
# Velocity P-wave (km/s) = 7.03917 7.66815 7.36038
#
# Compressibility (1/GPa) = 0.01622137
#
# Stress axis : x y z
#
# Youngs Moduli (GPa) = 148.25746 104.40516 56.66946
#
# Poissons Ratio (x) = 0.03944 0.18818
# Poissons Ratio (y) = 0.05600 0.29330
# Poissons Ratio (z) = 0.49232 0.54035
#
# Static dielectric constant tensor:
#      x y z
#    x 1.690100 0.000000 0.000000 
#    y 0.000000 1.729520 0.000000 
#    z 0.000000 0.000000 1.618290 
# 
# From -- ./inp_files/4558.got.cif
#   From: 2010.05.17/outbox.cif.g08.bks.cpg/sg69_3_cif.got.tgz:4558.got - 2010.06.03 19:29:58.
