data_PCOD9512750
_publ_section_title
;
Structure prediction by ZEFSAII (Michael W. Deem and Ramdas Pophale) SiO2 
 PCOD9512750
Probable space group: F M M M
;
_chemical_formula_sum "Si O2"
_cell_formula_units_Z 80
_cell_length_a 19.354990
_cell_length_b 11.724645
_cell_length_c 15.407742
_cell_angle_alpha 90.000000
_cell_angle_beta 90.000000
_cell_angle_gamma 90.000000
_cell_volume 3496.484851
_symmetry_space_group_name_H-M "F M M M"
_symmetry_group_IT_number 69
_symmetry_cell_setting 'orthorhombic'
loop_
_space_group_symop_operation_xyz
x,y,z
-x,-y,z
x,-y,-z
-x,y,-z
-x,-y,-z
x,y,-z
-x,y,z
x,-y,z
x,1/2+y,1/2+z
-x,1/2-y,1/2+z
x,1/2-y,1/2-z
-x,1/2+y,1/2-z
-x,1/2-y,1/2-z
x,1/2+y,1/2-z
-x,1/2+y,1/2+z
x,1/2-y,1/2+z
1/2+x,y,1/2+z
1/2-x,-y,1/2+z
1/2+x,-y,1/2-z
1/2-x,y,1/2-z
1/2-x,-y,1/2-z
1/2+x,y,1/2-z
1/2-x,y,1/2+z
1/2+x,-y,1/2+z
1/2+x,1/2+y,z
1/2-x,1/2-y,z
1/2+x,1/2-y,-z
1/2-x,1/2+y,-z
1/2-x,1/2-y,-z
1/2+x,1/2+y,-z
1/2-x,1/2+y,z
1/2+x,1/2-y,z
loop_
_atom_site_type_symbol
_atom_site_label
_atom_site_fract_x
_atom_site_fract_y
_atom_site_fract_z
Si Si1 0.078347 0.796816 0.152316
Si Si2 0.227266 0.124097 0.148708
Si Si3 0.917477 0.875375 0.500000
O O1 0.077314 0.750000 0.250000
O O2 0.144020 0.877246 0.144169
O O3 0.000000 0.838891 0.132425
O O4 0.096287 0.694880 0.086522
O O5 0.250000 0.126205 0.250000
O O6 0.250000 0.250000 0.113247
O O7 0.251693 0.000000 0.113683
O O8 0.000000 0.886515 0.500000
O O9 0.886592 0.000000 0.500000
#
# Coordination Sequence:
#
# PCOD9512750 Si02
#       3
#    32  32  16
#     4  10  20  37  63  96 129 167 217 272 331 392
#     4  10  20  37  60  89 128 169 213 268 328 387
#     4   9  20  38  62  97 138 173 215 273 334 403
#
# _framework density 22.880120999999999
#
# number of rings (size 3 to 8) (size 9 to 14) (size 15 to 20)
#    0.000    2.200    4.000    0.000    0.000    4.000 
#    0.000    6.000    0.000    3.600    0.000    0.000 
#    0.000    0.000    0.000    0.000    0.000    0.000 
#
# Total GULP energy -111421.440688 kJ/mol
# GULP energy per Si atom -5571.072034 kJ/mol
# Density = 2.282804 g / cm^3
# Si number density = 22.880121 Si / 1000 Ang^3
#
#
#
# Elastic Constant Matrix: (Units=GPa)
#
#
# Indices 1 2 3 4 5 6 
#
# 1 162.3460 65.8367 8.5468 0.0000 0.0000 0.0000
# 2 65.8367 208.8185 48.9899 0.0000 0.0000 0.0000
# 3 8.5468 48.9899 119.1527 0.0000 0.0000 0.0000
# 4 0.0000 0.0000 0.0000 -42.1846 0.0000 0.0000
# 5 0.0000 0.0000 0.0000 0.0000 38.4911 0.0000
# 6 0.0000 0.0000 0.0000 0.0000 0.0000 34.4873
#
#
#
# Elastic Compliance Matrix: (Units=1/GPa)
#
#
# Indices 1 2 3 4 5 6 
#
# 1 0.007085 -0.002340 0.000454 0.000000 0.000000 0.000000
# 2 -0.002340 0.006073 -0.002329 0.000000 0.000000 0.000000
# 3 0.000454 -0.002329 0.009318 0.000000 0.000000 0.000000
# 4 0.000000 0.000000 0.000000 -0.023705 0.000000 0.000000
# 5 0.000000 0.000000 0.000000 0.000000 0.025980 0.000000
# 6 0.000000 0.000000 0.000000 0.000000 0.000000 0.028996
#
#
# Mechanical properties :
#
#
# Convention : Reuss Voigt Hill
#
# Bulk Modulus (GPa) = 71.20027 81.89603 76.54815
# Shear Modulus (GPa) = 74.78463 30.62170 52.70316
#
# Velocity S-wave (km/s) = 5.72332 3.66232 4.80463
# Velocity P-wave (km/s) = 8.65226 7.33176 8.01923
#
# Compressibility (1/GPa) = 0.01404489
#
# Stress axis : x y z
#
# Youngs Moduli (GPa) = 141.14686 164.66063 107.32327
#
# Poissons Ratio (x) = 0.38534 -0.04872
# Poissons Ratio (y) = 0.33032 0.24997
# Poissons Ratio (z) = -0.06408 0.38351
#
# Static dielectric constant tensor:
#      x y z
#    x 1.887210 0.000000 0.000000 
#    y 0.000000 1.887350 0.000000 
#    z 0.000000 0.000000 1.806020 
# 
# From -- ./inp_files/7959.got.cif
#   From: 2010.05.17/outbox.cif.g08.bks.cpg/sg69_4_cif.got.tgz:7959.got - 2010.06.03 19:29:58.
