data_PCOD9512760
_publ_section_title
;
Structure prediction by ZEFSAII (Michael W. Deem and Ramdas Pophale) SiO2 
 PCOD9512760
Probable space group: F M M M
;
_chemical_formula_sum "Si O2"
_cell_formula_units_Z 136
_cell_length_a 18.140906
_cell_length_b 23.799376
_cell_length_c 15.798382
_cell_angle_alpha 90.000000
_cell_angle_beta 90.000000
_cell_angle_gamma 90.000000
_cell_volume 6820.828878
_symmetry_space_group_name_H-M "F M M M"
_symmetry_group_IT_number 69
_symmetry_cell_setting 'orthorhombic'
loop_
_space_group_symop_operation_xyz
x,y,z
-x,-y,z
x,-y,-z
-x,y,-z
-x,-y,-z
x,y,-z
-x,y,z
x,-y,z
x,1/2+y,1/2+z
-x,1/2-y,1/2+z
x,1/2-y,1/2-z
-x,1/2+y,1/2-z
-x,1/2-y,1/2-z
x,1/2+y,1/2-z
-x,1/2+y,1/2+z
x,1/2-y,1/2+z
1/2+x,y,1/2+z
1/2-x,-y,1/2+z
1/2+x,-y,1/2-z
1/2-x,y,1/2-z
1/2-x,-y,1/2-z
1/2+x,y,1/2-z
1/2-x,y,1/2+z
1/2+x,-y,1/2+z
1/2+x,1/2+y,z
1/2-x,1/2-y,z
1/2+x,1/2-y,-z
1/2-x,1/2+y,-z
1/2-x,1/2-y,-z
1/2+x,1/2+y,-z
1/2-x,1/2+y,z
1/2+x,1/2-y,z
loop_
_atom_site_type_symbol
_atom_site_label
_atom_site_fract_x
_atom_site_fract_y
_atom_site_fract_z
Si Si1 0.250000 0.250000 0.250000
Si Si2 0.413999 0.249108 0.346687
Si Si3 0.730861 0.563422 0.348676
Si Si4 0.081586 0.621267 0.100483
Si Si5 0.214113 0.324651 0.406245
O O1 0.257485 0.298148 0.326917
O O2 0.500000 0.232287 0.341340
O O3 0.381291 0.250000 0.250000
O O4 0.412057 0.311921 0.382430
O O5 0.365542 0.204693 0.397434
O O6 0.736216 0.500000 0.381856
O O7 0.750000 0.562868 0.250000
O O8 0.648234 0.587174 0.359773
O O9 0.783183 0.608761 0.393862
O O10 0.000000 0.604357 0.131401
O O11 0.084729 0.612744 0.000000
O O12 0.245149 0.312603 0.500000
#
# Coordination Sequence:
#
# PCOD9512760 Si02
#       5
#     8  32  32  32  32
#     4  12  22  40  56  90 128 152 206 256 308 402
#     4  10  20  37  61  91 130 167 203 258 321 382
#     4  11  24  43  63  86 125 173 218 264 309 371
#     4  10  21  38  62  94 127 158 203 265 329 388
#     4  12  23  37  63  91 125 169 206 257 316 373
#
# _framework density 19.938925999999999
#
# number of rings (size 3 to 8) (size 9 to 14) (size 15 to 20)
#    0.000    1.176    2.353    4.588    0.000    3.765 
#    0.000    1.176    0.000    2.118    0.000    1.647 
#    0.000    0.000    0.000    0.000    0.000    0.000 
#
# Total GULP energy -189633.732641 kJ/mol
# GULP energy per Si atom -5577.462725 kJ/mol
# Density = 1.989354 g / cm^3
# Si number density = 19.938926 Si / 1000 Ang^3
#
#
#
# Elastic Constant Matrix: (Units=GPa)
#
#
# Indices 1 2 3 4 5 6 
#
# 1 87.5400 49.4643 40.1476 0.0000 0.0000 0.0000
# 2 49.4643 159.1305 33.6444 0.0000 0.0000 0.0000
# 3 40.1476 33.6444 125.8555 0.0000 0.0000 0.0000
# 4 0.0000 0.0000 0.0000 -27.5135 0.0000 0.0000
# 5 0.0000 0.0000 0.0000 0.0000 28.5118 0.0000
# 6 0.0000 0.0000 0.0000 0.0000 0.0000 18.6546
#
#
#
# Elastic Compliance Matrix: (Units=1/GPa)
#
#
# Indices 1 2 3 4 5 6 
#
# 1 0.015446 -0.003985 -0.003862 0.000000 0.000000 0.000000
# 2 -0.003985 0.007689 -0.000784 0.000000 0.000000 0.000000
# 3 -0.003862 -0.000784 0.009387 0.000000 0.000000 0.000000
# 4 0.000000 0.000000 0.000000 -0.036346 0.000000 0.000000
# 5 0.000000 0.000000 0.000000 0.000000 0.035073 0.000000
# 6 0.000000 0.000000 0.000000 0.000000 0.000000 0.053606
#
#
# Mechanical properties :
#
#
# Convention : Reuss Voigt Hill
#
# Bulk Modulus (GPa) = 65.53124 68.78207 67.15666
# Shear Modulus (GPa) = 46.63994 20.54855 33.59425
#
# Velocity S-wave (km/s) = 4.84171 3.21374 4.10915
# Velocity P-wave (km/s) = 8.01209 6.95285 7.50119
#
# Compressibility (1/GPa) = 0.01525990
#
# Stress axis : x y z
#
# Youngs Moduli (GPa) = 64.74114 130.06305 106.52744
#
# Poissons Ratio (x) = 0.51827 0.41141
# Poissons Ratio (y) = 0.25798 0.08354
# Poissons Ratio (z) = 0.25003 0.10200
#
# Static dielectric constant tensor:
#      x y z
#    x 1.607090 0.000000 0.000000 
#    y 0.000000 1.709270 0.000000 
#    z 0.000000 0.000000 1.716310 
# 
# From -- ./inp_files/16580.got.cif
#   From: 2010.05.17/outbox.cif.g08.bks.cpg/sg69_9_cif.got.tgz:16580.got - 2010.06.03 19:29:58.
