data_PCOD9512763
_publ_section_title
;
Structure prediction by ZEFSAII (Michael W. Deem and Ramdas Pophale) SiO2 
 PCOD9512763
Probable space group: F M M M
;
_chemical_formula_sum "Si O2"
_cell_formula_units_Z 160
_cell_length_a 16.146003
_cell_length_b 17.958138
_cell_length_c 28.043032
_cell_angle_alpha 90.000000
_cell_angle_beta 90.000000
_cell_angle_gamma 90.000000
_cell_volume 8131.137422
_symmetry_space_group_name_H-M "F M M M"
_symmetry_group_IT_number 69
_symmetry_cell_setting 'orthorhombic'
loop_
_space_group_symop_operation_xyz
x,y,z
-x,-y,z
x,-y,-z
-x,y,-z
-x,-y,-z
x,y,-z
-x,y,z
x,-y,z
x,1/2+y,1/2+z
-x,1/2-y,1/2+z
x,1/2-y,1/2-z
-x,1/2+y,1/2-z
-x,1/2-y,1/2-z
x,1/2+y,1/2-z
-x,1/2+y,1/2+z
x,1/2-y,1/2+z
1/2+x,y,1/2+z
1/2-x,-y,1/2+z
1/2+x,-y,1/2-z
1/2-x,y,1/2-z
1/2-x,-y,1/2-z
1/2+x,y,1/2-z
1/2-x,y,1/2+z
1/2+x,-y,1/2+z
1/2+x,1/2+y,z
1/2-x,1/2-y,z
1/2+x,1/2-y,-z
1/2-x,1/2+y,-z
1/2-x,1/2-y,-z
1/2+x,1/2+y,-z
1/2-x,1/2+y,z
1/2+x,1/2-y,z
loop_
_atom_site_type_symbol
_atom_site_label
_atom_site_fract_x
_atom_site_fract_y
_atom_site_fract_z
Si Si1 0.903889 0.416564 0.318627
Si Si2 0.229348 0.914706 0.444999
Si Si3 0.653934 0.832899 0.233338
Si Si4 0.170487 0.300565 0.390311
Si Si5 0.404554 0.346887 0.375647
O O1 0.872543 0.500000 0.326799
O O2 0.894858 0.393892 0.263771
O O3 0.854109 0.355645 0.348211
O O4 0.000000 0.413277 0.332685
O O5 0.203782 0.906212 0.500000
O O6 0.300357 0.854298 0.432805
O O7 0.153886 0.896629 0.409261
O O8 0.257311 0.000000 0.437975
O O9 0.627199 0.750000 0.250000
O O10 0.750000 0.839753 0.250000
O O11 0.633653 0.843323 0.177797
O O12 0.250000 0.250000 0.377798
O O13 0.101528 0.237546 0.396618
O O14 0.500000 0.370573 0.373882
#
# Coordination Sequence:
#
# PCOD9512763 Si02
#       5
#    32  32  32  32  32
#     4  11  23  37  57  88 124 161 199 247 307 361
#     4  10  23  43  65  88 118 159 205 258 313 362
#     4  11  22  37  61  89 122 165 208 244 295 353
#     4  10  20  37  62  88 115 153 203 247 295 361
#     4  11  23  37  62  94 124 159 201 252 309 368
#
# _framework density 19.677444000000001
#
# number of rings (size 3 to 8) (size 9 to 14) (size 15 to 20)
#    0.000    1.400    2.000    4.200    2.800    6.400 
#    0.000    1.000    0.000    1.800    0.000    7.000 
#    0.000    0.000    0.000    0.000    0.000    0.000 
#
# Total GULP energy -223240.846151 kJ/mol
# GULP energy per Si atom -5581.021154 kJ/mol
# Density = 1.963266 g / cm^3
# Si number density = 19.677444 Si / 1000 Ang^3
#
#
#
# Elastic Constant Matrix: (Units=GPa)
#
#
# Indices 1 2 3 4 5 6 
#
# 1 44.9369 9.1485 19.8578 0.0000 0.0000 0.0000
# 2 9.1485 107.7002 28.9560 0.0000 0.0000 0.0000
# 3 19.8578 28.9560 112.1869 0.0000 0.0000 0.0000
# 4 0.0000 0.0000 0.0000 32.6454 0.0000 0.0000
# 5 0.0000 0.0000 0.0000 0.0000 8.4017 0.0000
# 6 0.0000 0.0000 0.0000 0.0000 0.0000 1.0510
#
#
#
# Elastic Compliance Matrix: (Units=1/GPa)
#
#
# Indices 1 2 3 4 5 6 
#
# 1 0.024236 -0.000973 -0.004039 0.000000 0.000000 0.000000
# 2 -0.000973 0.010016 -0.002413 0.000000 0.000000 0.000000
# 3 -0.004039 -0.002413 0.010251 0.000000 0.000000 0.000000
# 4 0.000000 0.000000 0.000000 0.030632 0.000000 0.000000
# 5 0.000000 0.000000 0.000000 0.000000 0.119024 0.000000
# 6 0.000000 0.000000 0.000000 0.000000 0.000000 0.951507
#
#
# Mechanical properties :
#
#
# Convention : Reuss Voigt Hill
#
# Bulk Modulus (GPa) = 33.72167 42.30542 38.01354
# Shear Modulus (GPa) = 4.27204 22.21038 13.24121
#
# Velocity S-wave (km/s) = 1.47504 3.36329 2.59687
# Velocity P-wave (km/s) = 4.48056 6.05214 5.32465
#
# Compressibility (1/GPa) = 0.02965452
#
# Stress axis : x y z
#
# Youngs Moduli (GPa) = 41.26042 99.83572 97.54726
#
# Poissons Ratio (x) = 0.09712 0.39398
# Poissons Ratio (y) = 0.04014 0.23539
# Poissons Ratio (z) = 0.16665 0.24091
#
# Static dielectric constant tensor:
#      x y z
#    x 1.721240 0.000000 0.000000 
#    y 0.000000 1.703720 0.000000 
#    z 0.000000 0.000000 1.684230 
# 
# From -- ./inp_files/23098.got.cif
#   From: 2010.05.17/outbox.cif.g08.bks.cpg/sg69_12_cif.got.tgz:23098.got - 2010.06.03 19:29:58.
