data_PCOD9512482
_publ_section_title
;
Structure prediction by ZEFSAII (Michael W. Deem and Ramdas Pophale) SiO2 
 PCOD9512482
Probable space group: F M M M
;
_chemical_formula_sum "Si O2"
_cell_formula_units_Z 96
_cell_length_a 12.189276
_cell_length_b 23.874417
_cell_length_c 13.314952
_cell_angle_alpha 90.000000
_cell_angle_beta 90.000000
_cell_angle_gamma 90.000000
_cell_volume 3874.808923
_symmetry_space_group_name_H-M "F M M M"
_symmetry_group_IT_number 69
_symmetry_cell_setting 'orthorhombic'
loop_
_space_group_symop_operation_xyz
x,y,z
-x,-y,z
x,-y,-z
-x,y,-z
-x,-y,-z
x,y,-z
-x,y,z
x,-y,z
x,1/2+y,1/2+z
-x,1/2-y,1/2+z
x,1/2-y,1/2-z
-x,1/2+y,1/2-z
-x,1/2-y,1/2-z
x,1/2+y,1/2-z
-x,1/2+y,1/2+z
x,1/2-y,1/2+z
1/2+x,y,1/2+z
1/2-x,-y,1/2+z
1/2+x,-y,1/2-z
1/2-x,y,1/2-z
1/2-x,-y,1/2-z
1/2+x,y,1/2-z
1/2-x,y,1/2+z
1/2+x,-y,1/2+z
1/2+x,1/2+y,z
1/2-x,1/2-y,z
1/2+x,1/2-y,-z
1/2-x,1/2+y,-z
1/2-x,1/2-y,-z
1/2+x,1/2+y,-z
1/2-x,1/2+y,z
1/2+x,1/2-y,z
loop_
_atom_site_type_symbol
_atom_site_label
_atom_site_fract_x
_atom_site_fract_y
_atom_site_fract_z
Si Si1 0.126391 0.268953 0.864718
Si Si2 0.883372 0.600031 0.833909
Si Si3 0.153025 0.435560 0.388103
O O1 0.126066 0.250000 0.750000
O O2 0.250000 0.250000 0.900136
O O3 0.128394 0.336172 0.869167
O O4 0.000000 0.252240 0.898969
O O5 0.619095 0.598295 0.788588
O O6 0.000000 0.577499 0.865944
O O7 0.216312 0.565828 0.877575
O O8 0.123005 0.414908 0.500000
O O9 0.117228 0.500000 0.378533
#
# Coordination Sequence:
#
# PCOD9512482 Si02
#       3
#    32  32  32
#     4   9  16  28  51  80 107 141 184 227 276 334
#     4  10  20  35  56  79 106 143 184 225 273 333
#     4  10  21  35  52  78 110 142 180 227 277 330
#
# _framework density 24.775416
#
# number of rings (size 3 to 8) (size 9 to 14) (size 15 to 20)
#    0.000    2.333    0.000    6.000    0.000    4.000 
#    0.000    3.333    0.000   16.000    0.000   37.333 
#    0.000    0.000    0.000    0.000    0.000    0.000 
#
# Total GULP energy -133756.012104 kJ/mol
# GULP energy per Si atom -5573.167171 kJ/mol
# Density = 2.471903 g / cm^3
# Si number density = 24.775416 Si / 1000 Ang^3
#
#
#
# Elastic Constant Matrix: (Units=GPa)
#
#
# Indices 1 2 3 4 5 6 
#
# 1 302.0802 41.5210 36.3024 0.0000 0.0000 0.0000
# 2 41.5210 50.2300 5.1942 0.0000 0.0000 0.0000
# 3 36.3024 5.1942 158.3581 0.0000 0.0000 0.0000
# 4 0.0000 0.0000 0.0000 77.9863 0.0000 0.0000
# 5 0.0000 0.0000 0.0000 0.0000 -69.5920 0.0000
# 6 0.0000 0.0000 0.0000 0.0000 0.0000 221.4194
#
#
#
# Elastic Compliance Matrix: (Units=1/GPa)
#
#
# Indices 1 2 3 4 5 6 
#
# 1 0.003828 -0.003084 -0.000776 0.000000 0.000000 0.000000
# 2 -0.003084 0.022460 -0.000030 0.000000 0.000000 0.000000
# 3 -0.000776 -0.000030 0.006494 0.000000 0.000000 0.000000
# 4 0.000000 0.000000 0.000000 0.012823 0.000000 0.000000
# 5 0.000000 0.000000 0.000000 0.000000 -0.014369 0.000000
# 6 0.000000 0.000000 0.000000 0.000000 0.000000 0.004516
#
#
# Mechanical properties :
#
#
# Convention : Reuss Voigt Hill
#
# Bulk Modulus (GPa) = 39.99635 75.18930 57.59282
# Shear Modulus (GPa) = 96.40437 74.47278 85.43857
#
# Velocity S-wave (km/s) = 6.24466 5.48857 5.87878
# Velocity P-wave (km/s) = 8.25669 8.40120 8.32926
#
# Compressibility (1/GPa) = 0.02500228
#
# Stress axis : x y z
#
# Youngs Moduli (GPa) = 261.26634 44.52266 153.99458
#
# Poissons Ratio (x) = 0.13729 0.11954
# Poissons Ratio (y) = 0.80564 0.00459
# Poissons Ratio (z) = 0.20282 0.00133
#
# Static dielectric constant tensor:
#      x y z
#    x 2.043090 0.000000 0.000000 
#    y 0.000000 1.895570 0.000000 
#    z 0.000000 0.000000 1.960440 
# 
# From -- ./inp_files/28884.got.cif
#   From: 2010.05.17/outbox.cif.g08.bks.cpg/sg69_15_cif.got.tgz:28884.got - 2010.06.03 19:29:58.
