data_PCOD9512174
_publ_section_title
;
Structure prediction by ZEFSAII (Michael W. Deem and Ramdas Pophale) SiO2 
 PCOD9512174
Probable space group: F M M M
;
_chemical_formula_sum "Si O2"
_cell_formula_units_Z 160
_cell_length_a 28.054181
_cell_length_b 10.629846
_cell_length_c 29.460611
_cell_angle_alpha 90.000000
_cell_angle_beta 90.000000
_cell_angle_gamma 90.000000
_cell_volume 8785.496641
_symmetry_space_group_name_H-M "F M M M"
_symmetry_group_IT_number 69
_symmetry_cell_setting 'orthorhombic'
loop_
_space_group_symop_operation_xyz
x,y,z
-x,-y,z
x,-y,-z
-x,y,-z
-x,-y,-z
x,y,-z
-x,y,z
x,-y,z
x,1/2+y,1/2+z
-x,1/2-y,1/2+z
x,1/2-y,1/2-z
-x,1/2+y,1/2-z
-x,1/2-y,1/2-z
x,1/2+y,1/2-z
-x,1/2+y,1/2+z
x,1/2-y,1/2+z
1/2+x,y,1/2+z
1/2-x,-y,1/2+z
1/2+x,-y,1/2-z
1/2-x,y,1/2-z
1/2-x,-y,1/2-z
1/2+x,y,1/2-z
1/2-x,y,1/2+z
1/2+x,-y,1/2+z
1/2+x,1/2+y,z
1/2-x,1/2-y,z
1/2+x,1/2-y,-z
1/2-x,1/2+y,-z
1/2-x,1/2-y,-z
1/2+x,1/2+y,-z
1/2-x,1/2+y,z
1/2+x,1/2-y,z
loop_
_atom_site_type_symbol
_atom_site_label
_atom_site_fract_x
_atom_site_fract_y
_atom_site_fract_z
Si Si1 0.698359 0.634101 0.725942
Si Si2 0.057316 0.858725 0.052561
Si Si3 0.555775 0.353866 0.710990
Si Si4 0.897526 0.145383 0.386124
Si Si5 0.713387 0.643217 0.618563
O O1 0.673654 0.500000 0.731996
O O2 0.673129 0.750000 0.750000
O O3 0.750000 0.625662 0.750000
O O4 0.708708 0.652899 0.673265
O O5 0.076056 0.748894 0.084301
O O6 0.000000 0.857845 0.053721
O O7 0.072972 0.000000 0.066504
O O8 0.071738 0.839771 0.000000
O O9 0.500000 0.340477 0.696159
O O10 0.560872 0.500000 0.726393
O O11 0.563329 0.250000 0.750000
O O12 0.589498 0.335396 0.667072
O O13 0.841254 0.158576 0.396260
O O14 0.911147 0.000000 0.396187
O O15 0.729195 0.500000 0.608104
O O16 0.750000 0.750000 0.602792
#
# Coordination Sequence:
#
# PCOD9512174 Si02
#       5
#    32  32  32  32  32
#     4   9  15  25  41  59  83 122 169 218 266 307
#     4   9  19  37  61  89 117 140 167 212 271 333
#     4   9  18  33  50  70 102 142 181 221 265 317
#     4  10  21  35  53  80 112 144 181 227 274 325
#     4  10  20  33  47  68 100 137 178 223 268 312
#
# _framework density 18.211832000000001
#
# number of rings (size 3 to 8) (size 9 to 14) (size 15 to 20)
#    0.000    2.600    2.000    1.200    0.000    4.000 
#    0.000    3.000    0.000    0.600    0.000    0.000 
#    0.000    0.000    0.000    0.000    0.000    0.000 
#
# Total GULP energy -222906.071501 kJ/mol
# GULP energy per Si atom -5572.651788 kJ/mol
# Density = 1.817038 g / cm^3
# Si number density = 18.211832 Si / 1000 Ang^3
#
#
#
# Elastic Constant Matrix: (Units=GPa)
#
#
# Indices 1 2 3 4 5 6 
#
# 1 67.7590 46.1405 11.5960 0.0000 0.0000 0.0000
# 2 46.1405 190.4173 64.7720 0.0000 0.0000 0.0000
# 3 11.5960 64.7720 49.6564 0.0000 0.0000 0.0000
# 4 0.0000 0.0000 0.0000 29.9506 0.0000 0.0000
# 5 0.0000 0.0000 0.0000 0.0000 3.3977 0.0000
# 6 0.0000 0.0000 0.0000 0.0000 0.0000 19.7635
#
#
#
# Elastic Compliance Matrix: (Units=1/GPa)
#
#
# Indices 1 2 3 4 5 6 
#
# 1 0.017867 -0.005231 0.002651 0.000000 0.000000 0.000000
# 2 -0.005231 0.010972 -0.013090 0.000000 0.000000 0.000000
# 3 0.002651 -0.013090 0.036594 0.000000 0.000000 0.000000
# 4 0.000000 0.000000 0.000000 0.033388 0.000000 0.000000
# 5 0.000000 0.000000 0.000000 0.000000 0.294317 0.000000
# 6 0.000000 0.000000 0.000000 0.000000 0.000000 0.050598
#
#
# Mechanical properties :
#
#
# Convention : Reuss Voigt Hill
#
# Bulk Modulus (GPa) = 29.33201 61.42773 45.37987
# Shear Modulus (GPa) = 10.27875 22.97731 16.62803
#
# Velocity S-wave (km/s) = 2.37829 3.55585 3.02492
# Velocity P-wave (km/s) = 4.86648 7.11769 6.09689
#
# Compressibility (1/GPa) = 0.03409245
#
# Stress axis : x y z
#
# Youngs Moduli (GPa) = 55.97036 91.14156 27.32672
#
# Poissons Ratio (x) = 0.47677 -0.07245
# Poissons Ratio (y) = 0.29279 0.35771
# Poissons Ratio (z) = -0.14839 1.19306
#
# Static dielectric constant tensor:
#      x y z
#    x 1.651030 0.000000 0.000000 
#    y 0.000000 1.702890 0.000000 
#    z 0.000000 0.000000 1.592100 
# 
# From -- ./inp_files/38844.got.cif
#   From: 2010.05.17/outbox.cif.g08.bks.cpg/sg69_20_cif.got.tgz:38844.got - 2010.06.03 19:29:58.
