data_PCOD9512983
_publ_section_title
;
Structure prediction by ZEFSAII (Michael W. Deem and Ramdas Pophale) SiO2 
 PCOD9512983
Probable space group: F M M M
;
_chemical_formula_sum "Si O2"
_cell_formula_units_Z 168
_cell_length_a 26.685193
_cell_length_b 20.281774
_cell_length_c 14.536329
_cell_angle_alpha 90.000000
_cell_angle_beta 90.000000
_cell_angle_gamma 90.000000
_cell_volume 7867.396369
_symmetry_space_group_name_H-M "F M M M"
_symmetry_group_IT_number 69
_symmetry_cell_setting 'orthorhombic'
loop_
_space_group_symop_operation_xyz
x,y,z
-x,-y,z
x,-y,-z
-x,y,-z
-x,-y,-z
x,y,-z
-x,y,z
x,-y,z
x,1/2+y,1/2+z
-x,1/2-y,1/2+z
x,1/2-y,1/2-z
-x,1/2+y,1/2-z
-x,1/2-y,1/2-z
x,1/2+y,1/2-z
-x,1/2+y,1/2+z
x,1/2-y,1/2+z
1/2+x,y,1/2+z
1/2-x,-y,1/2+z
1/2+x,-y,1/2-z
1/2-x,y,1/2-z
1/2-x,-y,1/2-z
1/2+x,y,1/2-z
1/2-x,y,1/2+z
1/2+x,-y,1/2+z
1/2+x,1/2+y,z
1/2-x,1/2-y,z
1/2+x,1/2-y,-z
1/2-x,1/2+y,-z
1/2-x,1/2-y,-z
1/2+x,1/2+y,-z
1/2-x,1/2+y,z
1/2+x,1/2-y,z
loop_
_atom_site_type_symbol
_atom_site_label
_atom_site_fract_x
_atom_site_fract_y
_atom_site_fract_z
Si Si1 0.162521 0.251102 0.138196
Si Si2 0.054399 0.284421 0.650815
Si Si3 0.418154 0.427869 0.893972
Si Si4 0.304455 0.896303 0.135234
Si Si5 0.306658 0.106736 0.357172
Si Si6 0.154033 0.500000 0.000000
O O1 0.161512 0.250000 0.250000
O O2 0.105100 0.243055 0.105765
O O3 0.186555 0.319838 0.110698
O O4 0.190970 0.183889 0.114944
O O5 0.052793 0.250000 0.750000
O O6 0.062952 0.363282 0.658784
O O7 0.000000 0.273206 0.607096
O O8 0.433896 0.500000 0.859435
O O9 0.357600 0.424773 0.893187
O O10 0.434748 0.421147 0.000000
O O11 0.309356 0.899986 0.246018
O O12 0.247548 0.918291 0.112657
O O13 0.341626 0.942581 0.080385
#
# Coordination Sequence:
#
# PCOD9512983 Si02
#       6
#    32  32  32  32  32   8
#     4   8  15  34  58  82 105 142 194 243 283 332
#     4   9  18  36  62  88 113 148 193 237 289 352
#     4  10  22  36  58  91 123 154 189 240 299 355
#     4  10  21  36  53  80 116 157 197 238 287 344
#     4   9  19  35  61  78 108 156 201 239 289 343
#     4  12  28  34  46  84 123 160 187 236 286 348
#
# _framework density 21.353952
#
# number of rings (size 3 to 8) (size 9 to 14) (size 15 to 20)
#    0.000    2.667    0.000    1.714    4.000    3.810 
#    6.857    1.905    0.000    0.000    0.000    0.667 
#    0.000    0.000    0.000    0.000    0.000    0.000 
#
# Total GULP energy -233848.322619 kJ/mol
# GULP energy per Si atom -5567.817205 kJ/mol
# Density = 2.130535 g / cm^3
# Si number density = 21.353952 Si / 1000 Ang^3
#
#
#
# Elastic Constant Matrix: (Units=GPa)
#
#
# Indices 1 2 3 4 5 6 
#
# 1 88.2518 6.4338 0.9502 0.0000 0.0000 0.0000
# 2 6.4338 150.3830 35.1963 0.0000 0.0000 0.0000
# 3 0.9502 35.1963 88.7667 0.0000 0.0000 0.0000
# 4 0.0000 0.0000 0.0000 468.7707 0.0000 0.0000
# 5 0.0000 0.0000 0.0000 0.0000 -28.3428 0.0000
# 6 0.0000 0.0000 0.0000 0.0000 0.0000 -13.9902
#
#
#
# Elastic Compliance Matrix: (Units=1/GPa)
#
#
# Indices 1 2 3 4 5 6 
#
# 1 0.011367 -0.000505 0.000078 0.000000 0.000000 0.000000
# 2 -0.000505 0.007352 -0.002910 0.000000 0.000000 0.000000
# 3 0.000078 -0.002910 0.012418 0.000000 0.000000 0.000000
# 4 0.000000 0.000000 0.000000 0.002133 0.000000 0.000000
# 5 0.000000 0.000000 0.000000 0.000000 -0.035282 0.000000
# 6 0.000000 0.000000 0.000000 0.000000 0.000000 -0.071479
#
#
# Mechanical properties :
#
#
# Convention : Reuss Voigt Hill
#
# Bulk Modulus (GPa) = 40.87348 45.84023 43.35685
# Shear Modulus (GPa) = -85.23352 104.27563 9.52105
#
# Velocity S-wave (km/s) = -6.32466 6.99557 2.11385
# Velocity P-wave (km/s) = 5.84402 9.31473 5.12892
#
# Compressibility (1/GPa) = 0.02446574
#
# Stress axis : x y z
#
# Youngs Moduli (GPa) = 87.97274 136.01178 80.52566
#
# Poissons Ratio (x) = 0.06864 -0.00631
# Poissons Ratio (y) = 0.04440 0.23431
# Poissons Ratio (z) = -0.00690 0.39577
#
# Static dielectric constant tensor:
#      x y z
#    x 1.801100 0.000000 0.000000 
#    y 0.000000 1.766550 0.000000 
#    z 0.000000 0.000000 1.818410 
# 
# From -- ./inp_files/19718.got.cif
#   From: 2010.05.17/outbox.cif.g08.bks.cpg/sg69_10_cif.got.tgz:19718.got - 2010.06.03 19:29:58.
