data_PCOD9512407
_publ_section_title
;
Structure prediction by ZEFSAII (Michael W. Deem and Ramdas Pophale) SiO2 
 PCOD9512407
Probable space group: F M M M
;
_chemical_formula_sum "Si O2"
_cell_formula_units_Z 160
_cell_length_a 27.907543
_cell_length_b 15.850844
_cell_length_c 18.108952
_cell_angle_alpha 90.000000
_cell_angle_beta 90.000000
_cell_angle_gamma 90.000000
_cell_volume 8010.641790
_symmetry_space_group_name_H-M "F M M M"
_symmetry_group_IT_number 69
_symmetry_cell_setting 'orthorhombic'
loop_
_space_group_symop_operation_xyz
x,y,z
-x,-y,z
x,-y,-z
-x,y,-z
-x,-y,-z
x,y,-z
-x,y,z
x,-y,z
x,1/2+y,1/2+z
-x,1/2-y,1/2+z
x,1/2-y,1/2-z
-x,1/2+y,1/2-z
-x,1/2-y,1/2-z
x,1/2+y,1/2-z
-x,1/2+y,1/2+z
x,1/2-y,1/2+z
1/2+x,y,1/2+z
1/2-x,-y,1/2+z
1/2+x,-y,1/2-z
1/2-x,y,1/2-z
1/2-x,-y,1/2-z
1/2+x,y,1/2-z
1/2-x,y,1/2+z
1/2+x,-y,1/2+z
1/2+x,1/2+y,z
1/2-x,1/2-y,z
1/2+x,1/2-y,-z
1/2-x,1/2+y,-z
1/2-x,1/2-y,-z
1/2+x,1/2+y,-z
1/2-x,1/2+y,z
1/2+x,1/2-y,z
loop_
_atom_site_type_symbol
_atom_site_label
_atom_site_fract_x
_atom_site_fract_y
_atom_site_fract_z
Si Si1 0.288165 0.676241 0.917343
Si Si2 0.748233 0.000000 0.368616
Si Si3 0.373371 0.667675 0.800103
Si Si4 0.556141 0.590403 0.410525
Si Si5 0.557609 0.221777 0.586145
Si Si6 0.167112 0.500000 0.761101
O O1 0.250000 0.750000 0.904795
O O2 0.262093 0.585920 0.911779
O O3 0.328478 0.679915 0.855215
O O4 0.308366 0.686271 0.000000
O O5 0.801492 0.000000 0.335183
O O6 0.708555 0.000000 0.302803
O O7 0.378186 0.750000 0.750000
O O8 0.418465 0.660112 0.855128
O O9 0.363195 0.584400 0.752458
O O10 0.556603 0.589425 0.500000
O O11 0.500000 0.590208 0.388301
O O12 0.577351 0.500000 0.385852
O O13 0.575222 0.683181 0.392361
O O14 0.569743 0.205672 0.500000
O O15 0.500000 0.221036 0.590858
#
# Coordination Sequence:
#
# PCOD9512407 Si02
#       6
#    32  16  32  32  32  16
#     4  10  20  34  57  87 115 144 184 234 287 343
#     4   9  17  34  58  82 107 143 184 228 273 334
#     4  11  22  37  56  80 113 155 190 233 290 354
#     4   7  10  20  42  71  99 129 171 224 280 333
#     4   9  18  34  56  80 109 148 196 250 299 343
#     4   9  20  36  55  79 110 143 187 227 274 346
#
# _framework density 19.973431999999999
#
# number of rings (size 3 to 8) (size 9 to 14) (size 15 to 20)
#    0.000    2.800    0.000    3.900    0.000    2.400 
#    1.800    2.000    0.000    1.200    0.000    0.000 
#    0.000    0.000    0.000    0.000    0.000    0.000 
#
# Total GULP energy -223004.280637 kJ/mol
# GULP energy per Si atom -5575.107016 kJ/mol
# Density = 1.992797 g / cm^3
# Si number density = 19.973432 Si / 1000 Ang^3
#
#
#
# Elastic Constant Matrix: (Units=GPa)
#
#
# Indices 1 2 3 4 5 6 
#
# 1 53.9209 31.5273 38.0352 0.0000 0.0000 0.0000
# 2 31.5273 71.3400 20.6076 0.0000 0.0000 0.0000
# 3 38.0352 20.6076 76.5102 0.0000 0.0000 0.0000
# 4 0.0000 0.0000 0.0000 21.0225 0.0000 0.0000
# 5 0.0000 0.0000 0.0000 0.0000 43.3212 0.0000
# 6 0.0000 0.0000 0.0000 0.0000 0.0000 21.6420
#
#
#
# Elastic Compliance Matrix: (Units=1/GPa)
#
#
# Indices 1 2 3 4 5 6 
#
# 1 0.035552 -0.011501 -0.014576 0.000000 0.000000 0.000000
# 2 -0.011501 0.018921 0.000621 0.000000 0.000000 0.000000
# 3 -0.014576 0.000621 0.020149 0.000000 0.000000 0.000000
# 4 0.000000 0.000000 0.000000 0.047568 0.000000 0.000000
# 5 0.000000 0.000000 0.000000 0.000000 0.023083 0.000000
# 6 0.000000 0.000000 0.000000 0.000000 0.000000 0.046206
#
#
# Mechanical properties :
#
#
# Convention : Reuss Voigt Hill
#
# Bulk Modulus (GPa) = 42.17638 42.45679 42.31659
# Shear Modulus (GPa) = 19.97648 24.63722 22.30685
#
# Velocity S-wave (km/s) = 3.16595 3.51593 3.34552
# Velocity P-wave (km/s) = 5.87592 6.14696 6.01297
#
# Compressibility (1/GPa) = 0.02370996
#
# Stress axis : x y z
#
# Youngs Moduli (GPa) = 28.12776 52.85253 49.63035
#
# Poissons Ratio (x) = 0.60786 0.72342
# Poissons Ratio (y) = 0.32350 -0.03084
# Poissons Ratio (z) = 0.40999 -0.03284
#
# Static dielectric constant tensor:
#      x y z
#    x 1.708560 0.000000 0.000000 
#    y 0.000000 1.718920 0.000000 
#    z 0.000000 0.000000 1.687370 
# 
# From -- ./inp_files/19594.got.cif
#   From: 2010.05.17/outbox.cif.g08.bks.cpg/sg69_10_cif.got.tgz:19594.got - 2010.06.03 19:29:58.
