data_PCOD9512039
_publ_section_title
;
Structure prediction by ZEFSAII (Michael W. Deem and Ramdas Pophale) SiO2 
 PCOD9512039
Probable space group: F M M M
;
_chemical_formula_sum "Si O2"
_cell_formula_units_Z 136
_cell_length_a 17.004387
_cell_length_b 18.246814
_cell_length_c 23.557487
_cell_angle_alpha 90.000000
_cell_angle_beta 90.000000
_cell_angle_gamma 90.000000
_cell_volume 7309.320169
_symmetry_space_group_name_H-M "F M M M"
_symmetry_group_IT_number 69
_symmetry_cell_setting 'orthorhombic'
loop_
_space_group_symop_operation_xyz
x,y,z
-x,-y,z
x,-y,-z
-x,y,-z
-x,-y,-z
x,y,-z
-x,y,z
x,-y,z
x,1/2+y,1/2+z
-x,1/2-y,1/2+z
x,1/2-y,1/2-z
-x,1/2+y,1/2-z
-x,1/2-y,1/2-z
x,1/2+y,1/2-z
-x,1/2+y,1/2+z
x,1/2-y,1/2+z
1/2+x,y,1/2+z
1/2-x,-y,1/2+z
1/2+x,-y,1/2-z
1/2-x,y,1/2-z
1/2-x,-y,1/2-z
1/2+x,y,1/2-z
1/2-x,y,1/2+z
1/2+x,-y,1/2+z
1/2+x,1/2+y,z
1/2-x,1/2-y,z
1/2+x,1/2-y,-z
1/2-x,1/2+y,-z
1/2-x,1/2-y,-z
1/2+x,1/2+y,-z
1/2-x,1/2+y,z
1/2+x,1/2-y,z
loop_
_atom_site_type_symbol
_atom_site_label
_atom_site_fract_x
_atom_site_fract_y
_atom_site_fract_z
Si Si1 0.297524 0.859933 0.621911
Si Si2 0.500000 0.000000 0.258453
Si Si3 0.088094 0.654362 0.000000
Si Si4 0.000000 0.828030 0.286764
Si Si5 0.317544 0.500000 0.799013
Si Si6 0.373070 0.286648 0.623137
Si Si7 0.259534 0.085899 0.500000
O O1 0.363427 0.799563 0.633735
O O2 0.212522 0.822635 0.628638
O O3 0.298548 0.881519 0.556002
O O4 0.303987 0.928763 0.662381
O O5 0.500000 0.912696 0.235975
O O6 0.409853 0.000000 0.282234
O O7 0.096870 0.699140 0.058913
O O8 0.165584 0.603061 0.000000
O O9 0.000000 0.620725 0.000000
O O10 0.000000 0.750000 0.250000
O O11 0.073747 0.821559 0.328944
O O12 0.250000 0.500000 0.750000
O O13 0.269779 0.000000 0.500000
#
# Coordination Sequence:
#
# PCOD9512039 Si02
#       7
#    32   8  16  16  16  32  16
#     4  10  21  38  63  89 120 162 213 255 317 390
#     4  12  28  44  64  98 128 168 224 276 320 394
#     4  10  19  36  57  92 123 157 201 257 326 392
#     4  12  24  43  63  88 128 167 212 270 331 375
#     4  12  24  43  65  88 126 169 212 270 329 379
#     4  10  21  38  62  90 120 163 209 259 317 391
#     4  10  19  36  61  93 126 159 204 262 320 393
#
# _framework density 18.606382
#
# number of rings (size 3 to 8) (size 9 to 14) (size 15 to 20)
#    0.000    1.412    2.353    3.529    0.000    3.059 
#    2.118    2.353    0.000    0.706    0.000    0.000 
#    0.000    0.000    0.000    0.000    0.000    0.000 
#
# Total GULP energy -189287.194318 kJ/mol
# GULP energy per Si atom -5567.270421 kJ/mol
# Density = 1.856403 g / cm^3
# Si number density = 18.606382 Si / 1000 Ang^3
#
#
#
# Elastic Constant Matrix: (Units=GPa)
#
#
# Indices 1 2 3 4 5 6 
#
# 1 80.7200 32.7267 45.0741 0.0000 0.0000 0.0000
# 2 32.7267 148.7901 65.6321 0.0000 0.0000 0.0000
# 3 45.0741 65.6321 111.6918 0.0000 0.0000 0.0000
# 4 0.0000 0.0000 0.0000 82.4532 0.0000 0.0000
# 5 0.0000 0.0000 0.0000 0.0000 32.6127 0.0000
# 6 0.0000 0.0000 0.0000 0.0000 0.0000 13.9098
#
#
#
# Elastic Compliance Matrix: (Units=1/GPa)
#
#
# Indices 1 2 3 4 5 6 
#
# 1 0.016083 -0.000911 -0.005955 0.000000 0.000000 0.000000
# 2 -0.000911 0.009124 -0.004994 0.000000 0.000000 0.000000
# 3 -0.005955 -0.004994 0.014291 0.000000 0.000000 0.000000
# 4 0.000000 0.000000 0.000000 0.012128 0.000000 0.000000
# 5 0.000000 0.000000 0.000000 0.000000 0.030663 0.000000
# 6 0.000000 0.000000 0.000000 0.000000 0.000000 0.071892
#
#
# Mechanical properties :
#
#
# Convention : Reuss Voigt Hill
#
# Bulk Modulus (GPa) = 63.37781 69.78529 66.58155
# Shear Modulus (GPa) = 27.29847 38.97974 33.13911
#
# Velocity S-wave (km/s) = 3.83450 4.58205 4.22484
# Velocity P-wave (km/s) = 7.33082 8.09821 7.72405
#
# Compressibility (1/GPa) = 0.01577839
#
# Stress axis : x y z
#
# Youngs Moduli (GPa) = 62.17675 109.60070 69.97351
#
# Poissons Ratio (x) = 0.09980 0.41672
# Poissons Ratio (y) = 0.05662 0.34945
# Poissons Ratio (z) = 0.37029 0.54734
#
# Static dielectric constant tensor:
#      x y z
#    x 1.658880 0.000000 0.000000 
#    y 0.000000 1.642810 0.000000 
#    z 0.000000 0.000000 1.620130 
# 
# From -- ./inp_files/22658.got.cif
#   From: 2010.05.17/outbox.cif.g08.bks.cpg/sg69_12_cif.got.tgz:22658.got - 2010.06.03 19:29:58.
