data_PCOD9512677
_publ_section_title
;
Structure prediction by ZEFSAII (Michael W. Deem and Ramdas Pophale) SiO2 
 PCOD9512677
Probable space group: F M M M
;
_chemical_formula_sum "Si O2"
_cell_formula_units_Z 160
_cell_length_a 20.703366
_cell_length_b 19.177274
_cell_length_c 20.952594
_cell_angle_alpha 90.000000
_cell_angle_beta 90.000000
_cell_angle_gamma 90.000000
_cell_volume 8318.894773
_symmetry_space_group_name_H-M "F M M M"
_symmetry_group_IT_number 69
_symmetry_cell_setting 'orthorhombic'
loop_
_space_group_symop_operation_xyz
x,y,z
-x,-y,z
x,-y,-z
-x,y,-z
-x,-y,-z
x,y,-z
-x,y,z
x,-y,z
x,1/2+y,1/2+z
-x,1/2-y,1/2+z
x,1/2-y,1/2-z
-x,1/2+y,1/2-z
-x,1/2-y,1/2-z
x,1/2+y,1/2-z
-x,1/2+y,1/2+z
x,1/2-y,1/2+z
1/2+x,y,1/2+z
1/2-x,-y,1/2+z
1/2+x,-y,1/2-z
1/2-x,y,1/2-z
1/2-x,-y,1/2-z
1/2+x,y,1/2-z
1/2-x,y,1/2+z
1/2+x,-y,1/2+z
1/2+x,1/2+y,z
1/2-x,1/2-y,z
1/2+x,1/2-y,-z
1/2-x,1/2+y,-z
1/2-x,1/2-y,-z
1/2+x,1/2+y,-z
1/2-x,1/2+y,z
1/2+x,1/2-y,z
loop_
_atom_site_type_symbol
_atom_site_label
_atom_site_fract_x
_atom_site_fract_y
_atom_site_fract_z
Si Si1 0.571488 0.833008 0.741598
Si Si2 0.368657 0.500000 0.930598
Si Si3 0.824772 0.230172 0.431606
Si Si4 0.927659 0.851093 0.090909
Si Si5 0.757819 0.000000 0.827643
Si Si6 0.302544 0.358999 0.693542
O O1 0.500000 0.847845 0.768701
O O2 0.583442 0.750000 0.750000
O O3 0.571016 0.848625 0.667249
O O4 0.630845 0.874837 0.770634
O O5 0.410000 0.570621 0.928643
O O6 0.323632 0.500000 0.867777
O O7 0.333343 0.500000 0.000000
O O8 0.840404 0.193084 0.500000
O O9 0.750000 0.250000 0.436104
O O10 0.872570 0.296369 0.428848
O O11 0.824589 0.193259 0.362494
O O12 0.000000 0.831657 0.069608
O O13 0.750000 0.000000 0.750000
O O14 0.725255 0.926189 0.842559
O O15 0.250000 0.337906 0.750000
#
# Coordination Sequence:
#
# PCOD9512677 Si02
#       6
#    32  16  32  32  16  32
#     4  10  20  36  60  90 122 154 201 262 318 367
#     4  12  25  42  62  90 131 172 210 263 325 387
#     4  11  23  37  55  85 120 155 200 256 314 374
#     4  11  23  40  63  90 123 166 214 261 317 384
#     4  10  22  41  62  89 120 159 208 258 305 374
#     4  11  22  37  63  88 118 160 210 255 311 375
#
# _framework density 19.233325000000001
#
# number of rings (size 3 to 8) (size 9 to 14) (size 15 to 20)
#    0.000    1.200    2.000    5.700    0.000    4.400 
#    0.000    1.500    0.000    0.000    0.000    0.000 
#    0.000    4.000    0.000    0.000    0.000    0.000 
#
# Total GULP energy -222753.356561 kJ/mol
# GULP energy per Si atom -5568.833914 kJ/mol
# Density = 1.918955 g / cm^3
# Si number density = 19.233325 Si / 1000 Ang^3
#
#
#
# Elastic Constant Matrix: (Units=GPa)
#
#
# Indices 1 2 3 4 5 6 
#
# 1 139.1224 35.6553 31.3604 0.0000 0.0000 0.0000
# 2 35.6553 87.9733 27.7715 0.0000 0.0000 0.0000
# 3 31.3604 27.7715 124.9627 0.0000 0.0000 0.0000
# 4 0.0000 0.0000 0.0000 26.9328 0.0000 0.0000
# 5 0.0000 0.0000 0.0000 0.0000 66.8331 0.0000
# 6 0.0000 0.0000 0.0000 0.0000 0.0000 27.9952
#
#
#
# Elastic Compliance Matrix: (Units=1/GPa)
#
#
# Indices 1 2 3 4 5 6 
#
# 1 0.008251 -0.002894 -0.001428 0.000000 0.000000 0.000000
# 2 -0.002894 0.013239 -0.002216 0.000000 0.000000 0.000000
# 3 -0.001428 -0.002216 0.008853 0.000000 0.000000 0.000000
# 4 0.000000 0.000000 0.000000 0.037129 0.000000 0.000000
# 5 0.000000 0.000000 0.000000 0.000000 0.014963 0.000000
# 6 0.000000 0.000000 0.000000 0.000000 0.000000 0.035720
#
#
# Mechanical properties :
#
#
# Convention : Reuss Voigt Hill
#
# Bulk Modulus (GPa) = 57.90660 60.18142 59.04401
# Shear Modulus (GPa) = 36.49968 41.50364 39.00166
#
# Velocity S-wave (km/s) = 4.36102 4.65036 4.50801
# Velocity P-wave (km/s) = 7.45190 7.75839 7.60669
#
# Compressibility (1/GPa) = 0.01726919
#
# Stress axis : x y z
#
# Youngs Moduli (GPa) = 121.19276 75.53201 112.95362
#
# Poissons Ratio (x) = 0.21855 0.16126
# Poissons Ratio (y) = 0.35068 0.25032
# Poissons Ratio (z) = 0.17302 0.16739
#
# Static dielectric constant tensor:
#      x y z
#    x 1.696800 0.000000 0.000000 
#    y 0.000000 1.703870 0.000000 
#    z 0.000000 0.000000 1.731260 
# 
# From -- ./inp_files/24648.got.cif
#   From: 2010.05.17/outbox.cif.g08.bks.cpg/sg69_13_cif.got.tgz:24648.got - 2010.06.03 19:29:58.
