data_PCOD9512626
_publ_section_title
;
Structure prediction by ZEFSAII (Michael W. Deem and Ramdas Pophale) SiO2 
 PCOD9512626
Probable space group: F M M M
;
_chemical_formula_sum "Si O2"
_cell_formula_units_Z 144
_cell_length_a 27.321534
_cell_length_b 32.117099
_cell_length_c 9.001079
_cell_angle_alpha 90.000000
_cell_angle_beta 90.000000
_cell_angle_gamma 90.000000
_cell_volume 7898.342521
_symmetry_space_group_name_H-M "F M M M"
_symmetry_group_IT_number 69
_symmetry_cell_setting 'orthorhombic'
loop_
_space_group_symop_operation_xyz
x,y,z
-x,-y,z
x,-y,-z
-x,y,-z
-x,-y,-z
x,y,-z
-x,y,z
x,-y,z
x,1/2+y,1/2+z
-x,1/2-y,1/2+z
x,1/2-y,1/2-z
-x,1/2+y,1/2-z
-x,1/2-y,1/2-z
x,1/2+y,1/2-z
-x,1/2+y,1/2+z
x,1/2-y,1/2+z
1/2+x,y,1/2+z
1/2-x,-y,1/2+z
1/2+x,-y,1/2-z
1/2-x,y,1/2-z
1/2-x,-y,1/2-z
1/2+x,y,1/2-z
1/2-x,y,1/2+z
1/2+x,-y,1/2+z
1/2+x,1/2+y,z
1/2-x,1/2-y,z
1/2+x,1/2-y,-z
1/2-x,1/2+y,-z
1/2-x,1/2-y,-z
1/2+x,1/2+y,-z
1/2-x,1/2+y,z
1/2+x,1/2-y,z
loop_
_atom_site_type_symbol
_atom_site_label
_atom_site_fract_x
_atom_site_fract_y
_atom_site_fract_z
Si Si1 0.848899 0.792164 0.176358
Si Si2 0.555773 0.328518 0.322475
Si Si3 0.058517 0.500000 0.325403
Si Si4 0.698040 0.119138 0.677809
Si Si5 0.102486 0.582070 0.177202
O O1 0.830111 0.750000 0.250000
O O2 0.902984 0.802118 0.239530
O O3 0.816328 0.832732 0.210780
O O4 0.851258 0.787342 0.000000
O O5 0.560148 0.321627 0.500000
O O6 0.500000 0.319613 0.277454
O O7 0.568805 0.377117 0.295084
O O8 0.071076 0.500000 0.500000
O O9 0.079541 0.541119 0.248009
O O10 0.000000 0.500000 0.311278
O O11 0.699063 0.113997 0.500000
O O12 0.750000 0.109338 0.750000
O O13 0.654686 0.092116 0.749039
O O14 0.107470 0.577552 0.000000
#
# Coordination Sequence:
#
# PCOD9512626 Si02
#       5
#    32  32  16  32  32
#     4  10  21  35  52  76 106 139 178 224 270 320
#     4   9  18  33  53  76 104 140 180 221 267 320
#     4  11  23  37  56  85 120 153 183 219 263 313
#     4  10  21  38  59  82 108 141 180 222 273 327
#     4  10  20  36  58  83 111 143 182 226 270 319
#
# _framework density 18.231674000000002
#
# number of rings (size 3 to 8) (size 9 to 14) (size 15 to 20)
#    0.000    2.111    0.000    3.000    0.000    6.667 
#    0.000    2.778    0.000    0.000    0.000    0.000 
#    0.000    0.000    0.000    0.000    0.000    0.000 
#
# Total GULP energy -201101.747746 kJ/mol
# GULP energy per Si atom -5586.159660 kJ/mol
# Density = 1.819018 g / cm^3
# Si number density = 18.231674 Si / 1000 Ang^3
#
#
#
# Elastic Constant Matrix: (Units=GPa)
#
#
# Indices 1 2 3 4 5 6 
#
# 1 68.7945 -0.9777 27.5119 -0.0034 0.0124 -0.0027
# 2 -0.9777 75.6676 39.3587 -0.0012 0.0037 -0.0042
# 3 27.5119 39.3587 62.8847 -0.0034 0.0155 -0.0122
# 4 -0.0034 -0.0012 -0.0034 33.2488 0.0047 -0.0047
# 5 0.0124 0.0037 0.0155 0.0047 30.1855 0.0027
# 6 -0.0027 -0.0042 -0.0122 -0.0047 0.0027 4.8319
#
#
#
# Elastic Compliance Matrix: (Units=1/GPa)
#
#
# Indices 1 2 3 4 5 6 
#
# 1 0.019893 0.007093 -0.013143 0.000001 -0.000002 -0.000016
# 2 0.007093 0.022124 -0.016951 0.000000 0.000003 -0.000019
# 3 -0.013143 -0.016951 0.032261 0.000001 -0.000009 0.000059
# 4 0.000001 0.000000 0.000001 0.030076 -0.000005 0.000029
# 5 -0.000002 0.000003 -0.000009 -0.000005 0.033129 -0.000019
# 6 -0.000016 -0.000019 0.000059 0.000029 -0.000019 0.206960
#
#
# Mechanical properties :
#
#
# Convention : Reuss Voigt Hill
#
# Bulk Modulus (GPa) = 35.36287 37.68141 36.52214
# Shear Modulus (GPa) = 12.50410 23.08349 17.79379
#
# Velocity S-wave (km/s) = 2.62171 3.56212 3.12746
# Velocity P-wave (km/s) = 5.34817 6.13443 5.75474
#
# Compressibility (1/GPa) = 0.02827825
#
# Stress axis : x y z
#
# Youngs Moduli (GPa) = 50.26956 45.19936 30.99711
#
# Poissons Ratio (x) = -0.32061 0.40738
# Poissons Ratio (y) = -0.35657 0.52542
# Poissons Ratio (z) = 0.66067 0.76615
#
# Static dielectric constant tensor:
#      x y z
#    x 1.597200 0.000000 0.000000 
#    y 0.000000 1.614660 0.000000 
#    z 0.000000 0.000000 1.602430 
# 
# From -- ./inp_files/5562.got.cif
#   From: 2010.05.17/outbox.cif.g08.bks.cpg/sg69_3_cif.got.tgz:5562.got - 2010.06.03 19:29:58.
