data_PCOD9512701
_publ_section_title
;
Structure prediction by ZEFSAII (Michael W. Deem and Ramdas Pophale) SiO2 
 PCOD9512701
Probable space group: F M M M
;
_chemical_formula_sum "Si O2"
_cell_formula_units_Z 176
_cell_length_a 27.197375
_cell_length_b 23.088094
_cell_length_c 12.314691
_cell_angle_alpha 90.000000
_cell_angle_beta 90.000000
_cell_angle_gamma 90.000000
_cell_volume 7732.832273
_symmetry_space_group_name_H-M "F M M M"
_symmetry_group_IT_number 69
_symmetry_cell_setting 'orthorhombic'
loop_
_space_group_symop_operation_xyz
x,y,z
-x,-y,z
x,-y,-z
-x,y,-z
-x,-y,-z
x,y,-z
-x,y,z
x,-y,z
x,1/2+y,1/2+z
-x,1/2-y,1/2+z
x,1/2-y,1/2-z
-x,1/2+y,1/2-z
-x,1/2-y,1/2-z
x,1/2+y,1/2-z
-x,1/2+y,1/2+z
x,1/2-y,1/2+z
1/2+x,y,1/2+z
1/2-x,-y,1/2+z
1/2+x,-y,1/2-z
1/2-x,y,1/2-z
1/2-x,-y,1/2-z
1/2+x,y,1/2-z
1/2-x,y,1/2+z
1/2+x,-y,1/2+z
1/2+x,1/2+y,z
1/2-x,1/2-y,z
1/2+x,1/2-y,-z
1/2-x,1/2+y,-z
1/2-x,1/2-y,-z
1/2+x,1/2+y,-z
1/2-x,1/2+y,z
1/2+x,1/2-y,z
loop_
_atom_site_type_symbol
_atom_site_label
_atom_site_fract_x
_atom_site_fract_y
_atom_site_fract_z
Si Si1 0.309730 0.564201 0.344779
Si Si2 0.559756 0.063956 0.500000
Si Si3 0.056391 0.651729 0.314884
Si Si4 0.707631 0.895076 0.385705
Si Si5 0.075966 0.567061 0.122805
Si Si6 0.649344 0.276119 0.870884
O O1 0.293988 0.500000 0.378288
O O2 0.309896 0.568256 0.215418
O O3 0.267015 0.607533 0.380158
O O4 0.364913 0.573516 0.381592
O O5 0.500000 0.060777 0.500000
O O6 0.573074 0.100394 0.395199
O O7 0.579730 0.000000 0.500000
O O8 0.058757 0.619550 0.198731
O O9 0.093742 0.702726 0.344352
O O10 0.000000 0.668278 0.336798
O O11 0.693144 0.921447 0.500000
O O12 0.683989 0.832213 0.378108
O O13 0.065624 0.500000 0.161264
O O14 0.057255 0.571305 0.000000
O O15 0.663897 0.250000 0.750000
O O16 0.650313 0.251763 0.000000
#
# Coordination Sequence:
#
# PCOD9512701 Si02
#       6
#    32  16  32  32  32  32
#     4  10  20  36  61  96 136 173 211 255 318 395
#     4   9  18  34  60  94 130 163 194 242 319 400
#     4  11  22  40  65  93 127 167 215 271 330 392
#     4  10  20  37  61  90 126 164 209 265 324 391
#     4  10  21  37  59  92 136 181 217 254 312 391
#     4  11  25  47  70  96 128 169 225 289 348 401
#
# _framework density 22.760095
#
# number of rings (size 3 to 8) (size 9 to 14) (size 15 to 20)
#    0.000    1.727    2.727    2.182    0.000    4.727 
#    0.000    3.636    0.000    8.727    0.000    0.000 
#    0.000    0.000    0.000    0.000    0.000    0.000 
#
# Total GULP energy -245282.454753 kJ/mol
# GULP energy per Si atom -5574.601244 kJ/mol
# Density = 2.270829 g / cm^3
# Si number density = 22.760095 Si / 1000 Ang^3
#
#
#
# Elastic Constant Matrix: (Units=GPa)
#
#
# Indices 1 2 3 4 5 6 
#
# 1 104.3301 17.5901 6.5865 0.0000 -0.0001 0.0000
# 2 17.5901 19.7575 29.3449 0.0000 0.0001 0.0000
# 3 6.5865 29.3449 184.0371 0.0001 -0.0002 0.0000
# 4 0.0000 0.0000 0.0001 30.2263 -0.0024 -0.0001
# 5 -0.0001 0.0001 -0.0002 -0.0024 -170.8437 0.0001
# 6 0.0000 0.0000 0.0000 -0.0001 0.0001 17.7689
#
#
#
# Elastic Compliance Matrix: (Units=1/GPa)
#
#
# Indices 1 2 3 4 5 6 
#
# 1 0.011634 -0.012762 0.001619 0.000000 0.000000 0.000000
# 2 -0.012762 0.080319 -0.012350 0.000000 0.000000 0.000000
# 3 0.001619 -0.012350 0.007345 0.000000 0.000000 0.000000
# 4 0.000000 0.000000 0.000000 0.033084 0.000000 0.000000
# 5 0.000000 0.000000 0.000000 0.000000 -0.005853 0.000000
# 6 0.000000 0.000000 0.000000 0.000000 0.000000 0.056278
#
#
# Mechanical properties :
#
#
# Convention : Reuss Voigt Hill
#
# Bulk Modulus (GPa) = 19.11648 46.12975 32.62312
# Shear Modulus (GPa) = 20.22395 -7.59615 6.31390
#
# Velocity S-wave (km/s) = 2.98412 -1.82886 1.66737
# Velocity P-wave (km/s) = 4.50452 3.98148 4.25105
#
# Compressibility (1/GPa) = 0.05231089
#
# Stress axis : x y z
#
# Youngs Moduli (GPa) = 85.95135 12.45036 136.14681
#
# Poissons Ratio (x) = 0.15889 -0.22036
# Poissons Ratio (y) = 1.09692 1.68144
# Poissons Ratio (z) = -0.13912 0.15376
#
# Static dielectric constant tensor:
#      x y z
#    x 1.865600 0.000000 0.000000 
#    y 0.000000 1.814550 0.000000 
#    z 0.000000 0.000000 1.964070 
# 
# From -- ./inp_files/12351.got.cif
#   From: 2010.05.17/outbox.cif.g08.bks.cpg/sg69_7_cif.got.tgz:12351.got - 2010.06.03 19:29:58.
