data_PCOD9512629
_publ_section_title
;
Structure prediction by ZEFSAII (Michael W. Deem and Ramdas Pophale) SiO2 
 PCOD9512629
Probable space group: F M M M
;
_chemical_formula_sum "Si O2"
_cell_formula_units_Z 160
_cell_length_a 16.069153
_cell_length_b 20.644330
_cell_length_c 24.916222
_cell_angle_alpha 90.000000
_cell_angle_beta 90.000000
_cell_angle_gamma 90.000000
_cell_volume 8265.630180
_symmetry_space_group_name_H-M "F M M M"
_symmetry_group_IT_number 69
_symmetry_cell_setting 'orthorhombic'
loop_
_space_group_symop_operation_xyz
x,y,z
-x,-y,z
x,-y,-z
-x,y,-z
-x,-y,-z
x,y,-z
-x,y,z
x,-y,z
x,1/2+y,1/2+z
-x,1/2-y,1/2+z
x,1/2-y,1/2-z
-x,1/2+y,1/2-z
-x,1/2-y,1/2-z
x,1/2+y,1/2-z
-x,1/2+y,1/2+z
x,1/2-y,1/2+z
1/2+x,y,1/2+z
1/2-x,-y,1/2+z
1/2+x,-y,1/2-z
1/2-x,y,1/2-z
1/2-x,-y,1/2-z
1/2+x,y,1/2-z
1/2-x,y,1/2+z
1/2+x,-y,1/2+z
1/2+x,1/2+y,z
1/2-x,1/2-y,z
1/2+x,1/2-y,-z
1/2-x,1/2+y,-z
1/2-x,1/2-y,-z
1/2+x,1/2+y,-z
1/2-x,1/2+y,z
1/2+x,1/2-y,z
loop_
_atom_site_type_symbol
_atom_site_label
_atom_site_fract_x
_atom_site_fract_y
_atom_site_fract_z
Si Si1 0.169312 0.575220 0.213423
Si Si2 0.166707 0.340137 0.000000
Si Si3 0.595697 0.307667 0.117481
Si Si4 0.100983 0.841055 0.616288
Si Si5 0.644383 0.815759 0.500000
Si Si6 0.404261 0.928900 0.322656
O O1 0.178089 0.500000 0.197388
O O2 0.250000 0.592581 0.250000
O O3 0.145573 0.618144 0.162672
O O4 0.098095 0.578964 0.258750
O O5 0.126458 0.362837 0.944010
O O6 0.265760 0.349463 0.000000
O O7 0.154742 0.262178 0.000000
O O8 0.500000 0.301686 0.135416
O O9 0.629186 0.234582 0.121887
O O10 0.598958 0.329217 0.055562
O O11 0.636540 0.365894 0.150688
O O12 0.000000 0.844444 0.620810
O O13 0.500000 0.930875 0.341007
O O14 0.367061 0.000000 0.334968
#
# Coordination Sequence:
#
# PCOD9512629 Si02
#       6
#    32  16  32  32  16  32
#     4  10  22  38  56  78 108 144 182 226 280 338
#     4   9  19  33  54  83 112 146 185 228 280 337
#     4   9  18  32  54  82 111 144 185 231 277 331
#     4  10  20  36  58  83 112 146 186 231 280 336
#     4   9  17  31  52  77 114 148 183 224 284 338
#     4   9  18  34  54  75 104 144 184 222 271 332
#
# _framework density 19.357265999999999
#
# number of rings (size 3 to 8) (size 9 to 14) (size 15 to 20)
#    0.000    2.600    0.000    1.200    2.800    4.400 
#    0.000    5.000    0.000    4.800    0.000    0.000 
#    0.000    0.000    0.000    0.000    0.000    0.000 
#
# Total GULP energy -222673.514015 kJ/mol
# GULP energy per Si atom -5566.837850 kJ/mol
# Density = 1.931321 g / cm^3
# Si number density = 19.357266 Si / 1000 Ang^3
#
#
#
# Elastic Constant Matrix: (Units=GPa)
#
#
# Indices 1 2 3 4 5 6 
#
# 1 57.5787 24.5012 23.0429 0.0000 0.0000 0.0000
# 2 24.5012 106.3425 91.9911 0.0000 0.0000 0.0000
# 3 23.0429 91.9911 136.7326 0.0000 0.0000 0.0000
# 4 0.0000 0.0000 0.0000 -37.9583 0.0000 0.0000
# 5 0.0000 0.0000 0.0000 0.0000 31.3345 0.0000
# 6 0.0000 0.0000 0.0000 0.0000 0.0000 12.4075
#
#
#
# Elastic Compliance Matrix: (Units=1/GPa)
#
#
# Indices 1 2 3 4 5 6 
#
# 1 0.019278 -0.003902 -0.000623 0.000000 0.000000 0.000000
# 2 -0.003902 0.023286 -0.015009 0.000000 0.000000 0.000000
# 3 -0.000623 -0.015009 0.017516 0.000000 0.000000 0.000000
# 4 0.000000 0.000000 0.000000 -0.026345 0.000000 0.000000
# 5 0.000000 0.000000 0.000000 0.000000 0.031914 0.000000
# 6 0.000000 0.000000 0.000000 0.000000 0.000000 0.080596
#
#
# Mechanical properties :
#
#
# Convention : Reuss Voigt Hill
#
# Bulk Modulus (GPa) = 47.59435 64.41382 56.00408
# Shear Modulus (GPa) = 25.99874 11.89798 18.94836
#
# Velocity S-wave (km/s) = 3.66881 2.48191 3.13209
# Velocity P-wave (km/s) = 6.52592 6.44684 6.48650
#
# Compressibility (1/GPa) = 0.02101090
#
# Stress axis : x y z
#
# Youngs Moduli (GPa) = 51.87389 42.94462 57.09025
#
# Poissons Ratio (x) = 0.16758 0.03559
# Poissons Ratio (y) = 0.20243 0.85685
# Poissons Ratio (z) = 0.03234 0.64454
#
# Static dielectric constant tensor:
#      x y z
#    x 1.756010 0.000000 0.000000 
#    y 0.000000 1.708780 0.000000 
#    z 0.000000 0.000000 1.655380 
# 
# From -- ./inp_files/30830.got.cif
#   From: 2010.05.17/outbox.cif.g08.bks.cpg/sg69_16_cif.got.tgz:30830.got - 2010.06.03 19:29:58.
