data_PCOD9512779
_publ_section_title
;
Structure prediction by ZEFSAII (Michael W. Deem and Ramdas Pophale) SiO2 
 PCOD9512779
Probable space group: F M M M
;
_chemical_formula_sum "Si O2"
_cell_formula_units_Z 128
_cell_length_a 15.078860
_cell_length_b 14.621602
_cell_length_c 29.335824
_cell_angle_alpha 90.000000
_cell_angle_beta 90.000000
_cell_angle_gamma 90.000000
_cell_volume 6467.877095
_symmetry_space_group_name_H-M "F M M M"
_symmetry_group_IT_number 69
_symmetry_cell_setting 'orthorhombic'
loop_
_space_group_symop_operation_xyz
x,y,z
-x,-y,z
x,-y,-z
-x,y,-z
-x,-y,-z
x,y,-z
-x,y,z
x,-y,z
x,1/2+y,1/2+z
-x,1/2-y,1/2+z
x,1/2-y,1/2-z
-x,1/2+y,1/2-z
-x,1/2-y,1/2-z
x,1/2+y,1/2-z
-x,1/2+y,1/2+z
x,1/2-y,1/2+z
1/2+x,y,1/2+z
1/2-x,-y,1/2+z
1/2+x,-y,1/2-z
1/2-x,y,1/2-z
1/2-x,-y,1/2-z
1/2+x,y,1/2-z
1/2-x,y,1/2+z
1/2+x,-y,1/2+z
1/2+x,1/2+y,z
1/2-x,1/2-y,z
1/2+x,1/2-y,-z
1/2-x,1/2+y,-z
1/2-x,1/2-y,-z
1/2+x,1/2+y,-z
1/2-x,1/2+y,z
1/2+x,1/2-y,z
loop_
_atom_site_type_symbol
_atom_site_label
_atom_site_fract_x
_atom_site_fract_y
_atom_site_fract_z
Si Si1 0.316661 0.899491 0.594840
Si Si2 0.000000 0.714259 0.198344
Si Si3 0.000000 0.905001 0.148107
Si Si4 0.635512 0.108044 0.137815
Si Si5 0.397960 0.232062 0.050521
O O1 0.411567 0.906023 0.618508
O O2 0.241983 0.881650 0.633293
O O3 0.330460 0.815003 0.561012
O O4 0.295527 0.000000 0.574422
O O5 0.000000 0.750000 0.250000
O O6 0.085030 0.657027 0.179561
O O7 0.000000 0.809799 0.172576
O O8 0.000000 0.000000 0.176344
O O9 0.606845 0.157991 0.090854
O O10 0.614884 0.000000 0.138025
O O11 0.500000 0.267035 0.050816
O O12 0.381323 0.194025 0.000000
#
# Coordination Sequence:
#
# PCOD9512779 Si02
#       5
#    32  16  16  32  32
#     4  10  20  37  64  91 125 171 215 265 325 380
#     4  12  25  43  68  93 121 166 211 265 334 400
#     4  10  20  39  62  89 121 157 205 259 318 380
#     4  11  23  41  65  93 129 170 215 270 330 389
#     4  11  22  37  62  95 133 178 226 269 320 386
#
# _framework density 19.790111
#
# number of rings (size 3 to 8) (size 9 to 14) (size 15 to 20)
#    0.000    1.250    5.000    1.125    0.000    4.000 
#    0.000    7.500    0.000    4.500    0.000    0.000 
#    0.000    0.000    0.000    0.000    0.000    0.000 
#
# Total GULP energy -178291.947854 kJ/mol
# GULP energy per Si atom -5571.623370 kJ/mol
# Density = 1.974507 g / cm^3
# Si number density = 19.790111 Si / 1000 Ang^3
#
#
#
# Elastic Constant Matrix: (Units=GPa)
#
#
# Indices 1 2 3 4 5 6 
#
# 1 130.1885 28.2901 37.4032 0.0000 0.0000 0.0000
# 2 28.2901 136.3767 57.0807 0.0000 0.0000 0.0000
# 3 37.4032 57.0807 113.9936 0.0000 0.0000 0.0000
# 4 0.0000 0.0000 0.0000 1.9087 0.0000 0.0000
# 5 0.0000 0.0000 0.0000 0.0000 12.1708 0.0000
# 6 0.0000 0.0000 0.0000 0.0000 0.0000 33.3055
#
#
#
# Elastic Compliance Matrix: (Units=1/GPa)
#
#
# Indices 1 2 3 4 5 6 
#
# 1 0.008542 -0.000758 -0.002423 0.000000 0.000000 0.000000
# 2 -0.000758 0.009344 -0.004430 0.000000 0.000000 0.000000
# 3 -0.002423 -0.004430 0.011786 0.000000 0.000000 0.000000
# 4 0.000000 0.000000 0.000000 0.523908 0.000000 0.000000
# 5 0.000000 0.000000 0.000000 0.000000 0.082164 0.000000
# 6 0.000000 0.000000 0.000000 0.000000 0.000000 0.030025
#
#
# Mechanical properties :
#
#
# Convention : Reuss Voigt Hill
#
# Bulk Modulus (GPa) = 69.20707 69.56744 69.38726
# Shear Modulus (GPa) = 7.29066 26.66266 16.97666
#
# Velocity S-wave (km/s) = 1.92146 3.67450 2.93206
# Velocity P-wave (km/s) = 6.32211 7.29600 6.82644
#
# Compressibility (1/GPa) = 0.01444939
#
# Stress axis : x y z
#
# Youngs Moduli (GPa) = 117.06788 107.01908 84.84631
#
# Poissons Ratio (x) = 0.08108 0.20562
# Poissons Ratio (y) = 0.08870 0.37590
# Poissons Ratio (z) = 0.28370 0.47413
#
# Static dielectric constant tensor:
#      x y z
#    x 1.778440 0.000000 0.000000 
#    y 0.000000 1.793260 0.000000 
#    z 0.000000 0.000000 1.712040 
# 
# From -- ./inp_files/41639.got.cif
#   From: 2010.05.17/outbox.cif.g08.bks.cpg/sg69_21_cif.got.tgz:41639.got - 2010.06.03 19:29:58.
