data_PCOD9512554
_publ_section_title
;
Structure prediction by ZEFSAII (Michael W. Deem and Ramdas Pophale) SiO2 
 PCOD9512554
Probable space group: F M M M
;
_chemical_formula_sum "Si O2"
_cell_formula_units_Z 160
_cell_length_a 30.534369
_cell_length_b 16.446086
_cell_length_c 16.440035
_cell_angle_alpha 90.000000
_cell_angle_beta 90.000000
_cell_angle_gamma 90.000000
_cell_volume 8255.706490
_symmetry_space_group_name_H-M "F M M M"
_symmetry_group_IT_number 69
_symmetry_cell_setting 'orthorhombic'
loop_
_space_group_symop_operation_xyz
x,y,z
-x,-y,z
x,-y,-z
-x,y,-z
-x,-y,-z
x,y,-z
-x,y,z
x,-y,z
x,1/2+y,1/2+z
-x,1/2-y,1/2+z
x,1/2-y,1/2-z
-x,1/2+y,1/2-z
-x,1/2-y,1/2-z
x,1/2+y,1/2-z
-x,1/2+y,1/2+z
x,1/2-y,1/2+z
1/2+x,y,1/2+z
1/2-x,-y,1/2+z
1/2+x,-y,1/2-z
1/2-x,y,1/2-z
1/2-x,-y,1/2-z
1/2+x,y,1/2-z
1/2-x,y,1/2+z
1/2+x,-y,1/2+z
1/2+x,1/2+y,z
1/2-x,1/2-y,z
1/2+x,1/2-y,-z
1/2-x,1/2+y,-z
1/2-x,1/2-y,-z
1/2+x,1/2+y,-z
1/2-x,1/2+y,z
1/2+x,1/2-y,z
loop_
_atom_site_type_symbol
_atom_site_label
_atom_site_fract_x
_atom_site_fract_y
_atom_site_fract_z
Si Si1 0.548235 0.903109 0.743106
Si Si2 0.261201 0.000000 0.096279
Si Si3 0.417307 0.345636 0.593102
Si Si4 0.376061 0.696902 0.168357
Si Si5 0.142790 0.000000 0.597120
Si Si6 0.772549 0.168699 0.839472
O O1 0.500000 0.886308 0.706983
O O2 0.550290 0.857472 0.830786
O O3 0.588431 0.873176 0.687084
O O4 0.551607 0.000000 0.756905
O O5 0.309592 0.000000 0.135815
O O6 0.238732 0.083550 0.120149
O O7 0.265056 0.000000 0.000000
O O8 0.433096 0.358844 0.500000
O O9 0.394108 0.258316 0.600075
O O10 0.382634 0.417128 0.614460
O O11 0.377042 0.750000 0.250000
O O12 0.325151 0.675334 0.158684
O O13 0.146956 0.000000 0.500000
O O14 0.750000 0.164769 0.750000
O O15 0.750000 0.250000 0.877169
#
# Coordination Sequence:
#
# PCOD9512554 Si02
#       6
#    32  16  32  32  16  32
#     4  10  22  38  60  87 115 149 192 240 291 344
#     4  11  25  37  55  85 120 160 196 240 301 357
#     4  10  20  35  59  86 115 149 186 234 292 347
#     4  10  21  37  59  84 117 155 193 236 287 340
#     4   9  18  33  52  80 114 148 181 225 289 348
#     4  11  22  38  60  87 117 154 202 248 288 340
#
# _framework density 19.380534000000001
#
# number of rings (size 3 to 8) (size 9 to 14) (size 15 to 20)
#    0.000    1.800    3.000    1.500    4.200    5.200 
#    0.000    1.000    0.000    0.000    0.000    1.400 
#    0.000    0.000    0.000    0.000    0.000    0.000 
#
# Total GULP energy -222848.233442 kJ/mol
# GULP energy per Si atom -5571.205836 kJ/mol
# Density = 1.933642 g / cm^3
# Si number density = 19.380534 Si / 1000 Ang^3
#
#
#
# Elastic Constant Matrix: (Units=GPa)
#
#
# Indices 1 2 3 4 5 6 
#
# 1 157.9666 59.6386 17.2246 0.0000 0.0000 0.0000
# 2 59.6386 106.3814 32.3100 0.0000 0.0000 0.0000
# 3 17.2246 32.3100 35.5583 0.0000 0.0000 0.0000
# 4 0.0000 0.0000 0.0000 -10.7797 0.0000 0.0000
# 5 0.0000 0.0000 0.0000 0.0000 7.8983 0.0000
# 6 0.0000 0.0000 0.0000 0.0000 0.0000 19.6739
#
#
#
# Elastic Compliance Matrix: (Units=1/GPa)
#
#
# Indices 1 2 3 4 5 6 
#
# 1 0.008032 -0.004587 0.000277 0.000000 0.000000 0.000000
# 2 -0.004587 0.015603 -0.011955 0.000000 0.000000 0.000000
# 3 0.000277 -0.011955 0.038852 0.000000 0.000000 0.000000
# 4 0.000000 0.000000 0.000000 -0.092767 0.000000 0.000000
# 5 0.000000 0.000000 0.000000 0.000000 0.126610 0.000000
# 6 0.000000 0.000000 0.000000 0.000000 0.000000 0.050829
#
#
# Mechanical properties :
#
#
# Convention : Reuss Voigt Hill
#
# Bulk Modulus (GPa) = 33.38213 57.58365 45.48289
# Shear Modulus (GPa) = 26.36103 16.07404 21.21753
#
# Velocity S-wave (km/s) = 3.69206 2.88304 3.31234
# Velocity P-wave (km/s) = 5.95290 6.39212 6.17642
#
# Compressibility (1/GPa) = 0.02995615
#
# Stress axis : x y z
#
# Youngs Moduli (GPa) = 124.50184 64.09115 25.73881
#
# Poissons Ratio (x) = 0.29399 -0.00714
# Poissons Ratio (y) = 0.57110 0.30772
# Poissons Ratio (z) = -0.03452 0.76624
#
# Static dielectric constant tensor:
#      x y z
#    x 1.754590 0.000000 0.000000 
#    y 0.000000 1.777410 0.000000 
#    z 0.000000 0.000000 1.699220 
# 
# From -- ./inp_files/27485.got.cif
#   From: 2010.05.17/outbox.cif.g08.bks.cpg/sg69_14_cif.got.tgz:27485.got - 2010.06.03 19:29:58.
