data_PCOD9512165
_publ_section_title
;
Structure prediction by ZEFSAII (Michael W. Deem and Ramdas Pophale) SiO2 
 PCOD9512165
Probable space group: F M M M
;
_chemical_formula_sum "Si O2"
_cell_formula_units_Z 160
_cell_length_a 17.379317
_cell_length_b 22.338006
_cell_length_c 23.061865
_cell_angle_alpha 90.000000
_cell_angle_beta 90.000000
_cell_angle_gamma 90.000000
_cell_volume 8953.060797
_symmetry_space_group_name_H-M "F M M M"
_symmetry_group_IT_number 69
_symmetry_cell_setting 'orthorhombic'
loop_
_space_group_symop_operation_xyz
x,y,z
-x,-y,z
x,-y,-z
-x,y,-z
-x,-y,-z
x,y,-z
-x,y,z
x,-y,z
x,1/2+y,1/2+z
-x,1/2-y,1/2+z
x,1/2-y,1/2-z
-x,1/2+y,1/2-z
-x,1/2-y,1/2-z
x,1/2+y,1/2-z
-x,1/2+y,1/2+z
x,1/2-y,1/2+z
1/2+x,y,1/2+z
1/2-x,-y,1/2+z
1/2+x,-y,1/2-z
1/2-x,y,1/2-z
1/2-x,-y,1/2-z
1/2+x,y,1/2-z
1/2-x,y,1/2+z
1/2+x,-y,1/2+z
1/2+x,1/2+y,z
1/2-x,1/2-y,z
1/2+x,1/2-y,-z
1/2-x,1/2+y,-z
1/2-x,1/2-y,-z
1/2+x,1/2+y,-z
1/2-x,1/2+y,z
1/2+x,1/2-y,z
loop_
_atom_site_type_symbol
_atom_site_label
_atom_site_fract_x
_atom_site_fract_y
_atom_site_fract_z
Si Si1 0.590880 0.707220 0.932605
Si Si2 0.247931 0.500000 0.321724
Si Si3 0.683951 0.623282 0.865756
Si Si4 0.589323 0.365404 0.248993
Si Si5 0.086008 0.000000 0.299305
Si Si6 0.682625 0.207315 0.155099
O O1 0.500000 0.706767 0.920627
O O2 0.628564 0.642806 0.917688
O O3 0.634016 0.754518 0.890998
O O4 0.602772 0.721837 0.000000
O O5 0.250000 0.500000 0.250000
O O6 0.205376 0.556557 0.348392
O O7 0.338096 0.500000 0.338428
O O8 0.637732 0.645593 0.808778
O O9 0.764935 0.656576 0.874543
O O10 0.500000 0.349298 0.241781
O O11 0.591742 0.436849 0.264321
O O12 0.628709 0.325711 0.298806
O O13 0.000000 0.000000 0.325719
O O14 0.750000 0.250000 0.180755
#
# Coordination Sequence:
#
# PCOD9512165 Si02
#       6
#    32  16  32  32  16  32
#     4  10  23  43  60  77 106 146 194 244 289 332
#     4  12  18  36  57  83 120 148 178 216 272 339
#     4  11  21  34  57  85 114 151 185 230 281 340
#     4  11  20  33  52  84 120 148 183 222 278 344
#     4  10  20  32  54  82 117 153 178 215 265 336
#     4  10  21  34  55  81 108 146 187 231 280 333
#
# _framework density 17.870982999999999
#
# number of rings (size 3 to 8) (size 9 to 14) (size 15 to 20)
#    0.000    1.400    4.000    1.800    0.000    9.200 
#    0.000    7.000    0.000    1.200    0.000    0.700 
#    0.000    6.400    0.000    0.000    0.000    0.000 
#
# Total GULP energy -222930.231821 kJ/mol
# GULP energy per Si atom -5573.255796 kJ/mol
# Density = 1.783031 g / cm^3
# Si number density = 17.870983 Si / 1000 Ang^3
#
#
#
# Elastic Constant Matrix: (Units=GPa)
#
#
# Indices 1 2 3 4 5 6 
#
# 1 156.1252 53.6368 56.7593 0.0000 0.0000 0.0000
# 2 53.6368 104.6026 39.0265 0.0000 0.0000 0.0000
# 3 56.7593 39.0265 67.8076 0.0000 0.0000 0.0000
# 4 0.0000 0.0000 0.0000 14.2190 0.0000 0.0000
# 5 0.0000 0.0000 0.0000 0.0000 20.4475 0.0000
# 6 0.0000 0.0000 0.0000 0.0000 0.0000 36.0018
#
#
#
# Elastic Compliance Matrix: (Units=1/GPa)
#
#
# Indices 1 2 3 4 5 6 
#
# 1 0.009684 -0.002472 -0.006683 0.000000 0.000000 0.000000
# 2 -0.002472 0.012805 -0.005301 0.000000 0.000000 0.000000
# 3 -0.006683 -0.005301 0.023393 0.000000 0.000000 0.000000
# 4 0.000000 0.000000 0.000000 0.070328 0.000000 0.000000
# 5 0.000000 0.000000 0.000000 0.000000 0.048906 0.000000
# 6 0.000000 0.000000 0.000000 0.000000 0.000000 0.027776
#
#
# Mechanical properties :
#
#
# Convention : Reuss Voigt Hill
#
# Bulk Modulus (GPa) = 58.92835 69.70896 64.31865
# Shear Modulus (GPa) = 21.98169 26.07452 24.02811
#
# Velocity S-wave (km/s) = 3.51097 3.82389 3.67076
# Velocity P-wave (km/s) = 7.03433 7.65425 7.35083
#
# Compressibility (1/GPa) = 0.01696976
#
# Stress axis : x y z
#
# Youngs Moduli (GPa) = 103.26103 78.09265 42.74814
#
# Poissons Ratio (x) = 0.19306 0.28570
# Poissons Ratio (y) = 0.25528 0.22659
# Poissons Ratio (z) = 0.69014 0.41394
#
# Static dielectric constant tensor:
#      x y z
#    x 1.626440 0.000000 0.000000 
#    y 0.000000 1.675690 0.000000 
#    z 0.000000 0.000000 1.582620 
# 
# From -- ./inp_files/24662.got.cif
#   From: 2010.05.17/outbox.cif.g08.bks.cpg/sg69_13_cif.got.tgz:24662.got - 2010.06.03 19:29:58.
