data_PCOD9512707
_publ_section_title
;
Structure prediction by ZEFSAII (Michael W. Deem and Ramdas Pophale) SiO2 
 PCOD9512707
Probable space group: F M M M
;
_chemical_formula_sum "Si O2"
_cell_formula_units_Z 136
_cell_length_a 22.728871
_cell_length_b 13.780037
_cell_length_c 23.707870
_cell_angle_alpha 90.000000
_cell_angle_beta 90.000000
_cell_angle_gamma 90.000000
_cell_volume 7425.415916
_symmetry_space_group_name_H-M "F M M M"
_symmetry_group_IT_number 69
_symmetry_cell_setting 'orthorhombic'
loop_
_space_group_symop_operation_xyz
x,y,z
-x,-y,z
x,-y,-z
-x,y,-z
-x,-y,-z
x,y,-z
-x,y,z
x,-y,z
x,1/2+y,1/2+z
-x,1/2-y,1/2+z
x,1/2-y,1/2-z
-x,1/2+y,1/2-z
-x,1/2-y,1/2-z
x,1/2+y,1/2-z
-x,1/2+y,1/2+z
x,1/2-y,1/2+z
1/2+x,y,1/2+z
1/2-x,-y,1/2+z
1/2+x,-y,1/2-z
1/2-x,y,1/2-z
1/2-x,-y,1/2-z
1/2+x,y,1/2-z
1/2-x,y,1/2+z
1/2+x,-y,1/2+z
1/2+x,1/2+y,z
1/2-x,1/2-y,z
1/2+x,1/2-y,-z
1/2-x,1/2+y,-z
1/2-x,1/2-y,-z
1/2+x,1/2+y,-z
1/2-x,1/2+y,z
1/2+x,1/2-y,z
loop_
_atom_site_type_symbol
_atom_site_label
_atom_site_fract_x
_atom_site_fract_y
_atom_site_fract_z
Si Si1 0.389339 0.613552 0.000000
Si Si2 0.500000 0.739534 0.500000
Si Si3 0.000000 0.882938 0.383776
Si Si4 0.339004 0.386418 0.878225
Si Si5 0.222856 0.113722 0.687863
Si Si6 0.900348 0.775536 0.686272
O O1 0.350153 0.627448 0.055724
O O2 0.409820 0.500000 0.000000
O O3 0.443152 0.689305 0.000000
O O4 0.500000 0.671286 0.444434
O O5 0.055317 0.843375 0.347887
O O6 0.000000 0.000000 0.389142
O O7 0.345756 0.500000 0.864461
O O8 0.273944 0.359066 0.856397
O O9 0.388186 0.324667 0.846167
O O10 0.250000 0.126308 0.750000
O O11 0.162946 0.172372 0.686347
O O12 0.209709 0.000000 0.679721
O O13 0.918863 0.750000 0.750000
#
# Coordination Sequence:
#
# PCOD9512707 Si02
#       6
#    16   8  16  32  32  32
#     4  10  21  41  67  95 128 160 208 266 314 370
#     4  12  22  46  68  90 114 174 218 256 316 378
#     4  12  28  46  64  88 126 168 216 266 312 374
#     4  10  21  37  62  97 127 158 201 258 314 375
#     4  10  20  36  62  94 129 165 203 248 308 377
#     4  12  23  40  64  93 127 169 208 256 310 377
#
# _framework density 18.315472
#
# number of rings (size 3 to 8) (size 9 to 14) (size 15 to 20)
#    0.000    1.176    4.706    2.118    0.000    0.941 
#    0.000    4.118    0.000    2.824    0.000    0.000 
#    0.000    0.000    0.000    0.000    0.000    0.000 
#
# Total GULP energy -189889.512530 kJ/mol
# GULP energy per Si atom -5584.985663 kJ/mol
# Density = 1.827379 g / cm^3
# Si number density = 18.315472 Si / 1000 Ang^3
#
#
#
# Elastic Constant Matrix: (Units=GPa)
#
#
# Indices 1 2 3 4 5 6 
#
# 1 90.4966 58.2080 50.4379 0.0000 0.0000 0.0000
# 2 58.2080 118.3104 70.3091 0.0000 0.0000 0.0000
# 3 50.4379 70.3091 151.8077 0.0000 0.0000 0.0000
# 4 0.0000 0.0000 0.0000 23.9204 0.0000 0.0000
# 5 0.0000 0.0000 0.0000 0.0000 35.4435 0.0000
# 6 0.0000 0.0000 0.0000 0.0000 0.0000 28.7042
#
#
#
# Elastic Compliance Matrix: (Units=1/GPa)
#
#
# Indices 1 2 3 4 5 6 
#
# 1 0.016785 -0.006822 -0.002417 0.000000 0.000000 0.000000
# 2 -0.006822 0.014435 -0.004419 0.000000 0.000000 0.000000
# 3 -0.002417 -0.004419 0.009437 0.000000 0.000000 0.000000
# 4 0.000000 0.000000 0.000000 0.041805 0.000000 0.000000
# 5 0.000000 0.000000 0.000000 0.000000 0.028214 0.000000
# 6 0.000000 0.000000 0.000000 0.000000 0.000000 0.034838
#
#
# Mechanical properties :
#
#
# Convention : Reuss Voigt Hill
#
# Bulk Modulus (GPa) = 74.95685 79.83608 77.39646
# Shear Modulus (GPa) = 28.20448 29.72427 28.96437
#
# Velocity S-wave (km/s) = 3.92845 4.03290 3.98102
# Velocity P-wave (km/s) = 7.84801 8.08516 7.96746
#
# Compressibility (1/GPa) = 0.01334101
#
# Stress axis : x y z
#
# Youngs Moduli (GPa) = 59.57640 69.27843 105.96541
#
# Poissons Ratio (x) = 0.47259 0.25617
# Poissons Ratio (y) = 0.40640 0.46824
# Poissons Ratio (z) = 0.14402 0.30613
#
# Static dielectric constant tensor:
#      x y z
#    x 1.610850 0.000000 0.000000 
#    y 0.000000 1.649750 0.000000 
#    z 0.000000 0.000000 1.624440 
# 
# From -- ./inp_files/32501.got.cif
#   From: 2010.05.17/outbox.cif.g08.bks.cpg/sg69_17_cif.got.tgz:32501.got - 2010.06.03 19:29:58.
