data_PCOD9512329
_publ_section_title
;
Structure prediction by ZEFSAII (Michael W. Deem and Ramdas Pophale) SiO2 
 PCOD9512329
Probable space group: F M M M
;
_chemical_formula_sum "Si O2"
_cell_formula_units_Z 192
_cell_length_a 26.767077
_cell_length_b 16.809030
_cell_length_c 24.276660
_cell_angle_alpha 90.000000
_cell_angle_beta 90.000000
_cell_angle_gamma 90.000000
_cell_volume 10922.763654
_symmetry_space_group_name_H-M "F M M M"
_symmetry_group_IT_number 69
_symmetry_cell_setting 'orthorhombic'
loop_
_space_group_symop_operation_xyz
x,y,z
-x,-y,z
x,-y,-z
-x,y,-z
-x,-y,-z
x,y,-z
-x,y,z
x,-y,z
x,1/2+y,1/2+z
-x,1/2-y,1/2+z
x,1/2-y,1/2-z
-x,1/2+y,1/2-z
-x,1/2-y,1/2-z
x,1/2+y,1/2-z
-x,1/2+y,1/2+z
x,1/2-y,1/2+z
1/2+x,y,1/2+z
1/2-x,-y,1/2+z
1/2+x,-y,1/2-z
1/2-x,y,1/2-z
1/2-x,-y,1/2-z
1/2+x,y,1/2-z
1/2-x,y,1/2+z
1/2+x,-y,1/2+z
1/2+x,1/2+y,z
1/2-x,1/2-y,z
1/2+x,1/2-y,-z
1/2-x,1/2+y,-z
1/2-x,1/2-y,-z
1/2+x,1/2+y,-z
1/2-x,1/2+y,z
1/2+x,1/2-y,z
loop_
_atom_site_type_symbol
_atom_site_label
_atom_site_fract_x
_atom_site_fract_y
_atom_site_fract_z
Si Si1 0.293730 0.196360 0.093045
Si Si2 0.785214 0.593700 0.802409
Si Si3 0.892375 0.667424 0.218797
Si Si4 0.345052 0.093746 0.000000
Si Si5 0.400715 0.737880 0.886229
Si Si6 0.440891 0.909345 0.679215
Si Si7 0.058617 0.197309 0.500000
O O1 0.250000 0.250000 0.068593
O O2 0.272734 0.150788 0.146484
O O3 0.317063 0.131536 0.052270
O O4 0.341135 0.251490 0.107951
O O5 0.781046 0.500000 0.815999
O O6 0.750000 0.609590 0.750000
O O7 0.842560 0.615853 0.788860
O O8 0.878931 0.750000 0.250000
O O9 0.914412 0.695574 0.160139
O O10 0.929185 0.620624 0.259028
O O11 0.402333 0.124017 0.000000
O O12 0.342499 0.000000 0.000000
O O13 0.414798 0.652727 0.861629
O O14 0.427100 0.754796 0.944341
O O15 0.500000 0.906143 0.669739
O O16 0.423499 0.000000 0.672337
O O17 0.000000 0.177625 0.500000
#
# Coordination Sequence:
#
# PCOD9512329 Si02
#       7
#    32  32  32  16  32  32  16
#     4  10  21  36  58  79 106 145 187 220 266 327
#     4  10  21  32  49  79 111 140 176 223 274 320
#     4   9  19  33  52  75 104 144 184 226 273 329
#     4  10  21  40  60  80 111 141 179 230 276 320
#     4   9  20  36  55  81 109 144 182 231 274 325
#     4  10  20  34  53  78 110 147 184 227 279 329
#     4  10  20  36  61  87 110 142 183 225 273 336
#
# _framework density 17.577969
#
# number of rings (size 3 to 8) (size 9 to 14) (size 15 to 20)
#    0.000    2.333    0.000    1.750    7.000    3.833 
#    0.000    2.083    0.000    1.500    0.000    0.000 
#    0.000    0.000    0.000    0.000    0.000    0.000 
#
# Total GULP energy -267708.547596 kJ/mol
# GULP energy per Si atom -5577.261408 kJ/mol
# Density = 1.753796 g / cm^3
# Si number density = 17.577969 Si / 1000 Ang^3
#
#
#
# Elastic Constant Matrix: (Units=GPa)
#
#
# Indices 1 2 3 4 5 6 
#
# 1 72.7907 66.0092 44.9268 0.0000 0.0000 0.0000
# 2 66.0092 131.2954 56.9494 0.0000 0.0000 0.0000
# 3 44.9268 56.9494 116.7140 0.0000 0.0000 0.0000
# 4 0.0000 0.0000 0.0000 15.7505 0.0000 0.0000
# 5 0.0000 0.0000 0.0000 0.0000 9.1796 0.0000
# 6 0.0000 0.0000 0.0000 0.0000 0.0000 19.4597
#
#
#
# Elastic Compliance Matrix: (Units=1/GPa)
#
#
# Indices 1 2 3 4 5 6 
#
# 1 0.027234 -0.011600 -0.004823 0.000000 0.000000 0.000000
# 2 -0.011600 0.014602 -0.002660 0.000000 0.000000 0.000000
# 3 -0.004823 -0.002660 0.011722 0.000000 0.000000 0.000000
# 4 0.000000 0.000000 0.000000 0.063490 0.000000 0.000000
# 5 0.000000 0.000000 0.000000 0.000000 0.108937 0.000000
# 6 0.000000 0.000000 0.000000 0.000000 0.000000 0.051388
#
#
# Mechanical properties :
#
#
# Convention : Reuss Voigt Hill
#
# Bulk Modulus (GPa) = 64.96565 72.95231 68.95898
# Shear Modulus (GPa) = 15.59231 19.07227 17.33229
#
# Velocity S-wave (km/s) = 2.98155 3.29752 3.14351
# Velocity P-wave (km/s) = 6.99226 7.48935 7.24507
#
# Compressibility (1/GPa) = 0.01539275
#
# Stress axis : x y z
#
# Youngs Moduli (GPa) = 36.71843 68.48362 85.30745
#
# Poissons Ratio (x) = 0.79442 0.41145
# Poissons Ratio (y) = 0.42594 0.22689
# Poissons Ratio (z) = 0.17710 0.18214
#
# Static dielectric constant tensor:
#      x y z
#    x 1.580140 0.000000 0.000000 
#    y 0.000000 1.569650 0.000000 
#    z 0.000000 0.000000 1.620230 
# 
# From -- ./inp_files/43202.got.cif
#   From: 2010.05.17/outbox.cif.g08.bks.cpg/sg69_22_cif.got.tgz:43202.got - 2010.06.03 19:29:58.
