data_PCOD9512949
_publ_section_title
;
Structure prediction by ZEFSAII (Michael W. Deem and Ramdas Pophale) SiO2 
 PCOD9512949
Probable space group: F M M M
;
_chemical_formula_sum "Si O2"
_cell_formula_units_Z 208
_cell_length_a 29.025518
_cell_length_b 19.022835
_cell_length_c 20.765403
_cell_angle_alpha 90.000000
_cell_angle_beta 90.000000
_cell_angle_gamma 90.000000
_cell_volume 11465.568254
_symmetry_space_group_name_H-M "F M M M"
_symmetry_group_IT_number 69
_symmetry_cell_setting 'orthorhombic'
loop_
_space_group_symop_operation_xyz
x,y,z
-x,-y,z
x,-y,-z
-x,y,-z
-x,-y,-z
x,y,-z
-x,y,z
x,-y,z
x,1/2+y,1/2+z
-x,1/2-y,1/2+z
x,1/2-y,1/2-z
-x,1/2+y,1/2-z
-x,1/2-y,1/2-z
x,1/2+y,1/2-z
-x,1/2+y,1/2+z
x,1/2-y,1/2+z
1/2+x,y,1/2+z
1/2-x,-y,1/2+z
1/2+x,-y,1/2-z
1/2-x,y,1/2-z
1/2-x,-y,1/2-z
1/2+x,y,1/2-z
1/2-x,y,1/2+z
1/2+x,-y,1/2+z
1/2+x,1/2+y,z
1/2-x,1/2-y,z
1/2+x,1/2-y,-z
1/2-x,1/2+y,-z
1/2-x,1/2-y,-z
1/2+x,1/2+y,-z
1/2-x,1/2+y,z
1/2+x,1/2-y,z
loop_
_atom_site_type_symbol
_atom_site_label
_atom_site_fract_x
_atom_site_fract_y
_atom_site_fract_z
Si Si1 0.000000 0.915634 0.927929
Si Si2 0.054454 0.210957 0.318623
Si Si3 0.620123 0.775064 0.425080
Si Si4 0.281407 0.082900 0.811142
Si Si5 0.100672 0.581490 0.623680
Si Si6 0.713243 0.187530 0.073089
Si Si7 0.111337 0.579628 0.777069
O O1 0.047507 0.899853 0.892489
O O2 0.000000 0.000000 0.933285
O O3 0.000000 0.885360 0.000000
O O4 0.061319 0.250000 0.250000
O O5 0.080935 0.250674 0.375583
O O6 0.078169 0.135344 0.310183
O O7 0.000000 0.206819 0.330696
O O8 0.606737 0.769235 0.500000
O O9 0.630055 0.857357 0.410006
O O10 0.664099 0.724964 0.414130
O O11 0.250000 0.104019 0.750000
O O12 0.274057 0.129961 0.873920
O O13 0.335200 0.091360 0.793522
O O14 0.272463 0.000000 0.823060
O O15 0.109284 0.500000 0.603311
O O16 0.106952 0.585155 0.700012
O O17 0.750000 0.250000 0.075245
O O18 0.712256 0.158736 0.000000
O O19 0.099167 0.500000 0.795754
#
# Coordination Sequence:
#
# PCOD9512949 Si02
#       7
#    16  32  32  32  32  32  32
#     4   9  18  32  50  75 110 156 200 231 282 361
#     4  11  23  38  58  86 120 160 205 248 298 362
#     4  11  23  39  60  85 119 160 201 249 299 354
#     4  10  22  40  65  94 118 150 198 244 296 361
#     4  10  21  35  54  82 119 155 193 243 294 348
#     4  10  23  42  62  89 121 156 197 239 296 364
#     4  10  21  38  60  87 120 154 196 250 302 353
#
# _framework density 18.141273000000002
#
# number of rings (size 3 to 8) (size 9 to 14) (size 15 to 20)
#    0.000    1.769    3.077    0.462    4.308    2.154 
#    0.000    0.000    0.000    3.231    0.000    1.077 
#    0.000    0.000    0.000    0.000    0.000    0.000 
#
# Total GULP energy -290232.212224 kJ/mol
# GULP energy per Si atom -5581.388697 kJ/mol
# Density = 1.809998 g / cm^3
# Si number density = 18.141273 Si / 1000 Ang^3
#
#
#
# Elastic Constant Matrix: (Units=GPa)
#
#
# Indices 1 2 3 4 5 6 
#
# 1 64.5633 51.1155 50.4792 0.0000 0.0000 0.0000
# 2 51.1155 109.1476 74.4155 0.0000 0.0000 0.0000
# 3 50.4792 74.4155 122.1674 0.0000 0.0000 0.0000
# 4 0.0000 0.0000 0.0000 28.9014 0.0000 0.0000
# 5 0.0000 0.0000 0.0000 0.0000 21.6460 0.0000
# 6 0.0000 0.0000 0.0000 0.0000 0.0000 26.3585
#
#
#
# Elastic Compliance Matrix: (Units=1/GPa)
#
#
# Indices 1 2 3 4 5 6 
#
# 1 0.026878 -0.008578 -0.005881 0.000000 0.000000 0.000000
# 2 -0.008578 0.018407 -0.007668 0.000000 0.000000 0.000000
# 3 -0.005881 -0.007668 0.015286 0.000000 0.000000 0.000000
# 4 0.000000 0.000000 0.000000 0.034600 0.000000 0.000000
# 5 0.000000 0.000000 0.000000 0.000000 0.046198 0.000000
# 6 0.000000 0.000000 0.000000 0.000000 0.000000 0.037938
#
#
# Mechanical properties :
#
#
# Convention : Reuss Voigt Hill
#
# Bulk Modulus (GPa) = 61.28255 71.98872 66.63564
# Shear Modulus (GPa) = 21.83412 23.37240 22.60326
#
# Velocity S-wave (km/s) = 3.47300 3.59326 3.53364
# Velocity P-wave (km/s) = 7.06657 7.54876 7.31164
#
# Compressibility (1/GPa) = 0.01631786
#
# Stress axis : x y z
#
# Youngs Moduli (GPa) = 37.20547 54.32776 65.41903
#
# Poissons Ratio (x) = 0.46601 0.38472
# Poissons Ratio (y) = 0.31914 0.50162
# Poissons Ratio (z) = 0.21880 0.41657
#
# Static dielectric constant tensor:
#      x y z
#    x 1.616390 0.000000 0.000000 
#    y 0.000000 1.635450 0.000000 
#    z 0.000000 0.000000 1.617450 
# 
# From -- ./inp_files/34006.got.cif
#   From: 2010.05.17/outbox.cif.g08.bks.cpg/sg69_18_cif.got.tgz:34006.got - 2010.06.03 19:29:58.
