data_PCOD9512660
_publ_section_title
;
Structure prediction by ZEFSAII (Michael W. Deem and Ramdas Pophale) SiO2 
 PCOD9512660
Probable space group: F M M M
;
_chemical_formula_sum "Si O2"
_cell_formula_units_Z 160
_cell_length_a 20.701370
_cell_length_b 20.595205
_cell_length_c 19.332029
_cell_angle_alpha 90.000000
_cell_angle_beta 90.000000
_cell_angle_gamma 90.000000
_cell_volume 8242.190438
_symmetry_space_group_name_H-M "F M M M"
_symmetry_group_IT_number 69
_symmetry_cell_setting 'orthorhombic'
loop_
_space_group_symop_operation_xyz
x,y,z
-x,-y,z
x,-y,-z
-x,y,-z
-x,-y,-z
x,y,-z
-x,y,z
x,-y,z
x,1/2+y,1/2+z
-x,1/2-y,1/2+z
x,1/2-y,1/2-z
-x,1/2+y,1/2-z
-x,1/2-y,1/2-z
x,1/2+y,1/2-z
-x,1/2+y,1/2+z
x,1/2-y,1/2+z
1/2+x,y,1/2+z
1/2-x,-y,1/2+z
1/2+x,-y,1/2-z
1/2-x,y,1/2-z
1/2-x,-y,1/2-z
1/2+x,y,1/2-z
1/2-x,y,1/2+z
1/2+x,-y,1/2+z
1/2+x,1/2+y,z
1/2-x,1/2-y,z
1/2+x,1/2-y,-z
1/2-x,1/2+y,-z
1/2-x,1/2-y,-z
1/2+x,1/2+y,-z
1/2-x,1/2+y,z
1/2+x,1/2-y,z
loop_
_atom_site_type_symbol
_atom_site_label
_atom_site_fract_x
_atom_site_fract_y
_atom_site_fract_z
Si Si1 0.577823 0.118446 0.819108
Si Si2 0.569220 0.000000 0.582855
Si Si3 0.423579 0.235120 0.078013
Si Si4 0.683409 0.076452 0.709575
Si Si5 0.577915 0.500000 0.421147
Si Si6 0.349510 0.870498 0.578362
O O1 0.500000 0.114619 0.803523
O O2 0.590166 0.185293 0.860332
O O3 0.623970 0.106990 0.753327
O O4 0.594378 0.062351 0.874952
O O5 0.602511 0.069319 0.594125
O O6 0.500000 0.000000 0.618558
O O7 0.562776 0.000000 0.500000
O O8 0.500000 0.249725 0.080812
O O9 0.384730 0.301867 0.083769
O O10 0.411344 0.207684 0.000000
O O11 0.750000 0.077326 0.750000
O O12 0.698756 0.117549 0.640527
O O13 0.668459 0.000000 0.696775
O O14 0.500000 0.500000 0.426679
O O15 0.603415 0.500000 0.500000
O O16 0.324939 0.877877 0.500000
#
# Coordination Sequence:
#
# PCOD9512660 Si02
#       6
#    32  16  32  32  16  32
#     4  10  20  36  59  88 119 155 198 240 293 356
#     4   9  16  27  49  82 114 142 182 234 280 327
#     4   9  18  34  58  90 128 160 191 242 299 349
#     4  11  24  42  61  84 121 157 194 250 309 354
#     4   9  16  29  53  84 115 149 194 244 286 334
#     4  10  20  37  59  84 113 153 200 239 287 354
#
# _framework density 19.412315
#
# number of rings (size 3 to 8) (size 9 to 14) (size 15 to 20)
#    0.000    2.200    2.000    1.200    0.000    7.200 
#    0.000    6.000    0.000    2.400    0.000    0.000 
#    0.000    0.000    0.000    0.000    0.000    0.000 
#
# Total GULP energy -222803.107249 kJ/mol
# GULP energy per Si atom -5570.077681 kJ/mol
# Density = 1.936813 g / cm^3
# Si number density = 19.412315 Si / 1000 Ang^3
#
#
#
# Elastic Constant Matrix: (Units=GPa)
#
#
# Indices 1 2 3 4 5 6 
#
# 1 31.1768 23.2161 37.6041 0.0000 0.0000 0.0000
# 2 23.2161 85.7009 54.3084 0.0000 0.0000 0.0000
# 3 37.6041 54.3084 139.1637 0.0000 0.0000 0.0000
# 4 0.0000 0.0000 0.0000 25.8677 0.0000 0.0000
# 5 0.0000 0.0000 0.0000 0.0000 19.2081 0.0000
# 6 0.0000 0.0000 0.0000 0.0000 0.0000 8.8402
#
#
#
# Elastic Compliance Matrix: (Units=1/GPa)
#
#
# Indices 1 2 3 4 5 6 
#
# 1 0.050290 -0.006659 -0.010991 0.000000 0.000000 0.000000
# 2 -0.006659 0.016384 -0.004594 0.000000 0.000000 0.000000
# 3 -0.010991 -0.004594 0.011949 0.000000 0.000000 0.000000
# 4 0.000000 0.000000 0.000000 0.038658 0.000000 0.000000
# 5 0.000000 0.000000 0.000000 0.000000 0.052061 0.000000
# 6 0.000000 0.000000 0.000000 0.000000 0.000000 0.113120
#
#
# Mechanical properties :
#
#
# Convention : Reuss Voigt Hill
#
# Bulk Modulus (GPa) = 29.29552 54.03319 41.66435
# Shear Modulus (GPa) = 14.77858 20.17738 17.47798
#
# Velocity S-wave (km/s) = 2.76216 3.22749 3.00385
# Velocity P-wave (km/s) = 5.02958 6.46404 5.79139
#
# Compressibility (1/GPa) = 0.03413491
#
# Stress axis : x y z
#
# Youngs Moduli (GPa) = 19.88467 61.03587 83.69190
#
# Poissons Ratio (x) = 0.40642 0.91982
# Poissons Ratio (y) = 0.13241 0.38452
# Poissons Ratio (z) = 0.21854 0.28043
#
# Static dielectric constant tensor:
#      x y z
#    x 1.736320 0.000000 0.000000 
#    y 0.000000 1.662770 0.000000 
#    z 0.000000 0.000000 1.735710 
# 
# From -- ./inp_files/31768.got.cif
#   From: 2010.05.17/outbox.cif.g08.bks.cpg/sg69_16_cif.got.tgz:31768.got - 2010.06.03 19:29:58.
