data_PCOD9512785
_publ_section_title
;
Structure prediction by ZEFSAII (Michael W. Deem and Ramdas Pophale) SiO2 
 PCOD9512785
Probable space group: F M M M
;
_chemical_formula_sum "Si O2"
_cell_formula_units_Z 128
_cell_length_a 29.022737
_cell_length_b 7.411640
_cell_length_c 30.607555
_cell_angle_alpha 90.000000
_cell_angle_beta 90.000000
_cell_angle_gamma 90.000000
_cell_volume 6583.871127
_symmetry_space_group_name_H-M "F M M M"
_symmetry_group_IT_number 69
_symmetry_cell_setting 'orthorhombic'
loop_
_space_group_symop_operation_xyz
x,y,z
-x,-y,z
x,-y,-z
-x,y,-z
-x,-y,-z
x,y,-z
-x,y,z
x,-y,z
x,1/2+y,1/2+z
-x,1/2-y,1/2+z
x,1/2-y,1/2-z
-x,1/2+y,1/2-z
-x,1/2-y,1/2-z
x,1/2+y,1/2-z
-x,1/2+y,1/2+z
x,1/2-y,1/2+z
1/2+x,y,1/2+z
1/2-x,-y,1/2+z
1/2+x,-y,1/2-z
1/2-x,y,1/2-z
1/2-x,-y,1/2-z
1/2+x,y,1/2-z
1/2-x,y,1/2+z
1/2+x,-y,1/2+z
1/2+x,1/2+y,z
1/2-x,1/2-y,z
1/2+x,1/2-y,-z
1/2-x,1/2+y,-z
1/2-x,1/2-y,-z
1/2+x,1/2+y,-z
1/2-x,1/2+y,z
1/2+x,1/2-y,z
loop_
_atom_site_type_symbol
_atom_site_label
_atom_site_fract_x
_atom_site_fract_y
_atom_site_fract_z
Si Si1 0.948858 0.283394 0.668443
Si Si2 0.051461 0.500000 0.908915
Si Si3 0.148694 0.500000 0.050854
Si Si4 0.648003 0.213918 0.298161
Si Si5 0.804319 0.714267 0.612802
O O1 0.946411 0.500000 0.661527
O O2 0.905137 0.224502 0.697133
O O3 0.000000 0.242665 0.686590
O O4 0.944804 0.173285 0.623302
O O5 0.093849 0.500000 0.941559
O O6 0.000000 0.500000 0.928150
O O7 0.169937 0.672417 0.075749
O O8 0.160213 0.500000 0.000000
O O9 0.666678 0.250000 0.250000
O O10 0.676645 0.278951 0.339903
O O11 0.647192 0.000000 0.302393
O O12 0.812734 0.500000 0.608308
O O13 0.750000 0.750000 0.610552
#
# Coordination Sequence:
#
# PCOD9512785 Si02
#       5
#    32  16  16  32  32
#     4   9  18  34  55  83 121 164 207 255 310 364
#     4  10  20  37  66  91 121 166 206 254 312 369
#     4  12  26  43  70  96 126 167 204 262 326 374
#     4  10  22  35  58  89 122 167 211 254 308 370
#     4  11  24  45  66  91 128 165 208 265 317 372
#
# _framework density 19.441448999999999
#
# number of rings (size 3 to 8) (size 9 to 14) (size 15 to 20)
#    0.000    1.750    3.750    0.000    3.500    2.250 
#    0.000    2.500    0.000    0.000    0.000    5.250 
#    0.000    0.000    0.000    0.000    0.000    0.000 
#
# Total GULP energy -178585.580400 kJ/mol
# GULP energy per Si atom -5580.799388 kJ/mol
# Density = 1.939720 g / cm^3
# Si number density = 19.441449 Si / 1000 Ang^3
#
#
#
# Elastic Constant Matrix: (Units=GPa)
#
#
# Indices 1 2 3 4 5 6 
#
# 1 119.8328 23.9665 63.7627 -0.0001 0.0001 0.0005
# 2 23.9665 95.0539 37.3059 -0.0004 -0.0001 0.0007
# 3 63.7627 37.3059 148.1824 0.0000 0.0000 0.0000
# 4 -0.0001 -0.0004 0.0000 19.2304 -0.0001 0.0001
# 5 0.0001 -0.0001 0.0000 -0.0001 1.0196 0.0001
# 6 0.0005 0.0007 0.0000 0.0001 0.0001 -8.3621
#
#
#
# Elastic Compliance Matrix: (Units=1/GPa)
#
#
# Indices 1 2 3 4 5 6 
#
# 1 0.010909 -0.001008 -0.004441 0.000000 -0.000001 0.000001
# 2 -0.001008 0.011767 -0.002529 0.000000 0.000001 0.000001
# 3 -0.004441 -0.002529 0.009296 0.000000 0.000000 0.000000
# 4 0.000000 0.000000 0.000000 0.052001 0.000006 0.000001
# 5 -0.000001 0.000001 0.000000 0.000006 0.980771 0.000008
# 6 0.000001 0.000001 0.000000 0.000001 0.000008 -0.119587
#
#
# Mechanical properties :
#
#
# Convention : Reuss Voigt Hill
#
# Bulk Modulus (GPa) = 62.43036 68.12656 65.27846
# Shear Modulus (GPa) = 5.17357 18.24650 11.71004
#
# Velocity S-wave (km/s) = 1.63306 3.06688 2.45689
# Velocity P-wave (km/s) = 5.97809 6.90355 6.45742
#
# Compressibility (1/GPa) = 0.01601785
#
# Stress axis : x y z
#
# Youngs Moduli (GPa) = 91.66464 84.98402 107.57522
#
# Poissons Ratio (x) = 0.08565 0.47769
# Poissons Ratio (y) = 0.09238 0.27203
# Poissons Ratio (z) = 0.40704 0.21490
#
# Static dielectric constant tensor:
#      x y z
#    x 1.706630 0.000000 0.000000 
#    y 0.000000 1.723400 0.000000 
#    z 0.000000 0.000000 1.661240 
# 
# From -- ./inp_files/5352.got.cif
#   From: 2010.05.17/outbox.cif.g08.bks.cpg/sg69_3_cif.got.tgz:5352.got - 2010.06.03 19:29:58.
