data_PCOD9512144
_publ_section_title
;
Structure prediction by ZEFSAII (Michael W. Deem and Ramdas Pophale) SiO2 
 PCOD9512144
Probable space group: F M M M
;
_chemical_formula_sum "Si O2"
_cell_formula_units_Z 144
_cell_length_a 8.737901
_cell_length_b 32.901493
_cell_length_c 27.724971
_cell_angle_alpha 90.000000
_cell_angle_beta 90.000000
_cell_angle_gamma 90.000000
_cell_volume 7970.651596
_symmetry_space_group_name_H-M "F M M M"
_symmetry_group_IT_number 69
_symmetry_cell_setting 'orthorhombic'
loop_
_space_group_symop_operation_xyz
x,y,z
-x,-y,z
x,-y,-z
-x,y,-z
-x,-y,-z
x,y,-z
-x,y,z
x,-y,z
x,1/2+y,1/2+z
-x,1/2-y,1/2+z
x,1/2-y,1/2-z
-x,1/2+y,1/2-z
-x,1/2-y,1/2-z
x,1/2+y,1/2-z
-x,1/2+y,1/2+z
x,1/2-y,1/2+z
1/2+x,y,1/2+z
1/2-x,-y,1/2+z
1/2+x,-y,1/2-z
1/2-x,y,1/2-z
1/2-x,-y,1/2-z
1/2+x,y,1/2-z
1/2-x,y,1/2+z
1/2+x,-y,1/2+z
1/2+x,1/2+y,z
1/2-x,1/2-y,z
1/2+x,1/2-y,-z
1/2-x,1/2+y,-z
1/2-x,1/2-y,-z
1/2+x,1/2+y,-z
1/2-x,1/2+y,z
1/2+x,1/2-y,z
loop_
_atom_site_type_symbol
_atom_site_label
_atom_site_fract_x
_atom_site_fract_y
_atom_site_fract_z
Si Si1 0.315477 0.125943 0.053563
Si Si2 0.682855 0.166170 0.699024
Si Si3 0.685023 0.000000 0.803703
Si Si4 0.816954 0.206325 0.901694
Si Si5 0.184961 0.085973 0.652700
O O1 0.500000 0.128616 0.054512
O O2 0.248447 0.170188 0.065592
O O3 0.269739 0.096758 0.097757
O O4 0.268489 0.112700 0.000000
O O5 0.500000 0.164746 0.701895
O O6 0.750000 0.179827 0.750000
O O7 0.726255 0.194368 0.653511
O O8 0.745602 0.121327 0.686036
O O9 0.750000 0.000000 0.750000
O O10 0.732838 0.041303 0.830616
O O11 0.500000 0.000000 0.801721
O O12 0.750000 0.250000 0.914320
O O13 0.000000 0.206843 0.904981
O O14 0.000000 0.088463 0.655954
#
# Coordination Sequence:
#
# PCOD9512144 Si02
#       5
#    32  32  16  32  32
#     4   9  18  34  55  75  97 129 166 204 249 297
#     4  10  20  33  50  72  98 131 168 204 246 295
#     4  10  20  32  49  75 105 135 166 202 243 288
#     4  10  21  35  51  73 100 129 164 206 249 295
#     4   9  18  33  51  73 102 132 165 205 246 291
#
# _framework density 18.066275999999998
#
# number of rings (size 3 to 8) (size 9 to 14) (size 15 to 20)
#    0.000    2.444    0.000    2.000    0.000    6.667 
#    0.000    2.778    0.000    3.333    0.000    0.000 
#    0.000    8.000    0.000    0.000    0.000    0.000 
#
# Total GULP energy -200897.682133 kJ/mol
# GULP energy per Si atom -5580.491170 kJ/mol
# Density = 1.802516 g / cm^3
# Si number density = 18.066276 Si / 1000 Ang^3
#
#
#
# Elastic Constant Matrix: (Units=GPa)
#
#
# Indices 1 2 3 4 5 6 
#
# 1 8.7797 10.6286 15.8831 0.0000 0.0000 0.0000
# 2 10.6286 98.0628 26.5431 0.0000 0.0000 0.0000
# 3 15.8831 26.5431 104.0782 0.0000 0.0000 0.0000
# 4 0.0000 0.0000 0.0000 6.1306 0.0000 0.0000
# 5 0.0000 0.0000 0.0000 0.0000 20.8058 0.0000
# 6 0.0000 0.0000 0.0000 0.0000 0.0000 19.6820
#
#
#
# Elastic Compliance Matrix: (Units=1/GPa)
#
#
# Indices 1 2 3 4 5 6 
#
# 1 0.170014 -0.012250 -0.022821 0.000000 0.000000 0.000000
# 2 -0.012250 0.011836 -0.001149 0.000000 0.000000 0.000000
# 3 -0.022821 -0.001149 0.013384 0.000000 0.000000 0.000000
# 4 0.000000 0.000000 0.000000 0.163116 0.000000 0.000000
# 5 0.000000 0.000000 0.000000 0.000000 0.048064 0.000000
# 6 0.000000 0.000000 0.000000 0.000000 0.000000 0.050808
#
#
# Mechanical properties :
#
#
# Convention : Reuss Voigt Hill
#
# Bulk Modulus (GPa) = 8.14374 35.22557 21.68466
# Shear Modulus (GPa) = 8.76280 19.84807 14.30543
#
# Velocity S-wave (km/s) = 2.20474 3.31815 2.81700
# Velocity P-wave (km/s) = 3.31643 5.84982 4.75495
#
# Compressibility (1/GPa) = 0.12279365
#
# Stress axis : x y z
#
# Youngs Moduli (GPa) = 5.88186 84.48579 74.71634
#
# Poissons Ratio (x) = 1.03494 1.70513
# Poissons Ratio (y) = 0.07205 0.08586
# Poissons Ratio (z) = 0.13423 0.09709
#
# Static dielectric constant tensor:
#      x y z
#    x 1.606230 0.000000 0.000000 
#    y 0.000000 1.589780 0.000000 
#    z 0.000000 0.000000 1.630680 
# 
# From -- ./inp_files/5533.got.cif
#   From: 2010.05.17/outbox.cif.g08.bks.cpg/sg69_3_cif.got.tgz:5533.got - 2010.06.03 19:29:58.
