data_PCOD9512242
_publ_section_title
;
Structure prediction by ZEFSAII (Michael W. Deem and Ramdas Pophale) SiO2 
 PCOD9512242
Probable space group: F M M M
;
_chemical_formula_sum "Si O2"
_cell_formula_units_Z 208
_cell_length_a 18.872407
_cell_length_b 20.811729
_cell_length_c 30.146220
_cell_angle_alpha 90.000000
_cell_angle_beta 90.000000
_cell_angle_gamma 90.000000
_cell_volume 11840.453054
_symmetry_space_group_name_H-M "F M M M"
_symmetry_group_IT_number 69
_symmetry_cell_setting 'orthorhombic'
loop_
_space_group_symop_operation_xyz
x,y,z
-x,-y,z
x,-y,-z
-x,y,-z
-x,-y,-z
x,y,-z
-x,y,z
x,-y,z
x,1/2+y,1/2+z
-x,1/2-y,1/2+z
x,1/2-y,1/2-z
-x,1/2+y,1/2-z
-x,1/2-y,1/2-z
x,1/2+y,1/2-z
-x,1/2+y,1/2+z
x,1/2-y,1/2+z
1/2+x,y,1/2+z
1/2-x,-y,1/2+z
1/2+x,-y,1/2-z
1/2-x,y,1/2-z
1/2-x,-y,1/2-z
1/2+x,y,1/2-z
1/2-x,y,1/2+z
1/2+x,-y,1/2+z
1/2+x,1/2+y,z
1/2-x,1/2-y,z
1/2+x,1/2-y,-z
1/2-x,1/2+y,-z
1/2-x,1/2-y,-z
1/2+x,1/2+y,-z
1/2-x,1/2+y,z
1/2+x,1/2-y,z
loop_
_atom_site_type_symbol
_atom_site_label
_atom_site_fract_x
_atom_site_fract_y
_atom_site_fract_z
Si Si1 0.413759 0.427253 0.221502
Si Si2 0.086337 0.309850 0.219210
Si Si3 0.341675 0.132027 0.947239
Si Si4 0.916530 0.621679 0.623586
Si Si5 0.584169 0.224700 0.880090
Si Si6 0.918786 0.000000 0.553836
Si Si7 0.809781 0.574692 0.449249
O O1 0.500000 0.427456 0.222787
O O2 0.389392 0.500000 0.228849
O O3 0.389935 0.375853 0.258014
O O4 0.394765 0.402699 0.172370
O O5 0.108774 0.250000 0.250000
O O6 0.107278 0.300857 0.168290
O O7 0.000000 0.308903 0.219425
O O8 0.372321 0.189897 0.918529
O O9 0.380632 0.065880 0.932886
O O10 0.258373 0.119206 0.941071
O O11 0.354426 0.141376 0.000000
O O12 0.907755 0.698470 0.620474
O O13 0.870498 0.588732 0.585793
O O14 0.000000 0.607107 0.618258
O O15 0.500000 0.210999 0.885831
O O16 0.917729 0.000000 0.500000
O O17 0.000000 0.000000 0.568868
O O18 0.833856 0.585423 0.500000
O O19 0.786987 0.500000 0.446366
#
# Coordination Sequence:
#
# PCOD9512242 Si02
#       7
#    32  32  32  32  32  16  32
#     4   9  16  28  49  77 107 139 179 223 268 325
#     4   9  15  29  51  75 109 146 175 218 277 328
#     4  10  20  36  55  76 106 145 185 223 272 334
#     4  10  20  34  54  81 110 142 182 227 276 326
#     4  10  20  33  53  83 114 144 181 226 275 326
#     4   9  16  30  54  78 101 136 179 223 270 319
#     4  10  21  38  57  76 105 145 186 228 275 330
#
# _framework density 17.566894999999999
#
# number of rings (size 3 to 8) (size 9 to 14) (size 15 to 20)
#    0.000    2.385    2.308    0.923    0.000    3.385 
#    1.385    3.846    0.000    0.923    0.000    2.154 
#    0.000    0.000    0.000    0.000    0.000    0.000 
#
# Total GULP energy -290008.851344 kJ/mol
# GULP energy per Si atom -5577.093295 kJ/mol
# Density = 1.752691 g / cm^3
# Si number density = 17.566895 Si / 1000 Ang^3
#
#
#
# Elastic Constant Matrix: (Units=GPa)
#
#
# Indices 1 2 3 4 5 6 
#
# 1 24.6196 16.6637 29.5068 0.0000 0.0000 0.0000
# 2 16.6637 86.9989 39.7449 0.0000 0.0000 0.0000
# 3 29.5068 39.7449 84.6320 0.0000 0.0000 0.0000
# 4 0.0000 0.0000 0.0000 35.0239 0.0000 0.0000
# 5 0.0000 0.0000 0.0000 0.0000 7.2808 0.0000
# 6 0.0000 0.0000 0.0000 0.0000 0.0000 21.7900
#
#
#
# Elastic Compliance Matrix: (Units=1/GPa)
#
#
# Indices 1 2 3 4 5 6 
#
# 1 0.070339 -0.002889 -0.023167 0.000000 0.000000 0.000000
# 2 -0.002889 0.014753 -0.005921 0.000000 0.000000 0.000000
# 3 -0.023167 -0.005921 0.022674 0.000000 0.000000 0.000000
# 4 0.000000 0.000000 0.000000 0.028552 0.000000 0.000000
# 5 0.000000 0.000000 0.000000 0.000000 0.137347 0.000000
# 6 0.000000 0.000000 0.000000 0.000000 0.000000 0.045893
#
#
# Mechanical properties :
#
#
# Convention : Reuss Voigt Hill
#
# Bulk Modulus (GPa) = 22.82489 40.89790 31.86140
# Shear Modulus (GPa) = 12.55919 20.17461 16.36690
#
# Velocity S-wave (km/s) = 2.67673 3.39255 3.05567
# Velocity P-wave (km/s) = 4.75126 6.21913 5.53408
#
# Compressibility (1/GPa) = 0.04381182
#
# Stress axis : x y z
#
# Youngs Moduli (GPa) = 14.21679 67.78426 44.10432
#
# Poissons Ratio (x) = 0.19584 1.02176
# Poissons Ratio (y) = 0.04107 0.26114
# Poissons Ratio (z) = 0.32936 0.40134
#
# Static dielectric constant tensor:
#      x y z
#    x 1.580760 0.000000 0.000000 
#    y 0.000000 1.599410 0.000000 
#    z 0.000000 0.000000 1.575390 
# 
# From -- ./inp_files/46505.got.cif
#   From: 2010.05.17/outbox.cif.g08.bks.cpg/sg69_24_cif.got.tgz:46505.got - 2010.06.03 19:29:58.
