data_PCOD9512625
_publ_section_title
;
Structure prediction by ZEFSAII (Michael W. Deem and Ramdas Pophale) SiO2 
 PCOD9512625
Probable space group: F M M M
;
_chemical_formula_sum "Si O2"
_cell_formula_units_Z 160
_cell_length_a 27.746927
_cell_length_b 15.487126
_cell_length_c 19.257481
_cell_angle_alpha 90.000000
_cell_angle_beta 90.000000
_cell_angle_gamma 90.000000
_cell_volume 8275.327712
_symmetry_space_group_name_H-M "F M M M"
_symmetry_group_IT_number 69
_symmetry_cell_setting 'orthorhombic'
loop_
_space_group_symop_operation_xyz
x,y,z
-x,-y,z
x,-y,-z
-x,y,-z
-x,-y,-z
x,y,-z
-x,y,z
x,-y,z
x,1/2+y,1/2+z
-x,1/2-y,1/2+z
x,1/2-y,1/2-z
-x,1/2+y,1/2-z
-x,1/2-y,1/2-z
x,1/2+y,1/2-z
-x,1/2+y,1/2+z
x,1/2-y,1/2+z
1/2+x,y,1/2+z
1/2-x,-y,1/2+z
1/2+x,-y,1/2-z
1/2-x,y,1/2-z
1/2-x,-y,1/2-z
1/2+x,y,1/2-z
1/2-x,y,1/2+z
1/2+x,-y,1/2+z
1/2+x,1/2+y,z
1/2-x,1/2-y,z
1/2+x,1/2-y,-z
1/2-x,1/2+y,-z
1/2-x,1/2-y,-z
1/2+x,1/2+y,-z
1/2-x,1/2+y,z
1/2+x,1/2-y,z
loop_
_atom_site_type_symbol
_atom_site_label
_atom_site_fract_x
_atom_site_fract_y
_atom_site_fract_z
Si Si1 0.726674 0.500000 0.577655
Si Si2 0.805674 0.000000 0.273370
Si Si3 0.212434 0.676355 0.580231
Si Si4 0.556398 0.604636 0.727553
Si Si5 0.645206 0.666489 0.205655
Si Si6 0.558255 0.396735 0.425262
O O1 0.704627 0.500000 0.500000
O O2 0.691336 0.500000 0.643100
O O3 0.759999 0.415212 0.583878
O O4 0.750000 0.000000 0.250000
O O5 0.830073 0.915939 0.241576
O O6 0.200289 0.693523 0.500000
O O7 0.250000 0.750000 0.603653
O O8 0.166347 0.674987 0.629184
O O9 0.500000 0.624910 0.733555
O O10 0.560838 0.500000 0.730847
O O11 0.588574 0.648673 0.785908
O O12 0.574974 0.633787 0.650679
O O13 0.658383 0.750000 0.250000
O O14 0.576436 0.362311 0.500000
O O15 0.500000 0.385863 0.424737
O O16 0.566497 0.500000 0.425751
#
# Coordination Sequence:
#
# PCOD9512625 Si02
#       6
#    16  16  32  32  32  32
#     4  10  20  36  58  82 112 156 189 228 291 347
#     4  12  22  38  59  86 121 148 192 247 288 353
#     4  10  21  38  59  85 117 153 193 238 289 354
#     4   9  18  35  55  79 115 154 198 248 292 343
#     4  12  24  36  60  90 116 155 197 238 300 354
#     4   7  10  20  43  72 101 140 185 226 277 339
#
# _framework density 19.334582000000001
#
# number of rings (size 3 to 8) (size 9 to 14) (size 15 to 20)
#    0.000    2.200    3.000    3.000    0.000    0.400 
#    0.000    2.000    0.000    0.600    0.000    1.400 
#    0.000    0.000    0.000    0.000    0.000    0.000 
#
# Total GULP energy -223214.900994 kJ/mol
# GULP energy per Si atom -5580.372525 kJ/mol
# Density = 1.929058 g / cm^3
# Si number density = 19.334582 Si / 1000 Ang^3
#
#
#
# Elastic Constant Matrix: (Units=GPa)
#
#
# Indices 1 2 3 4 5 6 
#
# 1 68.3883 24.4916 54.7063 0.0000 0.0000 0.0000
# 2 24.4916 87.1865 11.5136 0.0000 0.0000 0.0000
# 3 54.7063 11.5136 118.4184 0.0000 0.0000 0.0000
# 4 0.0000 0.0000 0.0000 43.2026 0.0000 0.0000
# 5 0.0000 0.0000 0.0000 0.0000 27.0859 0.0000
# 6 0.0000 0.0000 0.0000 0.0000 0.0000 -3.5382
#
#
#
# Elastic Compliance Matrix: (Units=1/GPa)
#
#
# Indices 1 2 3 4 5 6 
#
# 1 0.025744 -0.005735 -0.011335 0.000000 0.000000 0.000000
# 2 -0.005735 0.012896 0.001395 0.000000 0.000000 0.000000
# 3 -0.011335 0.001395 0.013546 0.000000 0.000000 0.000000
# 4 0.000000 0.000000 0.000000 0.023147 0.000000 0.000000
# 5 0.000000 0.000000 0.000000 0.000000 0.036920 0.000000
# 6 0.000000 0.000000 0.000000 0.000000 0.000000 -0.282629
#
#
# Mechanical properties :
#
#
# Convention : Reuss Voigt Hill
#
# Bulk Modulus (GPa) = 47.99322 50.60179 49.29750
# Shear Modulus (GPa) = -37.85514 25.56883 -6.14315
#
# Velocity S-wave (km/s) = -4.42961 3.64048 -1.78443
# Velocity P-wave (km/s) = 1.13385 6.62565 4.61593
#
# Compressibility (1/GPa) = 0.02083628
#
# Stress axis : x y z
#
# Youngs Moduli (GPa) = 38.84442 77.54131 73.82461
#
# Poissons Ratio (x) = 0.44468 0.83683
# Poissons Ratio (y) = 0.22276 -0.10302
# Poissons Ratio (z) = 0.44032 -0.10820
#
# Static dielectric constant tensor:
#      x y z
#    x 1.697270 0.000000 0.000000 
#    y 0.000000 1.669150 0.000000 
#    z 0.000000 0.000000 1.718060 
# 
# From -- ./inp_files/27505.got.cif
#   From: 2010.05.17/outbox.cif.g08.bks.cpg/sg69_14_cif.got.tgz:27505.got - 2010.06.03 19:29:58.
