data_PCOD9512587
_publ_section_title
;
Structure prediction by ZEFSAII (Michael W. Deem and Ramdas Pophale) SiO2 
 PCOD9512587
Probable space group: F M M M
;
_chemical_formula_sum "Si O2"
_cell_formula_units_Z 104
_cell_length_a 13.659490
_cell_length_b 14.171212
_cell_length_c 21.922000
_cell_angle_alpha 90.000000
_cell_angle_beta 90.000000
_cell_angle_gamma 90.000000
_cell_volume 4243.475050
_symmetry_space_group_name_H-M "F M M M"
_symmetry_group_IT_number 69
_symmetry_cell_setting 'orthorhombic'
loop_
_space_group_symop_operation_xyz
x,y,z
-x,-y,z
x,-y,-z
-x,y,-z
-x,-y,-z
x,y,-z
-x,y,z
x,-y,z
x,1/2+y,1/2+z
-x,1/2-y,1/2+z
x,1/2-y,1/2-z
-x,1/2+y,1/2-z
-x,1/2-y,1/2-z
x,1/2+y,1/2-z
-x,1/2+y,1/2+z
x,1/2-y,1/2+z
1/2+x,y,1/2+z
1/2-x,-y,1/2+z
1/2+x,-y,1/2-z
1/2-x,y,1/2-z
1/2-x,-y,1/2-z
1/2+x,y,1/2-z
1/2-x,y,1/2+z
1/2+x,-y,1/2+z
1/2+x,1/2+y,z
1/2-x,1/2-y,z
1/2+x,1/2-y,-z
1/2-x,1/2+y,-z
1/2-x,1/2-y,-z
1/2+x,1/2+y,-z
1/2-x,1/2+y,z
1/2+x,1/2-y,z
loop_
_atom_site_type_symbol
_atom_site_label
_atom_site_fract_x
_atom_site_fract_y
_atom_site_fract_z
Si Si1 0.109511 0.189867 0.427272
Si Si2 0.185425 0.106540 0.111420
Si Si3 0.614188 0.896745 0.752687
Si Si4 0.250000 0.750000 0.750000
O O1 0.108344 0.176413 0.500000
O O2 0.130943 0.301323 0.415463
O O3 0.200619 0.127968 0.403212
O O4 0.000000 0.166081 0.403036
O O5 0.152056 0.105320 0.182786
O O6 0.161563 0.000000 0.088900
O O7 0.500000 0.880543 0.753254
O O8 0.673956 0.815119 0.785100
O O9 0.636141 0.000000 0.777887
#
# Coordination Sequence:
#
# PCOD9512587 Si02
#       4
#    32  32  32   8
#     4  10  21  35  52  79 111 140 179 228 269 311
#     4  10  20  36  56  76 105 144 181 218 264 318
#     4  10  22  38  56  82 112 140 176 221 266 316
#     4  12  20  36  64  84 106 144 176 212 268 328
#
# _framework density 24.508215
#
# number of rings (size 3 to 8) (size 9 to 14) (size 15 to 20)
#    0.000    1.846    0.000    5.538    0.000    4.923 
#    0.000    4.615    0.000    3.692    0.000    0.000 
#    0.000    0.000    0.000    0.000    0.000    0.000 
#
# Total GULP energy -145284.293017 kJ/mol
# GULP energy per Si atom -5587.857424 kJ/mol
# Density = 2.445243 g / cm^3
# Si number density = 24.508215 Si / 1000 Ang^3
#
#
#
# Elastic Constant Matrix: (Units=GPa)
#
#
# Indices 1 2 3 4 5 6 
#
# 1 178.9424 58.9540 5.7767 0.0000 0.0000 0.0000
# 2 58.9540 144.5426 3.7061 0.0000 0.0000 0.0000
# 3 5.7767 3.7061 73.3776 0.0000 0.0000 0.0000
# 4 0.0000 0.0000 0.0000 26.7502 0.0000 0.0000
# 5 0.0000 0.0000 0.0000 0.0000 22.0665 0.0000
# 6 0.0000 0.0000 0.0000 0.0000 0.0000 33.5332
#
#
#
# Elastic Compliance Matrix: (Units=1/GPa)
#
#
# Indices 1 2 3 4 5 6 
#
# 1 0.006466 -0.002628 -0.000376 0.000000 0.000000 0.000000
# 2 -0.002628 0.007995 -0.000197 0.000000 0.000000 0.000000
# 3 -0.000376 -0.000197 0.013668 0.000000 0.000000 0.000000
# 4 0.000000 0.000000 0.000000 0.037383 0.000000 0.000000
# 5 0.000000 0.000000 0.000000 0.000000 0.045318 0.000000
# 6 0.000000 0.000000 0.000000 0.000000 0.000000 0.029821
#
#
# Mechanical properties :
#
#
# Convention : Reuss Voigt Hill
#
# Bulk Modulus (GPa) = 46.02539 59.30402 52.66471
# Shear Modulus (GPa) = 32.40543 38.36504 35.38523
#
# Velocity S-wave (km/s) = 3.64019 3.96080 3.80387
# Velocity P-wave (km/s) = 6.04056 6.72067 6.38967
#
# Compressibility (1/GPa) = 0.02172714
#
# Stress axis : x y z
#
# Youngs Moduli (GPa) = 154.64882 125.07526 73.16518
#
# Poissons Ratio (x) = 0.32866 0.02753
# Poissons Ratio (y) = 0.40637 0.01441
# Poissons Ratio (z) = 0.05820 0.02463
#
# Static dielectric constant tensor:
#      x y z
#    x 1.932250 0.000000 0.000000 
#    y 0.000000 2.034180 0.000000 
#    z 0.000000 0.000000 1.959190 
# 
# From -- ./inp_files/35497.got.cif
#   From: 2010.05.17/outbox.cif.g08.bks.cpg/sg69_18_cif.got.tgz:35497.got - 2010.06.03 19:29:58.
