data_PCOD9512216
_publ_section_title
;
Structure prediction by ZEFSAII (Michael W. Deem and Ramdas Pophale) SiO2 
 PCOD9512216
Probable space group: F M M M
;
_chemical_formula_sum "Si O2"
_cell_formula_units_Z 160
_cell_length_a 27.113292
_cell_length_b 15.621316
_cell_length_c 19.289779
_cell_angle_alpha 90.000000
_cell_angle_beta 90.000000
_cell_angle_gamma 90.000000
_cell_volume 8170.095275
_symmetry_space_group_name_H-M "F M M M"
_symmetry_group_IT_number 69
_symmetry_cell_setting 'orthorhombic'
loop_
_space_group_symop_operation_xyz
x,y,z
-x,-y,z
x,-y,-z
-x,y,-z
-x,-y,-z
x,y,-z
-x,y,z
x,-y,z
x,1/2+y,1/2+z
-x,1/2-y,1/2+z
x,1/2-y,1/2-z
-x,1/2+y,1/2-z
-x,1/2-y,1/2-z
x,1/2+y,1/2-z
-x,1/2+y,1/2+z
x,1/2-y,1/2+z
1/2+x,y,1/2+z
1/2-x,-y,1/2+z
1/2+x,-y,1/2-z
1/2-x,y,1/2-z
1/2-x,-y,1/2-z
1/2+x,y,1/2-z
1/2-x,y,1/2+z
1/2+x,-y,1/2+z
1/2+x,1/2+y,z
1/2-x,1/2-y,z
1/2+x,1/2-y,-z
1/2-x,1/2+y,-z
1/2-x,1/2-y,-z
1/2+x,1/2+y,-z
1/2-x,1/2+y,z
1/2+x,1/2-y,z
loop_
_atom_site_type_symbol
_atom_site_label
_atom_site_fract_x
_atom_site_fract_y
_atom_site_fract_z
Si Si1 0.904656 0.104430 0.833960
Si Si2 0.500000 0.395318 0.080197
Si Si3 0.231064 0.846755 0.323849
Si Si4 0.441360 0.000000 0.082136
Si Si5 0.377422 0.097973 0.816548
Si Si6 0.187838 0.100680 0.922798
O O1 0.903432 0.130044 0.753457
O O2 0.854637 0.134262 0.871610
O O3 0.951567 0.133119 0.878221
O O4 0.906482 0.000000 0.834499
O O5 0.500000 0.500000 0.079494
O O6 0.500000 0.368001 0.000000
O O7 0.250000 0.883807 0.250000
O O8 0.250000 0.750000 0.325052
O O9 0.172441 0.851427 0.330506
O O10 0.259366 0.890497 0.387013
O O11 0.415200 0.919193 0.120618
O O12 0.500000 0.000000 0.094638
O O13 0.432394 0.000000 0.000000
O O14 0.359512 0.000000 0.800866
O O15 0.177264 0.000000 0.929035
O O16 0.186087 0.138595 0.000000
#
# Coordination Sequence:
#
# PCOD9512216 Si02
#       6
#    32  16  32  16  32  32
#     4   9  16  27  46  73 103 136 174 217 268 337
#     4   9  16  24  40  70 109 138 168 220 282 340
#     4  11  22  36  53  77 110 152 192 232 280 337
#     4   9  20  36  57  88 118 140 181 243 292 330
#     4   9  19  32  56  81 108 145 189 233 281 334
#     4  10  20  33  52  76 107 141 179 225 283 342
#
# _framework density 19.583615000000002
#
# number of rings (size 3 to 8) (size 9 to 14) (size 15 to 20)
#    0.600    1.800    2.000    1.200    1.400    4.400 
#    0.000    0.000    0.000    0.000    2.600    2.800 
#    0.000    0.000    0.000    0.000    0.000    0.000 
#
# Total GULP energy -222838.312085 kJ/mol
# GULP energy per Si atom -5570.957802 kJ/mol
# Density = 1.953904 g / cm^3
# Si number density = 19.583615 Si / 1000 Ang^3
#
#
#
# Elastic Constant Matrix: (Units=GPa)
#
#
# Indices 1 2 3 4 5 6 
#
# 1 155.9184 10.8318 98.3047 0.0000 0.0000 0.0000
# 2 10.8318 20.1244 7.0696 0.0000 0.0000 0.0000
# 3 98.3047 7.0696 177.0744 0.0000 0.0000 0.0000
# 4 0.0000 0.0000 0.0000 2.6969 0.0000 0.0000
# 5 0.0000 0.0000 0.0000 0.0000 -2.8422 0.0000
# 6 0.0000 0.0000 0.0000 0.0000 0.0000 10.8724
#
#
#
# Elastic Compliance Matrix: (Units=1/GPa)
#
#
# Indices 1 2 3 4 5 6 
#
# 1 0.010107 -0.003518 -0.005471 0.000000 0.000000 0.000000
# 2 -0.003518 0.051622 -0.000108 0.000000 0.000000 0.000000
# 3 -0.005471 -0.000108 0.008689 0.000000 0.000000 0.000000
# 4 0.000000 0.000000 0.000000 0.370801 0.000000 0.000000
# 5 0.000000 0.000000 0.000000 0.000000 -0.351841 0.000000
# 6 0.000000 0.000000 0.000000 0.000000 0.000000 0.091976
#
#
# Mechanical properties :
#
#
# Convention : Reuss Voigt Hill
#
# Bulk Modulus (GPa) = 19.14793 65.05883 42.10338
# Shear Modulus (GPa) = 23.04604 17.93949 20.49276
#
# Velocity S-wave (km/s) = 3.43418 3.02991 3.23836
# Velocity P-wave (km/s) = 5.05208 6.74786 5.96058
#
# Compressibility (1/GPa) = 0.05222496
#
# Stress axis : x y z
#
# Youngs Moduli (GPa) = 98.93928 19.37140 115.09152
#
# Poissons Ratio (x) = 0.06815 0.62963
# Poissons Ratio (y) = 0.34810 0.01241
# Poissons Ratio (z) = 0.54126 0.00209
#
# Static dielectric constant tensor:
#      x y z
#    x 1.676730 0.000000 0.000000 
#    y 0.000000 1.762890 0.000000 
#    z 0.000000 0.000000 1.712390 
# 
# From -- ./inp_files/26872.got.cif
#   From: 2010.05.17/outbox.cif.g08.bks.cpg/sg69_14_cif.got.tgz:26872.got - 2010.06.03 19:29:58.
