data_PCOD9512067
_publ_section_title
;
Structure prediction by ZEFSAII (Michael W. Deem and Ramdas Pophale) SiO2 
 PCOD9512067
Probable space group: F M M M
;
_chemical_formula_sum "Si O2"
_cell_formula_units_Z 136
_cell_length_a 14.248505
_cell_length_b 23.712631
_cell_length_c 20.479276
_cell_angle_alpha 90.000000
_cell_angle_beta 90.000000
_cell_angle_gamma 90.000000
_cell_volume 6919.323590
_symmetry_space_group_name_H-M "F M M M"
_symmetry_group_IT_number 69
_symmetry_cell_setting 'orthorhombic'
loop_
_space_group_symop_operation_xyz
x,y,z
-x,-y,z
x,-y,-z
-x,y,-z
-x,-y,-z
x,y,-z
-x,y,z
x,-y,z
x,1/2+y,1/2+z
-x,1/2-y,1/2+z
x,1/2-y,1/2-z
-x,1/2+y,1/2-z
-x,1/2-y,1/2-z
x,1/2+y,1/2-z
-x,1/2+y,1/2+z
x,1/2-y,1/2+z
1/2+x,y,1/2+z
1/2-x,-y,1/2+z
1/2+x,-y,1/2-z
1/2-x,y,1/2-z
1/2-x,-y,1/2-z
1/2+x,y,1/2-z
1/2-x,y,1/2+z
1/2+x,-y,1/2+z
1/2+x,1/2+y,z
1/2-x,1/2-y,z
1/2+x,1/2-y,-z
1/2-x,1/2+y,-z
1/2-x,1/2-y,-z
1/2+x,1/2+y,-z
1/2-x,1/2+y,z
1/2+x,1/2-y,z
loop_
_atom_site_type_symbol
_atom_site_label
_atom_site_fract_x
_atom_site_fract_y
_atom_site_fract_z
Si Si1 0.728634 0.564493 0.172237
Si Si2 0.396788 0.670472 0.175264
Si Si3 0.361394 0.239358 0.074147
Si Si4 0.108877 0.389418 0.078816
Si Si5 0.250000 0.750000 0.250000
O O1 0.700220 0.500000 0.160133
O O2 0.750000 0.569694 0.250000
O O3 0.648113 0.610325 0.159263
O O4 0.817900 0.578591 0.125659
O O5 0.500000 0.665468 0.206668
O O6 0.404977 0.709110 0.111788
O O7 0.320963 0.707092 0.214861
O O8 0.250000 0.250000 0.076514
O O9 0.382787 0.176594 0.099265
O O10 0.392245 0.239063 0.000000
O O11 0.000000 0.407132 0.086818
O O12 0.130950 0.393563 0.000000
#
# Coordination Sequence:
#
# PCOD9512067 Si02
#       5
#    32  32  32  32   8
#     4  11  25  45  62  85 129 179 223 270 322 379
#     4  12  24  39  64  93 125 166 209 256 310 384
#     4  10  19  36  63  94 128 161 194 250 327 391
#     4  10  21  40  69 102 131 165 217 277 334 389
#     4  12  22  44  60  94 124 156 202 260 316 370
#
# _framework density 19.655100000000001
#
# number of rings (size 3 to 8) (size 9 to 14) (size 15 to 20)
#    0.000    1.176    4.706    1.059    0.000    3.765 
#    0.000    3.529    0.000    0.000    0.000    3.294 
#    0.000    0.000    0.000    0.000    0.000    0.000 
#
# Total GULP energy -189676.768987 kJ/mol
# GULP energy per Si atom -5578.728500 kJ/mol
# Density = 1.961036 g / cm^3
# Si number density = 19.655100 Si / 1000 Ang^3
#
#
#
# Elastic Constant Matrix: (Units=GPa)
#
#
# Indices 1 2 3 4 5 6 
#
# 1 158.5045 55.0575 42.0423 0.0000 0.0000 0.0000
# 2 55.0575 155.4339 46.9629 0.0000 0.0000 0.0000
# 3 42.0423 46.9629 64.0998 0.0000 0.0000 0.0000
# 4 0.0000 0.0000 0.0000 -23.3468 0.0000 0.0000
# 5 0.0000 0.0000 0.0000 0.0000 -27.9983 0.0000
# 6 0.0000 0.0000 0.0000 0.0000 0.0000 234.4587
#
#
#
# Elastic Compliance Matrix: (Units=1/GPa)
#
#
# Indices 1 2 3 4 5 6 
#
# 1 0.007932 -0.001590 -0.004038 0.000000 0.000000 0.000000
# 2 -0.001590 0.008581 -0.005244 0.000000 0.000000 0.000000
# 3 -0.004038 -0.005244 0.022091 0.000000 0.000000 0.000000
# 4 0.000000 0.000000 0.000000 -0.042832 0.000000 0.000000
# 5 0.000000 0.000000 0.000000 0.000000 -0.035716 0.000000
# 6 0.000000 0.000000 0.000000 0.000000 0.000000 0.004265
#
#
# Mechanical properties :
#
#
# Convention : Reuss Voigt Hill
#
# Bulk Modulus (GPa) = 59.30918 74.01816 66.66367
# Shear Modulus (GPa) = -601.36397 52.22108 -274.57144
#
# Velocity S-wave (km/s) = -17.51064 5.16008 -11.83208
# Velocity P-wave (km/s) = 19.45738 8.55816 12.35612
#
# Compressibility (1/GPa) = 0.01686080
#
# Stress axis : x y z
#
# Youngs Moduli (GPa) = 126.06842 116.53306 45.26640
#
# Poissons Ratio (x) = 0.18525 0.18278
# Poissons Ratio (y) = 0.20041 0.23740
# Poissons Ratio (z) = 0.50906 0.61115
#
# Static dielectric constant tensor:
#      x y z
#    x 1.747210 0.000000 0.000000 
#    y 0.000000 1.659520 0.000000 
#    z 0.000000 0.000000 1.776780 
# 
# From -- ./inp_files/29784.got.cif
#   From: 2010.05.17/outbox.cif.g08.bks.cpg/sg69_15_cif.got.tgz:29784.got - 2010.06.03 19:29:58.
