data_PCOD9512603
_publ_section_title
;
Structure prediction by ZEFSAII (Michael W. Deem and Ramdas Pophale) SiO2 
 PCOD9512603
Probable space group: F M M M
;
_chemical_formula_sum "Si O2"
_cell_formula_units_Z 192
_cell_length_a 31.460616
_cell_length_b 18.521849
_cell_length_c 18.316033
_cell_angle_alpha 90.000000
_cell_angle_beta 90.000000
_cell_angle_gamma 90.000000
_cell_volume 10672.913226
_symmetry_space_group_name_H-M "F M M M"
_symmetry_group_IT_number 69
_symmetry_cell_setting 'orthorhombic'
loop_
_space_group_symop_operation_xyz
x,y,z
-x,-y,z
x,-y,-z
-x,y,-z
-x,-y,-z
x,y,-z
-x,y,z
x,-y,z
x,1/2+y,1/2+z
-x,1/2-y,1/2+z
x,1/2-y,1/2-z
-x,1/2+y,1/2-z
-x,1/2-y,1/2-z
x,1/2+y,1/2-z
-x,1/2+y,1/2+z
x,1/2-y,1/2+z
1/2+x,y,1/2+z
1/2-x,-y,1/2+z
1/2+x,-y,1/2-z
1/2-x,y,1/2-z
1/2-x,-y,1/2-z
1/2+x,y,1/2-z
1/2-x,y,1/2+z
1/2+x,-y,1/2+z
1/2+x,1/2+y,z
1/2-x,1/2-y,z
1/2+x,1/2-y,-z
1/2-x,1/2+y,-z
1/2-x,1/2-y,-z
1/2+x,1/2+y,-z
1/2-x,1/2+y,z
1/2+x,1/2-y,z
loop_
_atom_site_type_symbol
_atom_site_label
_atom_site_fract_x
_atom_site_fract_y
_atom_site_fract_z
Si Si1 0.500000 0.336575 0.586495
Si Si2 0.924409 0.083035 0.817576
Si Si3 0.159014 0.914791 0.913795
Si Si4 0.756018 0.332389 0.589052
Si Si5 0.083519 0.916358 0.644836
Si Si6 0.327273 0.416937 0.587899
Si Si7 0.500000 0.802012 0.322566
O O1 0.500000 0.345372 0.500000
O O2 0.541989 0.373752 0.619766
O O3 0.500000 0.253598 0.610791
O O4 0.883233 0.098244 0.866966
O O5 0.913065 0.083735 0.732029
O O6 0.959854 0.144387 0.825919
O O7 0.938879 0.000000 0.834343
O O8 0.199463 0.868153 0.888788
O O9 0.169725 0.000000 0.907396
O O10 0.151199 0.900321 0.000000
O O11 0.756202 0.334496 0.500000
O O12 0.750000 0.250000 0.611701
O O13 0.714669 0.376329 0.613859
O O14 0.127514 0.886078 0.612996
O O15 0.079088 0.000000 0.620065
O O16 0.326803 0.416424 0.500000
O O17 0.325586 0.500000 0.612862
O O18 0.500000 0.750000 0.250000
#
# Coordination Sequence:
#
# PCOD9512603 Si02
#       7
#    16  32  32  32  32  32  16
#     4  12  25  38  57  86 117 151 189 231 281 338
#     4  10  21  39  63  84 108 149 194 232 283 344
#     4   9  18  34  57  83 109 142 191 245 287 330
#     4   9  17  30  49  76 108 144 184 231 288 342
#     4  10  20  36  57  83 113 149 189 231 282 344
#     4   9  17  30  50  75 105 141 181 226 277 333
#     4  12  23  41  59  81 115 154 182 225 281 343
#
# _framework density 17.989466
#
# number of rings (size 3 to 8) (size 9 to 14) (size 15 to 20)
#    0.000    2.167    1.667    1.500    0.000    6.667 
#    0.000    2.500    0.000    7.500    0.000    0.000 
#    0.000    0.000    0.000    0.000    0.000    0.000 
#
# Total GULP energy -267708.096500 kJ/mol
# GULP energy per Si atom -5577.252010 kJ/mol
# Density = 1.794852 g / cm^3
# Si number density = 17.989466 Si / 1000 Ang^3
#
#
#
# Elastic Constant Matrix: (Units=GPa)
#
#
# Indices 1 2 3 4 5 6 
#
# 1 177.6336 100.4417 49.7339 0.0000 0.0000 0.0000
# 2 100.4417 104.5216 31.5735 0.0000 0.0000 0.0000
# 3 49.7339 31.5735 51.5576 0.0000 0.0000 0.0000
# 4 0.0000 0.0000 0.0000 19.7238 0.0000 0.0000
# 5 0.0000 0.0000 0.0000 0.0000 -44.5480 0.0000
# 6 0.0000 0.0000 0.0000 0.0000 0.0000 -4.5600
#
#
#
# Elastic Compliance Matrix: (Units=1/GPa)
#
#
# Indices 1 2 3 4 5 6 
#
# 1 0.013858 -0.011385 -0.006396 0.000000 0.000000 0.000000
# 2 -0.011385 0.021092 -0.001935 0.000000 0.000000 0.000000
# 3 -0.006396 -0.001935 0.026750 0.000000 0.000000 0.000000
# 4 0.000000 0.000000 0.000000 0.050700 0.000000 0.000000
# 5 0.000000 0.000000 0.000000 0.000000 -0.022448 0.000000
# 6 0.000000 0.000000 0.000000 0.000000 0.000000 -0.219300
#
#
# Mechanical properties :
#
#
# Convention : Reuss Voigt Hill
#
# Bulk Modulus (GPa) = 44.90380 77.46788 61.18584
# Shear Modulus (GPa) = -60.60968 4.25408 -28.17780
#
# Velocity S-wave (km/s) = -5.81076 1.53945 -3.96201
# Velocity P-wave (km/s) = 4.47264 6.80561 3.62710
#
# Compressibility (1/GPa) = 0.02226983
#
# Stress axis : x y z
#
# Youngs Moduli (GPa) = 72.16244 47.41090 37.38340
#
# Poissons Ratio (x) = 0.53976 0.23909
# Poissons Ratio (y) = 0.82155 0.07232
# Poissons Ratio (z) = 0.46152 0.09172
#
# Static dielectric constant tensor:
#      x y z
#    x 1.603180 0.000000 0.000000 
#    y 0.000000 1.631950 0.000000 
#    z 0.000000 0.000000 1.602900 
# 
# From -- ./inp_files/27766.got.cif
#   From: 2010.05.17/outbox.cif.g08.bks.cpg/sg69_14_cif.got.tgz:27766.got - 2010.06.03 19:29:58.
