data_PCOD9512452
_publ_section_title
;
Structure prediction by ZEFSAII (Michael W. Deem and Ramdas Pophale) SiO2 
 PCOD9512452
Probable space group: F M M M
;
_chemical_formula_sum "Si O2"
_cell_formula_units_Z 160
_cell_length_a 17.926327
_cell_length_b 22.795767
_cell_length_c 22.471295
_cell_angle_alpha 90.000000
_cell_angle_beta 90.000000
_cell_angle_gamma 90.000000
_cell_volume 9182.768266
_symmetry_space_group_name_H-M "F M M M"
_symmetry_group_IT_number 69
_symmetry_cell_setting 'orthorhombic'
loop_
_space_group_symop_operation_xyz
x,y,z
-x,-y,z
x,-y,-z
-x,y,-z
-x,-y,-z
x,y,-z
-x,y,z
x,-y,z
x,1/2+y,1/2+z
-x,1/2-y,1/2+z
x,1/2-y,1/2-z
-x,1/2+y,1/2-z
-x,1/2-y,1/2-z
x,1/2+y,1/2-z
-x,1/2+y,1/2+z
x,1/2-y,1/2+z
1/2+x,y,1/2+z
1/2-x,-y,1/2+z
1/2+x,-y,1/2-z
1/2-x,y,1/2-z
1/2-x,-y,1/2-z
1/2+x,y,1/2-z
1/2-x,y,1/2+z
1/2+x,-y,1/2+z
1/2+x,1/2+y,z
1/2-x,1/2-y,z
1/2+x,1/2-y,-z
1/2-x,1/2+y,-z
1/2-x,1/2-y,-z
1/2+x,1/2+y,-z
1/2-x,1/2+y,z
1/2+x,1/2-y,z
loop_
_atom_site_type_symbol
_atom_site_label
_atom_site_fract_x
_atom_site_fract_y
_atom_site_fract_z
Si Si1 0.914700 0.253282 0.000000
Si Si2 0.243610 0.839741 0.321168
Si Si3 0.345908 0.932861 0.621669
Si Si4 0.000000 0.202579 0.802023
Si Si5 0.639816 0.245944 0.129857
Si Si6 0.000000 0.567297 0.697092
Si Si7 0.086037 0.113103 0.000000
O O1 0.872659 0.268399 0.939120
O O2 0.919097 0.182912 0.000000
O O3 0.000000 0.276117 0.000000
O O4 0.250000 0.836488 0.250000
O O5 0.277877 0.899995 0.345501
O O6 0.296826 0.793344 0.354845
O O7 0.161928 0.814853 0.337531
O O8 0.422843 0.931327 0.659767
O O9 0.369570 0.905900 0.558548
O O10 0.325139 0.000000 0.612686
O O11 0.000000 0.250000 0.750000
O O12 0.069420 0.219718 0.843494
O O13 0.000000 0.135214 0.778204
O O14 0.000000 0.500000 0.725480
O O15 0.000000 0.089718 0.000000
#
# Coordination Sequence:
#
# PCOD9512452 Si02
#       7
#    16  32  32  16  32  16  16
#     4  11  20  35  57  85 119 144 181 238 295 353
#     4  11  23  39  54  80 118 153 195 237 282 344
#     4  11  22  36  57  83 118 158 192 229 292 354
#     4  12  20  35  61  86 112 159 201 238 281 349
#     4  11  22  36  57  84 114 150 190 237 291 339
#     4  10  20  35  54  87 121 152 192 237 290 350
#     4  11  19  33  55  85 123 146 184 236 288 356
#
# _framework density 17.423939000000001
#
# number of rings (size 3 to 8) (size 9 to 14) (size 15 to 20)
#    0.000    1.000    6.000    2.700    0.000    3.200 
#    0.000    0.000    0.000    0.000    0.000    0.000 
#    0.000    0.800    0.000    0.000    0.000    0.000 
#
# Total GULP energy -222674.366562 kJ/mol
# GULP energy per Si atom -5566.859164 kJ/mol
# Density = 1.738428 g / cm^3
# Si number density = 17.423939 Si / 1000 Ang^3
#
#
#
# Elastic Constant Matrix: (Units=GPa)
#
#
# Indices 1 2 3 4 5 6 
#
# 1 46.4409 26.5620 10.3021 0.0000 0.0000 0.0000
# 2 26.5620 92.1598 32.9383 0.0000 0.0000 0.0000
# 3 10.3021 32.9383 114.0288 0.0000 0.0000 0.0000
# 4 0.0000 0.0000 0.0000 6.7159 0.0000 0.0000
# 5 0.0000 0.0000 0.0000 0.0000 18.8487 0.0000
# 6 0.0000 0.0000 0.0000 0.0000 0.0000 2.5117
#
#
#
# Elastic Compliance Matrix: (Units=1/GPa)
#
#
# Indices 1 2 3 4 5 6 
#
# 1 0.025787 -0.007359 -0.000204 0.000000 0.000000 0.000000
# 2 -0.007359 0.014200 -0.003437 0.000000 0.000000 0.000000
# 3 -0.000204 -0.003437 0.009781 0.000000 0.000000 0.000000
# 4 0.000000 0.000000 0.000000 0.148900 0.000000 0.000000
# 5 0.000000 0.000000 0.000000 0.000000 0.053054 0.000000
# 6 0.000000 0.000000 0.000000 0.000000 0.000000 0.398134
#
#
# Mechanical properties :
#
#
# Convention : Reuss Voigt Hill
#
# Bulk Modulus (GPa) = 36.01305 43.58159 39.79732
# Shear Modulus (GPa) = 7.34093 17.80373 12.57233
#
# Velocity S-wave (km/s) = 2.05482 3.20002 2.68909
# Velocity P-wave (km/s) = 5.13257 6.22257 5.70367
#
# Compressibility (1/GPa) = 0.02776771
#
# Stress axis : x y z
#
# Youngs Moduli (GPa) = 38.77890 70.42150 102.23964
#
# Poissons Ratio (x) = 0.51826 0.02085
# Poissons Ratio (y) = 0.28539 0.35139
# Poissons Ratio (z) = 0.00791 0.24204
#
# Static dielectric constant tensor:
#      x y z
#    x 2.144620 0.000000 0.000000 
#    y 0.000000 1.633400 0.000000 
#    z 0.000000 0.000000 1.615350 
# 
# From -- ./inp_files/31069.got.cif
#   From: 2010.05.17/outbox.cif.g08.bks.cpg/sg69_16_cif.got.tgz:31069.got - 2010.06.03 19:29:58.
