data_PCOD9512562
_publ_section_title
;
Structure prediction by ZEFSAII (Michael W. Deem and Ramdas Pophale) SiO2 
 PCOD9512562
Probable space group: F M M M
;
_chemical_formula_sum "Si O2"
_cell_formula_units_Z 128
_cell_length_a 15.741685
_cell_length_b 19.848654
_cell_length_c 19.001067
_cell_angle_alpha 90.000000
_cell_angle_beta 90.000000
_cell_angle_gamma 90.000000
_cell_volume 5936.907305
_symmetry_space_group_name_H-M "F M M M"
_symmetry_group_IT_number 69
_symmetry_cell_setting 'orthorhombic'
loop_
_space_group_symop_operation_xyz
x,y,z
-x,-y,z
x,-y,-z
-x,y,-z
-x,-y,-z
x,y,-z
-x,y,z
x,-y,z
x,1/2+y,1/2+z
-x,1/2-y,1/2+z
x,1/2-y,1/2-z
-x,1/2+y,1/2-z
-x,1/2-y,1/2-z
x,1/2+y,1/2-z
-x,1/2+y,1/2+z
x,1/2-y,1/2+z
1/2+x,y,1/2+z
1/2-x,-y,1/2+z
1/2+x,-y,1/2-z
1/2-x,y,1/2-z
1/2-x,-y,1/2-z
1/2+x,y,1/2-z
1/2-x,y,1/2+z
1/2+x,-y,1/2+z
1/2+x,1/2+y,z
1/2-x,1/2-y,z
1/2+x,1/2-y,-z
1/2-x,1/2+y,-z
1/2-x,1/2-y,-z
1/2+x,1/2+y,-z
1/2-x,1/2+y,z
1/2+x,1/2-y,z
loop_
_atom_site_type_symbol
_atom_site_label
_atom_site_fract_x
_atom_site_fract_y
_atom_site_fract_z
Si Si1 0.722004 0.169314 0.000000
Si Si2 0.650502 0.073334 0.262575
Si Si3 0.907255 0.655596 0.500000
Si Si4 0.600096 0.845048 0.132664
Si Si5 0.595301 0.798778 0.656958
O O1 0.750000 0.250000 0.000000
O O2 0.664155 0.151660 0.932665
O O3 0.810925 0.127605 0.000000
O O4 0.750000 0.068393 0.250000
O O5 0.609197 0.095521 0.188732
O O6 0.639434 0.134171 0.316973
O O7 0.618019 0.000000 0.286310
O O8 0.908357 0.697946 0.572027
O O9 0.000000 0.618253 0.500000
O O10 0.500000 0.838457 0.112595
O O11 0.627200 0.775871 0.172927
O O12 0.500000 0.804099 0.685526
#
# Coordination Sequence:
#
# PCOD9512562 Si02
#       5
#    16  32  16  32  32
#     4  12  21  35  65  95 125 166 193 267 324 386
#     4  11  25  41  59  86 126 174 222 266 315 381
#     4  10  20  35  59  93 126 157 204 261 321 384
#     4  11  23  39  63  97 129 164 215 268 326 390
#     4  10  20  37  61  90 121 157 206 263 323 387
#
# _framework density 21.560047999999998
#
# number of rings (size 3 to 8) (size 9 to 14) (size 15 to 20)
#    0.000    1.250    2.500    3.375    0.000    5.000 
#    0.000    1.250    0.000    8.250    0.000    0.000 
#    0.000    0.000    0.000    0.000    0.000    0.000 
#
# Total GULP energy -178464.122864 kJ/mol
# GULP energy per Si atom -5577.003839 kJ/mol
# Density = 2.151098 g / cm^3
# Si number density = 21.560048 Si / 1000 Ang^3
#
#
#
# Elastic Constant Matrix: (Units=GPa)
#
#
# Indices 1 2 3 4 5 6 
#
# 1 132.6150 28.3312 32.8977 0.0000 0.0000 0.0000
# 2 28.3312 99.8914 17.9609 0.0000 0.0000 0.0000
# 3 32.8977 17.9609 68.5125 0.0000 0.0000 0.0000
# 4 0.0000 0.0000 0.0000 3.7908 0.0000 0.0000
# 5 0.0000 0.0000 0.0000 0.0000 37.9556 0.0000
# 6 0.0000 0.0000 0.0000 0.0000 0.0000 -16.0933
#
#
#
# Elastic Compliance Matrix: (Units=1/GPa)
#
#
# Indices 1 2 3 4 5 6 
#
# 1 0.008870 -0.001836 -0.003778 0.000000 0.000000 0.000000
# 2 -0.001836 0.010886 -0.001972 0.000000 0.000000 0.000000
# 3 -0.003778 -0.001972 0.016927 0.000000 0.000000 0.000000
# 4 0.000000 0.000000 0.000000 0.263794 0.000000 0.000000
# 5 0.000000 0.000000 0.000000 0.000000 0.026347 0.000000
# 6 0.000000 0.000000 0.000000 0.000000 0.000000 -0.062138
#
#
# Mechanical properties :
#
#
# Convention : Reuss Voigt Hill
#
# Bulk Modulus (GPa) = 46.48856 51.04428 48.76642
# Shear Modulus (GPa) = 17.41982 19.91923 18.66953
#
# Velocity S-wave (km/s) = 2.84556 3.04286 2.94586
# Velocity P-wave (km/s) = 5.69258 6.00601 5.85139
#
# Compressibility (1/GPa) = 0.02151067
#
# Stress axis : x y z
#
# Youngs Moduli (GPa) = 112.73834 91.85836 59.07787
#
# Poissons Ratio (x) = 0.16870 0.22318
# Poissons Ratio (y) = 0.20704 0.11651
# Poissons Ratio (z) = 0.42589 0.18115
#
# Static dielectric constant tensor:
#      x y z
#    x 1.839340 0.000000 0.000000 
#    y 0.000000 1.830310 0.000000 
#    z 0.000000 0.000000 1.816190 
# 
# From -- ./inp_files/29631.got.cif
#   From: 2010.05.17/outbox.cif.g08.bks.cpg/sg69_15_cif.got.tgz:29631.got - 2010.06.03 19:29:58.
