data_PCOD9512405
_publ_section_title
;
Structure prediction by ZEFSAII (Michael W. Deem and Ramdas Pophale) SiO2 
 PCOD9512405
Probable space group: F M M M
;
_chemical_formula_sum "Si O2"
_cell_formula_units_Z 168
_cell_length_a 15.597462
_cell_length_b 16.163924
_cell_length_c 29.261214
_cell_angle_alpha 90.000000
_cell_angle_beta 90.000000
_cell_angle_gamma 90.000000
_cell_volume 7377.225799
_symmetry_space_group_name_H-M "F M M M"
_symmetry_group_IT_number 69
_symmetry_cell_setting 'orthorhombic'
loop_
_space_group_symop_operation_xyz
x,y,z
-x,-y,z
x,-y,-z
-x,y,-z
-x,-y,-z
x,y,-z
-x,y,z
x,-y,z
x,1/2+y,1/2+z
-x,1/2-y,1/2+z
x,1/2-y,1/2-z
-x,1/2+y,1/2-z
-x,1/2-y,1/2-z
x,1/2+y,1/2-z
-x,1/2+y,1/2+z
x,1/2-y,1/2+z
1/2+x,y,1/2+z
1/2-x,-y,1/2+z
1/2+x,-y,1/2-z
1/2-x,y,1/2-z
1/2-x,-y,1/2-z
1/2+x,y,1/2-z
1/2-x,y,1/2+z
1/2+x,-y,1/2+z
1/2+x,1/2+y,z
1/2-x,1/2-y,z
1/2+x,1/2-y,-z
1/2-x,1/2+y,-z
1/2-x,1/2-y,-z
1/2+x,1/2+y,-z
1/2-x,1/2+y,z
1/2+x,1/2-y,z
loop_
_atom_site_type_symbol
_atom_site_label
_atom_site_fract_x
_atom_site_fract_y
_atom_site_fract_z
Si Si1 0.403767 0.401938 0.647286
Si Si2 0.606917 0.500000 0.000000
Si Si3 0.650930 0.346775 0.935545
Si Si4 0.647167 0.160360 0.049039
Si Si5 0.898802 0.597222 0.660845
Si Si6 0.099657 0.652564 0.757880
O O1 0.500000 0.366692 0.648179
O O2 0.404671 0.500000 0.653593
O O3 0.374183 0.383794 0.596244
O O4 0.359576 0.366202 0.692814
O O5 0.608937 0.574285 0.039537
O O6 0.616783 0.255692 0.947775
O O7 0.749625 0.344349 0.951038
O O8 0.645578 0.356590 0.880986
O O9 0.617074 0.125428 0.000000
O O10 0.892821 0.500000 0.651955
O O11 0.863505 0.614253 0.711516
O O12 0.000000 0.621207 0.660329
O O13 0.098173 0.750000 0.750000
O O14 0.000000 0.621349 0.759774
#
# Coordination Sequence:
#
# PCOD9512405 Si02
#       6
#    32   8  32  32  32  32
#     4  10  22  38  59  88 117 150 196 242 285 336
#     4  12  20  38  65  80 117 154 188 238 286 340
#     4  11  22  39  60  87 114 149 195 232 286 346
#     4  11  23  40  60  82 114 155 193 238 286 342
#     4  10  20  34  57  86 115 147 185 230 279 338
#     4   9  17  33  56  81 113 151 185 228 288 341
#
# _framework density 22.772789
#
# number of rings (size 3 to 8) (size 9 to 14) (size 15 to 20)
#    0.000    1.714    2.857    2.286    1.333    5.333 
#    0.000    2.857    0.000    5.714    0.000    0.000 
#    0.000    0.000    0.000    0.000    0.000    0.000 
#
# Total GULP energy -233884.759259 kJ/mol
# GULP energy per Si atom -5568.684744 kJ/mol
# Density = 2.272096 g / cm^3
# Si number density = 22.772789 Si / 1000 Ang^3
#
#
#
# Elastic Constant Matrix: (Units=GPa)
#
#
# Indices 1 2 3 4 5 6 
#
# 1 24.2763 2.6939 18.6059 0.0000 0.0000 0.0000
# 2 2.6939 59.9098 31.1811 0.0000 0.0000 0.0000
# 3 18.6059 31.1811 260.9234 0.0000 0.0000 0.0000
# 4 0.0000 0.0000 0.0000 38.9312 0.0000 0.0000
# 5 0.0000 0.0000 0.0000 0.0000 28.8070 0.0000
# 6 0.0000 0.0000 0.0000 0.0000 0.0000 6.0040
#
#
#
# Elastic Compliance Matrix: (Units=1/GPa)
#
#
# Indices 1 2 3 4 5 6 
#
# 1 0.043581 -0.000365 -0.003064 0.000000 0.000000 0.000000
# 2 -0.000365 0.017802 -0.002101 0.000000 0.000000 0.000000
# 3 -0.003064 -0.002101 0.004302 0.000000 0.000000 0.000000
# 4 0.000000 0.000000 0.000000 0.025686 0.000000 0.000000
# 5 0.000000 0.000000 0.000000 0.000000 0.034714 0.000000
# 6 0.000000 0.000000 0.000000 0.000000 0.000000 0.166554
#
#
# Mechanical properties :
#
#
# Convention : Reuss Voigt Hill
#
# Bulk Modulus (GPa) = 18.30676 50.00792 34.15734
# Shear Modulus (GPa) = 15.53236 34.25703 24.89469
#
# Velocity S-wave (km/s) = 2.61446 3.88273 3.30991
# Velocity P-wave (km/s) = 4.14369 6.48907 5.44418
#
# Compressibility (1/GPa) = 0.05462462
#
# Stress axis : x y z
#
# Youngs Moduli (GPa) = 22.94560 56.17399 232.44174
#
# Poissons Ratio (x) = 0.02050 0.71222
# Poissons Ratio (y) = 0.00837 0.48844
# Poissons Ratio (z) = 0.07031 0.11804
#
# Static dielectric constant tensor:
#      x y z
#    x 1.898810 0.000000 0.000000 
#    y 0.000000 1.822370 0.000000 
#    z 0.000000 0.000000 1.913420 
# 
# From -- ./inp_files/33427.got.cif
#   From: 2010.05.17/outbox.cif.g08.bks.cpg/sg69_17_cif.got.tgz:33427.got - 2010.06.03 19:29:58.
