data_PCOD9512811
_publ_section_title
;
Structure prediction by ZEFSAII (Michael W. Deem and Ramdas Pophale) SiO2 
 PCOD9512811
Probable space group: F M M M
;
_chemical_formula_sum "Si O2"
_cell_formula_units_Z 160
_cell_length_a 22.211555
_cell_length_b 15.191684
_cell_length_c 23.691674
_cell_angle_alpha 90.000000
_cell_angle_beta 90.000000
_cell_angle_gamma 90.000000
_cell_volume 7994.303466
_symmetry_space_group_name_H-M "F M M M"
_symmetry_group_IT_number 69
_symmetry_cell_setting 'orthorhombic'
loop_
_space_group_symop_operation_xyz
x,y,z
-x,-y,z
x,-y,-z
-x,y,-z
-x,-y,-z
x,y,-z
-x,y,z
x,-y,z
x,1/2+y,1/2+z
-x,1/2-y,1/2+z
x,1/2-y,1/2-z
-x,1/2+y,1/2-z
-x,1/2-y,1/2-z
x,1/2+y,1/2-z
-x,1/2+y,1/2+z
x,1/2-y,1/2+z
1/2+x,y,1/2+z
1/2-x,-y,1/2+z
1/2+x,-y,1/2-z
1/2-x,y,1/2-z
1/2-x,-y,1/2-z
1/2+x,y,1/2-z
1/2-x,y,1/2+z
1/2+x,-y,1/2+z
1/2+x,1/2+y,z
1/2-x,1/2-y,z
1/2+x,1/2-y,-z
1/2-x,1/2+y,-z
1/2-x,1/2-y,-z
1/2+x,1/2+y,-z
1/2-x,1/2+y,z
1/2+x,1/2-y,z
loop_
_atom_site_type_symbol
_atom_site_label
_atom_site_fract_x
_atom_site_fract_y
_atom_site_fract_z
Si Si1 0.255905 0.856724 0.062773
Si Si2 0.000000 0.605160 0.065684
Si Si3 0.179865 0.357167 0.755353
Si Si4 0.874784 0.654477 0.875523
Si Si5 0.928774 0.000000 0.936058
Si Si6 0.357880 0.635495 0.134842
O O1 0.250000 0.750000 0.062101
O O2 0.323309 0.878029 0.081462
O O3 0.207326 0.886471 0.108332
O O4 0.242253 0.888714 0.000000
O O5 0.059791 0.632558 0.100243
O O6 0.000000 0.500000 0.062617
O O7 0.000000 0.638586 0.000000
O O8 0.181445 0.250000 0.750000
O O9 0.250000 0.385191 0.750000
O O10 0.146412 0.379360 0.813736
O O11 0.144105 0.388797 0.700427
O O12 0.868820 0.760406 0.871306
O O13 0.905546 0.083762 0.901944
O O14 0.000000 0.000000 0.938239
O O15 0.904982 0.000000 0.000000
#
# Coordination Sequence:
#
# PCOD9512811 Si02
#       6
#    32  16  32  32  16  32
#     4   9  16  29  56  90 117 146 199 257 303 359
#     4  11  26  46  61  85 127 167 210 260 305 363
#     4   9  16  34  63  94 126 154 194 257 311 365
#     4  10  20  38  65  92 120 163 208 249 309 373
#     4  11  26  44  57  82 128 169 206 257 311 371
#     4  10  20  38  62  92 122 157 204 253 311 371
#
# _framework density 20.014251999999999
#
# number of rings (size 3 to 8) (size 9 to 14) (size 15 to 20)
#    0.000    2.200    2.000    1.200    1.400    2.400 
#    5.400    2.000    0.000    0.000    0.000    0.000 
#    0.000    0.000    0.000    0.000    0.000    0.000 
#
# Total GULP energy -223301.368575 kJ/mol
# GULP energy per Si atom -5582.534214 kJ/mol
# Density = 1.996870 g / cm^3
# Si number density = 20.014252 Si / 1000 Ang^3
#
#
#
# Elastic Constant Matrix: (Units=GPa)
#
#
# Indices 1 2 3 4 5 6 
#
# 1 155.1153 15.0155 75.9492 0.0000 0.0000 0.0000
# 2 15.0155 44.7345 25.5117 0.0000 0.0000 0.0000
# 3 75.9492 25.5117 183.3534 0.0000 0.0000 0.0000
# 4 0.0000 0.0000 0.0000 -40.3545 0.0000 0.0000
# 5 0.0000 0.0000 0.0000 0.0000 6.7552 0.0000
# 6 0.0000 0.0000 0.0000 0.0000 0.0000 17.3273
#
#
#
# Elastic Compliance Matrix: (Units=1/GPa)
#
#
# Indices 1 2 3 4 5 6 
#
# 1 0.008119 -0.000877 -0.003241 0.000000 0.000000 0.000000
# 2 -0.000877 0.024375 -0.003028 0.000000 0.000000 0.000000
# 3 -0.003241 -0.003028 0.007218 0.000000 0.000000 0.000000
# 4 0.000000 0.000000 0.000000 -0.024780 0.000000 0.000000
# 5 0.000000 0.000000 0.000000 0.000000 0.148035 0.000000
# 6 0.000000 0.000000 0.000000 0.000000 0.000000 0.057712
#
#
# Mechanical properties :
#
#
# Convention : Reuss Voigt Hill
#
# Bulk Modulus (GPa) = 39.33973 68.46179 53.90076
# Shear Modulus (GPa) = 20.53864 14.52740 17.53302
#
# Velocity S-wave (km/s) = 3.20691 2.69709 2.96299
# Velocity P-wave (km/s) = 5.78022 6.63173 6.22056
#
# Compressibility (1/GPa) = 0.02541959
#
# Stress axis : x y z
#
# Youngs Moduli (GPa) = 123.17507 41.02484 138.54710
#
# Poissons Ratio (x) = 0.03597 0.44901
# Poissons Ratio (y) = 0.10800 0.41958
# Poissons Ratio (z) = 0.39920 0.12424
#
# Static dielectric constant tensor:
#      x y z
#    x 1.665820 0.000000 0.000000 
#    y 0.000000 1.744520 0.000000 
#    z 0.000000 0.000000 1.705260 
# 
# From -- ./inp_files/31763.got.cif
#   From: 2010.05.17/outbox.cif.g08.bks.cpg/sg69_16_cif.got.tgz:31763.got - 2010.06.03 19:29:58.
