data_PCOD9512558
_publ_section_title
;
Structure prediction by ZEFSAII (Michael W. Deem and Ramdas Pophale) SiO2 
 PCOD9512558
Probable space group: F M M M
;
_chemical_formula_sum "Si O2"
_cell_formula_units_Z 176
_cell_length_a 21.523018
_cell_length_b 24.957382
_cell_length_c 16.502792
_cell_angle_alpha 90.000000
_cell_angle_beta 90.000000
_cell_angle_gamma 90.000000
_cell_volume 8864.609749
_symmetry_space_group_name_H-M "F M M M"
_symmetry_group_IT_number 69
_symmetry_cell_setting 'orthorhombic'
loop_
_space_group_symop_operation_xyz
x,y,z
-x,-y,z
x,-y,-z
-x,y,-z
-x,-y,-z
x,y,-z
-x,y,z
x,-y,z
x,1/2+y,1/2+z
-x,1/2-y,1/2+z
x,1/2-y,1/2-z
-x,1/2+y,1/2-z
-x,1/2-y,1/2-z
x,1/2+y,1/2-z
-x,1/2+y,1/2+z
x,1/2-y,1/2+z
1/2+x,y,1/2+z
1/2-x,-y,1/2+z
1/2+x,-y,1/2-z
1/2-x,y,1/2-z
1/2-x,-y,1/2-z
1/2+x,y,1/2-z
1/2-x,y,1/2+z
1/2+x,-y,1/2+z
1/2+x,1/2+y,z
1/2-x,1/2-y,z
1/2+x,1/2-y,-z
1/2-x,1/2+y,-z
1/2-x,1/2-y,-z
1/2+x,1/2+y,-z
1/2-x,1/2+y,z
1/2+x,1/2-y,z
loop_
_atom_site_type_symbol
_atom_site_label
_atom_site_fract_x
_atom_site_fract_y
_atom_site_fract_z
Si Si1 0.925823 0.245269 0.588520
Si Si2 0.750000 0.617698 0.750000
Si Si3 0.070727 0.632415 0.372983
Si Si4 0.619971 0.655717 0.701379
Si Si5 0.807807 0.435986 0.408160
Si Si6 0.074009 0.059626 0.596509
O O1 0.906057 0.224817 0.500000
O O2 0.914553 0.308599 0.592499
O O3 0.895311 0.211483 0.659279
O O4 0.000000 0.237724 0.595273
O O5 0.689786 0.652995 0.732628
O O6 0.766921 0.584293 0.668321
O O7 0.075745 0.641767 0.276651
O O8 0.124039 0.591026 0.398318
O O9 0.000000 0.617516 0.395298
O O10 0.609580 0.607542 0.638397
O O11 0.784709 0.422580 0.500000
O O12 0.812690 0.500000 0.403119
O O13 0.082484 0.061320 0.500000
O O14 0.000000 0.065407 0.611628
O O15 0.092969 0.000000 0.625331
#
# Coordination Sequence:
#
# PCOD9512558 Si02
#       6
#    32  16  32  32  32  32
#     4  10  20  35  59  89 116 142 179 231 291 355
#     4  10  25  42  57  82 118 154 198 254 290 322
#     4  10  21  37  58  87 121 150 181 231 290 344
#     4  11  21  36  56  79 111 154 197 232 280 343
#     4  10  22  41  63  85 113 153 199 243 289 343
#     4   9  18  32  52  83 118 145 179 236 300 357
#
# _framework density 19.854230000000001
#
# number of rings (size 3 to 8) (size 9 to 14) (size 15 to 20)
#    0.000    2.000    0.000    4.091    0.000    9.455 
#    0.000   10.000    0.000    5.455    0.000    0.000 
#    0.000    0.000    0.000    0.000    0.000    0.000 
#
# Total GULP energy -245688.521236 kJ/mol
# GULP energy per Si atom -5583.830028 kJ/mol
# Density = 1.980904 g / cm^3
# Si number density = 19.854230 Si / 1000 Ang^3
#
#
#
# Elastic Constant Matrix: (Units=GPa)
#
#
# Indices 1 2 3 4 5 6 
#
# 1 57.5969 22.6868 28.7311 0.0000 0.0000 0.0000
# 2 22.6868 42.0630 30.8297 0.0000 0.0000 0.0000
# 3 28.7311 30.8297 111.1220 0.0000 0.0000 0.0000
# 4 0.0000 0.0000 0.0000 16.8923 0.0000 0.0000
# 5 0.0000 0.0000 0.0000 0.0000 17.7628 0.0000
# 6 0.0000 0.0000 0.0000 0.0000 0.0000 -10.6722
#
#
#
# Elastic Compliance Matrix: (Units=1/GPa)
#
#
# Indices 1 2 3 4 5 6 
#
# 1 0.022880 -0.010048 -0.003128 0.000000 0.000000 0.000000
# 2 -0.010048 0.034255 -0.006906 0.000000 0.000000 0.000000
# 3 -0.003128 -0.006906 0.011724 0.000000 0.000000 0.000000
# 4 0.000000 0.000000 0.000000 0.059199 0.000000 0.000000
# 5 0.000000 0.000000 0.000000 0.000000 0.056298 0.000000
# 6 0.000000 0.000000 0.000000 0.000000 0.000000 -0.093702
#
#
# Mechanical properties :
#
#
# Convention : Reuss Voigt Hill
#
# Bulk Modulus (GPa) = 34.84873 41.69746 38.27310
# Shear Modulus (GPa) = 35.61723 13.36552 24.49138
#
# Velocity S-wave (km/s) = 4.24008 2.59739 3.51602
# Velocity P-wave (km/s) = 6.44682 5.48112 5.98348
#
# Compressibility (1/GPa) = 0.02869545
#
# Stress axis : x y z
#
# Youngs Moduli (GPa) = 43.70600 29.19313 85.29626
#
# Poissons Ratio (x) = 0.29332 0.26682
# Poissons Ratio (y) = 0.43915 0.58903
# Poissons Ratio (z) = 0.13672 0.20160
#
# Static dielectric constant tensor:
#      x y z
#    x 1.690940 0.000000 0.000000 
#    y 0.000000 1.671930 0.000000 
#    z 0.000000 0.000000 1.759490 
# 
# From -- ./inp_files/17927.got.cif
#   From: 2010.05.17/outbox.cif.g08.bks.cpg/sg69_9_cif.got.tgz:17927.got - 2010.06.03 19:29:58.
