data_PCOD9512065
_publ_section_title
;
Structure prediction by ZEFSAII (Michael W. Deem and Ramdas Pophale) SiO2 
 PCOD9512065
Probable space group: F M M M
;
_chemical_formula_sum "Si O2"
_cell_formula_units_Z 160
_cell_length_a 24.653459
_cell_length_b 28.022679
_cell_length_c 14.519595
_cell_angle_alpha 90.000000
_cell_angle_beta 90.000000
_cell_angle_gamma 90.000000
_cell_volume 10030.948856
_symmetry_space_group_name_H-M "F M M M"
_symmetry_group_IT_number 69
_symmetry_cell_setting 'orthorhombic'
loop_
_space_group_symop_operation_xyz
x,y,z
-x,-y,z
x,-y,-z
-x,y,-z
-x,-y,-z
x,y,-z
-x,y,z
x,-y,z
x,1/2+y,1/2+z
-x,1/2-y,1/2+z
x,1/2-y,1/2-z
-x,1/2+y,1/2-z
-x,1/2-y,1/2-z
x,1/2+y,1/2-z
-x,1/2+y,1/2+z
x,1/2-y,1/2+z
1/2+x,y,1/2+z
1/2-x,-y,1/2+z
1/2+x,-y,1/2-z
1/2-x,y,1/2-z
1/2-x,-y,1/2-z
1/2+x,y,1/2-z
1/2-x,y,1/2+z
1/2+x,-y,1/2+z
1/2+x,1/2+y,z
1/2-x,1/2-y,z
1/2+x,1/2-y,-z
1/2-x,1/2+y,-z
1/2-x,1/2-y,-z
1/2+x,1/2+y,-z
1/2-x,1/2+y,z
1/2+x,1/2-y,z
loop_
_atom_site_type_symbol
_atom_site_label
_atom_site_fract_x
_atom_site_fract_y
_atom_site_fract_z
Si Si1 0.215564 0.176229 0.000000
Si Si2 0.195057 0.624192 0.306692
Si Si3 0.000000 0.885487 0.891094
Si Si4 0.609535 0.443651 0.109943
Si Si5 0.500000 0.307163 0.743545
Si Si6 0.380693 0.301087 0.697230
Si Si7 0.334065 0.776548 0.000000
O O1 0.208957 0.146774 0.093703
O O2 0.274416 0.200463 0.000000
O O3 0.172361 0.219346 0.000000
O O4 0.250000 0.614337 0.250000
O O5 0.157721 0.578771 0.330105
O O6 0.159162 0.662469 0.249583
O O7 0.946086 0.915604 0.868251
O O8 0.000000 0.835146 0.839770
O O9 0.000000 0.877764 0.000000
O O10 0.603046 0.500000 0.124811
O O11 0.620135 0.436439 0.000000
O O12 0.500000 0.250000 0.750000
O O13 0.442548 0.319597 0.698162
O O14 0.378203 0.250000 0.750000
O O15 0.362707 0.292721 0.593056
#
# Coordination Sequence:
#
# PCOD9512065 Si02
#       7
#    16  32  16  32  16  32  16
#     4  11  22  34  53  82 111 155 189 230 278 322
#     4  12  22  35  58  82 113 150 191 229 284 343
#     4  10  19  36  63  86 114 153 185 227 284 339
#     4  10  21  37  59  86 113 144 189 241 291 341
#     4  10  22  38  51  80 117 149 182 219 273 339
#     4  11  22  37  54  80 113 150 192 228 271 338
#     4  11  22  35  56  78 114 151 197 234 265 320
#
# _framework density 15.950635
#
# number of rings (size 3 to 8) (size 9 to 14) (size 15 to 20)
#    0.000    1.200    7.000    0.300    0.000    2.400 
#    7.200    0.000    0.000    0.000    0.000    0.000 
#    0.000    1.600    0.000    0.000    0.000    0.000 
#
# Total GULP energy -223168.010153 kJ/mol
# GULP energy per Si atom -5579.200254 kJ/mol
# Density = 1.591433 g / cm^3
# Si number density = 15.950635 Si / 1000 Ang^3
#
#
#
# Elastic Constant Matrix: (Units=GPa)
#
#
# Indices 1 2 3 4 5 6 
#
# 1 129.9770 44.3662 57.1529 0.0000 0.0000 0.0000
# 2 44.3662 89.1235 41.3861 0.0000 0.0000 0.0000
# 3 57.1529 41.3861 115.5358 0.0000 0.0000 0.0000
# 4 0.0000 0.0000 0.0000 20.5723 0.0000 0.0000
# 5 0.0000 0.0000 0.0000 0.0000 43.2548 0.0000
# 6 0.0000 0.0000 0.0000 0.0000 0.0000 21.2369
#
#
#
# Elastic Compliance Matrix: (Units=1/GPa)
#
#
# Indices 1 2 3 4 5 6 
#
# 1 0.010636 -0.003420 -0.004036 0.000000 0.000000 0.000000
# 2 -0.003420 0.014559 -0.003523 0.000000 0.000000 0.000000
# 3 -0.004036 -0.003523 0.011914 0.000000 0.000000 0.000000
# 4 0.000000 0.000000 0.000000 0.048609 0.000000 0.000000
# 5 0.000000 0.000000 0.000000 0.000000 0.023119 0.000000
# 6 0.000000 0.000000 0.000000 0.000000 0.000000 0.047088
#
#
# Mechanical properties :
#
#
# Convention : Reuss Voigt Hill
#
# Bulk Modulus (GPa) = 66.00865 68.93850 67.47358
# Shear Modulus (GPa) = 27.33225 29.79488 28.56356
#
# Velocity S-wave (km/s) = 4.14400 4.32666 4.23631
# Velocity P-wave (km/s) = 8.02308 8.26279 8.14382
#
# Compressibility (1/GPa) = 0.01514953
#
# Stress axis : x y z
#
# Youngs Moduli (GPa) = 94.02091 68.68526 83.93502
#
# Poissons Ratio (x) = 0.23493 0.33877
# Poissons Ratio (y) = 0.32159 0.29572
# Poissons Ratio (z) = 0.37948 0.24200
#
# Static dielectric constant tensor:
#      x y z
#    x 1.546790 0.000000 0.000000 
#    y 0.000000 1.521120 0.000000 
#    z 0.000000 0.000000 1.505100 
# 
# From -- ./inp_files/11543.got.cif
#   From: 2010.05.17/outbox.cif.g08.bks.cpg/sg69_6_cif.got.tgz:11543.got - 2010.06.03 19:29:58.
