data_PCOD9512426
_publ_section_title
;
Structure prediction by ZEFSAII (Michael W. Deem and Ramdas Pophale) SiO2 
 PCOD9512426
Probable space group: F M M M
;
_chemical_formula_sum "Si O2"
_cell_formula_units_Z 144
_cell_length_a 27.466848
_cell_length_b 8.698882
_cell_length_c 32.599033
_cell_angle_alpha 90.000000
_cell_angle_beta 90.000000
_cell_angle_gamma 90.000000
_cell_volume 7788.915305
_symmetry_space_group_name_H-M "F M M M"
_symmetry_group_IT_number 69
_symmetry_cell_setting 'orthorhombic'
loop_
_space_group_symop_operation_xyz
x,y,z
-x,-y,z
x,-y,-z
-x,y,-z
-x,-y,-z
x,y,-z
-x,y,z
x,-y,z
x,1/2+y,1/2+z
-x,1/2-y,1/2+z
x,1/2-y,1/2-z
-x,1/2+y,1/2-z
-x,1/2-y,1/2-z
x,1/2+y,1/2-z
-x,1/2+y,1/2+z
x,1/2-y,1/2+z
1/2+x,y,1/2+z
1/2-x,-y,1/2+z
1/2+x,-y,1/2-z
1/2-x,y,1/2-z
1/2-x,-y,1/2-z
1/2+x,y,1/2-z
1/2-x,y,1/2+z
1/2+x,-y,1/2+z
1/2+x,1/2+y,z
1/2-x,1/2-y,z
1/2+x,1/2-y,-z
1/2-x,1/2+y,-z
1/2-x,1/2-y,-z
1/2+x,1/2+y,-z
1/2-x,1/2+y,z
1/2+x,1/2-y,z
loop_
_atom_site_type_symbol
_atom_site_label
_atom_site_fract_x
_atom_site_fract_y
_atom_site_fract_z
Si Si1 0.944704 0.314540 0.619600
Si Si2 0.097638 0.316149 0.293395
Si Si3 0.195566 0.183927 0.000000
Si Si4 0.302035 0.684734 0.834337
Si Si5 0.651933 0.183291 0.083271
O O1 0.937969 0.500000 0.616478
O O2 0.934516 0.272157 0.667171
O O3 0.903391 0.232537 0.593190
O O4 0.000000 0.277647 0.608237
O O5 0.096548 0.500000 0.290762
O O6 0.082152 0.250000 0.250000
O O7 0.153129 0.269671 0.304819
O O8 0.250000 0.250000 0.000000
O O9 0.169186 0.244867 0.040707
O O10 0.196708 0.000000 0.000000
O O11 0.300451 0.500000 0.836308
O O12 0.250000 0.750000 0.821407
O O13 0.316069 0.749339 0.879206
O O14 0.656834 0.000000 0.082404
#
# Coordination Sequence:
#
# PCOD9512426 Si02
#       5
#    32  32  16  32  32
#     4   9  19  38  60  80 107 145 184 223 273 328
#     4   9  19  33  50  75 107 141 180 226 272 323
#     4  12  24  40  61  86 117 150 182 217 263 315
#     4  10  20  35  53  75 105 144 185 223 271 327
#     4  11  22  37  57  84 114 142 179 225 270 318
#
# _framework density 18.487811000000001
#
# number of rings (size 3 to 8) (size 9 to 14) (size 15 to 20)
#    0.000    2.000    0.000    5.667    0.000    5.778 
#    0.000    2.778    0.000    3.333    0.000    0.000 
#    0.000    0.000    0.000    0.000    0.000    0.000 
#
# Total GULP energy -201086.300090 kJ/mol
# GULP energy per Si atom -5585.730558 kJ/mol
# Density = 1.844573 g / cm^3
# Si number density = 18.487811 Si / 1000 Ang^3
#
#
#
# Elastic Constant Matrix: (Units=GPa)
#
#
# Indices 1 2 3 4 5 6 
#
# 1 84.2265 30.0692 15.1366 0.0001 0.0000 -0.0004
# 2 30.0692 78.0065 24.4015 0.0001 0.0001 -0.0003
# 3 15.1366 24.4015 92.0033 0.0000 0.0000 0.0000
# 4 0.0001 0.0001 0.0000 29.8839 0.0000 -0.0001
# 5 0.0000 0.0001 0.0000 0.0000 4.2852 0.0000
# 6 -0.0004 -0.0003 0.0000 -0.0001 0.0000 28.0890
#
#
#
# Elastic Compliance Matrix: (Units=1/GPa)
#
#
# Indices 1 2 3 4 5 6 
#
# 1 0.013842 -0.005041 -0.000940 0.000000 0.000000 0.000000
# 2 -0.005041 0.015815 -0.003365 0.000000 0.000000 0.000000
# 3 -0.000940 -0.003365 0.011916 0.000000 0.000000 0.000000
# 4 0.000000 0.000000 0.000000 0.033463 0.000000 0.000000
# 5 0.000000 0.000000 0.000000 0.000000 0.233361 0.000000
# 6 0.000000 0.000000 0.000000 0.000000 0.000000 0.035601
#
#
# Mechanical properties :
#
#
# Convention : Reuss Voigt Hill
#
# Bulk Modulus (GPa) = 43.70663 43.71677 43.71170
# Shear Modulus (GPa) = 13.50188 24.76021 19.13104
#
# Velocity S-wave (km/s) = 2.70536 3.66358 3.22031
# Velocity P-wave (km/s) = 5.78366 6.44929 6.12552
#
# Compressibility (1/GPa) = 0.02287982
#
# Stress axis : x y z
#
# Youngs Moduli (GPa) = 72.24650 63.22931 83.91808
#
# Poissons Ratio (x) = 0.31876 0.07889
# Poissons Ratio (y) = 0.36422 0.28240
# Poissons Ratio (z) = 0.06792 0.21278
#
# Static dielectric constant tensor:
#      x y z
#    x 1.636820 0.000000 0.000000 
#    y 0.000000 1.620830 0.000000 
#    z 0.000000 0.000000 1.611340 
# 
# From -- ./inp_files/5534.got.cif
#   From: 2010.05.17/outbox.cif.g08.bks.cpg/sg69_3_cif.got.tgz:5534.got - 2010.06.03 19:29:58.
