data_PCOD9512396
_publ_section_title
;
Structure prediction by ZEFSAII (Michael W. Deem and Ramdas Pophale) SiO2 
 PCOD9512396
Probable space group: F M M M
;
_chemical_formula_sum "Si O2"
_cell_formula_units_Z 160
_cell_length_a 26.687057
_cell_length_b 15.178665
_cell_length_c 18.307666
_cell_angle_alpha 90.000000
_cell_angle_beta 90.000000
_cell_angle_gamma 90.000000
_cell_volume 7415.957631
_symmetry_space_group_name_H-M "F M M M"
_symmetry_group_IT_number 69
_symmetry_cell_setting 'orthorhombic'
loop_
_space_group_symop_operation_xyz
x,y,z
-x,-y,z
x,-y,-z
-x,y,-z
-x,-y,-z
x,y,-z
-x,y,z
x,-y,z
x,1/2+y,1/2+z
-x,1/2-y,1/2+z
x,1/2-y,1/2-z
-x,1/2+y,1/2-z
-x,1/2-y,1/2-z
x,1/2+y,1/2-z
-x,1/2+y,1/2+z
x,1/2-y,1/2+z
1/2+x,y,1/2+z
1/2-x,-y,1/2+z
1/2+x,-y,1/2-z
1/2-x,y,1/2-z
1/2-x,-y,1/2-z
1/2+x,y,1/2-z
1/2-x,y,1/2+z
1/2+x,-y,1/2+z
1/2+x,1/2+y,z
1/2-x,1/2-y,z
1/2+x,1/2-y,-z
1/2-x,1/2+y,-z
1/2-x,1/2-y,-z
1/2+x,1/2+y,-z
1/2-x,1/2+y,z
1/2+x,1/2-y,z
loop_
_atom_site_type_symbol
_atom_site_label
_atom_site_fract_x
_atom_site_fract_y
_atom_site_fract_z
Si Si1 0.640723 0.892738 0.914174
Si Si2 0.842815 0.107131 0.084520
Si Si3 0.444999 0.400995 0.853028
Si Si4 0.743933 0.392362 0.333843
Si Si5 0.942322 0.162789 0.299767
O O1 0.693184 0.866541 0.875519
O O2 0.596021 0.854535 0.864546
O O3 0.637537 0.000000 0.911654
O O4 0.639290 0.867430 0.000000
O O5 0.895885 0.142209 0.113265
O O6 0.793900 0.139218 0.125900
O O7 0.843607 0.000000 0.094034
O O8 0.837906 0.126073 0.000000
O O9 0.500000 0.359958 0.866135
O O10 0.447372 0.500000 0.883453
O O11 0.437477 0.406863 0.766095
O O12 0.743722 0.500000 0.334854
O O13 0.750000 0.365030 0.250000
O O14 0.934012 0.250000 0.250000
O O15 0.000000 0.161670 0.325241
#
# Coordination Sequence:
#
# PCOD9512396 Si02
#       5
#    32  32  32  32  32
#     4  10  20  34  56  87 117 142 178 234 290 334
#     4   9  16  26  43  70 103 133 163 208 265 318
#     4   9  17  30  50  75 100 129 172 224 270 315
#     4   9  16  27  47  76 108 141 177 217 267 329
#     4  10  21  37  55  75 103 142 183 217 261 331
#
# _framework density 21.575097
#
# number of rings (size 3 to 8) (size 9 to 14) (size 15 to 20)
#    0.000    2.600    0.000    2.400    0.000    7.600 
#    0.000    4.000    0.000    9.000    0.000    7.000 
#    0.000    0.000    0.000    0.000    0.000    0.000 
#
# Total GULP energy -223158.601298 kJ/mol
# GULP energy per Si atom -5578.965032 kJ/mol
# Density = 2.152599 g / cm^3
# Si number density = 21.575097 Si / 1000 Ang^3
#
#
#
# Elastic Constant Matrix: (Units=GPa)
#
#
# Indices 1 2 3 4 5 6 
#
# 1 256.0004 14.6039 155.7436 0.0000 0.0000 0.0000
# 2 14.6039 48.3062 2.5608 0.0000 0.0000 0.0000
# 3 155.7436 2.5608 154.6326 0.0000 0.0000 0.0000
# 4 0.0000 0.0000 0.0000 12.4727 0.0000 0.0000
# 5 0.0000 0.0000 0.0000 0.0000 -41.0594 0.0000
# 6 0.0000 0.0000 0.0000 0.0000 0.0000 -43.2886
#
#
#
# Elastic Compliance Matrix: (Units=1/GPa)
#
#
# Indices 1 2 3 4 5 6 
#
# 1 0.010401 -0.002591 -0.010433 0.000000 0.000000 0.000000
# 2 -0.002591 0.021365 0.002256 0.000000 0.000000 0.000000
# 3 -0.010433 0.002256 0.016938 0.000000 0.000000 0.000000
# 4 0.000000 0.000000 0.000000 0.080175 0.000000 0.000000
# 5 0.000000 0.000000 0.000000 0.000000 -0.024355 0.000000
# 6 0.000000 0.000000 0.000000 0.000000 0.000000 -0.023101
#
#
# Mechanical properties :
#
#
# Convention : Reuss Voigt Hill
#
# Bulk Modulus (GPa) = 36.80874 89.41731 63.11303
# Shear Modulus (GPa) = 44.63644 4.69365 24.66505
#
# Velocity S-wave (km/s) = 4.55344 1.47656 3.38482
# Velocity P-wave (km/s) = 6.68901 6.66645 6.67774
#
# Compressibility (1/GPa) = 0.02716746
#
# Stress axis : x y z
#
# Youngs Moduli (GPa) = 96.14182 46.80524 59.04004
#
# Poissons Ratio (x) = 0.12129 0.61597
# Poissons Ratio (y) = 0.24915 -0.13321
# Poissons Ratio (z) = 1.00306 -0.10560
#
# Static dielectric constant tensor:
#      x y z
#    x 1.774930 0.000000 0.000000 
#    y 0.000000 1.906980 0.000000 
#    z 0.000000 0.000000 1.725750 
# 
# From -- ./inp_files/23163.got.cif
#   From: 2010.05.17/outbox.cif.g08.bks.cpg/sg69_12_cif.got.tgz:23163.got - 2010.06.03 19:29:58.
