data_PCOD9512196
_publ_section_title
;
Structure prediction by ZEFSAII (Michael W. Deem and Ramdas Pophale) SiO2 
 PCOD9512196
Probable space group: F M M M
;
_chemical_formula_sum "Si O2"
_cell_formula_units_Z 208
_cell_length_a 17.327070
_cell_length_b 25.707540
_cell_length_c 24.943978
_cell_angle_alpha 90.000000
_cell_angle_beta 90.000000
_cell_angle_gamma 90.000000
_cell_volume 11110.954393
_symmetry_space_group_name_H-M "F M M M"
_symmetry_group_IT_number 69
_symmetry_cell_setting 'orthorhombic'
loop_
_space_group_symop_operation_xyz
x,y,z
-x,-y,z
x,-y,-z
-x,y,-z
-x,-y,-z
x,y,-z
-x,y,z
x,-y,z
x,1/2+y,1/2+z
-x,1/2-y,1/2+z
x,1/2-y,1/2-z
-x,1/2+y,1/2-z
-x,1/2-y,1/2-z
x,1/2+y,1/2-z
-x,1/2+y,1/2+z
x,1/2-y,1/2+z
1/2+x,y,1/2+z
1/2-x,-y,1/2+z
1/2+x,-y,1/2-z
1/2-x,y,1/2-z
1/2-x,-y,1/2-z
1/2+x,y,1/2-z
1/2-x,y,1/2+z
1/2+x,-y,1/2+z
1/2+x,1/2+y,z
1/2-x,1/2-y,z
1/2+x,1/2-y,-z
1/2-x,1/2+y,-z
1/2-x,1/2-y,-z
1/2+x,1/2+y,-z
1/2-x,1/2+y,z
1/2+x,1/2-y,z
loop_
_atom_site_type_symbol
_atom_site_label
_atom_site_fract_x
_atom_site_fract_y
_atom_site_fract_z
Si Si1 0.411938 0.312021 0.748104
Si Si2 0.087482 0.841747 0.065252
Si Si3 0.660702 0.235389 0.061837
Si Si4 0.813991 0.442276 0.436884
Si Si5 0.185891 0.059045 0.653387
Si Si6 0.584521 0.851569 0.873347
Si Si7 0.250000 0.870202 0.750000
O O1 0.500000 0.325181 0.770718
O O2 0.404040 0.250000 0.750000
O O3 0.416555 0.328078 0.686030
O O4 0.329063 0.337999 0.765861
O O5 0.117779 0.786103 0.085272
O O6 0.134962 0.892963 0.079626
O O7 0.000000 0.848491 0.081914
O O8 0.090951 0.838891 0.000000
O O9 0.750000 0.250000 0.062544
O O10 0.643935 0.182852 0.093158
O O11 0.636576 0.228306 0.000000
O O12 0.794246 0.436305 0.500000
O O13 0.851383 0.500000 0.431535
O O14 0.741297 0.442022 0.398077
O O15 0.110061 0.089353 0.634427
O O16 0.224860 0.093431 0.700190
O O17 0.172586 0.000000 0.671584
O O18 0.500000 0.846160 0.898010
#
# Coordination Sequence:
#
# PCOD9512196 Si02
#       7
#    32  32  32  32  32  32  16
#     4   9  19  35  54  80 112 142 176 220 270 326
#     4   9  17  29  46  70 101 136 171 207 252 305
#     4  10  20  33  50  74 106 142 178 216 260 316
#     4   9  18  33  52  74 102 136 173 213 257 307
#     4  10  21  37  57  78 101 134 177 222 269 323
#     4  10  21  35  53  78 105 136 175 218 268 323
#     4  10  20  36  58  80 106 142 182 224 272 324
#
# _framework density 18.720264
#
# number of rings (size 3 to 8) (size 9 to 14) (size 15 to 20)
#    0.000    2.462    0.000    1.846    0.000    7.077 
#    0.000    3.846    0.000    2.308    0.000    3.231 
#    0.000    0.000    0.000    0.000    0.000    0.000 
#
# Total GULP energy -289577.169091 kJ/mol
# GULP energy per Si atom -5568.791713 kJ/mol
# Density = 1.867766 g / cm^3
# Si number density = 18.720264 Si / 1000 Ang^3
#
#
#
# Elastic Constant Matrix: (Units=GPa)
#
#
# Indices 1 2 3 4 5 6 
#
# 1 65.6298 40.7461 11.1204 0.0000 0.0000 0.0000
# 2 40.7461 112.7242 18.4380 0.0000 0.0000 0.0000
# 3 11.1204 18.4380 16.2803 0.0000 0.0000 0.0000
# 4 0.0000 0.0000 0.0000 -157.7504 0.0000 0.0000
# 5 0.0000 0.0000 0.0000 0.0000 -7.8568 0.0000
# 6 0.0000 0.0000 0.0000 0.0000 0.0000 8.9957
#
#
#
# Elastic Compliance Matrix: (Units=1/GPa)
#
#
# Indices 1 2 3 4 5 6 
#
# 1 0.020241 -0.006204 -0.006799 0.000000 0.000000 0.000000
# 2 -0.006204 0.012790 -0.010247 0.000000 0.000000 0.000000
# 3 -0.006799 -0.010247 0.077674 0.000000 0.000000 0.000000
# 4 0.000000 0.000000 0.000000 -0.006339 0.000000 0.000000
# 5 0.000000 0.000000 0.000000 0.000000 -0.127278 0.000000
# 6 0.000000 0.000000 0.000000 0.000000 0.000000 0.111165
#
#
# Mechanical properties :
#
#
# Convention : Reuss Voigt Hill
#
# Bulk Modulus (GPa) = 15.57557 37.24927 26.41242
# Shear Modulus (GPa) = 32.01961 -23.03366 4.49297
#
# Velocity S-wave (km/s) = 4.14022 -3.51153 1.55089
# Velocity P-wave (km/s) = 5.58511 1.87080 4.16493
#
# Compressibility (1/GPa) = 0.06420312
#
# Stress axis : x y z
#
# Youngs Moduli (GPa) = 49.40476 78.18629 12.87438
#
# Poissons Ratio (x) = 0.48509 0.08754
# Poissons Ratio (y) = 0.30652 0.13193
# Poissons Ratio (z) = 0.33591 0.80119
#
# Static dielectric constant tensor:
#      x y z
#    x 1.678670 0.000000 0.000000 
#    y 0.000000 1.630490 0.000000 
#    z 0.000000 0.000000 1.638870 
# 
# From -- ./inp_files/42131.got.cif
#   From: 2010.05.17/outbox.cif.g08.bks.cpg/sg69_22_cif.got.tgz:42131.got - 2010.06.03 19:29:58.
