data_PCOD9512507
_publ_section_title
;
Structure prediction by ZEFSAII (Michael W. Deem and Ramdas Pophale) SiO2 
 PCOD9512507
Probable space group: F M M M
;
_chemical_formula_sum "Si O2"
_cell_formula_units_Z 160
_cell_length_a 23.802215
_cell_length_b 25.334649
_cell_length_c 14.049819
_cell_angle_alpha 90.000000
_cell_angle_beta 90.000000
_cell_angle_gamma 90.000000
_cell_volume 8472.332566
_symmetry_space_group_name_H-M "F M M M"
_symmetry_group_IT_number 69
_symmetry_cell_setting 'orthorhombic'
loop_
_space_group_symop_operation_xyz
x,y,z
-x,-y,z
x,-y,-z
-x,y,-z
-x,-y,-z
x,y,-z
-x,y,z
x,-y,z
x,1/2+y,1/2+z
-x,1/2-y,1/2+z
x,1/2-y,1/2-z
-x,1/2+y,1/2-z
-x,1/2-y,1/2-z
x,1/2+y,1/2-z
-x,1/2+y,1/2+z
x,1/2-y,1/2+z
1/2+x,y,1/2+z
1/2-x,-y,1/2+z
1/2+x,-y,1/2-z
1/2-x,y,1/2-z
1/2-x,-y,1/2-z
1/2+x,y,1/2-z
1/2-x,y,1/2+z
1/2+x,-y,1/2+z
1/2+x,1/2+y,z
1/2-x,1/2-y,z
1/2+x,1/2-y,-z
1/2-x,1/2+y,-z
1/2-x,1/2-y,-z
1/2+x,1/2+y,-z
1/2-x,1/2+y,z
1/2+x,1/2-y,z
loop_
_atom_site_type_symbol
_atom_site_label
_atom_site_fract_x
_atom_site_fract_y
_atom_site_fract_z
Si Si1 0.724207 0.307323 0.892645
Si Si2 0.433660 0.232835 0.109015
Si Si3 0.845561 0.558122 0.712700
Si Si4 0.385821 0.671266 0.781935
Si Si5 0.229583 0.581781 0.891391
O O1 0.750000 0.250000 0.885842
O O2 0.677247 0.314297 0.813387
O O3 0.768470 0.354613 0.884028
O O4 0.699544 0.313380 0.000000
O O5 0.500000 0.221628 0.114873
O O6 0.423149 0.291842 0.149095
O O7 0.401100 0.192472 0.177621
O O8 0.415104 0.228897 0.000000
O O9 0.870369 0.500000 0.699125
O O10 0.886951 0.608157 0.705869
O O11 0.815082 0.561189 0.815743
O O12 0.792584 0.565034 0.640551
O O13 0.218845 0.566468 0.000000
#
# Coordination Sequence:
#
# PCOD9512507 Si02
#       5
#    32  32  32  32  32
#     4   9  18  30  48  77 115 151 178 210 256 308
#     4  10  22  40  61  83 105 129 165 219 281 341
#     4  10  21  34  48  74 107 142 186 225 251 293
#     4  10  20  35  57  80 107 140 177 214 266 316
#     4   9  18  32  48  68 102 151 193 220 249 290
#
# _framework density 18.884999000000001
#
# number of rings (size 3 to 8) (size 9 to 14) (size 15 to 20)
#    0.000    2.400    0.000    3.000    5.600    3.200 
#    0.000    0.000    0.000    3.000    0.000    2.800 
#    0.000    0.000    0.000    0.000    0.000    0.000 
#
# Total GULP energy -223319.634748 kJ/mol
# GULP energy per Si atom -5582.990869 kJ/mol
# Density = 1.884202 g / cm^3
# Si number density = 18.884999 Si / 1000 Ang^3
#
#
#
# Elastic Constant Matrix: (Units=GPa)
#
#
# Indices 1 2 3 4 5 6 
#
# 1 22.8512 12.9267 11.4632 0.0000 0.0000 0.0000
# 2 12.9267 157.7750 13.7116 0.0000 0.0000 0.0000
# 3 11.4632 13.7116 109.1245 0.0000 0.0000 0.0000
# 4 0.0000 0.0000 0.0000 4.1564 0.0000 0.0000
# 5 0.0000 0.0000 0.0000 0.0000 22.5039 0.0000
# 6 0.0000 0.0000 0.0000 0.0000 0.0000 14.8737
#
#
#
# Elastic Compliance Matrix: (Units=1/GPa)
#
#
# Indices 1 2 3 4 5 6 
#
# 1 0.048073 -0.003538 -0.004605 0.000000 0.000000 0.000000
# 2 -0.003538 0.006669 -0.000466 0.000000 0.000000 0.000000
# 3 -0.004605 -0.000466 0.009706 0.000000 0.000000 0.000000
# 4 0.000000 0.000000 0.000000 0.240592 0.000000 0.000000
# 5 0.000000 0.000000 0.000000 0.000000 0.044437 0.000000
# 6 0.000000 0.000000 0.000000 0.000000 0.000000 0.067233
#
#
# Mechanical properties :
#
#
# Convention : Reuss Voigt Hill
#
# Bulk Modulus (GPa) = 21.17384 40.66151 30.91768
# Shear Modulus (GPa) = 11.11921 25.08340 18.10130
#
# Velocity S-wave (km/s) = 2.42912 3.64843 3.09933
# Velocity P-wave (km/s) = 4.37079 6.27104 5.40508
#
# Compressibility (1/GPa) = 0.04722808
#
# Stress axis : x y z
#
# Youngs Moduli (GPa) = 20.80152 149.95719 103.02685
#
# Poissons Ratio (x) = 0.53062 0.47448
# Poissons Ratio (y) = 0.07361 0.04803
# Poissons Ratio (z) = 0.09580 0.06991
#
# Static dielectric constant tensor:
#      x y z
#    x 1.647120 0.000000 0.000000 
#    y 0.000000 1.699430 0.000000 
#    z 0.000000 0.000000 1.698010 
# 
# From -- ./inp_files/17980.got.cif
#   From: 2010.05.17/outbox.cif.g08.bks.cpg/sg69_9_cif.got.tgz:17980.got - 2010.06.03 19:29:58.
