data_PCOD9512470
_publ_section_title
;
Structure prediction by ZEFSAII (Michael W. Deem and Ramdas Pophale) SiO2 
 PCOD9512470
Probable space group: F M M M
;
_chemical_formula_sum "Si O2"
_cell_formula_units_Z 168
_cell_length_a 14.281490
_cell_length_b 34.713348
_cell_length_c 18.308257
_cell_angle_alpha 90.000000
_cell_angle_beta 90.000000
_cell_angle_gamma 90.000000
_cell_volume 9076.470958
_symmetry_space_group_name_H-M "F M M M"
_symmetry_group_IT_number 69
_symmetry_cell_setting 'orthorhombic'
loop_
_space_group_symop_operation_xyz
x,y,z
-x,-y,z
x,-y,-z
-x,y,-z
-x,-y,-z
x,y,-z
-x,y,z
x,-y,z
x,1/2+y,1/2+z
-x,1/2-y,1/2+z
x,1/2-y,1/2-z
-x,1/2+y,1/2-z
-x,1/2-y,1/2-z
x,1/2+y,1/2-z
-x,1/2+y,1/2+z
x,1/2-y,1/2+z
1/2+x,y,1/2+z
1/2-x,-y,1/2+z
1/2+x,-y,1/2-z
1/2-x,y,1/2-z
1/2-x,-y,1/2-z
1/2+x,y,1/2-z
1/2-x,y,1/2+z
1/2+x,-y,1/2+z
1/2+x,1/2+y,z
1/2-x,1/2-y,z
1/2+x,1/2-y,-z
1/2-x,1/2+y,-z
1/2-x,1/2-y,-z
1/2+x,1/2+y,-z
1/2-x,1/2+y,z
1/2+x,1/2-y,z
loop_
_atom_site_type_symbol
_atom_site_label
_atom_site_fract_x
_atom_site_fract_y
_atom_site_fract_z
Si Si1 0.108527 0.717869 0.310449
Si Si2 0.750000 0.500000 0.250000
Si Si3 0.890582 0.109279 0.080867
Si Si4 0.390397 0.848093 0.194220
Si Si5 0.387877 0.428650 0.234715
Si Si6 0.241331 0.815622 0.917206
O O1 0.129936 0.750000 0.250000
O O2 0.118727 0.677539 0.267315
O O3 0.179022 0.716578 0.377285
O O4 0.000000 0.722736 0.332586
O O5 0.669370 0.533985 0.255253
O O6 0.868547 0.082595 0.149913
O O7 0.826264 0.146835 0.081207
O O8 0.000000 0.120813 0.088662
O O9 0.880320 0.090865 0.000000
O O10 0.500000 0.847726 0.174083
O O11 0.362538 0.891473 0.215631
O O12 0.328486 0.828192 0.132455
O O13 0.500000 0.433910 0.241169
O O14 0.267105 0.805879 0.000000
#
# Coordination Sequence:
#
# PCOD9512470 Si02
#       6
#    32   8  32  32  32  32
#     4  10  21  38  60  86 115 150 191 236 291 351
#     4  12  22  32  54  80 110 150 194 254 292 344
#     4   9  17  31  54  85 117 146 180 231 297 361
#     4  10  21  38  58  79 113 158 198 239 289 349
#     4  10  20  35  55  82 114 151 196 241 294 354
#     4  11  21  33  56  88 118 151 196 246 295 343
#
# _framework density 18.509395999999999
#
# number of rings (size 3 to 8) (size 9 to 14) (size 15 to 20)
#    0.000    1.905    1.905    2.571    0.000    3.048 
#    0.000    2.381    0.000    6.857    0.000    0.000 
#    0.000   10.667    0.000    0.000    0.000    0.000 
#
# Total GULP energy -234078.483424 kJ/mol
# GULP energy per Si atom -5573.297224 kJ/mol
# Density = 1.846727 g / cm^3
# Si number density = 18.509396 Si / 1000 Ang^3
#
#
#
# Elastic Constant Matrix: (Units=GPa)
#
#
# Indices 1 2 3 4 5 6 
#
# 1 82.9458 25.8243 57.6582 0.0000 0.0000 0.0000
# 2 25.8243 70.9743 15.9692 0.0000 0.0000 0.0000
# 3 57.6582 15.9692 117.8531 0.0000 0.0000 0.0000
# 4 0.0000 0.0000 0.0000 -1.2238 0.0000 0.0000
# 5 0.0000 0.0000 0.0000 0.0000 11.2552 0.0000
# 6 0.0000 0.0000 0.0000 0.0000 0.0000 35.5522
#
#
#
# Elastic Compliance Matrix: (Units=1/GPa)
#
#
# Indices 1 2 3 4 5 6 
#
# 1 0.019991 -0.005233 -0.009071 0.000000 0.000000 0.000000
# 2 -0.005233 0.015902 0.000405 0.000000 0.000000 0.000000
# 3 -0.009071 0.000405 0.012868 0.000000 0.000000 0.000000
# 4 0.000000 0.000000 0.000000 -0.817146 0.000000 0.000000
# 5 0.000000 0.000000 0.000000 0.000000 0.088848 0.000000
# 6 0.000000 0.000000 0.000000 0.000000 0.000000 0.028128
#
#
# Mechanical properties :
#
#
# Convention : Reuss Voigt Hill
#
# Bulk Modulus (GPa) = 47.70071 52.29739 49.99905
# Shear Modulus (GPa) = -8.10867 20.60483 6.24808
#
# Velocity S-wave (km/s) = -2.09532 3.34010 1.83928
# Velocity P-wave (km/s) = 4.46914 6.57198 5.61979
#
# Compressibility (1/GPa) = 0.02096405
#
# Stress axis : x y z
#
# Youngs Moduli (GPa) = 50.02254 62.88361 77.71065
#
# Poissons Ratio (x) = 0.32906 0.70494
# Poissons Ratio (y) = 0.26176 -0.03150
# Poissons Ratio (z) = 0.45377 -0.02549
#
# Static dielectric constant tensor:
#      x y z
#    x 1.657630 0.000000 0.000000 
#    y 0.000000 1.628730 0.000000 
#    z 0.000000 0.000000 1.652620 
# 
# From -- ./inp_files/30083.got.cif
#   From: 2010.05.17/outbox.cif.g08.bks.cpg/sg69_16_cif.got.tgz:30083.got - 2010.06.03 19:29:58.
