data_PCOD9512398
_publ_section_title
;
Structure prediction by ZEFSAII (Michael W. Deem and Ramdas Pophale) SiO2 
 PCOD9512398
Probable space group: F M M M
;
_chemical_formula_sum "Si O2"
_cell_formula_units_Z 160
_cell_length_a 23.251182
_cell_length_b 18.699243
_cell_length_c 17.983940
_cell_angle_alpha 90.000000
_cell_angle_beta 90.000000
_cell_angle_gamma 90.000000
_cell_volume 7819.048482
_symmetry_space_group_name_H-M "F M M M"
_symmetry_group_IT_number 69
_symmetry_cell_setting 'orthorhombic'
loop_
_space_group_symop_operation_xyz
x,y,z
-x,-y,z
x,-y,-z
-x,y,-z
-x,-y,-z
x,y,-z
-x,y,z
x,-y,z
x,1/2+y,1/2+z
-x,1/2-y,1/2+z
x,1/2-y,1/2-z
-x,1/2+y,1/2-z
-x,1/2-y,1/2-z
x,1/2+y,1/2-z
-x,1/2+y,1/2+z
x,1/2-y,1/2+z
1/2+x,y,1/2+z
1/2-x,-y,1/2+z
1/2+x,-y,1/2-z
1/2-x,y,1/2-z
1/2-x,-y,1/2-z
1/2+x,y,1/2-z
1/2-x,y,1/2+z
1/2+x,-y,1/2+z
1/2+x,1/2+y,z
1/2-x,1/2-y,z
1/2+x,1/2-y,-z
1/2-x,1/2+y,-z
1/2-x,1/2-y,-z
1/2+x,1/2+y,-z
1/2-x,1/2+y,z
1/2+x,1/2-y,z
loop_
_atom_site_type_symbol
_atom_site_label
_atom_site_fract_x
_atom_site_fract_y
_atom_site_fract_z
Si Si1 0.385689 0.832872 0.910977
Si Si2 0.354010 0.579553 0.087848
Si Si3 0.431598 0.814580 0.342767
Si Si4 0.745623 0.830969 0.090088
Si Si5 0.432383 0.919338 0.786940
O O1 0.401049 0.757257 0.871771
O O2 0.319455 0.854451 0.895881
O O3 0.423253 0.892854 0.870794
O O4 0.393694 0.826042 0.000000
O O5 0.358388 0.500000 0.118517
O O6 0.411757 0.624169 0.100418
O O7 0.298184 0.621320 0.118616
O O8 0.344938 0.574445 0.000000
O O9 0.500000 0.800992 0.339563
O O10 0.411638 0.853768 0.266155
O O11 0.750000 0.750000 0.118055
O O12 0.751674 0.827989 0.000000
O O13 0.500000 0.923144 0.770300
O O14 0.409017 0.000000 0.776285
#
# Coordination Sequence:
#
# PCOD9512398 Si02
#       5
#    32  32  32  32  32
#     4  11  22  37  64  94 118 150 200 255 302 352
#     4  10  20  34  56  87 120 156 199 247 297 352
#     4  11  22  38  60  86 119 160 201 241 296 363
#     4   9  17  34  57  82 115 153 191 237 298 358
#     4  10  23  42  60  82 120 166 203 241 296 358
#
# _framework density 20.462848000000001
#
# number of rings (size 3 to 8) (size 9 to 14) (size 15 to 20)
#    0.000    1.800    2.000    2.400    0.000    6.800 
#    0.000    5.000    0.000    2.400    0.000    0.000 
#    0.000    0.000    0.000    0.000    0.000    0.000 
#
# Total GULP energy -222844.061287 kJ/mol
# GULP energy per Si atom -5571.101532 kJ/mol
# Density = 2.041627 g / cm^3
# Si number density = 20.462848 Si / 1000 Ang^3
#
#
#
# Elastic Constant Matrix: (Units=GPa)
#
#
# Indices 1 2 3 4 5 6 
#
# 1 25.4379 -4.5643 16.0243 0.0000 0.0000 0.0000
# 2 -4.5643 62.9984 44.1197 0.0000 0.0000 0.0000
# 3 16.0243 44.1197 70.3749 0.0000 0.0000 0.0000
# 4 0.0000 0.0000 0.0000 18.3565 0.0000 0.0000
# 5 0.0000 0.0000 0.0000 0.0000 5.5900 0.0000
# 6 0.0000 0.0000 0.0000 0.0000 0.0000 16.5486
#
#
#
# Elastic Compliance Matrix: (Units=1/GPa)
#
#
# Indices 1 2 3 4 5 6 
#
# 1 0.063497 0.026252 -0.030916 0.000000 0.000000 0.000000
# 2 0.026252 0.039151 -0.030522 0.000000 0.000000 0.000000
# 3 -0.030916 -0.030522 0.040384 0.000000 0.000000 0.000000
# 4 0.000000 0.000000 0.000000 0.054477 0.000000 0.000000
# 5 0.000000 0.000000 0.000000 0.000000 0.178891 0.000000
# 6 0.000000 0.000000 0.000000 0.000000 0.000000 0.060428
#
#
# Mechanical properties :
#
#
# Convention : Reuss Voigt Hill
#
# Bulk Modulus (GPa) = 13.76281 29.99672 21.87976
# Shear Modulus (GPa) = 9.40873 14.98112 12.19493
#
# Velocity S-wave (km/s) = 2.14661 2.70869 2.44387
# Velocity P-wave (km/s) = 3.58947 4.94708 4.32192
#
# Compressibility (1/GPa) = 0.07265959
#
# Stress axis : x y z
#
# Youngs Moduli (GPa) = 15.74875 25.54203 24.76206
#
# Poissons Ratio (x) = -0.67053 0.76555
# Poissons Ratio (y) = -0.41344 0.75580
# Poissons Ratio (z) = 0.48689 0.77960
#
# Static dielectric constant tensor:
#      x y z
#    x 1.757240 0.000000 0.000000 
#    y 0.000000 1.749890 0.000000 
#    z 0.000000 0.000000 1.780880 
# 
# From -- ./inp_files/24582.got.cif
#   From: 2010.05.17/outbox.cif.g08.bks.cpg/sg69_13_cif.got.tgz:24582.got - 2010.06.03 19:29:58.
