data_PCOD9512917
_publ_section_title
;
Structure prediction by ZEFSAII (Michael W. Deem and Ramdas Pophale) SiO2 
 PCOD9512917
Probable space group: F M M M
;
_chemical_formula_sum "Si O2"
_cell_formula_units_Z 128
_cell_length_a 8.553947
_cell_length_b 31.510385
_cell_length_c 22.568855
_cell_angle_alpha 90.000000
_cell_angle_beta 90.000000
_cell_angle_gamma 90.000000
_cell_volume 6083.167723
_symmetry_space_group_name_H-M "F M M M"
_symmetry_group_IT_number 69
_symmetry_cell_setting 'orthorhombic'
loop_
_space_group_symop_operation_xyz
x,y,z
-x,-y,z
x,-y,-z
-x,y,-z
-x,-y,-z
x,y,-z
-x,y,z
x,-y,z
x,1/2+y,1/2+z
-x,1/2-y,1/2+z
x,1/2-y,1/2-z
-x,1/2+y,1/2-z
-x,1/2-y,1/2-z
x,1/2+y,1/2-z
-x,1/2+y,1/2+z
x,1/2-y,1/2+z
1/2+x,y,1/2+z
1/2-x,-y,1/2+z
1/2+x,-y,1/2-z
1/2-x,y,1/2-z
1/2-x,-y,1/2-z
1/2+x,y,1/2-z
1/2-x,y,1/2+z
1/2+x,-y,1/2+z
1/2+x,1/2+y,z
1/2-x,1/2-y,z
1/2+x,1/2-y,-z
1/2-x,1/2+y,-z
1/2-x,1/2-y,-z
1/2+x,1/2+y,-z
1/2-x,1/2+y,z
1/2+x,1/2-y,z
loop_
_atom_site_type_symbol
_atom_site_label
_atom_site_fract_x
_atom_site_fract_y
_atom_site_fract_z
Si Si1 0.000000 0.914331 0.932481
Si Si2 0.000000 0.647003 0.712206
Si Si3 0.175739 0.450099 0.125170
Si Si4 0.500000 0.185868 0.413683
Si Si5 0.250000 0.582814 0.750000
Si Si6 0.250000 0.750000 0.893052
Si Si7 0.500000 0.216805 0.195433
O O1 0.164523 0.929495 0.902172
O O2 0.000000 0.862608 0.933925
O O3 0.000000 0.930074 0.000000
O O4 0.142913 0.615253 0.713498
O O5 0.000000 0.671909 0.773486
O O6 0.000000 0.679432 0.658009
O O7 0.183567 0.500000 0.111170
O O8 0.178660 0.444409 0.196806
O O9 0.000000 0.434311 0.105860
O O10 0.352496 0.215712 0.428056
O O11 0.356053 0.776629 0.847872
O O12 0.500000 0.250000 0.250000
#
# Coordination Sequence:
#
# PCOD9512917 Si02
#       7
#    16  16  32  16  16  16  16
#     4  12  28  52  75 100 137 185 247 303 351 418
#     4  12  21  29  57  89 138 182 224 268 333 415
#     4  11  25  45  72 108 146 186 230 285 355 424
#     4  11  22  41  60  95 130 175 232 286 345 411
#     4  12  21  38  59 100 148 184 216 271 348 430
#     4  10  21  34  55  84 130 174 219 273 346 414
#     4  11  20  28  47  84 130 174 209 266 334 411
#
# _framework density 21.041668000000001
#
# number of rings (size 3 to 8) (size 9 to 14) (size 15 to 20)
#    0.000    0.750    6.250    2.625    0.000    1.500 
#    2.250    1.875    0.000    0.000    0.000    0.000 
#    0.000    0.000    0.000    0.000    0.000    0.000 
#
# Total GULP energy -178342.011966 kJ/mol
# GULP energy per Si atom -5573.187874 kJ/mol
# Density = 2.099378 g / cm^3
# Si number density = 21.041668 Si / 1000 Ang^3
#
#
#
# Elastic Constant Matrix: (Units=GPa)
#
#
# Indices 1 2 3 4 5 6 
#
# 1 166.8290 53.3461 46.7215 0.0000 0.0000 0.0000
# 2 53.3461 101.4371 16.2638 0.0000 0.0000 0.0000
# 3 46.7215 16.2638 98.5490 0.0000 0.0000 0.0000
# 4 0.0000 0.0000 0.0000 -4.4226 0.0000 0.0000
# 5 0.0000 0.0000 0.0000 0.0000 -5.9141 0.0000
# 6 0.0000 0.0000 0.0000 0.0000 0.0000 48.0489
#
#
#
# Elastic Compliance Matrix: (Units=1/GPa)
#
#
# Indices 1 2 3 4 5 6 
#
# 1 0.008091 -0.003739 -0.003219 0.000000 0.000000 0.000000
# 2 -0.003739 0.011854 -0.000184 0.000000 0.000000 0.000000
# 3 -0.003219 -0.000184 0.011704 0.000000 0.000000 0.000000
# 4 0.000000 0.000000 0.000000 -0.226111 0.000000 0.000000
# 5 0.000000 0.000000 0.000000 0.000000 -0.169086 0.000000
# 6 0.000000 0.000000 0.000000 0.000000 0.000000 0.020812
#
#
# Mechanical properties :
#
#
# Convention : Reuss Voigt Hill
#
# Bulk Modulus (GPa) = 57.58485 66.60867 62.09676
# Shear Modulus (GPa) = -15.49602 24.24133 4.37266
#
# Velocity S-wave (km/s) = -2.71669 3.39789 1.44312
# Velocity P-wave (km/s) = 4.19355 6.86429 5.68790
#
# Compressibility (1/GPa) = 0.01736568
#
# Stress axis : x y z
#
# Youngs Moduli (GPa) = 123.58957 84.35832 85.44359
#
# Poissons Ratio (x) = 0.31543 0.27504
# Poissons Ratio (y) = 0.46212 0.01569
# Poissons Ratio (z) = 0.39783 0.01549
#
# Static dielectric constant tensor:
#      x y z
#    x 1.782130 0.000000 0.000000 
#    y 0.000000 1.731530 0.000000 
#    z 0.000000 0.000000 1.746080 
# 
# From -- ./inp_files/39720.got.cif
#   From: 2010.05.17/outbox.cif.g08.bks.cpg/sg69_20_cif.got.tgz:39720.got - 2010.06.03 19:29:58.
