data_PCOD9512861
_publ_section_title
;
Structure prediction by ZEFSAII (Michael W. Deem and Ramdas Pophale) SiO2 
 PCOD9512861
Probable space group: F M M M
;
_chemical_formula_sum "Si O2"
_cell_formula_units_Z 160
_cell_length_a 21.621847
_cell_length_b 20.068764
_cell_length_c 16.971662
_cell_angle_alpha 90.000000
_cell_angle_beta 90.000000
_cell_angle_gamma 90.000000
_cell_volume 7364.407129
_symmetry_space_group_name_H-M "F M M M"
_symmetry_group_IT_number 69
_symmetry_cell_setting 'orthorhombic'
loop_
_space_group_symop_operation_xyz
x,y,z
-x,-y,z
x,-y,-z
-x,y,-z
-x,-y,-z
x,y,-z
-x,y,z
x,-y,z
x,1/2+y,1/2+z
-x,1/2-y,1/2+z
x,1/2-y,1/2-z
-x,1/2+y,1/2-z
-x,1/2-y,1/2-z
x,1/2+y,1/2-z
-x,1/2+y,1/2+z
x,1/2-y,1/2+z
1/2+x,y,1/2+z
1/2-x,-y,1/2+z
1/2+x,-y,1/2-z
1/2-x,y,1/2-z
1/2-x,-y,1/2-z
1/2+x,y,1/2-z
1/2-x,y,1/2+z
1/2+x,-y,1/2+z
1/2+x,1/2+y,z
1/2-x,1/2-y,z
1/2+x,1/2-y,-z
1/2-x,1/2+y,-z
1/2-x,1/2-y,-z
1/2+x,1/2+y,-z
1/2-x,1/2+y,z
1/2+x,1/2-y,z
loop_
_atom_site_type_symbol
_atom_site_label
_atom_site_fract_x
_atom_site_fract_y
_atom_site_fract_z
Si Si1 0.500000 0.081356 0.212591
Si Si2 0.370390 0.670282 0.873039
Si Si3 0.808977 0.375136 0.787234
Si Si4 0.000000 0.702383 0.675117
Si Si5 0.896385 0.421879 0.911417
Si Si6 0.072574 0.578939 0.500000
Si Si7 0.750000 0.750000 0.870845
O O1 0.500000 0.125864 0.291032
O O2 0.443890 0.101666 0.155120
O O3 0.500000 0.000000 0.226963
O O4 0.353567 0.643257 0.785626
O O5 0.434272 0.712713 0.868362
O O6 0.309470 0.709229 0.905547
O O7 0.390714 0.608712 0.926271
O O8 0.750000 0.411370 0.750000
O O9 0.833277 0.411878 0.864512
O O10 0.785325 0.305017 0.820422
O O11 0.000000 0.750000 0.750000
O O12 0.909807 0.500000 0.919604
O O13 0.898820 0.392969 0.000000
O O14 0.072688 0.500000 0.500000
O O15 0.000000 0.601074 0.500000
#
# Coordination Sequence:
#
# PCOD9512861 Si02
#       7
#    16  32  32  16  32  16  16
#     4  10  21  38  63  94 130 173 215 265 340 424
#     4  11  22  42  68  97 134 184 225 283 353 411
#     4  10  20  40  65  90 123 172 220 271 339 411
#     4  12  22  36  69 106 132 170 237 289 338 419
#     4  10  21  38  60  90 127 165 212 272 337 405
#     4  11  26  47  68 100 144 184 239 300 341 411
#     4  10  23  45  70  95 134 175 220 283 357 424
#
# _framework density 21.726120999999999
#
# number of rings (size 3 to 8) (size 9 to 14) (size 15 to 20)
#    0.000    1.500    3.000    4.200    0.000    3.600 
#    9.000    3.000    2.200    0.000    0.000    0.000 
#    0.000    0.000    0.000    0.000    0.000    0.000 
#
# Total GULP energy -222785.742167 kJ/mol
# GULP energy per Si atom -5569.643554 kJ/mol
# Density = 2.167667 g / cm^3
# Si number density = 21.726121 Si / 1000 Ang^3
#
#
#
# Elastic Constant Matrix: (Units=GPa)
#
#
# Indices 1 2 3 4 5 6 
#
# 1 135.2348 27.4646 40.1063 0.0000 0.0000 0.0000
# 2 27.4646 50.0283 19.1328 0.0000 0.0000 0.0000
# 3 40.1063 19.1328 75.9545 0.0000 0.0000 0.0000
# 4 0.0000 0.0000 0.0000 22.7321 0.0000 0.0000
# 5 0.0000 0.0000 0.0000 0.0000 25.2151 0.0000
# 6 0.0000 0.0000 0.0000 0.0000 0.0000 26.8242
#
#
#
# Elastic Compliance Matrix: (Units=1/GPa)
#
#
# Indices 1 2 3 4 5 6 
#
# 1 0.009312 -0.003576 -0.004016 0.000000 0.000000 0.000000
# 2 -0.003576 0.023493 -0.004030 0.000000 0.000000 0.000000
# 3 -0.004016 -0.004030 0.016301 0.000000 0.000000 0.000000
# 4 0.000000 0.000000 0.000000 0.043991 0.000000 0.000000
# 5 0.000000 0.000000 0.000000 0.000000 0.039659 0.000000
# 6 0.000000 0.000000 0.000000 0.000000 0.000000 0.037280
#
#
# Mechanical properties :
#
#
# Convention : Reuss Voigt Hill
#
# Bulk Modulus (GPa) = 38.66571 48.29166 43.47869
# Shear Modulus (GPa) = 24.76474 26.58854 25.67664
#
# Velocity S-wave (km/s) = 3.37984 3.50209 3.44151
# Velocity P-wave (km/s) = 5.75036 6.21519 5.98729
#
# Compressibility (1/GPa) = 0.02586271
#
# Stress axis : x y z
#
# Youngs Moduli (GPa) = 107.38982 42.56592 61.34417
#
# Poissons Ratio (x) = 0.15222 0.24637
# Poissons Ratio (y) = 0.38404 0.24719
# Poissons Ratio (z) = 0.43129 0.17152
#
# Static dielectric constant tensor:
#      x y z
#    x 1.882530 0.000000 0.000000 
#    y 0.000000 1.799700 0.000000 
#    z 0.000000 0.000000 1.804010 
# 
# From -- ./inp_files/24708.got.cif
#   From: 2010.05.17/outbox.cif.g08.bks.cpg/sg69_13_cif.got.tgz:24708.got - 2010.06.03 19:29:58.
