data_PCOD9512512
_publ_section_title
;
Structure prediction by ZEFSAII (Michael W. Deem and Ramdas Pophale) SiO2 
 PCOD9512512
Probable space group: F M M M
;
_chemical_formula_sum "Si O2"
_cell_formula_units_Z 176
_cell_length_a 18.968363
_cell_length_b 19.897985
_cell_length_c 26.417013
_cell_angle_alpha 90.000000
_cell_angle_beta 90.000000
_cell_angle_gamma 90.000000
_cell_volume 9970.631399
_symmetry_space_group_name_H-M "F M M M"
_symmetry_group_IT_number 69
_symmetry_cell_setting 'orthorhombic'
loop_
_space_group_symop_operation_xyz
x,y,z
-x,-y,z
x,-y,-z
-x,y,-z
-x,-y,-z
x,y,-z
-x,y,z
x,-y,z
x,1/2+y,1/2+z
-x,1/2-y,1/2+z
x,1/2-y,1/2-z
-x,1/2+y,1/2-z
-x,1/2-y,1/2-z
x,1/2+y,1/2-z
-x,1/2+y,1/2+z
x,1/2-y,1/2+z
1/2+x,y,1/2+z
1/2-x,-y,1/2+z
1/2+x,-y,1/2-z
1/2-x,y,1/2-z
1/2-x,-y,1/2-z
1/2+x,y,1/2-z
1/2-x,y,1/2+z
1/2+x,-y,1/2+z
1/2+x,1/2+y,z
1/2-x,1/2-y,z
1/2+x,1/2-y,-z
1/2-x,1/2+y,-z
1/2-x,1/2-y,-z
1/2+x,1/2+y,-z
1/2-x,1/2+y,z
1/2+x,1/2-y,z
loop_
_atom_site_type_symbol
_atom_site_label
_atom_site_fract_x
_atom_site_fract_y
_atom_site_fract_z
Si Si1 0.418713 0.761775 0.391910
Si Si2 0.676189 0.423693 0.278284
Si Si3 0.334369 0.131132 0.558411
Si Si4 0.212827 0.180261 0.633459
Si Si5 0.418836 0.500000 0.061676
Si Si6 0.917089 0.317683 0.279084
O O1 0.500000 0.741546 0.395806
O O2 0.392842 0.810852 0.435855
O O3 0.361802 0.702765 0.389744
O O4 0.410226 0.802747 0.338754
O O5 0.651638 0.500000 0.290353
O O6 0.750000 0.429676 0.250000
O O7 0.693867 0.375859 0.325686
O O8 0.623807 0.381802 0.242037
O O9 0.313611 0.122707 0.500000
O O10 0.268027 0.151796 0.592558
O O11 0.374127 0.064652 0.577195
O O12 0.250000 0.250000 0.653350
O O13 0.500000 0.500000 0.079711
O O14 0.421833 0.500000 0.000000
O O15 0.892178 0.250000 0.250000
O O16 0.000000 0.325371 0.267651
#
# Coordination Sequence:
#
# PCOD9512512 Si02
#       6
#    32  32  32  32  16  32
#     4  10  20  35  57  83 108 142 191 232 274 337
#     4  11  23  35  53  83 112 143 186 233 277 329
#     4  10  21  36  55  81 115 147 181 230 286 341
#     4  10  21  35  55  80 109 151 188 227 279 341
#     4   9  18  34  56  80 108 147 185 219 279 350
#     4  10  20  37  59  80 108 148 190 229 279 337
#
# _framework density 17.651841000000001
#
# number of rings (size 3 to 8) (size 9 to 14) (size 15 to 20)
#    0.000    1.909    1.818    2.727    1.273    4.727 
#    1.636    0.000    0.000    0.000    0.000    0.000 
#    0.000    2.182    0.000    0.000    0.000    0.000 
#
# Total GULP energy -245362.444853 kJ/mol
# GULP energy per Si atom -5576.419201 kJ/mol
# Density = 1.761166 g / cm^3
# Si number density = 17.651841 Si / 1000 Ang^3
#
#
#
# Elastic Constant Matrix: (Units=GPa)
#
#
# Indices 1 2 3 4 5 6 
#
# 1 140.0261 59.8540 23.0620 0.0000 0.0000 0.0000
# 2 59.8540 123.5104 20.6803 0.0000 0.0000 0.0000
# 3 23.0620 20.6803 31.4162 0.0000 0.0000 0.0000
# 4 0.0000 0.0000 0.0000 -302.5405 0.0000 0.0000
# 5 0.0000 0.0000 0.0000 0.0000 22.9465 0.0000
# 6 0.0000 0.0000 0.0000 0.0000 0.0000 76.5908
#
#
#
# Elastic Compliance Matrix: (Units=1/GPa)
#
#
# Indices 1 2 3 4 5 6 
#
# 1 0.009530 -0.003874 -0.004445 0.000000 0.000000 0.000000
# 2 -0.003874 0.010674 -0.004183 0.000000 0.000000 0.000000
# 3 -0.004445 -0.004183 0.037847 0.000000 0.000000 0.000000
# 4 0.000000 0.000000 0.000000 -0.003305 0.000000 0.000000
# 5 0.000000 0.000000 0.000000 0.000000 0.043580 0.000000
# 6 0.000000 0.000000 0.000000 0.000000 0.000000 0.013056
#
#
# Mechanical properties :
#
#
# Convention : Reuss Voigt Hill
#
# Bulk Modulus (GPa) = 30.25991 55.79394 43.02693
# Shear Modulus (GPa) = 33.92101 -27.84355 3.03873
#
# Velocity S-wave (km/s) = 4.38844 -3.97592 1.31348
# Velocity P-wave (km/s) = 6.54658 3.25566 5.16996
#
# Compressibility (1/GPa) = 0.03304702
#
# Stress axis : x y z
#
# Youngs Moduli (GPa) = 104.93723 93.68485 26.42190
#
# Poissons Ratio (x) = 0.36291 0.11746
# Poissons Ratio (y) = 0.40650 0.11052
# Poissons Ratio (z) = 0.46649 0.39186
#
# Static dielectric constant tensor:
#      x y z
#    x 1.596990 0.000000 0.000000 
#    y 0.000000 1.636680 0.000000 
#    z 0.000000 0.000000 1.624960 
# 
# From -- ./inp_files/27659.got.cif
#   From: 2010.05.17/outbox.cif.g08.bks.cpg/sg69_14_cif.got.tgz:27659.got - 2010.06.03 19:29:58.
