data_PCOD9512705
_publ_section_title
;
Structure prediction by ZEFSAII (Michael W. Deem and Ramdas Pophale) SiO2 
 PCOD9512705
Probable space group: F M M M
;
_chemical_formula_sum "Si O2"
_cell_formula_units_Z 160
_cell_length_a 16.591955
_cell_length_b 15.954468
_cell_length_c 30.193567
_cell_angle_alpha 90.000000
_cell_angle_beta 90.000000
_cell_angle_gamma 90.000000
_cell_volume 7992.714699
_symmetry_space_group_name_H-M "F M M M"
_symmetry_group_IT_number 69
_symmetry_cell_setting 'orthorhombic'
loop_
_space_group_symop_operation_xyz
x,y,z
-x,-y,z
x,-y,-z
-x,y,-z
-x,-y,-z
x,y,-z
-x,y,z
x,-y,z
x,1/2+y,1/2+z
-x,1/2-y,1/2+z
x,1/2-y,1/2-z
-x,1/2+y,1/2-z
-x,1/2-y,1/2-z
x,1/2+y,1/2-z
-x,1/2+y,1/2+z
x,1/2-y,1/2+z
1/2+x,y,1/2+z
1/2-x,-y,1/2+z
1/2+x,-y,1/2-z
1/2-x,y,1/2-z
1/2-x,-y,1/2-z
1/2+x,y,1/2-z
1/2-x,y,1/2+z
1/2+x,-y,1/2+z
1/2+x,1/2+y,z
1/2-x,1/2-y,z
1/2+x,1/2-y,-z
1/2-x,1/2+y,-z
1/2-x,1/2-y,-z
1/2+x,1/2+y,-z
1/2-x,1/2+y,z
1/2+x,1/2-y,z
loop_
_atom_site_type_symbol
_atom_site_label
_atom_site_fract_x
_atom_site_fract_y
_atom_site_fract_z
Si Si1 0.411759 0.000000 0.142834
Si Si2 0.404143 0.334049 0.223134
Si Si3 0.170232 0.305968 0.370795
Si Si4 0.411177 0.161350 0.079785
Si Si5 0.339793 0.500000 0.268086
Si Si6 0.746178 0.099564 0.451595
O O1 0.408393 0.918088 0.112735
O O2 0.342729 0.000000 0.178941
O O3 0.500000 0.000000 0.165679
O O4 0.500000 0.328662 0.215978
O O5 0.379251 0.250000 0.250000
O O6 0.359980 0.340287 0.175870
O O7 0.383203 0.416120 0.251267
O O8 0.250000 0.250000 0.362747
O O9 0.103432 0.244183 0.391412
O O10 0.194992 0.370549 0.409454
O O11 0.500000 0.162107 0.058658
O O12 0.331918 0.147561 0.050419
O O13 0.250000 0.500000 0.250000
O O14 0.708660 0.117024 0.500000
O O15 0.760734 0.000000 0.448687
#
# Coordination Sequence:
#
# PCOD9512705 Si02
#       6
#    16  32  32  32  16  32
#     4  10  20  38  59  85 123 158 200 253 317 373
#     4  11  25  44  64  91 129 168 210 263 321 377
#     4  10  23  37  63  90 124 163 210 253 309 369
#     4  10  20  36  62  90 118 157 198 249 314 374
#     4  12  28  36  62  92 125 164 212 260 313 377
#     4  10  22  40  62  90 125 160 205 260 312 366
#
# _framework density 20.018229999999999
#
# number of rings (size 3 to 8) (size 9 to 14) (size 15 to 20)
#    0.000    1.600    1.000    2.700    9.800    7.200 
#    0.000    1.000    0.000    1.800    0.000    5.600 
#    0.000    0.000    0.000    0.000    0.000    0.000 
#
# Total GULP energy -223438.158837 kJ/mol
# GULP energy per Si atom -5585.953971 kJ/mol
# Density = 1.997267 g / cm^3
# Si number density = 20.018230 Si / 1000 Ang^3
#
#
#
# Elastic Constant Matrix: (Units=GPa)
#
#
# Indices 1 2 3 4 5 6 
#
# 1 61.6079 1.5113 24.4732 0.0000 0.0000 0.0000
# 2 1.5113 75.3499 16.2629 0.0000 0.0000 0.0000
# 3 24.4732 16.2629 98.0210 0.0000 0.0000 0.0000
# 4 0.0000 0.0000 0.0000 13.5167 0.0000 0.0000
# 5 0.0000 0.0000 0.0000 0.0000 11.4905 0.0000
# 6 0.0000 0.0000 0.0000 0.0000 0.0000 72.3634
#
#
#
# Elastic Compliance Matrix: (Units=1/GPa)
#
#
# Indices 1 2 3 4 5 6 
#
# 1 0.018048 0.000633 -0.004611 0.000000 0.000000 0.000000
# 2 0.000633 0.013787 -0.002445 0.000000 0.000000 0.000000
# 3 -0.004611 -0.002445 0.011759 0.000000 0.000000 0.000000
# 4 0.000000 0.000000 0.000000 0.073983 0.000000 0.000000
# 5 0.000000 0.000000 0.000000 0.000000 0.087029 0.000000
# 6 0.000000 0.000000 0.000000 0.000000 0.000000 0.013819
#
#
# Mechanical properties :
#
#
# Convention : Reuss Voigt Hill
#
# Bulk Modulus (GPa) = 32.52391 35.49707 34.01049
# Shear Modulus (GPa) = 20.70226 32.32286 26.51256
#
# Velocity S-wave (km/s) = 3.21934 4.02266 3.64321
# Velocity P-wave (km/s) = 5.48646 6.27268 5.89270
#
# Compressibility (1/GPa) = 0.03074661
#
# Stress axis : x y z
#
# Youngs Moduli (GPa) = 55.40811 72.53464 85.04194
#
# Poissons Ratio (x) = -0.04593 0.39214
# Poissons Ratio (y) = -0.03509 0.20797
# Poissons Ratio (z) = 0.25549 0.17738
#
# Static dielectric constant tensor:
#      x y z
#    x 1.724560 0.000000 0.000000 
#    y 0.000000 1.707690 0.000000 
#    z 0.000000 0.000000 1.701160 
# 
# From -- ./inp_files/21881.got.cif
#   From: 2010.05.17/outbox.cif.g08.bks.cpg/sg69_11_cif.got.tgz:21881.got - 2010.06.03 19:29:58.
