data_PCOD9512615
_publ_section_title
;
Structure prediction by ZEFSAII (Michael W. Deem and Ramdas Pophale) SiO2 
 PCOD9512615
Probable space group: F M M M
;
_chemical_formula_sum "Si O2"
_cell_formula_units_Z 160
_cell_length_a 28.475967
_cell_length_b 19.554388
_cell_length_c 13.427778
_cell_angle_alpha 90.000000
_cell_angle_beta 90.000000
_cell_angle_gamma 90.000000
_cell_volume 7476.991066
_symmetry_space_group_name_H-M "F M M M"
_symmetry_group_IT_number 69
_symmetry_cell_setting 'orthorhombic'
loop_
_space_group_symop_operation_xyz
x,y,z
-x,-y,z
x,-y,-z
-x,y,-z
-x,-y,-z
x,y,-z
-x,y,z
x,-y,z
x,1/2+y,1/2+z
-x,1/2-y,1/2+z
x,1/2-y,1/2-z
-x,1/2+y,1/2-z
-x,1/2-y,1/2-z
x,1/2+y,1/2-z
-x,1/2+y,1/2+z
x,1/2-y,1/2+z
1/2+x,y,1/2+z
1/2-x,-y,1/2+z
1/2+x,-y,1/2-z
1/2-x,y,1/2-z
1/2-x,-y,1/2-z
1/2+x,y,1/2-z
1/2-x,y,1/2+z
1/2+x,-y,1/2+z
1/2+x,1/2+y,z
1/2-x,1/2-y,z
1/2+x,1/2-y,-z
1/2-x,1/2+y,-z
1/2-x,1/2-y,-z
1/2+x,1/2+y,-z
1/2-x,1/2+y,z
1/2+x,1/2-y,z
loop_
_atom_site_type_symbol
_atom_site_label
_atom_site_fract_x
_atom_site_fract_y
_atom_site_fract_z
Si Si1 0.384192 0.887786 0.793909
Si Si2 0.254143 0.667841 0.500000
Si Si3 0.155117 0.074336 0.500000
Si Si4 0.309820 0.185246 0.319733
Si Si5 0.406117 0.249385 0.609628
Si Si6 0.945983 0.103127 0.887243
O O1 0.376327 0.920959 0.900618
O O2 0.332572 0.871825 0.750539
O O3 0.406897 0.812624 0.815450
O O4 0.414401 0.920692 0.705451
O O5 0.250000 0.750000 0.500000
O O6 0.305534 0.634322 0.500000
O O7 0.227067 0.653413 0.603593
O O8 0.179276 0.000000 0.500000
O O9 0.296326 0.250000 0.250000
O O10 0.354504 0.214993 0.380966
O O11 0.411097 0.279736 0.500000
O O12 0.441505 0.186074 0.616197
O O13 0.000000 0.083066 0.876076
O O14 0.930220 0.083872 0.000000
#
# Coordination Sequence:
#
# PCOD9512615 Si02
#       6
#    32  16  16  32  32  32
#     4  10  20  36  58  77 118 170 208 241 306 377
#     4  12  22  36  62  91 124 151 210 269 318 369
#     4  12  28  46  61  84 118 164 215 268 314 366
#     4   9  18  30  54  88 119 155 201 254 310 364
#     4   9  14  27  50  84 127 162 194 238 299 375
#     4   9  18  31  55  96 133 154 187 249 318 379
#
# _framework density 21.398982
#
# number of rings (size 3 to 8) (size 9 to 14) (size 15 to 20)
#    0.000    2.200    2.000    4.200    1.400    4.400 
#    0.000    2.500    0.000    1.800    0.000    1.400 
#    0.000    0.000    0.000    0.000    0.000    0.000 
#
# Total GULP energy -223011.107855 kJ/mol
# GULP energy per Si atom -5575.277696 kJ/mol
# Density = 2.135028 g / cm^3
# Si number density = 21.398982 Si / 1000 Ang^3
#
#
#
# Elastic Constant Matrix: (Units=GPa)
#
#
# Indices 1 2 3 4 5 6 
#
# 1 82.7752 16.2696 59.9537 0.0000 0.0000 0.0000
# 2 16.2696 77.6434 18.2882 0.0000 0.0000 0.0000
# 3 59.9537 18.2882 197.5452 0.0000 0.0000 0.0000
# 4 0.0000 0.0000 0.0000 -11.9024 0.0000 0.0000
# 5 0.0000 0.0000 0.0000 0.0000 28.0882 0.0000
# 6 0.0000 0.0000 0.0000 0.0000 0.0000 -26.1395
#
#
#
# Elastic Compliance Matrix: (Units=1/GPa)
#
#
# Indices 1 2 3 4 5 6 
#
# 1 0.015856 -0.002238 -0.004605 0.000000 0.000000 0.000000
# 2 -0.002238 0.013482 -0.000569 0.000000 0.000000 0.000000
# 3 -0.004605 -0.000569 0.006512 0.000000 0.000000 0.000000
# 4 0.000000 0.000000 0.000000 -0.084017 0.000000 0.000000
# 5 0.000000 0.000000 0.000000 0.000000 0.035602 0.000000
# 6 0.000000 0.000000 0.000000 0.000000 0.000000 -0.038256
#
#
# Mechanical properties :
#
#
# Convention : Reuss Voigt Hill
#
# Bulk Modulus (GPa) = 47.55764 60.77630 54.16697
# Shear Modulus (GPa) = -172.49168 15.57276 -78.45946
#
# Velocity S-wave (km/s) = -8.98790 2.70058 -6.06174
# Velocity P-wave (km/s) = 9.24323 6.17959 4.86056
#
# Compressibility (1/GPa) = 0.02102712
#
# Stress axis : x y z
#
# Youngs Moduli (GPa) = 63.06675 74.17107 153.55274
#
# Poissons Ratio (x) = 0.16599 0.70712
# Poissons Ratio (y) = 0.14114 0.08737
# Poissons Ratio (z) = 0.29043 0.04220
#
# Static dielectric constant tensor:
#      x y z
#    x 1.779700 0.000000 0.000000 
#    y 0.000000 1.789580 0.000000 
#    z 0.000000 0.000000 1.883380 
# 
# From -- ./inp_files/12308.got.cif
#   From: 2010.05.17/outbox.cif.g08.bks.cpg/sg69_7_cif.got.tgz:12308.got - 2010.06.03 19:29:58.
