data_PCOD9512179
_publ_section_title
;
Structure prediction by ZEFSAII (Michael W. Deem and Ramdas Pophale) SiO2 
 PCOD9512179
Probable space group: F M M M
;
_chemical_formula_sum "Si O2"
_cell_formula_units_Z 128
_cell_length_a 15.163781
_cell_length_b 18.581869
_cell_length_c 27.542083
_cell_angle_alpha 90.000000
_cell_angle_beta 90.000000
_cell_angle_gamma 90.000000
_cell_volume 7760.571068
_symmetry_space_group_name_H-M "F M M M"
_symmetry_group_IT_number 69
_symmetry_cell_setting 'orthorhombic'
loop_
_space_group_symop_operation_xyz
x,y,z
-x,-y,z
x,-y,-z
-x,y,-z
-x,-y,-z
x,y,-z
-x,y,z
x,-y,z
x,1/2+y,1/2+z
-x,1/2-y,1/2+z
x,1/2-y,1/2-z
-x,1/2+y,1/2-z
-x,1/2-y,1/2-z
x,1/2+y,1/2-z
-x,1/2+y,1/2+z
x,1/2-y,1/2+z
1/2+x,y,1/2+z
1/2-x,-y,1/2+z
1/2+x,-y,1/2-z
1/2-x,y,1/2-z
1/2-x,-y,1/2-z
1/2+x,y,1/2-z
1/2-x,y,1/2+z
1/2+x,-y,1/2+z
1/2+x,1/2+y,z
1/2-x,1/2-y,z
1/2+x,1/2-y,-z
1/2-x,1/2+y,-z
1/2-x,1/2-y,-z
1/2+x,1/2+y,-z
1/2-x,1/2+y,z
1/2+x,1/2-y,z
loop_
_atom_site_type_symbol
_atom_site_label
_atom_site_fract_x
_atom_site_fract_y
_atom_site_fract_z
Si Si1 0.500000 0.232014 0.809305
Si Si2 0.321978 0.421653 0.791435
Si Si3 0.000000 0.082415 0.731197
Si Si4 0.668298 0.801217 0.365865
Si Si5 0.393813 0.081999 0.556505
O O1 0.500000 0.250000 0.750000
O O2 0.500000 0.145123 0.808336
O O3 0.585811 0.261869 0.838419
O O4 0.326843 0.500000 0.815863
O O5 0.250000 0.424851 0.750000
O O6 0.415368 0.408830 0.765678
O O7 0.297476 0.358057 0.826486
O O8 0.000000 0.000000 0.712530
O O9 0.750000 0.750000 0.378884
O O10 0.638228 0.852517 0.410069
O O11 0.369929 0.093202 0.500000
O O12 0.500000 0.081543 0.559847
O O13 0.364775 0.000000 0.569786
#
# Coordination Sequence:
#
# PCOD9512179 Si02
#       5
#    16  32  16  32  32
#     4  12  22  36  51  77 114 152 194 232 275 334
#     4  10  20  33  48  71 103 143 189 228 264 320
#     4  10  20  34  50  66  97 151 194 229 268 310
#     4  12  23  33  55  83 115 150 184 232 288 344
#     4   9  19  39  64  87 111 140 184 243 300 349
#
# _framework density 16.493632000000002
#
# number of rings (size 3 to 8) (size 9 to 14) (size 15 to 20)
#    0.000    1.500    3.750    3.000    0.000    0.500 
#    0.000    1.250    0.000    0.000    0.000    0.000 
#    0.000    3.000    0.000    0.000    0.000    0.000 
#
# Total GULP energy -178289.263147 kJ/mol
# GULP energy per Si atom -5571.539473 kJ/mol
# Density = 1.645609 g / cm^3
# Si number density = 16.493632 Si / 1000 Ang^3
#
#
#
# Elastic Constant Matrix: (Units=GPa)
#
#
# Indices 1 2 3 4 5 6 
#
# 1 76.3702 30.1353 38.5290 0.0000 0.0000 0.0000
# 2 30.1353 144.3254 66.1570 0.0000 0.0000 0.0000
# 3 38.5290 66.1570 99.3672 0.0000 0.0000 0.0000
# 4 0.0000 0.0000 0.0000 37.3203 0.0000 0.0000
# 5 0.0000 0.0000 0.0000 0.0000 17.9623 0.0000
# 6 0.0000 0.0000 0.0000 0.0000 0.0000 30.2618
#
#
#
# Elastic Compliance Matrix: (Units=1/GPa)
#
#
# Indices 1 2 3 4 5 6 
#
# 1 0.016332 -0.000730 -0.005846 0.000000 0.000000 0.000000
# 2 -0.000730 0.010005 -0.006378 0.000000 0.000000 0.000000
# 3 -0.005846 -0.006378 0.016577 0.000000 0.000000 0.000000
# 4 0.000000 0.000000 0.000000 0.026795 0.000000 0.000000
# 5 0.000000 0.000000 0.000000 0.000000 0.055672 0.000000
# 6 0.000000 0.000000 0.000000 0.000000 0.000000 0.033045
#
#
# Mechanical properties :
#
#
# Convention : Reuss Voigt Hill
#
# Bulk Modulus (GPa) = 58.80799 65.52282 62.16540
# Shear Modulus (GPa) = 26.31543 29.45833 27.88688
#
# Velocity S-wave (km/s) = 3.99869 4.23074 4.11635
# Velocity P-wave (km/s) = 7.55326 7.97985 7.76948
#
# Compressibility (1/GPa) = 0.01700449
#
# Stress axis : x y z
#
# Youngs Moduli (GPa) = 61.23044 99.95196 60.32496
#
# Poissons Ratio (x) = 0.07298 0.35268
# Poissons Ratio (y) = 0.04471 0.38475
# Poissons Ratio (z) = 0.35798 0.63748
#
# Static dielectric constant tensor:
#      x y z
#    x 1.546460 0.000000 0.000000 
#    y 0.000000 1.596260 0.000000 
#    z 0.000000 0.000000 1.549920 
# 
# From -- ./inp_files/15351.got.cif
#   From: 2010.05.17/outbox.cif.g08.bks.cpg/sg69_8_cif.got.tgz:15351.got - 2010.06.03 19:29:58.
