data_PCOD9512623
_publ_section_title
;
Structure prediction by ZEFSAII (Michael W. Deem and Ramdas Pophale) SiO2 
 PCOD9512623
Probable space group: F M M M
;
_chemical_formula_sum "Si O2"
_cell_formula_units_Z 160
_cell_length_a 33.745978
_cell_length_b 13.835693
_cell_length_c 18.429528
_cell_angle_alpha 90.000000
_cell_angle_beta 90.000000
_cell_angle_gamma 90.000000
_cell_volume 8604.728039
_symmetry_space_group_name_H-M "F M M M"
_symmetry_group_IT_number 69
_symmetry_cell_setting 'orthorhombic'
loop_
_space_group_symop_operation_xyz
x,y,z
-x,-y,z
x,-y,-z
-x,y,-z
-x,-y,-z
x,y,-z
-x,y,z
x,-y,z
x,1/2+y,1/2+z
-x,1/2-y,1/2+z
x,1/2-y,1/2-z
-x,1/2+y,1/2-z
-x,1/2-y,1/2-z
x,1/2+y,1/2-z
-x,1/2+y,1/2+z
x,1/2-y,1/2+z
1/2+x,y,1/2+z
1/2-x,-y,1/2+z
1/2+x,-y,1/2-z
1/2-x,y,1/2-z
1/2-x,-y,1/2-z
1/2+x,y,1/2-z
1/2-x,y,1/2+z
1/2+x,-y,1/2+z
1/2+x,1/2+y,z
1/2-x,1/2-y,z
1/2+x,1/2-y,-z
1/2-x,1/2+y,-z
1/2-x,1/2-y,-z
1/2+x,1/2+y,-z
1/2-x,1/2+y,z
1/2+x,1/2-y,z
loop_
_atom_site_type_symbol
_atom_site_label
_atom_site_fract_x
_atom_site_fract_y
_atom_site_fract_z
Si Si1 0.570567 0.389250 0.217269
Si Si2 0.812824 0.386735 0.000000
Si Si3 0.205281 0.282567 0.148737
Si Si4 0.665286 0.888587 0.283798
Si Si5 0.045558 0.203802 0.633084
Si Si6 0.907966 0.886354 0.500000
O O1 0.561280 0.500000 0.199321
O O2 0.618094 0.379945 0.226488
O O3 0.556308 0.312480 0.157781
O O4 0.551481 0.358978 0.293820
O O5 0.797265 0.334846 0.072019
O O6 0.802228 0.500000 0.000000
O O7 0.860556 0.379509 0.000000
O O8 0.250000 0.250000 0.164193
O O9 0.178992 0.185447 0.154196
O O10 0.187721 0.352318 0.211299
O O11 0.674888 0.000000 0.298836
O O12 0.073964 0.163952 0.570907
O O13 0.000000 0.198375 0.609585
O O14 0.918641 0.000000 0.500000
#
# Coordination Sequence:
#
# PCOD9512623 Si02
#       6
#    32  16  32  32  32  16
#     4  10  20  36  58  82 110 147 187 223 265 324
#     4  11  23  40  60  79 107 148 188 228 277 334
#     4  11  22  36  56  84 115 143 180 229 277 328
#     4  10  20  36  59  83 110 147 186 224 268 323
#     4  11  22  35  55  83 113 143 179 229 281 327
#     4  11  23  39  59  81 108 144 185 231 281 333
#
# _framework density 18.594428000000001
#
# number of rings (size 3 to 8) (size 9 to 14) (size 15 to 20)
#    0.000    1.400    0.000    9.000    0.000    8.800 
#    0.000    1.000    0.000    4.800    0.000    0.000 
#    0.000    0.000    0.000    0.000    0.000    0.000 
#
# Total GULP energy -223567.627556 kJ/mol
# GULP energy per Si atom -5589.190689 kJ/mol
# Density = 1.855211 g / cm^3
# Si number density = 18.594428 Si / 1000 Ang^3
#
#
#
# Elastic Constant Matrix: (Units=GPa)
#
#
# Indices 1 2 3 4 5 6 
#
# 1 57.7785 17.3607 -4.5441 0.0000 0.0000 0.0000
# 2 17.3607 131.9724 29.6847 0.0000 0.0000 0.0000
# 3 -4.5441 29.6847 73.2312 0.0000 0.0000 0.0000
# 4 0.0000 0.0000 0.0000 16.2629 0.0000 0.0000
# 5 0.0000 0.0000 0.0000 0.0000 36.9331 0.0000
# 6 0.0000 0.0000 0.0000 0.0000 0.0000 -141.9719
#
#
#
# Elastic Compliance Matrix: (Units=1/GPa)
#
#
# Indices 1 2 3 4 5 6 
#
# 1 0.018375 -0.002942 0.002333 0.000000 0.000000 0.000000
# 2 -0.002942 0.008809 -0.003753 0.000000 0.000000 0.000000
# 3 0.002333 -0.003753 0.015321 0.000000 0.000000 0.000000
# 4 0.000000 0.000000 0.000000 0.061490 0.000000 0.000000
# 5 0.000000 0.000000 0.000000 0.000000 0.027076 0.000000
# 6 0.000000 0.000000 0.000000 0.000000 0.000000 -0.007044
#
#
# Mechanical properties :
#
#
# Convention : Reuss Voigt Hill
#
# Bulk Modulus (GPa) = 29.60311 38.66497 34.13404
# Shear Modulus (GPa) = 34.71943 -3.05645 15.83149
#
# Velocity S-wave (km/s) = 4.32579 -1.28348 2.92106
# Velocity P-wave (km/s) = 6.39570 4.31770 5.45653
#
# Compressibility (1/GPa) = 0.03378024
#
# Stress axis : x y z
#
# Youngs Moduli (GPa) = 54.42216 113.52623 65.26788
#
# Poissons Ratio (x) = 0.33398 -0.15225
# Poissons Ratio (y) = 0.16010 0.24496
# Poissons Ratio (z) = -0.12695 0.42608
#
# Static dielectric constant tensor:
#      x y z
#    x 1.646410 0.000000 0.000000 
#    y 0.000000 1.641690 0.000000 
#    z 0.000000 0.000000 1.608360 
# 
# From -- ./inp_files/27510.got.cif
#   From: 2010.05.17/outbox.cif.g08.bks.cpg/sg69_14_cif.got.tgz:27510.got - 2010.06.03 19:29:58.
