data_PCOD9512193
_publ_section_title
;
Structure prediction by ZEFSAII (Michael W. Deem and Ramdas Pophale) SiO2 
 PCOD9512193
Probable space group: F M M M
;
_chemical_formula_sum "Si O2"
_cell_formula_units_Z 144
_cell_length_a 8.610749
_cell_length_b 32.990961
_cell_length_c 27.824524
_cell_angle_alpha 90.000000
_cell_angle_beta 90.000000
_cell_angle_gamma 90.000000
_cell_volume 7904.304089
_symmetry_space_group_name_H-M "F M M M"
_symmetry_group_IT_number 69
_symmetry_cell_setting 'orthorhombic'
loop_
_space_group_symop_operation_xyz
x,y,z
-x,-y,z
x,-y,-z
-x,y,-z
-x,-y,-z
x,y,-z
-x,y,z
x,-y,z
x,1/2+y,1/2+z
-x,1/2-y,1/2+z
x,1/2-y,1/2-z
-x,1/2+y,1/2-z
-x,1/2-y,1/2-z
x,1/2+y,1/2-z
-x,1/2+y,1/2+z
x,1/2-y,1/2+z
1/2+x,y,1/2+z
1/2-x,-y,1/2+z
1/2+x,-y,1/2-z
1/2-x,y,1/2-z
1/2-x,-y,1/2-z
1/2+x,y,1/2-z
1/2-x,y,1/2+z
1/2+x,-y,1/2+z
1/2+x,1/2+y,z
1/2-x,1/2-y,z
1/2+x,1/2-y,-z
1/2-x,1/2+y,-z
1/2-x,1/2-y,-z
1/2+x,1/2+y,-z
1/2-x,1/2+y,z
1/2+x,1/2-y,z
loop_
_atom_site_type_symbol
_atom_site_label
_atom_site_fract_x
_atom_site_fract_y
_atom_site_fract_z
Si Si1 0.813844 0.332612 0.445610
Si Si2 0.814240 0.706665 0.850677
Si Si3 0.689288 0.000000 0.944567
Si Si4 0.811697 0.585634 0.901352
Si Si5 0.313542 0.876090 0.801699
O O1 0.766708 0.321995 0.500000
O O2 0.742300 0.304302 0.404411
O O3 0.758041 0.378172 0.433207
O O4 0.000000 0.330750 0.442417
O O5 0.750000 0.750000 0.835532
O O6 0.761914 0.669273 0.817089
O O7 0.000000 0.707443 0.850545
O O8 0.738380 0.958546 0.918884
O O9 0.500000 0.000000 0.944058
O O10 0.738852 0.000000 0.000000
O O11 0.768140 0.595183 0.846198
O O12 0.000000 0.588297 0.904850
O O13 0.500000 0.875913 0.799612
O O14 0.250000 0.887632 0.750000
#
# Coordination Sequence:
#
# PCOD9512193 Si02
#       5
#    32  32  16  32  32
#     4  10  20  33  50  73 102 137 172 206 250 302
#     4  10  21  36  53  75 101 130 167 210 254 300
#     4   9  16  28  52  81 105 133 169 209 250 293
#     4   9  18  33  52  76 103 132 171 213 252 297
#     4   9  19  34  52  73  98 131 168 208 253 300
#
# _framework density 18.217922000000002
#
# number of rings (size 3 to 8) (size 9 to 14) (size 15 to 20)
#    0.000    2.556    0.000    3.333    0.000    8.000 
#    0.000    3.333    0.000    2.000    0.000    0.000 
#    0.000    0.000    0.000    0.000    0.000    0.000 
#
# Total GULP energy -200862.245354 kJ/mol
# GULP energy per Si atom -5579.506815 kJ/mol
# Density = 1.817646 g / cm^3
# Si number density = 18.217922 Si / 1000 Ang^3
#
#
#
# Elastic Constant Matrix: (Units=GPa)
#
#
# Indices 1 2 3 4 5 6 
#
# 1 19.0086 8.6079 11.0502 0.0000 0.0000 0.0000
# 2 8.6079 98.0403 25.9825 0.0000 0.0000 0.0000
# 3 11.0502 25.9825 99.0714 0.0000 0.0000 0.0000
# 4 0.0000 0.0000 0.0000 6.5055 0.0000 0.0000
# 5 0.0000 0.0000 0.0000 0.0000 28.5326 0.0000
# 6 0.0000 0.0000 0.0000 0.0000 0.0000 19.0371
#
#
#
# Elastic Compliance Matrix: (Units=1/GPa)
#
#
# Indices 1 2 3 4 5 6 
#
# 1 0.057409 -0.003593 -0.005461 0.000000 0.000000 0.000000
# 2 -0.003593 0.011187 -0.002533 0.000000 0.000000 0.000000
# 3 -0.005461 -0.002533 0.011367 0.000000 0.000000 0.000000
# 4 0.000000 0.000000 0.000000 0.153716 0.000000 0.000000
# 5 0.000000 0.000000 0.000000 0.000000 0.035048 0.000000
# 6 0.000000 0.000000 0.000000 0.000000 0.000000 0.052529
#
#
# Mechanical properties :
#
#
# Convention : Reuss Voigt Hill
#
# Bulk Modulus (GPa) = 17.60910 34.15572 25.88241
# Shear Modulus (GPa) = 13.76045 22.18035 17.97040
#
# Velocity S-wave (km/s) = 2.75130 3.49306 3.14413
# Velocity P-wave (km/s) = 4.44743 5.92096 5.23629
#
# Compressibility (1/GPa) = 0.05678882
#
# Stress axis : x y z
#
# Youngs Moduli (GPa) = 17.41873 89.39199 87.97289
#
# Poissons Ratio (x) = 0.32121 0.48041
# Poissons Ratio (y) = 0.06259 0.22284
# Poissons Ratio (z) = 0.09512 0.22643
#
# Static dielectric constant tensor:
#      x y z
#    x 1.618120 0.000000 0.000000 
#    y 0.000000 1.615860 0.000000 
#    z 0.000000 0.000000 1.615610 
# 
# From -- ./inp_files/5600.got.cif
#   From: 2010.05.17/outbox.cif.g08.bks.cpg/sg69_3_cif.got.tgz:5600.got - 2010.06.03 19:29:58.
