data_PCOD9512879
_publ_section_title
;
Structure prediction by ZEFSAII (Michael W. Deem and Ramdas Pophale) SiO2 
 PCOD9512879
Probable space group: F M M M
;
_chemical_formula_sum "Si O2"
_cell_formula_units_Z 160
_cell_length_a 18.387307
_cell_length_b 22.975657
_cell_length_c 19.250019
_cell_angle_alpha 90.000000
_cell_angle_beta 90.000000
_cell_angle_gamma 90.000000
_cell_volume 8132.371858
_symmetry_space_group_name_H-M "F M M M"
_symmetry_group_IT_number 69
_symmetry_cell_setting 'orthorhombic'
loop_
_space_group_symop_operation_xyz
x,y,z
-x,-y,z
x,-y,-z
-x,y,-z
-x,-y,-z
x,y,-z
-x,y,z
x,-y,z
x,1/2+y,1/2+z
-x,1/2-y,1/2+z
x,1/2-y,1/2-z
-x,1/2+y,1/2-z
-x,1/2-y,1/2-z
x,1/2+y,1/2-z
-x,1/2+y,1/2+z
x,1/2-y,1/2+z
1/2+x,y,1/2+z
1/2-x,-y,1/2+z
1/2+x,-y,1/2-z
1/2-x,y,1/2-z
1/2-x,-y,1/2-z
1/2+x,y,1/2-z
1/2-x,y,1/2+z
1/2+x,-y,1/2+z
1/2+x,1/2+y,z
1/2-x,1/2-y,z
1/2+x,1/2-y,-z
1/2-x,1/2+y,-z
1/2-x,1/2-y,-z
1/2+x,1/2+y,-z
1/2-x,1/2+y,z
1/2+x,1/2-y,z
loop_
_atom_site_type_symbol
_atom_site_label
_atom_site_fract_x
_atom_site_fract_y
_atom_site_fract_z
Si Si1 0.197472 0.500000 0.858973
Si Si2 0.214020 0.685606 0.347529
Si Si3 0.581706 0.374788 0.220466
Si Si4 0.586015 0.310301 0.500000
Si Si5 0.355842 0.621155 0.367123
Si Si6 0.317545 0.204925 0.500000
Si Si7 0.645619 0.500000 0.197270
O O1 0.162650 0.443181 0.892449
O O2 0.284724 0.500000 0.853602
O O3 0.173165 0.500000 0.777571
O O4 0.250000 0.750000 0.340483
O O5 0.142313 0.671608 0.304017
O O6 0.280377 0.642703 0.332609
O O7 0.191487 0.673275 0.427353
O O8 0.500000 0.358833 0.199853
O O9 0.587459 0.378860 0.304158
O O10 0.602587 0.439013 0.191103
O O11 0.500000 0.318503 0.500000
O O12 0.620516 0.338598 0.430783
O O13 0.609812 0.243151 0.500000
O O14 0.250000 0.250000 0.500000
#
# Coordination Sequence:
#
# PCOD9512879 Si02
#       7
#    16  32  32  16  32  16  16
#     4   9  18  33  63  90 111 156 204 240 282 363
#     4  11  21  40  64  86 116 160 208 247 291 359
#     4  11  23  37  60  95 127 155 197 255 310 352
#     4  12  24  41  63  86 121 161 197 250 311 358
#     4  11  21  40  61  88 123 159 203 242 295 366
#     4  10  20  42  62  84 109 158 210 242 288 360
#     4   9  17  36  60  88 120 158 197 240 297 361
#
# _framework density 19.674457
#
# number of rings (size 3 to 8) (size 9 to 14) (size 15 to 20)
#    0.000    1.400    6.000    1.500    0.000    2.800 
#    0.000    3.000    0.000    0.600    0.000    1.400 
#    0.000    0.000    0.000    0.000    0.000    0.000 
#
# Total GULP energy -223205.383160 kJ/mol
# GULP energy per Si atom -5580.134579 kJ/mol
# Density = 1.962968 g / cm^3
# Si number density = 19.674457 Si / 1000 Ang^3
#
#
#
# Elastic Constant Matrix: (Units=GPa)
#
#
# Indices 1 2 3 4 5 6 
#
# 1 140.0134 27.1257 23.6818 0.0000 0.0000 0.0000
# 2 27.1257 62.5824 -7.3114 0.0000 0.0000 0.0000
# 3 23.6818 -7.3114 65.1957 0.0000 0.0000 0.0000
# 4 0.0000 0.0000 0.0000 7.7343 0.0000 0.0000
# 5 0.0000 0.0000 0.0000 0.0000 15.4572 0.0000
# 6 0.0000 0.0000 0.0000 0.0000 0.0000 21.9399
#
#
#
# Elastic Compliance Matrix: (Units=1/GPa)
#
#
# Indices 1 2 3 4 5 6 
#
# 1 0.008543 -0.004120 -0.003565 0.000000 0.000000 0.000000
# 2 -0.004120 0.018177 0.003535 0.000000 0.000000 0.000000
# 3 -0.003565 0.003535 0.017030 0.000000 0.000000 0.000000
# 4 0.000000 0.000000 0.000000 0.129295 0.000000 0.000000
# 5 0.000000 0.000000 0.000000 0.000000 0.064695 0.000000
# 6 0.000000 0.000000 0.000000 0.000000 0.000000 0.045579
#
#
# Mechanical properties :
#
#
# Convention : Reuss Voigt Hill
#
# Bulk Modulus (GPa) = 28.20802 39.42042 33.81422
# Shear Modulus (GPa) = 16.47793 23.97930 20.22861
#
# Velocity S-wave (km/s) = 2.89715 3.49492 3.20998
# Velocity P-wave (km/s) = 5.05567 6.03041 5.56442
#
# Compressibility (1/GPa) = 0.03545091
#
# Stress axis : x y z
#
# Youngs Moduli (GPa) = 117.05071 55.01312 58.72018
#
# Poissons Ratio (x) = 0.22663 0.20935
# Poissons Ratio (y) = 0.48219 -0.20757
# Poissons Ratio (z) = 0.41732 -0.19447
#
# Static dielectric constant tensor:
#      x y z
#    x 1.693620 0.000000 0.000000 
#    y 0.000000 1.735650 0.000000 
#    z 0.000000 0.000000 1.701600 
# 
# From -- ./inp_files/31073.got.cif
#   From: 2010.05.17/outbox.cif.g08.bks.cpg/sg69_16_cif.got.tgz:31073.got - 2010.06.03 19:29:58.
