data_PCOD9512373
_publ_section_title
;
Structure prediction by ZEFSAII (Michael W. Deem and Ramdas Pophale) SiO2 
 PCOD9512373
Probable space group: F M M M
;
_chemical_formula_sum "Si O2"
_cell_formula_units_Z 160
_cell_length_a 18.359618
_cell_length_b 27.557165
_cell_length_c 18.150529
_cell_angle_alpha 90.000000
_cell_angle_beta 90.000000
_cell_angle_gamma 90.000000
_cell_volume 9183.060901
_symmetry_space_group_name_H-M "F M M M"
_symmetry_group_IT_number 69
_symmetry_cell_setting 'orthorhombic'
loop_
_space_group_symop_operation_xyz
x,y,z
-x,-y,z
x,-y,-z
-x,y,-z
-x,-y,-z
x,y,-z
-x,y,z
x,-y,z
x,1/2+y,1/2+z
-x,1/2-y,1/2+z
x,1/2-y,1/2-z
-x,1/2+y,1/2-z
-x,1/2-y,1/2-z
x,1/2+y,1/2-z
-x,1/2+y,1/2+z
x,1/2-y,1/2+z
1/2+x,y,1/2+z
1/2-x,-y,1/2+z
1/2+x,-y,1/2-z
1/2-x,y,1/2-z
1/2-x,-y,1/2-z
1/2+x,y,1/2-z
1/2-x,y,1/2+z
1/2+x,-y,1/2+z
1/2+x,1/2+y,z
1/2-x,1/2-y,z
1/2+x,1/2-y,-z
1/2-x,1/2+y,-z
1/2-x,1/2-y,-z
1/2+x,1/2+y,-z
1/2-x,1/2+y,z
1/2+x,1/2-y,z
loop_
_atom_site_type_symbol
_atom_site_label
_atom_site_fract_x
_atom_site_fract_y
_atom_site_fract_z
Si Si1 0.586127 0.196147 0.844798
Si Si2 0.670915 0.147043 0.714918
Si Si3 0.675189 0.780347 0.586007
Si Si4 0.912257 0.094268 0.418916
Si Si5 0.412153 0.554809 0.262186
O O1 0.500000 0.196581 0.830842
O O2 0.628583 0.184085 0.769638
O O3 0.612934 0.244984 0.882640
O O4 0.602524 0.150404 0.898579
O O5 0.750000 0.138858 0.750000
O O6 0.678275 0.172053 0.636065
O O7 0.626328 0.097028 0.716401
O O8 0.664845 0.790572 0.500000
O O9 0.750000 0.750000 0.595111
O O10 0.883277 0.081734 0.500000
O O11 0.889126 0.063627 0.347694
O O12 0.000000 0.089120 0.422080
O O13 0.500000 0.561001 0.259118
O O14 0.394591 0.500000 0.239976
#
# Coordination Sequence:
#
# PCOD9512373 Si02
#       5
#    32  32  32  32  32
#     4  10  20  34  55  81 110 147 188 229 271 326
#     4  11  21  36  57  80 108 147 187 228 274 337
#     4  11  23  37  54  80 115 151 184 223 276 332
#     4   8  14  26  46  75 109 140 172 216 274 331
#     4   9  19  35  54  78 107 141 187 240 285 326
#
# _framework density 17.423383999999999
#
# number of rings (size 3 to 8) (size 9 to 14) (size 15 to 20)
#    0.000    2.200    2.000    3.000    0.000    4.400 
#    0.000    2.000    0.000    0.600    0.000    1.400 
#    0.000    0.000    0.000    0.000    0.000    0.000 
#
# Total GULP energy -223167.298472 kJ/mol
# GULP energy per Si atom -5579.182462 kJ/mol
# Density = 1.738373 g / cm^3
# Si number density = 17.423384 Si / 1000 Ang^3
#
#
#
# Elastic Constant Matrix: (Units=GPa)
#
#
# Indices 1 2 3 4 5 6 
#
# 1 54.9187 32.6938 27.4380 0.0000 0.0000 0.0000
# 2 32.6938 115.8484 62.1149 0.0000 0.0000 0.0000
# 3 27.4380 62.1149 101.5716 0.0000 0.0000 0.0000
# 4 0.0000 0.0000 0.0000 6.7028 0.0000 0.0000
# 5 0.0000 0.0000 0.0000 0.0000 16.0947 0.0000
# 6 0.0000 0.0000 0.0000 0.0000 0.0000 20.1596
#
#
#
# Elastic Compliance Matrix: (Units=1/GPa)
#
#
# Indices 1 2 3 4 5 6 
#
# 1 0.022597 -0.004619 -0.003280 0.000000 0.000000 0.000000
# 2 -0.004619 0.013787 -0.007184 0.000000 0.000000 0.000000
# 3 -0.003280 -0.007184 0.015124 0.000000 0.000000 0.000000
# 4 0.000000 0.000000 0.000000 0.149192 0.000000 0.000000
# 5 0.000000 0.000000 0.000000 0.000000 0.062132 0.000000
# 6 0.000000 0.000000 0.000000 0.000000 0.000000 0.049604
#
#
# Mechanical properties :
#
#
# Convention : Reuss Voigt Hill
#
# Bulk Modulus (GPa) = 46.85108 57.42578 52.13843
# Shear Modulus (GPa) = 14.29734 18.59754 16.44744
#
# Velocity S-wave (km/s) = 2.86769 3.27064 3.07577
# Velocity P-wave (km/s) = 6.15735 6.87702 6.52711
#
# Compressibility (1/GPa) = 0.02134423
#
# Stress axis : x y z
#
# Youngs Moduli (GPa) = 44.25406 72.53153 66.11854
#
# Poissons Ratio (x) = 0.33499 0.21685
# Poissons Ratio (y) = 0.20439 0.47498
# Poissons Ratio (z) = 0.14514 0.52105
#
# Static dielectric constant tensor:
#      x y z
#    x 1.597670 0.000000 0.000000 
#    y 0.000000 1.591600 0.000000 
#    z 0.000000 0.000000 1.599610 
# 
# From -- ./inp_files/23105.got.cif
#   From: 2010.05.17/outbox.cif.g08.bks.cpg/sg69_12_cif.got.tgz:23105.got - 2010.06.03 19:29:58.
