data_PCOD9512596
_publ_section_title
;
Structure prediction by ZEFSAII (Michael W. Deem and Ramdas Pophale) SiO2 
 PCOD9512596
Probable space group: F M M M
;
_chemical_formula_sum "Si O2"
_cell_formula_units_Z 160
_cell_length_a 18.459678
_cell_length_b 33.338321
_cell_length_c 14.475458
_cell_angle_alpha 90.000000
_cell_angle_beta 90.000000
_cell_angle_gamma 90.000000
_cell_volume 8908.409219
_symmetry_space_group_name_H-M "F M M M"
_symmetry_group_IT_number 69
_symmetry_cell_setting 'orthorhombic'
loop_
_space_group_symop_operation_xyz
x,y,z
-x,-y,z
x,-y,-z
-x,y,-z
-x,-y,-z
x,y,-z
-x,y,z
x,-y,z
x,1/2+y,1/2+z
-x,1/2-y,1/2+z
x,1/2-y,1/2-z
-x,1/2+y,1/2-z
-x,1/2-y,1/2-z
x,1/2+y,1/2-z
-x,1/2+y,1/2+z
x,1/2-y,1/2+z
1/2+x,y,1/2+z
1/2-x,-y,1/2+z
1/2+x,-y,1/2-z
1/2-x,y,1/2-z
1/2-x,-y,1/2-z
1/2+x,y,1/2-z
1/2-x,y,1/2+z
1/2+x,-y,1/2+z
1/2+x,1/2+y,z
1/2-x,1/2-y,z
1/2+x,1/2-y,-z
1/2-x,1/2+y,-z
1/2-x,1/2-y,-z
1/2+x,1/2+y,-z
1/2-x,1/2+y,z
1/2+x,1/2-y,z
loop_
_atom_site_type_symbol
_atom_site_label
_atom_site_fract_x
_atom_site_fract_y
_atom_site_fract_z
Si Si1 0.656083 0.059491 0.608947
Si Si2 0.287428 0.000000 0.891408
Si Si3 0.420802 0.702390 0.270274
Si Si4 0.857764 0.653876 0.606121
Si Si5 0.583307 0.000000 0.744035
Si Si6 0.783547 0.792371 0.607314
O O1 0.639782 0.051998 0.500000
O O2 0.734238 0.038235 0.625775
O O3 0.652943 0.106872 0.624543
O O4 0.600855 0.037612 0.677356
O O5 0.357191 0.000000 0.825932
O O6 0.306897 0.000000 0.000000
O O7 0.500000 0.693143 0.310143
O O8 0.418764 0.750000 0.250000
O O9 0.408851 0.676692 0.177773
O O10 0.353340 0.694619 0.336440
O O11 0.882753 0.658768 0.500000
O O12 0.780022 0.675404 0.614169
O O13 0.500000 0.000000 0.774757
O O14 0.803312 0.786638 0.500000
O O15 0.750000 0.750000 0.640222
#
# Coordination Sequence:
#
# PCOD9512596 Si02
#       6
#    32  16  32  32  16  32
#     4   9  19  37  60  85 110 144 192 240 281 329
#     4   9  19  37  59  83 116 151 189 232 276 327
#     4  11  23  35  51  78 111 145 179 223 283 344
#     4  10  21  37  60  85 109 144 192 239 283 333
#     4  11  22  34  55  87 121 155 185 223 284 344
#     4  10  20  36  57  78 102 137 184 235 281 327
#
# _framework density 17.960557999999999
#
# number of rings (size 3 to 8) (size 9 to 14) (size 15 to 20)
#    0.000    2.000    2.000    2.700    0.000    5.800 
#    0.000    4.000    0.000    0.000    0.000    8.400 
#    0.000    0.000    0.000    0.000    0.000    0.000 
#
# Total GULP energy -223224.777610 kJ/mol
# GULP energy per Si atom -5580.619440 kJ/mol
# Density = 1.791968 g / cm^3
# Si number density = 17.960558 Si / 1000 Ang^3
#
#
#
# Elastic Constant Matrix: (Units=GPa)
#
#
# Indices 1 2 3 4 5 6 
#
# 1 81.4764 18.2631 43.0314 0.0000 0.0000 0.0000
# 2 18.2631 118.0137 38.1934 0.0000 0.0000 0.0000
# 3 43.0314 38.1934 75.7604 0.0000 0.0000 0.0000
# 4 0.0000 0.0000 0.0000 -3.5800 0.0000 0.0000
# 5 0.0000 0.0000 0.0000 0.0000 1.9892 0.0000
# 6 0.0000 0.0000 0.0000 0.0000 0.0000 -8.1652
#
#
#
# Elastic Compliance Matrix: (Units=1/GPa)
#
#
# Indices 1 2 3 4 5 6 
#
# 1 0.017570 0.000610 -0.010287 0.000000 0.000000 0.000000
# 2 0.000610 0.010147 -0.005462 0.000000 0.000000 0.000000
# 3 -0.010287 -0.005462 0.021796 0.000000 0.000000 0.000000
# 4 0.000000 0.000000 0.000000 -0.279332 0.000000 0.000000
# 5 0.000000 0.000000 0.000000 0.000000 0.502718 0.000000
# 6 0.000000 0.000000 0.000000 0.000000 0.000000 -0.122471
#
#
# Mechanical properties :
#
#
# Convention : Reuss Voigt Hill
#
# Bulk Modulus (GPa) = 51.98862 52.69182 52.34022
# Shear Modulus (GPa) = 26.72107 9.76630 18.24368
#
# Velocity S-wave (km/s) = 3.86134 2.33440 3.19056
# Velocity P-wave (km/s) = 6.99205 6.05534 6.54048
#
# Compressibility (1/GPa) = 0.01923498
#
# Stress axis : x y z
#
# Youngs Moduli (GPa) = 56.91562 98.55278 45.87959
#
# Poissons Ratio (x) = -0.06015 0.47197
# Poissons Ratio (y) = -0.03474 0.25060
# Poissons Ratio (z) = 0.58551 0.53830
#
# Static dielectric constant tensor:
#      x y z
#    x 1.595970 0.000000 0.000000 
#    y 0.000000 1.619010 0.000000 
#    z 0.000000 0.000000 1.639650 
# 
# From -- ./inp_files/15659.got.cif
#   From: 2010.05.17/outbox.cif.g08.bks.cpg/sg69_8_cif.got.tgz:15659.got - 2010.06.03 19:29:58.
