data_PCOD9512206
_publ_section_title
;
Structure prediction by ZEFSAII (Michael W. Deem and Ramdas Pophale) SiO2 
 PCOD9512206
Probable space group: F M M M
;
_chemical_formula_sum "Si O2"
_cell_formula_units_Z 160
_cell_length_a 24.970446
_cell_length_b 28.106702
_cell_length_c 12.933019
_cell_angle_alpha 90.000000
_cell_angle_beta 90.000000
_cell_angle_gamma 90.000000
_cell_volume 9076.869763
_symmetry_space_group_name_H-M "F M M M"
_symmetry_group_IT_number 69
_symmetry_cell_setting 'orthorhombic'
loop_
_space_group_symop_operation_xyz
x,y,z
-x,-y,z
x,-y,-z
-x,y,-z
-x,-y,-z
x,y,-z
-x,y,z
x,-y,z
x,1/2+y,1/2+z
-x,1/2-y,1/2+z
x,1/2-y,1/2-z
-x,1/2+y,1/2-z
-x,1/2-y,1/2-z
x,1/2+y,1/2-z
-x,1/2+y,1/2+z
x,1/2-y,1/2+z
1/2+x,y,1/2+z
1/2-x,-y,1/2+z
1/2+x,-y,1/2-z
1/2-x,y,1/2-z
1/2-x,-y,1/2-z
1/2+x,y,1/2-z
1/2-x,y,1/2+z
1/2+x,-y,1/2+z
1/2+x,1/2+y,z
1/2-x,1/2-y,z
1/2+x,1/2-y,-z
1/2-x,1/2+y,-z
1/2-x,1/2-y,-z
1/2+x,1/2+y,-z
1/2-x,1/2+y,z
1/2+x,1/2-y,z
loop_
_atom_site_type_symbol
_atom_site_label
_atom_site_fract_x
_atom_site_fract_y
_atom_site_fract_z
Si Si1 0.735150 0.805133 0.886935
Si Si2 0.563745 0.351244 0.500000
Si Si3 0.665040 0.848365 0.298660
Si Si4 0.439168 0.306025 0.725712
Si Si5 0.360792 0.944648 0.000000
Si Si6 0.812874 0.052773 0.274904
O O1 0.750000 0.750000 0.867164
O O2 0.695111 0.826677 0.803138
O O3 0.791456 0.833082 0.882842
O O4 0.710476 0.808776 0.000000
O O5 0.500000 0.361928 0.500000
O O6 0.573783 0.321400 0.393613
O O7 0.597002 0.400896 0.500000
O O8 0.606162 0.827470 0.299415
O O9 0.660645 0.904509 0.286348
O O10 0.500000 0.322722 0.745363
O O11 0.437979 0.250000 0.750000
O O12 0.325388 0.940332 0.896270
O O13 0.382212 0.000000 0.000000
O O14 0.750000 0.055898 0.250000
O O15 0.831588 0.000000 0.246397
#
# Coordination Sequence:
#
# PCOD9512206 Si02
#       6
#    32  16  32  32  16  32
#     4  10  21  33  49  76 104 133 172 215 263 319
#     4  10  20  35  58  81 105 139 176 222 276 320
#     4  11  19  34  54  72 103 140 173 213 269 313
#     4  10  21  36  54  77 105 141 183 219 259 317
#     4  10  20  35  56  79 107 141 174 220 274 322
#     4  10  20  33  51  76 104 138 175 213 261 320
#
# _framework density 17.627222
#
# number of rings (size 3 to 8) (size 9 to 14) (size 15 to 20)
#    0.000    1.800    4.000    2.400    2.800    0.200 
#    1.800    0.000    0.000    0.600    0.000    0.000 
#    0.000    0.000    0.000    1.800    0.000   11.600 
#
# Total GULP energy -222914.923154 kJ/mol
# GULP energy per Si atom -5572.873079 kJ/mol
# Density = 1.758710 g / cm^3
# Si number density = 17.627222 Si / 1000 Ang^3
#
#
#
# Elastic Constant Matrix: (Units=GPa)
#
#
# Indices 1 2 3 4 5 6 
#
# 1 88.2791 35.4844 7.3942 0.0000 0.0000 0.0000
# 2 35.4844 114.3627 19.9872 0.0000 0.0000 0.0000
# 3 7.3942 19.9872 55.6260 0.0000 0.0000 0.0000
# 4 0.0000 0.0000 0.0000 48.5998 0.0000 0.0000
# 5 0.0000 0.0000 0.0000 0.0000 35.3437 0.0000
# 6 0.0000 0.0000 0.0000 0.0000 0.0000 27.0032
#
#
#
# Elastic Compliance Matrix: (Units=1/GPa)
#
#
# Indices 1 2 3 4 5 6 
#
# 1 0.012946 -0.003965 -0.000296 0.000000 0.000000 0.000000
# 2 -0.003965 0.010544 -0.003262 0.000000 0.000000 0.000000
# 3 -0.000296 -0.003262 0.019189 0.000000 0.000000 0.000000
# 4 0.000000 0.000000 0.000000 0.020576 0.000000 0.000000
# 5 0.000000 0.000000 0.000000 0.000000 0.028294 0.000000
# 6 0.000000 0.000000 0.000000 0.000000 0.000000 0.037033
#
#
# Mechanical properties :
#
#
# Convention : Reuss Voigt Hill
#
# Bulk Modulus (GPa) = 36.18829 42.66660 39.42745
# Shear Modulus (GPa) = 32.71415 35.21616 33.96516
#
# Velocity S-wave (km/s) = 4.31268 4.47456 4.39436
# Velocity P-wave (km/s) = 6.73597 7.13814 6.93997
#
# Compressibility (1/GPa) = 0.02763325
#
# Stress axis : x y z
#
# Youngs Moduli (GPa) = 77.24173 94.83628 52.11440
#
# Poissons Ratio (x) = 0.37605 0.01543
# Poissons Ratio (y) = 0.30628 0.16998
# Poissons Ratio (z) = 0.02287 0.30933
#
# Static dielectric constant tensor:
#      x y z
#    x 1.603240 0.000000 0.000000 
#    y 0.000000 1.624900 0.000000 
#    z 0.000000 0.000000 1.626590 
# 
# From -- ./inp_files/18033.got.cif
#   From: 2010.05.17/outbox.cif.g08.bks.cpg/sg69_10_cif.got.tgz:18033.got - 2010.06.03 19:29:58.
