data_PCOD9512656
_publ_section_title
;
Structure prediction by ZEFSAII (Michael W. Deem and Ramdas Pophale) SiO2 
 PCOD9512656
Probable space group: F M M M
;
_chemical_formula_sum "Si O2"
_cell_formula_units_Z 192
_cell_length_a 28.281026
_cell_length_b 15.704115
_cell_length_c 20.291477
_cell_angle_alpha 90.000000
_cell_angle_beta 90.000000
_cell_angle_gamma 90.000000
_cell_volume 9012.022931
_symmetry_space_group_name_H-M "F M M M"
_symmetry_group_IT_number 69
_symmetry_cell_setting 'orthorhombic'
loop_
_space_group_symop_operation_xyz
x,y,z
-x,-y,z
x,-y,-z
-x,y,-z
-x,-y,-z
x,y,-z
-x,y,z
x,-y,z
x,1/2+y,1/2+z
-x,1/2-y,1/2+z
x,1/2-y,1/2-z
-x,1/2+y,1/2-z
-x,1/2-y,1/2-z
x,1/2+y,1/2-z
-x,1/2+y,1/2+z
x,1/2-y,1/2+z
1/2+x,y,1/2+z
1/2-x,-y,1/2+z
1/2+x,-y,1/2-z
1/2-x,y,1/2-z
1/2-x,-y,1/2-z
1/2+x,y,1/2-z
1/2-x,y,1/2+z
1/2+x,-y,1/2+z
1/2+x,1/2+y,z
1/2-x,1/2-y,z
1/2+x,1/2-y,-z
1/2-x,1/2+y,-z
1/2-x,1/2-y,-z
1/2+x,1/2+y,-z
1/2-x,1/2+y,z
1/2+x,1/2-y,z
loop_
_atom_site_type_symbol
_atom_site_label
_atom_site_fract_x
_atom_site_fract_y
_atom_site_fract_z
Si Si1 0.553275 0.500000 0.420231
Si Si2 0.319668 0.403271 0.383281
Si Si3 0.443643 0.834315 0.338048
Si Si4 0.095234 0.681264 0.924556
Si Si5 0.138319 0.600860 0.736012
Si Si6 0.232560 0.152478 0.179714
Si Si7 0.556834 0.000000 0.574092
O O1 0.500000 0.500000 0.395569
O O2 0.553202 0.500000 0.500000
O O3 0.577091 0.588391 0.401329
O O4 0.329171 0.500000 0.405810
O O5 0.348196 0.332451 0.423315
O O6 0.340708 0.390231 0.309313
O O7 0.263459 0.391313 0.376606
O O8 0.500000 0.830957 0.325718
O O9 0.425646 0.752135 0.377208
O O10 0.411427 0.852468 0.274363
O O11 0.432136 0.915150 0.385211
O O12 0.079495 0.696455 0.000000
O O13 0.133902 0.500000 0.724201
O O14 0.176551 0.640665 0.684836
O O15 0.250000 0.114406 0.250000
O O16 0.250000 0.250000 0.178902
O O17 0.500000 0.000000 0.568672
O O18 0.576717 0.000000 0.500000
#
# Coordination Sequence:
#
# PCOD9512656 Si02
#       7
#    16  32  32  32  32  32  16
#     4   9  18  34  53  74 105 142 187 242 284 325
#     4  10  20  36  59  87 120 156 197 243 297 360
#     4  11  22  37  59  85 116 155 194 245 301 352
#     4  11  22  37  59  86 114 151 201 248 293 350
#     4  10  20  36  59  87 121 156 197 243 295 359
#     4   9  17  31  55  87 117 151 193 239 289 348
#     4   9  18  34  55  78 105 144 192 235 279 336
#
# _framework density 21.304873000000001
#
# number of rings (size 3 to 8) (size 9 to 14) (size 15 to 20)
#    0.000    2.000    1.667    2.500    0.000    5.667 
#    0.000    2.500    0.000    5.500    0.000    0.000 
#    0.000    0.000    0.000    0.000    0.000    0.000 
#
# Total GULP energy -267890.457943 kJ/mol
# GULP energy per Si atom -5581.051207 kJ/mol
# Density = 2.125638 g / cm^3
# Si number density = 21.304873 Si / 1000 Ang^3
#
#
#
# Elastic Constant Matrix: (Units=GPa)
#
#
# Indices 1 2 3 4 5 6 
#
# 1 103.6111 20.2414 15.6569 0.0000 0.0000 0.0000
# 2 20.2414 112.0571 18.0609 0.0000 0.0000 0.0000
# 3 15.6569 18.0609 38.5055 0.0000 0.0000 0.0000
# 4 0.0000 0.0000 0.0000 18.3242 0.0000 0.0000
# 5 0.0000 0.0000 0.0000 0.0000 22.1084 0.0000
# 6 0.0000 0.0000 0.0000 0.0000 0.0000 26.2435
#
#
#
# Elastic Compliance Matrix: (Units=1/GPa)
#
#
# Indices 1 2 3 4 5 6 
#
# 1 0.010456 -0.001302 -0.003641 0.000000 0.000000 0.000000
# 2 -0.001302 0.009816 -0.004075 0.000000 0.000000 0.000000
# 3 -0.003641 -0.004075 0.029362 0.000000 0.000000 0.000000
# 4 0.000000 0.000000 0.000000 0.054573 0.000000 0.000000
# 5 0.000000 0.000000 0.000000 0.000000 0.045232 0.000000
# 6 0.000000 0.000000 0.000000 0.000000 0.000000 0.038105
#
#
# Mechanical properties :
#
#
# Convention : Reuss Voigt Hill
#
# Bulk Modulus (GPa) = 31.64678 40.23247 35.93963
# Shear Modulus (GPa) = 23.13625 26.68285 24.90955
#
# Velocity S-wave (km/s) = 3.29897 3.54281 3.42306
# Velocity P-wave (km/s) = 5.42194 5.97164 5.70341
#
# Compressibility (1/GPa) = 0.03159879
#
# Stress axis : x y z
#
# Youngs Moduli (GPa) = 95.63892 101.87507 34.05764
#
# Poissons Ratio (x) = 0.13263 0.12400
# Poissons Ratio (y) = 0.12451 0.13878
# Poissons Ratio (z) = 0.34821 0.41512
#
# Static dielectric constant tensor:
#      x y z
#    x 1.842060 0.000000 0.000000 
#    y 0.000000 1.773120 0.000000 
#    z 0.000000 0.000000 1.799760 
# 
# From -- ./inp_files/38388.got.cif
#   From: 2010.05.17/outbox.cif.g08.bks.cpg/sg69_20_cif.got.tgz:38388.got - 2010.06.03 19:29:58.
