data_PCOD9512657
_publ_section_title
;
Structure prediction by ZEFSAII (Michael W. Deem and Ramdas Pophale) SiO2 
 PCOD9512657
Probable space group: F M M M
;
_chemical_formula_sum "Si O2"
_cell_formula_units_Z 144
_cell_length_a 7.931364
_cell_length_b 26.814189
_cell_length_c 35.438816
_cell_angle_alpha 90.000000
_cell_angle_beta 90.000000
_cell_angle_gamma 90.000000
_cell_volume 7536.882622
_symmetry_space_group_name_H-M "F M M M"
_symmetry_group_IT_number 69
_symmetry_cell_setting 'orthorhombic'
loop_
_space_group_symop_operation_xyz
x,y,z
-x,-y,z
x,-y,-z
-x,y,-z
-x,-y,-z
x,y,-z
-x,y,z
x,-y,z
x,1/2+y,1/2+z
-x,1/2-y,1/2+z
x,1/2-y,1/2-z
-x,1/2+y,1/2-z
-x,1/2-y,1/2-z
x,1/2+y,1/2-z
-x,1/2+y,1/2+z
x,1/2-y,1/2+z
1/2+x,y,1/2+z
1/2-x,-y,1/2+z
1/2+x,-y,1/2-z
1/2-x,y,1/2-z
1/2-x,-y,1/2-z
1/2+x,y,1/2-z
1/2-x,y,1/2+z
1/2+x,-y,1/2+z
1/2+x,1/2+y,z
1/2-x,1/2-y,z
1/2+x,1/2-y,-z
1/2-x,1/2+y,-z
1/2-x,1/2-y,-z
1/2+x,1/2+y,-z
1/2-x,1/2+y,z
1/2+x,1/2-y,z
loop_
_atom_site_type_symbol
_atom_site_label
_atom_site_fract_x
_atom_site_fract_y
_atom_site_fract_z
Si Si1 0.702430 0.444690 0.819643
Si Si2 0.805268 0.591968 0.595814
Si Si3 0.000000 0.940313 0.543185
Si Si4 0.695797 0.338734 0.291312
Si Si5 0.796752 0.694878 0.128241
O O1 0.500000 0.443389 0.815257
O O2 0.763314 0.500000 0.809018
O O3 0.736827 0.434522 0.864011
O O4 0.773993 0.398005 0.796763
O O5 0.667349 0.576810 0.565270
O O6 0.784966 0.650692 0.604269
O O7 0.000000 0.580064 0.586338
O O8 0.000000 0.922239 0.500000
O O9 0.000000 0.000000 0.542958
O O10 0.500000 0.328837 0.293332
O O11 0.750000 0.322438 0.250000
O O12 0.770134 0.312933 0.328665
O O13 0.750000 0.750000 0.115540
O O14 0.000000 0.688236 0.127263
#
# Coordination Sequence:
#
# PCOD9512657 Si02
#       5
#    32  32  16  32  32
#     4   9  18  32  52  76 102 140 192 240 287 344
#     4  10  20  38  61  88 121 157 196 245 291 342
#     4  11  24  40  62  94 130 163 194 234 285 348
#     4  10  21  34  48  70 107 147 187 241 297 349
#     4  10  20  36  59  88 112 147 200 248 299 351
#
# _framework density 19.106041999999999
#
# number of rings (size 3 to 8) (size 9 to 14) (size 15 to 20)
#    0.000    2.111    1.111    2.000    1.556    5.778 
#    0.000    3.333    0.000    0.667    0.000    0.000 
#    0.000    0.000    0.000    0.000    0.000    0.000 
#
# Total GULP energy -200970.649608 kJ/mol
# GULP energy per Si atom -5582.518045 kJ/mol
# Density = 1.906256 g / cm^3
# Si number density = 19.106042 Si / 1000 Ang^3
#
#
#
# Elastic Constant Matrix: (Units=GPa)
#
#
# Indices 1 2 3 4 5 6 
#
# 1 72.1442 -9.9834 40.3021 0.0000 0.0000 0.0000
# 2 -9.9834 61.6116 -5.2000 0.0000 0.0000 0.0000
# 3 40.3021 -5.2000 76.2021 0.0000 0.0000 0.0000
# 4 0.0000 0.0000 0.0000 -45.4127 0.0000 0.0000
# 5 0.0000 0.0000 0.0000 0.0000 21.4368 0.0000
# 6 0.0000 0.0000 0.0000 0.0000 0.0000 24.0429
#
#
#
# Elastic Compliance Matrix: (Units=1/GPa)
#
#
# Indices 1 2 3 4 5 6 
#
# 1 0.020010 0.002363 -0.010422 0.000000 0.000000 0.000000
# 2 0.002363 0.016604 -0.000117 0.000000 0.000000 0.000000
# 3 -0.010422 -0.000117 0.018627 0.000000 0.000000 0.000000
# 4 0.000000 0.000000 0.000000 -0.022020 0.000000 0.000000
# 5 0.000000 0.000000 0.000000 0.000000 0.046649 0.000000
# 6 0.000000 0.000000 0.000000 0.000000 0.000000 0.041592
#
#
# Mechanical properties :
#
#
# Convention : Reuss Voigt Hill
#
# Bulk Modulus (GPa) = 25.71384 28.91057 27.31220
# Shear Modulus (GPa) = 33.16180 12.33600 22.74890
#
# Velocity S-wave (km/s) = 4.17066 2.54374 3.45435
# Velocity P-wave (km/s) = 6.05642 4.87770 5.49874
#
# Compressibility (1/GPa) = 0.03888957
#
# Stress axis : x y z
#
# Youngs Moduli (GPa) = 49.97502 60.22740 53.68572
#
# Poissons Ratio (x) = -0.14230 0.55950
# Poissons Ratio (y) = -0.11808 0.00626
# Poissons Ratio (z) = 0.52083 0.00702
#
# Static dielectric constant tensor:
#      x y z
#    x 1.682090 0.000000 0.000000 
#    y 0.000000 1.667330 0.000000 
#    z 0.000000 0.000000 1.669010 
# 
# From -- ./inp_files/44517.got.cif
#   From: 2010.05.17/outbox.cif.g08.bks.cpg/sg69_23_cif.got.tgz:44517.got - 2010.06.03 19:29:58.
