data_PCOD9512738
_publ_section_title
;
Structure prediction by ZEFSAII (Michael W. Deem and Ramdas Pophale) SiO2 
 PCOD9512738
Probable space group: F M M M
;
_chemical_formula_sum "Si O2"
_cell_formula_units_Z 100
_cell_length_a 23.317518
_cell_length_b 8.748261
_cell_length_c 25.089341
_cell_angle_alpha 90.000000
_cell_angle_beta 90.000000
_cell_angle_gamma 90.000000
_cell_volume 5117.917801
_symmetry_space_group_name_H-M "F M M M"
_symmetry_group_IT_number 69
_symmetry_cell_setting 'orthorhombic'
loop_
_space_group_symop_operation_xyz
x,y,z
-x,-y,z
x,-y,-z
-x,y,-z
-x,-y,-z
x,y,-z
-x,y,z
x,-y,z
x,1/2+y,1/2+z
-x,1/2-y,1/2+z
x,1/2-y,1/2-z
-x,1/2+y,1/2-z
-x,1/2-y,1/2-z
x,1/2+y,1/2-z
-x,1/2+y,1/2+z
x,1/2-y,1/2+z
1/2+x,y,1/2+z
1/2-x,-y,1/2+z
1/2+x,-y,1/2-z
1/2-x,y,1/2-z
1/2-x,-y,1/2-z
1/2+x,y,1/2-z
1/2-x,y,1/2+z
1/2+x,-y,1/2+z
1/2+x,1/2+y,z
1/2-x,1/2-y,z
1/2+x,1/2-y,-z
1/2-x,1/2+y,-z
1/2-x,1/2-y,-z
1/2+x,1/2+y,-z
1/2-x,1/2+y,z
1/2+x,1/2-y,z
loop_
_atom_site_type_symbol
_atom_site_label
_atom_site_fract_x
_atom_site_fract_y
_atom_site_fract_z
Si Si1 0.000000 0.500000 0.000000
Si Si2 0.500000 0.816580 0.809377
Si Si3 0.873518 0.684251 0.809819
Si Si4 0.118724 0.830505 0.500000
Si Si5 0.311232 0.181845 0.407704
O O1 0.051429 0.369078 0.000000
O O2 0.500000 0.750000 0.750000
O O3 0.562292 0.773908 0.831862
O O4 0.500000 0.000000 0.806968
O O5 0.868941 0.500000 0.808603
O O6 0.868748 0.750000 0.750000
O O7 0.827606 0.755225 0.849404
O O8 0.140852 0.742274 0.551609
O O9 0.146979 0.000000 0.500000
O O10 0.250000 0.250000 0.424100
O O11 0.308980 0.000000 0.407588
#
# Coordination Sequence:
#
# PCOD9512738 Si02
#       5
#     4  16  32  16  32
#     4   8  24  44  78 100 136 164 210 258 340 390
#     4   8  16  31  54  81 115 160 208 259 319 381
#     4  10  20  37  59  91 130 175 225 277 333 390
#     4  10  22  46  70  98 127 166 210 263 328 391
#     4  12  25  42  65  96 130 176 226 273 326 392
#
# _framework density 19.539197000000001
#
# number of rings (size 3 to 8) (size 9 to 14) (size 15 to 20)
#    0.480    1.280    0.000    4.800    0.000    3.200 
#    2.880    6.400    0.000    0.000    0.000    0.000 
#    0.000    0.000    0.000    0.000    0.000    0.000 
#
# Total GULP energy -139205.066840 kJ/mol
# GULP energy per Si atom -5568.202674 kJ/mol
# Density = 1.949472 g / cm^3
# Si number density = 19.539197 Si / 1000 Ang^3
#
#
#
# Elastic Constant Matrix: (Units=GPa)
#
#
# Indices 1 2 3 4 5 6 
#
# 1 135.7798 51.0713 43.1997 0.0000 -0.0001 0.0000
# 2 51.0713 133.6766 43.4231 0.0000 -0.0001 0.0000
# 3 43.1997 43.4231 86.1069 0.0000 0.0000 0.0000
# 4 0.0000 0.0000 0.0000 20.8088 0.0000 0.0000
# 5 -0.0001 -0.0001 0.0000 0.0000 -7.3352 0.0001
# 6 0.0000 0.0000 0.0000 0.0000 0.0001 28.5635
#
#
#
# Elastic Compliance Matrix: (Units=1/GPa)
#
#
# Indices 1 2 3 4 5 6 
#
# 1 0.009396 -0.002462 -0.003472 0.000000 0.000000 0.000000
# 2 -0.002462 0.009591 -0.003602 0.000000 0.000000 0.000000
# 3 -0.003472 -0.003602 0.015172 0.000000 0.000000 0.000000
# 4 0.000000 0.000000 0.000000 0.048056 0.000000 0.000000
# 5 0.000000 0.000000 0.000000 0.000000 -0.136329 0.000000
# 6 0.000000 0.000000 0.000000 0.000000 0.000000 0.035010
#
#
# Mechanical properties :
#
#
# Convention : Reuss Voigt Hill
#
# Bulk Modulus (GPa) = 66.28170 70.10574 68.19372
# Shear Modulus (GPa) = 1000.71225 22.93204 511.82215
#
# Velocity S-wave (km/s) = 22.65542 3.42956 16.20232
# Velocity P-wave (km/s) = 26.80212 7.18610 19.62133
#
# Compressibility (1/GPa) = 0.01508712
#
# Stress axis : x y z
#
# Youngs Moduli (GPa) = 106.43361 104.26224 65.91130
#
# Poissons Ratio (x) = 0.25665 0.22887
# Poissons Ratio (y) = 0.26200 0.23740
# Poissons Ratio (z) = 0.36957 0.37553
#
# Static dielectric constant tensor:
#      x y z
#    x 1.723780 0.000000 0.000000 
#    y 0.000000 1.648620 0.000000 
#    z 0.000000 0.000000 1.683980 
# 
# From -- ./inp_files/2978.got.cif
#   From: 2010.05.17/outbox.cif.g08.bks.cpg/sg69_2_cif.got.tgz:2978.got - 2010.06.03 19:29:58.
