data_PCOD9512180
_publ_section_title
;
Structure prediction by ZEFSAII (Michael W. Deem and Ramdas Pophale) SiO2 
 PCOD9512180
Probable space group: F M M M
;
_chemical_formula_sum "Si O2"
_cell_formula_units_Z 144
_cell_length_a 7.863573
_cell_length_b 34.823806
_cell_length_c 26.721523
_cell_angle_alpha 90.000000
_cell_angle_beta 90.000000
_cell_angle_gamma 90.000000
_cell_volume 7317.409583
_symmetry_space_group_name_H-M "F M M M"
_symmetry_group_IT_number 69
_symmetry_cell_setting 'orthorhombic'
loop_
_space_group_symop_operation_xyz
x,y,z
-x,-y,z
x,-y,-z
-x,y,-z
-x,-y,-z
x,y,-z
-x,y,z
x,-y,z
x,1/2+y,1/2+z
-x,1/2-y,1/2+z
x,1/2-y,1/2-z
-x,1/2+y,1/2-z
-x,1/2-y,1/2-z
x,1/2+y,1/2-z
-x,1/2+y,1/2+z
x,1/2-y,1/2+z
1/2+x,y,1/2+z
1/2-x,-y,1/2+z
1/2+x,-y,1/2-z
1/2-x,y,1/2-z
1/2-x,-y,1/2-z
1/2+x,y,1/2-z
1/2-x,y,1/2+z
1/2+x,-y,1/2+z
1/2+x,1/2+y,z
1/2-x,1/2-y,z
1/2+x,1/2-y,-z
1/2-x,1/2+y,-z
1/2-x,1/2-y,-z
1/2+x,1/2+y,-z
1/2-x,1/2+y,z
1/2+x,1/2-y,z
loop_
_atom_site_type_symbol
_atom_site_label
_atom_site_fract_x
_atom_site_fract_y
_atom_site_fract_z
Si Si1 0.195710 0.126054 0.805081
Si Si2 0.294474 0.683709 0.445592
Si Si3 0.000000 0.455859 0.439953
Si Si4 0.806943 0.901795 0.409778
Si Si5 0.203491 0.708252 0.837488
O O1 0.250000 0.113556 0.750000
O O2 0.300422 0.108291 0.850815
O O3 0.218235 0.172086 0.809163
O O4 0.000000 0.116405 0.813906
O O5 0.228729 0.696207 0.500000
O O6 0.500000 0.687571 0.446235
O O7 0.260177 0.638427 0.437033
O O8 0.234109 0.704842 0.395458
O O9 0.832323 0.433454 0.421983
O O10 0.000000 0.500000 0.422847
O O11 0.000000 0.455345 0.500000
O O12 0.000000 0.912066 0.424162
O O13 0.250000 0.750000 0.817654
O O14 0.000000 0.703457 0.836788
#
# Coordination Sequence:
#
# PCOD9512180 Si02
#       5
#    32  32  16  32  32
#     4  11  21  37  61  89 113 147 201 252 303 360
#     4   8  15  29  51  75 103 145 196 242 289 347
#     4  11  24  40  62  96 132 165 200 238 289 354
#     4  10  20  38  61  89 123 160 199 248 296 347
#     4  10  20  33  48  72 111 152 194 248 305 358
#
# _framework density 19.679093999999999
#
# number of rings (size 3 to 8) (size 9 to 14) (size 15 to 20)
#    0.000    2.111    1.111    4.667    0.000    2.667 
#    0.000    3.333    0.000    0.667    0.000    0.000 
#    0.000    0.000    0.000    0.000    0.000    0.000 
#
# Total GULP energy -201070.332496 kJ/mol
# GULP energy per Si atom -5585.287014 kJ/mol
# Density = 1.963430 g / cm^3
# Si number density = 19.679094 Si / 1000 Ang^3
#
#
#
# Elastic Constant Matrix: (Units=GPa)
#
#
# Indices 1 2 3 4 5 6 
#
# 1 81.7031 26.5094 -8.2271 0.0000 0.0000 0.0000
# 2 26.5094 76.4201 -6.3370 0.0000 0.0000 0.0000
# 3 -8.2271 -6.3370 76.5095 0.0000 0.0000 0.0000
# 4 0.0000 0.0000 0.0000 -11.2574 0.0000 0.0000
# 5 0.0000 0.0000 0.0000 0.0000 -5.0105 0.0000
# 6 0.0000 0.0000 0.0000 0.0000 0.0000 21.8786
#
#
#
# Elastic Compliance Matrix: (Units=1/GPa)
#
#
# Indices 1 2 3 4 5 6 
#
# 1 0.013883 -0.004725 0.001102 0.000000 0.000000 0.000000
# 2 -0.004725 0.014784 0.000716 0.000000 0.000000 0.000000
# 3 0.001102 0.000716 0.013248 0.000000 0.000000 0.000000
# 4 0.000000 0.000000 0.000000 -0.088830 0.000000 0.000000
# 5 0.000000 0.000000 0.000000 0.000000 -0.199582 0.000000
# 6 0.000000 0.000000 0.000000 0.000000 0.000000 0.045707
#
#
# Mechanical properties :
#
#
# Convention : Reuss Voigt Hill
#
# Bulk Modulus (GPa) = 27.69929 28.72481 28.21205
# Shear Modulus (GPa) = -27.33092 15.96796 -5.68148
#
# Velocity S-wave (km/s) = -3.73074 2.85163 -1.70098
# Velocity P-wave (km/s) = 2.10995 5.04685 3.24182
#
# Compressibility (1/GPa) = 0.03610201
#
# Stress axis : x y z
#
# Youngs Moduli (GPa) = 72.02886 67.64108 75.48275
#
# Poissons Ratio (x) = 0.31958 -0.08315
# Poissons Ratio (y) = 0.34031 -0.05408
# Poissons Ratio (z) = -0.07934 -0.04846
#
# Static dielectric constant tensor:
#      x y z
#    x 1.720290 0.000000 0.000000 
#    y 0.000000 1.655120 0.000000 
#    z 0.000000 0.000000 1.719960 
# 
# From -- ./inp_files/44514.got.cif
#   From: 2010.05.17/outbox.cif.g08.bks.cpg/sg69_23_cif.got.tgz:44514.got - 2010.06.03 19:29:58.
