data_PCOD9512122
_publ_section_title
;
Structure prediction by ZEFSAII (Michael W. Deem and Ramdas Pophale) SiO2 
 PCOD9512122
Probable space group: F M M M
;
_chemical_formula_sum "Si O2"
_cell_formula_units_Z 168
_cell_length_a 34.763244
_cell_length_b 21.319298
_cell_length_c 14.727693
_cell_angle_alpha 90.000000
_cell_angle_beta 90.000000
_cell_angle_gamma 90.000000
_cell_volume 10915.105043
_symmetry_space_group_name_H-M "F M M M"
_symmetry_group_IT_number 69
_symmetry_cell_setting 'orthorhombic'
loop_
_space_group_symop_operation_xyz
x,y,z
-x,-y,z
x,-y,-z
-x,y,-z
-x,-y,-z
x,y,-z
-x,y,z
x,-y,z
x,1/2+y,1/2+z
-x,1/2-y,1/2+z
x,1/2-y,1/2-z
-x,1/2+y,1/2-z
-x,1/2-y,1/2-z
x,1/2+y,1/2-z
-x,1/2+y,1/2+z
x,1/2-y,1/2+z
1/2+x,y,1/2+z
1/2-x,-y,1/2+z
1/2+x,-y,1/2-z
1/2-x,y,1/2-z
1/2-x,-y,1/2-z
1/2+x,y,1/2-z
1/2-x,y,1/2+z
1/2+x,-y,1/2+z
1/2+x,1/2+y,z
1/2-x,1/2-y,z
1/2+x,1/2-y,-z
1/2-x,1/2+y,-z
1/2-x,1/2-y,-z
1/2+x,1/2+y,-z
1/2-x,1/2+y,z
1/2+x,1/2-y,z
loop_
_atom_site_type_symbol
_atom_site_label
_atom_site_fract_x
_atom_site_fract_y
_atom_site_fract_z
Si Si1 0.650598 0.924879 0.398795
Si Si2 0.250000 0.750000 0.750000
Si Si3 0.694939 0.927071 0.108186
Si Si4 0.382334 0.076245 0.787650
Si Si5 0.457011 0.923686 0.105674
Si Si6 0.271625 0.152790 0.393870
O O1 0.636506 0.909279 0.500000
O O2 0.622826 0.905880 0.317104
O O3 0.691954 0.892846 0.386227
O O4 0.655767 0.000000 0.393991
O O5 0.274231 0.792853 0.680596
O O6 0.656643 0.905244 0.159696
O O7 0.732353 0.885249 0.125996
O O8 0.702536 0.000000 0.133249
O O9 0.687744 0.925590 0.000000
O O10 0.421343 0.099043 0.834529
O O11 0.383195 0.000000 0.792674
O O12 0.500000 0.903582 0.134009
O O13 0.456857 0.000000 0.108967
O O14 0.451404 0.906812 0.000000
O O15 0.270002 0.174087 0.500000
#
# Coordination Sequence:
#
# PCOD9512122 Si02
#       6
#    32   8  32  32  32  32
#     4   9  17  29  44  60  78 102 135 174 210 239
#     4  12  22  32  42  54  76 108 144 174 196 234
#     4   9  16  26  42  63  83 101 127 168 212 246
#     4   9  15  22  35  56  79 102 130 165 201 235
#     4   8  13  21  33  50  75 107 137 160 186 228
#     4  10  20  32  44  58  78 107 139 169 203 241
#
# _framework density 15.391514000000001
#
# number of rings (size 3 to 8) (size 9 to 14) (size 15 to 20)
#    0.000    2.857    0.000    3.143    0.000    4.571 
#    0.000    3.810    0.000    0.571    0.000    4.000 
#    0.000    0.000    0.000   13.714    0.000   86.095 
#
# Total GULP energy -233884.087795 kJ/mol
# GULP energy per Si atom -5568.668757 kJ/mol
# Density = 1.535648 g / cm^3
# Si number density = 15.391514 Si / 1000 Ang^3
#
#
#
# Elastic Constant Matrix: (Units=GPa)
#
#
# Indices 1 2 3 4 5 6 
#
# 1 106.7845 14.5354 77.7213 0.0000 0.0000 0.0000
# 2 14.5354 18.8977 27.6786 0.0000 0.0000 0.0000
# 3 77.7213 27.6786 104.6400 0.0000 0.0000 0.0000
# 4 0.0000 0.0000 0.0000 21.1693 0.0000 0.0000
# 5 0.0000 0.0000 0.0000 0.0000 25.0073 0.0000
# 6 0.0000 0.0000 0.0000 0.0000 0.0000 0.0061
#
#
#
# Elastic Compliance Matrix: (Units=1/GPa)
#
#
# Indices 1 2 3 4 5 6 
#
# 1 0.021775 0.011329 -0.019170 0.000000 0.000000 0.000000
# 2 0.011329 0.092277 -0.032823 0.000000 0.000000 0.000000
# 3 -0.019170 -0.032823 0.032478 0.000000 0.000000 0.000000
# 4 0.000000 0.000000 0.000000 0.047238 0.000000 0.000000
# 5 0.000000 0.000000 0.000000 0.000000 0.039988 0.000000
# 6 0.000000 0.000000 0.000000 0.000000 0.000000162.976179
#
#
# Mechanical properties :
#
#
# Convention : Reuss Voigt Hill
#
# Bulk Modulus (GPa) = 15.33715 52.24367 33.79041
# Shear Modulus (GPa) = 0.03062 16.59566 8.31314
#
# Velocity S-wave (km/s) = 0.14119 3.28721 2.32655
# Velocity P-wave (km/s) = 3.16432 6.95877 5.40543
#
# Compressibility (1/GPa) = 0.06520117
#
# Stress axis : x y z
#
# Youngs Moduli (GPa) = 45.92349 10.83692 30.79054
#
# Poissons Ratio (x) = -0.12277 0.59027
# Poissons Ratio (y) = -0.52028 1.01065
# Poissons Ratio (z) = 0.88037 0.35570
#
# Static dielectric constant tensor:
#      x y z
#    x 1.493850 0.000000 0.000000 
#    y 0.000000 1.503220 0.000000 
#    z 0.000000 0.000000 1.550190 
# 
# From -- ./inp_files/19733.got.cif
#   From: 2010.05.17/outbox.cif.g08.bks.cpg/sg69_10_cif.got.tgz:19733.got - 2010.06.03 19:29:58.
