data_PCOD9512045
_publ_section_title
;
Structure prediction by ZEFSAII (Michael W. Deem and Ramdas Pophale) SiO2 
 PCOD9512045
Probable space group: F M M M
;
_chemical_formula_sum "Si O2"
_cell_formula_units_Z 144
_cell_length_a 17.286737
_cell_length_b 15.095991
_cell_length_c 30.840203
_cell_angle_alpha 90.000000
_cell_angle_beta 90.000000
_cell_angle_gamma 90.000000
_cell_volume 8048.072518
_symmetry_space_group_name_H-M "F M M M"
_symmetry_group_IT_number 69
_symmetry_cell_setting 'orthorhombic'
loop_
_space_group_symop_operation_xyz
x,y,z
-x,-y,z
x,-y,-z
-x,y,-z
-x,-y,-z
x,y,-z
-x,y,z
x,-y,z
x,1/2+y,1/2+z
-x,1/2-y,1/2+z
x,1/2-y,1/2-z
-x,1/2+y,1/2-z
-x,1/2-y,1/2-z
x,1/2+y,1/2-z
-x,1/2+y,1/2+z
x,1/2-y,1/2+z
1/2+x,y,1/2+z
1/2-x,-y,1/2+z
1/2+x,-y,1/2-z
1/2-x,y,1/2-z
1/2-x,-y,1/2-z
1/2+x,y,1/2-z
1/2-x,y,1/2+z
1/2+x,-y,1/2+z
1/2+x,1/2+y,z
1/2-x,1/2-y,z
1/2+x,1/2-y,-z
1/2-x,1/2+y,-z
1/2-x,1/2-y,-z
1/2+x,1/2+y,-z
1/2-x,1/2+y,z
1/2+x,1/2-y,z
loop_
_atom_site_type_symbol
_atom_site_label
_atom_site_fract_x
_atom_site_fract_y
_atom_site_fract_z
Si Si1 0.908693 0.308881 0.450718
Si Si2 0.090064 0.500000 0.405902
Si Si3 0.324360 0.191063 0.879471
Si Si4 0.261050 0.000000 0.874439
Si Si5 0.173090 0.500000 0.777543
Si Si6 0.907669 0.819511 0.713373
O O1 0.879370 0.302450 0.500000
O O2 0.901827 0.410096 0.433800
O O3 0.867694 0.241360 0.418190
O O4 0.000000 0.288861 0.450756
O O5 0.167142 0.500000 0.375813
O O6 0.000000 0.500000 0.388389
O O7 0.250000 0.250000 0.868925
O O8 0.374426 0.191333 0.835253
O O9 0.295462 0.092431 0.892801
O O10 0.294534 0.000000 0.826194
O O11 0.250000 0.500000 0.750000
O O12 0.121609 0.414156 0.770539
O O13 0.880945 0.750000 0.750000
O O14 0.000000 0.815176 0.710805
#
# Coordination Sequence:
#
# PCOD9512045 Si02
#       6
#    32  16  32  16  16  32
#     4  10  21  38  60  87 119 156 195 239 294 349
#     4  10  19  36  59  85 119 152 190 240 292 348
#     4  11  22  38  62  85 121 152 196 242 293 346
#     4  10  22  40  54  90 114 153 194 235 296 346
#     4  10  23  37  61  83 119 156 191 239 295 341
#     4  10  23  40  61  88 117 154 196 239 291 351
#
# _framework density 17.892482999999999
#
# number of rings (size 3 to 8) (size 9 to 14) (size 15 to 20)
#    0.000    1.778    2.222    1.333    6.222    1.778 
#    0.000    3.333    0.000    1.333    0.000    0.000 
#    0.000    0.000    0.000    0.000    0.000    0.000 
#
# Total GULP energy -200693.369862 kJ/mol
# GULP energy per Si atom -5574.815830 kJ/mol
# Density = 1.785176 g / cm^3
# Si number density = 17.892483 Si / 1000 Ang^3
#
#
#
# Elastic Constant Matrix: (Units=GPa)
#
#
# Indices 1 2 3 4 5 6 
#
# 1 81.6207 56.5794 33.7220 0.0000 0.0000 0.0000
# 2 56.5794 164.9998 60.6222 0.0000 0.0000 0.0000
# 3 33.7220 60.6222 44.3272 0.0000 0.0000 0.0000
# 4 0.0000 0.0000 0.0000 19.4637 0.0000 0.0000
# 5 0.0000 0.0000 0.0000 0.0000 27.2980 0.0000
# 6 0.0000 0.0000 0.0000 0.0000 0.0000 -58.9383
#
#
#
# Elastic Compliance Matrix: (Units=1/GPa)
#
#
# Indices 1 2 3 4 5 6 
#
# 1 0.018304 -0.002332 -0.010735 0.000000 0.000000 0.000000
# 2 -0.002332 0.012479 -0.015292 0.000000 0.000000 0.000000
# 3 -0.010735 -0.015292 0.051639 0.000000 0.000000 0.000000
# 4 0.000000 0.000000 0.000000 0.051378 0.000000 0.000000
# 5 0.000000 0.000000 0.000000 0.000000 0.036633 0.000000
# 6 0.000000 0.000000 0.000000 0.000000 0.000000 -0.016967
#
#
# Mechanical properties :
#
#
# Convention : Reuss Voigt Hill
#
# Bulk Modulus (GPa) = 38.90474 65.86611 52.38542
# Shear Modulus (GPa) = 22.85710 6.89960 14.87835
#
# Velocity S-wave (km/s) = 3.57805 1.96584 2.88678
# Velocity P-wave (km/s) = 6.23384 6.48419 6.36025
#
# Compressibility (1/GPa) = 0.02570381
#
# Stress axis : x y z
#
# Youngs Moduli (GPa) = 54.63357 80.13699 19.36523
#
# Poissons Ratio (x) = 0.18691 0.20788
# Poissons Ratio (y) = 0.12743 0.29612
# Poissons Ratio (z) = 0.58648 1.22542
#
# Static dielectric constant tensor:
#      x y z
#    x 1.604800 0.000000 0.000000 
#    y 0.000000 1.615610 0.000000 
#    z 0.000000 0.000000 1.616050 
# 
# From -- ./inp_files/46204.got.cif
#   From: 2010.05.17/outbox.cif.g08.bks.cpg/sg69_24_cif.got.tgz:46204.got - 2010.06.03 19:29:58.
