data_PCOD9512576
_publ_section_title
;
Structure prediction by ZEFSAII (Michael W. Deem and Ramdas Pophale) SiO2 
 PCOD9512576
Probable space group: F M M M
;
_chemical_formula_sum "Si O2"
_cell_formula_units_Z 160
_cell_length_a 15.644064
_cell_length_b 31.881048
_cell_length_c 14.464915
_cell_angle_alpha 90.000000
_cell_angle_beta 90.000000
_cell_angle_gamma 90.000000
_cell_volume 7214.364138
_symmetry_space_group_name_H-M "F M M M"
_symmetry_group_IT_number 69
_symmetry_cell_setting 'orthorhombic'
loop_
_space_group_symop_operation_xyz
x,y,z
-x,-y,z
x,-y,-z
-x,y,-z
-x,-y,-z
x,y,-z
-x,y,z
x,-y,z
x,1/2+y,1/2+z
-x,1/2-y,1/2+z
x,1/2-y,1/2-z
-x,1/2+y,1/2-z
-x,1/2-y,1/2-z
x,1/2+y,1/2-z
-x,1/2+y,1/2+z
x,1/2-y,1/2+z
1/2+x,y,1/2+z
1/2-x,-y,1/2+z
1/2+x,-y,1/2-z
1/2-x,y,1/2-z
1/2-x,-y,1/2-z
1/2+x,y,1/2-z
1/2-x,y,1/2+z
1/2+x,-y,1/2+z
1/2+x,1/2+y,z
1/2-x,1/2-y,z
1/2+x,1/2-y,-z
1/2-x,1/2+y,-z
1/2-x,1/2-y,-z
1/2+x,1/2+y,-z
1/2-x,1/2+y,z
1/2+x,1/2-y,z
loop_
_atom_site_type_symbol
_atom_site_label
_atom_site_fract_x
_atom_site_fract_y
_atom_site_fract_z
Si Si1 0.141127 0.337946 0.888681
Si Si2 0.000000 0.177634 0.896359
Si Si3 0.781493 0.954847 0.887123
Si Si4 0.672113 0.862322 0.613233
Si Si5 0.000000 0.270214 0.151076
Si Si6 0.907642 0.931945 0.612676
O O1 0.239751 0.339962 0.857863
O O2 0.100437 0.382768 0.863271
O O3 0.082661 0.299193 0.861449
O O4 0.142110 0.337477 0.000000
O O5 0.087509 0.160952 0.852206
O O6 0.000000 0.227483 0.906399
O O7 0.000000 0.159089 0.000000
O O8 0.824783 0.911215 0.858074
O O9 0.681786 0.952258 0.858051
O O10 0.817582 0.000000 0.858260
O O11 0.782664 0.954053 0.000000
O O12 0.673293 0.861402 0.500000
O O13 0.000000 0.250000 0.250000
O O14 0.907815 0.935108 0.500000
O O15 0.000000 0.948036 0.644987
#
# Coordination Sequence:
#
# PCOD9512576 Si02
#       6
#    32  16  32  32  16  32
#     4   9  16  31  52  71  95 133 167 192 235 297
#     4  10  20  36  53  70  94 128 171 212 240 282
#     4   8  13  21  35  62 100 130 153 192 242 284
#     4   8  16  30  50  71  94 129 170 203 238 287
#     4  12  24  34  48  75 102 122 156 207 250 300
#     4   8  12  19  36  61  89 127 163 186 221 283
#
# _framework density 22.177976000000001
#
# number of rings (size 3 to 8) (size 9 to 14) (size 15 to 20)
#    0.000    3.200    1.000    3.300    0.000    1.200 
#    0.000    7.500    0.000    3.000    0.000    0.000 
#    0.000   19.200    0.000    0.000    0.000    0.000 
#
# Total GULP energy -223153.265420 kJ/mol
# GULP energy per Si atom -5578.831635 kJ/mol
# Density = 2.212750 g / cm^3
# Si number density = 22.177976 Si / 1000 Ang^3
#
#
#
# Elastic Constant Matrix: (Units=GPa)
#
#
# Indices 1 2 3 4 5 6 
#
# 1 144.7901 91.1033 2.6848 0.0000 0.0000 0.0000
# 2 91.1033 176.8464 9.2185 0.0000 0.0000 0.0000
# 3 2.6848 9.2185 54.8440 0.0000 0.0000 0.0000
# 4 0.0000 0.0000 0.0000 7.5702 0.0000 0.0000
# 5 0.0000 0.0000 0.0000 0.0000 -19.2702 0.0000
# 6 0.0000 0.0000 0.0000 0.0000 0.0000 -22.3375
#
#
#
# Elastic Compliance Matrix: (Units=1/GPa)
#
#
# Indices 1 2 3 4 5 6 
#
# 1 0.010227 -0.005289 0.000388 0.000000 0.000000 0.000000
# 2 -0.005289 0.008440 -0.001160 0.000000 0.000000 0.000000
# 3 0.000388 -0.001160 0.018409 0.000000 0.000000 0.000000
# 4 0.000000 0.000000 0.000000 0.132097 0.000000 0.000000
# 5 0.000000 0.000000 0.000000 0.000000 -0.051894 0.000000
# 6 0.000000 0.000000 0.000000 0.000000 0.000000 -0.044768
#
#
# Mechanical properties :
#
#
# Convention : Reuss Voigt Hill
#
# Bulk Modulus (GPa) = 40.07071 64.72153 52.39612
# Shear Modulus (GPa) = 53.79211 11.42412 32.60811
#
# Velocity S-wave (km/s) = 4.93025 2.27207 3.83860
# Velocity P-wave (km/s) = 7.10752 6.01076 6.58202
#
# Compressibility (1/GPa) = 0.02495588
#
# Stress axis : x y z
#
# Youngs Moduli (GPa) = 97.77942 118.48878 54.31995
#
# Poissons Ratio (x) = 0.62666 -0.02109
# Poissons Ratio (y) = 0.51713 0.06299
# Poissons Ratio (z) = -0.03797 0.13741
#
# Static dielectric constant tensor:
#      x y z
#    x 1.938090 0.000000 0.000000 
#    y 0.000000 1.817320 0.000000 
#    z 0.000000 0.000000 1.605200 
# 
# From -- ./inp_files/23502.got.cif
#   From: 2010.05.17/outbox.cif.g08.bks.cpg/sg69_12_cif.got.tgz:23502.got - 2010.06.03 19:29:58.
