data_PCOD9512382
_publ_section_title
;
Structure prediction by ZEFSAII (Michael W. Deem and Ramdas Pophale) SiO2 
 PCOD9512382
Probable space group: F M M M
;
_chemical_formula_sum "Si O2"
_cell_formula_units_Z 168
_cell_length_a 14.821956
_cell_length_b 17.207200
_cell_length_c 28.457238
_cell_angle_alpha 90.000000
_cell_angle_beta 90.000000
_cell_angle_gamma 90.000000
_cell_volume 7257.858090
_symmetry_space_group_name_H-M "F M M M"
_symmetry_group_IT_number 69
_symmetry_cell_setting 'orthorhombic'
loop_
_space_group_symop_operation_xyz
x,y,z
-x,-y,z
x,-y,-z
-x,y,-z
-x,-y,-z
x,y,-z
-x,y,z
x,-y,z
x,1/2+y,1/2+z
-x,1/2-y,1/2+z
x,1/2-y,1/2-z
-x,1/2+y,1/2-z
-x,1/2-y,1/2-z
x,1/2+y,1/2-z
-x,1/2+y,1/2+z
x,1/2-y,1/2+z
1/2+x,y,1/2+z
1/2-x,-y,1/2+z
1/2+x,-y,1/2-z
1/2-x,y,1/2-z
1/2-x,-y,1/2-z
1/2+x,y,1/2-z
1/2-x,y,1/2+z
1/2+x,-y,1/2+z
1/2+x,1/2+y,z
1/2-x,1/2-y,z
1/2+x,1/2-y,-z
1/2-x,1/2+y,-z
1/2-x,1/2-y,-z
1/2+x,1/2+y,-z
1/2-x,1/2+y,z
1/2+x,1/2-y,z
loop_
_atom_site_type_symbol
_atom_site_label
_atom_site_fract_x
_atom_site_fract_y
_atom_site_fract_z
Si Si1 0.131744 0.414116 0.161942
Si Si2 0.890578 0.181156 0.948968
Si Si3 0.895960 0.642697 0.063896
Si Si4 0.154020 0.588411 0.354909
Si Si5 0.836823 0.500000 0.000000
Si Si6 0.640378 0.838243 0.257281
O O1 0.098463 0.500000 0.151600
O O2 0.102522 0.359059 0.120163
O O3 0.239988 0.415308 0.157004
O O4 0.106106 0.389144 0.213990
O O5 0.861776 0.271509 0.948614
O O6 0.858154 0.135190 0.903244
O O7 0.000000 0.181531 0.946942
O O8 0.864147 0.146580 0.000000
O O9 0.844192 0.569913 0.040908
O O10 0.000000 0.633782 0.048669
O O11 0.120213 0.500000 0.359941
O O12 0.115054 0.630290 0.308572
O O13 0.611390 0.750000 0.250000
O O14 0.750000 0.839159 0.250000
#
# Coordination Sequence:
#
# PCOD9512382 Si02
#       6
#    32  32  32  32   8  32
#     4  10  20  34  55  86 115 144 181 227 275 331
#     4  10  22  40  59  80 109 147 192 238 280 327
#     4  11  21  36  58  84 113 146 183 224 279 341
#     4  10  21  38  57  82 113 150 190 231 275 325
#     4  12  21  36  60  82 112 152 183 218 279 350
#     4   9  17  32  56  80 110 146 183 224 278 336
#
# _framework density 23.147324000000001
#
# number of rings (size 3 to 8) (size 9 to 14) (size 15 to 20)
#    0.000    1.905    1.905    2.571    0.000    5.333 
#    1.714    2.857    0.000    5.714    0.000    0.000 
#    0.000    0.000    0.000    0.000    0.000    0.000 
#
# Total GULP energy -234226.712663 kJ/mol
# GULP energy per Si atom -5576.826492 kJ/mol
# Density = 2.309464 g / cm^3
# Si number density = 23.147324 Si / 1000 Ang^3
#
#
#
# Elastic Constant Matrix: (Units=GPa)
#
#
# Indices 1 2 3 4 5 6 
#
# 1 59.0359 9.2147 6.5638 0.0000 0.0000 0.0000
# 2 9.2147 147.1707 97.6883 0.0000 0.0000 0.0000
# 3 6.5638 97.6883 245.3975 0.0000 0.0000 0.0000
# 4 0.0000 0.0000 0.0000 71.5071 0.0000 0.0000
# 5 0.0000 0.0000 0.0000 0.0000 20.1010 0.0000
# 6 0.0000 0.0000 0.0000 0.0000 0.0000 -26.8590
#
#
#
# Elastic Compliance Matrix: (Units=1/GPa)
#
#
# Indices 1 2 3 4 5 6 
#
# 1 0.017106 -0.001043 -0.000042 0.000000 0.000000 0.000000
# 2 -0.001043 0.009299 -0.003674 0.000000 0.000000 0.000000
# 3 -0.000042 -0.003674 0.005539 0.000000 0.000000 0.000000
# 4 0.000000 0.000000 0.000000 0.013985 0.000000 0.000000
# 5 0.000000 0.000000 0.000000 0.000000 0.049749 0.000000
# 6 0.000000 0.000000 0.000000 0.000000 0.000000 -0.037231
#
#
# Mechanical properties :
#
#
# Convention : Reuss Voigt Hill
#
# Bulk Modulus (GPa) = 44.59206 75.39307 59.99256
# Shear Modulus (GPa) = 66.27883 35.49229 50.88556
#
# Velocity S-wave (km/s) = 5.35683 3.92001 4.69373
# Velocity P-wave (km/s) = 7.58730 7.28906 7.43967
#
# Compressibility (1/GPa) = 0.02242552
#
# Stress axis : x y z
#
# Youngs Moduli (GPa) = 58.45782 107.54226 180.55095
#
# Poissons Ratio (x) = 0.11216 0.00765
# Poissons Ratio (y) = 0.06097 0.66330
# Poissons Ratio (z) = 0.00248 0.39508
#
# Static dielectric constant tensor:
#      x y z
#    x 1.949190 0.000000 0.000000 
#    y 0.000000 1.824550 0.000000 
#    z 0.000000 0.000000 1.853120 
# 
# From -- ./inp_files/18829.got.cif
#   From: 2010.05.17/outbox.cif.g08.bks.cpg/sg69_10_cif.got.tgz:18829.got - 2010.06.03 19:29:58.
