data_PCOD9512537
_publ_section_title
;
Structure prediction by ZEFSAII (Michael W. Deem and Ramdas Pophale) SiO2 
 PCOD9512537
Probable space group: F M M M
;
_chemical_formula_sum "Si O2"
_cell_formula_units_Z 208
_cell_length_a 15.466500
_cell_length_b 24.664791
_cell_length_c 25.957505
_cell_angle_alpha 90.000000
_cell_angle_beta 90.000000
_cell_angle_gamma 90.000000
_cell_volume 9902.216833
_symmetry_space_group_name_H-M "F M M M"
_symmetry_group_IT_number 69
_symmetry_cell_setting 'orthorhombic'
loop_
_space_group_symop_operation_xyz
x,y,z
-x,-y,z
x,-y,-z
-x,y,-z
-x,-y,-z
x,y,-z
-x,y,z
x,-y,z
x,1/2+y,1/2+z
-x,1/2-y,1/2+z
x,1/2-y,1/2-z
-x,1/2+y,1/2-z
-x,1/2-y,1/2-z
x,1/2+y,1/2-z
-x,1/2+y,1/2+z
x,1/2-y,1/2+z
1/2+x,y,1/2+z
1/2-x,-y,1/2+z
1/2+x,-y,1/2-z
1/2-x,y,1/2-z
1/2-x,-y,1/2-z
1/2+x,y,1/2-z
1/2-x,y,1/2+z
1/2+x,-y,1/2+z
1/2+x,1/2+y,z
1/2-x,1/2-y,z
1/2+x,1/2-y,-z
1/2-x,1/2+y,-z
1/2-x,1/2-y,-z
1/2+x,1/2+y,-z
1/2-x,1/2+y,z
1/2+x,1/2-y,z
loop_
_atom_site_type_symbol
_atom_site_label
_atom_site_fract_x
_atom_site_fract_y
_atom_site_fract_z
Si Si1 0.604316 0.613147 0.058000
Si Si2 0.646342 0.119387 0.751504
Si Si3 0.605843 0.000000 0.608249
Si Si4 0.645521 0.809198 0.846441
Si Si5 0.897471 0.500000 0.726094
Si Si6 0.895659 0.382522 0.058657
Si Si7 0.147083 0.686448 0.653279
Si Si8 0.400234 0.500000 0.562786
O O1 0.500000 0.611552 0.056392
O O2 0.633431 0.554588 0.079285
O O3 0.629370 0.659013 0.098560
O O4 0.636238 0.622343 0.000000
O O5 0.750000 0.124596 0.750000
O O6 0.612327 0.152630 0.800418
O O7 0.627615 0.055766 0.753253
O O8 0.613625 0.147033 0.698597
O O9 0.637251 0.000000 0.667272
O O10 0.500000 0.000000 0.608650
O O11 0.626269 0.836221 0.901165
O O12 0.749445 0.808773 0.841036
O O13 0.612833 0.747661 0.842613
O O14 0.000000 0.500000 0.721852
O O15 0.861528 0.441700 0.077165
O O16 0.000000 0.387185 0.056653
O O17 0.866123 0.372306 0.000000
O O18 0.500000 0.500000 0.581196
O O19 0.402395 0.500000 0.500000
#
# Coordination Sequence:
#
# PCOD9512537 Si02
#       8
#    32  32  16  32  16  32  32  16
#     4  10  20  35  58  85 111 145 187 226 272 333
#     4  10  21  39  60  82 109 145 186 227 273 330
#     4   9  17  33  56  81 112 145 175 216 274 331
#     4  10  22  37  57  80 105 147 189 228 275 327
#     4  11  21  35  60  89 117 145 175 222 282 333
#     4   9  18  34  55  79 109 144 182 225 275 330
#     4  10  21  39  57  77 109 145 187 232 275 321
#     4   7  12  27  51  73  97 135 173 207 257 316
#
# _framework density 21.005398
#
# number of rings (size 3 to 8) (size 9 to 14) (size 15 to 20)
#    0.000    2.385    1.538    1.846    0.000    5.846 
#    0.000    5.385    0.000    4.615    0.000    0.000 
#    0.000    0.000    0.000    0.000    0.000    0.000 
#
# Total GULP energy -290312.406669 kJ/mol
# GULP energy per Si atom -5582.930897 kJ/mol
# Density = 2.095759 g / cm^3
# Si number density = 21.005398 Si / 1000 Ang^3
#
#
#
# Elastic Constant Matrix: (Units=GPa)
#
#
# Indices 1 2 3 4 5 6 
#
# 1 29.5629 6.1370 3.0999 0.0000 0.0000 0.0000
# 2 6.1370 201.6126 94.6154 0.0000 0.0000 0.0000
# 3 3.0999 94.6154 128.8762 0.0000 0.0000 0.0000
# 4 0.0000 0.0000 0.0000 12.5800 0.0000 0.0000
# 5 0.0000 0.0000 0.0000 0.0000 26.7921 0.0000
# 6 0.0000 0.0000 0.0000 0.0000 0.0000 -7.9050
#
#
#
# Elastic Compliance Matrix: (Units=1/GPa)
#
#
# Indices 1 2 3 4 5 6 
#
# 1 0.034042 -0.000995 -0.000089 0.000000 0.000000 0.000000
# 2 -0.000995 0.007596 -0.005553 0.000000 0.000000 0.000000
# 3 -0.000089 -0.005553 0.011838 0.000000 0.000000 0.000000
# 4 0.000000 0.000000 0.000000 0.079491 0.000000 0.000000
# 5 0.000000 0.000000 0.000000 0.000000 0.037324 0.000000
# 6 0.000000 0.000000 0.000000 0.000000 0.000000 -0.126502
#
#
# Mechanical properties :
#
#
# Convention : Reuss Voigt Hill
#
# Bulk Modulus (GPa) = 24.87311 63.08404 43.97857
# Shear Modulus (GPa) = 70.95871 23.37338 47.16605
#
# Velocity S-wave (km/s) = 5.81846 3.33938 4.74373
# Velocity P-wave (km/s) = 7.55026 6.70568 7.14047
#
# Compressibility (1/GPa) = 0.04020407
#
# Stress axis : x y z
#
# Youngs Moduli (GPa) = 29.37556 131.64445 84.47222
#
# Poissons Ratio (x) = 0.13094 0.00748
# Poissons Ratio (y) = 0.02922 0.46907
# Poissons Ratio (z) = 0.00260 0.73101
#
# Static dielectric constant tensor:
#      x y z
#    x 1.788910 0.000000 0.000000 
#    y 0.000000 1.759140 0.000000 
#    z 0.000000 0.000000 1.737630 
# 
# From -- ./inp_files/42166.got.cif
#   From: 2010.05.17/outbox.cif.g08.bks.cpg/sg69_22_cif.got.tgz:42166.got - 2010.06.03 19:29:58.
