data_PCOD9512080
_publ_section_title
;
Structure prediction by ZEFSAII (Michael W. Deem and Ramdas Pophale) SiO2 
 PCOD9512080
Probable space group: F M M M
;
_chemical_formula_sum "Si O2"
_cell_formula_units_Z 160
_cell_length_a 18.737693
_cell_length_b 31.634863
_cell_length_c 14.997359
_cell_angle_alpha 90.000000
_cell_angle_beta 90.000000
_cell_angle_gamma 90.000000
_cell_volume 8889.899774
_symmetry_space_group_name_H-M "F M M M"
_symmetry_group_IT_number 69
_symmetry_cell_setting 'orthorhombic'
loop_
_space_group_symop_operation_xyz
x,y,z
-x,-y,z
x,-y,-z
-x,y,-z
-x,-y,-z
x,y,-z
-x,y,z
x,-y,z
x,1/2+y,1/2+z
-x,1/2-y,1/2+z
x,1/2-y,1/2-z
-x,1/2+y,1/2-z
-x,1/2-y,1/2-z
x,1/2+y,1/2-z
-x,1/2+y,1/2+z
x,1/2-y,1/2+z
1/2+x,y,1/2+z
1/2-x,-y,1/2+z
1/2+x,-y,1/2-z
1/2-x,y,1/2-z
1/2-x,-y,1/2-z
1/2+x,y,1/2-z
1/2-x,y,1/2+z
1/2+x,-y,1/2+z
1/2+x,1/2+y,z
1/2-x,1/2-y,z
1/2+x,1/2-y,-z
1/2-x,1/2+y,-z
1/2-x,1/2-y,-z
1/2+x,1/2+y,-z
1/2-x,1/2+y,z
1/2+x,1/2-y,z
loop_
_atom_site_type_symbol
_atom_site_label
_atom_site_fract_x
_atom_site_fract_y
_atom_site_fract_z
Si Si1 0.334053 0.546275 0.227030
Si Si2 0.084566 0.315924 0.500000
Si Si3 0.085133 0.926173 0.400740
Si Si4 0.670162 0.657094 0.360072
Si Si5 0.829445 0.230307 0.500000
Si Si6 0.834246 0.362928 0.655617
O O1 0.346963 0.500000 0.186647
O O2 0.250000 0.549853 0.250000
O O3 0.376801 0.549995 0.319778
O O4 0.351892 0.587584 0.169345
O O5 0.115821 0.268718 0.500000
O O6 0.115682 0.340123 0.414268
O O7 0.000000 0.315860 0.500000
O O8 0.101348 0.942917 0.500000
O O9 0.116201 0.878614 0.394811
O O10 0.000000 0.926426 0.389074
O O11 0.661510 0.700261 0.413877
O O12 0.751764 0.641567 0.374408
O O13 0.660439 0.658575 0.253348
O O14 0.750000 0.250000 0.500000
#
# Coordination Sequence:
#
# PCOD9512080 Si02
#       6
#    32  16  32  32  16  32
#     4  10  20  37  62  93 122 156 207 259 302 362
#     4  12  28  44  61  91 128 167 213 262 312 366
#     4  10  20  34  58  89 124 161 193 243 314 375
#     4  10  19  37  64  93 120 159 208 250 305 374
#     4  12  22  38  66  96 124 157 204 258 308 373
#     4  10  20  40  64  90 122 167 206 254 310 367
#
# _framework density 17.997952999999999
#
# number of rings (size 3 to 8) (size 9 to 14) (size 15 to 20)
#    0.000    1.600    7.000    0.000    0.000    5.600 
#    0.000    2.500    0.000    0.600    0.000    0.000 
#    0.000    0.000    0.000    0.000    0.000    0.000 
#
# Total GULP energy -223244.370999 kJ/mol
# GULP energy per Si atom -5581.109275 kJ/mol
# Density = 1.795699 g / cm^3
# Si number density = 17.997953 Si / 1000 Ang^3
#
#
#
# Elastic Constant Matrix: (Units=GPa)
#
#
# Indices 1 2 3 4 5 6 
#
# 1 107.5516 38.9732 54.3850 0.0000 0.0000 0.0000
# 2 38.9732 161.2989 62.6866 0.0000 0.0000 0.0000
# 3 54.3850 62.6866 81.1859 0.0000 0.0000 0.0000
# 4 0.0000 0.0000 0.0000 9.8286 0.0000 0.0000
# 5 0.0000 0.0000 0.0000 0.0000 24.1278 0.0000
# 6 0.0000 0.0000 0.0000 0.0000 0.0000 -16.0290
#
#
#
# Elastic Compliance Matrix: (Units=1/GPa)
#
#
# Indices 1 2 3 4 5 6 
#
# 1 0.014077 0.000376 -0.009720 0.000000 0.000000 0.000000
# 2 0.000376 0.008868 -0.007099 0.000000 0.000000 0.000000
# 3 -0.009720 -0.007099 0.024311 0.000000 0.000000 0.000000
# 4 0.000000 0.000000 0.000000 0.101744 0.000000 0.000000
# 5 0.000000 0.000000 0.000000 0.000000 0.041446 0.000000
# 6 0.000000 0.000000 0.000000 0.000000 0.000000 -0.062387
#
#
# Mechanical properties :
#
#
# Convention : Reuss Voigt Hill
#
# Bulk Modulus (GPa) = 69.59657 73.56957 71.58307
# Shear Modulus (GPa) = 30.16871 16.51823 23.34347
#
# Velocity S-wave (km/s) = 4.09862 3.03278 3.60531
# Velocity P-wave (km/s) = 7.81993 7.29582 7.56242
#
# Compressibility (1/GPa) = 0.01436852
#
# Stress axis : x y z
#
# Youngs Moduli (GPa) = 71.03925 112.76801 41.13424
#
# Poissons Ratio (x) = -0.04246 0.39984
# Poissons Ratio (y) = -0.02675 0.29203
# Poissons Ratio (z) = 0.69053 0.80058
#
# Static dielectric constant tensor:
#      x y z
#    x 1.586090 0.000000 0.000000 
#    y 0.000000 1.621010 0.000000 
#    z 0.000000 0.000000 1.618420 
# 
# From -- ./inp_files/15710.got.cif
#   From: 2010.05.17/outbox.cif.g08.bks.cpg/sg69_8_cif.got.tgz:15710.got - 2010.06.03 19:29:58.
