data_PCOD9512092
_publ_section_title
;
Structure prediction by ZEFSAII (Michael W. Deem and Ramdas Pophale) SiO2 
 PCOD9512092
Probable space group: F M M M
;
_chemical_formula_sum "Si O2"
_cell_formula_units_Z 96
_cell_length_a 24.297183
_cell_length_b 13.523629
_cell_length_c 15.450763
_cell_angle_alpha 90.000000
_cell_angle_beta 90.000000
_cell_angle_gamma 90.000000
_cell_volume 5076.905781
_symmetry_space_group_name_H-M "F M M M"
_symmetry_group_IT_number 69
_symmetry_cell_setting 'orthorhombic'
loop_
_space_group_symop_operation_xyz
x,y,z
-x,-y,z
x,-y,-z
-x,y,-z
-x,-y,-z
x,y,-z
-x,y,z
x,-y,z
x,1/2+y,1/2+z
-x,1/2-y,1/2+z
x,1/2-y,1/2-z
-x,1/2+y,1/2-z
-x,1/2-y,1/2-z
x,1/2+y,1/2-z
-x,1/2+y,1/2+z
x,1/2-y,1/2+z
1/2+x,y,1/2+z
1/2-x,-y,1/2+z
1/2+x,-y,1/2-z
1/2-x,y,1/2-z
1/2-x,-y,1/2-z
1/2+x,y,1/2-z
1/2-x,y,1/2+z
1/2+x,-y,1/2+z
1/2+x,1/2+y,z
1/2-x,1/2-y,z
1/2+x,1/2-y,-z
1/2-x,1/2+y,-z
1/2-x,1/2-y,-z
1/2+x,1/2+y,-z
1/2-x,1/2+y,z
1/2+x,1/2-y,z
loop_
_atom_site_type_symbol
_atom_site_label
_atom_site_fract_x
_atom_site_fract_y
_atom_site_fract_z
Si Si1 0.793753 0.500000 0.000000
Si Si2 0.313066 0.500000 0.899820
Si Si3 0.000000 0.818865 0.166026
Si Si4 0.500000 0.176853 0.000000
Si Si5 0.380178 0.674454 0.500000
Si Si6 0.378527 0.181756 0.665234
O O1 0.752095 0.500000 0.081654
O O2 0.832150 0.595175 0.000000
O O3 0.334200 0.403435 0.850382
O O4 0.336306 0.500000 0.000000
O O5 0.000000 0.750000 0.250000
O O6 0.060153 0.868140 0.166901
O O7 0.000000 0.748146 0.082891
O O8 0.440982 0.124515 0.000000
O O9 0.376362 0.744533 0.416403
O O10 0.371401 0.250000 0.750000
#
# Coordination Sequence:
#
# PCOD9512092 Si02
#       6
#     8  16  16   8  16  32
#     4  10  24  39  62  77 120 154 204 252 302 344
#     4  10  22  40  59  87 116 161 204 241 288 360
#     4   8  16  31  53  88 120 151 187 244 297 352
#     4   8  16  29  58  81 110 146 208 227 296 379
#     4  10  19  39  57  86 116 161 189 256 304 348
#     4  10  20  37  62  87 123 157 197 245 302 353
#
# _framework density 18.909154999999998
#
# number of rings (size 3 to 8) (size 9 to 14) (size 15 to 20)
#    0.500    2.000    1.667    0.000    0.000    5.000 
#    0.000    5.833    0.000   12.000    0.000    0.000 
#    0.000    0.000    0.000    0.000    0.000    0.000 
#
# Total GULP energy -133609.909681 kJ/mol
# GULP energy per Si atom -5567.079570 kJ/mol
# Density = 1.886612 g / cm^3
# Si number density = 18.909155 Si / 1000 Ang^3
#
#
#
# Elastic Constant Matrix: (Units=GPa)
#
#
# Indices 1 2 3 4 5 6 
#
# 1 169.5139 73.3724 24.0338 0.0000 0.0000 0.0000
# 2 73.3724 97.1846 39.2909 0.0000 0.0000 0.0000
# 3 24.0338 39.2909 138.0098 0.0000 0.0000 0.0000
# 4 0.0000 0.0000 0.0000 20.1104 0.0000 0.0000
# 5 0.0000 0.0000 0.0000 0.0000 24.2445 0.0000
# 6 0.0000 0.0000 0.0000 0.0000 0.0000 29.6130
#
#
#
# Elastic Compliance Matrix: (Units=1/GPa)
#
#
# Indices 1 2 3 4 5 6 
#
# 1 0.008783 -0.006794 0.000405 0.000000 0.000000 0.000000
# 2 -0.006794 0.016884 -0.003624 0.000000 0.000000 0.000000
# 3 0.000405 -0.003624 0.008207 0.000000 0.000000 0.000000
# 4 0.000000 0.000000 0.000000 0.049726 0.000000 0.000000
# 5 0.000000 0.000000 0.000000 0.000000 0.041246 0.000000
# 6 0.000000 0.000000 0.000000 0.000000 0.000000 0.033769
#
#
# Mechanical properties :
#
#
# Convention : Reuss Voigt Hill
#
# Bulk Modulus (GPa) = 72.21481 75.34472 73.77977
# Shear Modulus (GPa) = 27.28400 32.66099 29.97249
#
# Velocity S-wave (km/s) = 3.80267 4.16054 3.98562
# Velocity P-wave (km/s) = 7.58642 7.93802 7.76421
#
# Compressibility (1/GPa) = 0.01384757
#
# Stress axis : x y z
#
# Youngs Moduli (GPa) = 113.85957 59.22611 121.84704
#
# Poissons Ratio (x) = 0.40241 -0.04934
# Poissons Ratio (y) = 0.77362 0.44154
# Poissons Ratio (z) = -0.04610 0.21462
#
# Static dielectric constant tensor:
#      x y z
#    x 1.721900 0.000000 0.000000 
#    y 0.000000 1.616660 0.000000 
#    z 0.000000 0.000000 1.642740 
# 
# From -- ./inp_files/17212.got.cif
#   From: 2010.05.17/outbox.cif.g08.bks.cpg/sg69_9_cif.got.tgz:17212.got - 2010.06.03 19:29:58.
