data_PCOD9512911
_publ_section_title
;
Structure prediction by ZEFSAII (Michael W. Deem and Ramdas Pophale) SiO2 
 PCOD9512911
Probable space group: F M M M
;
_chemical_formula_sum "Si O2"
_cell_formula_units_Z 160
_cell_length_a 24.020991
_cell_length_b 15.941304
_cell_length_c 22.117846
_cell_angle_alpha 90.000000
_cell_angle_beta 90.000000
_cell_angle_gamma 90.000000
_cell_volume 8469.496526
_symmetry_space_group_name_H-M "F M M M"
_symmetry_group_IT_number 69
_symmetry_cell_setting 'orthorhombic'
loop_
_space_group_symop_operation_xyz
x,y,z
-x,-y,z
x,-y,-z
-x,y,-z
-x,-y,-z
x,y,-z
-x,y,z
x,-y,z
x,1/2+y,1/2+z
-x,1/2-y,1/2+z
x,1/2-y,1/2-z
-x,1/2+y,1/2-z
-x,1/2-y,1/2-z
x,1/2+y,1/2-z
-x,1/2+y,1/2+z
x,1/2-y,1/2+z
1/2+x,y,1/2+z
1/2-x,-y,1/2+z
1/2+x,-y,1/2-z
1/2-x,y,1/2-z
1/2-x,-y,1/2-z
1/2+x,y,1/2-z
1/2-x,y,1/2+z
1/2+x,-y,1/2+z
1/2+x,1/2+y,z
1/2-x,1/2-y,z
1/2+x,1/2-y,-z
1/2-x,1/2+y,-z
1/2-x,1/2-y,-z
1/2+x,1/2+y,-z
1/2-x,1/2+y,z
1/2+x,1/2-y,z
loop_
_atom_site_type_symbol
_atom_site_label
_atom_site_fract_x
_atom_site_fract_y
_atom_site_fract_z
Si Si1 0.065981 0.681682 0.567442
Si Si2 0.613760 0.000000 0.428485
Si Si3 0.564320 0.816844 0.696362
Si Si4 0.735983 0.656310 0.650260
Si Si5 0.241194 0.500000 0.572497
Si Si6 0.169099 0.098033 0.756168
O O1 0.089901 0.701589 0.500000
O O2 0.080392 0.584854 0.582561
O O3 0.082247 0.723044 0.631318
O O4 0.000000 0.692544 0.561802
O O5 0.622115 0.000000 0.500000
O O6 0.676566 0.000000 0.404407
O O7 0.500000 0.845820 0.690253
O O8 0.565430 0.750000 0.750000
O O9 0.608203 0.886344 0.717283
O O10 0.750000 0.750000 0.628364
O O11 0.732564 0.584939 0.599382
O O12 0.787036 0.629842 0.694076
O O13 0.683200 0.649719 0.695252
O O14 0.243438 0.500000 0.500000
O O15 0.178747 0.000000 0.743580
#
# Coordination Sequence:
#
# PCOD9512911 Si02
#       6
#    32  16  32  32  16  32
#     4   9  17  29  47  72 105 145 180 212 265 336
#     4   9  17  28  46  72 105 138 173 223 271 329
#     4  10  21  34  50  79 116 147 183 235 284 331
#     4  11  21  37  59  83 110 147 191 232 283 340
#     4  11  22  36  53  81 114 144 184 233 283 340
#     4  11  20  36  58  80 108 146 189 237 283 339
#
# _framework density 18.891324000000001
#
# number of rings (size 3 to 8) (size 9 to 14) (size 15 to 20)
#    0.000    1.800    2.000    4.500    1.400    2.000 
#    0.000    0.000    0.000    3.600    0.000    0.000 
#    0.000    0.800    0.000    0.000    0.000    0.000 
#
# Total GULP energy -222834.347587 kJ/mol
# GULP energy per Si atom -5570.858690 kJ/mol
# Density = 1.884833 g / cm^3
# Si number density = 18.891324 Si / 1000 Ang^3
#
#
#
# Elastic Constant Matrix: (Units=GPa)
#
#
# Indices 1 2 3 4 5 6 
#
# 1 51.0825 11.5283 14.1567 0.0000 0.0000 0.0000
# 2 11.5283 73.9141 51.1677 0.0000 0.0000 0.0000
# 3 14.1567 51.1677 143.6825 0.0000 0.0000 0.0000
# 4 0.0000 0.0000 0.0000 23.9381 0.0000 0.0000
# 5 0.0000 0.0000 0.0000 0.0000 20.8106 0.0000
# 6 0.0000 0.0000 0.0000 0.0000 0.0000 18.3543
#
#
#
# Elastic Compliance Matrix: (Units=1/GPa)
#
#
# Indices 1 2 3 4 5 6 
#
# 1 0.020436 -0.002380 -0.001166 0.000000 0.000000 0.000000
# 2 -0.002380 0.018233 -0.006259 0.000000 0.000000 0.000000
# 3 -0.001166 -0.006259 0.009303 0.000000 0.000000 0.000000
# 4 0.000000 0.000000 0.000000 0.041774 0.000000 0.000000
# 5 0.000000 0.000000 0.000000 0.000000 0.048052 0.000000
# 6 0.000000 0.000000 0.000000 0.000000 0.000000 0.054483
#
#
# Mechanical properties :
#
#
# Convention : Reuss Voigt Hill
#
# Bulk Modulus (GPa) = 35.25676 46.93161 41.09418
# Shear Modulus (GPa) = 22.58896 25.40901 23.99898
#
# Velocity S-wave (km/s) = 3.46169 3.67142 3.56809
# Velocity P-wave (km/s) = 5.88907 6.54746 6.22697
#
# Compressibility (1/GPa) = 0.02836336
#
# Stress axis : x y z
#
# Youngs Moduli (GPa) = 48.93209 54.84553 107.48720
#
# Poissons Ratio (x) = 0.13055 0.12532
# Poissons Ratio (y) = 0.11648 0.67271
# Poissons Ratio (z) = 0.05705 0.34325
#
# Static dielectric constant tensor:
#      x y z
#    x 1.695790 0.000000 0.000000 
#    y 0.000000 1.696080 0.000000 
#    z 0.000000 0.000000 1.730650 
# 
# From -- ./inp_files/37792.got.cif
#   From: 2010.05.17/outbox.cif.g08.bks.cpg/sg69_19_cif.got.tgz:37792.got - 2010.06.03 19:29:58.
