data_PCOD9512299
_publ_section_title
;
Structure prediction by ZEFSAII (Michael W. Deem and Ramdas Pophale) SiO2 
 PCOD9512299
Probable space group: F M M M
;
_chemical_formula_sum "Si O2"
_cell_formula_units_Z 144
_cell_length_a 32.624639
_cell_length_b 8.757144
_cell_length_c 27.597356
_cell_angle_alpha 90.000000
_cell_angle_beta 90.000000
_cell_angle_gamma 90.000000
_cell_volume 7884.527675
_symmetry_space_group_name_H-M "F M M M"
_symmetry_group_IT_number 69
_symmetry_cell_setting 'orthorhombic'
loop_
_space_group_symop_operation_xyz
x,y,z
-x,-y,z
x,-y,-z
-x,y,-z
-x,-y,-z
x,y,-z
-x,y,z
x,-y,z
x,1/2+y,1/2+z
-x,1/2-y,1/2+z
x,1/2-y,1/2-z
-x,1/2+y,1/2-z
-x,1/2-y,1/2-z
x,1/2+y,1/2-z
-x,1/2+y,1/2+z
x,1/2-y,1/2+z
1/2+x,y,1/2+z
1/2-x,-y,1/2+z
1/2+x,-y,1/2-z
1/2-x,y,1/2-z
1/2-x,-y,1/2-z
1/2+x,y,1/2-z
1/2-x,y,1/2+z
1/2+x,-y,1/2+z
1/2+x,1/2+y,z
1/2-x,1/2-y,z
1/2+x,1/2-y,-z
1/2-x,1/2+y,-z
1/2-x,1/2-y,-z
1/2+x,1/2+y,-z
1/2-x,1/2+y,z
1/2+x,1/2-y,z
loop_
_atom_site_type_symbol
_atom_site_label
_atom_site_fract_x
_atom_site_fract_y
_atom_site_fract_z
Si Si1 0.835362 0.182870 0.699060
Si Si2 0.706027 0.182004 0.902112
Si Si3 0.916953 0.816232 0.153264
Si Si4 0.875150 0.683724 0.446234
Si Si5 0.000000 0.182604 0.304046
O O1 0.820801 0.250000 0.750000
O O2 0.806140 0.220823 0.653593
O O3 0.879592 0.254778 0.686119
O O4 0.839061 0.000000 0.702050
O O5 0.750000 0.250000 0.914457
O O6 0.669333 0.247927 0.934430
O O7 0.706855 0.000000 0.906525
O O8 0.904849 0.773290 0.098074
O O9 0.959366 0.743123 0.169501
O O10 0.918990 0.000000 0.157160
O O11 0.888787 0.730121 0.500000
O O12 0.871824 0.500000 0.445107
O O13 0.000000 0.250000 0.250000
O O14 0.000000 0.000000 0.302171
#
# Coordination Sequence:
#
# PCOD9512299 Si02
#       5
#    32  32  32  32  16
#     4  10  20  34  52  75 104 140 179 217 264 318
#     4  10  21  35  52  76 106 139 177 222 267 315
#     4  10  20  36  57  81 109 139 175 218 262 310
#     4   9  19  37  60  82 105 137 176 218 265 315
#     4  12  24  38  57  82 113 145 178 215 257 306
#
# _framework density 18.263617
#
# number of rings (size 3 to 8) (size 9 to 14) (size 15 to 20)
#    0.000    2.000    0.000    3.667    0.000    4.889 
#    0.000    2.778    0.000    3.333    0.000    0.000 
#    0.000    0.000    0.000    0.000    0.000    0.000 
#
# Total GULP energy -201081.300237 kJ/mol
# GULP energy per Si atom -5585.591673 kJ/mol
# Density = 1.822205 g / cm^3
# Si number density = 18.263617 Si / 1000 Ang^3
#
#
#
# Elastic Constant Matrix: (Units=GPa)
#
#
# Indices 1 2 3 4 5 6 
#
# 1 99.7874 27.0852 27.8806 0.0000 0.0000 0.0001
# 2 27.0852 50.2933 28.1000 0.0000 0.0000 0.0002
# 3 27.8806 28.1000 108.8290 0.0000 0.0000 0.0000
# 4 0.0000 0.0000 0.0000 21.3324 0.0000 0.0000
# 5 0.0000 0.0000 0.0000 0.0000 5.0556 0.0000
# 6 0.0001 0.0002 0.0000 0.0000 0.0000 28.6682
#
#
#
# Elastic Compliance Matrix: (Units=1/GPa)
#
#
# Indices 1 2 3 4 5 6 
#
# 1 0.011982 -0.005537 -0.001640 0.000000 0.000000 0.000000
# 2 -0.005537 0.025794 -0.005242 0.000000 0.000000 0.000000
# 3 -0.001640 -0.005242 0.010962 0.000000 0.000000 0.000000
# 4 0.000000 0.000000 0.000000 0.046877 0.000000 0.000000
# 5 0.000000 0.000000 0.000000 0.000000 0.197801 0.000000
# 6 0.000000 0.000000 0.000000 0.000000 0.000000 0.034882
#
#
# Mechanical properties :
#
#
# Convention : Reuss Voigt Hill
#
# Bulk Modulus (GPa) = 41.83825 47.22682 44.53254
# Shear Modulus (GPa) = 13.84649 22.73415 18.29032
#
# Velocity S-wave (km/s) = 2.75643 3.53197 3.16802
# Velocity P-wave (km/s) = 5.75224 6.52285 6.14963
#
# Compressibility (1/GPa) = 0.02390157
#
# Stress axis : x y z
#
# Youngs Moduli (GPa) = 83.45597 38.76918 91.22160
#
# Poissons Ratio (x) = 0.21465 0.14962
# Poissons Ratio (y) = 0.46207 0.47815
# Poissons Ratio (z) = 0.13688 0.20321
#
# Static dielectric constant tensor:
#      x y z
#    x 1.584620 0.000000 0.000000 
#    y 0.000000 1.607190 0.000000 
#    z 0.000000 0.000000 1.644180 
# 
# From -- ./inp_files/5535.got.cif
#   From: 2010.05.17/outbox.cif.g08.bks.cpg/sg69_3_cif.got.tgz:5535.got - 2010.06.03 19:29:58.
