data_PCOD9512057
_publ_section_title
;
Structure prediction by ZEFSAII (Michael W. Deem and Ramdas Pophale) SiO2 
 PCOD9512057
Probable space group: F M M M
;
_chemical_formula_sum "Si O2"
_cell_formula_units_Z 128
_cell_length_a 13.914830
_cell_length_b 23.401614
_cell_length_c 21.395832
_cell_angle_alpha 90.000000
_cell_angle_beta 90.000000
_cell_angle_gamma 90.000000
_cell_volume 6967.113660
_symmetry_space_group_name_H-M "F M M M"
_symmetry_group_IT_number 69
_symmetry_cell_setting 'orthorhombic'
loop_
_space_group_symop_operation_xyz
x,y,z
-x,-y,z
x,-y,-z
-x,y,-z
-x,-y,-z
x,y,-z
-x,y,z
x,-y,z
x,1/2+y,1/2+z
-x,1/2-y,1/2+z
x,1/2-y,1/2-z
-x,1/2+y,1/2-z
-x,1/2-y,1/2-z
x,1/2+y,1/2-z
-x,1/2+y,1/2+z
x,1/2-y,1/2+z
1/2+x,y,1/2+z
1/2-x,-y,1/2+z
1/2+x,-y,1/2-z
1/2-x,y,1/2-z
1/2-x,-y,1/2-z
1/2+x,y,1/2-z
1/2-x,y,1/2+z
1/2+x,-y,1/2+z
1/2+x,1/2+y,z
1/2-x,1/2-y,z
1/2+x,1/2-y,-z
1/2-x,1/2+y,-z
1/2-x,1/2-y,-z
1/2+x,1/2+y,-z
1/2-x,1/2+y,z
1/2+x,1/2-y,z
loop_
_atom_site_type_symbol
_atom_site_label
_atom_site_fract_x
_atom_site_fract_y
_atom_site_fract_z
Si Si1 0.230659 0.000000 0.575676
Si Si2 0.727703 0.816391 0.839135
Si Si3 0.886511 0.000000 0.184329
Si Si4 0.391017 0.886471 0.925594
Si Si5 0.613298 0.125330 0.725255
O O1 0.321795 0.000000 0.621860
O O2 0.166674 0.944152 0.590416
O O3 0.251494 0.000000 0.500000
O O4 0.750000 0.750000 0.831384
O O5 0.669245 0.833218 0.900328
O O6 0.660865 0.842510 0.783962
O O7 0.828859 0.849275 0.833593
O O8 0.868732 0.942580 0.224098
O O9 0.000000 0.000000 0.167675
O O10 0.500000 0.887752 0.900199
O O11 0.396706 0.884550 0.000000
O O12 0.500000 0.135626 0.722772
#
# Coordination Sequence:
#
# PCOD9512057 Si02
#       5
#    16  32  16  32  32
#     4  10  19  36  61  89 119 152 191 239 296 353
#     4  11  23  37  58  83 112 158 197 234 288 340
#     4  10  20  36  59  89 120 152 188 239 297 353
#     4  10  21  38  61  89 118 149 192 245 296 346
#     4  10  21  37  57  85 118 149 189 236 288 349
#
# _framework density 18.372026999999999
#
# number of rings (size 3 to 8) (size 9 to 14) (size 15 to 20)
#    0.000    1.750    2.500    2.625    0.000    8.250 
#    0.000    2.500    0.000    0.750    0.000    0.000 
#    0.000    0.000    0.000    0.000    0.000    0.000 
#
# Total GULP energy -178531.060657 kJ/mol
# GULP energy per Si atom -5579.095646 kJ/mol
# Density = 1.833021 g / cm^3
# Si number density = 18.372027 Si / 1000 Ang^3
#
#
#
# Elastic Constant Matrix: (Units=GPa)
#
#
# Indices 1 2 3 4 5 6 
#
# 1 143.4474 75.6178 37.3077 0.0000 0.0000 0.0000
# 2 75.6178 164.0796 32.7973 0.0000 0.0000 0.0000
# 3 37.3077 32.7973 33.7848 0.0000 0.0000 0.0000
# 4 0.0000 0.0000 0.0000 67.5576 0.0000 0.0000
# 5 0.0000 0.0000 0.0000 0.0000 31.5148 0.0000
# 6 0.0000 0.0000 0.0000 0.0000 0.0000 10.7047
#
#
#
# Elastic Compliance Matrix: (Units=1/GPa)
#
#
# Indices 1 2 3 4 5 6 
#
# 1 0.011048 -0.003292 -0.009005 0.000000 0.000000 0.000000
# 2 -0.003292 0.008543 -0.004658 0.000000 0.000000 0.000000
# 3 -0.009005 -0.004658 0.044065 0.000000 0.000000 0.000000
# 4 0.000000 0.000000 0.000000 0.014802 0.000000 0.000000
# 5 0.000000 0.000000 0.000000 0.000000 0.031731 0.000000
# 6 0.000000 0.000000 0.000000 0.000000 0.000000 0.093417
#
#
# Mechanical properties :
#
#
# Convention : Reuss Voigt Hill
#
# Bulk Modulus (GPa) = 33.61732 70.30638 51.96185
# Shear Modulus (GPa) = 20.20766 34.99470 27.60118
#
# Velocity S-wave (km/s) = 3.32009 4.36912 3.88022
# Velocity P-wave (km/s) = 5.74762 7.98771 6.95840
#
# Compressibility (1/GPa) = 0.02974657
#
# Stress axis : x y z
#
# Youngs Moduli (GPa) = 90.51025 117.05850 22.69389
#
# Poissons Ratio (x) = 0.38534 0.20436
# Poissons Ratio (y) = 0.29795 0.10571
# Poissons Ratio (z) = 0.81504 0.54525
#
# Static dielectric constant tensor:
#      x y z
#    x 1.643150 0.000000 0.000000 
#    y 0.000000 1.629810 0.000000 
#    z 0.000000 0.000000 1.678670 
# 
# From -- ./inp_files/16365.got.cif
#   From: 2010.05.17/outbox.cif.g08.bks.cpg/sg69_9_cif.got.tgz:16365.got - 2010.06.03 19:29:58.
