data_PCOD9512616
_publ_section_title
;
Structure prediction by ZEFSAII (Michael W. Deem and Ramdas Pophale) SiO2 
 PCOD9512616
Probable space group: F M M M
;
_chemical_formula_sum "Si O2"
_cell_formula_units_Z 160
_cell_length_a 15.369428
_cell_length_b 17.210784
_cell_length_c 33.522581
_cell_angle_alpha 90.000000
_cell_angle_beta 90.000000
_cell_angle_gamma 90.000000
_cell_volume 8867.389959
_symmetry_space_group_name_H-M "F M M M"
_symmetry_group_IT_number 69
_symmetry_cell_setting 'orthorhombic'
loop_
_space_group_symop_operation_xyz
x,y,z
-x,-y,z
x,-y,-z
-x,y,-z
-x,-y,-z
x,y,-z
-x,y,z
x,-y,z
x,1/2+y,1/2+z
-x,1/2-y,1/2+z
x,1/2-y,1/2-z
-x,1/2+y,1/2-z
-x,1/2-y,1/2-z
x,1/2+y,1/2-z
-x,1/2+y,1/2+z
x,1/2-y,1/2+z
1/2+x,y,1/2+z
1/2-x,-y,1/2+z
1/2+x,-y,1/2-z
1/2-x,y,1/2-z
1/2-x,-y,1/2-z
1/2+x,y,1/2-z
1/2-x,y,1/2+z
1/2+x,-y,1/2+z
1/2+x,1/2+y,z
1/2-x,1/2-y,z
1/2+x,1/2-y,-z
1/2-x,1/2+y,-z
1/2-x,1/2-y,-z
1/2+x,1/2+y,-z
1/2-x,1/2+y,z
1/2+x,1/2-y,z
loop_
_atom_site_type_symbol
_atom_site_label
_atom_site_fract_x
_atom_site_fract_y
_atom_site_fract_z
Si Si1 0.601087 0.406487 0.701999
Si Si2 0.834605 0.305475 0.000000
Si Si3 0.755114 0.591346 0.439686
Si Si4 0.897671 0.907027 0.205503
Si Si5 0.902015 0.355731 0.500000
Si Si6 0.246905 0.158810 0.147939
O O1 0.500000 0.386727 0.694384
O O2 0.609552 0.500000 0.698458
O O3 0.620813 0.386859 0.748240
O O4 0.667559 0.366388 0.672328
O O5 0.750000 0.250000 0.000000
O O6 0.821535 0.360286 0.961720
O O7 0.905756 0.238578 0.000000
O O8 0.742222 0.500000 0.445325
O O9 0.844408 0.616025 0.462262
O O10 0.758763 0.613258 0.393590
O O11 0.835040 0.862564 0.175665
O O12 0.000000 0.892251 0.198266
O O13 0.883346 0.000000 0.201275
O O14 0.000000 0.386584 0.500000
O O15 0.250000 0.250000 0.139435
#
# Coordination Sequence:
#
# PCOD9512616 Si02
#       6
#    32  16  32  32  16  32
#     4   9  19  37  58  77 102 142 190 235 278 328
#     4   8  16  35  56  78 106 135 165 202 254 312
#     4  10  20  36  58  79 105 143 184 220 254 309
#     4   9  19  36  56  78 106 142 185 232 281 333
#     4  10  20  36  60  88 116 140 164 208 272 332
#     4  12  23  34  52  81 114 147 183 228 280 328
#
# _framework density 18.043641000000001
#
# number of rings (size 3 to 8) (size 9 to 14) (size 15 to 20)
#    0.000    2.400    0.000    6.600    0.000    5.600 
#    0.000    5.000    0.000    2.400    0.000    0.000 
#    0.000    0.000    0.000    0.000    0.000    0.000 
#
# Total GULP energy -223147.138622 kJ/mol
# GULP energy per Si atom -5578.678466 kJ/mol
# Density = 1.800257 g / cm^3
# Si number density = 18.043641 Si / 1000 Ang^3
#
#
#
# Elastic Constant Matrix: (Units=GPa)
#
#
# Indices 1 2 3 4 5 6 
#
# 1 42.3218 22.4269 35.3607 0.0000 0.0000 0.0000
# 2 22.4269 98.4489 39.3313 0.0000 0.0000 0.0000
# 3 35.3607 39.3313 100.3610 0.0000 0.0000 0.0000
# 4 0.0000 0.0000 0.0000 43.8865 0.0000 0.0000
# 5 0.0000 0.0000 0.0000 0.0000 -82.4610 0.0000
# 6 0.0000 0.0000 0.0000 0.0000 0.0000 21.0608
#
#
#
# Elastic Compliance Matrix: (Units=1/GPa)
#
#
# Indices 1 2 3 4 5 6 
#
# 1 0.034508 -0.003561 -0.010763 0.000000 0.000000 0.000000
# 2 -0.003561 0.012411 -0.003609 0.000000 0.000000 0.000000
# 3 -0.010763 -0.003609 0.015170 0.000000 0.000000 0.000000
# 4 0.000000 0.000000 0.000000 0.022786 0.000000 0.000000
# 5 0.000000 0.000000 0.000000 0.000000 -0.012127 0.000000
# 6 0.000000 0.000000 0.000000 0.000000 0.000000 0.047482
#
#
# Mechanical properties :
#
#
# Convention : Reuss Voigt Hill
#
# Bulk Modulus (GPa) = 38.13400 48.37439 43.25419
# Shear Modulus (GPa) = 30.33304 6.09813 18.21559
#
# Velocity S-wave (km/s) = 4.10456 1.84038 3.18076
# Velocity P-wave (km/s) = 6.60632 5.60213 6.12484
#
# Compressibility (1/GPa) = 0.02622332
#
# Stress axis : x y z
#
# Youngs Moduli (GPa) = 28.97872 80.57618 65.91757
#
# Poissons Ratio (x) = 0.28695 0.70945
# Poissons Ratio (y) = 0.10320 0.23789
# Poissons Ratio (z) = 0.31189 0.29080
#
# Static dielectric constant tensor:
#      x y z
#    x 1.614510 0.000000 0.000000 
#    y 0.000000 1.633620 0.000000 
#    z 0.000000 0.000000 1.596760 
# 
# From -- ./inp_files/45705.got.cif
#   From: 2010.05.17/outbox.cif.g08.bks.cpg/sg69_23_cif.got.tgz:45705.got - 2010.06.03 19:29:58.
