data_PCOD9512093
_publ_section_title
;
Structure prediction by ZEFSAII (Michael W. Deem and Ramdas Pophale) SiO2 
 PCOD9512093
Probable space group: F M M M
;
_chemical_formula_sum "Si O2"
_cell_formula_units_Z 136
_cell_length_a 21.953985
_cell_length_b 19.097096
_cell_length_c 17.489412
_cell_angle_alpha 90.000000
_cell_angle_beta 90.000000
_cell_angle_gamma 90.000000
_cell_volume 7332.564688
_symmetry_space_group_name_H-M "F M M M"
_symmetry_group_IT_number 69
_symmetry_cell_setting 'orthorhombic'
loop_
_space_group_symop_operation_xyz
x,y,z
-x,-y,z
x,-y,-z
-x,y,-z
-x,-y,-z
x,y,-z
-x,y,z
x,-y,z
x,1/2+y,1/2+z
-x,1/2-y,1/2+z
x,1/2-y,1/2-z
-x,1/2+y,1/2-z
-x,1/2-y,1/2-z
x,1/2+y,1/2-z
-x,1/2+y,1/2+z
x,1/2-y,1/2+z
1/2+x,y,1/2+z
1/2-x,-y,1/2+z
1/2+x,-y,1/2-z
1/2-x,y,1/2-z
1/2-x,-y,1/2-z
1/2+x,y,1/2-z
1/2-x,y,1/2+z
1/2+x,-y,1/2+z
1/2+x,1/2+y,z
1/2-x,1/2-y,z
1/2+x,1/2-y,-z
1/2-x,1/2+y,-z
1/2-x,1/2-y,-z
1/2+x,1/2+y,-z
1/2-x,1/2+y,z
1/2+x,1/2-y,z
loop_
_atom_site_type_symbol
_atom_site_label
_atom_site_fract_x
_atom_site_fract_y
_atom_site_fract_z
Si Si1 0.250000 0.250000 0.365981
Si Si2 0.334858 0.366593 0.213144
Si Si3 0.928733 0.332322 0.589142
Si Si4 0.572482 0.582564 0.500000
Si Si5 0.250000 0.000000 0.250000
Si Si6 0.871325 0.816098 0.379910
O O1 0.287604 0.191724 0.318893
O O2 0.196027 0.208092 0.407680
O O3 0.386043 0.373564 0.147873
O O4 0.300053 0.437959 0.229876
O O5 0.363518 0.336280 0.291282
O O6 0.913313 0.345036 0.500000
O O7 0.914615 0.250542 0.606725
O O8 0.000000 0.346478 0.600121
O O9 0.583204 0.500000 0.500000
O O10 0.500000 0.595306 0.500000
O O11 0.602824 0.619420 0.427163
#
# Coordination Sequence:
#
# PCOD9512093 Si02
#       6
#    16  32  32  16   8  32
#     4  10  19  39  64  97 118 151 206 265 317 366
#     4  11  23  39  67  93 124 169 207 262 317 387
#     4  10  21  40  66  97 126 158 212 273 317 366
#     4  11  26  41  54  84 132 172 206 251 308 374
#     4  12  24  42  64  90 138 158 210 254 324 378
#     4  11  20  37  65  88 126 162 207 260 319 372
#
# _framework density 18.547398000000001
#
# number of rings (size 3 to 8) (size 9 to 14) (size 15 to 20)
#    0.000    1.294    3.529    4.235    1.647    3.294 
#    2.118    1.176    2.588    1.412    0.000    0.000 
#    0.000    0.000    0.000    0.000    0.000    0.000 
#
# Total GULP energy -189273.808758 kJ/mol
# GULP energy per Si atom -5566.876728 kJ/mol
# Density = 1.850518 g / cm^3
# Si number density = 18.547398 Si / 1000 Ang^3
#
#
#
# Elastic Constant Matrix: (Units=GPa)
#
#
# Indices 1 2 3 4 5 6 
#
# 1 116.4851 41.8837 65.3053 0.0000 0.0000 0.0000
# 2 41.8837 92.9934 36.2222 0.0000 0.0000 0.0000
# 3 65.3053 36.2222 113.5234 0.0000 0.0000 0.0000
# 4 0.0000 0.0000 0.0000 35.4012 0.0000 0.0000
# 5 0.0000 0.0000 0.0000 0.0000 42.0894 0.0000
# 6 0.0000 0.0000 0.0000 0.0000 0.0000 33.4101
#
#
#
# Elastic Compliance Matrix: (Units=1/GPa)
#
#
# Indices 1 2 3 4 5 6 
#
# 1 0.013609 -0.003517 -0.006707 0.000000 0.000000 0.000000
# 2 -0.003517 0.013189 -0.002185 0.000000 0.000000 0.000000
# 3 -0.006707 -0.002185 0.013364 0.000000 0.000000 0.000000
# 4 0.000000 0.000000 0.000000 0.028248 0.000000 0.000000
# 5 0.000000 0.000000 0.000000 0.000000 0.023759 0.000000
# 6 0.000000 0.000000 0.000000 0.000000 0.000000 0.029931
#
#
# Mechanical properties :
#
#
# Convention : Reuss Voigt Hill
#
# Bulk Modulus (GPa) = 65.16984 67.75826 66.46405
# Shear Modulus (GPa) = 32.88781 34.15285 33.52033
#
# Velocity S-wave (km/s) = 4.21548 4.29579 4.25582
# Velocity P-wave (km/s) = 7.67508 7.82412 7.74996
#
# Compressibility (1/GPa) = 0.01534452
#
# Stress axis : x y z
#
# Youngs Moduli (GPa) = 73.47829 75.82292 74.82821
#
# Poissons Ratio (x) = 0.26669 0.50185
# Poissons Ratio (y) = 0.25844 0.16348
# Poissons Ratio (z) = 0.49280 0.16566
#
# Static dielectric constant tensor:
#      x y z
#    x 1.653880 0.000000 0.000000 
#    y 0.000000 1.606780 0.000000 
#    z 0.000000 0.000000 1.671490 
# 
# From -- ./inp_files/24223.got.cif
#   From: 2010.05.17/outbox.cif.g08.bks.cpg/sg69_13_cif.got.tgz:24223.got - 2010.06.03 19:29:58.
