data_PCOD9512913
_publ_section_title
;
Structure prediction by ZEFSAII (Michael W. Deem and Ramdas Pophale) SiO2 
 PCOD9512913
Probable space group: F M M M
;
_chemical_formula_sum "Si O2"
_cell_formula_units_Z 168
_cell_length_a 18.306023
_cell_length_b 14.907435
_cell_length_c 30.495271
_cell_angle_alpha 90.000000
_cell_angle_beta 90.000000
_cell_angle_gamma 90.000000
_cell_volume 8322.032839
_symmetry_space_group_name_H-M "F M M M"
_symmetry_group_IT_number 69
_symmetry_cell_setting 'orthorhombic'
loop_
_space_group_symop_operation_xyz
x,y,z
-x,-y,z
x,-y,-z
-x,y,-z
-x,-y,-z
x,y,-z
-x,y,z
x,-y,z
x,1/2+y,1/2+z
-x,1/2-y,1/2+z
x,1/2-y,1/2-z
-x,1/2+y,1/2-z
-x,1/2-y,1/2-z
x,1/2+y,1/2-z
-x,1/2+y,1/2+z
x,1/2-y,1/2+z
1/2+x,y,1/2+z
1/2-x,-y,1/2+z
1/2+x,-y,1/2-z
1/2-x,y,1/2-z
1/2-x,-y,1/2-z
1/2+x,y,1/2-z
1/2-x,y,1/2+z
1/2+x,-y,1/2+z
1/2+x,1/2+y,z
1/2-x,1/2-y,z
1/2+x,1/2-y,-z
1/2-x,1/2+y,-z
1/2-x,1/2-y,-z
1/2+x,1/2+y,-z
1/2-x,1/2+y,z
1/2+x,1/2-y,z
loop_
_atom_site_type_symbol
_atom_site_label
_atom_site_fract_x
_atom_site_fract_y
_atom_site_fract_z
Si Si1 0.264275 0.101318 0.310620
Si Si2 0.082161 0.311529 0.293577
Si Si3 0.861705 0.893808 0.450444
Si Si4 0.418252 0.740010 0.892948
Si Si5 0.750000 0.250000 0.750000
Si Si6 0.708377 0.896029 0.411940
O O1 0.349076 0.121081 0.297249
O O2 0.219802 0.177426 0.285049
O O3 0.259195 0.112435 0.362637
O O4 0.243468 0.000000 0.299633
O O5 0.087793 0.250000 0.250000
O O6 0.087295 0.259048 0.340031
O O7 0.000000 0.352091 0.292572
O O8 0.884074 0.871129 0.500000
O O9 0.903520 0.835295 0.414930
O O10 0.775029 0.876134 0.444209
O O11 0.872066 0.000000 0.443626
O O12 0.500000 0.709073 0.903389
O O13 0.358702 0.671717 0.912525
O O14 0.685621 0.000000 0.417428
#
# Coordination Sequence:
#
# PCOD9512913 Si02
#       6
#    32  32  32  32   8  32
#     4  10  21  34  52  79 108 147 187 231 289 336
#     4   9  18  35  56  78 109 149 189 232 280 334
#     4  10  22  40  62  86 114 152 196 242 291 347
#     4  10  21  35  57  86 117 152 190 236 291 345
#     4  12  22  32  50  78 114 148 182 242 280 338
#     4   9  20  37  58  83 112 146 190 238 287 345
#
# _framework density 20.187376
#
# number of rings (size 3 to 8) (size 9 to 14) (size 15 to 20)
#    0.000    2.286    0.952    0.857    5.333    3.048 
#    0.000    5.714    0.000    3.429    0.000    4.000 
#    0.000    0.000    0.000    0.000    0.000    0.000 
#
# Total GULP energy -234131.494346 kJ/mol
# GULP energy per Si atom -5574.559389 kJ/mol
# Density = 2.014143 g / cm^3
# Si number density = 20.187376 Si / 1000 Ang^3
#
#
#
# Elastic Constant Matrix: (Units=GPa)
#
#
# Indices 1 2 3 4 5 6 
#
# 1 46.7705 11.0272 7.1742 0.0000 0.0000 0.0000
# 2 11.0272 80.1731 34.0037 0.0000 0.0000 0.0000
# 3 7.1742 34.0037 49.1458 0.0000 0.0000 0.0000
# 4 0.0000 0.0000 0.0000 25.2878 0.0000 0.0000
# 5 0.0000 0.0000 0.0000 0.0000 19.5647 0.0000
# 6 0.0000 0.0000 0.0000 0.0000 0.0000 8.7241
#
#
#
# Elastic Compliance Matrix: (Units=1/GPa)
#
#
# Indices 1 2 3 4 5 6 
#
# 1 0.022186 -0.002375 -0.001596 0.000000 0.000000 0.000000
# 2 -0.002375 0.017908 -0.012044 0.000000 0.000000 0.000000
# 3 -0.001596 -0.012044 0.028913 0.000000 0.000000 0.000000
# 4 0.000000 0.000000 0.000000 0.039545 0.000000 0.000000
# 5 0.000000 0.000000 0.000000 0.000000 0.051113 0.000000
# 6 0.000000 0.000000 0.000000 0.000000 0.000000 0.114625
#
#
# Mechanical properties :
#
#
# Convention : Reuss Voigt Hill
#
# Bulk Modulus (GPa) = 27.04235 31.16663 29.10449
# Shear Modulus (GPa) = 15.69152 18.97425 17.33288
#
# Velocity S-wave (km/s) = 2.79102 3.06912 2.93337
# Velocity P-wave (km/s) = 4.87967 5.29448 5.09130
#
# Compressibility (1/GPa) = 0.03697903
#
# Stress axis : x y z
#
# Youngs Moduli (GPa) = 45.07414 55.84197 34.58598
#
# Poissons Ratio (x) = 0.13261 0.05518
# Poissons Ratio (y) = 0.10704 0.41654
# Poissons Ratio (z) = 0.07192 0.67254
#
# Static dielectric constant tensor:
#      x y z
#    x 1.817090 0.000000 0.000000 
#    y 0.000000 1.699250 0.000000 
#    z 0.000000 0.000000 1.729580 
# 
# From -- ./inp_files/46748.got.cif
#   From: 2010.05.17/outbox.cif.g08.bks.cpg/sg69_24_cif.got.tgz:46748.got - 2010.06.03 19:29:58.
