data_PCOD9512859
_publ_section_title
;
Structure prediction by ZEFSAII (Michael W. Deem and Ramdas Pophale) SiO2 
 PCOD9512859
Probable space group: F M M M
;
_chemical_formula_sum "Si O2"
_cell_formula_units_Z 136
_cell_length_a 14.984357
_cell_length_b 19.084595
_cell_length_c 23.104831
_cell_angle_alpha 90.000000
_cell_angle_beta 90.000000
_cell_angle_gamma 90.000000
_cell_volume 6607.297409
_symmetry_space_group_name_H-M "F M M M"
_symmetry_group_IT_number 69
_symmetry_cell_setting 'orthorhombic'
loop_
_space_group_symop_operation_xyz
x,y,z
-x,-y,z
x,-y,-z
-x,y,-z
-x,-y,-z
x,y,-z
-x,y,z
x,-y,z
x,1/2+y,1/2+z
-x,1/2-y,1/2+z
x,1/2-y,1/2-z
-x,1/2+y,1/2-z
-x,1/2-y,1/2-z
x,1/2+y,1/2-z
-x,1/2+y,1/2+z
x,1/2-y,1/2+z
1/2+x,y,1/2+z
1/2-x,-y,1/2+z
1/2+x,-y,1/2-z
1/2-x,y,1/2-z
1/2-x,-y,1/2-z
1/2+x,y,1/2-z
1/2-x,y,1/2+z
1/2+x,-y,1/2+z
1/2+x,1/2+y,z
1/2-x,1/2-y,z
1/2+x,1/2-y,-z
1/2-x,1/2+y,-z
1/2-x,1/2-y,-z
1/2+x,1/2+y,-z
1/2-x,1/2+y,z
1/2+x,1/2-y,z
loop_
_atom_site_type_symbol
_atom_site_label
_atom_site_fract_x
_atom_site_fract_y
_atom_site_fract_z
Si Si1 0.606638 0.831790 0.746935
Si Si2 0.134820 0.873572 0.377897
Si Si3 0.000000 0.727898 0.933008
Si Si4 0.500000 0.104909 0.432719
Si Si5 0.323614 0.080508 0.639453
Si Si6 0.500000 0.500000 0.402799
O O1 0.500000 0.833743 0.736196
O O2 0.633357 0.750000 0.750000
O O3 0.624865 0.868096 0.808422
O O4 0.654270 0.873737 0.696026
O O5 0.087172 0.804593 0.402746
O O6 0.238218 0.884949 0.391308
O O7 0.077157 0.938512 0.400478
O O8 0.000000 0.810823 0.928654
O O9 0.000000 0.706662 0.000000
O O10 0.500000 0.084974 0.500000
O O11 0.588892 0.080323 0.400355
O O12 0.301617 0.000000 0.655103
#
# Coordination Sequence:
#
# PCOD9512859 Si02
#       6
#    32  32  16  16  32   8
#     4  11  23  39  63  96 136 178 217 267 329 392
#     4  11  23  41  68  94 134 167 220 272 331 388
#     4  10  23  45  71  96 123 173 226 281 336 386
#     4  11  26  47  67  92 135 174 221 278 331 391
#     4  12  26  41  67 102 133 178 222 265 334 410
#     4  10  20  40  61  90 126 170 203 262 324 380
#
# _framework density 20.583302
#
# number of rings (size 3 to 8) (size 9 to 14) (size 15 to 20)
#    0.000    0.941    4.706    2.471    1.647    7.529 
#    0.000    7.059    0.000    0.000    0.000    0.000 
#    0.000    0.000    0.000    0.000    0.000    0.000 
#
# Total GULP energy -189693.967238 kJ/mol
# GULP energy per Si atom -5579.234331 kJ/mol
# Density = 2.053645 g / cm^3
# Si number density = 20.583302 Si / 1000 Ang^3
#
#
#
# Elastic Constant Matrix: (Units=GPa)
#
#
# Indices 1 2 3 4 5 6 
#
# 1 154.8891 21.1557 26.6458 0.0000 0.0000 0.0000
# 2 21.1557 96.6714 11.6606 0.0000 0.0000 0.0000
# 3 26.6458 11.6606 71.5927 0.0000 0.0000 0.0000
# 4 0.0000 0.0000 0.0000 115.9965 0.0000 0.0000
# 5 0.0000 0.0000 0.0000 0.0000 -19.2090 0.0000
# 6 0.0000 0.0000 0.0000 0.0000 0.0000 1.5251
#
#
#
# Elastic Compliance Matrix: (Units=1/GPa)
#
#
# Indices 1 2 3 4 5 6 
#
# 1 0.007043 -0.001250 -0.002418 0.000000 0.000000 0.000000
# 2 -0.001250 0.010773 -0.001290 0.000000 0.000000 0.000000
# 3 -0.002418 -0.001290 0.015078 0.000000 0.000000 0.000000
# 4 0.000000 0.000000 0.000000 0.008621 0.000000 0.000000
# 5 0.000000 0.000000 0.000000 0.000000 -0.052059 0.000000
# 6 0.000000 0.000000 0.000000 0.000000 0.000000 0.655710
#
#
# Mechanical properties :
#
#
# Convention : Reuss Voigt Hill
#
# Bulk Modulus (GPa) = 43.51595 49.11970 46.31783
# Shear Modulus (GPa) = 7.54444 37.24192 22.39318
#
# Velocity S-wave (km/s) = 1.91658 4.25823 3.30196
# Velocity P-wave (km/s) = 5.10735 6.93487 6.09005
#
# Compressibility (1/GPa) = 0.02298008
#
# Stress axis : x y z
#
# Youngs Moduli (GPa) = 141.98823 92.82165 66.32269
#
# Poissons Ratio (x) = 0.11599 0.16035
# Poissons Ratio (y) = 0.17743 0.08553
# Poissons Ratio (z) = 0.34329 0.11970
#
# Static dielectric constant tensor:
#      x y z
#    x 1.740040 0.000000 0.000000 
#    y 0.000000 1.717770 0.000000 
#    z 0.000000 0.000000 1.745270 
# 
# From -- ./inp_files/35714.got.cif
#   From: 2010.05.17/outbox.cif.g08.bks.cpg/sg69_18_cif.got.tgz:35714.got - 2010.06.03 19:29:58.
