data_PCOD9512842
_publ_section_title
;
Structure prediction by ZEFSAII (Michael W. Deem and Ramdas Pophale) SiO2 
 PCOD9512842
Probable space group: F M M M
;
_chemical_formula_sum "Si O2"
_cell_formula_units_Z 112
_cell_length_a 15.944294
_cell_length_b 33.682699
_cell_length_c 10.723377
_cell_angle_alpha 90.000000
_cell_angle_beta 90.000000
_cell_angle_gamma 90.000000
_cell_volume 5758.955899
_symmetry_space_group_name_H-M "F M M M"
_symmetry_group_IT_number 69
_symmetry_cell_setting 'orthorhombic'
loop_
_space_group_symop_operation_xyz
x,y,z
-x,-y,z
x,-y,-z
-x,y,-z
-x,-y,-z
x,y,-z
-x,y,z
x,-y,z
x,1/2+y,1/2+z
-x,1/2-y,1/2+z
x,1/2-y,1/2-z
-x,1/2+y,1/2-z
-x,1/2-y,1/2-z
x,1/2+y,1/2-z
-x,1/2+y,1/2+z
x,1/2-y,1/2+z
1/2+x,y,1/2+z
1/2-x,-y,1/2+z
1/2+x,-y,1/2-z
1/2-x,y,1/2-z
1/2-x,-y,1/2-z
1/2+x,y,1/2-z
1/2-x,y,1/2+z
1/2+x,-y,1/2+z
1/2+x,1/2+y,z
1/2-x,1/2-y,z
1/2+x,1/2-y,-z
1/2-x,1/2+y,-z
1/2-x,1/2-y,-z
1/2+x,1/2+y,-z
1/2-x,1/2+y,z
1/2+x,1/2-y,z
loop_
_atom_site_type_symbol
_atom_site_label
_atom_site_fract_x
_atom_site_fract_y
_atom_site_fract_z
Si Si1 0.164491 0.277074 0.500000
Si Si2 0.895923 0.330500 0.728622
Si Si3 0.183920 0.500000 0.642204
Si Si4 0.595281 0.415583 0.852991
Si Si5 0.905933 0.195734 0.500000
O O1 0.250000 0.250000 0.500000
O O2 0.148120 0.303941 0.377714
O O3 0.094282 0.243046 0.500000
O O4 0.869970 0.376465 0.712684
O O5 0.869518 0.317243 0.867194
O O6 0.000000 0.327364 0.715316
O O7 0.216894 0.500000 0.500000
O O8 0.250000 0.500000 0.750000
O O9 0.134484 0.541136 0.658795
O O10 0.500000 0.419313 0.809686
O O11 0.595813 0.405822 0.000000
O O12 0.000000 0.179129 0.500000
#
# Coordination Sequence:
#
# PCOD9512842 Si02
#       5
#    16  32  16  32  16
#     4  12  24  38  56  85 118 152 199 245 302 357
#     4  10  20  39  63  86 114 153 199 249 298 348
#     4  10  21  39  59  89 123 156 192 232 298 356
#     4   9  17  35  65  91 111 148 205 251 283 337
#     4  10  22  38  58  83 112 154 200 243 294 351
#
# _framework density 19.447970000000002
#
# number of rings (size 3 to 8) (size 9 to 14) (size 15 to 20)
#    0.000    2.000    1.429    2.571    0.000    6.286 
#    7.714    0.000    0.000    0.857    0.000    0.000 
#    0.000    0.000    0.000    0.000    0.000    0.000 
#
# Total GULP energy -156016.036859 kJ/mol
# GULP energy per Si atom -5572.001316 kJ/mol
# Density = 1.940371 g / cm^3
# Si number density = 19.447970 Si / 1000 Ang^3
#
#
#
# Elastic Constant Matrix: (Units=GPa)
#
#
# Indices 1 2 3 4 5 6 
#
# 1 48.5354 21.3094 38.3574 0.0000 0.0000 0.0000
# 2 21.3094 150.0709 103.9464 0.0000 0.0000 0.0000
# 3 38.3574 103.9464 166.4688 0.0000 0.0000 0.0000
# 4 0.0000 0.0000 0.0000 5.9673 0.0000 0.0000
# 5 0.0000 0.0000 0.0000 0.0000 10.6751 0.0000
# 6 0.0000 0.0000 0.0000 0.0000 0.0000 15.8264
#
#
#
# Elastic Compliance Matrix: (Units=1/GPa)
#
#
# Indices 1 2 3 4 5 6 
#
# 1 0.025243 0.000783 -0.006305 0.000000 0.000000 0.000000
# 2 0.000783 0.011766 -0.007527 0.000000 0.000000 0.000000
# 3 -0.006305 -0.007527 0.012160 0.000000 0.000000 0.000000
# 4 0.000000 0.000000 0.000000 0.167580 0.000000 0.000000
# 5 0.000000 0.000000 0.000000 0.000000 0.093676 0.000000
# 6 0.000000 0.000000 0.000000 0.000000 0.000000 0.063186
#
#
# Mechanical properties :
#
#
# Convention : Reuss Voigt Hill
#
# Bulk Modulus (GPa) = 43.34685 76.92240 60.13462
# Shear Modulus (GPa) = 12.27296 19.92457 16.09876
#
# Velocity S-wave (km/s) = 2.51483 3.20426 2.88025
# Velocity P-wave (km/s) = 5.54703 7.30264 6.48452
#
# Compressibility (1/GPa) = 0.02306973
#
# Stress axis : x y z
#
# Youngs Moduli (GPa) = 39.61527 84.98887 82.23475
#
# Poissons Ratio (x) = -0.06655 0.51852
# Poissons Ratio (y) = -0.03102 0.61902
# Poissons Ratio (z) = 0.24979 0.63975
#
# Static dielectric constant tensor:
#      x y z
#    x 1.746910 0.000000 0.000000 
#    y 0.000000 1.839270 0.000000 
#    z 0.000000 0.000000 1.690880 
# 
# From -- ./inp_files/8536.got.cif
#   From: 2010.05.17/outbox.cif.g08.bks.cpg/sg69_5_cif.got.tgz:8536.got - 2010.06.03 19:29:58.
