data_PCOD9512566
_publ_section_title
;
Structure prediction by ZEFSAII (Michael W. Deem and Ramdas Pophale) SiO2 
 PCOD9512566
Probable space group: F M M M
;
_chemical_formula_sum "Si O2"
_cell_formula_units_Z 116
_cell_length_a 29.883195
_cell_length_b 7.681999
_cell_length_c 25.288754
_cell_angle_alpha 90.000000
_cell_angle_beta 90.000000
_cell_angle_gamma 90.000000
_cell_volume 5805.353993
_symmetry_space_group_name_H-M "F M M M"
_symmetry_group_IT_number 69
_symmetry_cell_setting 'orthorhombic'
loop_
_space_group_symop_operation_xyz
x,y,z
-x,-y,z
x,-y,-z
-x,y,-z
-x,-y,-z
x,y,-z
-x,y,z
x,-y,z
x,1/2+y,1/2+z
-x,1/2-y,1/2+z
x,1/2-y,1/2-z
-x,1/2+y,1/2-z
-x,1/2-y,1/2-z
x,1/2+y,1/2-z
-x,1/2+y,1/2+z
x,1/2-y,1/2+z
1/2+x,y,1/2+z
1/2-x,-y,1/2+z
1/2+x,-y,1/2-z
1/2-x,y,1/2-z
1/2-x,-y,1/2-z
1/2+x,y,1/2-z
1/2-x,y,1/2+z
1/2+x,-y,1/2+z
1/2+x,1/2+y,z
1/2-x,1/2-y,z
1/2+x,1/2-y,-z
1/2-x,1/2+y,-z
1/2-x,1/2-y,-z
1/2+x,1/2+y,-z
1/2-x,1/2+y,z
1/2+x,1/2-y,z
loop_
_atom_site_type_symbol
_atom_site_label
_atom_site_fract_x
_atom_site_fract_y
_atom_site_fract_z
Si Si1 0.579688 0.698705 0.000000
Si Si2 0.876430 0.287708 0.890879
Si Si3 0.000000 0.000000 0.500000
Si Si4 0.050360 0.291533 0.808101
Si Si5 0.302211 0.205502 0.189737
O O1 0.611484 0.723854 0.948889
O O2 0.540099 0.844919 0.000000
O O3 0.562035 0.500000 0.000000
O O4 0.875443 0.500000 0.893071
O O5 0.917762 0.230541 0.854018
O O6 0.832882 0.225230 0.858095
O O7 0.047903 0.500000 0.812518
O O8 0.068248 0.250000 0.750000
O O9 0.000000 0.220692 0.811805
O O10 0.316313 0.250000 0.250000
O O11 0.250000 0.250000 0.184136
O O12 0.306321 0.000000 0.186671
#
# Coordination Sequence:
#
# PCOD9512566 Si02
#       5
#    16  32   4  32  32
#     4  12  27  43  70  97 120 174 221 259 325 378
#     4  10  21  39  60  84 123 165 204 268 323 373
#     4  12  26  52  68  86 144 156 218 284 304 368
#     4   9  18  31  51  77 110 151 189 237 308 371
#     4  10  20  35  60  92 128 169 211 262 328 383
#
# _framework density 19.981553999999999
#
# number of rings (size 3 to 8) (size 9 to 14) (size 15 to 20)
#    0.000    1.931    1.379    2.690    1.931    3.310 
#    0.000    0.690    0.000    0.000    0.000    0.000 
#    0.000    0.000    0.000    0.000    0.000    0.000 
#
# Total GULP energy -161514.895962 kJ/mol
# GULP energy per Si atom -5569.479171 kJ/mol
# Density = 1.993608 g / cm^3
# Si number density = 19.981554 Si / 1000 Ang^3
#
#
#
# Elastic Constant Matrix: (Units=GPa)
#
#
# Indices 1 2 3 4 5 6 
#
# 1 111.0020 26.7983 97.7278 -0.0001 0.0000 0.0005
# 2 26.7983 90.3292 21.2804 -0.0001 0.0001 0.0006
# 3 97.7278 21.2804 202.7242 0.0000 0.0000 0.0000
# 4 -0.0001 -0.0001 0.0000 25.7003 0.0000 0.0001
# 5 0.0000 0.0001 0.0000 0.0000 8.8180 -0.0001
# 6 0.0005 0.0006 0.0000 0.0001 -0.0001 3.6101
#
#
#
# Elastic Compliance Matrix: (Units=1/GPa)
#
#
# Indices 1 2 3 4 5 6 
#
# 1 0.016451 -0.003089 -0.007607 0.000000 0.000000 -0.000002
# 2 -0.003089 0.011931 0.000237 0.000000 0.000000 -0.000002
# 3 -0.007607 0.000237 0.008575 0.000000 0.000000 0.000001
# 4 0.000000 0.000000 0.000000 0.038910 0.000000 -0.000001
# 5 0.000000 0.000000 0.000000 0.000000 0.113404 0.000003
# 6 -0.000002 -0.000002 0.000001 -0.000001 0.000003 0.277004
#
#
# Mechanical properties :
#
#
# Convention : Reuss Voigt Hill
#
# Bulk Modulus (GPa) = 62.34371 77.29648 69.82010
# Shear Modulus (GPa) = 10.15144 24.84226 17.49685
#
# Velocity S-wave (km/s) = 2.25642 3.52981 2.96235
# Velocity P-wave (km/s) = 6.16903 7.44182 6.83512
#
# Compressibility (1/GPa) = 0.01604011
#
# Stress axis : x y z
#
# Youngs Moduli (GPa) = 60.78487 83.81362 116.61943
#
# Poissons Ratio (x) = 0.25888 0.88707
# Poissons Ratio (y) = 0.18775 -0.02758
# Poissons Ratio (z) = 0.46236 -0.01982
#
# Static dielectric constant tensor:
#      x y z
#    x 1.816220 0.000000 0.000000 
#    y 0.000000 1.738700 0.000000 
#    z 0.000000 0.000000 1.880190 
# 
# From -- ./inp_files/38756.got.cif
#   From: 2010.05.17/outbox.cif.g08.bks.cpg/sg69_20_cif.got.tgz:38756.got - 2010.06.03 19:29:58.
