data_PCOD9512563
_publ_section_title
;
Structure prediction by ZEFSAII (Michael W. Deem and Ramdas Pophale) SiO2 
 PCOD9512563
Probable space group: F M M M
;
_chemical_formula_sum "Si O2"
_cell_formula_units_Z 160
_cell_length_a 19.187855
_cell_length_b 21.719333
_cell_length_c 19.672431
_cell_angle_alpha 90.000000
_cell_angle_beta 90.000000
_cell_angle_gamma 90.000000
_cell_volume 8198.434713
_symmetry_space_group_name_H-M "F M M M"
_symmetry_group_IT_number 69
_symmetry_cell_setting 'orthorhombic'
loop_
_space_group_symop_operation_xyz
x,y,z
-x,-y,z
x,-y,-z
-x,y,-z
-x,-y,-z
x,y,-z
-x,y,z
x,-y,z
x,1/2+y,1/2+z
-x,1/2-y,1/2+z
x,1/2-y,1/2-z
-x,1/2+y,1/2-z
-x,1/2-y,1/2-z
x,1/2+y,1/2-z
-x,1/2+y,1/2+z
x,1/2-y,1/2+z
1/2+x,y,1/2+z
1/2-x,-y,1/2+z
1/2+x,-y,1/2-z
1/2-x,y,1/2-z
1/2-x,-y,1/2-z
1/2+x,y,1/2-z
1/2-x,y,1/2+z
1/2+x,-y,1/2+z
1/2+x,1/2+y,z
1/2-x,1/2-y,z
1/2+x,1/2-y,-z
1/2-x,1/2+y,-z
1/2-x,1/2-y,-z
1/2+x,1/2+y,-z
1/2-x,1/2+y,z
1/2+x,1/2-y,z
loop_
_atom_site_type_symbol
_atom_site_label
_atom_site_fract_x
_atom_site_fract_y
_atom_site_fract_z
Si Si1 0.864907 0.931193 0.235512
Si Si2 0.305314 0.572672 0.500000
Si Si3 0.728367 0.106845 0.150810
Si Si4 0.423818 0.804794 0.305496
Si Si5 0.417051 0.332812 0.500000
Si Si6 0.322042 0.769010 0.110905
O O1 0.798636 0.916115 0.186588
O O2 0.833586 0.929434 0.311550
O O3 0.914667 0.872722 0.225325
O O4 0.891645 0.000000 0.220796
O O5 0.302853 0.500000 0.500000
O O6 0.270679 0.596705 0.430095
O O7 0.383861 0.599169 0.500000
O O8 0.706127 0.178213 0.162367
O O9 0.500000 0.801279 0.339337
O O10 0.422170 0.750000 0.250000
O O11 0.360068 0.788267 0.354540
O O12 0.500000 0.330403 0.500000
O O13 0.380756 0.299641 0.564153
O O14 0.250000 0.750000 0.075215
#
# Coordination Sequence:
#
# PCOD9512563 Si02
#       6
#    32  16  32  32  16  32
#     4  11  21  36  58  87 120 156 197 245 299 351
#     4  10  20  36  56  85 118 153 191 235 289 356
#     4  10  20  35  60  87 115 151 196 248 294 348
#     4  11  23  38  58  83 117 157 196 243 301 356
#     4  10  23  38  56  85 121 153 188 241 293 353
#     4  11  20  37  63  87 111 149 203 245 294 347
#
# _framework density 19.515920999999999
#
# number of rings (size 3 to 8) (size 9 to 14) (size 15 to 20)
#    0.000    1.400    4.000    3.300    0.000    1.000 
#    0.000    0.000    0.000    2.400    0.000    0.000 
#    0.000    4.800    0.000    0.000    0.000    0.400 
#
# Total GULP energy -222928.711040 kJ/mol
# GULP energy per Si atom -5573.217776 kJ/mol
# Density = 1.947150 g / cm^3
# Si number density = 19.515921 Si / 1000 Ang^3
#
#
#
# Elastic Constant Matrix: (Units=GPa)
#
#
# Indices 1 2 3 4 5 6 
#
# 1 105.8178 11.1865 16.4919 0.0000 0.0000 0.0000
# 2 11.1865 134.7166 4.2790 0.0000 0.0000 0.0000
# 3 16.4919 4.2790 71.6159 0.0000 0.0000 0.0000
# 4 0.0000 0.0000 0.0000 2.2152 0.0000 0.0000
# 5 0.0000 0.0000 0.0000 0.0000 17.7914 0.0000
# 6 0.0000 0.0000 0.0000 0.0000 0.0000 7.4696
#
#
#
# Elastic Compliance Matrix: (Units=1/GPa)
#
#
# Indices 1 2 3 4 5 6 
#
# 1 0.009877 -0.000749 -0.002230 0.000000 0.000000 0.000000
# 2 -0.000749 0.007494 -0.000275 0.000000 0.000000 0.000000
# 3 -0.002230 -0.000275 0.014493 0.000000 0.000000 0.000000
# 4 0.000000 0.000000 0.000000 0.451434 0.000000 0.000000
# 5 0.000000 0.000000 0.000000 0.000000 0.056207 0.000000
# 6 0.000000 0.000000 0.000000 0.000000 0.000000 0.133876
#
#
# Mechanical properties :
#
#
# Convention : Reuss Voigt Hill
#
# Bulk Modulus (GPa) = 39.43889 41.78500 40.61195
# Shear Modulus (GPa) = 7.26384 24.17476 15.71930
#
# Velocity S-wave (km/s) = 1.93134 3.52336 2.84114
# Velocity P-wave (km/s) = 5.02254 6.16517 5.62295
#
# Compressibility (1/GPa) = 0.02535568
#
# Stress axis : x y z
#
# Youngs Moduli (GPa) = 101.24606 133.44089 68.99743
#
# Poissons Ratio (x) = 0.09999 0.15384
# Poissons Ratio (y) = 0.07587 0.01899
# Poissons Ratio (z) = 0.22575 0.03672
#
# Static dielectric constant tensor:
#      x y z
#    x 1.671320 0.000000 0.000000 
#    y 0.000000 1.745330 0.000000 
#    z 0.000000 0.000000 1.721250 
# 
# From -- ./inp_files/24676.got.cif
#   From: 2010.05.17/outbox.cif.g08.bks.cpg/sg69_13_cif.got.tgz:24676.got - 2010.06.03 19:29:58.
