data_PCOD9512126
_publ_section_title
;
Structure prediction by ZEFSAII (Michael W. Deem and Ramdas Pophale) SiO2 
 PCOD9512126
Probable space group: F M M M
;
_chemical_formula_sum "Si O2"
_cell_formula_units_Z 144
_cell_length_a 8.870344
_cell_length_b 27.379052
_cell_length_c 35.316199
_cell_angle_alpha 90.000000
_cell_angle_beta 90.000000
_cell_angle_gamma 90.000000
_cell_volume 8576.948935
_symmetry_space_group_name_H-M "F M M M"
_symmetry_group_IT_number 69
_symmetry_cell_setting 'orthorhombic'
loop_
_space_group_symop_operation_xyz
x,y,z
-x,-y,z
x,-y,-z
-x,y,-z
-x,-y,-z
x,y,-z
-x,y,z
x,-y,z
x,1/2+y,1/2+z
-x,1/2-y,1/2+z
x,1/2-y,1/2-z
-x,1/2+y,1/2-z
-x,1/2-y,1/2-z
x,1/2+y,1/2-z
-x,1/2+y,1/2+z
x,1/2-y,1/2+z
1/2+x,y,1/2+z
1/2-x,-y,1/2+z
1/2+x,-y,1/2-z
1/2-x,y,1/2-z
1/2-x,-y,1/2-z
1/2+x,y,1/2-z
1/2-x,y,1/2+z
1/2+x,-y,1/2+z
1/2+x,1/2+y,z
1/2-x,1/2-y,z
1/2+x,1/2-y,-z
1/2-x,1/2+y,-z
1/2-x,1/2-y,-z
1/2+x,1/2+y,-z
1/2-x,1/2+y,z
1/2+x,1/2-y,z
loop_
_atom_site_type_symbol
_atom_site_label
_atom_site_fract_x
_atom_site_fract_y
_atom_site_fract_z
Si Si1 0.669049 0.442169 0.212566
Si Si2 0.822097 0.611672 0.850813
Si Si3 0.171599 0.941069 0.500000
Si Si4 0.680540 0.442685 0.080008
Si Si5 0.182319 0.196768 0.708469
O O1 0.500000 0.421831 0.207461
O O2 0.654442 0.500000 0.216665
O O3 0.750000 0.423111 0.250000
O O4 0.775568 0.431367 0.177624
O O5 0.740985 0.596029 0.889407
O O6 0.778283 0.659142 0.825487
O O7 0.000000 0.614135 0.857388
O O8 0.257292 0.928594 0.461352
O O9 0.000000 0.922463 0.500000
O O10 0.165082 0.000000 0.500000
O O11 0.500000 0.442333 0.080236
O O12 0.726803 0.500000 0.087914
O O13 0.250000 0.184047 0.750000
O O14 0.250000 0.250000 0.699553
O O15 0.000000 0.198247 0.711532
#
# Coordination Sequence:
#
# PCOD9512126 Si02
#       5
#    32  32  16  32  32
#     4  10  20  32  45  63  90 126 164 198 235 282
#     4  11  22  33  48  72  98 126 162 203 247 293
#     4   9  17  31  51  73 100 135 170 205 245 287
#     4  10  20  33  50  74 104 137 171 205 242 288
#     4  10  21  36  54  74  96 125 163 207 254 302
#
# _framework density 16.789187999999999
#
# number of rings (size 3 to 8) (size 9 to 14) (size 15 to 20)
#    0.000    1.889    0.000    5.000    0.000   12.000 
#    0.000    0.000    0.000    0.000    0.000    0.778 
#    0.000    0.000    0.000    0.000    0.000    0.000 
#
# Total GULP energy -200659.454491 kJ/mol
# GULP energy per Si atom -5573.873736 kJ/mol
# Density = 1.675097 g / cm^3
# Si number density = 16.789188 Si / 1000 Ang^3
#
#
#
# Elastic Constant Matrix: (Units=GPa)
#
#
# Indices 1 2 3 4 5 6 
#
# 1 69.7554 46.6757 51.7808 0.0000 0.0000 0.0000
# 2 46.6757 79.7338 52.5742 0.0000 0.0000 0.0000
# 3 51.7808 52.5742 152.4481 0.0000 0.0000 0.0000
# 4 0.0000 0.0000 0.0000 27.3224 0.0000 0.0000
# 5 0.0000 0.0000 0.0000 0.0000 31.9119 0.0000
# 6 0.0000 0.0000 0.0000 0.0000 0.0000 18.6085
#
#
#
# Elastic Compliance Matrix: (Units=1/GPa)
#
#
# Indices 1 2 3 4 5 6 
#
# 1 0.025849 -0.012092 -0.004610 0.000000 0.000000 0.000000
# 2 -0.012092 0.021890 -0.003442 0.000000 0.000000 0.000000
# 3 -0.004610 -0.003442 0.009312 0.000000 0.000000 0.000000
# 4 0.000000 0.000000 0.000000 0.036600 0.000000 0.000000
# 5 0.000000 0.000000 0.000000 0.000000 0.031336 0.000000
# 6 0.000000 0.000000 0.000000 0.000000 0.000000 0.053739
#
#
# Mechanical properties :
#
#
# Convention : Reuss Voigt Hill
#
# Bulk Modulus (GPa) = 59.65303 67.11099 63.38201
# Shear Modulus (GPa) = 22.26156 25.62898 23.94527
#
# Velocity S-wave (km/s) = 3.64530 3.91131 3.78065
# Velocity P-wave (km/s) = 7.30243 7.77543 7.54263
#
# Compressibility (1/GPa) = 0.01676361
#
# Stress axis : x y z
#
# Youngs Moduli (GPa) = 38.68598 45.68294 107.38485
#
# Poissons Ratio (x) = 0.55242 0.49501
# Poissons Ratio (y) = 0.46781 0.36959
# Poissons Ratio (z) = 0.17833 0.15723
#
# Static dielectric constant tensor:
#      x y z
#    x 1.588980 0.000000 0.000000 
#    y 0.000000 1.589350 0.000000 
#    z 0.000000 0.000000 1.550660 
# 
# From -- ./inp_files/44521.got.cif
#   From: 2010.05.17/outbox.cif.g08.bks.cpg/sg69_23_cif.got.tgz:44521.got - 2010.06.03 19:29:58.
