data_PCOD9512550
_publ_section_title
;
Structure prediction by ZEFSAII (Michael W. Deem and Ramdas Pophale) SiO2 
 PCOD9512550
Probable space group: F M M M
;
_chemical_formula_sum "Si O2"
_cell_formula_units_Z 176
_cell_length_a 22.109274
_cell_length_b 26.280030
_cell_length_c 14.417947
_cell_angle_alpha 90.000000
_cell_angle_beta 90.000000
_cell_angle_gamma 90.000000
_cell_volume 8377.294118
_symmetry_space_group_name_H-M "F M M M"
_symmetry_group_IT_number 69
_symmetry_cell_setting 'orthorhombic'
loop_
_space_group_symop_operation_xyz
x,y,z
-x,-y,z
x,-y,-z
-x,y,-z
-x,-y,-z
x,y,-z
-x,y,z
x,-y,z
x,1/2+y,1/2+z
-x,1/2-y,1/2+z
x,1/2-y,1/2-z
-x,1/2+y,1/2-z
-x,1/2-y,1/2-z
x,1/2+y,1/2-z
-x,1/2+y,1/2+z
x,1/2-y,1/2+z
1/2+x,y,1/2+z
1/2-x,-y,1/2+z
1/2+x,-y,1/2-z
1/2-x,y,1/2-z
1/2-x,-y,1/2-z
1/2+x,y,1/2-z
1/2-x,y,1/2+z
1/2+x,-y,1/2+z
1/2+x,1/2+y,z
1/2-x,1/2-y,z
1/2+x,1/2-y,-z
1/2-x,1/2+y,-z
1/2-x,1/2-y,-z
1/2+x,1/2+y,-z
1/2-x,1/2+y,z
1/2+x,1/2-y,z
loop_
_atom_site_type_symbol
_atom_site_label
_atom_site_fract_x
_atom_site_fract_y
_atom_site_fract_z
Si Si1 0.431378 0.293353 0.112355
Si Si2 0.887800 0.102328 0.200557
Si Si3 0.277063 0.940350 0.608493
Si Si4 0.651988 0.387254 0.393435
Si Si5 0.929153 0.500000 0.603576
Si Si6 0.314328 0.728840 0.611229
O O1 0.500000 0.276570 0.136934
O O2 0.417836 0.348506 0.155286
O O3 0.375614 0.257299 0.142544
O O4 0.429541 0.297046 0.000000
O O5 0.817040 0.097261 0.170992
O O6 0.894363 0.102724 0.311029
O O7 0.912370 0.050885 0.156591
O O8 0.292826 0.931522 0.500000
O O9 0.206603 0.927188 0.615657
O O10 0.286989 0.000000 0.631612
O O11 0.629842 0.387959 0.500000
O O12 0.678845 0.331175 0.373742
O O13 0.902440 0.500000 0.500000
O O14 0.000000 0.500000 0.594280
O O15 0.313273 0.736315 0.500000
O O16 0.250000 0.750000 0.646125
#
# Coordination Sequence:
#
# PCOD9512550 Si02
#       6
#    32  32  32  32  16  32
#     4  10  21  38  63  94 125 158 203 264 330 388
#     4  12  22  36  61  89 122 162 203 251 314 382
#     4  10  20  35  58  89 124 160 201 257 318 375
#     4  10  23  39  56  86 126 168 210 254 303 364
#     4  11  24  42  64  89 117 147 190 254 322 385
#     4   9  18  37  63  90 125 168 212 258 313 374
#
# _framework density 21.009170000000001
#
# number of rings (size 3 to 8) (size 9 to 14) (size 15 to 20)
#    0.000    1.727    0.909    3.818    1.273    5.818 
#    0.000    3.636    0.000    4.909    0.000    0.000 
#    0.000    0.000    0.000    0.000    0.000    0.000 
#
# Total GULP energy -245790.965973 kJ/mol
# GULP energy per Si atom -5586.158318 kJ/mol
# Density = 2.096135 g / cm^3
# Si number density = 21.009170 Si / 1000 Ang^3
#
#
#
# Elastic Constant Matrix: (Units=GPa)
#
#
# Indices 1 2 3 4 5 6 
#
# 1 98.0903 41.1772 30.5980 0.0000 0.0000 0.0000
# 2 41.1772 71.2391 26.0376 0.0000 0.0000 0.0000
# 3 30.5980 26.0376 118.7533 0.0000 0.0000 0.0000
# 4 0.0000 0.0000 0.0000 8.6051 0.0000 0.0000
# 5 0.0000 0.0000 0.0000 0.0000 7.1484 0.0000
# 6 0.0000 0.0000 0.0000 0.0000 0.0000 9.0971
#
#
#
# Elastic Compliance Matrix: (Units=1/GPa)
#
#
# Indices 1 2 3 4 5 6 
#
# 1 0.013874 -0.007298 -0.001975 0.000000 0.000000 0.000000
# 2 -0.007298 0.019099 -0.002307 0.000000 0.000000 0.000000
# 3 -0.001975 -0.002307 0.009436 0.000000 0.000000 0.000000
# 4 0.000000 0.000000 0.000000 0.116210 0.000000 0.000000
# 5 0.000000 0.000000 0.000000 0.000000 0.139892 0.000000
# 6 0.000000 0.000000 0.000000 0.000000 0.000000 0.109925
#
#
# Mechanical properties :
#
#
# Convention : Reuss Voigt Hill
#
# Bulk Modulus (GPa) = 51.95063 53.74537 52.84800
# Shear Modulus (GPa) = 11.41525 17.65478 14.53502
#
# Velocity S-wave (km/s) = 2.33351 2.90200 2.63314
# Velocity P-wave (km/s) = 5.66053 6.07176 5.86975
#
# Compressibility (1/GPa) = 0.01924905
#
# Stress axis : x y z
#
# Youngs Moduli (GPa) = 72.07634 52.35963 105.98262
#
# Poissons Ratio (x) = 0.38211 0.20929
# Poissons Ratio (y) = 0.52599 0.24452
# Poissons Ratio (z) = 0.14233 0.12080
#
# Static dielectric constant tensor:
#      x y z
#    x 1.797180 0.000000 0.000000 
#    y 0.000000 1.712330 0.000000 
#    z 0.000000 0.000000 1.784540 
# 
# From -- ./inp_files/17857.got.cif
#   From: 2010.05.17/outbox.cif.g08.bks.cpg/sg69_9_cif.got.tgz:17857.got - 2010.06.03 19:29:58.
