data_PCOD9512874
_publ_section_title
;
Structure prediction by ZEFSAII (Michael W. Deem and Ramdas Pophale) SiO2 
 PCOD9512874
Probable space group: F M M M
;
_chemical_formula_sum "Si O2"
_cell_formula_units_Z 160
_cell_length_a 17.627383
_cell_length_b 25.375241
_cell_length_c 19.021164
_cell_angle_alpha 90.000000
_cell_angle_beta 90.000000
_cell_angle_gamma 90.000000
_cell_volume 8508.149383
_symmetry_space_group_name_H-M "F M M M"
_symmetry_group_IT_number 69
_symmetry_cell_setting 'orthorhombic'
loop_
_space_group_symop_operation_xyz
x,y,z
-x,-y,z
x,-y,-z
-x,y,-z
-x,-y,-z
x,y,-z
-x,y,z
x,-y,z
x,1/2+y,1/2+z
-x,1/2-y,1/2+z
x,1/2-y,1/2-z
-x,1/2+y,1/2-z
-x,1/2-y,1/2-z
x,1/2+y,1/2-z
-x,1/2+y,1/2+z
x,1/2-y,1/2+z
1/2+x,y,1/2+z
1/2-x,-y,1/2+z
1/2+x,-y,1/2-z
1/2-x,y,1/2-z
1/2-x,-y,1/2-z
1/2+x,y,1/2-z
1/2-x,y,1/2+z
1/2+x,-y,1/2+z
1/2+x,1/2+y,z
1/2-x,1/2-y,z
1/2+x,1/2-y,-z
1/2-x,1/2+y,-z
1/2-x,1/2-y,-z
1/2+x,1/2+y,-z
1/2-x,1/2+y,z
1/2+x,1/2-y,z
loop_
_atom_site_type_symbol
_atom_site_label
_atom_site_fract_x
_atom_site_fract_y
_atom_site_fract_z
Si Si1 0.408681 0.178910 0.916115
Si Si2 0.657677 0.500000 0.256503
Si Si3 0.818102 0.101445 0.921858
Si Si4 0.807407 0.893788 0.685015
Si Si5 0.588499 0.000000 0.603485
Si Si6 0.585041 0.197922 0.584714
O O1 0.500000 0.170307 0.907753
O O2 0.358733 0.147889 0.858315
O O3 0.394387 0.241345 0.903874
O O4 0.391737 0.168069 0.000000
O O5 0.750000 0.500000 0.250000
O O6 0.642087 0.443500 0.291445
O O7 0.613273 0.500000 0.184255
O O8 0.750243 0.084132 0.873101
O O9 0.876621 0.053772 0.925698
O O10 0.857163 0.153638 0.889980
O O11 0.790586 0.114285 0.000000
O O12 0.750000 0.877148 0.750000
O O13 0.500000 0.000000 0.592998
O O14 0.581930 0.191086 0.500000
O O15 0.500000 0.188553 0.612294
#
# Coordination Sequence:
#
# PCOD9512874 Si02
#       6
#    32  16  32  32  16  32
#     4   9  19  38  63  88 113 149 198 244 286 336
#     4  10  20  42  58  72 113 157 191 221 285 349
#     4  11  21  35  58  88 117 149 187 234 288 339
#     4  11  21  39  61  81 115 155 193 233 284 351
#     4  12  23  37  60  86 112 146 191 238 280 339
#     4   8  16  33  55  81 118 154 183 228 290 346
#
# _framework density 18.805499999999999
#
# number of rings (size 3 to 8) (size 9 to 14) (size 15 to 20)
#    0.000    2.000    4.000    2.700    0.000    3.200 
#    0.000    6.500    0.000    3.600    0.000    0.000 
#    0.000    0.000    0.000    0.000    0.000    0.000 
#
# Total GULP energy -222701.879767 kJ/mol
# GULP energy per Si atom -5567.546994 kJ/mol
# Density = 1.876270 g / cm^3
# Si number density = 18.805500 Si / 1000 Ang^3
#
#
#
# Elastic Constant Matrix: (Units=GPa)
#
#
# Indices 1 2 3 4 5 6 
#
# 1 52.4931 27.3486 34.2999 0.0000 0.0000 0.0000
# 2 27.3486 86.3597 41.1353 0.0000 0.0000 0.0000
# 3 34.2999 41.1353 92.3841 0.0000 0.0000 0.0000
# 4 0.0000 0.0000 0.0000 17.6364 0.0000 0.0000
# 5 0.0000 0.0000 0.0000 0.0000 30.1881 0.0000
# 6 0.0000 0.0000 0.0000 0.0000 0.0000 22.3306
#
#
#
# Elastic Compliance Matrix: (Units=1/GPa)
#
#
# Indices 1 2 3 4 5 6 
#
# 1 0.026585 -0.004718 -0.007769 0.000000 0.000000 0.000000
# 2 -0.004718 0.015534 -0.005165 0.000000 0.000000 0.000000
# 3 -0.007769 -0.005165 0.016009 0.000000 0.000000 0.000000
# 4 0.000000 0.000000 0.000000 0.056701 0.000000 0.000000
# 5 0.000000 0.000000 0.000000 0.000000 0.033126 0.000000
# 6 0.000000 0.000000 0.000000 0.000000 0.000000 0.044782
#
#
# Mechanical properties :
#
#
# Convention : Reuss Voigt Hill
#
# Bulk Modulus (GPa) = 43.81668 48.53384 46.17526
# Shear Modulus (GPa) = 21.21806 22.59456 21.90631
#
# Velocity S-wave (km/s) = 3.36265 3.47001 3.41675
# Velocity P-wave (km/s) = 6.19895 6.47448 6.33822
#
# Compressibility (1/GPa) = 0.02282236
#
# Stress axis : x y z
#
# Youngs Moduli (GPa) = 37.61524 64.37569 62.46592
#
# Poissons Ratio (x) = 0.30374 0.48533
# Poissons Ratio (y) = 0.17748 0.32263
# Poissons Ratio (z) = 0.29225 0.33249
#
# Static dielectric constant tensor:
#      x y z
#    x 1.650490 0.000000 0.000000 
#    y 0.000000 1.673460 0.000000 
#    z 0.000000 0.000000 1.680850 
# 
# From -- ./inp_files/23239.got.cif
#   From: 2010.05.17/outbox.cif.g08.bks.cpg/sg69_12_cif.got.tgz:23239.got - 2010.06.03 19:29:58.
