data_PCOD9512689
_publ_section_title
;
Structure prediction by ZEFSAII (Michael W. Deem and Ramdas Pophale) SiO2 
 PCOD9512689
Probable space group: F M M M
;
_chemical_formula_sum "Si O2"
_cell_formula_units_Z 192
_cell_length_a 32.481025
_cell_length_b 27.347024
_cell_length_c 11.505299
_cell_angle_alpha 90.000000
_cell_angle_beta 90.000000
_cell_angle_gamma 90.000000
_cell_volume 10219.689644
_symmetry_space_group_name_H-M "F M M M"
_symmetry_group_IT_number 69
_symmetry_cell_setting 'orthorhombic'
loop_
_space_group_symop_operation_xyz
x,y,z
-x,-y,z
x,-y,-z
-x,y,-z
-x,-y,-z
x,y,-z
-x,y,z
x,-y,z
x,1/2+y,1/2+z
-x,1/2-y,1/2+z
x,1/2-y,1/2-z
-x,1/2+y,1/2-z
-x,1/2-y,1/2-z
x,1/2+y,1/2-z
-x,1/2+y,1/2+z
x,1/2-y,1/2+z
1/2+x,y,1/2+z
1/2-x,-y,1/2+z
1/2+x,-y,1/2-z
1/2-x,y,1/2-z
1/2-x,-y,1/2-z
1/2+x,y,1/2-z
1/2-x,y,1/2+z
1/2+x,-y,1/2+z
1/2+x,1/2+y,z
1/2-x,1/2-y,z
1/2+x,1/2-y,-z
1/2-x,1/2+y,-z
1/2-x,1/2-y,-z
1/2+x,1/2+y,-z
1/2-x,1/2+y,z
1/2+x,1/2-y,z
loop_
_atom_site_type_symbol
_atom_site_label
_atom_site_fract_x
_atom_site_fract_y
_atom_site_fract_z
Si Si1 0.068126 0.940554 0.000000
Si Si2 0.267547 0.195001 0.871558
Si Si3 0.124218 0.394369 0.864303
Si Si4 0.955709 0.441175 0.246728
Si Si5 0.135308 0.283807 0.136285
Si Si6 0.201086 0.441491 0.742158
Si Si7 0.837634 0.440903 0.500000
O O1 0.046630 0.925821 0.881520
O O2 0.115481 0.923143 0.000000
O O3 0.068845 0.000000 0.000000
O O4 0.250000 0.173297 0.750000
O O5 0.250000 0.250000 0.876437
O O6 0.316161 0.203238 0.861660
O O7 0.258644 0.171973 0.000000
O O8 0.086780 0.423529 0.807606
O O9 0.115637 0.337011 0.844703
O O10 0.169402 0.411598 0.821941
O O11 0.123400 0.403439 0.000000
O O12 0.955403 0.500000 0.241987
O O13 0.000000 0.424716 0.196487
O O14 0.126661 0.250000 0.250000
O O15 0.126739 0.267095 0.000000
O O16 0.193420 0.500000 0.759711
O O17 0.250000 0.434795 0.750000
O O18 0.186620 0.426657 0.614008
O O19 0.839589 0.500000 0.500000
#
# Coordination Sequence:
#
# PCOD9512689 Si02
#       7
#    16  32  32  32  32  32  16
#     4   9  15  30  57  84 116 151 184 232 288 337
#     4   9  15  26  50  74  97 131 174 227 285 337
#     4  11  24  39  56  83 119 152 192 245 295 350
#     4  10  20  36  61  91 121 153 188 232 292 356
#     4  10  21  39  57  77 108 148 189 237 299 353
#     4  10  21  36  55  79 115 162 205 241 281 338
#     4   9  16  31  54  77 110 152 198 242 279 326
#
# _framework density 18.787262999999999
#
# number of rings (size 3 to 8) (size 9 to 14) (size 15 to 20)
#    0.000    2.167    3.333    0.750    1.167    3.333 
#    3.000    0.833    0.000    0.500    0.000    0.000 
#    0.000    0.000    0.000    0.000    0.000    0.000 
#
# Total GULP energy -267361.528576 kJ/mol
# GULP energy per Si atom -5570.031845 kJ/mol
# Density = 1.874450 g / cm^3
# Si number density = 18.787263 Si / 1000 Ang^3
#
#
#
# Elastic Constant Matrix: (Units=GPa)
#
#
# Indices 1 2 3 4 5 6 
#
# 1 110.1072 21.1632 40.1498 0.0001 0.0001 0.0000
# 2 21.1632 42.7885 42.4053 0.0007 -0.0002 -0.0001
# 3 40.1498 42.4053 147.3627 0.0013 -0.0001 -0.0002
# 4 0.0001 0.0007 0.0013 13.9492 -0.0002 -0.0002
# 5 0.0001 -0.0002 -0.0001 -0.0002 1.2000 0.0000
# 6 0.0000 -0.0001 -0.0002 -0.0002 0.0000 6.8536
#
#
#
# Elastic Compliance Matrix: (Units=1/GPa)
#
#
# Indices 1 2 3 4 5 6 
#
# 1 0.010401 -0.003268 -0.001893 0.000000 -0.000001 0.000000
# 2 -0.003268 0.033722 -0.008813 -0.000001 0.000005 0.000000
# 3 -0.001893 -0.008813 0.009838 -0.000001 0.000000 0.000000
# 4 0.000000 -0.000001 -0.000001 0.071689 0.000011 0.000002
# 5 -0.000001 0.000005 0.000000 0.000011 0.833322 -0.000006
# 6 0.000000 0.000000 0.000000 0.000002 -0.000006 0.145910
#
#
# Mechanical properties :
#
#
# Convention : Reuss Voigt Hill
#
# Bulk Modulus (GPa) = 38.44525 56.41056 47.42791
# Shear Modulus (GPa) = 4.38020 17.50322 10.94171
#
# Velocity S-wave (km/s) = 1.52857 3.05561 2.41592
# Velocity P-wave (km/s) = 4.86038 6.52228 5.75167
#
# Compressibility (1/GPa) = 0.02601102
#
# Stress axis : x y z
#
# Youngs Moduli (GPa) = 96.14891 29.65465 101.64658
#
# Poissons Ratio (x) = 0.09690 0.19245
# Poissons Ratio (y) = 0.31419 0.89586
# Poissons Ratio (z) = 0.18204 0.26136
#
# Static dielectric constant tensor:
#      x y z
#    x 1.343220 0.000000 0.000000 
#    y 0.000000 1.739830 0.000000 
#    z 0.000000 0.000000 1.702100 
# 
# From -- ./inp_files/12511.got.cif
#   From: 2010.05.17/outbox.cif.g08.bks.cpg/sg69_7_cif.got.tgz:12511.got - 2010.06.03 19:29:58.
