data_PCOD9512425
_publ_section_title
;
Structure prediction by ZEFSAII (Michael W. Deem and Ramdas Pophale) SiO2 
 PCOD9512425
Probable space group: F M M M
;
_chemical_formula_sum "Si O2"
_cell_formula_units_Z 128
_cell_length_a 18.824285
_cell_length_b 28.048987
_cell_length_c 14.382222
_cell_angle_alpha 90.000000
_cell_angle_beta 90.000000
_cell_angle_gamma 90.000000
_cell_volume 7593.843782
_symmetry_space_group_name_H-M "F M M M"
_symmetry_group_IT_number 69
_symmetry_cell_setting 'orthorhombic'
loop_
_space_group_symop_operation_xyz
x,y,z
-x,-y,z
x,-y,-z
-x,y,-z
-x,-y,-z
x,y,-z
-x,y,z
x,-y,z
x,1/2+y,1/2+z
-x,1/2-y,1/2+z
x,1/2-y,1/2-z
-x,1/2+y,1/2-z
-x,1/2-y,1/2-z
x,1/2+y,1/2-z
-x,1/2+y,1/2+z
x,1/2-y,1/2+z
1/2+x,y,1/2+z
1/2-x,-y,1/2+z
1/2+x,-y,1/2-z
1/2-x,y,1/2-z
1/2-x,-y,1/2-z
1/2+x,y,1/2-z
1/2-x,y,1/2+z
1/2+x,-y,1/2+z
1/2+x,1/2+y,z
1/2-x,1/2-y,z
1/2+x,1/2-y,-z
1/2-x,1/2+y,-z
1/2-x,1/2-y,-z
1/2+x,1/2+y,-z
1/2-x,1/2+y,z
1/2+x,1/2-y,z
loop_
_atom_site_type_symbol
_atom_site_label
_atom_site_fract_x
_atom_site_fract_y
_atom_site_fract_z
Si Si1 0.667520 0.631215 0.731575
Si Si2 0.915805 0.056383 0.608444
Si Si3 0.416337 0.680453 0.109932
Si Si4 0.173511 0.273655 0.889962
O O1 0.750000 0.620958 0.750000
O O2 0.629602 0.588952 0.676295
O O3 0.626957 0.643833 0.826783
O O4 0.663337 0.679157 0.669406
O O5 0.899636 0.066939 0.500000
O O6 0.000000 0.065290 0.622000
O O7 0.903628 0.000000 0.623154
O O8 0.500000 0.678491 0.129955
O O9 0.385179 0.733250 0.128547
O O10 0.405324 0.671432 0.000000
O O11 0.250000 0.250000 0.868868
O O12 0.172446 0.284942 0.000000
#
# Coordination Sequence:
#
# PCOD9512425 Si02
#       4
#    32  32  32  32
#     4  12  22  32  57  85 110 143 184 222 274 331
#     4   9  20  40  62  83 108 137 176 232 288 330
#     4  10  22  37  52  75 111 152 189 227 268 315
#     4  10  20  35  52  76 113 149 182 220 267 320
#
# _framework density 16.85576
#
# number of rings (size 3 to 8) (size 9 to 14) (size 15 to 20)
#    0.000    1.750    2.500    3.000    0.000    4.500 
#    0.000    2.500    0.000    0.750    0.000    3.500 
#    0.000    0.000    0.000    0.000    0.000    0.000 
#
# Total GULP energy -178770.391111 kJ/mol
# GULP energy per Si atom -5586.574722 kJ/mol
# Density = 1.681740 g / cm^3
# Si number density = 16.855760 Si / 1000 Ang^3
#
#
#
# Elastic Constant Matrix: (Units=GPa)
#
#
# Indices 1 2 3 4 5 6 
#
# 1 134.0707 68.9751 77.1615 0.0000 0.0000 0.0000
# 2 68.9751 82.1905 63.6916 0.0000 0.0000 0.0000
# 3 77.1615 63.6916 90.1760 0.0000 0.0000 0.0000
# 4 0.0000 0.0000 0.0000 17.8124 0.0000 0.0000
# 5 0.0000 0.0000 0.0000 0.0000 23.4538 0.0000
# 6 0.0000 0.0000 0.0000 0.0000 0.0000 14.6606
#
#
#
# Elastic Compliance Matrix: (Units=1/GPa)
#
#
# Indices 1 2 3 4 5 6 
#
# 1 0.016022 -0.006234 -0.009307 0.000000 0.000000 0.000000
# 2 -0.006234 0.029304 -0.015363 0.000000 0.000000 0.000000
# 3 -0.009307 -0.015363 0.029904 0.000000 0.000000 0.000000
# 4 0.000000 0.000000 0.000000 0.056141 0.000000 0.000000
# 5 0.000000 0.000000 0.000000 0.000000 0.042637 0.000000
# 6 0.000000 0.000000 0.000000 0.000000 0.000000 0.068210
#
#
# Mechanical properties :
#
#
# Convention : Reuss Voigt Hill
#
# Bulk Modulus (GPa) = 74.50260 80.67706 77.58983
# Shear Modulus (GPa) = 16.20751 17.62597 16.91674
#
# Velocity S-wave (km/s) = 3.10424 3.23723 3.17143
# Velocity P-wave (km/s) = 7.55939 7.87019 7.71636
#
# Compressibility (1/GPa) = 0.01342235
#
# Stress axis : x y z
#
# Youngs Moduli (GPa) = 62.41325 34.12544 33.44041
#
# Poissons Ratio (x) = 0.21274 0.31122
# Poissons Ratio (y) = 0.38908 0.51374
# Poissons Ratio (z) = 0.58087 0.52427
#
# Static dielectric constant tensor:
#      x y z
#    x 1.558370 0.000000 0.000000 
#    y 0.000000 1.530330 0.000000 
#    z 0.000000 0.000000 1.581990 
# 
# From -- ./inp_files/22759.got.cif
#   From: 2010.05.17/outbox.cif.g08.bks.cpg/sg69_12_cif.got.tgz:22759.got - 2010.06.03 19:29:58.
