data_PCOD9512670
_publ_section_title
;
Structure prediction by ZEFSAII (Michael W. Deem and Ramdas Pophale) SiO2 
 PCOD9512670
Probable space group: F M M M
;
_chemical_formula_sum "Si O2"
_cell_formula_units_Z 160
_cell_length_a 21.167006
_cell_length_b 25.104518
_cell_length_c 15.726880
_cell_angle_alpha 90.000000
_cell_angle_beta 90.000000
_cell_angle_gamma 90.000000
_cell_volume 8357.067181
_symmetry_space_group_name_H-M "F M M M"
_symmetry_group_IT_number 69
_symmetry_cell_setting 'orthorhombic'
loop_
_space_group_symop_operation_xyz
x,y,z
-x,-y,z
x,-y,-z
-x,y,-z
-x,-y,-z
x,y,-z
-x,y,z
x,-y,z
x,1/2+y,1/2+z
-x,1/2-y,1/2+z
x,1/2-y,1/2-z
-x,1/2+y,1/2-z
-x,1/2-y,1/2-z
x,1/2+y,1/2-z
-x,1/2+y,1/2+z
x,1/2-y,1/2+z
1/2+x,y,1/2+z
1/2-x,-y,1/2+z
1/2+x,-y,1/2-z
1/2-x,y,1/2-z
1/2-x,-y,1/2-z
1/2+x,y,1/2-z
1/2-x,y,1/2+z
1/2+x,-y,1/2+z
1/2+x,1/2+y,z
1/2-x,1/2-y,z
1/2+x,1/2-y,-z
1/2-x,1/2+y,-z
1/2-x,1/2-y,-z
1/2+x,1/2+y,-z
1/2-x,1/2+y,z
1/2+x,1/2-y,z
loop_
_atom_site_type_symbol
_atom_site_label
_atom_site_fract_x
_atom_site_fract_y
_atom_site_fract_z
Si Si1 0.428976 0.401116 0.786620
Si Si2 0.751041 0.000000 0.854394
Si Si3 0.572038 0.799388 0.595795
Si Si4 0.194607 0.394504 0.179003
Si Si5 0.101792 0.000000 0.901133
Si Si6 0.316271 0.728243 0.348177
O O1 0.500000 0.399654 0.750101
O O2 0.416913 0.345769 0.835836
O O3 0.371870 0.409915 0.721861
O O4 0.425065 0.448129 0.854998
O O5 0.750000 0.000000 0.750000
O O6 0.717405 0.944347 0.877747
O O7 0.822479 0.000000 0.886459
O O8 0.577270 0.821502 0.500000
O O9 0.500000 0.780041 0.606972
O O10 0.623105 0.753697 0.608018
O O11 0.250000 0.387853 0.250000
O O12 0.185393 0.335328 0.143584
O O13 0.087309 0.000000 0.000000
O O14 0.319277 0.750000 0.250000
O O15 0.250000 0.750000 0.383107
#
# Coordination Sequence:
#
# PCOD9512670 Si02
#       6
#    32  16  32  32  16  32
#     4  11  21  34  54  81 112 148 182 219 266 326
#     4  10  20  36  60  75 105 149 184 224 274 312
#     4  10  22  38  53  76 114 151 179 216 272 330
#     4  11  18  36  58  79 106 144 183 227 275 311
#     4  12  23  35  54  82 112 149 184 218 267 331
#     4  11  20  33  56  82 109 137 182 231 270 317
#
# _framework density 19.145472999999999
#
# number of rings (size 3 to 8) (size 9 to 14) (size 15 to 20)
#    0.000    1.200    8.000    0.900    0.000    3.200 
#    0.000    1.000    0.000    0.000    0.000    0.000 
#    0.000    2.400    0.000    0.000    0.000    0.000 
#
# Total GULP energy -223263.874582 kJ/mol
# GULP energy per Si atom -5581.596865 kJ/mol
# Density = 1.910190 g / cm^3
# Si number density = 19.145473 Si / 1000 Ang^3
#
#
#
# Elastic Constant Matrix: (Units=GPa)
#
#
# Indices 1 2 3 4 5 6 
#
# 1 124.2772 38.3550 9.2346 0.0000 0.0000 0.0000
# 2 38.3550 133.4255 -3.7831 0.0000 0.0000 0.0000
# 3 9.2346 -3.7831 7.8390 0.0000 0.0000 0.0000
# 4 0.0000 0.0000 0.0000 -3.4700 0.0000 0.0000
# 5 0.0000 0.0000 0.0000 0.0000 15.1542 0.0000
# 6 0.0000 0.0000 0.0000 0.0000 0.0000 20.3250
#
#
#
# Elastic Compliance Matrix: (Units=1/GPa)
#
#
# Indices 1 2 3 4 5 6 
#
# 1 0.010053 -0.003270 -0.013421 0.000000 0.000000 0.000000
# 2 -0.003270 0.008663 0.008033 0.000000 0.000000 0.000000
# 3 -0.013421 0.008033 0.147255 0.000000 0.000000 0.000000
# 4 0.000000 0.000000 0.000000 -0.288183 0.000000 0.000000
# 5 0.000000 0.000000 0.000000 0.000000 0.065988 0.000000
# 6 0.000000 0.000000 0.000000 0.000000 0.000000 0.049200
#
#
# Mechanical properties :
#
#
# Convention : Reuss Voigt Hill
#
# Bulk Modulus (GPa) = 6.72704 39.23942 22.98323
# Shear Modulus (GPa) = 83.55030 21.18418 52.36724
#
# Velocity S-wave (km/s) = 6.61320 3.33000 5.23561
# Velocity P-wave (km/s) = 7.86345 5.94349 6.96990
#
# Compressibility (1/GPa) = 0.14865374
#
# Stress axis : x y z
#
# Youngs Moduli (GPa) = 99.47110 115.43693 6.79096
#
# Poissons Ratio (x) = 0.37753 0.09114
# Poissons Ratio (y) = 0.32532 -0.05455
# Poissons Ratio (z) = 1.33503 -0.92735
#
# Static dielectric constant tensor:
#      x y z
#    x 1.663930 0.000000 0.000000 
#    y 0.000000 1.690350 0.000000 
#    z 0.000000 0.000000 1.664480 
# 
# From -- ./inp_files/31027.got.cif
#   From: 2010.05.17/outbox.cif.g08.bks.cpg/sg69_16_cif.got.tgz:31027.got - 2010.06.03 19:29:58.
