data_PCOD9512635
_publ_section_title
;
Structure prediction by ZEFSAII (Michael W. Deem and Ramdas Pophale) SiO2 
 PCOD9512635
Probable space group: F M M M
;
_chemical_formula_sum "Si O2"
_cell_formula_units_Z 176
_cell_length_a 27.340965
_cell_length_b 27.733918
_cell_length_c 11.283322
_cell_angle_alpha 90.000000
_cell_angle_beta 90.000000
_cell_angle_gamma 90.000000
_cell_volume 8555.828057
_symmetry_space_group_name_H-M "F M M M"
_symmetry_group_IT_number 69
_symmetry_cell_setting 'orthorhombic'
loop_
_space_group_symop_operation_xyz
x,y,z
-x,-y,z
x,-y,-z
-x,y,-z
-x,-y,-z
x,y,-z
-x,y,z
x,-y,z
x,1/2+y,1/2+z
-x,1/2-y,1/2+z
x,1/2-y,1/2-z
-x,1/2+y,1/2-z
-x,1/2-y,1/2-z
x,1/2+y,1/2-z
-x,1/2+y,1/2+z
x,1/2-y,1/2+z
1/2+x,y,1/2+z
1/2-x,-y,1/2+z
1/2+x,-y,1/2-z
1/2-x,y,1/2-z
1/2-x,-y,1/2-z
1/2+x,y,1/2-z
1/2-x,y,1/2+z
1/2+x,-y,1/2+z
1/2+x,1/2+y,z
1/2-x,1/2-y,z
1/2+x,1/2-y,-z
1/2-x,1/2+y,-z
1/2-x,1/2-y,-z
1/2+x,1/2+y,-z
1/2-x,1/2+y,z
1/2+x,1/2-y,z
loop_
_atom_site_type_symbol
_atom_site_label
_atom_site_fract_x
_atom_site_fract_y
_atom_site_fract_z
Si Si1 0.374799 0.057937 0.790837
Si Si2 0.053406 0.441767 0.000000
Si Si3 0.731495 0.924923 0.131872
Si Si4 0.555004 0.385630 0.140280
Si Si5 0.110205 0.212335 0.140440
Si Si6 0.223072 0.319086 0.631287
O O1 0.325477 0.082337 0.837791
O O2 0.400491 0.078924 0.675424
O O3 0.367272 0.000000 0.786859
O O4 0.415870 0.070820 0.886278
O O5 0.050052 0.500000 0.000000
O O6 0.000000 0.420465 0.000000
O O7 0.750000 0.950983 0.250000
O O8 0.762629 0.875688 0.128149
O O9 0.735017 0.946417 0.000000
O O10 0.500000 0.396397 0.188633
O O11 0.572918 0.331385 0.167072
O O12 0.551089 0.388596 0.000000
O O13 0.106353 0.250000 0.250000
O O14 0.165617 0.191287 0.142823
O O15 0.102654 0.228245 0.000000
O O16 0.238977 0.301295 0.500000
O O17 0.250000 0.301003 0.750000
#
# Coordination Sequence:
#
# PCOD9512635 Si02
#       6
#    32  16  32  32  32  32
#     4  11  22  38  61  90 126 169 217 264 319 382
#     4   9  18  34  56  82 118 161 206 262 321 372
#     4  10  20  36  58  85 121 167 215 262 315 377
#     4  10  22  41  65  93 127 165 206 263 332 393
#     4  10  22  42  65  91 125 163 206 260 321 388
#     4   9  18  33  55  82 116 157 199 247 304 366
#
# _framework density 20.570772000000002
#
# number of rings (size 3 to 8) (size 9 to 14) (size 15 to 20)
#    0.000    2.091    0.909    2.727    0.000    5.455 
#    1.636    2.727    0.000    0.000    0.000    0.000 
#    0.000    0.000    0.000    0.000    0.000    0.000 
#
# Total GULP energy -244959.043412 kJ/mol
# GULP energy per Si atom -5567.250987 kJ/mol
# Density = 2.052395 g / cm^3
# Si number density = 20.570772 Si / 1000 Ang^3
#
#
#
# Elastic Constant Matrix: (Units=GPa)
#
#
# Indices 1 2 3 4 5 6 
#
# 1 57.2020 -10.6677 33.9750 -0.0002 0.0000 0.0000
# 2 -10.6677 60.4363 17.4768 -0.0003 0.0002 0.0000
# 3 33.9750 17.4768 129.3286 -0.0002 0.0001 -0.0002
# 4 -0.0002 -0.0003 -0.0002 9.6822 0.0002 0.0000
# 5 0.0000 0.0002 0.0001 0.0002 24.5844 0.0000
# 6 0.0000 0.0000 -0.0002 0.0000 0.0000 14.7917
#
#
#
# Elastic Compliance Matrix: (Units=1/GPa)
#
#
# Indices 1 2 3 4 5 6 
#
# 1 0.022590 0.005935 -0.006737 0.000000 0.000000 0.000000
# 2 0.005935 0.018779 -0.004097 0.000001 0.000000 0.000000
# 3 -0.006737 -0.004097 0.010056 0.000000 0.000000 0.000000
# 4 0.000000 0.000001 0.000000 0.103282 -0.000001 0.000000
# 5 0.000000 0.000000 0.000000 -0.000001 0.040676 0.000000
# 6 0.000000 0.000000 0.000000 0.000000 0.000000 0.067605
#
#
# Mechanical properties :
#
#
# Convention : Reuss Voigt Hill
#
# Bulk Modulus (GPa) = 24.02211 36.50388 30.26300
# Shear Modulus (GPa) = 17.44226 23.55720 20.49973
#
# Velocity S-wave (km/s) = 2.91506 3.38772 3.16024
# Velocity P-wave (km/s) = 4.79929 5.75206 5.29714
#
# Compressibility (1/GPa) = 0.04162831
#
# Stress axis : x y z
#
# Youngs Moduli (GPa) = 44.26740 53.25170 99.44727
#
# Poissons Ratio (x) = -0.31607 0.66993
# Poissons Ratio (y) = -0.26275 0.40743
# Poissons Ratio (z) = 0.29821 0.21817
#
# Static dielectric constant tensor:
#      x y z
#    x 1.736120 0.000000 0.000000 
#    y 0.000000 1.740600 0.000000 
#    z 0.000000 0.000000 2.153920 
# 
# From -- ./inp_files/10627.got.cif
#   From: 2010.05.17/outbox.cif.g08.bks.cpg/sg69_6_cif.got.tgz:10627.got - 2010.06.03 19:29:58.
