data_PCOD9512759
_publ_section_title
;
Structure prediction by ZEFSAII (Michael W. Deem and Ramdas Pophale) SiO2 
 PCOD9512759
Probable space group: F M M M
;
_chemical_formula_sum "Si O2"
_cell_formula_units_Z 160
_cell_length_a 20.522969
_cell_length_b 18.502330
_cell_length_c 21.018274
_cell_angle_alpha 90.000000
_cell_angle_beta 90.000000
_cell_angle_gamma 90.000000
_cell_volume 7981.116699
_symmetry_space_group_name_H-M "F M M M"
_symmetry_group_IT_number 69
_symmetry_cell_setting 'orthorhombic'
loop_
_space_group_symop_operation_xyz
x,y,z
-x,-y,z
x,-y,-z
-x,y,-z
-x,-y,-z
x,y,-z
-x,y,z
x,-y,z
x,1/2+y,1/2+z
-x,1/2-y,1/2+z
x,1/2-y,1/2-z
-x,1/2+y,1/2-z
-x,1/2-y,1/2-z
x,1/2+y,1/2-z
-x,1/2+y,1/2+z
x,1/2-y,1/2+z
1/2+x,y,1/2+z
1/2-x,-y,1/2+z
1/2+x,-y,1/2-z
1/2-x,y,1/2-z
1/2-x,-y,1/2-z
1/2+x,y,1/2-z
1/2-x,y,1/2+z
1/2+x,-y,1/2+z
1/2+x,1/2+y,z
1/2-x,1/2-y,z
1/2+x,1/2-y,-z
1/2-x,1/2+y,-z
1/2-x,1/2-y,-z
1/2+x,1/2+y,-z
1/2-x,1/2+y,z
1/2+x,1/2-y,z
loop_
_atom_site_type_symbol
_atom_site_label
_atom_site_fract_x
_atom_site_fract_y
_atom_site_fract_z
Si Si1 0.613539 0.086032 0.652921
Si Si2 0.500000 0.086929 0.895277
Si Si3 0.140027 0.346197 0.925552
Si Si4 0.930635 0.206382 0.925107
Si Si5 0.500000 0.412654 0.751751
Si Si6 0.749823 0.162811 0.326172
O O1 0.580805 0.124072 0.592716
O O2 0.565801 0.109017 0.711131
O O3 0.683658 0.122476 0.655052
O O4 0.616726 0.000000 0.650687
O O5 0.431041 0.115234 0.922925
O O6 0.500000 0.109290 0.821121
O O7 0.500000 0.000000 0.900436
O O8 0.124047 0.263262 0.906646
O O9 0.192297 0.368898 0.871607
O O10 0.162979 0.350492 0.000000
O O11 0.000000 0.229505 0.896704
O O12 0.933981 0.214064 0.000000
O O13 0.500000 0.500000 0.753090
O O14 0.750000 0.150200 0.250000
O O15 0.750000 0.250000 0.334736
#
# Coordination Sequence:
#
# PCOD9512759 Si02
#       6
#    32  16  32  32  16  32
#     4  11  22  39  62  90 123 162 209 259 315 375
#     4  11  23  41  65  96 128 162 211 266 313 370
#     4  11  23  41  65  92 126 169 209 254 318 380
#     4  10  20  37  61  90 123 159 202 255 318 379
#     4   9  20  38  61  90 126 163 199 255 328 376
#     4  11  24  41  62  93 127 164 212 259 309 375
#
# _framework density 20.047319000000002
#
# number of rings (size 3 to 8) (size 9 to 14) (size 15 to 20)
#    0.000    1.400    4.000    1.500    0.000    3.600 
#    0.000    2.000    0.000    0.000    0.000    0.000 
#    0.000    0.000    0.000    0.000    0.000    0.000 
#
# Total GULP energy -222769.823921 kJ/mol
# GULP energy per Si atom -5569.245598 kJ/mol
# Density = 2.000169 g / cm^3
# Si number density = 20.047319 Si / 1000 Ang^3
#
#
#
# Elastic Constant Matrix: (Units=GPa)
#
#
# Indices 1 2 3 4 5 6 
#
# 1 139.2937 29.5878 69.4531 0.0000 0.0000 0.0000
# 2 29.5878 73.1343 27.0462 0.0000 0.0000 0.0000
# 3 69.4531 27.0462 69.6365 0.0000 0.0000 0.0000
# 4 0.0000 0.0000 0.0000 24.8440 0.0000 0.0000
# 5 0.0000 0.0000 0.0000 0.0000 26.7290 0.0000
# 6 0.0000 0.0000 0.0000 0.0000 0.0000 -26.2079
#
#
#
# Elastic Compliance Matrix: (Units=1/GPa)
#
#
# Indices 1 2 3 4 5 6 
#
# 1 0.014303 -0.000597 -0.014034 0.000000 0.000000 0.000000
# 2 -0.000597 0.015992 -0.005616 0.000000 0.000000 0.000000
# 3 -0.014034 -0.005616 0.030538 0.000000 0.000000 0.000000
# 4 0.000000 0.000000 0.000000 0.040251 0.000000 0.000000
# 5 0.000000 0.000000 0.000000 0.000000 0.037413 0.000000
# 6 0.000000 0.000000 0.000000 0.000000 0.000000 -0.038156
#
#
# Mechanical properties :
#
#
# Convention : Reuss Voigt Hill
#
# Bulk Modulus (GPa) = 49.16321 59.35987 54.26154
# Shear Modulus (GPa) = 33.87231 15.47152 24.67192
#
# Velocity S-wave (km/s) = 4.11496 2.78105 3.51192
# Velocity P-wave (km/s) = 6.86687 6.32349 6.60078
#
# Compressibility (1/GPa) = 0.02034041
#
# Stress axis : x y z
#
# Youngs Moduli (GPa) = 69.91458 62.53225 32.74586
#
# Poissons Ratio (x) = 0.03731 0.45955
# Poissons Ratio (y) = 0.04172 0.18390
# Poissons Ratio (z) = 0.98116 0.35118
#
# Static dielectric constant tensor:
#      x y z
#    x -1.431640 0.000000 0.000000 
#    y 0.000000 1.700870 0.000000 
#    z 0.000000 0.000000 1.734240 
# 
# From -- ./inp_files/24665.got.cif
#   From: 2010.05.17/outbox.cif.g08.bks.cpg/sg69_13_cif.got.tgz:24665.got - 2010.06.03 19:29:58.
