data_PCOD9512682
_publ_section_title
;
Structure prediction by ZEFSAII (Michael W. Deem and Ramdas Pophale) SiO2 
 PCOD9512682
Probable space group: F M M M
;
_chemical_formula_sum "Si O2"
_cell_formula_units_Z 100
_cell_length_a 19.258605
_cell_length_b 14.229279
_cell_length_c 17.327808
_cell_angle_alpha 90.000000
_cell_angle_beta 90.000000
_cell_angle_gamma 90.000000
_cell_volume 4748.444297
_symmetry_space_group_name_H-M "F M M M"
_symmetry_group_IT_number 69
_symmetry_cell_setting 'orthorhombic'
loop_
_space_group_symop_operation_xyz
x,y,z
-x,-y,z
x,-y,-z
-x,y,-z
-x,-y,-z
x,y,-z
-x,y,z
x,-y,z
x,1/2+y,1/2+z
-x,1/2-y,1/2+z
x,1/2-y,1/2-z
-x,1/2+y,1/2-z
-x,1/2-y,1/2-z
x,1/2+y,1/2-z
-x,1/2+y,1/2+z
x,1/2-y,1/2+z
1/2+x,y,1/2+z
1/2-x,-y,1/2+z
1/2+x,-y,1/2-z
1/2-x,y,1/2-z
1/2-x,-y,1/2-z
1/2+x,y,1/2-z
1/2-x,y,1/2+z
1/2+x,-y,1/2+z
1/2+x,1/2+y,z
1/2-x,1/2-y,z
1/2+x,1/2-y,-z
1/2-x,1/2+y,-z
1/2-x,1/2-y,-z
1/2+x,1/2+y,-z
1/2-x,1/2+y,z
1/2+x,1/2-y,z
loop_
_atom_site_type_symbol
_atom_site_label
_atom_site_fract_x
_atom_site_fract_y
_atom_site_fract_z
Si Si1 0.500000 0.000000 0.000000
Si Si2 0.110554 0.500000 0.500000
Si Si3 0.359283 0.858449 0.266449
Si Si4 0.122677 0.000000 0.370253
Si Si5 0.000000 0.667131 0.500000
Si Si6 0.000000 0.688286 0.670261
Si Si7 0.219884 0.500000 0.364717
O O1 0.561993 0.000000 0.932342
O O2 0.064045 0.594094 0.500000
O O3 0.162084 0.500000 0.428861
O O4 0.344322 0.750000 0.250000
O O5 0.379595 0.910589 0.187292
O O6 0.428246 0.866564 0.319442
O O7 0.297797 0.910589 0.311093
O O8 0.202806 0.000000 0.398076
O O9 0.000000 0.724886 0.581152
O O10 0.000000 0.750000 0.750000
#
# Coordination Sequence:
#
# PCOD9512682 Si02
#       7
#     4   8  32  16   8  16  16
#     4  12  26  52  64  86 136 182 228 280 348 426
#     4  11  21  34  61  97 130 164 220 277 343 390
#     4  10  21  40  65 102 135 172 229 282 329 405
#     4  11  25  42  71  90 126 186 226 274 353 416
#     4  11  20  36  63  91 132 185 210 277 349 367
#     4  10  20  36  61 100 136 177 225 267 332 407
#     4  11  22  39  64 100 131 171 226 281 346 416
#
# _framework density 21.059531
#
# number of rings (size 3 to 8) (size 9 to 14) (size 15 to 20)
#    0.000    1.440    3.200    3.360    0.000    4.480 
#    0.000   14.400    0.000    3.840    0.000    0.000 
#    0.000    0.000    0.000    0.000    0.000    0.000 
#
# Total GULP energy -139204.478253 kJ/mol
# GULP energy per Si atom -5568.179130 kJ/mol
# Density = 2.101160 g / cm^3
# Si number density = 21.059531 Si / 1000 Ang^3
#
#
#
# Elastic Constant Matrix: (Units=GPa)
#
#
# Indices 1 2 3 4 5 6 
#
# 1 180.4652 24.9460 69.5372 0.0000 0.0000 0.0000
# 2 24.9460 122.8748 47.6274 0.0000 0.0000 0.0000
# 3 69.5372 47.6274 186.3656 0.0000 0.0000 0.0000
# 4 0.0000 0.0000 0.0000 14.1179 0.0000 0.0000
# 5 0.0000 0.0000 0.0000 0.0000 47.7583 0.0000
# 6 0.0000 0.0000 0.0000 0.0000 0.0000 14.6571
#
#
#
# Elastic Compliance Matrix: (Units=1/GPa)
#
#
# Indices 1 2 3 4 5 6 
#
# 1 0.006491 -0.000421 -0.002315 0.000000 0.000000 0.000000
# 2 -0.000421 0.009060 -0.002158 0.000000 0.000000 0.000000
# 3 -0.002315 -0.002158 0.006781 0.000000 0.000000 0.000000
# 4 0.000000 0.000000 0.000000 0.070832 0.000000 0.000000
# 5 0.000000 0.000000 0.000000 0.000000 0.020939 0.000000
# 6 0.000000 0.000000 0.000000 0.000000 0.000000 0.068226
#
#
# Mechanical properties :
#
#
# Convention : Reuss Voigt Hill
#
# Bulk Modulus (GPa) = 79.71159 85.99188 82.85173
# Shear Modulus (GPa) = 25.47137 38.47967 31.97552
#
# Velocity S-wave (km/s) = 3.48155 4.27920 3.90081
# Velocity P-wave (km/s) = 7.35489 8.08312 7.72758
#
# Compressibility (1/GPa) = 0.01254523
#
# Stress axis : x y z
#
# Youngs Moduli (GPa) = 154.05428 110.36997 147.47058
#
# Poissons Ratio (x) = 0.04644 0.34132
# Poissons Ratio (y) = 0.06481 0.31831
# Poissons Ratio (z) = 0.35656 0.23823
#
# Static dielectric constant tensor:
#      x y z
#    x 1.792110 0.000000 0.000000 
#    y 0.000000 1.780680 0.000000 
#    z 0.000000 0.000000 1.865910 
# 
# From -- ./inp_files/24046.got.cif
#   From: 2010.05.17/outbox.cif.g08.bks.cpg/sg69_13_cif.got.tgz:24046.got - 2010.06.03 19:29:58.
