data_PCOD9512071
_publ_section_title
;
Structure prediction by ZEFSAII (Michael W. Deem and Ramdas Pophale) SiO2 
 PCOD9512071
Probable space group: F M M M
;
_chemical_formula_sum "Si O2"
_cell_formula_units_Z 88
_cell_length_a 14.400774
_cell_length_b 25.158929
_cell_length_c 13.178351
_cell_angle_alpha 90.000000
_cell_angle_beta 90.000000
_cell_angle_gamma 90.000000
_cell_volume 4774.622661
_symmetry_space_group_name_H-M "F M M M"
_symmetry_group_IT_number 69
_symmetry_cell_setting 'orthorhombic'
loop_
_space_group_symop_operation_xyz
x,y,z
-x,-y,z
x,-y,-z
-x,y,-z
-x,-y,-z
x,y,-z
-x,y,z
x,-y,z
x,1/2+y,1/2+z
-x,1/2-y,1/2+z
x,1/2-y,1/2-z
-x,1/2+y,1/2-z
-x,1/2-y,1/2-z
x,1/2+y,1/2-z
-x,1/2+y,1/2+z
x,1/2-y,1/2+z
1/2+x,y,1/2+z
1/2-x,-y,1/2+z
1/2+x,-y,1/2-z
1/2-x,y,1/2-z
1/2-x,-y,1/2-z
1/2+x,y,1/2-z
1/2-x,y,1/2+z
1/2+x,-y,1/2+z
1/2+x,1/2+y,z
1/2-x,1/2-y,z
1/2+x,1/2-y,-z
1/2-x,1/2+y,-z
1/2-x,1/2-y,-z
1/2+x,1/2+y,-z
1/2-x,1/2+y,z
1/2+x,1/2-y,z
loop_
_atom_site_type_symbol
_atom_site_label
_atom_site_fract_x
_atom_site_fract_y
_atom_site_fract_z
Si Si1 0.000000 0.896728 0.831852
Si Si2 0.159588 0.118787 0.500000
Si Si3 0.500000 0.738301 0.000000
Si Si4 0.500000 0.000000 0.186986
Si Si5 0.633299 0.859543 0.500000
Si Si6 0.500000 0.662551 0.360398
Si Si7 0.642284 0.500000 0.500000
O O1 0.909925 0.891087 0.903728
O O2 0.000000 0.845830 0.758218
O O3 0.000000 0.948498 0.760090
O O4 0.257136 0.147918 0.500000
O O5 0.091373 0.133562 0.593133
O O6 0.189102 0.057168 0.500000
O O7 0.413840 0.698407 0.000000
O O8 0.500000 0.778355 0.095185
O O9 0.416415 0.000000 0.105135
#
# Coordination Sequence:
#
# PCOD9512071 Si02
#       7
#    16  16   8   8  16  16   8
#     4  10  21  38  57  85 117 161 186 235 285 362
#     4  10  20  36  58  90 114 146 192 248 282 344
#     4   8  20  40  62  82 114 158 188 254 286 330
#     4  11  18  37  64  82 116 157 194 235 292 332
#     4  10  24  38  52  84 130 148 190 241 293 334
#     4  10  19  36  65  84 106 153 209 227 288 342
#     4  11  18  34  62  89 112 150 192 251 282 333
#
# _framework density 18.430776000000002
#
# number of rings (size 3 to 8) (size 9 to 14) (size 15 to 20)
#    0.000    2.364    3.636    1.091    0.000   10.182 
#    0.000    1.818    0.000   17.455    0.000    0.000 
#    0.000    0.000    0.000    0.000    0.000    0.000 
#
# Total GULP energy -122508.930468 kJ/mol
# GULP energy per Si atom -5568.587749 kJ/mol
# Density = 1.838883 g / cm^3
# Si number density = 18.430776 Si / 1000 Ang^3
#
#
#
# Elastic Constant Matrix: (Units=GPa)
#
#
# Indices 1 2 3 4 5 6 
#
# 1 134.0988 26.1994 31.5106 0.0000 0.0000 0.0000
# 2 26.1994 130.0946 29.0495 0.0000 0.0000 0.0000
# 3 31.5106 29.0495 127.6000 0.0000 0.0000 0.0000
# 4 0.0000 0.0000 0.0000 23.5781 0.0000 0.0000
# 5 0.0000 0.0000 0.0000 0.0000 -1.4472 0.0000
# 6 0.0000 0.0000 0.0000 0.0000 0.0000 3.4094
#
#
#
# Elastic Compliance Matrix: (Units=1/GPa)
#
#
# Indices 1 2 3 4 5 6 
#
# 1 0.008105 -0.001249 -0.001717 0.000000 0.000000 0.000000
# 2 -0.001249 0.008291 -0.001579 0.000000 0.000000 0.000000
# 3 -0.001717 -0.001579 0.008621 0.000000 0.000000 0.000000
# 4 0.000000 0.000000 0.000000 0.042412 0.000000 0.000000
# 5 0.000000 0.000000 0.000000 0.000000 -0.690994 0.000000
# 6 0.000000 0.000000 0.000000 0.000000 0.000000 0.293309
#
#
# Mechanical properties :
#
#
# Convention : Reuss Voigt Hill
#
# Bulk Modulus (GPa) = 62.79040 62.81247 62.80143
# Shear Modulus (GPa) = -15.82990 25.44364 4.80687
#
# Velocity S-wave (km/s) = -2.93385 3.71954 1.61670
# Velocity P-wave (km/s) = 4.76083 7.25264 6.13459
#
# Compressibility (1/GPa) = 0.01592600
#
# Stress axis : x y z
#
# Youngs Moduli (GPa) = 123.38587 120.61556 116.00201
#
# Poissons Ratio (x) = 0.15062 0.19919
# Poissons Ratio (y) = 0.15408 0.18318
# Poissons Ratio (z) = 0.21187 0.19047
#
# Static dielectric constant tensor:
#      x y z
#    x 1.599910 0.000000 0.000000 
#    y 0.000000 1.660300 0.000000 
#    z 0.000000 0.000000 1.639940 
# 
# From -- ./inp_files/7165.got.cif
#   From: 2010.05.17/outbox.cif.g08.bks.cpg/sg69_4_cif.got.tgz:7165.got - 2010.06.03 19:29:58.
