data_PCOD9512015
_publ_section_title
;
Structure prediction by ZEFSAII (Michael W. Deem and Ramdas Pophale) SiO2 
 PCOD9512015
Probable space group: F M M M
;
_chemical_formula_sum "Si O2"
_cell_formula_units_Z 84
_cell_length_a 22.955090
_cell_length_b 14.054928
_cell_length_c 10.267417
_cell_angle_alpha 90.000000
_cell_angle_beta 90.000000
_cell_angle_gamma 90.000000
_cell_volume 3312.598690
_symmetry_space_group_name_H-M "F M M M"
_symmetry_group_IT_number 69
_symmetry_cell_setting 'orthorhombic'
loop_
_space_group_symop_operation_xyz
x,y,z
-x,-y,z
x,-y,-z
-x,y,-z
-x,-y,-z
x,y,-z
-x,y,z
x,-y,z
x,1/2+y,1/2+z
-x,1/2-y,1/2+z
x,1/2-y,1/2-z
-x,1/2+y,1/2-z
-x,1/2-y,1/2-z
x,1/2+y,1/2-z
-x,1/2+y,1/2+z
x,1/2-y,1/2+z
1/2+x,y,1/2+z
1/2-x,-y,1/2+z
1/2+x,-y,1/2-z
1/2-x,y,1/2-z
1/2-x,-y,1/2-z
1/2+x,y,1/2-z
1/2-x,y,1/2+z
1/2+x,-y,1/2+z
1/2+x,1/2+y,z
1/2-x,1/2-y,z
1/2+x,1/2-y,-z
1/2-x,1/2+y,-z
1/2-x,1/2-y,-z
1/2+x,1/2+y,-z
1/2-x,1/2+y,z
1/2+x,1/2-y,z
loop_
_atom_site_type_symbol
_atom_site_label
_atom_site_fract_x
_atom_site_fract_y
_atom_site_fract_z
Si Si1 0.000000 0.362744 0.241088
Si Si2 0.373389 0.389127 0.281229
Si Si3 0.287624 0.115628 0.000000
Si Si4 0.849131 0.615905 0.500000
Si Si5 0.000000 0.500000 0.500000
O O1 0.000000 0.250000 0.250000
O O2 0.939391 0.387311 0.170285
O O3 0.000000 0.418034 0.381294
O O4 0.357010 0.500000 0.264796
O O5 0.323552 0.350199 0.374798
O O6 0.374373 0.347277 0.135605
O O7 0.219614 0.136338 0.000000
O O8 0.290511 0.000000 0.000000
O O9 0.861023 0.500000 0.500000
#
# Coordination Sequence:
#
# PCOD9512015 Si02
#       5
#    16  32  16  16   4
#     4  12  26  42  71 105 138 193 250 302 371 449
#     4  10  19  35  60  92 135 179 233 298 364 436
#     4   9  18  31  54  90 132 171 224 303 363 427
#     4   9  17  31  58  91 123 182 237 284 355 444
#     4  12  24  52  76 100 156 196 248 314 372 448
#
# _framework density 25.357735999999999
#
# number of rings (size 3 to 8) (size 9 to 14) (size 15 to 20)
#    0.000    1.905    1.905    2.286    2.667    6.857 
#    0.000    2.857    0.000    6.857    0.000    0.000 
#    0.000    0.000    0.000    0.000    0.000    0.000 
#
# Total GULP energy -117143.296107 kJ/mol
# GULP energy per Si atom -5578.252196 kJ/mol
# Density = 2.530002 g / cm^3
# Si number density = 25.357736 Si / 1000 Ang^3
#
#
#
# Elastic Constant Matrix: (Units=GPa)
#
#
# Indices 1 2 3 4 5 6 
#
# 1 70.3821 -37.8482 48.9425 0.0000 0.0000 0.0000
# 2 -37.8482 118.5552 -8.8657 0.0000 0.0000 0.0000
# 3 48.9425 -8.8657 104.9050 0.0000 0.0000 0.0000
# 4 0.0000 0.0000 0.0000 -5.8421 0.0000 0.0000
# 5 0.0000 0.0000 0.0000 0.0000 102.5466 0.0000
# 6 0.0000 0.0000 0.0000 0.0000 0.0000 22.7050
#
#
#
# Elastic Compliance Matrix: (Units=1/GPa)
#
#
# Indices 1 2 3 4 5 6 
#
# 1 0.026384 0.007550 -0.011671 0.000000 0.000000 0.000000
# 2 0.007550 0.010649 -0.002623 0.000000 0.000000 0.000000
# 3 -0.011671 -0.002623 0.014756 0.000000 0.000000 0.000000
# 4 0.000000 0.000000 0.000000 -0.171171 0.000000 0.000000
# 5 0.000000 0.000000 0.000000 0.000000 0.009752 0.000000
# 6 0.000000 0.000000 0.000000 0.000000 0.000000 0.044043
#
#
# Mechanical properties :
#
#
# Convention : Reuss Voigt Hill
#
# Bulk Modulus (GPa) = 26.10804 33.14438 29.62621
# Shear Modulus (GPa) = -127.12133 43.32282 -41.89925
#
# Velocity S-wave (km/s) = -7.08802 4.13784 -4.06929
# Velocity P-wave (km/s) = 7.52784 5.99400 3.22028
#
# Compressibility (1/GPa) = 0.03830237
#
# Stress axis : x y z
#
# Youngs Moduli (GPa) = 37.90121 93.90401 67.76924
#
# Poissons Ratio (x) = -0.70900 0.79096
# Poissons Ratio (y) = -0.28617 0.17773
# Poissons Ratio (z) = 0.44236 0.24627
#
# Static dielectric constant tensor:
#      x y z
#    x 1.965100 0.000000 0.000000 
#    y 0.000000 2.038340 0.000000 
#    z 0.000000 0.000000 2.002150 
# 
# From -- ./inp_files/8816.got.cif
#   From: 2010.05.17/outbox.cif.g08.bks.cpg/sg69_5_cif.got.tgz:8816.got - 2010.06.03 19:29:58.
