data_PCOD9512973
_publ_section_title
;
Structure prediction by ZEFSAII (Michael W. Deem and Ramdas Pophale) SiO2 
 PCOD9512973
Probable space group: F M M M
;
_chemical_formula_sum "Si O2"
_cell_formula_units_Z 160
_cell_length_a 15.802863
_cell_length_b 16.681435
_cell_length_c 32.029785
_cell_angle_alpha 90.000000
_cell_angle_beta 90.000000
_cell_angle_gamma 90.000000
_cell_volume 8443.513578
_symmetry_space_group_name_H-M "F M M M"
_symmetry_group_IT_number 69
_symmetry_cell_setting 'orthorhombic'
loop_
_space_group_symop_operation_xyz
x,y,z
-x,-y,z
x,-y,-z
-x,y,-z
-x,-y,-z
x,y,-z
-x,y,z
x,-y,z
x,1/2+y,1/2+z
-x,1/2-y,1/2+z
x,1/2-y,1/2-z
-x,1/2+y,1/2-z
-x,1/2-y,1/2-z
x,1/2+y,1/2-z
-x,1/2+y,1/2+z
x,1/2-y,1/2+z
1/2+x,y,1/2+z
1/2-x,-y,1/2+z
1/2+x,-y,1/2-z
1/2-x,y,1/2-z
1/2-x,-y,1/2-z
1/2+x,y,1/2-z
1/2-x,y,1/2+z
1/2+x,-y,1/2+z
1/2+x,1/2+y,z
1/2-x,1/2-y,z
1/2+x,1/2-y,-z
1/2-x,1/2+y,-z
1/2-x,1/2-y,-z
1/2+x,1/2+y,-z
1/2-x,1/2+y,z
1/2+x,1/2-y,z
loop_
_atom_site_type_symbol
_atom_site_label
_atom_site_fract_x
_atom_site_fract_y
_atom_site_fract_z
Si Si1 0.854747 0.597546 0.162864
Si Si2 0.590439 0.595944 0.570438
Si Si3 0.327836 0.597106 0.866258
Si Si4 0.268474 0.343836 0.045392
Si Si5 0.500000 0.098204 0.774641
Si Si6 0.500000 0.401910 0.178507
O O1 0.854214 0.500000 0.164256
O O2 0.896331 0.621054 0.118656
O O3 0.756559 0.622828 0.159368
O O4 0.915696 0.624100 0.200263
O O5 0.500000 0.626958 0.554692
O O6 0.586773 0.500000 0.570340
O O7 0.675103 0.618331 0.546947
O O8 0.327005 0.500000 0.867029
O O9 0.317796 0.626342 0.913854
O O10 0.414569 0.624062 0.844889
O O11 0.250000 0.250000 0.049113
O O12 0.308038 0.360938 0.000000
O O13 0.500000 0.123855 0.726701
O O14 0.500000 0.000000 0.775003
O O15 0.500000 0.500000 0.178311
#
# Coordination Sequence:
#
# PCOD9512973 Si02
#       6
#    32  32  32  32  16  16
#     4   8  13  23  43  72 103 131 155 191 250 304
#     4   9  16  29  52  80 106 129 158 202 260 318
#     4   9  18  33  51  71 100 135 170 207 247 290
#     4  10  21  36  51  72  99 128 167 209 254 310
#     4   9  14  22  42  74 109 132 156 201 253 299
#     4   9  18  30  45  71 103 134 172 211 237 276
#
# _framework density 18.949456999999999
#
# number of rings (size 3 to 8) (size 9 to 14) (size 15 to 20)
#    0.000    3.000    1.000    1.800    0.000    2.800 
#    1.800    5.500    0.000    1.800    0.000   16.800 
#    0.000    0.000    0.000    0.000    0.000    0.000 
#
# Total GULP energy -222809.688074 kJ/mol
# GULP energy per Si atom -5570.242202 kJ/mol
# Density = 1.890633 g / cm^3
# Si number density = 18.949457 Si / 1000 Ang^3
#
#
#
# Elastic Constant Matrix: (Units=GPa)
#
#
# Indices 1 2 3 4 5 6 
#
# 1 136.0045 15.7500 90.1638 0.0000 0.0000 0.0000
# 2 15.7500 4.9234 13.6577 0.0000 0.0000 0.0000
# 3 90.1638 13.6577 163.2288 0.0000 0.0000 0.0000
# 4 0.0000 0.0000 0.0000 0.5107 0.0000 0.0000
# 5 0.0000 0.0000 0.0000 0.0000 8.3317 0.0000
# 6 0.0000 0.0000 0.0000 0.0000 0.0000 -4.2156
#
#
#
# Elastic Compliance Matrix: (Units=1/GPa)
#
#
# Indices 1 2 3 4 5 6 
#
# 1 0.014622 -0.031737 -0.005421 0.000000 0.000000 0.000000
# 2 -0.031737 0.333387 -0.010364 0.000000 0.000000 0.000000
# 3 -0.005421 -0.010364 0.009988 0.000000 0.000000 0.000000
# 4 0.000000 0.000000 0.000000 1.958045 0.000000 0.000000
# 5 0.000000 0.000000 0.000000 0.000000 0.120023 0.000000
# 6 0.000000 0.000000 0.000000 0.000000 0.000000 -0.237215
#
#
# Mechanical properties :
#
#
# Convention : Reuss Voigt Hill
#
# Bulk Modulus (GPa) = 3.80297 60.36665 32.08481
# Shear Modulus (GPa) = 2.09947 13.23105 7.66526
#
# Velocity S-wave (km/s) = 1.05373 2.64527 2.01343
# Velocity P-wave (km/s) = 1.86861 6.42306 4.73009
#
# Compressibility (1/GPa) = 0.26295218
#
# Stress axis : x y z
#
# Youngs Moduli (GPa) = 68.38953 2.99951 100.11762
#
# Poissons Ratio (x) = 0.09520 0.54278
# Poissons Ratio (y) = 2.17047 1.03767
# Poissons Ratio (z) = 0.37077 0.03109
#
# Static dielectric constant tensor:
#      x y z
#    x 1.665620 0.000000 0.000000 
#    y 0.000000 1.608400 0.000000 
#    z 0.000000 0.000000 1.661230 
# 
# From -- ./inp_files/41785.got.cif
#   From: 2010.05.17/outbox.cif.g08.bks.cpg/sg69_21_cif.got.tgz:41785.got - 2010.06.03 19:29:58.
