data_PCOD9512246
_publ_section_title
;
Structure prediction by ZEFSAII (Michael W. Deem and Ramdas Pophale) SiO2 
 PCOD9512246
Probable space group: F M M M
;
_chemical_formula_sum "Si O2"
_cell_formula_units_Z 160
_cell_length_a 16.107795
_cell_length_b 26.165819
_cell_length_c 19.194539
_cell_angle_alpha 90.000000
_cell_angle_beta 90.000000
_cell_angle_gamma 90.000000
_cell_volume 8089.992383
_symmetry_space_group_name_H-M "F M M M"
_symmetry_group_IT_number 69
_symmetry_cell_setting 'orthorhombic'
loop_
_space_group_symop_operation_xyz
x,y,z
-x,-y,z
x,-y,-z
-x,y,-z
-x,-y,-z
x,y,-z
-x,y,z
x,-y,z
x,1/2+y,1/2+z
-x,1/2-y,1/2+z
x,1/2-y,1/2-z
-x,1/2+y,1/2-z
-x,1/2-y,1/2-z
x,1/2+y,1/2-z
-x,1/2+y,1/2+z
x,1/2-y,1/2+z
1/2+x,y,1/2+z
1/2-x,-y,1/2+z
1/2+x,-y,1/2-z
1/2-x,y,1/2-z
1/2-x,-y,1/2-z
1/2+x,y,1/2-z
1/2-x,y,1/2+z
1/2+x,-y,1/2+z
1/2+x,1/2+y,z
1/2-x,1/2-y,z
1/2+x,1/2-y,-z
1/2-x,1/2+y,-z
1/2-x,1/2-y,-z
1/2+x,1/2+y,-z
1/2-x,1/2+y,z
1/2+x,1/2-y,z
loop_
_atom_site_type_symbol
_atom_site_label
_atom_site_fract_x
_atom_site_fract_y
_atom_site_fract_z
Si Si1 0.827518 0.142802 0.918095
Si Si2 0.500000 0.081662 0.076657
Si Si3 0.829374 0.062090 0.201447
Si Si4 0.149443 0.741653 0.329790
Si Si5 0.500000 0.057061 0.232136
Si Si6 0.632917 0.330849 0.575464
O O1 0.832662 0.090854 0.872722
O O2 0.866823 0.188704 0.871148
O O3 0.729514 0.155587 0.920057
O O4 0.855062 0.140340 0.000000
O O5 0.500000 0.052972 0.149081
O O6 0.420292 0.118293 0.079816
O O7 0.500000 0.056721 0.000000
O O8 0.750000 0.076629 0.250000
O O9 0.913216 0.079404 0.241487
O O10 0.826117 0.000000 0.194088
O O11 0.125560 0.750000 0.250000
O O12 0.250000 0.750000 0.332828
O O13 0.109415 0.788956 0.369303
O O14 0.500000 0.000000 0.262451
O O15 0.617911 0.306969 0.500000
#
# Coordination Sequence:
#
# PCOD9512246 Si02
#       6
#    32  16  32  32  16  32
#     4  10  20  34  57  82 110 148 191 236 278 331
#     4  10  20  33  54  79 108 147 179 224 288 342
#     4  10  22  39  61  85 113 149 189 239 291 339
#     4   9  18  29  50  80 107 145 184 228 276 333
#     4  10  22  39  58  83 114 147 187 235 285 339
#     4   9  18  33  50  76 112 144 179 225 280 337
#
# _framework density 19.777521
#
# number of rings (size 3 to 8) (size 9 to 14) (size 15 to 20)
#    0.000    2.400    0.000    1.800    8.400    3.000 
#    0.000    2.000    0.000    9.000    0.000    0.000 
#    0.000    0.000    0.000    0.000    0.000    0.000 
#
# Total GULP energy -222742.977540 kJ/mol
# GULP energy per Si atom -5568.574439 kJ/mol
# Density = 1.973251 g / cm^3
# Si number density = 19.777521 Si / 1000 Ang^3
#
#
#
# Elastic Constant Matrix: (Units=GPa)
#
#
# Indices 1 2 3 4 5 6 
#
# 1 61.8276 13.3938 39.1514 0.0000 0.0000 0.0000
# 2 13.3938 75.1464 68.8316 0.0000 0.0000 0.0000
# 3 39.1514 68.8316 192.4477 0.0000 0.0000 0.0000
# 4 0.0000 0.0000 0.0000 25.9601 0.0000 0.0000
# 5 0.0000 0.0000 0.0000 0.0000 264.2158 0.0000
# 6 0.0000 0.0000 0.0000 0.0000 0.0000 -7.2859
#
#
#
# Elastic Compliance Matrix: (Units=1/GPa)
#
#
# Indices 1 2 3 4 5 6 
#
# 1 0.018568 0.000224 -0.003858 0.000000 0.000000 0.000000
# 2 0.000224 0.019794 -0.007125 0.000000 0.000000 0.000000
# 3 -0.003858 -0.007125 0.008529 0.000000 0.000000 0.000000
# 4 0.000000 0.000000 0.000000 0.038521 0.000000 0.000000
# 5 0.000000 0.000000 0.000000 0.000000 0.003785 0.000000
# 6 0.000000 0.000000 0.000000 0.000000 0.000000 -0.137252
#
#
# Mechanical properties :
#
#
# Convention : Reuss Voigt Hill
#
# Bulk Modulus (GPa) = 39.41062 63.57502 51.49282
# Shear Modulus (GPa) = -276.55496 70.44765 -103.05365
#
# Velocity S-wave (km/s) = -11.83793 5.97473 -7.22631
# Velocity P-wave (km/s) = 12.91815 8.93372 6.59800
#
# Compressibility (1/GPa) = 0.02537387
#
# Stress axis : x y z
#
# Youngs Moduli (GPa) = 53.85535 50.52091 117.24185
#
# Poissons Ratio (x) = -0.01131 0.45227
# Poissons Ratio (y) = -0.01206 0.83536
# Poissons Ratio (z) = 0.20775 0.35996
#
# Static dielectric constant tensor:
#      x y z
#    x 1.716600 0.000000 0.000000 
#    y 0.000000 1.698530 0.000000 
#    z 0.000000 0.000000 1.730570 
# 
# From -- ./inp_files/19609.got.cif
#   From: 2010.05.17/outbox.cif.g08.bks.cpg/sg69_10_cif.got.tgz:19609.got - 2010.06.03 19:29:58.
