data_PCOD9512986
_publ_section_title
;
Structure prediction by ZEFSAII (Michael W. Deem and Ramdas Pophale) SiO2 
 PCOD9512986
Probable space group: F M M M
;
_chemical_formula_sum "Si O2"
_cell_formula_units_Z 144
_cell_length_a 29.623341
_cell_length_b 8.945347
_cell_length_c 29.700610
_cell_angle_alpha 90.000000
_cell_angle_beta 90.000000
_cell_angle_gamma 90.000000
_cell_volume 7870.396262
_symmetry_space_group_name_H-M "F M M M"
_symmetry_group_IT_number 69
_symmetry_cell_setting 'orthorhombic'
loop_
_space_group_symop_operation_xyz
x,y,z
-x,-y,z
x,-y,-z
-x,y,-z
-x,-y,-z
x,y,-z
-x,y,z
x,-y,z
x,1/2+y,1/2+z
-x,1/2-y,1/2+z
x,1/2-y,1/2-z
-x,1/2+y,1/2-z
-x,1/2-y,1/2-z
x,1/2+y,1/2-z
-x,1/2+y,1/2+z
x,1/2-y,1/2+z
1/2+x,y,1/2+z
1/2-x,-y,1/2+z
1/2+x,-y,1/2-z
1/2-x,y,1/2-z
1/2-x,-y,1/2-z
1/2+x,y,1/2-z
1/2-x,y,1/2+z
1/2+x,-y,1/2+z
1/2+x,1/2+y,z
1/2-x,1/2-y,z
1/2+x,1/2-y,-z
1/2-x,1/2+y,-z
1/2-x,1/2-y,-z
1/2+x,1/2+y,-z
1/2-x,1/2+y,z
1/2+x,1/2-y,z
loop_
_atom_site_type_symbol
_atom_site_label
_atom_site_fract_x
_atom_site_fract_y
_atom_site_fract_z
Si Si1 0.055060 0.000000 0.550674
Si Si2 0.200534 0.820671 0.140487
Si Si3 0.800477 0.179619 0.450630
Si Si4 0.618871 0.822929 0.701895
Si Si5 0.947940 0.671735 0.866388
O O1 0.067472 0.142442 0.581784
O O2 0.072278 0.000000 0.500000
O O3 0.000000 0.000000 0.549630
O O4 0.250000 0.750000 0.146365
O O5 0.179820 0.753256 0.094259
O O6 0.167838 0.781973 0.181642
O O7 0.204027 0.000000 0.136349
O O8 0.821139 0.210795 0.500000
O O9 0.750000 0.250000 0.452142
O O10 0.798015 0.000000 0.445382
O O11 0.610488 0.750000 0.750000
O O12 0.583085 0.770780 0.664583
O O13 0.617080 0.000000 0.706628
O O14 0.947039 0.500000 0.848291
O O15 0.000000 0.721970 0.866442
#
# Coordination Sequence:
#
# PCOD9512986 Si02
#       5
#    16  32  32  32  32
#     4   7  12  28  58  90 118 147 180 218 263 320
#     4  10  21  36  54  76 102 139 183 231 283 337
#     4   9  16  27  47  74 101 132 170 213 267 326
#     4  11  24  39  56  78 107 145 188 237 289 334
#     4   8  17  34  58  87 115 145 181 220 268 324
#
# _framework density 18.296410000000002
#
# number of rings (size 3 to 8) (size 9 to 14) (size 15 to 20)
#    0.667    2.111    0.000    3.333    0.000    6.222 
#    0.000    3.333    0.000    2.000    0.000    3.111 
#    0.000    0.000    0.000    0.000    0.000    0.000 
#
# Total GULP energy -200415.054740 kJ/mol
# GULP energy per Si atom -5567.084854 kJ/mol
# Density = 1.825477 g / cm^3
# Si number density = 18.296410 Si / 1000 Ang^3
#
#
#
# Elastic Constant Matrix: (Units=GPa)
#
#
# Indices 1 2 3 4 5 6 
#
# 1 61.2547 21.4023 46.2680 0.0000 0.0000 -0.0001
# 2 21.4023 43.6072 39.0313 0.0000 0.0000 -0.0001
# 3 46.2680 39.0313 154.5328 0.0000 0.0000 0.0000
# 4 0.0000 0.0000 0.0000 13.5646 0.0000 0.0000
# 5 0.0000 0.0000 0.0000 0.0000 25.5747 0.0000
# 6 -0.0001 -0.0001 0.0000 0.0000 0.0000 21.8580
#
#
#
# Elastic Compliance Matrix: (Units=1/GPa)
#
#
# Indices 1 2 3 4 5 6 
#
# 1 0.022419 -0.006454 -0.005082 0.000000 0.000000 0.000000
# 2 -0.006454 0.031489 -0.006021 0.000000 0.000000 0.000000
# 3 -0.005082 -0.006021 0.009513 0.000000 0.000000 0.000000
# 4 0.000000 0.000000 0.000000 0.073721 0.000000 0.000000
# 5 0.000000 0.000000 0.000000 0.000000 0.039101 0.000000
# 6 0.000000 0.000000 0.000000 0.000000 0.000000 0.045750
#
#
# Mechanical properties :
#
#
# Convention : Reuss Voigt Hill
#
# Bulk Modulus (GPa) = 35.32736 52.53308 43.93022
# Shear Modulus (GPa) = 18.75859 22.37899 20.56879
#
# Velocity S-wave (km/s) = 3.20544 3.50113 3.35654
# Velocity P-wave (km/s) = 5.74892 6.71703 6.25174
#
# Compressibility (1/GPa) = 0.02830668
#
# Stress axis : x y z
#
# Youngs Moduli (GPa) = 44.60460 31.75729 105.11388
#
# Poissons Ratio (x) = 0.20497 0.53421
# Poissons Ratio (y) = 0.28789 0.63288
# Poissons Ratio (z) = 0.22669 0.19121
#
# Static dielectric constant tensor:
#      x y z
#    x 1.659260 0.000000 0.000000 
#    y 0.000000 1.605970 0.000000 
#    z 0.000000 0.000000 1.673930 
# 
# From -- ./inp_files/5615.got.cif
#   From: 2010.05.17/outbox.cif.g08.bks.cpg/sg69_3_cif.got.tgz:5615.got - 2010.06.03 19:29:58.
