data_PCOD9512387
_publ_section_title
;
Structure prediction by ZEFSAII (Michael W. Deem and Ramdas Pophale) SiO2 
 PCOD9512387
Probable space group: F M M M
;
_chemical_formula_sum "Si O2"
_cell_formula_units_Z 168
_cell_length_a 21.661247
_cell_length_b 24.930805
_cell_length_c 14.768912
_cell_angle_alpha 90.000000
_cell_angle_beta 90.000000
_cell_angle_gamma 90.000000
_cell_volume 7975.689885
_symmetry_space_group_name_H-M "F M M M"
_symmetry_group_IT_number 69
_symmetry_cell_setting 'orthorhombic'
loop_
_space_group_symop_operation_xyz
x,y,z
-x,-y,z
x,-y,-z
-x,y,-z
-x,-y,-z
x,y,-z
-x,y,z
x,-y,z
x,1/2+y,1/2+z
-x,1/2-y,1/2+z
x,1/2-y,1/2-z
-x,1/2+y,1/2-z
-x,1/2-y,1/2-z
x,1/2+y,1/2-z
-x,1/2+y,1/2+z
x,1/2-y,1/2+z
1/2+x,y,1/2+z
1/2-x,-y,1/2+z
1/2+x,-y,1/2-z
1/2-x,y,1/2-z
1/2-x,-y,1/2-z
1/2+x,y,1/2-z
1/2-x,y,1/2+z
1/2+x,-y,1/2+z
1/2+x,1/2+y,z
1/2-x,1/2-y,z
1/2+x,1/2-y,-z
1/2-x,1/2+y,-z
1/2-x,1/2-y,-z
1/2+x,1/2+y,-z
1/2-x,1/2+y,z
1/2+x,1/2-y,z
loop_
_atom_site_type_symbol
_atom_site_label
_atom_site_fract_x
_atom_site_fract_y
_atom_site_fract_z
Si Si1 0.426931 0.789744 0.104318
Si Si2 0.250000 0.750000 0.750000
Si Si3 0.570805 0.607468 0.731879
Si Si4 0.737772 0.168733 0.898991
Si Si5 0.303997 0.559149 0.673797
Si Si6 0.115405 0.672629 0.394546
O O1 0.500000 0.779821 0.104991
O O2 0.417397 0.841645 0.165692
O O3 0.398022 0.733582 0.134286
O O4 0.408497 0.800629 0.000000
O O5 0.283273 0.790797 0.819932
O O6 0.500000 0.588757 0.717676
O O7 0.627177 0.567032 0.713905
O O8 0.579143 0.631561 0.831940
O O9 0.708784 0.110280 0.888743
O O10 0.811429 0.163114 0.885821
O O11 0.727520 0.190318 0.000000
O O12 0.299389 0.500000 0.631752
O O13 0.250000 0.562409 0.750000
O O14 0.098370 0.668125 0.500000
#
# Coordination Sequence:
#
# PCOD9512387 Si02
#       6
#    32   8  32  32  32  32
#     4   9  19  34  54  86 130 173 211 255 318 399
#     4  12  22  40  58  98 146 172 202 274 338 398
#     4  11  22  38  64  95 125 166 218 274 333 389
#     4  11  24  40  65 100 135 177 222 271 331 395
#     4  11  24  46  69  89 124 176 228 281 334 391
#     4  10  20  34  55  91 132 173 216 258 313 391
#
# _framework density 21.064008999999999
#
# number of rings (size 3 to 8) (size 9 to 14) (size 15 to 20)
#    0.000    1.524    2.857    1.429    5.333    4.190 
#    0.000    0.000    0.000    0.571    0.000    5.333 
#    0.000    0.000    0.000    0.000    0.000    0.000 
#
# Total GULP energy -234735.518298 kJ/mol
# GULP energy per Si atom -5588.940912 kJ/mol
# Density = 2.101607 g / cm^3
# Si number density = 21.064009 Si / 1000 Ang^3
#
#
#
# Elastic Constant Matrix: (Units=GPa)
#
#
# Indices 1 2 3 4 5 6 
#
# 1 139.8062 32.8767 3.3791 0.0000 0.0000 0.0000
# 2 32.8767 112.8143 42.8664 0.0000 0.0000 0.0000
# 3 3.3791 42.8664 92.9170 0.0000 0.0000 0.0000
# 4 0.0000 0.0000 0.0000 -15.8121 0.0000 0.0000
# 5 0.0000 0.0000 0.0000 0.0000 17.1281 0.0000
# 6 0.0000 0.0000 0.0000 0.0000 0.0000 4.8065
#
#
#
# Elastic Compliance Matrix: (Units=1/GPa)
#
#
# Indices 1 2 3 4 5 6 
#
# 1 0.007743 -0.002607 0.000921 0.000000 0.000000 0.000000
# 2 -0.002607 0.011626 -0.005269 0.000000 0.000000 0.000000
# 3 0.000921 -0.005269 0.013159 0.000000 0.000000 0.000000
# 4 0.000000 0.000000 0.000000 -0.063243 0.000000 0.000000
# 5 0.000000 0.000000 0.000000 0.000000 0.058384 0.000000
# 6 0.000000 0.000000 0.000000 0.000000 0.000000 0.208052
#
#
# Mechanical properties :
#
#
# Convention : Reuss Voigt Hill
#
# Bulk Modulus (GPa) = 53.70551 55.97574 54.84063
# Shear Modulus (GPa) = 19.54374 18.98553 19.26463
#
# Velocity S-wave (km/s) = 3.04933 3.00547 3.02748
# Velocity P-wave (km/s) = 6.16032 6.21897 6.18971
#
# Compressibility (1/GPa) = 0.01862006
#
# Stress axis : x y z
#
# Youngs Moduli (GPa) = 129.14139 86.01666 75.99114
#
# Poissons Ratio (x) = 0.22421 -0.06998
# Poissons Ratio (y) = 0.33661 0.40037
# Poissons Ratio (z) = -0.11893 0.45319
#
# Static dielectric constant tensor:
#      x y z
#    x 1.810550 0.000000 0.000000 
#    y 0.000000 1.715920 0.000000 
#    z 0.000000 0.000000 1.760630 
# 
# From -- ./inp_files/16856.got.cif
#   From: 2010.05.17/outbox.cif.g08.bks.cpg/sg69_9_cif.got.tgz:16856.got - 2010.06.03 19:29:58.
