data_PCOD9512284
_publ_section_title
;
Structure prediction by ZEFSAII (Michael W. Deem and Ramdas Pophale) SiO2 
 PCOD9512284
Probable space group: F M M M
;
_chemical_formula_sum "Si O2"
_cell_formula_units_Z 176
_cell_length_a 26.858513
_cell_length_b 25.277899
_cell_length_c 13.768225
_cell_angle_alpha 90.000000
_cell_angle_beta 90.000000
_cell_angle_gamma 90.000000
_cell_volume 9347.616650
_symmetry_space_group_name_H-M "F M M M"
_symmetry_group_IT_number 69
_symmetry_cell_setting 'orthorhombic'
loop_
_space_group_symop_operation_xyz
x,y,z
-x,-y,z
x,-y,-z
-x,y,-z
-x,-y,-z
x,y,-z
-x,y,z
x,-y,z
x,1/2+y,1/2+z
-x,1/2-y,1/2+z
x,1/2-y,1/2-z
-x,1/2+y,1/2-z
-x,1/2-y,1/2-z
x,1/2+y,1/2-z
-x,1/2+y,1/2+z
x,1/2-y,1/2+z
1/2+x,y,1/2+z
1/2-x,-y,1/2+z
1/2+x,-y,1/2-z
1/2-x,y,1/2-z
1/2-x,-y,1/2-z
1/2+x,y,1/2-z
1/2-x,y,1/2+z
1/2+x,-y,1/2+z
1/2+x,1/2+y,z
1/2-x,1/2-y,z
1/2+x,1/2-y,-z
1/2-x,1/2+y,-z
1/2-x,1/2-y,-z
1/2+x,1/2+y,-z
1/2-x,1/2+y,z
1/2+x,1/2-y,z
loop_
_atom_site_type_symbol
_atom_site_label
_atom_site_fract_x
_atom_site_fract_y
_atom_site_fract_z
Si Si1 0.250201 0.664911 0.615105
Si Si2 0.000000 0.063704 0.383800
Si Si3 0.189850 0.941450 0.614169
Si Si4 0.400586 0.110551 0.790740
Si Si5 0.135701 0.832117 0.883872
Si Si6 0.851748 0.286692 0.116597
O O1 0.245492 0.675380 0.500000
O O2 0.272435 0.606475 0.630493
O O3 0.193543 0.663356 0.649019
O O4 0.293819 0.704988 0.648628
O O5 0.048131 0.088906 0.332332
O O6 0.000000 0.074810 0.500000
O O7 0.000000 0.000000 0.372669
O O8 0.174548 0.937664 0.500000
O O9 0.142125 0.931213 0.680487
O O10 0.210835 0.000000 0.629629
O O11 0.397005 0.127324 0.678131
O O12 0.383552 0.164748 0.843933
O O13 0.125637 0.770452 0.860668
O O14 0.131913 0.840126 0.000000
O O15 0.850371 0.290623 0.000000
#
# Coordination Sequence:
#
# PCOD9512284 Si02
#       6
#    32  16  32  32  32  32
#     4   8  15  29  50  77 112 154 193 223 255 305
#     4  11  24  44  70  91 103 121 160 226 302 357
#     4   9  17  31  52  78 107 136 171 225 287 331
#     4  11  21  35  56  83 108 134 175 226 280 334
#     4  10  20  34  51  76 116 160 192 215 248 306
#     4   9  17  31  53  82 115 150 186 226 268 309
#
# _framework density 18.828329
#
# number of rings (size 3 to 8) (size 9 to 14) (size 15 to 20)
#    0.000    2.455    0.000    4.364    0.000    6.545 
#    0.000    8.636    0.000    7.091    0.000    0.000 
#    0.000    0.000    0.000    0.000    0.000    0.000 
#
# Total GULP energy -245461.571846 kJ/mol
# GULP energy per Si atom -5578.672087 kJ/mol
# Density = 1.878547 g / cm^3
# Si number density = 18.828329 Si / 1000 Ang^3
#
#
#
# Elastic Constant Matrix: (Units=GPa)
#
#
# Indices 1 2 3 4 5 6 
#
# 1 77.6318 24.7522 32.3628 0.0000 0.0000 0.0000
# 2 24.7522 76.8627 35.9385 0.0000 0.0000 0.0000
# 3 32.3628 35.9385 108.5839 0.0000 0.0000 0.0000
# 4 0.0000 0.0000 0.0000 29.1254 0.0000 0.0000
# 5 0.0000 0.0000 0.0000 0.0000 45.2227 0.0000
# 6 0.0000 0.0000 0.0000 0.0000 0.0000 34.1256
#
#
#
# Elastic Compliance Matrix: (Units=1/GPa)
#
#
# Indices 1 2 3 4 5 6 
#
# 1 0.015396 -0.003327 -0.003487 0.000000 0.000000 0.000000
# 2 -0.003327 0.016111 -0.004341 0.000000 0.000000 0.000000
# 3 -0.003487 -0.004341 0.011686 0.000000 0.000000 0.000000
# 4 0.000000 0.000000 0.000000 0.034334 0.000000 0.000000
# 5 0.000000 0.000000 0.000000 0.000000 0.022113 0.000000
# 6 0.000000 0.000000 0.000000 0.000000 0.000000 0.029304
#
#
# Mechanical properties :
#
#
# Convention : Reuss Voigt Hill
#
# Bulk Modulus (GPa) = 47.88855 49.90951 48.89903
# Shear Modulus (GPa) = 31.60251 33.02973 32.31612
#
# Velocity S-wave (km/s) = 4.10134 4.19293 4.14739
# Velocity P-wave (km/s) = 6.92225 7.07150 6.99727
#
# Compressibility (1/GPa) = 0.02088182
#
# Stress axis : x y z
#
# Youngs Moduli (GPa) = 64.95173 62.06812 85.57584
#
# Poissons Ratio (x) = 0.20653 0.29844
# Poissons Ratio (y) = 0.21612 0.37146
# Poissons Ratio (z) = 0.22651 0.26942
#
# Static dielectric constant tensor:
#      x y z
#    x 1.631280 0.000000 0.000000 
#    y 0.000000 1.664730 0.000000 
#    z 0.000000 0.000000 1.728280 
# 
# From -- ./inp_files/18090.got.cif
#   From: 2010.05.17/outbox.cif.g08.bks.cpg/sg69_10_cif.got.tgz:18090.got - 2010.06.03 19:29:58.
