data_PCOD9512116
_publ_section_title
;
Structure prediction by ZEFSAII (Michael W. Deem and Ramdas Pophale) SiO2 
 PCOD9512116
Probable space group: F M M M
;
_chemical_formula_sum "Si O2"
_cell_formula_units_Z 160
_cell_length_a 10.650760
_cell_length_b 27.478358
_cell_length_c 33.604652
_cell_angle_alpha 90.000000
_cell_angle_beta 90.000000
_cell_angle_gamma 90.000000
_cell_volume 9834.918793
_symmetry_space_group_name_H-M "F M M M"
_symmetry_group_IT_number 69
_symmetry_cell_setting 'orthorhombic'
loop_
_space_group_symop_operation_xyz
x,y,z
-x,-y,z
x,-y,-z
-x,y,-z
-x,-y,-z
x,y,-z
-x,y,z
x,-y,z
x,1/2+y,1/2+z
-x,1/2-y,1/2+z
x,1/2-y,1/2-z
-x,1/2+y,1/2-z
-x,1/2-y,1/2-z
x,1/2+y,1/2-z
-x,1/2+y,1/2+z
x,1/2-y,1/2+z
1/2+x,y,1/2+z
1/2-x,-y,1/2+z
1/2+x,-y,1/2-z
1/2-x,y,1/2-z
1/2-x,-y,1/2-z
1/2+x,y,1/2-z
1/2-x,y,1/2+z
1/2+x,-y,1/2+z
1/2+x,1/2+y,z
1/2-x,1/2-y,z
1/2+x,1/2-y,-z
1/2-x,1/2+y,-z
1/2-x,1/2-y,-z
1/2+x,1/2+y,-z
1/2-x,1/2+y,z
1/2+x,1/2-y,z
loop_
_atom_site_type_symbol
_atom_site_label
_atom_site_fract_x
_atom_site_fract_y
_atom_site_fract_z
Si Si1 0.500000 0.442898 0.045555
Si Si2 0.351049 0.206882 0.452470
Si Si3 0.727931 0.058940 0.842091
Si Si4 0.000000 0.058727 0.283817
Si Si5 0.256111 0.895310 0.423650
Si Si6 0.000000 0.558928 0.692874
Si Si7 0.645947 0.554848 0.500000
O O1 0.500000 0.500000 0.042068
O O2 0.617878 0.426022 0.070301
O O3 0.500000 0.422176 0.000000
O O4 0.347866 0.195906 0.500000
O O5 0.500000 0.216654 0.443146
O O6 0.250000 0.250000 0.445808
O O7 0.298490 0.160249 0.428919
O O8 0.625490 0.071192 0.808354
O O9 0.697330 0.088205 0.882206
O O10 0.869328 0.072212 0.828384
O O11 0.722728 0.000000 0.848858
O O12 0.000000 0.076904 0.238537
O O13 0.000000 0.000000 0.281304
O O14 0.178070 0.913886 0.461335
O O15 0.000000 0.500000 0.693898
O O16 0.707026 0.500000 0.500000
O O17 0.500000 0.547462 0.500000
#
# Coordination Sequence:
#
# PCOD9512116 Si02
#       7
#    16  32  32  16  32  16  16
#     4  11  19  29  49  72  98 136 178 211 251 304
#     4  10  21  39  58  76  99 134 183 235 281 323
#     4  10  20  31  49  77 108 141 177 219 259 311
#     4   9  18  33  50  69 103 146 181 212 256 310
#     4  12  21  35  52  75 106 139 182 224 268 315
#     4   9  17  32  51  73 101 140 179 214 261 314
#     4  11  24  35  46  69 110 158 188 213 253 318
#
# _framework density 16.268563
#
# number of rings (size 3 to 8) (size 9 to 14) (size 15 to 20)
#    0.000    1.600    3.000    3.000    1.400    4.000 
#    0.000    0.000    0.000    0.000    0.000    0.000 
#    0.000    4.800    0.000    0.000    0.000    0.000 
#
# Total GULP energy -222964.585665 kJ/mol
# GULP energy per Si atom -5574.114642 kJ/mol
# Density = 1.623153 g / cm^3
# Si number density = 16.268563 Si / 1000 Ang^3
#
#
#
# Elastic Constant Matrix: (Units=GPa)
#
#
# Indices 1 2 3 4 5 6 
#
# 1 84.3976 27.1230 26.6574 0.0000 0.0000 0.0000
# 2 27.1230 71.9058 26.0405 0.0000 0.0000 0.0000
# 3 26.6574 26.0405 100.2871 0.0000 0.0000 0.0000
# 4 0.0000 0.0000 0.0000 7.9573 0.0000 0.0000
# 5 0.0000 0.0000 0.0000 0.0000 36.8393 0.0000
# 6 0.0000 0.0000 0.0000 0.0000 0.0000 10.5538
#
#
#
# Elastic Compliance Matrix: (Units=1/GPa)
#
#
# Indices 1 2 3 4 5 6 
#
# 1 0.014075 -0.004365 -0.002608 0.000000 0.000000 0.000000
# 2 -0.004365 0.016704 -0.003177 0.000000 0.000000 0.000000
# 3 -0.002608 -0.003177 0.011490 0.000000 0.000000 0.000000
# 4 0.000000 0.000000 0.000000 0.125671 0.000000 0.000000
# 5 0.000000 0.000000 0.000000 0.000000 0.027145 0.000000
# 6 0.000000 0.000000 0.000000 0.000000 0.000000 0.094752
#
#
# Mechanical properties :
#
#
# Convention : Reuss Voigt Hill
#
# Bulk Modulus (GPa) = 45.51861 46.24806 45.88334
# Shear Modulus (GPa) = 15.75004 22.85472 19.30238
#
# Velocity S-wave (km/s) = 3.11485 3.75218 3.44827
# Velocity P-wave (km/s) = 6.40130 6.87470 6.64222
#
# Compressibility (1/GPa) = 0.02196903
#
# Stress axis : x y z
#
# Youngs Moduli (GPa) = 71.04742 59.86570 87.03528
#
# Poissons Ratio (x) = 0.26129 0.22699
# Poissons Ratio (y) = 0.31010 0.27653
# Poissons Ratio (z) = 0.18529 0.19020
#
# Static dielectric constant tensor:
#      x y z
#    x 1.532610 0.000000 0.000000 
#    y 0.000000 1.528010 0.000000 
#    z 0.000000 0.000000 1.753370 
# 
# From -- ./inp_files/45108.got.cif
#   From: 2010.05.17/outbox.cif.g08.bks.cpg/sg69_23_cif.got.tgz:45108.got - 2010.06.03 19:29:58.
