data_PCOD9512598
_publ_section_title
;
Structure prediction by ZEFSAII (Michael W. Deem and Ramdas Pophale) SiO2 
 PCOD9512598
Probable space group: F M M M
;
_chemical_formula_sum "Si O2"
_cell_formula_units_Z 224
_cell_length_a 33.397376
_cell_length_b 19.646358
_cell_length_c 15.378942
_cell_angle_alpha 90.000000
_cell_angle_beta 90.000000
_cell_angle_gamma 90.000000
_cell_volume 10090.689871
_symmetry_space_group_name_H-M "F M M M"
_symmetry_group_IT_number 69
_symmetry_cell_setting 'orthorhombic'
loop_
_space_group_symop_operation_xyz
x,y,z
-x,-y,z
x,-y,-z
-x,y,-z
-x,-y,-z
x,y,-z
-x,y,z
x,-y,z
x,1/2+y,1/2+z
-x,1/2-y,1/2+z
x,1/2-y,1/2-z
-x,1/2+y,1/2-z
-x,1/2-y,1/2-z
x,1/2+y,1/2-z
-x,1/2+y,1/2+z
x,1/2-y,1/2+z
1/2+x,y,1/2+z
1/2-x,-y,1/2+z
1/2+x,-y,1/2-z
1/2-x,y,1/2-z
1/2-x,-y,1/2-z
1/2+x,y,1/2-z
1/2-x,y,1/2+z
1/2+x,-y,1/2+z
1/2+x,1/2+y,z
1/2-x,1/2-y,z
1/2+x,1/2-y,-z
1/2-x,1/2+y,-z
1/2-x,1/2-y,-z
1/2+x,1/2+y,-z
1/2-x,1/2+y,z
1/2+x,1/2-y,z
loop_
_atom_site_type_symbol
_atom_site_label
_atom_site_fract_x
_atom_site_fract_y
_atom_site_fract_z
Si Si1 0.123192 0.711580 0.892799
Si Si2 0.079945 0.842839 0.105132
Si Si3 0.752194 0.421820 0.353697
Si Si4 0.841342 0.077078 0.104449
Si Si5 0.788575 0.212477 0.397605
Si Si6 0.500000 0.921037 0.338127
Si Si7 0.911918 0.076443 0.399117
Si Si8 0.000000 0.922433 0.630971
O O1 0.089126 0.765369 0.867147
O O2 0.167708 0.731923 0.863694
O O3 0.114721 0.635638 0.859674
O O4 0.123307 0.710309 0.000000
O O5 0.119754 0.882936 0.134882
O O6 0.039757 0.880143 0.134724
O O7 0.079002 0.843550 0.000000
O O8 0.747548 0.500000 0.386092
O O9 0.750000 0.423455 0.250000
O O10 0.796875 0.396241 0.376979
O O11 0.720155 0.368034 0.388578
O O12 0.842461 0.000000 0.139088
O O13 0.844506 0.074882 0.000000
O O14 0.789646 0.229682 0.500000
O O15 0.750000 0.250000 0.358201
O O16 0.500000 0.923851 0.234343
O O17 0.500000 0.000000 0.370657
O O18 0.900464 0.069697 0.500000
O O19 0.957337 0.105123 0.397679
O O20 0.911023 0.000000 0.360207
O O21 0.000000 0.000000 0.597352
#
# Coordination Sequence:
#
# PCOD9512598 Si02
#       8
#    32  32  32  32  32  16  32  16
#     4   9  19  34  54  83 110 137 180 229 282 331
#     4  10  20  36  57  81 112 147 185 231 278 332
#     4  10  21  36  54  83 119 152 191 237 288 345
#     4   9  17  32  56  81 107 147 194 234 276 332
#     4  10  20  36  59  83 110 148 192 238 286 339
#     4  11  23  38  57  84 115 147 183 227 283 338
#     4   9  17  33  58  82 105 139 184 228 268 322
#     4   9  19  36  55  78 108 140 175 216 268 327
#
# _framework density 22.19868
#
# number of rings (size 3 to 8) (size 9 to 14) (size 15 to 20)
#    0.000    2.429    0.000    2.143    0.000    6.571 
#    2.571    5.000    0.000    0.000    0.000    0.000 
#    0.000    0.000    0.000    0.000    0.000    0.000 
#
# Total GULP energy -312493.519045 kJ/mol
# GULP energy per Si atom -5580.241412 kJ/mol
# Density = 2.214815 g / cm^3
# Si number density = 22.198680 Si / 1000 Ang^3
#
#
#
# Elastic Constant Matrix: (Units=GPa)
#
#
# Indices 1 2 3 4 5 6 
#
# 1 123.7272 69.5732 8.2872 0.0000 0.0000 0.0000
# 2 69.5732 118.0353 7.3030 0.0000 0.0000 0.0000
# 3 8.2872 7.3030 36.9399 0.0000 0.0000 0.0000
# 4 0.0000 0.0000 0.0000 9.1214 0.0000 0.0000
# 5 0.0000 0.0000 0.0000 0.0000 -130.5443 0.0000
# 6 0.0000 0.0000 0.0000 0.0000 0.0000 39.8928
#
#
#
# Elastic Compliance Matrix: (Units=1/GPa)
#
#
# Indices 1 2 3 4 5 6 
#
# 1 0.012153 -0.007081 -0.001326 0.000000 0.000000 0.000000
# 2 -0.007081 0.012703 -0.000923 0.000000 0.000000 0.000000
# 3 -0.001326 -0.000923 0.027551 0.000000 0.000000 0.000000
# 4 0.000000 0.000000 0.000000 0.109633 0.000000 0.000000
# 5 0.000000 0.000000 0.000000 0.000000 -0.007660 0.000000
# 6 0.000000 0.000000 0.000000 0.000000 0.000000 0.025067
#
#
# Mechanical properties :
#
#
# Convention : Reuss Voigt Hill
#
# Bulk Modulus (GPa) = 29.63308 49.89213 39.76261
# Shear Modulus (GPa) = 23.88272 -3.40343 10.23964
#
# Velocity S-wave (km/s) = 3.28359 -1.23955 2.15006
# Velocity P-wave (km/s) = 5.26820 4.52498 4.91067
#
# Compressibility (1/GPa) = 0.03374607
#
# Stress axis : x y z
#
# Youngs Moduli (GPa) = 82.28410 78.72148 36.29633
#
# Poissons Ratio (x) = 0.55745 0.04815
# Poissons Ratio (y) = 0.58267 0.03349
# Poissons Ratio (z) = 0.10915 0.07264
#
# Static dielectric constant tensor:
#      x y z
#    x 1.816230 0.000000 0.000000 
#    y 0.000000 1.860350 0.000000 
#    z 0.000000 0.000000 1.819010 
# 
# From -- ./inp_files/27971.got.cif
#   From: 2010.05.17/outbox.cif.g08.bks.cpg/sg69_14_cif.got.tgz:27971.got - 2010.06.03 19:29:58.
