data_PCOD9512341
_publ_section_title
;
Structure prediction by ZEFSAII (Michael W. Deem and Ramdas Pophale) SiO2 
 PCOD9512341
Probable space group: F M M M
;
_chemical_formula_sum "Si O2"
_cell_formula_units_Z 144
_cell_length_a 32.232257
_cell_length_b 28.135880
_cell_length_c 9.409627
_cell_angle_alpha 90.000000
_cell_angle_beta 90.000000
_cell_angle_gamma 90.000000
_cell_volume 8533.429964
_symmetry_space_group_name_H-M "F M M M"
_symmetry_group_IT_number 69
_symmetry_cell_setting 'orthorhombic'
loop_
_space_group_symop_operation_xyz
x,y,z
-x,-y,z
x,-y,-z
-x,y,-z
-x,-y,-z
x,y,-z
-x,y,z
x,-y,z
x,1/2+y,1/2+z
-x,1/2-y,1/2+z
x,1/2-y,1/2-z
-x,1/2+y,1/2-z
-x,1/2-y,1/2-z
x,1/2+y,1/2-z
-x,1/2+y,1/2+z
x,1/2-y,1/2+z
1/2+x,y,1/2+z
1/2-x,-y,1/2+z
1/2+x,-y,1/2-z
1/2-x,y,1/2-z
1/2-x,-y,1/2-z
1/2+x,y,1/2-z
1/2-x,y,1/2+z
1/2+x,-y,1/2+z
1/2+x,1/2+y,z
1/2-x,1/2-y,z
1/2+x,1/2-y,-z
1/2-x,1/2+y,-z
1/2-x,1/2-y,-z
1/2+x,1/2+y,-z
1/2-x,1/2+y,z
1/2+x,1/2-y,z
loop_
_atom_site_type_symbol
_atom_site_label
_atom_site_fract_x
_atom_site_fract_y
_atom_site_fract_z
Si Si1 0.293636 0.055872 0.828615
Si Si2 0.000000 0.302031 0.673305
Si Si3 0.286675 0.692041 0.500000
Si Si4 0.811934 0.203247 0.000000
Si Si5 0.919679 0.799669 0.333408
Si Si6 0.838399 0.645523 0.231058
O O1 0.250000 0.066976 0.750000
O O2 0.329685 0.089507 0.764748
O O3 0.301925 0.000000 0.804942
O O4 0.290385 0.062850 0.000000
O O5 0.000000 0.250000 0.750000
O O6 0.042283 0.321889 0.742226
O O7 0.000000 0.301278 0.500000
O O8 0.237831 0.698469 0.500000
O O9 0.314760 0.739863 0.500000
O O10 0.300334 0.663019 0.635116
O O11 0.832248 0.176426 0.870251
O O12 0.930423 0.789452 0.500000
O O13 0.908982 0.750000 0.250000
O O14 0.881585 0.836341 0.332037
#
# Coordination Sequence:
#
# PCOD9512341 Si02
#       6
#    32  16  16  16  32  32
#     4  10  21  38  57  77 102 137 183 234 280 319
#     4  10  20  34  54  78 107 140 179 215 265 320
#     4  11  20  38  47  72 106 144 186 212 261 309
#     4  11  24  32  51  70 108 148 178 222 253 319
#     4  11  21  35  54  77 110 142 180 219 266 322
#     4  12  23  34  53  78 104 142 185 224 270 315
#
# _framework density 16.874808999999999
#
# number of rings (size 3 to 8) (size 9 to 14) (size 15 to 20)
#    0.000    1.111    2.222    7.000    4.667    1.778 
#    0.000    0.000    0.000    0.000    0.000    0.778 
#    0.000    4.444    0.000    0.000    0.000    0.000 
#
# Total GULP energy -200600.852876 kJ/mol
# GULP energy per Si atom -5572.245913 kJ/mol
# Density = 1.683640 g / cm^3
# Si number density = 16.874809 Si / 1000 Ang^3
#
#
#
# Elastic Constant Matrix: (Units=GPa)
#
#
# Indices 1 2 3 4 5 6 
#
# 1 78.6397 34.7147 14.8223 -0.0005 0.0003 0.0001
# 2 34.7147 85.8437 18.9507 -0.0007 0.0006 0.0004
# 3 14.8223 18.9507 99.7637 -0.0039 0.0019 0.0007
# 4 -0.0005 -0.0007 -0.0039 31.1117 0.0006 0.0004
# 5 0.0003 0.0006 0.0019 0.0006 23.1330 -0.0003
# 6 0.0001 0.0004 0.0007 0.0004 -0.0003 20.1699
#
#
#
# Elastic Compliance Matrix: (Units=1/GPa)
#
#
# Indices 1 2 3 4 5 6 
#
# 1 0.015609 -0.006054 -0.001169 0.000000 0.000000 0.000000
# 2 -0.006054 0.014507 -0.001856 0.000000 0.000000 0.000000
# 3 -0.001169 -0.001856 0.010550 0.000001 -0.000001 0.000000
# 4 0.000000 0.000000 0.000001 0.032142 -0.000001 -0.000001
# 5 0.000000 0.000000 -0.000001 -0.000001 0.043228 0.000001
# 6 0.000000 0.000000 0.000000 -0.000001 0.000001 0.049579
#
#
# Mechanical properties :
#
#
# Convention : Reuss Voigt Hill
#
# Bulk Modulus (GPa) = 44.43005 44.58029 44.50517
# Shear Modulus (GPa) = 26.14010 27.93354 27.03682
#
# Velocity S-wave (km/s) = 3.94008 4.07300 4.00709
# Velocity P-wave (km/s) = 6.86188 6.97099 6.91665
#
# Compressibility (1/GPa) = 0.02250729
#
# Stress axis : x y z
#
# Youngs Moduli (GPa) = 64.06510 68.93167 94.78687
#
# Poissons Ratio (x) = 0.41732 0.11081
# Poissons Ratio (y) = 0.38786 0.17595
# Poissons Ratio (z) = 0.07490 0.12795
#
# Static dielectric constant tensor:
#      x y z
#    x 1.613730 0.000000 0.000000 
#    y 0.000000 1.604050 0.000000 
#    z 0.000000 0.000000 1.570970 
# 
# From -- ./inp_files/5637.got.cif
#   From: 2010.05.17/outbox.cif.g08.bks.cpg/sg69_3_cif.got.tgz:5637.got - 2010.06.03 19:29:58.
