data_PCOD9512041
_publ_section_title
;
Structure prediction by ZEFSAII (Michael W. Deem and Ramdas Pophale) SiO2 
 PCOD9512041
Probable space group: F M M M
;
_chemical_formula_sum "Si O2"
_cell_formula_units_Z 192
_cell_length_a 20.492303
_cell_length_b 28.975902
_cell_length_c 15.000552
_cell_angle_alpha 90.000000
_cell_angle_beta 90.000000
_cell_angle_gamma 90.000000
_cell_volume 8907.072220
_symmetry_space_group_name_H-M "F M M M"
_symmetry_group_IT_number 69
_symmetry_cell_setting 'orthorhombic'
loop_
_space_group_symop_operation_xyz
x,y,z
-x,-y,z
x,-y,-z
-x,y,-z
-x,-y,-z
x,y,-z
-x,y,z
x,-y,z
x,1/2+y,1/2+z
-x,1/2-y,1/2+z
x,1/2-y,1/2-z
-x,1/2+y,1/2-z
-x,1/2-y,1/2-z
x,1/2+y,1/2-z
-x,1/2+y,1/2+z
x,1/2-y,1/2+z
1/2+x,y,1/2+z
1/2-x,-y,1/2+z
1/2+x,-y,1/2-z
1/2-x,y,1/2-z
1/2-x,-y,1/2-z
1/2+x,y,1/2-z
1/2-x,y,1/2+z
1/2+x,-y,1/2+z
1/2+x,1/2+y,z
1/2-x,1/2-y,z
1/2+x,1/2-y,-z
1/2-x,1/2+y,-z
1/2-x,1/2-y,-z
1/2+x,1/2+y,-z
1/2-x,1/2+y,z
1/2+x,1/2-y,z
loop_
_atom_site_type_symbol
_atom_site_label
_atom_site_fract_x
_atom_site_fract_y
_atom_site_fract_z
Si Si1 0.500000 0.095648 0.900868
Si Si2 0.373919 0.609754 0.151012
Si Si3 0.857679 0.626439 0.140947
Si Si4 0.316346 0.271596 0.605880
Si Si5 0.748219 0.446762 0.640863
Si Si6 0.500000 0.945895 0.296123
Si Si7 0.072334 0.207366 0.896379
O O1 0.567744 0.124065 0.892885
O O2 0.500000 0.064751 0.810801
O O3 0.500000 0.073644 0.000000
O O4 0.358227 0.624044 0.252383
O O5 0.312385 0.581907 0.113358
O O6 0.436480 0.576794 0.159896
O O7 0.394149 0.657293 0.105610
O O8 0.822981 0.673849 0.115855
O O9 0.815479 0.581970 0.111920
O O10 0.315742 0.261864 0.500000
O O11 0.250000 0.250000 0.643097
O O12 0.379214 0.245112 0.643888
O O13 0.748220 0.500000 0.611638
O O14 0.750000 0.447716 0.750000
O O15 0.500000 0.000000 0.308938
O O16 0.000000 0.204836 0.854962
O O17 0.064260 0.219678 0.000000
#
# Coordination Sequence:
#
# PCOD9512041 Si02
#       7
#    16  32  32  32  32  16  32
#     4  10  22  37  55  80 114 157 193 232 286 337
#     4  10  19  36  58  86 115 147 189 237 291 338
#     4  10  21  35  57  86 116 148 193 242 284 337
#     4  10  21  37  57  82 113 152 193 232 284 344
#     4   9  18  34  57  83 113 150 189 232 284 338
#     4  10  20  35  58  87 117 150 194 238 283 344
#     4  10  21  37  58  82 111 149 187 228 285 351
#
# _framework density 21.555904000000002
#
# number of rings (size 3 to 8) (size 9 to 14) (size 15 to 20)
#    0.000    2.167    0.833    2.000    1.167    4.833 
#    0.000    2.500    0.000    6.000    0.000    0.000 
#    0.000    0.000    0.000    0.000    0.000    0.000 
#
# Total GULP energy -268027.876150 kJ/mol
# GULP energy per Si atom -5583.914086 kJ/mol
# Density = 2.150684 g / cm^3
# Si number density = 21.555904 Si / 1000 Ang^3
#
#
#
# Elastic Constant Matrix: (Units=GPa)
#
#
# Indices 1 2 3 4 5 6 
#
# 1 160.6670 63.4206 15.1989 0.0000 0.0000 0.0000
# 2 63.4206 116.2992 -1.3555 0.0000 0.0000 0.0000
# 3 15.1989 -1.3555 46.7323 0.0000 0.0000 0.0000
# 4 0.0000 0.0000 0.0000 13.2169 0.0000 0.0000
# 5 0.0000 0.0000 0.0000 0.0000 -1.5861 0.0000
# 6 0.0000 0.0000 0.0000 0.0000 0.0000 21.6473
#
#
#
# Elastic Compliance Matrix: (Units=1/GPa)
#
#
# Indices 1 2 3 4 5 6 
#
# 1 0.008289 -0.004553 -0.002828 0.000000 0.000000 0.000000
# 2 -0.004553 0.011102 0.001803 0.000000 0.000000 0.000000
# 3 -0.002828 0.001803 0.022370 0.000000 0.000000 0.000000
# 4 0.000000 0.000000 0.000000 0.075661 0.000000 0.000000
# 5 0.000000 0.000000 0.000000 0.000000 -0.630490 0.000000
# 6 0.000000 0.000000 0.000000 0.000000 0.000000 0.046195
#
#
# Mechanical properties :
#
#
# Convention : Reuss Voigt Hill
#
# Bulk Modulus (GPa) = 32.67383 53.13628 42.90505
# Shear Modulus (GPa) = -11.22298 23.08458 5.93080
#
# Velocity S-wave (km/s) = -2.28424 3.27604 1.66052
# Velocity P-wave (km/s) = 2.86943 6.24611 4.86043
#
# Compressibility (1/GPa) = 0.03060553
#
# Stress axis : x y z
#
# Youngs Moduli (GPa) = 120.64481 90.07069 44.70179
#
# Poissons Ratio (x) = 0.41009 0.12641
# Poissons Ratio (y) = 0.54930 -0.08059
# Poissons Ratio (z) = 0.34117 -0.16238
#
# Static dielectric constant tensor:
#      x y z
#    x 1.886120 0.000000 0.000000 
#    y 0.000000 1.721100 0.000000 
#    z 0.000000 0.000000 1.812010 
# 
# From -- ./inp_files/23689.got.cif
#   From: 2010.05.17/outbox.cif.g08.bks.cpg/sg69_12_cif.got.tgz:23689.got - 2010.06.03 19:29:58.
