data_PCOD9512184
_publ_section_title
;
Structure prediction by ZEFSAII (Michael W. Deem and Ramdas Pophale) SiO2 
 PCOD9512184
Probable space group: F M M M
;
_chemical_formula_sum "Si O2"
_cell_formula_units_Z 160
_cell_length_a 34.916016
_cell_length_b 28.387749
_cell_length_c 8.498023
_cell_angle_alpha 90.000000
_cell_angle_beta 90.000000
_cell_angle_gamma 90.000000
_cell_volume 8423.130759
_symmetry_space_group_name_H-M "F M M M"
_symmetry_group_IT_number 69
_symmetry_cell_setting 'orthorhombic'
loop_
_space_group_symop_operation_xyz
x,y,z
-x,-y,z
x,-y,-z
-x,y,-z
-x,-y,-z
x,y,-z
-x,y,z
x,-y,z
x,1/2+y,1/2+z
-x,1/2-y,1/2+z
x,1/2-y,1/2-z
-x,1/2+y,1/2-z
-x,1/2-y,1/2-z
x,1/2+y,1/2-z
-x,1/2+y,1/2+z
x,1/2-y,1/2+z
1/2+x,y,1/2+z
1/2-x,-y,1/2+z
1/2+x,-y,1/2-z
1/2-x,y,1/2-z
1/2-x,-y,1/2-z
1/2+x,y,1/2-z
1/2-x,y,1/2+z
1/2+x,-y,1/2+z
1/2+x,1/2+y,z
1/2-x,1/2-y,z
1/2+x,1/2-y,-z
1/2-x,1/2+y,-z
1/2-x,1/2-y,-z
1/2+x,1/2+y,-z
1/2-x,1/2+y,z
1/2+x,1/2-y,z
loop_
_atom_site_type_symbol
_atom_site_label
_atom_site_fract_x
_atom_site_fract_y
_atom_site_fract_z
Si Si1 0.000000 0.303872 0.190183
Si Si2 0.500000 0.942833 0.320545
Si Si3 0.080488 0.443659 0.822397
Si Si4 0.084557 0.196874 0.312225
Si Si5 0.206775 0.946760 0.190686
Si Si6 0.859330 0.880186 0.818602
O O1 0.000000 0.250000 0.250000
O O2 0.042189 0.321645 0.242774
O O3 0.000000 0.305773 0.000000
O O4 0.500000 0.925147 0.500000
O O5 0.462280 0.929890 0.225378
O O6 0.500000 0.000000 0.329283
O O7 0.082849 0.500000 0.820471
O O8 0.109639 0.421718 0.700102
O O9 0.089232 0.427043 0.000000
O O10 0.083596 0.198389 0.500000
O O11 0.089095 0.250000 0.250000
O O12 0.119532 0.163857 0.260387
O O13 0.250000 0.940712 0.250000
O O14 0.179072 0.904803 0.247528
O O15 0.194103 0.000000 0.239331
O O16 0.206224 0.946008 0.000000
O O17 0.852644 0.868258 0.000000
#
# Coordination Sequence:
#
# PCOD9512184 Si02
#       6
#    16  16  32  32  32  32
#     4   8  16  31  52  75 101 135 176 223 270 314
#     4   9  17  30  47  66  94 136 179 218 263 314
#     4  10  20  33  49  71 101 137 177 220 263 311
#     4  10  20  36  56  79 108 143 184 230 278 324
#     4   9  19  36  58  83 111 142 176 217 266 323
#     4  11  22  35  53  79 109 141 177 218 268 325
#
# _framework density 18.995312999999999
#
# number of rings (size 3 to 8) (size 9 to 14) (size 15 to 20)
#    0.000    2.300    0.000    2.700    0.000    6.400 
#    0.000    5.000    0.000    0.600    0.000    4.200 
#    0.000    0.000    0.000    0.000    0.000    0.000 
#
# Total GULP energy -223064.848363 kJ/mol
# GULP energy per Si atom -5576.621209 kJ/mol
# Density = 1.895208 g / cm^3
# Si number density = 18.995313 Si / 1000 Ang^3
#
#
#
# Elastic Constant Matrix: (Units=GPa)
#
#
# Indices 1 2 3 4 5 6 
#
# 1 109.4166 58.7244 7.1839 -0.0010 0.0008 -0.0002
# 2 58.7244 112.5531 20.9757 -0.0015 0.0022 0.0004
# 3 7.1839 20.9757 28.3478 -0.0013 0.0049 -0.0023
# 4 -0.0010 -0.0015 -0.0013 24.9518 0.0028 -0.0006
# 5 0.0008 0.0022 0.0049 0.0028 25.0783 0.0009
# 6 -0.0002 0.0004 -0.0023 -0.0006 0.0009 45.3924
#
#
#
# Elastic Compliance Matrix: (Units=1/GPa)
#
#
# Indices 1 2 3 4 5 6 
#
# 1 0.012788 -0.007039 0.001968 0.000000 0.000000 0.000000
# 2 -0.007039 0.014180 -0.008709 0.000000 0.000001 -0.000001
# 3 0.001968 -0.008709 0.041221 0.000002 -0.000007 0.000002
# 4 0.000000 0.000000 0.000002 0.040077 -0.000004 0.000001
# 5 0.000000 0.000001 -0.000007 -0.000004 0.039875 -0.000001
# 6 0.000000 -0.000001 0.000002 0.000001 -0.000001 0.022030
#
#
# Mechanical properties :
#
#
# Convention : Reuss Voigt Hill
#
# Bulk Modulus (GPa) = 24.61256 47.12062 35.86659
# Shear Modulus (GPa) = 23.66583 29.98007 26.82295
#
# Velocity S-wave (km/s) = 3.53353 3.97708 3.76185
# Velocity P-wave (km/s) = 5.44363 6.77863 6.14747
#
# Compressibility (1/GPa) = 0.04062967
#
# Stress axis : x y z
#
# Youngs Moduli (GPa) = 78.19866 70.52110 24.25922
#
# Poissons Ratio (x) = 0.49638 -0.04773
# Poissons Ratio (y) = 0.55042 0.21127
# Poissons Ratio (z) = -0.15386 0.61415
#
# Static dielectric constant tensor:
#      x y z
#    x 1.667030 0.000000 0.000000 
#    y 0.000000 1.671270 0.000000 
#    z 0.000000 0.000000 1.678770 
# 
# From -- ./inp_files/5793.got.cif
#   From: 2010.05.17/outbox.cif.g08.bks.cpg/sg69_3_cif.got.tgz:5793.got - 2010.06.03 19:29:58.
