data_PCOD9512155
_publ_section_title
;
Structure prediction by ZEFSAII (Michael W. Deem and Ramdas Pophale) SiO2 
 PCOD9512155
Probable space group: F M M M
;
_chemical_formula_sum "Si O2"
_cell_formula_units_Z 160
_cell_length_a 17.313369
_cell_length_b 18.328376
_cell_length_c 27.625881
_cell_angle_alpha 90.000000
_cell_angle_beta 90.000000
_cell_angle_gamma 90.000000
_cell_volume 8766.408570
_symmetry_space_group_name_H-M "F M M M"
_symmetry_group_IT_number 69
_symmetry_cell_setting 'orthorhombic'
loop_
_space_group_symop_operation_xyz
x,y,z
-x,-y,z
x,-y,-z
-x,y,-z
-x,-y,-z
x,y,-z
-x,y,z
x,-y,z
x,1/2+y,1/2+z
-x,1/2-y,1/2+z
x,1/2-y,1/2-z
-x,1/2+y,1/2-z
-x,1/2-y,1/2-z
x,1/2+y,1/2-z
-x,1/2+y,1/2+z
x,1/2-y,1/2+z
1/2+x,y,1/2+z
1/2-x,-y,1/2+z
1/2+x,-y,1/2-z
1/2-x,y,1/2-z
1/2-x,-y,1/2-z
1/2+x,y,1/2-z
1/2-x,y,1/2+z
1/2+x,-y,1/2+z
1/2+x,1/2+y,z
1/2-x,1/2-y,z
1/2+x,1/2-y,-z
1/2-x,1/2+y,-z
1/2-x,1/2-y,-z
1/2+x,1/2+y,-z
1/2-x,1/2+y,z
1/2+x,1/2-y,z
loop_
_atom_site_type_symbol
_atom_site_label
_atom_site_fract_x
_atom_site_fract_y
_atom_site_fract_z
Si Si1 0.586156 0.745040 0.692842
Si Si2 0.088886 0.000000 0.130962
Si Si3 0.872030 0.841850 0.111236
Si Si4 0.196702 0.859680 0.635924
Si Si5 0.255949 0.000000 0.308168
Si Si6 0.590469 0.305942 0.444299
O O1 0.500000 0.715525 0.681403
O O2 0.592857 0.750000 0.750000
O O3 0.594161 0.821042 0.664229
O O4 0.654506 0.696517 0.671638
O O5 0.103684 0.924926 0.101253
O O6 0.154985 0.000000 0.172745
O O7 0.000000 0.000000 0.147664
O O8 0.779905 0.836403 0.115732
O O9 0.899409 0.776919 0.076142
O O10 0.139530 0.859414 0.589994
O O11 0.214268 0.931049 0.667173
O O12 0.250000 0.000000 0.250000
O O13 0.615519 0.309026 0.500000
O O14 0.500000 0.323584 0.441513
#
# Coordination Sequence:
#
# PCOD9512155 Si02
#       6
#    32  16  32  32  16  32
#     4  10  20  32  50  77 108 143 192 241 285 341
#     4  10  20  36  57  78 114 154 189 230 289 347
#     4  10  20  34  54  81 111 148 191 236 285 348
#     4  10  21  36  56  79 112 152 189 239 289 347
#     4  10  24  40  55  84 117 153 194 237 287 349
#     4  10  20  37  61  87 115 148 192 245 296 346
#
# _framework density 18.251487000000001
#
# number of rings (size 3 to 8) (size 9 to 14) (size 15 to 20)
#    0.000    2.000    0.000    6.000    5.600    2.400 
#    0.000    4.000    0.000    6.600    0.000    0.000 
#    0.000    0.000    0.000    0.000    0.000    0.000 
#
# Total GULP energy -222940.629381 kJ/mol
# GULP energy per Si atom -5573.515735 kJ/mol
# Density = 1.820995 g / cm^3
# Si number density = 18.251487 Si / 1000 Ang^3
#
#
#
# Elastic Constant Matrix: (Units=GPa)
#
#
# Indices 1 2 3 4 5 6 
#
# 1 123.3858 40.3498 32.7499 0.0000 0.0000 0.0000
# 2 40.3498 85.8750 27.6045 0.0000 0.0000 0.0000
# 3 32.7499 27.6045 120.5333 0.0000 0.0000 0.0000
# 4 0.0000 0.0000 0.0000 11.1456 0.0000 0.0000
# 5 0.0000 0.0000 0.0000 0.0000 20.8855 0.0000
# 6 0.0000 0.0000 0.0000 0.0000 0.0000 7.7995
#
#
#
# Elastic Compliance Matrix: (Units=1/GPa)
#
#
# Indices 1 2 3 4 5 6 
#
# 1 0.009909 -0.004091 -0.001755 0.000000 0.000000 0.000000
# 2 -0.004091 0.014260 -0.002154 0.000000 0.000000 0.000000
# 3 -0.001755 -0.002154 0.009267 0.000000 0.000000 0.000000
# 4 0.000000 0.000000 0.000000 0.089722 0.000000 0.000000
# 5 0.000000 0.000000 0.000000 0.000000 0.047880 0.000000
# 6 0.000000 0.000000 0.000000 0.000000 0.000000 0.128213
#
#
# Mechanical properties :
#
#
# Convention : Reuss Voigt Hill
#
# Bulk Modulus (GPa) = 57.36102 59.02250 58.19176
# Shear Modulus (GPa) = 15.57330 23.23878 19.40604
#
# Velocity S-wave (km/s) = 2.92423 3.57214 3.26430
# Velocity P-wave (km/s) = 6.54965 7.03009 6.79412
#
# Compressibility (1/GPa) = 0.01743344
#
# Stress axis : x y z
#
# Youngs Moduli (GPa) = 100.92303 70.12765 107.91345
#
# Poissons Ratio (x) = 0.28693 0.18941
# Poissons Ratio (y) = 0.41293 0.23245
# Poissons Ratio (z) = 0.17714 0.15106
#
# Static dielectric constant tensor:
#      x y z
#    x 1.639890 0.000000 0.000000 
#    y 0.000000 1.668600 0.000000 
#    z 0.000000 0.000000 1.619900 
# 
# From -- ./inp_files/27529.got.cif
#   From: 2010.05.17/outbox.cif.g08.bks.cpg/sg69_14_cif.got.tgz:27529.got - 2010.06.03 19:29:58.
