data_PCOD9512679
_publ_section_title
;
Structure prediction by ZEFSAII (Michael W. Deem and Ramdas Pophale) SiO2 
 PCOD9512679
Probable space group: F M M M
;
_chemical_formula_sum "Si O2"
_cell_formula_units_Z 176
_cell_length_a 20.255840
_cell_length_b 23.791742
_cell_length_c 18.720905
_cell_angle_alpha 90.000000
_cell_angle_beta 90.000000
_cell_angle_gamma 90.000000
_cell_volume 9022.010724
_symmetry_space_group_name_H-M "F M M M"
_symmetry_group_IT_number 69
_symmetry_cell_setting 'orthorhombic'
loop_
_space_group_symop_operation_xyz
x,y,z
-x,-y,z
x,-y,-z
-x,y,-z
-x,-y,-z
x,y,-z
-x,y,z
x,-y,z
x,1/2+y,1/2+z
-x,1/2-y,1/2+z
x,1/2-y,1/2-z
-x,1/2+y,1/2-z
-x,1/2-y,1/2-z
x,1/2+y,1/2-z
-x,1/2+y,1/2+z
x,1/2-y,1/2+z
1/2+x,y,1/2+z
1/2-x,-y,1/2+z
1/2+x,-y,1/2-z
1/2-x,y,1/2-z
1/2-x,-y,1/2-z
1/2+x,y,1/2-z
1/2-x,y,1/2+z
1/2+x,-y,1/2+z
1/2+x,1/2+y,z
1/2-x,1/2-y,z
1/2+x,1/2-y,-z
1/2-x,1/2+y,-z
1/2-x,1/2-y,-z
1/2+x,1/2+y,-z
1/2-x,1/2+y,z
1/2+x,1/2-y,z
loop_
_atom_site_type_symbol
_atom_site_label
_atom_site_fract_x
_atom_site_fract_y
_atom_site_fract_z
Si Si1 0.000000 0.176749 0.413881
Si Si2 0.866894 0.612266 0.081418
Si Si3 0.326318 0.936058 0.226233
Si Si4 0.878515 0.619316 0.355201
Si Si5 0.240185 0.188832 0.918479
Si Si6 0.000000 0.192279 0.912821
Si Si7 0.076667 0.500000 0.585509
O O1 0.934931 0.141555 0.395196
O O2 0.000000 0.180057 0.500000
O O3 0.000000 0.241977 0.390831
O O4 0.840473 0.571027 0.142525
O O5 0.811022 0.659972 0.078420
O O6 0.873914 0.589492 0.000000
O O7 0.250000 0.926814 0.250000
O O8 0.371144 0.893176 0.271229
O O9 0.342435 0.000000 0.246713
O O10 0.811173 0.648588 0.380095
O O11 0.936949 0.659631 0.381308
O O12 0.889232 0.557733 0.389725
O O13 0.250000 0.250000 0.884881
O O14 0.215211 0.196883 0.000000
O O15 0.000000 0.188329 0.000000
O O16 0.076041 0.500000 0.500000
O O17 0.000000 0.500000 0.610719
#
# Coordination Sequence:
#
# PCOD9512679 Si02
#       7
#    16  32  32  32  32  16  16
#     4   9  20  41  66  93 127 169 210 266 322 370
#     4  10  21  41  67  92 119 162 220 266 315 384
#     4  11  24  44  63  89 129 167 206 269 336 381
#     4  12  22  38  60  93 130 173 211 255 323 386
#     4  10  20  36  60  91 125 163 211 262 311 371
#     4  11  22  38  64  97 136 173 207 251 318 397
#     4  11  22  38  59  92 137 172 213 256 301 388
#
# _framework density 19.507847000000002
#
# number of rings (size 3 to 8) (size 9 to 14) (size 15 to 20)
#    0.000    1.364    3.636    2.727    0.000    4.000 
#    0.000    6.818    0.000    1.636    0.000    0.000 
#    0.000    0.000    0.000    0.000    0.000    0.000 
#
# Total GULP energy -245503.779283 kJ/mol
# GULP energy per Si atom -5579.631347 kJ/mol
# Density = 1.946345 g / cm^3
# Si number density = 19.507847 Si / 1000 Ang^3
#
#
#
# Elastic Constant Matrix: (Units=GPa)
#
#
# Indices 1 2 3 4 5 6 
#
# 1 118.3561 46.3403 34.3098 0.0000 0.0000 0.0000
# 2 46.3403 89.9159 34.5138 0.0000 0.0000 0.0000
# 3 34.3098 34.5138 97.0872 0.0000 0.0000 0.0000
# 4 0.0000 0.0000 0.0000 2.1029 0.0000 0.0000
# 5 0.0000 0.0000 0.0000 0.0000 9.2937 0.0000
# 6 0.0000 0.0000 0.0000 0.0000 0.0000 1.1226
#
#
#
# Elastic Compliance Matrix: (Units=1/GPa)
#
#
# Indices 1 2 3 4 5 6 
#
# 1 0.010963 -0.004821 -0.002160 0.000000 0.000000 0.000000
# 2 -0.004821 0.014999 -0.003628 0.000000 0.000000 0.000000
# 3 -0.002160 -0.003628 0.012353 0.000000 0.000000 0.000000
# 4 0.000000 0.000000 0.000000 0.475538 0.000000 0.000000
# 5 0.000000 0.000000 0.000000 0.000000 0.107600 0.000000
# 6 0.000000 0.000000 0.000000 0.000000 0.000000 0.890763
#
#
# Mechanical properties :
#
#
# Convention : Reuss Voigt Hill
#
# Bulk Modulus (GPa) = 58.49348 59.52077 59.00713
# Shear Modulus (GPa) = 3.24858 15.18352 9.21605
#
# Velocity S-wave (km/s) = 1.29185 2.79288 2.17590
# Velocity P-wave (km/s) = 5.68110 6.40138 6.05196
#
# Compressibility (1/GPa) = 0.01709592
#
# Stress axis : x y z
#
# Youngs Moduli (GPa) = 91.21747 66.67257 80.94969
#
# Poissons Ratio (x) = 0.32141 0.17489
# Poissons Ratio (y) = 0.43973 0.29371
# Poissons Ratio (z) = 0.19707 0.24191
#
# Static dielectric constant tensor:
#      x y z
#    x 1.711900 0.000000 0.000000 
#    y 0.000000 1.659770 0.000000 
#    z 0.000000 0.000000 1.713300 
# 
# From -- ./inp_files/23327.got.cif
#   From: 2010.05.17/outbox.cif.g08.bks.cpg/sg69_12_cif.got.tgz:23327.got - 2010.06.03 19:29:58.
