data_PCOD9512669
_publ_section_title
;
Structure prediction by ZEFSAII (Michael W. Deem and Ramdas Pophale) SiO2 
 PCOD9512669
Probable space group: F M M M
;
_chemical_formula_sum "Si O2"
_cell_formula_units_Z 176
_cell_length_a 10.044780
_cell_length_b 27.625295
_cell_length_c 29.938351
_cell_angle_alpha 90.000000
_cell_angle_beta 90.000000
_cell_angle_gamma 90.000000
_cell_volume 8307.593340
_symmetry_space_group_name_H-M "F M M M"
_symmetry_group_IT_number 69
_symmetry_cell_setting 'orthorhombic'
loop_
_space_group_symop_operation_xyz
x,y,z
-x,-y,z
x,-y,-z
-x,y,-z
-x,-y,-z
x,y,-z
-x,y,z
x,-y,z
x,1/2+y,1/2+z
-x,1/2-y,1/2+z
x,1/2-y,1/2-z
-x,1/2+y,1/2-z
-x,1/2-y,1/2-z
x,1/2+y,1/2-z
-x,1/2+y,1/2+z
x,1/2-y,1/2+z
1/2+x,y,1/2+z
1/2-x,-y,1/2+z
1/2+x,-y,1/2-z
1/2-x,y,1/2-z
1/2-x,-y,1/2-z
1/2+x,y,1/2-z
1/2-x,y,1/2+z
1/2+x,-y,1/2+z
1/2+x,1/2+y,z
1/2-x,1/2-y,z
1/2+x,1/2-y,-z
1/2-x,1/2+y,-z
1/2-x,1/2-y,-z
1/2+x,1/2+y,-z
1/2-x,1/2+y,z
1/2+x,1/2-y,z
loop_
_atom_site_type_symbol
_atom_site_label
_atom_site_fract_x
_atom_site_fract_y
_atom_site_fract_z
Si Si1 0.500000 0.057812 0.450721
Si Si2 0.147552 0.341603 0.074674
Si Si3 0.777558 0.055861 0.596713
Si Si4 0.250000 0.134120 0.250000
Si Si5 0.652735 0.295338 0.672726
Si Si6 0.835296 0.300145 0.500000
Si Si7 0.647157 0.945934 0.688631
O O1 0.500000 0.080667 0.500000
O O2 0.365981 0.067339 0.424525
O O3 0.500000 0.000000 0.455809
O O4 0.138924 0.399578 0.078949
O O5 0.171022 0.320460 0.124373
O O6 0.270417 0.326838 0.043103
O O7 0.000000 0.323733 0.059304
O O8 0.756802 0.059102 0.650033
O O9 0.815110 0.000000 0.585975
O O10 0.318114 0.167419 0.212736
O O11 0.344055 0.096893 0.276348
O O12 0.500000 0.279016 0.675583
O O13 0.750000 0.250000 0.676684
O O14 0.500000 0.203251 0.500000
O O15 0.750000 0.250000 0.500000
O O16 0.500000 0.944654 0.667457
O O17 0.660386 0.000000 0.708166
#
# Coordination Sequence:
#
# PCOD9512669 Si02
#       7
#    16  32  32  16  32  16  32
#     4   9  18  32  56  92 134 169 216 276 322 382
#     4  11  25  46  70 102 142 181 224 278 338 407
#     4  10  20  37  62  94 136 183 225 271 330 398
#     4  12  22  40  64  94 128 176 228 284 342 404
#     4  11  26  46  67  95 130 173 225 283 347 408
#     4  12  28  50  79 110 137 175 225 280 342 405
#     4  10  20  36  59  91 132 177 226 278 333 403
#
# _framework density 21.185438000000001
#
# number of rings (size 3 to 8) (size 9 to 14) (size 15 to 20)
#    0.000    1.364    2.727    2.455    2.545    4.727 
#    0.000    0.000    0.000    1.091    0.000    0.000 
#    0.000    0.000    0.000    0.000    0.000    0.000 
#
# Total GULP energy -245463.753292 kJ/mol
# GULP energy per Si atom -5578.721666 kJ/mol
# Density = 2.113722 g / cm^3
# Si number density = 21.185438 Si / 1000 Ang^3
#
#
#
# Elastic Constant Matrix: (Units=GPa)
#
#
# Indices 1 2 3 4 5 6 
#
# 1 144.7309 62.9463 57.9161 0.0000 0.0000 0.0000
# 2 62.9463 152.9434 48.7257 0.0000 0.0000 0.0000
# 3 57.9161 48.7257 110.6944 0.0000 0.0000 0.0000
# 4 0.0000 0.0000 0.0000 26.9207 0.0000 0.0000
# 5 0.0000 0.0000 0.0000 0.0000 -27.3701 0.0000
# 6 0.0000 0.0000 0.0000 0.0000 0.0000 -124.9804
#
#
#
# Elastic Compliance Matrix: (Units=1/GPa)
#
#
# Indices 1 2 3 4 5 6 
#
# 1 0.009637 -0.002745 -0.003834 0.000000 0.000000 0.000000
# 2 -0.002745 0.008387 -0.002255 0.000000 0.000000 0.000000
# 3 -0.003834 -0.002255 0.012033 0.000000 0.000000 0.000000
# 4 0.000000 0.000000 0.000000 0.037146 0.000000 0.000000
# 5 0.000000 0.000000 0.000000 0.000000 -0.036536 0.000000
# 6 0.000000 0.000000 0.000000 0.000000 0.000000 -0.008001
#
#
# Mechanical properties :
#
#
# Convention : Reuss Voigt Hill
#
# Bulk Modulus (GPa) = 80.72472 83.06053 81.89263
# Shear Modulus (GPa) = 112.45080 -9.16725 51.64177
#
# Velocity S-wave (km/s) = 7.29346 -2.08244 4.94257
# Velocity P-wave (km/s) = 10.44570 5.78874 8.44459
#
# Compressibility (1/GPa) = 0.01238778
#
# Stress axis : x y z
#
# Youngs Moduli (GPa) = 103.76142 119.23687 83.10661
#
# Poissons Ratio (x) = 0.32730 0.31864
# Poissons Ratio (y) = 0.28482 0.18744
# Poissons Ratio (z) = 0.39783 0.26894
#
# Static dielectric constant tensor:
#      x y z
#    x 1.894230 0.000000 0.000000 
#    y 0.000000 1.772940 0.000000 
#    z 0.000000 0.000000 1.773920 
# 
# From -- ./inp_files/45150.got.cif
#   From: 2010.05.17/outbox.cif.g08.bks.cpg/sg69_23_cif.got.tgz:45150.got - 2010.06.03 19:29:58.
