data_PCOD9512820
_publ_section_title
;
Structure prediction by ZEFSAII (Michael W. Deem and Ramdas Pophale) SiO2 
 PCOD9512820
Probable space group: F M M M
;
_chemical_formula_sum "Si O2"
_cell_formula_units_Z 160
_cell_length_a 27.109440
_cell_length_b 14.652905
_cell_length_c 21.191870
_cell_angle_alpha 90.000000
_cell_angle_beta 90.000000
_cell_angle_gamma 90.000000
_cell_volume 8418.089941
_symmetry_space_group_name_H-M "F M M M"
_symmetry_group_IT_number 69
_symmetry_cell_setting 'orthorhombic'
loop_
_space_group_symop_operation_xyz
x,y,z
-x,-y,z
x,-y,-z
-x,y,-z
-x,-y,-z
x,y,-z
-x,y,z
x,-y,z
x,1/2+y,1/2+z
-x,1/2-y,1/2+z
x,1/2-y,1/2-z
-x,1/2+y,1/2-z
-x,1/2-y,1/2-z
x,1/2+y,1/2-z
-x,1/2+y,1/2+z
x,1/2-y,1/2+z
1/2+x,y,1/2+z
1/2-x,-y,1/2+z
1/2+x,-y,1/2-z
1/2-x,y,1/2-z
1/2-x,-y,1/2-z
1/2+x,y,1/2-z
1/2-x,y,1/2+z
1/2+x,-y,1/2+z
1/2+x,1/2+y,z
1/2-x,1/2-y,z
1/2+x,1/2-y,-z
1/2-x,1/2+y,-z
1/2-x,1/2-y,-z
1/2+x,1/2+y,-z
1/2-x,1/2+y,z
1/2+x,1/2-y,z
loop_
_atom_site_type_symbol
_atom_site_label
_atom_site_fract_x
_atom_site_fract_y
_atom_site_fract_z
Si Si1 0.808717 0.757760 0.855571
Si Si2 0.940220 0.000000 0.735315
Si Si3 0.560038 0.500000 0.885193
Si Si4 0.440726 0.194052 0.188256
Si Si5 0.898801 0.804967 0.071663
Si Si6 0.809649 0.895867 0.743450
O O1 0.750000 0.750000 0.866687
O O2 0.841051 0.783768 0.915798
O O3 0.822822 0.836889 0.805026
O O4 0.821302 0.663749 0.818649
O O5 0.929745 0.000000 0.809984
O O6 0.923854 0.091267 0.700494
O O7 0.000000 0.000000 0.732676
O O8 0.500000 0.500000 0.894040
O O9 0.584069 0.408640 0.914025
O O10 0.500000 0.195258 0.188181
O O11 0.424573 0.250000 0.250000
O O12 0.423893 0.241751 0.124527
O O13 0.912342 0.782926 0.000000
O O14 0.750000 0.899077 0.750000
O O15 0.827507 0.000000 0.742989
#
# Coordination Sequence:
#
# PCOD9512820 Si02
#       6
#    32  16  16  32  32  32
#     4   9  20  37  56  86 121 158 205 252 306 369
#     4   9  18  35  63  96 119 148 200 254 312 372
#     4  11  23  42  67  96 130 161 205 274 329 378
#     4  10  20  38  63  90 120 156 202 255 311 374
#     4  12  26  40  59  91 127 169 211 248 313 385
#     4   8  15  31  58  88 116 148 196 259 316 360
#
# _framework density 19.006686999999999
#
# number of rings (size 3 to 8) (size 9 to 14) (size 15 to 20)
#    0.000    2.200    2.000    2.100    4.200    2.400 
#    1.800    0.500    0.000    1.800    0.000    0.000 
#    0.000    0.000    0.000    0.000    0.000    0.000 
#
# Total GULP energy -223301.042251 kJ/mol
# GULP energy per Si atom -5582.526056 kJ/mol
# Density = 1.896343 g / cm^3
# Si number density = 19.006687 Si / 1000 Ang^3
#
#
#
# Elastic Constant Matrix: (Units=GPa)
#
#
# Indices 1 2 3 4 5 6 
#
# 1 96.7009 37.2858 32.1588 0.0000 0.0000 0.0000
# 2 37.2858 169.5888 74.3072 0.0000 0.0000 0.0000
# 3 32.1588 74.3072 141.4075 0.0000 0.0000 0.0000
# 4 0.0000 0.0000 0.0000 16.8029 0.0000 0.0000
# 5 0.0000 0.0000 0.0000 0.0000 13.9658 0.0000
# 6 0.0000 0.0000 0.0000 0.0000 0.0000 26.6981
#
#
#
# Elastic Compliance Matrix: (Units=1/GPa)
#
#
# Indices 1 2 3 4 5 6 
#
# 1 0.011600 -0.001812 -0.001686 0.000000 0.000000 0.000000
# 2 -0.001812 0.007943 -0.003762 0.000000 0.000000 0.000000
# 3 -0.001686 -0.003762 0.009432 0.000000 0.000000 0.000000
# 4 0.000000 0.000000 0.000000 0.059514 0.000000 0.000000
# 5 0.000000 0.000000 0.000000 0.000000 0.071604 0.000000
# 6 0.000000 0.000000 0.000000 0.000000 0.000000 0.037456
#
#
# Mechanical properties :
#
#
# Convention : Reuss Voigt Hill
#
# Bulk Modulus (GPa) = 69.17494 77.24453 73.20974
# Shear Modulus (GPa) = 23.05343 29.08972 26.07157
#
# Velocity S-wave (km/s) = 3.48647 3.91640 3.70767
# Velocity P-wave (km/s) = 7.25819 7.82176 7.54524
#
# Compressibility (1/GPa) = 0.01445610
#
# Stress axis : x y z
#
# Youngs Moduli (GPa) = 86.20347 125.89201 106.02056
#
# Poissons Ratio (x) = 0.22807 0.17877
# Poissons Ratio (y) = 0.15617 0.39886
# Poissons Ratio (z) = 0.14535 0.47361
#
# Static dielectric constant tensor:
#      x y z
#    x 1.775370 0.000000 0.000000 
#    y 0.000000 1.768970 0.000000 
#    z 0.000000 0.000000 1.610420 
# 
# From -- ./inp_files/27486.got.cif
#   From: 2010.05.17/outbox.cif.g08.bks.cpg/sg69_14_cif.got.tgz:27486.got - 2010.06.03 19:29:58.
