data_PCOD9512269
_publ_section_title
;
Structure prediction by ZEFSAII (Michael W. Deem and Ramdas Pophale) SiO2 
 PCOD9512269
Probable space group: F M M M
;
_chemical_formula_sum "Si O2"
_cell_formula_units_Z 176
_cell_length_a 24.676711
_cell_length_b 20.961966
_cell_length_c 18.004452
_cell_angle_alpha 90.000000
_cell_angle_beta 90.000000
_cell_angle_gamma 90.000000
_cell_volume 9313.205682
_symmetry_space_group_name_H-M "F M M M"
_symmetry_group_IT_number 69
_symmetry_cell_setting 'orthorhombic'
loop_
_space_group_symop_operation_xyz
x,y,z
-x,-y,z
x,-y,-z
-x,y,-z
-x,-y,-z
x,y,-z
-x,y,z
x,-y,z
x,1/2+y,1/2+z
-x,1/2-y,1/2+z
x,1/2-y,1/2-z
-x,1/2+y,1/2-z
-x,1/2-y,1/2-z
x,1/2+y,1/2-z
-x,1/2+y,1/2+z
x,1/2-y,1/2+z
1/2+x,y,1/2+z
1/2-x,-y,1/2+z
1/2+x,-y,1/2-z
1/2-x,y,1/2-z
1/2-x,-y,1/2-z
1/2+x,y,1/2-z
1/2-x,y,1/2+z
1/2+x,-y,1/2+z
1/2+x,1/2+y,z
1/2-x,1/2-y,z
1/2+x,1/2-y,-z
1/2-x,1/2+y,-z
1/2-x,1/2-y,-z
1/2+x,1/2+y,-z
1/2-x,1/2+y,z
1/2+x,1/2-y,z
loop_
_atom_site_type_symbol
_atom_site_label
_atom_site_fract_x
_atom_site_fract_y
_atom_site_fract_z
Si Si1 0.000000 0.775007 0.583160
Si Si2 0.882898 0.284045 0.416573
Si Si3 0.711728 0.809432 0.913723
Si Si4 0.000000 0.173606 0.734362
Si Si5 0.893372 0.888289 0.194980
Si Si6 0.299882 0.071252 0.806880
Si Si7 0.565502 0.000000 0.587906
O O1 0.053669 0.731960 0.591246
O O2 0.000000 0.828579 0.645413
O O3 0.000000 0.801189 0.500000
O O4 0.873667 0.309917 0.500000
O O5 0.848711 0.219631 0.410580
O O6 0.865693 0.331984 0.352444
O O7 0.750000 0.750000 0.889350
O O8 0.712122 0.872682 0.865078
O O9 0.725735 0.822452 0.000000
O O10 0.000000 0.250000 0.750000
O O11 0.946870 0.140863 0.767225
O O12 0.853252 0.914623 0.257525
O O13 0.911551 0.939817 0.133487
O O14 0.250000 0.070724 0.750000
O O15 0.304395 0.000000 0.840191
O O16 0.500000 0.000000 0.592164
O O17 0.579820 0.000000 0.500000
#
# Coordination Sequence:
#
# PCOD9512269 Si02
#       7
#    16  32  32  16  32  32  16
#     4  10  20  34  50  83 123 154 190 245 317 383
#     4  10  20  34  57  87 119 152 193 252 309 368
#     4  10  22  41  64  91 118 154 208 265 320 376
#     4  12  22  35  59  94 120 158 207 260 326 372
#     4  12  22  39  61  88 125 164 211 257 314 385
#     4  11  25  42  62  87 126 167 211 261 315 381
#     4  11  24  42  61  90 128 172 211 257 328 400
#
# _framework density 18.897897
#
# number of rings (size 3 to 8) (size 9 to 14) (size 15 to 20)
#    0.000    1.182    3.636    2.727    0.000    2.182 
#    0.000    0.909    0.000    0.000    0.000    0.636 
#    0.000    0.364    0.000    0.000    0.000    0.000 
#
# Total GULP energy -245705.533158 kJ/mol
# GULP energy per Si atom -5584.216663 kJ/mol
# Density = 1.885488 g / cm^3
# Si number density = 18.897897 Si / 1000 Ang^3
#
#
#
# Elastic Constant Matrix: (Units=GPa)
#
#
# Indices 1 2 3 4 5 6 
#
# 1 88.6854 41.8555 18.3152 0.0000 0.0000 0.0000
# 2 41.8555 137.3127 81.7947 0.0000 0.0000 0.0000
# 3 18.3152 81.7947 119.2645 0.0000 0.0000 0.0000
# 4 0.0000 0.0000 0.0000 36.2335 0.0000 0.0000
# 5 0.0000 0.0000 0.0000 0.0000 24.7306 0.0000
# 6 0.0000 0.0000 0.0000 0.0000 0.0000 16.5501
#
#
#
# Elastic Compliance Matrix: (Units=1/GPa)
#
#
# Indices 1 2 3 4 5 6 
#
# 1 0.013279 -0.004790 0.001246 0.000000 0.000000 0.000000
# 2 -0.004790 0.014041 -0.008894 0.000000 0.000000 0.000000
# 3 0.001246 -0.008894 0.014293 0.000000 0.000000 0.000000
# 4 0.000000 0.000000 0.000000 0.027599 0.000000 0.000000
# 5 0.000000 0.000000 0.000000 0.000000 0.040436 0.000000
# 6 0.000000 0.000000 0.000000 0.000000 0.000000 0.060423
#
#
# Mechanical properties :
#
#
# Convention : Reuss Voigt Hill
#
# Bulk Modulus (GPa) = 59.74814 69.91036 64.82925
# Shear Modulus (GPa) = 24.93462 29.05599 26.99530
#
# Velocity S-wave (km/s) = 3.63635 3.92538 3.78363
# Velocity P-wave (km/s) = 7.02251 7.59071 7.31213
#
# Compressibility (1/GPa) = 0.01673692
#
# Stress axis : x y z
#
# Youngs Moduli (GPa) = 75.30633 71.22241 69.96422
#
# Poissons Ratio (x) = 0.34114 -0.08715
# Poissons Ratio (y) = 0.36070 0.62225
# Poissons Ratio (z) = -0.09381 0.63344
#
# Static dielectric constant tensor:
#      x y z
#    x 1.670640 0.000000 0.000000 
#    y 0.000000 1.659060 0.000000 
#    z 0.000000 0.000000 1.674130 
# 
# From -- ./inp_files/26826.got.cif
#   From: 2010.05.17/outbox.cif.g08.bks.cpg/sg69_14_cif.got.tgz:26826.got - 2010.06.03 19:29:58.
