data_PCOD9512148
_publ_section_title
;
Structure prediction by ZEFSAII (Michael W. Deem and Ramdas Pophale) SiO2 
 PCOD9512148
Probable space group: F M M M
;
_chemical_formula_sum "Si O2"
_cell_formula_units_Z 116
_cell_length_a 7.817516
_cell_length_b 28.160787
_cell_length_c 29.460271
_cell_angle_alpha 90.000000
_cell_angle_beta 90.000000
_cell_angle_gamma 90.000000
_cell_volume 6485.602151
_symmetry_space_group_name_H-M "F M M M"
_symmetry_group_IT_number 69
_symmetry_cell_setting 'orthorhombic'
loop_
_space_group_symop_operation_xyz
x,y,z
-x,-y,z
x,-y,-z
-x,y,-z
-x,-y,-z
x,y,-z
-x,y,z
x,-y,z
x,1/2+y,1/2+z
-x,1/2-y,1/2+z
x,1/2-y,1/2-z
-x,1/2+y,1/2-z
-x,1/2-y,1/2-z
x,1/2+y,1/2-z
-x,1/2+y,1/2+z
x,1/2-y,1/2+z
1/2+x,y,1/2+z
1/2-x,-y,1/2+z
1/2+x,-y,1/2-z
1/2-x,y,1/2-z
1/2-x,-y,1/2-z
1/2+x,y,1/2-z
1/2-x,y,1/2+z
1/2+x,-y,1/2+z
1/2+x,1/2+y,z
1/2-x,1/2-y,z
1/2+x,1/2-y,-z
1/2-x,1/2+y,-z
1/2-x,1/2-y,-z
1/2+x,1/2+y,-z
1/2-x,1/2+y,z
1/2+x,1/2-y,z
loop_
_atom_site_type_symbol
_atom_site_label
_atom_site_fract_x
_atom_site_fract_y
_atom_site_fract_z
Si Si1 0.797750 0.696472 0.302737
Si Si2 0.500000 0.000000 0.000000
Si Si3 0.796769 0.196579 0.553182
Si Si4 0.697270 0.121361 0.375772
Si Si5 0.500000 0.947719 0.095649
O O1 0.750000 0.691490 0.250000
O O2 0.750000 0.750000 0.317413
O O3 0.733145 0.653471 0.333854
O O4 0.000000 0.693894 0.306603
O O5 0.500000 0.040956 0.041305
O O6 0.755481 0.192067 0.500000
O O7 0.750000 0.250000 0.567156
O O8 0.699130 0.158375 0.582690
O O9 0.000000 0.189403 0.559052
O O10 0.500000 0.105606 0.367752
O O11 0.831054 0.080645 0.389106
O O12 0.500000 0.000000 0.117390
#
# Coordination Sequence:
#
# PCOD9512148 Si02
#       5
#    32   4  32  32  16
#     4  10  21  34  56  90 127 165 206 242 291 358
#     4   8  24  48  66  96 108 154 208 256 318 372
#     4  10  20  32  49  77 117 156 194 231 278 350
#     4  11  23  37  60  89 115 158 197 245 302 363
#     4  10  24  44  66  85 119 146 202 258 308 358
#
# _framework density 17.885773
#
# number of rings (size 3 to 8) (size 9 to 14) (size 15 to 20)
#    0.414    1.379    1.379    3.310    5.793    4.414 
#    0.000    0.690    0.000    0.828    0.000    0.000 
#    0.000    0.000    0.000    0.000    0.000    0.000 
#
# Total GULP energy -161482.693485 kJ/mol
# GULP energy per Si atom -5568.368741 kJ/mol
# Density = 1.784506 g / cm^3
# Si number density = 17.885773 Si / 1000 Ang^3
#
#
#
# Elastic Constant Matrix: (Units=GPa)
#
#
# Indices 1 2 3 4 5 6 
#
# 1 74.4188 56.1005 31.4514 0.0000 0.0000 0.0000
# 2 56.1005 127.4907 53.9006 0.0000 0.0000 0.0000
# 3 31.4514 53.9006 84.8446 0.0000 0.0000 0.0000
# 4 0.0000 0.0000 0.0000 45.4029 0.0000 0.0000
# 5 0.0000 0.0000 0.0000 0.0000 -1.1226 0.0000
# 6 0.0000 0.0000 0.0000 0.0000 0.0000 23.4134
#
#
#
# Elastic Compliance Matrix: (Units=1/GPa)
#
#
# Indices 1 2 3 4 5 6 
#
# 1 0.020505 -0.007943 -0.002555 0.000000 0.000000 0.000000
# 2 -0.007943 0.013801 -0.005823 0.000000 0.000000 0.000000
# 3 -0.002555 -0.005823 0.016433 0.000000 0.000000 0.000000
# 4 0.000000 0.000000 0.000000 0.022025 0.000000 0.000000
# 5 0.000000 0.000000 0.000000 0.000000 -0.890803 0.000000
# 6 0.000000 0.000000 0.000000 0.000000 0.000000 0.042710
#
#
# Mechanical properties :
#
#
# Convention : Reuss Voigt Hill
#
# Bulk Modulus (GPa) = 55.25928 63.29547 59.27737
# Shear Modulus (GPa) = -6.78743 23.22554 8.21905
#
# Velocity S-wave (km/s) = -1.95016 3.60745 2.14599
# Velocity P-wave (km/s) = 5.08841 7.26754 6.27332
#
# Compressibility (1/GPa) = 0.01809651
#
# Stress axis : x y z
#
# Youngs Moduli (GPa) = 48.76894 72.46054 60.85394
#
# Poissons Ratio (x) = 0.57552 0.15550
# Poissons Ratio (y) = 0.38735 0.35436
# Poissons Ratio (z) = 0.12462 0.42194
#
# Static dielectric constant tensor:
#      x y z
#    x 1.658640 0.000000 0.000000 
#    y 0.000000 1.614000 0.000000 
#    z 0.000000 0.000000 2.130430 
# 
# From -- ./inp_files/4624.got.cif
#   From: 2010.05.17/outbox.cif.g08.bks.cpg/sg69_3_cif.got.tgz:4624.got - 2010.06.03 19:29:58.
