data_PCOD9512008
_publ_section_title
;
Structure prediction by ZEFSAII (Michael W. Deem and Ramdas Pophale) SiO2 
 PCOD9512008
Probable space group: F M M M
;
_chemical_formula_sum "Si O2"
_cell_formula_units_Z 128
_cell_length_a 18.283409
_cell_length_b 14.652228
_cell_length_c 27.065134
_cell_angle_alpha 90.000000
_cell_angle_beta 90.000000
_cell_angle_gamma 90.000000
_cell_volume 7250.551208
_symmetry_space_group_name_H-M "F M M M"
_symmetry_group_IT_number 69
_symmetry_cell_setting 'orthorhombic'
loop_
_space_group_symop_operation_xyz
x,y,z
-x,-y,z
x,-y,-z
-x,y,-z
-x,-y,-z
x,y,-z
-x,y,z
x,-y,z
x,1/2+y,1/2+z
-x,1/2-y,1/2+z
x,1/2-y,1/2-z
-x,1/2+y,1/2-z
-x,1/2-y,1/2-z
x,1/2+y,1/2-z
-x,1/2+y,1/2+z
x,1/2-y,1/2+z
1/2+x,y,1/2+z
1/2-x,-y,1/2+z
1/2+x,-y,1/2-z
1/2-x,y,1/2-z
1/2-x,-y,1/2-z
1/2+x,y,1/2-z
1/2-x,y,1/2+z
1/2+x,-y,1/2+z
1/2+x,1/2+y,z
1/2-x,1/2-y,z
1/2+x,1/2-y,-z
1/2-x,1/2+y,-z
1/2-x,1/2-y,-z
1/2+x,1/2+y,-z
1/2-x,1/2+y,z
1/2+x,1/2-y,z
loop_
_atom_site_type_symbol
_atom_site_label
_atom_site_fract_x
_atom_site_fract_y
_atom_site_fract_z
Si Si1 0.678819 0.500000 0.784361
Si Si2 0.412774 0.830845 0.880469
Si Si3 0.586814 0.500000 0.310907
Si Si4 0.783716 0.609622 0.943913
Si Si5 0.690830 0.321964 0.851416
O O1 0.750000 0.500000 0.750000
O O2 0.614219 0.500000 0.744672
O O3 0.679687 0.410052 0.817977
O O4 0.500000 0.833241 0.887821
O O5 0.363846 0.854147 0.928254
O O6 0.383151 0.734541 0.860560
O O7 0.390229 0.909863 0.841198
O O8 0.500000 0.500000 0.311477
O O9 0.784376 0.500000 0.940596
O O10 0.726933 0.647583 0.903547
O O11 0.765586 0.635494 0.000000
O O12 0.750000 0.250000 0.829572
#
# Coordination Sequence:
#
# PCOD9512008 Si02
#       5
#    16  32  16  32  32
#     4  12  22  36  56  81 110 146 192 235 274 326
#     4  10  21  38  57  82 115 148 184 230 277 329
#     4  10  22  38  56  78 112 148 184 232 284 322
#     4  10  19  35  60  85 111 145 183 226 279 333
#     4  10  22  36  56  83 114 145 185 230 277 330
#
# _framework density 17.653829999999999
#
# number of rings (size 3 to 8) (size 9 to 14) (size 15 to 20)
#    0.000    1.750    2.500    3.000    0.000    9.500 
#    0.000    3.750    0.000    0.000    0.000    1.750 
#    0.000    0.000    0.000    0.000    0.000    0.000 
#
# Total GULP energy -178589.246693 kJ/mol
# GULP energy per Si atom -5580.913959 kJ/mol
# Density = 1.761365 g / cm^3
# Si number density = 17.653830 Si / 1000 Ang^3
#
#
#
# Elastic Constant Matrix: (Units=GPa)
#
#
# Indices 1 2 3 4 5 6 
#
# 1 65.2380 32.7519 32.9101 0.0000 0.0000 0.0000
# 2 32.7519 128.8562 53.7038 0.0000 0.0000 0.0000
# 3 32.9101 53.7038 106.9078 0.0000 0.0000 0.0000
# 4 0.0000 0.0000 0.0000 -3.1248 0.0000 0.0000
# 5 0.0000 0.0000 0.0000 0.0000 26.1590 0.0000
# 6 0.0000 0.0000 0.0000 0.0000 0.0000 27.5882
#
#
#
# Elastic Compliance Matrix: (Units=1/GPa)
#
#
# Indices 1 2 3 4 5 6 
#
# 1 0.019039 -0.003031 -0.004338 0.000000 0.000000 0.000000
# 2 -0.003031 0.010298 -0.004240 0.000000 0.000000 0.000000
# 3 -0.004338 -0.004240 0.012819 0.000000 0.000000 0.000000
# 4 0.000000 0.000000 0.000000 -0.320016 0.000000 0.000000
# 5 0.000000 0.000000 0.000000 0.000000 0.038228 0.000000
# 6 0.000000 0.000000 0.000000 0.000000 0.000000 0.036247
#
#
# Mechanical properties :
#
#
# Convention : Reuss Voigt Hill
#
# Bulk Modulus (GPa) = 52.80553 59.97038 56.38796
# Shear Modulus (GPa) = -28.75985 22.23354 -3.26316
#
# Velocity S-wave (km/s) = -4.04059 3.55268 -1.36104
# Velocity P-wave (km/s) = 2.86498 7.13250 5.43510
#
# Compressibility (1/GPa) = 0.01893741
#
# Stress axis : x y z
#
# Youngs Moduli (GPa) = 52.52471 97.10465 78.00776
#
# Poissons Ratio (x) = 0.29434 0.33841
# Poissons Ratio (y) = 0.15921 0.33076
# Poissons Ratio (z) = 0.22786 0.41173
#
# Static dielectric constant tensor:
#      x y z
#    x 1.884490 0.000000 0.000000 
#    y 0.000000 1.632320 0.000000 
#    z 0.000000 0.000000 1.626570 
# 
# From -- ./inp_files/15336.got.cif
#   From: 2010.05.17/outbox.cif.g08.bks.cpg/sg69_8_cif.got.tgz:15336.got - 2010.06.03 19:29:58.
