data_PCOD9512588
_publ_section_title
;
Structure prediction by ZEFSAII (Michael W. Deem and Ramdas Pophale) SiO2 
 PCOD9512588
Probable space group: F M M M
;
_chemical_formula_sum "Si O2"
_cell_formula_units_Z 112
_cell_length_a 10.417505
_cell_length_b 25.810987
_cell_length_c 22.963441
_cell_angle_alpha 90.000000
_cell_angle_beta 90.000000
_cell_angle_gamma 90.000000
_cell_volume 6174.549775
_symmetry_space_group_name_H-M "F M M M"
_symmetry_group_IT_number 69
_symmetry_cell_setting 'orthorhombic'
loop_
_space_group_symop_operation_xyz
x,y,z
-x,-y,z
x,-y,-z
-x,y,-z
-x,-y,-z
x,y,-z
-x,y,z
x,-y,z
x,1/2+y,1/2+z
-x,1/2-y,1/2+z
x,1/2-y,1/2-z
-x,1/2+y,1/2-z
-x,1/2-y,1/2-z
x,1/2+y,1/2-z
-x,1/2+y,1/2+z
x,1/2-y,1/2+z
1/2+x,y,1/2+z
1/2-x,-y,1/2+z
1/2+x,-y,1/2-z
1/2-x,y,1/2-z
1/2-x,-y,1/2-z
1/2+x,y,1/2-z
1/2-x,y,1/2+z
1/2+x,-y,1/2+z
1/2+x,1/2+y,z
1/2-x,1/2-y,z
1/2+x,1/2-y,-z
1/2-x,1/2+y,-z
1/2-x,1/2-y,-z
1/2+x,1/2+y,-z
1/2-x,1/2+y,z
1/2+x,1/2-y,z
loop_
_atom_site_type_symbol
_atom_site_label
_atom_site_fract_x
_atom_site_fract_y
_atom_site_fract_z
Si Si1 0.352357 0.438274 0.859460
Si Si2 0.648226 0.625869 0.568668
Si Si3 0.357221 0.792818 0.833039
Si Si4 0.750000 0.622614 0.250000
O O1 0.500000 0.426972 0.876034
O O2 0.336473 0.500000 0.856270
O O3 0.250854 0.413468 0.904101
O O4 0.323274 0.412411 0.796917
O O5 0.667312 0.632500 0.500000
O O6 0.500000 0.608378 0.578314
O O7 0.661378 0.679323 0.604582
O O8 0.500000 0.770433 0.829310
O O9 0.250000 0.750000 0.823135
O O10 0.341196 0.839137 0.786682
#
# Coordination Sequence:
#
# PCOD9512588 Si02
#       4
#    32  32  32  16
#     4  10  21  36  56  83 111 140 178 224 270 314
#     4   9  20  39  58  77 106 144 183 220 263 321
#     4  10  21  35  54  79 106 138 177 220 265 315
#     4  10  20  36  56  76 108 146 180 212 260 322
#
# _framework density 18.138974000000001
#
# number of rings (size 3 to 8) (size 9 to 14) (size 15 to 20)
#    0.000    2.286    0.000    1.714    0.000   10.286 
#    0.000    2.857    0.000    0.000    0.000    0.000 
#    0.000    0.000    0.000    0.000    0.000    0.000 
#
# Total GULP energy -156257.653957 kJ/mol
# GULP energy per Si atom -5580.630498 kJ/mol
# Density = 1.809769 g / cm^3
# Si number density = 18.138974 Si / 1000 Ang^3
#
#
#
# Elastic Constant Matrix: (Units=GPa)
#
#
# Indices 1 2 3 4 5 6 
#
# 1 120.0409 50.2000 38.4921 0.0000 0.0000 0.0000
# 2 50.2000 56.4304 20.8010 0.0000 0.0000 0.0000
# 3 38.4921 20.8010 108.8412 0.0000 0.0000 0.0000
# 4 0.0000 0.0000 0.0000 9.6523 0.0000 0.0000
# 5 0.0000 0.0000 0.0000 0.0000 19.8555 0.0000
# 6 0.0000 0.0000 0.0000 0.0000 0.0000 -4.6897
#
#
#
# Elastic Compliance Matrix: (Units=1/GPa)
#
#
# Indices 1 2 3 4 5 6 
#
# 1 0.013999 -0.011434 -0.002766 0.000000 0.000000 0.000000
# 2 -0.011434 0.028403 -0.001385 0.000000 0.000000 0.000000
# 3 -0.002766 -0.001385 0.010430 0.000000 0.000000 0.000000
# 4 0.000000 0.000000 0.000000 0.103602 0.000000 0.000000
# 5 0.000000 0.000000 0.000000 0.000000 0.050364 0.000000
# 6 0.000000 0.000000 0.000000 0.000000 0.000000 -0.213232
#
#
# Mechanical properties :
#
#
# Convention : Reuss Voigt Hill
#
# Bulk Modulus (GPa) = 46.15939 56.03318 51.09628
# Shear Modulus (GPa) = 156.46897 16.68491 86.57694
#
# Velocity S-wave (km/s) = 9.29777 3.03617 6.91617
# Velocity P-wave (km/s) = 11.86455 6.57641 9.59210
#
# Compressibility (1/GPa) = 0.02166407
#
# Stress axis : x y z
#
# Youngs Moduli (GPa) = 71.43467 35.20789 95.87396
#
# Poissons Ratio (x) = 0.40256 0.26515
# Poissons Ratio (y) = 0.81677 0.13274
# Poissons Ratio (z) = 0.19756 0.04875
#
# Static dielectric constant tensor:
#      x y z
#    x 1.621030 0.000000 0.000000 
#    y 0.000000 1.592430 0.000000 
#    z 0.000000 0.000000 1.621320 
# 
# From -- ./inp_files/3713.got.cif
#   From: 2010.05.17/outbox.cif.g08.bks.cpg/sg69_2_cif.got.tgz:3713.got - 2010.06.03 19:29:58.
