data_PCOD9512307
_publ_section_title
;
Structure prediction by ZEFSAII (Michael W. Deem and Ramdas Pophale) SiO2 
 PCOD9512307
Probable space group: F M M M
;
_chemical_formula_sum "Si O2"
_cell_formula_units_Z 160
_cell_length_a 27.894163
_cell_length_b 18.060499
_cell_length_c 16.188122
_cell_angle_alpha 90.000000
_cell_angle_beta 90.000000
_cell_angle_gamma 90.000000
_cell_volume 8155.292620
_symmetry_space_group_name_H-M "F M M M"
_symmetry_group_IT_number 69
_symmetry_cell_setting 'orthorhombic'
loop_
_space_group_symop_operation_xyz
x,y,z
-x,-y,z
x,-y,-z
-x,y,-z
-x,-y,-z
x,y,-z
-x,y,z
x,-y,z
x,1/2+y,1/2+z
-x,1/2-y,1/2+z
x,1/2-y,1/2-z
-x,1/2+y,1/2-z
-x,1/2-y,1/2-z
x,1/2+y,1/2-z
-x,1/2+y,1/2+z
x,1/2-y,1/2+z
1/2+x,y,1/2+z
1/2-x,-y,1/2+z
1/2+x,-y,1/2-z
1/2-x,y,1/2-z
1/2-x,-y,1/2-z
1/2+x,y,1/2-z
1/2-x,y,1/2+z
1/2+x,-y,1/2+z
1/2+x,1/2+y,z
1/2-x,1/2-y,z
1/2+x,1/2-y,-z
1/2-x,1/2+y,-z
1/2-x,1/2-y,-z
1/2+x,1/2+y,-z
1/2-x,1/2+y,z
1/2+x,1/2-y,z
loop_
_atom_site_type_symbol
_atom_site_label
_atom_site_fract_x
_atom_site_fract_y
_atom_site_fract_z
Si Si1 0.149924 0.814323 0.150590
Si Si2 0.682841 0.656328 0.337925
Si Si3 0.226298 0.914844 0.094460
Si Si4 0.408276 0.918349 0.098628
Si Si5 0.945542 0.257907 0.899867
O O1 0.175364 0.737541 0.123360
O O2 0.164340 0.832840 0.244615
O O3 0.173563 0.880142 0.099841
O O4 0.094175 0.795756 0.139343
O O5 0.736824 0.630215 0.348943
O O6 0.647203 0.597953 0.380516
O O7 0.225686 0.000000 0.120033
O O8 0.243548 0.909710 0.000000
O O9 0.435093 0.843291 0.126755
O O10 0.422473 0.000000 0.130865
O O11 0.414553 0.920478 0.000000
O O12 0.000000 0.238425 0.879238
O O13 0.939992 0.255279 0.000000
#
# Coordination Sequence:
#
# PCOD9512307 Si02
#       5
#    32  32  32  32  32
#     4  10  21  36  53  78 109 140 179 224 263 309
#     4  10  20  34  52  78 108 142 178 212 262 320
#     4  11  23  36  53  79 109 141 176 215 263 320
#     4   9  17  30  50  78 111 143 177 218 263 316
#     4   9  18  34  57  81 105 140 183 224 267 310
#
# _framework density 19.619160999999998
#
# number of rings (size 3 to 8) (size 9 to 14) (size 15 to 20)
#    0.000    2.200    0.000    3.000    0.000    9.200 
#    0.000   10.000    0.000    0.600    0.000    2.800 
#    0.000    0.000    0.000    0.000    0.000    0.000 
#
# Total GULP energy -223147.467746 kJ/mol
# GULP energy per Si atom -5578.686694 kJ/mol
# Density = 1.957451 g / cm^3
# Si number density = 19.619161 Si / 1000 Ang^3
#
#
#
# Elastic Constant Matrix: (Units=GPa)
#
#
# Indices 1 2 3 4 5 6 
#
# 1 145.0740 58.5444 22.6599 0.0000 0.0000 0.0000
# 2 58.5444 70.1529 19.0971 0.0000 0.0000 0.0000
# 3 22.6599 19.0971 24.5520 0.0000 0.0000 0.0000
# 4 0.0000 0.0000 0.0000 11.5812 0.0000 0.0000
# 5 0.0000 0.0000 0.0000 0.0000 19.6450 0.0000
# 6 0.0000 0.0000 0.0000 0.0000 0.0000 -0.5076
#
#
#
# Elastic Compliance Matrix: (Units=1/GPa)
#
#
# Indices 1 2 3 4 5 6 
#
# 1 0.010652 -0.007882 -0.003700 0.000000 0.000000 0.000000
# 2 -0.007882 0.023916 -0.011328 0.000000 0.000000 0.000000
# 3 -0.003700 -0.011328 0.052956 0.000000 0.000000 0.000000
# 4 0.000000 0.000000 0.000000 0.086347 0.000000 0.000000
# 5 0.000000 0.000000 0.000000 0.000000 0.050903 0.000000
# 6 0.000000 0.000000 0.000000 0.000000 0.000000 -1.969952
#
#
# Mechanical properties :
#
#
# Convention : Reuss Voigt Hill
#
# Bulk Modulus (GPa) = 23.97864 48.93129 36.45496
# Shear Modulus (GPa) = -2.96655 15.44223 6.23784
#
# Velocity S-wave (km/s) = -1.23100 2.80857 1.78504
# Velocity P-wave (km/s) = 3.19814 5.95921 4.78227
#
# Compressibility (1/GPa) = 0.04170379
#
# Stress axis : x y z
#
# Youngs Moduli (GPa) = 93.88182 41.81320 18.88363
#
# Poissons Ratio (x) = 0.32957 0.06987
# Poissons Ratio (y) = 0.73996 0.21391
# Poissons Ratio (z) = 0.34737 0.47365
#
# Static dielectric constant tensor:
#      x y z
#    x 1.688950 0.000000 0.000000 
#    y 0.000000 1.699020 0.000000 
#    z 0.000000 0.000000 1.735090 
# 
# From -- ./inp_files/23097.got.cif
#   From: 2010.05.17/outbox.cif.g08.bks.cpg/sg69_12_cif.got.tgz:23097.got - 2010.06.03 19:29:58.
