data_PCOD9512052
_publ_section_title
;
Structure prediction by ZEFSAII (Michael W. Deem and Ramdas Pophale) SiO2 
 PCOD9512052
Probable space group: F M M M
;
_chemical_formula_sum "Si O2"
_cell_formula_units_Z 160
_cell_length_a 22.482913
_cell_length_b 15.541299
_cell_length_c 22.553939
_cell_angle_alpha 90.000000
_cell_angle_beta 90.000000
_cell_angle_gamma 90.000000
_cell_volume 7880.654674
_symmetry_space_group_name_H-M "F M M M"
_symmetry_group_IT_number 69
_symmetry_cell_setting 'orthorhombic'
loop_
_space_group_symop_operation_xyz
x,y,z
-x,-y,z
x,-y,-z
-x,y,-z
-x,-y,-z
x,y,-z
-x,y,z
x,-y,z
x,1/2+y,1/2+z
-x,1/2-y,1/2+z
x,1/2-y,1/2-z
-x,1/2+y,1/2-z
-x,1/2-y,1/2-z
x,1/2+y,1/2-z
-x,1/2+y,1/2+z
x,1/2-y,1/2+z
1/2+x,y,1/2+z
1/2-x,-y,1/2+z
1/2+x,-y,1/2-z
1/2-x,y,1/2-z
1/2-x,-y,1/2-z
1/2+x,y,1/2-z
1/2-x,y,1/2+z
1/2+x,-y,1/2+z
1/2+x,1/2+y,z
1/2-x,1/2-y,z
1/2+x,1/2-y,-z
1/2-x,1/2+y,-z
1/2-x,1/2-y,-z
1/2+x,1/2+y,-z
1/2-x,1/2+y,z
1/2+x,1/2-y,z
loop_
_atom_site_type_symbol
_atom_site_label
_atom_site_fract_x
_atom_site_fract_y
_atom_site_fract_z
Si Si1 0.435164 0.200479 0.064369
Si Si2 0.155094 0.904308 0.500000
Si Si3 0.204323 0.902404 0.694622
Si Si4 0.611487 0.754842 0.685558
Si Si5 0.783581 0.841191 0.000000
Si Si6 0.319048 0.900276 0.623125
O O1 0.500000 0.155602 0.065326
O O2 0.376724 0.142074 0.055506
O O3 0.428370 0.245236 0.127180
O O4 0.435107 0.249080 0.000000
O O5 0.225801 0.902358 0.500000
O O6 0.133227 0.000000 0.500000
O O7 0.250000 0.893287 0.750000
O O8 0.158638 0.824212 0.689954
O O9 0.249323 0.898442 0.639395
O O10 0.178661 0.000000 0.698104
O O11 0.581239 0.750000 0.750000
O O12 0.646555 0.843208 0.671412
O O13 0.750000 0.750000 0.000000
O O14 0.822131 0.856964 0.058579
O O15 0.337976 0.000000 0.622716
#
# Coordination Sequence:
#
# PCOD9512052 Si02
#       6
#    32  16  32  32  16  32
#     4   9  22  42  60  83 112 145 194 254 311 359
#     4  10  19  36  60  86 117 151 193 245 303 361
#     4  10  20  36  54  80 123 165 194 229 283 348
#     4  12  23  36  61  87 116 161 204 240 290 354
#     4  12  22  35  57  87 122 163 200 236 293 356
#     4  11  23  36  53  84 126 162 197 240 286 350
#
# _framework density 20.302882
#
# number of rings (size 3 to 8) (size 9 to 14) (size 15 to 20)
#    0.600    0.800    2.000    5.100    1.400    3.600 
#    0.000    0.000    0.000    0.600    0.000    4.200 
#    0.000    0.000    0.000    0.000    0.000    0.000 
#
# Total GULP energy -222766.714058 kJ/mol
# GULP energy per Si atom -5569.167851 kJ/mol
# Density = 2.025667 g / cm^3
# Si number density = 20.302882 Si / 1000 Ang^3
#
#
#
# Elastic Constant Matrix: (Units=GPa)
#
#
# Indices 1 2 3 4 5 6 
#
# 1 42.8343 6.7665 14.7718 0.0000 0.0000 0.0000
# 2 6.7665 103.7285 30.1234 0.0000 0.0000 0.0000
# 3 14.7718 30.1234 168.9411 0.0000 0.0000 0.0000
# 4 0.0000 0.0000 0.0000 16.7752 0.0000 0.0000
# 5 0.0000 0.0000 0.0000 0.0000 30.6840 0.0000
# 6 0.0000 0.0000 0.0000 0.0000 0.0000 -2.9358
#
#
#
# Elastic Compliance Matrix: (Units=1/GPa)
#
#
# Indices 1 2 3 4 5 6 
#
# 1 0.024173 -0.001016 -0.001932 0.000000 0.000000 0.000000
# 2 -0.001016 0.010210 -0.001732 0.000000 0.000000 0.000000
# 3 -0.001932 -0.001732 0.006397 0.000000 0.000000 0.000000
# 4 0.000000 0.000000 0.000000 0.059612 0.000000 0.000000
# 5 0.000000 0.000000 0.000000 0.000000 0.032590 0.000000
# 6 0.000000 0.000000 0.000000 0.000000 0.000000 -0.340621
#
#
# Mechanical properties :
#
#
# Convention : Reuss Voigt Hill
#
# Bulk Modulus (GPa) = 31.82716 46.53635 39.18175
# Shear Modulus (GPa) = -26.62310 26.49417 -0.06446
#
# Velocity S-wave (km/s) = -3.62511 3.61632 -0.17838
# Velocity P-wave (km/s) = 1.34599 6.35672 4.39296
#
# Compressibility (1/GPa) = 0.03141971
#
# Stress axis : x y z
#
# Youngs Moduli (GPa) = 41.36909 97.94616 156.32420
#
# Poissons Ratio (x) = 0.09948 0.30210
# Poissons Ratio (y) = 0.04202 0.27070
# Poissons Ratio (z) = 0.07995 0.16961
#
# Static dielectric constant tensor:
#      x y z
#    x 1.714650 0.000000 0.000000 
#    y 0.000000 1.774140 0.000000 
#    z 0.000000 0.000000 2.195320 
# 
# From -- ./inp_files/38284.got.cif
#   From: 2010.05.17/outbox.cif.g08.bks.cpg/sg69_20_cif.got.tgz:38284.got - 2010.06.03 19:29:58.
