data_PCOD9512963
_publ_section_title
;
Structure prediction by ZEFSAII (Michael W. Deem and Ramdas Pophale) SiO2 
 PCOD9512963
Probable space group: F M M M
;
_chemical_formula_sum "Si O2"
_cell_formula_units_Z 160
_cell_length_a 14.476964
_cell_length_b 20.916877
_cell_length_c 27.772328
_cell_angle_alpha 90.000000
_cell_angle_beta 90.000000
_cell_angle_gamma 90.000000
_cell_volume 8409.818496
_symmetry_space_group_name_H-M "F M M M"
_symmetry_group_IT_number 69
_symmetry_cell_setting 'orthorhombic'
loop_
_space_group_symop_operation_xyz
x,y,z
-x,-y,z
x,-y,-z
-x,y,-z
-x,-y,-z
x,y,-z
-x,y,z
x,-y,z
x,1/2+y,1/2+z
-x,1/2-y,1/2+z
x,1/2-y,1/2-z
-x,1/2+y,1/2-z
-x,1/2-y,1/2-z
x,1/2+y,1/2-z
-x,1/2+y,1/2+z
x,1/2-y,1/2+z
1/2+x,y,1/2+z
1/2-x,-y,1/2+z
1/2+x,-y,1/2-z
1/2-x,y,1/2-z
1/2-x,-y,1/2-z
1/2+x,y,1/2-z
1/2-x,y,1/2+z
1/2+x,-y,1/2+z
1/2+x,1/2+y,z
1/2-x,1/2-y,z
1/2+x,1/2-y,-z
1/2-x,1/2+y,-z
1/2-x,1/2-y,-z
1/2+x,1/2+y,-z
1/2-x,1/2+y,z
1/2+x,1/2-y,z
loop_
_atom_site_type_symbol
_atom_site_label
_atom_site_fract_x
_atom_site_fract_y
_atom_site_fract_z
Si Si1 0.611417 0.690944 0.785084
Si Si2 0.816759 0.073752 0.610935
Si Si3 0.814803 0.690386 0.607437
Si Si4 0.500000 0.619620 0.557778
Si Si5 0.000000 0.270437 0.442699
Si Si6 0.888893 0.572388 0.218858
O O1 0.500000 0.691665 0.792938
O O2 0.633246 0.750000 0.750000
O O3 0.660882 0.695643 0.836033
O O4 0.636254 0.625648 0.757618
O O5 0.738885 0.124802 0.597876
O O6 0.842728 0.083458 0.667183
O O7 0.908995 0.088155 0.580505
O O8 0.789346 0.000000 0.604406
O O9 0.750000 0.750000 0.594090
O O10 0.909395 0.697074 0.578702
O O11 0.500000 0.613721 0.500000
O O12 0.500000 0.695043 0.570982
O O13 0.000000 0.273766 0.500000
O O14 0.867965 0.500000 0.234960
O O15 0.000000 0.576777 0.211588
#
# Coordination Sequence:
#
# PCOD9512963 Si02
#       6
#    32  32  32  16  16  32
#     4  10  21  35  58  88 122 164 211 256 304 358
#     4  11  23  39  64  98 133 168 207 257 319 376
#     4  12  24  41  66  94 127 164 211 261 312 378
#     4  11  23  42  70  97 125 159 206 273 333 376
#     4  11  26  47  69  94 123 163 211 263 325 381
#     4   9  18  34  57  86 127 171 207 248 302 365
#
# _framework density 19.025379999999998
#
# number of rings (size 3 to 8) (size 9 to 14) (size 15 to 20)
#    0.000    1.400    4.000    1.500    0.000    5.600 
#    0.000    2.500    0.000    0.600    0.000    0.000 
#    0.000    0.000    0.000    0.000    0.000    0.000 
#
# Total GULP energy -223793.642064 kJ/mol
# GULP energy per Si atom -5594.841052 kJ/mol
# Density = 1.898208 g / cm^3
# Si number density = 19.025380 Si / 1000 Ang^3
#
#
#
# Elastic Constant Matrix: (Units=GPa)
#
#
# Indices 1 2 3 4 5 6 
#
# 1 124.0523 69.6985 35.4171 0.0000 0.0000 0.0000
# 2 69.6985 125.9625 40.1502 0.0000 0.0000 0.0000
# 3 35.4171 40.1502 50.8917 0.0000 0.0000 0.0000
# 4 0.0000 0.0000 0.0000 25.9327 0.0000 0.0000
# 5 0.0000 0.0000 0.0000 0.0000 -11.6178 0.0000
# 6 0.0000 0.0000 0.0000 0.0000 0.0000 19.8954
#
#
#
# Elastic Compliance Matrix: (Units=1/GPa)
#
#
# Indices 1 2 3 4 5 6 
#
# 1 0.012359 -0.005474 -0.004283 0.000000 0.000000 0.000000
# 2 -0.005474 0.013030 -0.006471 0.000000 0.000000 0.000000
# 3 -0.004283 -0.006471 0.027735 0.000000 0.000000 0.000000
# 4 0.000000 0.000000 0.000000 0.038561 0.000000 0.000000
# 5 0.000000 0.000000 0.000000 0.000000 -0.086075 0.000000
# 6 0.000000 0.000000 0.000000 0.000000 0.000000 0.050263
#
#
# Mechanical properties :
#
#
# Convention : Reuss Voigt Hill
#
# Bulk Modulus (GPa) = 48.37884 65.71533 57.04708
# Shear Modulus (GPa) = 52.51108 17.21811 34.86459
#
# Velocity S-wave (km/s) = 5.25932 3.01160 4.28545
# Velocity P-wave (km/s) = 7.89711 6.83439 7.38489
#
# Compressibility (1/GPa) = 0.02067019
#
# Stress axis : x y z
#
# Youngs Moduli (GPa) = 80.91164 76.74582 36.05540
#
# Poissons Ratio (x) = 0.42007 0.15442
# Poissons Ratio (y) = 0.44287 0.23330
# Poissons Ratio (z) = 0.34653 0.49660
#
# Static dielectric constant tensor:
#      x y z
#    x 1.661440 0.000000 0.000000 
#    y 0.000000 1.649880 0.000000 
#    z 0.000000 0.000000 1.619060 
# 
# From -- ./inp_files/45685.got.cif
#   From: 2010.05.17/outbox.cif.g08.bks.cpg/sg69_23_cif.got.tgz:45685.got - 2010.06.03 19:29:58.
