data_PCOD9512978
_publ_section_title
;
Structure prediction by ZEFSAII (Michael W. Deem and Ramdas Pophale) SiO2 
 PCOD9512978
Probable space group: F M M M
;
_chemical_formula_sum "Si O2"
_cell_formula_units_Z 160
_cell_length_a 30.815692
_cell_length_b 14.948648
_cell_length_c 19.705167
_cell_angle_alpha 90.000000
_cell_angle_beta 90.000000
_cell_angle_gamma 90.000000
_cell_volume 9077.242966
_symmetry_space_group_name_H-M "F M M M"
_symmetry_group_IT_number 69
_symmetry_cell_setting 'orthorhombic'
loop_
_space_group_symop_operation_xyz
x,y,z
-x,-y,z
x,-y,-z
-x,y,-z
-x,-y,-z
x,y,-z
-x,y,z
x,-y,z
x,1/2+y,1/2+z
-x,1/2-y,1/2+z
x,1/2-y,1/2-z
-x,1/2+y,1/2-z
-x,1/2-y,1/2-z
x,1/2+y,1/2-z
-x,1/2+y,1/2+z
x,1/2-y,1/2+z
1/2+x,y,1/2+z
1/2-x,-y,1/2+z
1/2+x,-y,1/2-z
1/2-x,y,1/2-z
1/2-x,-y,1/2-z
1/2+x,y,1/2-z
1/2-x,y,1/2+z
1/2+x,-y,1/2+z
1/2+x,1/2+y,z
1/2-x,1/2-y,z
1/2+x,1/2-y,-z
1/2-x,1/2+y,-z
1/2-x,1/2-y,-z
1/2+x,1/2+y,-z
1/2-x,1/2+y,z
1/2+x,1/2-y,z
loop_
_atom_site_type_symbol
_atom_site_label
_atom_site_fract_x
_atom_site_fract_y
_atom_site_fract_z
Si Si1 0.500000 0.600164 0.917845
Si Si2 0.637603 0.699424 0.678183
Si Si3 0.844115 0.500000 0.372793
Si Si4 0.595252 0.832570 0.418724
Si Si5 0.207840 0.690679 0.072188
Si Si6 0.840601 0.500000 0.789168
Si Si7 0.239325 0.500000 0.885100
O O1 0.500000 0.500000 0.891037
O O2 0.453867 0.641304 0.899071
O O3 0.500000 0.597640 0.000000
O O4 0.634932 0.750000 0.750000
O O5 0.605200 0.744439 0.624884
O O6 0.682704 0.717856 0.639583
O O7 0.637092 0.592070 0.685773
O O8 0.870372 0.587686 0.399779
O O9 0.844784 0.500000 0.291469
O O10 0.791976 0.500000 0.387037
O O11 0.596985 0.820895 0.500000
O O12 0.250000 0.750000 0.069563
O O13 0.222475 0.588717 0.078625
O O14 0.183632 0.703099 0.000000
O O15 0.789993 0.500000 0.815113
#
# Coordination Sequence:
#
# PCOD9512978 Si02
#       7
#    16  32  16  32  32  16  16
#     4   9  18  36  59  93 129 151 180 234 307 364
#     4  11  22  38  58  82 113 155 199 241 288 353
#     4  12  20  35  60  89 119 151 202 247 290 351
#     4  11  22  37  63  93 121 152 190 244 301 354
#     4  10  21  36  52  76 112 149 196 247 291 338
#     4  10  23  40  55  80 120 161 198 243 288 340
#     4  10  22  34  54  81 112 158 198 241 292 334
#
# _framework density 17.626498000000002
#
# number of rings (size 3 to 8) (size 9 to 14) (size 15 to 20)
#    0.000    1.500    3.000    2.700    0.000    3.600 
#    0.000    2.000    0.000    0.600    0.000    2.100 
#    0.000    0.000    0.000    0.000    0.000    0.000 
#
# Total GULP energy -222786.601235 kJ/mol
# GULP energy per Si atom -5569.665031 kJ/mol
# Density = 1.758638 g / cm^3
# Si number density = 17.626498 Si / 1000 Ang^3
#
#
#
# Elastic Constant Matrix: (Units=GPa)
#
#
# Indices 1 2 3 4 5 6 
#
# 1 110.9054 46.6064 35.4057 0.0000 0.0000 0.0000
# 2 46.6064 95.2175 38.1979 0.0000 0.0000 0.0000
# 3 35.4057 38.1979 115.6797 0.0000 0.0000 0.0000
# 4 0.0000 0.0000 0.0000 18.3425 0.0000 0.0000
# 5 0.0000 0.0000 0.0000 0.0000 -24.8005 0.0000
# 6 0.0000 0.0000 0.0000 0.0000 0.0000 28.2803
#
#
#
# Elastic Compliance Matrix: (Units=1/GPa)
#
#
# Indices 1 2 3 4 5 6 
#
# 1 0.011722 -0.004955 -0.001952 0.000000 0.000000 0.000000
# 2 -0.004955 0.014200 -0.003172 0.000000 0.000000 0.000000
# 3 -0.001952 -0.003172 0.010289 0.000000 0.000000 0.000000
# 4 0.000000 0.000000 0.000000 0.054518 0.000000 0.000000
# 5 0.000000 0.000000 0.000000 0.000000 -0.040322 0.000000
# 6 0.000000 0.000000 0.000000 0.000000 0.000000 0.035360
#
#
# Mechanical properties :
#
#
# Convention : Reuss Voigt Hill
#
# Bulk Modulus (GPa) = 62.28999 62.46919 62.37959
# Shear Modulus (GPa) = 44.93294 17.80396 31.36845
#
# Velocity S-wave (km/s) = 5.05441 3.18160 4.22313
# Velocity P-wave (km/s) = 8.33536 7.00102 7.69716
#
# Compressibility (1/GPa) = 0.01605394
#
# Stress axis : x y z
#
# Youngs Moduli (GPa) = 85.31088 70.42200 97.18683
#
# Poissons Ratio (x) = 0.34891 0.18967
# Poissons Ratio (y) = 0.42268 0.30832
# Poissons Ratio (z) = 0.16650 0.22341
#
# Static dielectric constant tensor:
#      x y z
#    x 1.621370 0.000000 0.000000 
#    y 0.000000 1.586350 0.000000 
#    z 0.000000 0.000000 1.619440 
# 
# From -- ./inp_files/27534.got.cif
#   From: 2010.05.17/outbox.cif.g08.bks.cpg/sg69_14_cif.got.tgz:27534.got - 2010.06.03 19:29:58.
