data_PCOD9512354
_publ_section_title
;
Structure prediction by ZEFSAII (Michael W. Deem and Ramdas Pophale) SiO2 
 PCOD9512354
Probable space group: F M M M
;
_chemical_formula_sum "Si O2"
_cell_formula_units_Z 160
_cell_length_a 23.097998
_cell_length_b 14.828698
_cell_length_c 18.831357
_cell_angle_alpha 90.000000
_cell_angle_beta 90.000000
_cell_angle_gamma 90.000000
_cell_volume 6449.989038
_symmetry_space_group_name_H-M "F M M M"
_symmetry_group_IT_number 69
_symmetry_cell_setting 'orthorhombic'
loop_
_space_group_symop_operation_xyz
x,y,z
-x,-y,z
x,-y,-z
-x,y,-z
-x,-y,-z
x,y,-z
-x,y,z
x,-y,z
x,1/2+y,1/2+z
-x,1/2-y,1/2+z
x,1/2-y,1/2-z
-x,1/2+y,1/2-z
-x,1/2-y,1/2-z
x,1/2+y,1/2-z
-x,1/2+y,1/2+z
x,1/2-y,1/2+z
1/2+x,y,1/2+z
1/2-x,-y,1/2+z
1/2+x,-y,1/2-z
1/2-x,y,1/2-z
1/2-x,-y,1/2-z
1/2+x,y,1/2-z
1/2-x,y,1/2+z
1/2+x,-y,1/2+z
1/2+x,1/2+y,z
1/2-x,1/2-y,z
1/2+x,1/2-y,-z
1/2-x,1/2+y,-z
1/2-x,1/2-y,-z
1/2+x,1/2+y,-z
1/2-x,1/2+y,z
1/2+x,1/2-y,z
loop_
_atom_site_type_symbol
_atom_site_label
_atom_site_fract_x
_atom_site_fract_y
_atom_site_fract_z
Si Si1 0.566307 0.776826 0.419897
Si Si2 0.868082 0.596259 0.913917
Si Si3 0.811407 0.106230 0.776143
Si Si4 0.936605 0.391536 0.719229
Si Si5 0.761058 0.143050 0.080464
O O1 0.585364 0.804007 0.500000
O O2 0.500000 0.745662 0.425496
O O3 0.602286 0.690021 0.395784
O O4 0.565724 0.853835 0.360923
O O5 0.892811 0.500000 0.887929
O O6 0.800155 0.600391 0.896576
O O7 0.871172 0.594608 0.000000
O O8 0.750000 0.146391 0.750000
O O9 0.874182 0.138682 0.749343
O O10 0.807940 0.119139 0.861087
O O11 0.809781 0.000000 0.760579
O O12 0.936236 0.500000 0.718850
O O13 0.000000 0.362772 0.749622
O O14 0.750000 0.250000 0.079587
O O15 0.774548 0.114785 0.000000
#
# Coordination Sequence:
#
# PCOD9512354 Si02
#       5
#    32  32  32  32  32
#     4   9  17  29  47  74 109 149 192 236 284 344
#     4   9  17  29  46  70 102 142 189 239 288 339
#     4  10  21  36  55  82 115 149 189 237 287 346
#     4   9  18  33  53  77 108 147 188 234 291 352
#     4  10  20  34  54  80 111 148 189 235 291 352
#
# _framework density 24.806242999999998
#
# number of rings (size 3 to 8) (size 9 to 14) (size 15 to 20)
#    0.000    2.600    0.000    1.800    0.000    4.800 
#    0.000    6.000    0.000    1.200    0.000    7.000 
#    0.000    0.000    0.000    0.000    0.000    0.200 
#
# Total GULP energy -223518.905819 kJ/mol
# GULP energy per Si atom -5587.972645 kJ/mol
# Density = 2.474978 g / cm^3
# Si number density = 24.806243 Si / 1000 Ang^3
#
#
#
# Elastic Constant Matrix: (Units=GPa)
#
#
# Indices 1 2 3 4 5 6 
#
# 1 204.2127 8.5020 36.6954 0.0000 0.0000 0.0000
# 2 8.5020 85.6323 12.0983 0.0000 0.0000 0.0000
# 3 36.6954 12.0983 107.3241 0.0000 0.0000 0.0000
# 4 0.0000 0.0000 0.0000 18.7650 0.0000 0.0000
# 5 0.0000 0.0000 0.0000 0.0000 29.1335 0.0000
# 6 0.0000 0.0000 0.0000 0.0000 0.0000 19.9339
#
#
#
# Elastic Compliance Matrix: (Units=1/GPa)
#
#
# Indices 1 2 3 4 5 6 
#
# 1 0.005224 -0.000271 -0.001755 0.000000 0.000000 0.000000
# 2 -0.000271 0.011881 -0.001247 0.000000 0.000000 0.000000
# 3 -0.001755 -0.001247 0.010058 0.000000 0.000000 0.000000
# 4 0.000000 0.000000 0.000000 0.053291 0.000000 0.000000
# 5 0.000000 0.000000 0.000000 0.000000 0.034325 0.000000
# 6 0.000000 0.000000 0.000000 0.000000 0.000000 0.050166
#
#
# Mechanical properties :
#
#
# Convention : Reuss Voigt Hill
#
# Bulk Modulus (GPa) = 48.50360 56.86229 52.68295
# Shear Modulus (GPa) = 28.03285 36.22470 32.12877
#
# Velocity S-wave (km/s) = 3.36530 3.82554 3.60278
# Velocity P-wave (km/s) = 5.89031 6.51808 6.21213
#
# Compressibility (1/GPa) = 0.02061703
#
# Stress axis : x y z
#
# Youngs Moduli (GPa) = 191.43994 84.16910 99.41996
#
# Poissons Ratio (x) = 0.02278 0.17453
# Poissons Ratio (y) = 0.05180 0.12395
# Poissons Ratio (z) = 0.33607 0.10494
#
# Static dielectric constant tensor:
#      x y z
#    x 2.021530 0.000000 0.000000 
#    y 0.000000 1.890210 0.000000 
#    z 0.000000 0.000000 2.020160 
# 
# From -- ./inp_files/31738.got.cif
#   From: 2010.05.17/outbox.cif.g08.bks.cpg/sg69_16_cif.got.tgz:31738.got - 2010.06.03 19:29:58.
