data_PCOD9512259
_publ_section_title
;
Structure prediction by ZEFSAII (Michael W. Deem and Ramdas Pophale) SiO2 
 PCOD9512259
Probable space group: F M M M
;
_chemical_formula_sum "Si O2"
_cell_formula_units_Z 176
_cell_length_a 19.375482
_cell_length_b 16.558365
_cell_length_c 29.224577
_cell_angle_alpha 90.000000
_cell_angle_beta 90.000000
_cell_angle_gamma 90.000000
_cell_volume 9376.012996
_symmetry_space_group_name_H-M "F M M M"
_symmetry_group_IT_number 69
_symmetry_cell_setting 'orthorhombic'
loop_
_space_group_symop_operation_xyz
x,y,z
-x,-y,z
x,-y,-z
-x,y,-z
-x,-y,-z
x,y,-z
-x,y,z
x,-y,z
x,1/2+y,1/2+z
-x,1/2-y,1/2+z
x,1/2-y,1/2-z
-x,1/2+y,1/2-z
-x,1/2-y,1/2-z
x,1/2+y,1/2-z
-x,1/2+y,1/2+z
x,1/2-y,1/2+z
1/2+x,y,1/2+z
1/2-x,-y,1/2+z
1/2+x,-y,1/2-z
1/2-x,y,1/2-z
1/2-x,-y,1/2-z
1/2+x,y,1/2-z
1/2-x,y,1/2+z
1/2+x,-y,1/2+z
1/2+x,1/2+y,z
1/2-x,1/2-y,z
1/2+x,1/2-y,-z
1/2-x,1/2+y,-z
1/2-x,1/2-y,-z
1/2+x,1/2+y,-z
1/2-x,1/2+y,z
1/2+x,1/2-y,z
loop_
_atom_site_type_symbol
_atom_site_label
_atom_site_fract_x
_atom_site_fract_y
_atom_site_fract_z
Si Si1 0.637000 0.095244 0.947568
Si Si2 0.653095 0.092407 0.217757
Si Si3 0.266613 0.343532 0.632563
Si Si4 0.500000 0.167009 0.091481
Si Si5 0.363627 0.594949 0.819156
Si Si6 0.500000 0.197876 0.662159
Si Si7 0.500000 0.372755 0.307165
O O1 0.694171 0.120241 0.910819
O O2 0.568242 0.145565 0.936163
O O3 0.621357 0.000000 0.942290
O O4 0.658414 0.109067 0.000000
O O5 0.684093 0.145077 0.176947
O O6 0.667589 0.119166 0.269500
O O7 0.570083 0.094228 0.213627
O O8 0.677819 0.000000 0.211288
O O9 0.250000 0.250000 0.625752
O O10 0.195637 0.388712 0.644077
O O11 0.500000 0.257258 0.112709
O O12 0.500000 0.112899 0.138061
O O13 0.379968 0.500000 0.816218
O O14 0.431739 0.645843 0.829912
O O15 0.500000 0.275280 0.695866
#
# Coordination Sequence:
#
# PCOD9512259 Si02
#       7
#    32  32  32  16  32  16  16
#     4  11  23  40  65  92 117 148 189 241 304 369
#     4  11  22  36  56  84 117 157 201 242 289 346
#     4  12  24  39  57  84 118 155 196 244 300 354
#     4  10  20  38  59  91 120 150 181 232 293 357
#     4  11  23  38  57  81 116 161 205 246 283 336
#     4  10  22  38  55  81 113 153 196 238 283 338
#     4  10  20  33  56  84 115 153 185 238 288 343
#
# _framework density 18.771305000000002
#
# number of rings (size 3 to 8) (size 9 to 14) (size 15 to 20)
#    0.545    0.545    1.818    6.000    0.000    9.091 
#    0.000    0.000    0.000    0.000    0.000    0.000 
#    0.000    7.273    0.000    0.000    0.000    0.000 
#
# Total GULP energy -245941.908326 kJ/mol
# GULP energy per Si atom -5589.588826 kJ/mol
# Density = 1.872858 g / cm^3
# Si number density = 18.771305 Si / 1000 Ang^3
#
#
#
# Elastic Constant Matrix: (Units=GPa)
#
#
# Indices 1 2 3 4 5 6 
#
# 1 88.4446 28.3920 51.6902 0.0000 0.0000 0.0000
# 2 28.3920 86.7351 47.0487 0.0000 0.0000 0.0000
# 3 51.6902 47.0487 124.6402 0.0000 0.0000 0.0000
# 4 0.0000 0.0000 0.0000 61.8111 0.0000 0.0000
# 5 0.0000 0.0000 0.0000 0.0000 -5.1703 0.0000
# 6 0.0000 0.0000 0.0000 0.0000 0.0000 35.2363
#
#
#
# Elastic Compliance Matrix: (Units=1/GPa)
#
#
# Indices 1 2 3 4 5 6 
#
# 1 0.015183 -0.001955 -0.005559 0.000000 0.000000 0.000000
# 2 -0.001955 0.014750 -0.004757 0.000000 0.000000 0.000000
# 3 -0.005559 -0.004757 0.012124 0.000000 0.000000 0.000000
# 4 0.000000 0.000000 0.000000 0.016178 0.000000 0.000000
# 5 0.000000 0.000000 0.000000 0.000000 -0.193414 0.000000
# 6 0.000000 0.000000 0.000000 0.000000 0.000000 0.028380
#
#
# Mechanical properties :
#
#
# Convention : Reuss Voigt Hill
#
# Bulk Modulus (GPa) = 57.09181 61.56463 59.32822
# Shear Modulus (GPa) = -65.42775 29.88802 -17.76986
#
# Velocity S-wave (km/s) = -5.91023 3.99459 -3.08011
# Velocity P-wave (km/s) = 4.01174 7.35827 4.36177
#
# Compressibility (1/GPa) = 0.01751565
#
# Stress axis : x y z
#
# Youngs Moduli (GPa) = 65.86457 67.79842 82.48103
#
# Poissons Ratio (x) = 0.13252 0.45848
# Poissons Ratio (y) = 0.12874 0.39236
# Poissons Ratio (z) = 0.36612 0.32252
#
# Static dielectric constant tensor:
#      x y z
#    x 1.646550 0.000000 0.000000 
#    y 0.000000 1.646180 0.000000 
#    z 0.000000 0.000000 1.641120 
# 
# From -- ./inp_files/41906.got.cif
#   From: 2010.05.17/outbox.cif.g08.bks.cpg/sg69_21_cif.got.tgz:41906.got - 2010.06.03 19:29:58.
