data_PCOD9512575
_publ_section_title
;
Structure prediction by ZEFSAII (Michael W. Deem and Ramdas Pophale) SiO2 
 PCOD9512575
Probable space group: F M M M
;
_chemical_formula_sum "Si O2"
_cell_formula_units_Z 192
_cell_length_a 20.865915
_cell_length_b 24.560739
_cell_length_c 21.622639
_cell_angle_alpha 90.000000
_cell_angle_beta 90.000000
_cell_angle_gamma 90.000000
_cell_volume 11081.219601
_symmetry_space_group_name_H-M "F M M M"
_symmetry_group_IT_number 69
_symmetry_cell_setting 'orthorhombic'
loop_
_space_group_symop_operation_xyz
x,y,z
-x,-y,z
x,-y,-z
-x,y,-z
-x,-y,-z
x,y,-z
-x,y,z
x,-y,z
x,1/2+y,1/2+z
-x,1/2-y,1/2+z
x,1/2-y,1/2-z
-x,1/2+y,1/2-z
-x,1/2-y,1/2-z
x,1/2+y,1/2-z
-x,1/2+y,1/2+z
x,1/2-y,1/2+z
1/2+x,y,1/2+z
1/2-x,-y,1/2+z
1/2+x,-y,1/2-z
1/2-x,y,1/2-z
1/2-x,-y,1/2-z
1/2+x,y,1/2-z
1/2-x,y,1/2+z
1/2+x,-y,1/2+z
1/2+x,1/2+y,z
1/2-x,1/2-y,z
1/2+x,1/2-y,-z
1/2-x,1/2+y,-z
1/2-x,1/2-y,-z
1/2+x,1/2+y,-z
1/2-x,1/2+y,z
1/2+x,1/2-y,z
loop_
_atom_site_type_symbol
_atom_site_label
_atom_site_fract_x
_atom_site_fract_y
_atom_site_fract_z
Si Si1 0.704567 0.303463 0.500000
Si Si2 0.162890 0.222706 0.816518
Si Si3 0.706554 0.829788 0.865173
Si Si4 0.071756 0.757593 0.000000
Si Si5 0.926600 0.345182 0.610249
Si Si6 0.278808 0.939145 0.180701
Si Si7 0.828145 0.061821 0.928331
O O1 0.750000 0.250000 0.500000
O O2 0.719027 0.336232 0.437774
O O3 0.630849 0.283801 0.500000
O O4 0.165151 0.250000 0.750000
O O5 0.227289 0.188839 0.832080
O O6 0.163014 0.276061 0.860029
O O7 0.104498 0.182759 0.829574
O O8 0.681248 0.884385 0.833069
O O9 0.076385 0.798161 0.941659
O O10 0.000000 0.732773 0.000000
O O11 0.882036 0.394185 0.587609
O O12 0.000000 0.361647 0.618616
O O13 0.250000 0.934974 0.250000
O O14 0.225301 0.935480 0.126055
O O15 0.307939 0.000000 0.176007
O O16 0.853819 0.000000 0.925271
O O17 0.806269 0.069522 0.000000
#
# Coordination Sequence:
#
# PCOD9512575 Si02
#       7
#    16  32  32  16  32  32  32
#     4  12  20  32  53  83 109 141 177 227 267 332
#     4  11  21  33  50  74 107 139 174 219 268 323
#     4  11  20  32  53  79 105 136 174 214 272 318
#     4  10  20  36  51  72 107 146 180 215 268 324
#     4  11  21  35  54  73 103 141 183 225 262 318
#     4  10  21  36  54  77 106 143 178 215 268 327
#     4  10  21  35  53  78 109 143 179 220 268 322
#
# _framework density 17.326612999999998
#
# number of rings (size 3 to 8) (size 9 to 14) (size 15 to 20)
#    0.000    1.333    5.833    2.000    1.167    0.667 
#    0.000    0.833    0.000    0.000    0.000    0.000 
#    0.000    3.333    0.000    0.000    0.000    0.000 
#
# Total GULP energy -267538.477066 kJ/mol
# GULP energy per Si atom -5573.718272 kJ/mol
# Density = 1.728718 g / cm^3
# Si number density = 17.326613 Si / 1000 Ang^3
#
#
#
# Elastic Constant Matrix: (Units=GPa)
#
#
# Indices 1 2 3 4 5 6 
#
# 1 53.3972 9.9135 13.8587 0.0000 0.0000 0.0000
# 2 9.9135 95.4597 21.2907 0.0000 0.0000 0.0000
# 3 13.8587 21.2907 115.2720 0.0000 0.0000 0.0000
# 4 0.0000 0.0000 0.0000 31.6547 0.0000 0.0000
# 5 0.0000 0.0000 0.0000 0.0000 7.2351 0.0000
# 6 0.0000 0.0000 0.0000 0.0000 0.0000 17.8337
#
#
#
# Elastic Compliance Matrix: (Units=1/GPa)
#
#
# Indices 1 2 3 4 5 6 
#
# 1 0.019554 -0.001571 -0.002061 0.000000 0.000000 0.000000
# 2 -0.001571 0.011052 -0.001852 0.000000 0.000000 0.000000
# 3 -0.002061 -0.001852 0.009265 0.000000 0.000000 0.000000
# 4 0.000000 0.000000 0.000000 0.031591 0.000000 0.000000
# 5 0.000000 0.000000 0.000000 0.000000 0.138215 0.000000
# 6 0.000000 0.000000 0.000000 0.000000 0.000000 0.056074
#
#
# Mechanical properties :
#
#
# Convention : Reuss Voigt Hill
#
# Bulk Modulus (GPa) = 34.59895 39.36163 36.98029
# Shear Modulus (GPa) = 17.46093 25.94911 21.70502
#
# Velocity S-wave (km/s) = 3.17796 3.87414 3.54319
# Velocity P-wave (km/s) = 5.78601 6.54054 6.17481
#
# Compressibility (1/GPa) = 0.02890261
#
# Stress axis : x y z
#
# Youngs Moduli (GPa) = 51.14022 90.48196 107.93279
#
# Poissons Ratio (x) = 0.14215 0.22242
# Poissons Ratio (y) = 0.08035 0.19993
# Poissons Ratio (z) = 0.10539 0.16761
#
# Static dielectric constant tensor:
#      x y z
#    x 1.578440 0.000000 0.000000 
#    y 0.000000 1.634010 0.000000 
#    z 0.000000 0.000000 1.667810 
# 
# From -- ./inp_files/32939.got.cif
#   From: 2010.05.17/outbox.cif.g08.bks.cpg/sg69_17_cif.got.tgz:32939.got - 2010.06.03 19:29:58.
