data_PCOD9512672
_publ_section_title
;
Structure prediction by ZEFSAII (Michael W. Deem and Ramdas Pophale) SiO2 
 PCOD9512672
Probable space group: F M M M
;
_chemical_formula_sum "Si O2"
_cell_formula_units_Z 168
_cell_length_a 21.730726
_cell_length_b 22.662671
_cell_length_c 18.573765
_cell_angle_alpha 90.000000
_cell_angle_beta 90.000000
_cell_angle_gamma 90.000000
_cell_volume 9147.138952
_symmetry_space_group_name_H-M "F M M M"
_symmetry_group_IT_number 69
_symmetry_cell_setting 'orthorhombic'
loop_
_space_group_symop_operation_xyz
x,y,z
-x,-y,z
x,-y,-z
-x,y,-z
-x,-y,-z
x,y,-z
-x,y,z
x,-y,z
x,1/2+y,1/2+z
-x,1/2-y,1/2+z
x,1/2-y,1/2-z
-x,1/2+y,1/2-z
-x,1/2-y,1/2-z
x,1/2+y,1/2-z
-x,1/2+y,1/2+z
x,1/2-y,1/2+z
1/2+x,y,1/2+z
1/2-x,-y,1/2+z
1/2+x,-y,1/2-z
1/2-x,y,1/2-z
1/2-x,-y,1/2-z
1/2+x,y,1/2-z
1/2-x,y,1/2+z
1/2+x,-y,1/2+z
1/2+x,1/2+y,z
1/2-x,1/2-y,z
1/2+x,1/2-y,-z
1/2-x,1/2+y,-z
1/2-x,1/2-y,-z
1/2+x,1/2+y,-z
1/2-x,1/2+y,z
1/2+x,1/2-y,z
loop_
_atom_site_type_symbol
_atom_site_label
_atom_site_fract_x
_atom_site_fract_y
_atom_site_fract_z
Si Si1 0.612931 0.595207 0.840121
Si Si2 0.500000 0.500000 0.850317
Si Si3 0.150764 0.429645 0.177192
Si Si4 0.074165 0.229742 0.829339
Si Si5 0.236093 0.570669 0.580153
Si Si6 0.574115 0.657241 0.582230
O O1 0.554715 0.551808 0.849163
O O2 0.642237 0.583454 0.761225
O O3 0.594335 0.663512 0.844651
O O4 0.666486 0.583714 0.897552
O O5 0.143566 0.500000 0.167672
O O6 0.215437 0.410331 0.141412
O O7 0.099612 0.393853 0.133222
O O8 0.095247 0.250000 0.750000
O O9 0.094237 0.279441 0.886175
O O10 0.000000 0.230154 0.828679
O O11 0.250585 0.593824 0.500000
O O12 0.241871 0.500000 0.577460
O O13 0.594163 0.649076 0.500000
O O14 0.500000 0.655824 0.583989
#
# Coordination Sequence:
#
# PCOD9512672 Si02
#       6
#    32   8  32  32  32  32
#     4  12  22  38  64  95 125 159 204 255 310 367
#     4  12  24  36  61 108 129 148 198 264 314 358
#     4  11  22  37  64  90 123 161 205 250 310 369
#     4  10  20  36  60  85 118 164 203 243 302 369
#     4  10  22  41  60  85 123 167 207 251 306 368
#     4  10  22  38  58  89 124 159 205 255 305 368
#
# _framework density 18.366399000000001
#
# number of rings (size 3 to 8) (size 9 to 14) (size 15 to 20)
#    0.000    1.333    4.762    1.143    1.333    3.810 
#    0.000    2.857    0.000    2.286    0.000    0.000 
#    0.000    0.000    0.000    0.000    0.000    0.000 
#
# Total GULP energy -233830.624793 kJ/mol
# GULP energy per Si atom -5567.395828 kJ/mol
# Density = 1.832460 g / cm^3
# Si number density = 18.366399 Si / 1000 Ang^3
#
#
#
# Elastic Constant Matrix: (Units=GPa)
#
#
# Indices 1 2 3 4 5 6 
#
# 1 64.9883 9.4993 14.7086 0.0000 0.0000 0.0000
# 2 9.4993 77.0650 19.2128 0.0000 0.0000 0.0000
# 3 14.7086 19.2128 47.6081 0.0000 0.0000 0.0000
# 4 0.0000 0.0000 0.0000 18.6462 0.0000 0.0000
# 5 0.0000 0.0000 0.0000 0.0000 13.5791 0.0000
# 6 0.0000 0.0000 0.0000 0.0000 0.0000 22.1773
#
#
#
# Elastic Compliance Matrix: (Units=1/GPa)
#
#
# Indices 1 2 3 4 5 6 
#
# 1 0.016595 -0.000853 -0.004783 0.000000 0.000000 0.000000
# 2 -0.000853 0.014471 -0.005577 0.000000 0.000000 0.000000
# 3 -0.004783 -0.005577 0.024733 0.000000 0.000000 0.000000
# 4 0.000000 0.000000 0.000000 0.053630 0.000000 0.000000
# 5 0.000000 0.000000 0.000000 0.000000 0.073643 0.000000
# 6 0.000000 0.000000 0.000000 0.000000 0.000000 0.045091
#
#
# Mechanical properties :
#
#
# Convention : Reuss Voigt Hill
#
# Bulk Modulus (GPa) = 29.96321 30.72255 30.34288
# Shear Modulus (GPa) = 19.10494 20.62990 19.86742
#
# Velocity S-wave (km/s) = 3.22873 3.35512 3.29253
# Velocity P-wave (km/s) = 5.49992 5.63675 5.56876
#
# Compressibility (1/GPa) = 0.03337426
#
# Stress axis : x y z
#
# Youngs Moduli (GPa) = 60.26086 69.10136 40.43195
#
# Poissons Ratio (x) = 0.05895 0.19337
# Poissons Ratio (y) = 0.05141 0.22547
# Poissons Ratio (z) = 0.28820 0.38535
#
# Static dielectric constant tensor:
#      x y z
#    x 1.626420 0.000000 0.000000 
#    y 0.000000 1.607780 0.000000 
#    z 0.000000 0.000000 1.654080 
# 
# From -- ./inp_files/31976.got.cif
#   From: 2010.05.17/outbox.cif.g08.bks.cpg/sg69_16_cif.got.tgz:31976.got - 2010.06.03 19:29:58.
