data_PCOD9512130
_publ_section_title
;
Structure prediction by ZEFSAII (Michael W. Deem and Ramdas Pophale) SiO2 
 PCOD9512130
Probable space group: F M M M
;
_chemical_formula_sum "Si O2"
_cell_formula_units_Z 192
_cell_length_a 20.850947
_cell_length_b 17.257600
_cell_length_c 23.707678
_cell_angle_alpha 90.000000
_cell_angle_beta 90.000000
_cell_angle_gamma 90.000000
_cell_volume 8530.906911
_symmetry_space_group_name_H-M "F M M M"
_symmetry_group_IT_number 69
_symmetry_cell_setting 'orthorhombic'
loop_
_space_group_symop_operation_xyz
x,y,z
-x,-y,z
x,-y,-z
-x,y,-z
-x,-y,-z
x,y,-z
-x,y,z
x,-y,z
x,1/2+y,1/2+z
-x,1/2-y,1/2+z
x,1/2-y,1/2-z
-x,1/2+y,1/2-z
-x,1/2-y,1/2-z
x,1/2+y,1/2-z
-x,1/2+y,1/2+z
x,1/2-y,1/2+z
1/2+x,y,1/2+z
1/2-x,-y,1/2+z
1/2+x,-y,1/2-z
1/2-x,y,1/2-z
1/2-x,-y,1/2-z
1/2+x,y,1/2-z
1/2-x,y,1/2+z
1/2+x,-y,1/2+z
1/2+x,1/2+y,z
1/2-x,1/2-y,z
1/2+x,1/2-y,-z
1/2-x,1/2+y,-z
1/2-x,1/2-y,-z
1/2+x,1/2+y,-z
1/2-x,1/2+y,z
1/2+x,1/2-y,z
loop_
_atom_site_type_symbol
_atom_site_label
_atom_site_fract_x
_atom_site_fract_y
_atom_site_fract_z
Si Si1 0.573820 0.908873 0.831627
Si Si2 0.792766 0.408990 0.415783
Si Si3 0.712271 0.679426 0.808596
Si Si4 0.929209 0.161519 0.793168
Si Si5 0.068929 0.591036 0.413094
Si Si6 0.151616 0.404973 0.060695
O O1 0.500000 0.901683 0.850098
O O2 0.577619 0.873467 0.769190
O O3 0.617511 0.877094 0.882191
O O4 0.588710 0.000000 0.825000
O O5 0.795194 0.500000 0.428269
O O6 0.786667 0.394310 0.348762
O O7 0.862495 0.375819 0.432810
O O8 0.725811 0.379773 0.439435
O O9 0.750000 0.665498 0.750000
O O10 0.750000 0.750000 0.836823
O O11 0.638109 0.704423 0.802271
O O12 0.930168 0.100676 0.844931
O O13 0.000000 0.200199 0.797734
O O14 0.068496 0.500000 0.426928
O O15 0.000000 0.624063 0.432086
O O16 0.150463 0.500000 0.063153
O O17 0.122197 0.383162 0.000000
#
# Coordination Sequence:
#
# PCOD9512130 Si02
#       6
#    32  32  32  32  32  32
#     4   9  16  25  40  65  95 124 154 190 233 280
#     4   9  17  29  47  68  89 121 160 192 228 278
#     4  10  20  32  45  66  97 127 152 187 232 274
#     4   9  16  27  44  65  90 121 155 186 221 272
#     4   8  13  22  39  65  94 119 145 182 225 268
#     4   9  17  28  42  62  89 121 158 198 235 271
#
# _framework density 22.506399999999999
#
# number of rings (size 3 to 8) (size 9 to 14) (size 15 to 20)
#    0.000    3.000    0.000    1.500    0.000    3.333 
#    0.000    3.333    0.000    2.000    0.000    3.500 
#    0.000    0.000    0.000    5.000    0.000    0.000 
#
# Total GULP energy -267239.650484 kJ/mol
# GULP energy per Si atom -5567.492718 kJ/mol
# Density = 2.245517 g / cm^3
# Si number density = 22.506400 Si / 1000 Ang^3
#
#
#
# Elastic Constant Matrix: (Units=GPa)
#
#
# Indices 1 2 3 4 5 6 
#
# 1 133.4411 17.3602 29.6898 0.0000 0.0000 0.0000
# 2 17.3602 9.7439 7.2971 0.0000 0.0000 0.0000
# 3 29.6898 7.2971 111.5241 0.0000 0.0000 0.0000
# 4 0.0000 0.0000 0.0000 -8.1317 0.0000 0.0000
# 5 0.0000 0.0000 0.0000 0.0000 -5.1953 0.0000
# 6 0.0000 0.0000 0.0000 0.0000 0.0000 13.1680
#
#
#
# Elastic Compliance Matrix: (Units=1/GPa)
#
#
# Indices 1 2 3 4 5 6 
#
# 1 0.010011 -0.016657 -0.001575 0.000000 0.000000 0.000000
# 2 -0.016657 0.135631 -0.004440 0.000000 0.000000 0.000000
# 3 -0.001575 -0.004440 0.009677 0.000000 0.000000 0.000000
# 4 0.000000 0.000000 0.000000 -0.122975 0.000000 0.000000
# 5 0.000000 0.000000 0.000000 0.000000 -0.192483 0.000000
# 6 0.000000 0.000000 0.000000 0.000000 0.000000 0.075942
#
#
# Mechanical properties :
#
#
# Convention : Reuss Voigt Hill
#
# Bulk Modulus (GPa) = 9.09304 40.37814 24.73559
# Shear Modulus (GPa) = -2278.90965 13.32567 -1132.79199
#
# Velocity S-wave (km/s) = -31.85528 2.43592 -22.45913
# Velocity P-wave (km/s) = 36.72823 5.08835 25.72034
#
# Compressibility (1/GPa) = 0.10997422
#
# Stress axis : x y z
#
# Youngs Moduli (GPa) = 99.88517 7.37292 103.34241
#
# Poissons Ratio (x) = 0.12281 0.16280
# Poissons Ratio (y) = 1.66381 0.45884
# Poissons Ratio (z) = 0.15735 0.03274
#
# Static dielectric constant tensor:
#      x y z
#    x 1.894050 0.000000 0.000000 
#    y 0.000000 1.851400 0.000000 
#    z 0.000000 0.000000 1.855850 
# 
# From -- ./inp_files/37364.got.cif
#   From: 2010.05.17/outbox.cif.g08.bks.cpg/sg69_19_cif.got.tgz:37364.got - 2010.06.03 19:29:58.
