data_PCOD9512268
_publ_section_title
;
Structure prediction by ZEFSAII (Michael W. Deem and Ramdas Pophale) SiO2 
 PCOD9512268
Probable space group: F M M M
;
_chemical_formula_sum "Si O2"
_cell_formula_units_Z 208
_cell_length_a 20.595096
_cell_length_b 30.621659
_cell_length_c 18.319100
_cell_angle_alpha 90.000000
_cell_angle_beta 90.000000
_cell_angle_gamma 90.000000
_cell_volume 11553.050454
_symmetry_space_group_name_H-M "F M M M"
_symmetry_group_IT_number 69
_symmetry_cell_setting 'orthorhombic'
loop_
_space_group_symop_operation_xyz
x,y,z
-x,-y,z
x,-y,-z
-x,y,-z
-x,-y,-z
x,y,-z
-x,y,z
x,-y,z
x,1/2+y,1/2+z
-x,1/2-y,1/2+z
x,1/2-y,1/2-z
-x,1/2+y,1/2-z
-x,1/2-y,1/2-z
x,1/2+y,1/2-z
-x,1/2+y,1/2+z
x,1/2-y,1/2+z
1/2+x,y,1/2+z
1/2-x,-y,1/2+z
1/2+x,-y,1/2-z
1/2-x,y,1/2-z
1/2-x,-y,1/2-z
1/2+x,y,1/2-z
1/2-x,y,1/2+z
1/2+x,-y,1/2+z
1/2+x,1/2+y,z
1/2-x,1/2-y,z
1/2+x,1/2-y,-z
1/2-x,1/2+y,-z
1/2-x,1/2-y,-z
1/2+x,1/2+y,-z
1/2-x,1/2+y,z
1/2+x,1/2-y,z
loop_
_atom_site_type_symbol
_atom_site_label
_atom_site_fract_x
_atom_site_fract_y
_atom_site_fract_z
Si Si1 0.425560 0.778974 0.363201
Si Si2 0.262719 0.108133 0.412987
Si Si3 0.819355 0.449833 0.292369
Si Si4 0.000000 0.449489 0.912817
Si Si5 0.073929 0.817197 0.297175
Si Si6 0.126432 0.905675 0.345673
Si Si7 0.715183 0.706778 0.084299
O O1 0.500000 0.787087 0.389546
O O2 0.416051 0.805545 0.287641
O O3 0.421543 0.728074 0.340838
O O4 0.362814 0.788703 0.411461
O O5 0.274903 0.106178 0.500000
O O6 0.311770 0.079564 0.364246
O O7 0.191243 0.089715 0.393991
O O8 0.266912 0.158729 0.386822
O O9 0.834530 0.500000 0.309675
O O10 0.750000 0.448857 0.250000
O O11 0.866737 0.429714 0.232084
O O12 0.935881 0.424998 0.885430
O O13 0.000000 0.500000 0.887724
O O14 0.000000 0.449362 0.000000
O O15 0.118817 0.854548 0.328284
O O16 0.000000 0.833194 0.304249
O O17 0.750000 0.750000 0.117864
O O18 0.736544 0.705641 0.000000
#
# Coordination Sequence:
#
# PCOD9512268 Si02
#       7
#    32  32  32  16  32  32  32
#     4   9  18  32  52  75 106 139 184 226 270 325
#     4  10  21  35  54  79 110 147 185 229 284 335
#     4   9  19  34  53  77 102 134 180 228 270 324
#     4  11  24  38  54  81 115 147 179 218 274 346
#     4   9  17  31  50  76 104 140 174 221 269 315
#     4  11  19  35  57  79 110 143 183 225 277 332
#     4  10  20  34  50  73 108 144 181 229 279 331
#
# _framework density 18.003903000000001
#
# number of rings (size 3 to 8) (size 9 to 14) (size 15 to 20)
#    0.000    2.231    0.769    3.692    0.000    1.231 
#    0.000    5.385    0.000    0.000    0.000    0.000 
#    0.000    1.846    0.000    0.000    0.000    0.000 
#
# Total GULP energy -289810.163730 kJ/mol
# GULP energy per Si atom -5573.272379 kJ/mol
# Density = 1.796293 g / cm^3
# Si number density = 18.003903 Si / 1000 Ang^3
#
#
#
# Elastic Constant Matrix: (Units=GPa)
#
#
# Indices 1 2 3 4 5 6 
#
# 1 68.9744 20.6626 18.4218 0.0000 0.0000 0.0000
# 2 20.6626 87.7978 39.3349 0.0000 0.0000 0.0000
# 3 18.4218 39.3349 62.3873 0.0000 0.0000 0.0000
# 4 0.0000 0.0000 0.0000 16.1095 0.0000 0.0000
# 5 0.0000 0.0000 0.0000 0.0000 18.1613 0.0000
# 6 0.0000 0.0000 0.0000 0.0000 0.0000 20.4109
#
#
#
# Elastic Compliance Matrix: (Units=1/GPa)
#
#
# Indices 1 2 3 4 5 6 
#
# 1 0.016068 -0.002308 -0.003290 0.000000 0.000000 0.000000
# 2 -0.002308 0.016205 -0.009536 0.000000 0.000000 0.000000
# 3 -0.003290 -0.009536 0.023013 0.000000 0.000000 0.000000
# 4 0.000000 0.000000 0.000000 0.062075 0.000000 0.000000
# 5 0.000000 0.000000 0.000000 0.000000 0.055062 0.000000
# 6 0.000000 0.000000 0.000000 0.000000 0.000000 0.048994
#
#
# Mechanical properties :
#
#
# Convention : Reuss Voigt Hill
#
# Bulk Modulus (GPa) = 39.96891 41.77759 40.87325
# Shear Modulus (GPa) = 19.22909 20.31901 19.77405
#
# Velocity S-wave (km/s) = 3.27165 3.36309 3.31769
# Velocity P-wave (km/s) = 6.04317 6.19158 6.11782
#
# Compressibility (1/GPa) = 0.02501945
#
# Stress axis : x y z
#
# Youngs Moduli (GPa) = 62.23529 61.70884 43.45449
#
# Poissons Ratio (x) = 0.14241 0.14295
# Poissons Ratio (y) = 0.14362 0.41438
# Poissons Ratio (z) = 0.20473 0.58845
#
# Static dielectric constant tensor:
#      x y z
#    x 1.621830 0.000000 0.000000 
#    y 0.000000 1.629610 0.000000 
#    z 0.000000 0.000000 1.603620 
# 
# From -- ./inp_files/25177.got.cif
#   From: 2010.05.17/outbox.cif.g08.bks.cpg/sg69_13_cif.got.tgz:25177.got - 2010.06.03 19:29:58.
