data_PCOD9512476
_publ_section_title
;
Structure prediction by ZEFSAII (Michael W. Deem and Ramdas Pophale) SiO2 
 PCOD9512476
Probable space group: F M M M
;
_chemical_formula_sum "Si O2"
_cell_formula_units_Z 112
_cell_length_a 14.184667
_cell_length_b 27.502986
_cell_length_c 14.641352
_cell_angle_alpha 90.000000
_cell_angle_beta 90.000000
_cell_angle_gamma 90.000000
_cell_volume 5711.894461
_symmetry_space_group_name_H-M "F M M M"
_symmetry_group_IT_number 69
_symmetry_cell_setting 'orthorhombic'
loop_
_space_group_symop_operation_xyz
x,y,z
-x,-y,z
x,-y,-z
-x,y,-z
-x,-y,-z
x,y,-z
-x,y,z
x,-y,z
x,1/2+y,1/2+z
-x,1/2-y,1/2+z
x,1/2-y,1/2-z
-x,1/2+y,1/2-z
-x,1/2-y,1/2-z
x,1/2+y,1/2-z
-x,1/2+y,1/2+z
x,1/2-y,1/2+z
1/2+x,y,1/2+z
1/2-x,-y,1/2+z
1/2+x,-y,1/2-z
1/2-x,y,1/2-z
1/2-x,-y,1/2-z
1/2+x,y,1/2-z
1/2-x,y,1/2+z
1/2+x,-y,1/2+z
1/2+x,1/2+y,z
1/2-x,1/2-y,z
1/2+x,1/2-y,-z
1/2-x,1/2+y,-z
1/2-x,1/2-y,-z
1/2+x,1/2+y,-z
1/2-x,1/2+y,z
1/2+x,1/2-y,z
loop_
_atom_site_type_symbol
_atom_site_label
_atom_site_fract_x
_atom_site_fract_y
_atom_site_fract_z
Si Si1 0.776409 0.343733 0.397175
Si Si2 0.500000 0.058607 0.896293
Si Si3 0.108134 0.307490 0.229882
Si Si4 0.291776 0.944930 0.850947
O O1 0.791119 0.325046 0.500000
O O2 0.858053 0.332562 0.324077
O O3 0.682430 0.321673 0.349065
O O4 0.761320 0.401736 0.401058
O O5 0.598292 0.070284 0.848838
O O6 0.500000 0.000000 0.902000
O O7 0.500000 0.078065 0.000000
O O8 0.114655 0.250000 0.250000
O O9 0.000000 0.319522 0.206640
O O10 0.250000 0.946171 0.750000
O O11 0.285211 0.000000 0.888914
#
# Coordination Sequence:
#
# PCOD9512476 Si02
#       4
#    32  16  32  32
#     4  11  22  37  61  90 119 151 193 241 288 346
#     4   9  18  32  52  80 110 145 193 241 280 324
#     4  10  23  43  62  84 117 152 191 242 297 352
#     4  10  20  35  55  84 121 158 193 237 288 338
#
# _framework density 19.608205000000002
#
# number of rings (size 3 to 8) (size 9 to 14) (size 15 to 20)
#    0.000    1.857    2.857    2.571    2.000    5.143 
#    0.000    2.857    0.000    0.000    0.000    2.000 
#    0.000    0.000    0.000    0.000    0.000    0.000 
#
# Total GULP energy -156210.018700 kJ/mol
# GULP energy per Si atom -5578.929239 kJ/mol
# Density = 1.956358 g / cm^3
# Si number density = 19.608205 Si / 1000 Ang^3
#
#
#
# Elastic Constant Matrix: (Units=GPa)
#
#
# Indices 1 2 3 4 5 6 
#
# 1 70.9487 3.9182 16.5334 0.0000 0.0000 0.0000
# 2 3.9182 82.3028 -5.7608 0.0000 0.0000 0.0000
# 3 16.5334 -5.7608 107.2722 0.0000 0.0000 0.0000
# 4 0.0000 0.0000 0.0000 283.4930 0.0000 0.0000
# 5 0.0000 0.0000 0.0000 0.0000 -266.3554 0.0000
# 6 0.0000 0.0000 0.0000 0.0000 0.0000 -37.6816
#
#
#
# Elastic Compliance Matrix: (Units=1/GPa)
#
#
# Indices 1 2 3 4 5 6 
#
# 1 0.014680 -0.000860 -0.002309 0.000000 0.000000 0.000000
# 2 -0.000860 0.012247 0.000790 0.000000 0.000000 0.000000
# 3 -0.002309 0.000790 0.009720 0.000000 0.000000 0.000000
# 4 0.000000 0.000000 0.000000 0.003527 0.000000 0.000000
# 5 0.000000 0.000000 0.000000 0.000000 -0.003754 0.000000
# 6 0.000000 0.000000 0.000000 0.000000 0.000000 -0.026538
#
#
# Mechanical properties :
#
#
# Convention : Reuss Voigt Hill
#
# Bulk Modulus (GPa) = 31.35864 32.21170 31.78517
# Shear Modulus (GPa) = 197.86496 12.28005 105.07250
#
# Velocity S-wave (km/s) = 10.05626 2.50526 7.32819
# Velocity P-wave (km/s) = 12.28272 4.98314 9.37275
#
# Compressibility (1/GPa) = 0.03188914
#
# Stress axis : x y z
#
# Youngs Moduli (GPa) = 68.11880 81.65577 102.87681
#
# Poissons Ratio (x) = 0.07026 0.23752
# Poissons Ratio (y) = 0.05862 -0.08130
# Poissons Ratio (z) = 0.15727 -0.06453
#
# Static dielectric constant tensor:
#      x y z
#    x 1.675850 0.000000 0.000000 
#    y 0.000000 1.746270 0.000000 
#    z 0.000000 0.000000 1.675920 
# 
# From -- ./inp_files/14240.got.cif
#   From: 2010.05.17/outbox.cif.g08.bks.cpg/sg69_8_cif.got.tgz:14240.got - 2010.06.03 19:29:58.
