data_PCOD9512886
_publ_section_title
;
Structure prediction by ZEFSAII (Michael W. Deem and Ramdas Pophale) SiO2 
 PCOD9512886
Probable space group: F M M M
;
_chemical_formula_sum "Si O2"
_cell_formula_units_Z 144
_cell_length_a 27.557996
_cell_length_b 14.630355
_cell_length_c 17.808595
_cell_angle_alpha 90.000000
_cell_angle_beta 90.000000
_cell_angle_gamma 90.000000
_cell_volume 7180.127469
_symmetry_space_group_name_H-M "F M M M"
_symmetry_group_IT_number 69
_symmetry_cell_setting 'orthorhombic'
loop_
_space_group_symop_operation_xyz
x,y,z
-x,-y,z
x,-y,-z
-x,y,-z
-x,-y,-z
x,y,-z
-x,y,z
x,-y,z
x,1/2+y,1/2+z
-x,1/2-y,1/2+z
x,1/2-y,1/2-z
-x,1/2+y,1/2-z
-x,1/2-y,1/2-z
x,1/2+y,1/2-z
-x,1/2+y,1/2+z
x,1/2-y,1/2+z
1/2+x,y,1/2+z
1/2-x,-y,1/2+z
1/2+x,-y,1/2-z
1/2-x,y,1/2-z
1/2-x,-y,1/2-z
1/2+x,y,1/2-z
1/2-x,y,1/2+z
1/2+x,-y,1/2+z
1/2+x,1/2+y,z
1/2-x,1/2-y,z
1/2+x,1/2-y,-z
1/2-x,1/2+y,-z
1/2-x,1/2-y,-z
1/2+x,1/2+y,-z
1/2-x,1/2+y,z
1/2+x,1/2-y,z
loop_
_atom_site_type_symbol
_atom_site_label
_atom_site_fract_x
_atom_site_fract_y
_atom_site_fract_z
Si Si1 0.500000 0.645201 0.227026
Si Si2 0.634187 0.206535 0.500000
Si Si3 0.500000 0.397349 0.603774
Si Si4 0.266538 0.000000 0.126446
Si Si5 0.097418 0.601310 0.639612
Si Si6 0.241712 0.642129 0.500000
Si Si7 0.586986 0.889085 0.000000
Si Si8 0.828727 0.500000 0.730784
O O1 0.500000 0.750000 0.250000
O O2 0.500000 0.599591 0.307848
O O3 0.547251 0.620722 0.180211
O O4 0.608620 0.174263 0.576341
O O5 0.683236 0.145394 0.500000
O O6 0.632022 0.318004 0.500000
O O7 0.500000 0.500000 0.575856
O O8 0.550806 0.362769 0.569407
O O9 0.261969 0.087934 0.072177
O O10 0.219369 0.000000 0.179960
O O11 0.312531 0.000000 0.182547
O O12 0.095534 0.500000 0.603446
O O13 0.138830 0.586432 0.703652
O O14 0.250000 0.750000 0.500000
O O15 0.598779 0.000000 0.000000
#
# Coordination Sequence:
#
# PCOD9512886 Si02
#       8
#    16  16  16  16  32  16  16  16
#     4  12  23  38  55  90 138 184 216 272 325 394
#     4  12  21  41  65  96 131 170 223 279 338 412
#     4   9  18  38  59  77 117 176 223 273 329 370
#     4  10  20  46  74  95 133 170 218 278 351 404
#     4  10  22  39  65  97 130 173 224 271 340 397
#     4  11  23  43  68  99 134 171 216 282 348 406
#     4   9  20  38  62  90 124 175 229 272 327 402
#     4   9  20  41  72  98 126 172 221 275 345 403
#
# _framework density 20.055354999999999
#
# number of rings (size 3 to 8) (size 9 to 14) (size 15 to 20)
#    0.667    1.111    2.222    3.333    1.556    1.333 
#   10.000    3.333    0.000    0.000    0.000    0.000 
#    0.000    0.000    0.000    0.000    0.000    0.000 
#
# Total GULP energy -200478.486081 kJ/mol
# GULP energy per Si atom -5568.846836 kJ/mol
# Density = 2.000971 g / cm^3
# Si number density = 20.055355 Si / 1000 Ang^3
#
#
#
# Elastic Constant Matrix: (Units=GPa)
#
#
# Indices 1 2 3 4 5 6 
#
# 1 94.3908 27.4011 66.3146 0.0000 0.0000 0.0000
# 2 27.4011 136.7886 48.5494 0.0000 0.0000 0.0000
# 3 66.3146 48.5494 155.1348 0.0000 0.0000 0.0000
# 4 0.0000 0.0000 0.0000 20.9455 0.0000 0.0000
# 5 0.0000 0.0000 0.0000 0.0000 36.1491 0.0000
# 6 0.0000 0.0000 0.0000 0.0000 0.0000 14.0873
#
#
#
# Elastic Compliance Matrix: (Units=1/GPa)
#
#
# Indices 1 2 3 4 5 6 
#
# 1 0.015225 -0.000832 -0.006248 0.000000 0.000000 0.000000
# 2 -0.000832 0.008270 -0.002232 0.000000 0.000000 0.000000
# 3 -0.006248 -0.002232 0.009815 0.000000 0.000000 0.000000
# 4 0.000000 0.000000 0.000000 0.047743 0.000000 0.000000
# 5 0.000000 0.000000 0.000000 0.000000 0.027663 0.000000
# 6 0.000000 0.000000 0.000000 0.000000 0.000000 0.070986
#
#
# Mechanical properties :
#
#
# Convention : Reuss Voigt Hill
#
# Bulk Modulus (GPa) = 68.09452 74.53826 71.31639
# Shear Modulus (GPa) = 24.60368 30.50634 27.55501
#
# Velocity S-wave (km/s) = 3.50635 3.90437 3.71070
# Velocity P-wave (km/s) = 7.10068 7.58765 7.34820
#
# Compressibility (1/GPa) = 0.01468547
#
# Stress axis : x y z
#
# Youngs Moduli (GPa) = 65.68022 120.92588 101.88236
#
# Poissons Ratio (x) = 0.10066 0.63654
# Poissons Ratio (y) = 0.05467 0.22741
# Poissons Ratio (z) = 0.41035 0.26992
#
# Static dielectric constant tensor:
#      x y z
#    x 1.807630 0.000000 0.000000 
#    y 0.000000 1.713320 0.000000 
#    z 0.000000 0.000000 1.689700 
# 
# From -- ./inp_files/27474.got.cif
#   From: 2010.05.17/outbox.cif.g08.bks.cpg/sg69_14_cif.got.tgz:27474.got - 2010.06.03 19:29:58.
