data_PCOD9512495
_publ_section_title
;
Structure prediction by ZEFSAII (Michael W. Deem and Ramdas Pophale) SiO2 
 PCOD9512495
Probable space group: F M M M
;
_chemical_formula_sum "Si O2"
_cell_formula_units_Z 192
_cell_length_a 28.339413
_cell_length_b 20.302220
_cell_length_c 19.373308
_cell_angle_alpha 90.000000
_cell_angle_beta 90.000000
_cell_angle_gamma 90.000000
_cell_volume 11146.490827
_symmetry_space_group_name_H-M "F M M M"
_symmetry_group_IT_number 69
_symmetry_cell_setting 'orthorhombic'
loop_
_space_group_symop_operation_xyz
x,y,z
-x,-y,z
x,-y,-z
-x,y,-z
-x,-y,-z
x,y,-z
-x,y,z
x,-y,z
x,1/2+y,1/2+z
-x,1/2-y,1/2+z
x,1/2-y,1/2-z
-x,1/2+y,1/2-z
-x,1/2-y,1/2-z
x,1/2+y,1/2-z
-x,1/2+y,1/2+z
x,1/2-y,1/2+z
1/2+x,y,1/2+z
1/2-x,-y,1/2+z
1/2+x,-y,1/2-z
1/2-x,y,1/2-z
1/2-x,-y,1/2-z
1/2+x,y,1/2-z
1/2-x,y,1/2+z
1/2+x,-y,1/2+z
1/2+x,1/2+y,z
1/2-x,1/2-y,z
1/2+x,1/2-y,-z
1/2-x,1/2+y,-z
1/2-x,1/2-y,-z
1/2+x,1/2+y,-z
1/2-x,1/2+y,z
1/2+x,1/2-y,z
loop_
_atom_site_type_symbol
_atom_site_label
_atom_site_fract_x
_atom_site_fract_y
_atom_site_fract_z
Si Si1 0.390282 0.758923 0.079700
Si Si2 0.197290 0.223553 0.672398
Si Si3 0.698559 0.424901 0.715867
Si Si4 0.055688 0.687055 0.798001
Si Si5 0.444418 0.379917 0.078811
Si Si6 0.398473 0.927793 0.711958
O O1 0.340257 0.749059 0.117666
O O2 0.417660 0.809002 0.129482
O O3 0.422216 0.693127 0.081267
O O4 0.384733 0.778622 0.000000
O O5 0.185628 0.250000 0.750000
O O6 0.250000 0.250000 0.658337
O O7 0.195008 0.143277 0.672536
O O8 0.693417 0.500000 0.685281
O O9 0.750000 0.422625 0.750000
O O10 0.656982 0.419050 0.772737
O O11 0.067569 0.750000 0.750000
O O12 0.073235 0.625497 0.754968
O O13 0.000000 0.686857 0.808711
O O14 0.500000 0.378275 0.097976
O O15 0.414167 0.420587 0.133158
O O16 0.441136 0.403776 0.000000
O O17 0.411522 0.000000 0.737048
#
# Coordination Sequence:
#
# PCOD9512495 Si02
#       6
#    32  32  32  32  32  32
#     4  11  22  36  56  83 118 153 188 232 285 340
#     4  11  20  34  60  88 113 144 186 239 288 333
#     4  10  20  35  56  83 112 144 184 230 284 343
#     4  11  21  35  58  82 110 148 192 241 284 329
#     4  10  21  36  54  81 120 161 193 229 287 353
#     4  11  22  36  58  86 115 150 191 239 287 336
#
# _framework density 17.225152999999999
#
# number of rings (size 3 to 8) (size 9 to 14) (size 15 to 20)
#    0.000    1.333    5.000    2.500    0.000    3.000 
#    0.000    0.833    0.000    2.000    0.000    1.167 
#    0.000    0.000    0.000    0.000    0.000    0.000 
#
# Total GULP energy -267674.598953 kJ/mol
# GULP energy per Si atom -5576.554145 kJ/mol
# Density = 1.718595 g / cm^3
# Si number density = 17.225153 Si / 1000 Ang^3
#
#
#
# Elastic Constant Matrix: (Units=GPa)
#
#
# Indices 1 2 3 4 5 6 
#
# 1 113.8076 23.6937 53.1978 0.0000 0.0000 0.0000
# 2 23.6937 93.6058 23.4157 0.0000 0.0000 0.0000
# 3 53.1978 23.4157 95.4393 0.0000 0.0000 0.0000
# 4 0.0000 0.0000 0.0000 17.6120 0.0000 0.0000
# 5 0.0000 0.0000 0.0000 0.0000 22.4507 0.0000
# 6 0.0000 0.0000 0.0000 0.0000 0.0000 32.0675
#
#
#
# Elastic Compliance Matrix: (Units=1/GPa)
#
#
# Indices 1 2 3 4 5 6 
#
# 1 0.012068 -0.001462 -0.006368 0.000000 0.000000 0.000000
# 2 -0.001462 0.011559 -0.002021 0.000000 0.000000 0.000000
# 3 -0.006368 -0.002021 0.014523 0.000000 0.000000 0.000000
# 4 0.000000 0.000000 0.000000 0.056780 0.000000 0.000000
# 5 0.000000 0.000000 0.000000 0.000000 0.044542 0.000000
# 6 0.000000 0.000000 0.000000 0.000000 0.000000 0.031184
#
#
# Mechanical properties :
#
#
# Convention : Reuss Voigt Hill
#
# Bulk Modulus (GPa) = 54.20604 55.94081 55.07342
# Shear Modulus (GPa) = 25.44449 27.92905 26.68677
#
# Velocity S-wave (km/s) = 3.84757 4.03104 3.94037
# Velocity P-wave (km/s) = 7.16071 7.36291 7.26252
#
# Compressibility (1/GPa) = 0.01844813
#
# Stress axis : x y z
#
# Youngs Moduli (GPa) = 82.86618 86.51518 68.85534
#
# Poissons Ratio (x) = 0.12645 0.43846
# Poissons Ratio (y) = 0.12112 0.13917
# Poissons Ratio (z) = 0.52768 0.17486
#
# Static dielectric constant tensor:
#      x y z
#    x 1.591380 0.000000 0.000000 
#    y 0.000000 1.625960 0.000000 
#    z 0.000000 0.000000 1.660970 
# 
# From -- ./inp_files/33536.got.cif
#   From: 2010.05.17/outbox.cif.g08.bks.cpg/sg69_17_cif.got.tgz:33536.got - 2010.06.03 19:29:58.
