data_PCOD9512260
_publ_section_title
;
Structure prediction by ZEFSAII (Michael W. Deem and Ramdas Pophale) SiO2 
 PCOD9512260
Probable space group: F M M M
;
_chemical_formula_sum "Si O2"
_cell_formula_units_Z 160
_cell_length_a 8.085060
_cell_length_b 31.752859
_cell_length_c 31.686820
_cell_angle_alpha 90.000000
_cell_angle_beta 90.000000
_cell_angle_gamma 90.000000
_cell_volume 8134.759896
_symmetry_space_group_name_H-M "F M M M"
_symmetry_group_IT_number 69
_symmetry_cell_setting 'orthorhombic'
loop_
_space_group_symop_operation_xyz
x,y,z
-x,-y,z
x,-y,-z
-x,y,-z
-x,-y,-z
x,y,-z
-x,y,z
x,-y,z
x,1/2+y,1/2+z
-x,1/2-y,1/2+z
x,1/2-y,1/2-z
-x,1/2+y,1/2-z
-x,1/2-y,1/2-z
x,1/2+y,1/2-z
-x,1/2+y,1/2+z
x,1/2-y,1/2+z
1/2+x,y,1/2+z
1/2-x,-y,1/2+z
1/2+x,-y,1/2-z
1/2-x,y,1/2-z
1/2-x,-y,1/2-z
1/2+x,y,1/2-z
1/2-x,y,1/2+z
1/2+x,-y,1/2+z
1/2+x,1/2+y,z
1/2-x,1/2-y,z
1/2+x,1/2-y,-z
1/2-x,1/2+y,-z
1/2-x,1/2-y,-z
1/2+x,1/2+y,-z
1/2-x,1/2+y,z
1/2+x,1/2-y,z
loop_
_atom_site_type_symbol
_atom_site_label
_atom_site_fract_x
_atom_site_fract_y
_atom_site_fract_z
Si Si1 0.806546 0.793777 0.134487
Si Si2 0.000000 0.045253 0.113763
Si Si3 0.306681 0.046784 0.177420
Si Si4 0.314214 0.677457 0.453145
Si Si5 0.305052 0.640828 0.296064
Si Si6 0.000000 0.616286 0.545817
O O1 0.750000 0.750000 0.155472
O O2 0.709460 0.797009 0.090041
O O3 0.774669 0.833149 0.165510
O O4 0.000000 0.792372 0.124836
O O5 0.834141 0.046934 0.141828
O O6 0.000000 0.083617 0.082755
O O7 0.000000 0.000000 0.091483
O O8 0.500000 0.049454 0.163143
O O9 0.272950 0.090425 0.201651
O O10 0.291766 0.000000 0.198294
O O11 0.301039 0.698437 0.500000
O O12 0.500000 0.659049 0.451613
O O13 0.164513 0.644498 0.451610
O O14 0.500000 0.646862 0.300363
O O15 0.250000 0.656072 0.250000
O O16 0.000000 0.595260 0.500000
#
# Coordination Sequence:
#
# PCOD9512260 Si02
#       6
#    32  16  32  32  32  16
#     4  12  25  42  64  90 124 163 209 258 311 369
#     4  10  20  33  56  84 115 159 203 249 304 364
#     4   9  20  38  60  89 122 157 201 253 308 366
#     4  10  21  39  63  92 123 158 202 253 312 370
#     4  11  24  41  63  90 123 164 210 257 312 368
#     4  10  20  35  56  84 119 159 203 251 304 364
#
# _framework density 19.668682
#
# number of rings (size 3 to 8) (size 9 to 14) (size 15 to 20)
#    0.000    1.600    1.000    3.600    2.800    3.800 
#    0.000    2.000    0.000    0.000    0.000    5.600 
#    0.000    0.000    0.000    0.000    0.000    0.000 
#
# Total GULP energy -222929.804341 kJ/mol
# GULP energy per Si atom -5573.245109 kJ/mol
# Density = 1.962392 g / cm^3
# Si number density = 19.668682 Si / 1000 Ang^3
#
#
#
# Elastic Constant Matrix: (Units=GPa)
#
#
# Indices 1 2 3 4 5 6 
#
# 1 113.8455 44.5071 37.3106 0.0000 0.0000 0.0000
# 2 44.5071 89.3549 48.6685 0.0000 0.0000 0.0000
# 3 37.3106 48.6685 92.5743 0.0000 0.0000 0.0000
# 4 0.0000 0.0000 0.0000 -3.8555 0.0000 0.0000
# 5 0.0000 0.0000 0.0000 0.0000 26.0317 0.0000
# 6 0.0000 0.0000 0.0000 0.0000 0.0000 30.2590
#
#
#
# Elastic Compliance Matrix: (Units=1/GPa)
#
#
# Indices 1 2 3 4 5 6 
#
# 1 0.011224 -0.004381 -0.002220 0.000000 0.000000 0.000000
# 2 -0.004381 0.017392 -0.007377 0.000000 0.000000 0.000000
# 3 -0.002220 -0.007377 0.015576 0.000000 0.000000 0.000000
# 4 0.000000 0.000000 0.000000 -0.259373 0.000000 0.000000
# 5 0.000000 0.000000 0.000000 0.000000 0.038415 0.000000
# 6 0.000000 0.000000 0.000000 0.000000 0.000000 0.033048
#
#
# Mechanical properties :
#
#
# Convention : Reuss Voigt Hill
#
# Bulk Modulus (GPa) = 61.60189 61.86079 61.73134
# Shear Modulus (GPa) = -45.31109 21.50630 -11.90240
#
# Velocity S-wave (km/s) = -4.80491 3.31029 -2.46264
# Velocity P-wave (km/s) = 0.77773 6.79194 4.83401
#
# Compressibility (1/GPa) = 0.01623327
#
# Stress axis : x y z
#
# Youngs Moduli (GPa) = 89.09148 57.49786 64.20324
#
# Poissons Ratio (x) = 0.25192 0.14256
# Poissons Ratio (y) = 0.39035 0.47366
# Poissons Ratio (z) = 0.19782 0.42419
#
# Static dielectric constant tensor:
#      x y z
#    x 1.724510 0.000000 0.000000 
#    y 0.000000 1.711680 0.000000 
#    z 0.000000 0.000000 1.703200 
# 
# From -- ./inp_files/44598.got.cif
#   From: 2010.05.17/outbox.cif.g08.bks.cpg/sg69_23_cif.got.tgz:44598.got - 2010.06.03 19:29:58.
