data_PCOD9512056
_publ_section_title
;
Structure prediction by ZEFSAII (Michael W. Deem and Ramdas Pophale) SiO2 
 PCOD9512056
Probable space group: F M M M
;
_chemical_formula_sum "Si O2"
_cell_formula_units_Z 192
_cell_length_a 20.674310
_cell_length_b 27.904115
_cell_length_c 17.842017
_cell_angle_alpha 90.000000
_cell_angle_beta 90.000000
_cell_angle_gamma 90.000000
_cell_volume 10293.029700
_symmetry_space_group_name_H-M "F M M M"
_symmetry_group_IT_number 69
_symmetry_cell_setting 'orthorhombic'
loop_
_space_group_symop_operation_xyz
x,y,z
-x,-y,z
x,-y,-z
-x,y,-z
-x,-y,-z
x,y,-z
-x,y,z
x,-y,z
x,1/2+y,1/2+z
-x,1/2-y,1/2+z
x,1/2-y,1/2-z
-x,1/2+y,1/2-z
-x,1/2-y,1/2-z
x,1/2+y,1/2-z
-x,1/2+y,1/2+z
x,1/2-y,1/2+z
1/2+x,y,1/2+z
1/2-x,-y,1/2+z
1/2+x,-y,1/2-z
1/2-x,y,1/2-z
1/2-x,-y,1/2-z
1/2+x,y,1/2-z
1/2-x,y,1/2+z
1/2+x,-y,1/2+z
1/2+x,1/2+y,z
1/2-x,1/2-y,z
1/2+x,1/2-y,-z
1/2-x,1/2+y,-z
1/2-x,1/2-y,-z
1/2+x,1/2+y,-z
1/2-x,1/2+y,z
1/2+x,1/2-y,z
loop_
_atom_site_type_symbol
_atom_site_label
_atom_site_fract_x
_atom_site_fract_y
_atom_site_fract_z
Si Si1 0.306464 0.210386 0.911665
Si Si2 0.743341 0.386222 0.661191
Si Si3 0.883604 0.381328 0.409980
Si Si4 0.000000 0.558164 0.831133
Si Si5 0.629953 0.942335 0.086245
Si Si6 0.000000 0.557519 0.655163
Si Si7 0.926795 0.726327 0.408835
O O1 0.250000 0.250000 0.907042
O O2 0.285628 0.164900 0.864012
O O3 0.373084 0.235117 0.885871
O O4 0.311934 0.196972 0.000000
O O5 0.750000 0.389430 0.750000
O O6 0.813576 0.391689 0.623985
O O7 0.692911 0.424603 0.629333
O O8 0.880135 0.382424 0.500000
O O9 0.937091 0.418663 0.381962
O O10 0.905403 0.327451 0.387379
O O11 0.064863 0.575109 0.872539
O O12 0.000000 0.500000 0.836147
O O13 0.000000 0.569765 0.743510
O O14 0.628452 0.000000 0.086024
O O15 0.630949 0.925860 0.000000
O O16 0.000000 0.500000 0.646866
O O17 0.926720 0.726853 0.500000
O O18 0.000000 0.735966 0.383487
#
# Coordination Sequence:
#
# PCOD9512056 Si02
#       7
#    32  32  32  16  32  16  32
#     4  10  19  36  61  85 114 155 206 253 299 362
#     4  12  25  39  59  89 127 164 199 256 320 374
#     4  11  21  37  60  83 116 164 212 249 301 372
#     4   9  19  39  63  86 121 162 194 239 312 371
#     4  10  21  40  66  92 118 157 211 257 297 362
#     4  11  23  37  59  94 131 162 199 252 311 378
#     4   9  17  33  58  84 109 150 200 250 302 356
#
# _framework density 18.653399
#
# number of rings (size 3 to 8) (size 9 to 14) (size 15 to 20)
#    0.000    1.667    2.500    3.000    0.000    3.000 
#    1.500    0.000    0.000    1.000    0.000    0.000 
#    0.000    0.000    0.000    0.000    0.000    0.000 
#
# Total GULP energy -268138.609485 kJ/mol
# GULP energy per Si atom -5586.221031 kJ/mol
# Density = 1.861094 g / cm^3
# Si number density = 18.653399 Si / 1000 Ang^3
#
#
#
# Elastic Constant Matrix: (Units=GPa)
#
#
# Indices 1 2 3 4 5 6 
#
# 1 202.5465 49.2036 71.7457 0.0000 0.0000 0.0000
# 2 49.2036 49.8751 35.2408 0.0000 0.0000 0.0000
# 3 71.7457 35.2408 118.6606 0.0000 0.0000 0.0000
# 4 0.0000 0.0000 0.0000 21.1938 0.0000 0.0000
# 5 0.0000 0.0000 0.0000 0.0000 22.0198 0.0000
# 6 0.0000 0.0000 0.0000 0.0000 0.0000 35.5365
#
#
#
# Elastic Compliance Matrix: (Units=1/GPa)
#
#
# Indices 1 2 3 4 5 6 
#
# 1 0.007173 -0.005077 -0.002829 0.000000 0.000000 0.000000
# 2 -0.005077 0.028969 -0.005534 0.000000 0.000000 0.000000
# 3 -0.002829 -0.005534 0.011781 0.000000 0.000000 0.000000
# 4 0.000000 0.000000 0.000000 0.047184 0.000000 0.000000
# 5 0.000000 0.000000 0.000000 0.000000 0.045414 0.000000
# 6 0.000000 0.000000 0.000000 0.000000 0.000000 0.028140
#
#
# Mechanical properties :
#
#
# Convention : Reuss Voigt Hill
#
# Bulk Modulus (GPa) = 47.52096 75.94026 61.73061
# Shear Modulus (GPa) = 24.68481 30.07616 27.38048
#
# Velocity S-wave (km/s) = 3.64172 4.01979 3.83542
# Velocity P-wave (km/s) = 6.57373 7.89585 7.26493
#
# Compressibility (1/GPa) = 0.02104334
#
# Stress axis : x y z
#
# Youngs Moduli (GPa) = 139.42057 34.51984 84.88073
#
# Poissons Ratio (x) = 0.17526 0.24012
# Poissons Ratio (y) = 0.70786 0.46970
# Poissons Ratio (z) = 0.39440 0.19102
#
# Static dielectric constant tensor:
#      x y z
#    x 1.628800 0.000000 0.000000 
#    y 0.000000 1.638230 0.000000 
#    z 0.000000 0.000000 1.625380 
# 
# From -- ./inp_files/23727.got.cif
#   From: 2010.05.17/outbox.cif.g08.bks.cpg/sg69_12_cif.got.tgz:23727.got - 2010.06.03 19:29:58.
