data_PCOD9512239
_publ_section_title
;
Structure prediction by ZEFSAII (Michael W. Deem and Ramdas Pophale) SiO2 
 PCOD9512239
Probable space group: F M M M
;
_chemical_formula_sum "Si O2"
_cell_formula_units_Z 176
_cell_length_a 21.462133
_cell_length_b 18.053132
_cell_length_c 26.804472
_cell_angle_alpha 90.000000
_cell_angle_beta 90.000000
_cell_angle_gamma 90.000000
_cell_volume 10385.626413
_symmetry_space_group_name_H-M "F M M M"
_symmetry_group_IT_number 69
_symmetry_cell_setting 'orthorhombic'
loop_
_space_group_symop_operation_xyz
x,y,z
-x,-y,z
x,-y,-z
-x,y,-z
-x,-y,-z
x,y,-z
-x,y,z
x,-y,z
x,1/2+y,1/2+z
-x,1/2-y,1/2+z
x,1/2-y,1/2-z
-x,1/2+y,1/2-z
-x,1/2-y,1/2-z
x,1/2+y,1/2-z
-x,1/2+y,1/2+z
x,1/2-y,1/2+z
1/2+x,y,1/2+z
1/2-x,-y,1/2+z
1/2+x,-y,1/2-z
1/2-x,y,1/2-z
1/2-x,-y,1/2-z
1/2+x,y,1/2-z
1/2-x,y,1/2+z
1/2+x,-y,1/2+z
1/2+x,1/2+y,z
1/2-x,1/2-y,z
1/2+x,1/2-y,-z
1/2-x,1/2+y,-z
1/2-x,1/2-y,-z
1/2+x,1/2+y,-z
1/2-x,1/2+y,z
1/2+x,1/2-y,z
loop_
_atom_site_type_symbol
_atom_site_label
_atom_site_fract_x
_atom_site_fract_y
_atom_site_fract_z
Si Si1 0.071249 0.588542 0.704042
Si Si2 0.746989 0.086307 0.058673
Si Si3 0.125571 0.355144 0.600771
Si Si4 0.180888 0.336100 0.766413
Si Si5 0.426718 0.083493 0.500000
Si Si6 0.814477 0.703656 0.121514
O O1 0.072955 0.500000 0.707767
O O2 0.089878 0.611811 0.647945
O O3 0.124406 0.622538 0.739439
O O4 0.000000 0.613050 0.715005
O O5 0.807250 0.105524 0.092351
O O6 0.695254 0.143451 0.078313
O O7 0.730762 0.000000 0.064196
O O8 0.760944 0.100128 0.000000
O O9 0.091832 0.373407 0.549456
O O10 0.136383 0.267887 0.609344
O O11 0.178125 0.250000 0.750000
O O12 0.250000 0.363441 0.750000
O O13 0.174391 0.336403 0.825996
O O14 0.500000 0.075120 0.500000
O O15 0.397915 0.000000 0.500000
O O16 0.750000 0.750000 0.127279
#
# Coordination Sequence:
#
# PCOD9512239 Si02
#       6
#    32  32  32  32  16  32
#     4  11  24  39  57  84 117 152 191 234 283 343
#     4  10  20  33  53  82 114 146 183 229 283 338
#     4  11  20  34  54  77 109 147 185 223 274 335
#     4  11  19  38  59  82 111 145 190 233 279 333
#     4  11  22  34  49  70 103 141 178 221 264 324
#     4  10  20  33  55  81 110 142 181 231 282 331
#
# _framework density 16.946498999999999
#
# number of rings (size 3 to 8) (size 9 to 14) (size 15 to 20)
#    0.000    1.364    4.545    3.273    1.273    4.000 
#    0.000    0.000    0.000    0.000    0.000    0.000 
#    0.000    0.727    0.000    0.000    0.000    0.000 
#
# Total GULP energy -245502.053367 kJ/mol
# GULP energy per Si atom -5579.592122 kJ/mol
# Density = 1.690793 g / cm^3
# Si number density = 16.946499 Si / 1000 Ang^3
#
#
#
# Elastic Constant Matrix: (Units=GPa)
#
#
# Indices 1 2 3 4 5 6 
#
# 1 98.4150 53.4417 47.9142 0.0000 0.0000 0.0000
# 2 53.4417 75.8042 47.9047 0.0000 0.0000 0.0000
# 3 47.9142 47.9047 105.2950 0.0000 0.0000 0.0000
# 4 0.0000 0.0000 0.0000 23.1545 0.0000 0.0000
# 5 0.0000 0.0000 0.0000 0.0000 -17.9822 0.0000
# 6 0.0000 0.0000 0.0000 0.0000 0.0000 26.1146
#
#
#
# Elastic Compliance Matrix: (Units=1/GPa)
#
#
# Indices 1 2 3 4 5 6 
#
# 1 0.017220 -0.010089 -0.003246 0.000000 0.000000 0.000000
# 2 -0.010089 0.024426 -0.006522 0.000000 0.000000 0.000000
# 3 -0.003246 -0.006522 0.013941 0.000000 0.000000 0.000000
# 4 0.000000 0.000000 0.000000 0.043188 0.000000 0.000000
# 5 0.000000 0.000000 0.000000 0.000000 -0.055611 0.000000
# 6 0.000000 0.000000 0.000000 0.000000 0.000000 0.038293
#
#
# Mechanical properties :
#
#
# Convention : Reuss Voigt Hill
#
# Bulk Modulus (GPa) = 62.99574 64.22615 63.61094
# Shear Modulus (GPa) = 39.53782 14.94098 27.23940
#
# Velocity S-wave (km/s) = 4.83545 2.97249 4.01356
# Velocity P-wave (km/s) = 8.27221 7.05426 7.68739
#
# Compressibility (1/GPa) = 0.01587409
#
# Stress axis : x y z
#
# Youngs Moduli (GPa) = 58.07314 40.94027 71.72902
#
# Poissons Ratio (x) = 0.41303 0.23283
# Poissons Ratio (y) = 0.58587 0.46781
# Poissons Ratio (z) = 0.18850 0.26701
#
# Static dielectric constant tensor:
#      x y z
#    x 1.593000 0.000000 0.000000 
#    y 0.000000 1.570860 0.000000 
#    z 0.000000 0.000000 1.573880 
# 
# From -- ./inp_files/41825.got.cif
#   From: 2010.05.17/outbox.cif.g08.bks.cpg/sg69_21_cif.got.tgz:41825.got - 2010.06.03 19:29:58.
