data_PCOD9512867
_publ_section_title
;
Structure prediction by ZEFSAII (Michael W. Deem and Ramdas Pophale) SiO2 
 PCOD9512867
Probable space group: F M M M
;
_chemical_formula_sum "Si O2"
_cell_formula_units_Z 88
_cell_length_a 27.642099
_cell_length_b 9.886404
_cell_length_c 15.719541
_cell_angle_alpha 90.000000
_cell_angle_beta 90.000000
_cell_angle_gamma 90.000000
_cell_volume 4295.851226
_symmetry_space_group_name_H-M "F M M M"
_symmetry_group_IT_number 69
_symmetry_cell_setting 'orthorhombic'
loop_
_space_group_symop_operation_xyz
x,y,z
-x,-y,z
x,-y,-z
-x,y,-z
-x,-y,-z
x,y,-z
-x,y,z
x,-y,z
x,1/2+y,1/2+z
-x,1/2-y,1/2+z
x,1/2-y,1/2-z
-x,1/2+y,1/2-z
-x,1/2-y,1/2-z
x,1/2+y,1/2-z
-x,1/2+y,1/2+z
x,1/2-y,1/2+z
1/2+x,y,1/2+z
1/2-x,-y,1/2+z
1/2+x,-y,1/2-z
1/2-x,y,1/2-z
1/2-x,-y,1/2-z
1/2+x,y,1/2-z
1/2-x,y,1/2+z
1/2+x,-y,1/2+z
1/2+x,1/2+y,z
1/2-x,1/2-y,z
1/2+x,1/2-y,-z
1/2-x,1/2+y,-z
1/2-x,1/2-y,-z
1/2+x,1/2+y,-z
1/2-x,1/2+y,z
1/2+x,1/2-y,z
loop_
_atom_site_type_symbol
_atom_site_label
_atom_site_fract_x
_atom_site_fract_y
_atom_site_fract_z
Si Si1 0.861343 0.000000 0.000000
Si Si2 0.250000 0.750000 0.250000
Si Si3 0.109658 0.700954 0.000000
Si Si4 0.302317 0.000000 0.000000
Si Si5 0.719264 0.000000 0.358782
Si Si6 0.943376 0.346979 0.176649
O O1 0.826637 0.000000 0.081306
O O2 0.890085 0.862071 0.000000
O O3 0.279796 0.859331 0.306014
O O4 0.083358 0.658488 0.913319
O O5 0.162541 0.630559 0.000000
O O6 0.267474 0.000000 0.082150
O O7 0.940838 0.500000 0.209028
O O8 0.923382 0.250000 0.250000
O O9 0.000000 0.312330 0.162513
#
# Coordination Sequence:
#
# PCOD9512867 Si02
#       6
#     8   8  16   8  16  32
#     4  11  26  42  59  88 134 164 209 254 316 363
#     4  10  20  40  68  90 108 156 222 246 316 364
#     4  12  23  42  62  99 123 175 205 266 307 376
#     4  11  22  42  65  84 126 162 211 250 320 371
#     4  10  22  44  62  88 122 168 202 258 308 384
#     4  10  22  43  67  93 127 166 209 257 316 378
#
# _framework density 20.484881000000001
#
# number of rings (size 3 to 8) (size 9 to 14) (size 15 to 20)
#    0.000    1.455    1.818    2.727    2.545    4.364 
#   19.636    0.909    0.000    0.000    0.000    0.000 
#    0.000    0.000    0.000    0.000    0.000    0.000 
#
# Total GULP energy -122888.474665 kJ/mol
# GULP energy per Si atom -5585.839758 kJ/mol
# Density = 2.043826 g / cm^3
# Si number density = 20.484881 Si / 1000 Ang^3
#
#
#
# Elastic Constant Matrix: (Units=GPa)
#
#
# Indices 1 2 3 4 5 6 
#
# 1 36.1562 15.4969 22.8605 0.0000 0.0000 0.0000
# 2 15.4969 146.7610 45.8178 0.0000 0.0000 0.0000
# 3 22.8605 45.8178 120.3494 0.0000 0.0000 0.0000
# 4 0.0000 0.0000 0.0000 31.7366 0.0000 0.0000
# 5 0.0000 0.0000 0.0000 0.0000 -20.0862 0.0000
# 6 0.0000 0.0000 0.0000 0.0000 0.0000 17.3790
#
#
#
# Elastic Compliance Matrix: (Units=1/GPa)
#
#
# Indices 1 2 3 4 5 6 
#
# 1 0.031790 -0.001670 -0.005403 0.000000 0.000000 0.000000
# 2 -0.001670 0.007821 -0.002660 0.000000 0.000000 0.000000
# 3 -0.005403 -0.002660 0.010348 0.000000 0.000000 0.000000
# 4 0.000000 0.000000 0.000000 0.031509 0.000000 0.000000
# 5 0.000000 0.000000 0.000000 0.000000 -0.049786 0.000000
# 6 0.000000 0.000000 0.000000 0.000000 0.000000 0.057541
#
#
# Mechanical properties :
#
#
# Convention : Reuss Voigt Hill
#
# Bulk Modulus (GPa) = 32.79487 52.40187 42.59837
# Shear Modulus (GPa) = 42.06887 20.41199 31.24043
#
# Velocity S-wave (km/s) = 4.53664 3.16007 3.90942
# Velocity P-wave (km/s) = 6.59436 6.24108 6.42015
#
# Compressibility (1/GPa) = 0.03049257
#
# Stress axis : x y z
#
# Youngs Moduli (GPa) = 31.45690 127.86713 96.63609
#
# Poissons Ratio (x) = 0.21355 0.52209
# Poissons Ratio (y) = 0.05254 0.25706
# Poissons Ratio (z) = 0.16995 0.34014
#
# Static dielectric constant tensor:
#      x y z
#    x 1.710090 0.000000 0.000000 
#    y 0.000000 1.736200 0.000000 
#    z 0.000000 0.000000 1.724890 
# 
# From -- ./inp_files/18426.got.cif
#   From: 2010.05.17/outbox.cif.g08.bks.cpg/sg69_10_cif.got.tgz:18426.got - 2010.06.03 19:29:58.
