data_PCOD9512493
_publ_section_title
;
Structure prediction by ZEFSAII (Michael W. Deem and Ramdas Pophale) SiO2 
 PCOD9512493
Probable space group: F M M M
;
_chemical_formula_sum "Si O2"
_cell_formula_units_Z 160
_cell_length_a 14.367486
_cell_length_b 31.996329
_cell_length_c 18.830199
_cell_angle_alpha 90.000000
_cell_angle_beta 90.000000
_cell_angle_gamma 90.000000
_cell_volume 8656.370694
_symmetry_space_group_name_H-M "F M M M"
_symmetry_group_IT_number 69
_symmetry_cell_setting 'orthorhombic'
loop_
_space_group_symop_operation_xyz
x,y,z
-x,-y,z
x,-y,-z
-x,y,-z
-x,-y,-z
x,y,-z
-x,y,z
x,-y,z
x,1/2+y,1/2+z
-x,1/2-y,1/2+z
x,1/2-y,1/2-z
-x,1/2+y,1/2-z
-x,1/2-y,1/2-z
x,1/2+y,1/2-z
-x,1/2+y,1/2+z
x,1/2-y,1/2+z
1/2+x,y,1/2+z
1/2-x,-y,1/2+z
1/2+x,-y,1/2-z
1/2-x,y,1/2-z
1/2-x,-y,1/2-z
1/2+x,y,1/2-z
1/2-x,y,1/2+z
1/2+x,-y,1/2+z
1/2+x,1/2+y,z
1/2-x,1/2-y,z
1/2+x,1/2-y,-z
1/2-x,1/2+y,-z
1/2-x,1/2-y,-z
1/2+x,1/2+y,-z
1/2-x,1/2+y,z
1/2+x,1/2-y,z
loop_
_atom_site_type_symbol
_atom_site_label
_atom_site_fract_x
_atom_site_fract_y
_atom_site_fract_z
Si Si1 0.723691 0.305147 0.333287
Si Si2 0.500000 0.048323 0.220753
Si Si3 0.200525 0.047319 0.918937
Si Si4 0.388083 0.768426 0.586184
Si Si5 0.000000 0.547577 0.390178
Si Si6 0.681012 0.600868 0.316791
O O1 0.750000 0.296208 0.250000
O O2 0.654856 0.271834 0.371631
O O3 0.820404 0.303797 0.378941
O O4 0.674476 0.350118 0.333051
O O5 0.500000 0.046042 0.305781
O O6 0.411587 0.075374 0.198753
O O7 0.500000 0.000000 0.194412
O O8 0.096957 0.066154 0.914057
O O9 0.270033 0.077084 0.880215
O O10 0.198462 0.000000 0.886982
O O11 0.226414 0.043441 0.000000
O O12 0.374486 0.765550 0.500000
O O13 0.500000 0.773082 0.598436
O O14 0.000000 0.500000 0.418974
O O15 0.750000 0.597173 0.250000
#
# Coordination Sequence:
#
# PCOD9512493 Si02
#       6
#    32  16  32  32  16  32
#     4  10  22  38  60  90 122 158 196 245 297 352
#     4  11  22  37  63  89 117 160 208 254 296 355
#     4  10  20  35  56  82 115 154 196 246 301 353
#     4  10  21  40  66  91 119 157 198 239 295 364
#     4   9  17  32  57  83 109 144 193 245 297 351
#     4  11  23  39  58  88 122 157 202 247 301 358
#
# _framework density 18.483497
#
# number of rings (size 3 to 8) (size 9 to 14) (size 15 to 20)
#    0.000    1.800    2.000    3.300    1.400    5.200 
#    7.200    0.500    0.000    1.800    0.000    0.000 
#    0.000    0.000    0.000    0.000    0.000    0.000 
#
# Total GULP energy -222844.239443 kJ/mol
# GULP energy per Si atom -5571.105986 kJ/mol
# Density = 1.844143 g / cm^3
# Si number density = 18.483497 Si / 1000 Ang^3
#
#
#
# Elastic Constant Matrix: (Units=GPa)
#
#
# Indices 1 2 3 4 5 6 
#
# 1 97.0780 33.6700 37.1824 0.0000 0.0000 0.0000
# 2 33.6700 103.3121 29.1920 0.0000 0.0000 0.0000
# 3 37.1824 29.1920 105.0043 0.0000 0.0000 0.0000
# 4 0.0000 0.0000 0.0000 14.1120 0.0000 0.0000
# 5 0.0000 0.0000 0.0000 0.0000 28.4953 0.0000
# 6 0.0000 0.0000 0.0000 0.0000 0.0000 26.0416
#
#
#
# Elastic Compliance Matrix: (Units=1/GPa)
#
#
# Indices 1 2 3 4 5 6 
#
# 1 0.012789 -0.003135 -0.003657 0.000000 0.000000 0.000000
# 2 -0.003135 0.011273 -0.002024 0.000000 0.000000 0.000000
# 3 -0.003657 -0.002024 0.011381 0.000000 0.000000 0.000000
# 4 0.000000 0.000000 0.000000 0.070862 0.000000 0.000000
# 5 0.000000 0.000000 0.000000 0.000000 0.035094 0.000000
# 6 0.000000 0.000000 0.000000 0.000000 0.000000 0.038400
#
#
# Mechanical properties :
#
#
# Convention : Reuss Voigt Hill
#
# Bulk Modulus (GPa) = 56.14367 56.16480 56.15423
# Shear Modulus (GPa) = 24.58608 27.41977 26.00292
#
# Velocity S-wave (km/s) = 3.65110 3.85577 3.75483
# Velocity P-wave (km/s) = 6.94370 7.09049 7.01748
#
# Compressibility (1/GPa) = 0.01781145
#
# Stress axis : x y z
#
# Youngs Moduli (GPa) = 78.19253 88.70830 87.86490
#
# Poissons Ratio (x) = 0.27807 0.32134
# Poissons Ratio (y) = 0.24510 0.17784
# Poissons Ratio (z) = 0.28596 0.17954
#
# Static dielectric constant tensor:
#      x y z
#    x 1.562980 0.000000 0.000000 
#    y 0.000000 1.673150 0.000000 
#    z 0.000000 0.000000 1.637300 
# 
# From -- ./inp_files/21858.got.cif
#   From: 2010.05.17/outbox.cif.g08.bks.cpg/sg69_11_cif.got.tgz:21858.got - 2010.06.03 19:29:58.
