data_PCOD9512980
_publ_section_title
;
Structure prediction by ZEFSAII (Michael W. Deem and Ramdas Pophale) SiO2 
 PCOD9512980
Probable space group: F M M M
;
_chemical_formula_sum "Si O2"
_cell_formula_units_Z 160
_cell_length_a 16.278587
_cell_length_b 31.847992
_cell_length_c 16.269630
_cell_angle_alpha 90.000000
_cell_angle_beta 90.000000
_cell_angle_gamma 90.000000
_cell_volume 8434.831997
_symmetry_space_group_name_H-M "F M M M"
_symmetry_group_IT_number 69
_symmetry_cell_setting 'orthorhombic'
loop_
_space_group_symop_operation_xyz
x,y,z
-x,-y,z
x,-y,-z
-x,y,-z
-x,-y,-z
x,y,-z
-x,y,z
x,-y,z
x,1/2+y,1/2+z
-x,1/2-y,1/2+z
x,1/2-y,1/2-z
-x,1/2+y,1/2-z
-x,1/2-y,1/2-z
x,1/2+y,1/2-z
-x,1/2+y,1/2+z
x,1/2-y,1/2+z
1/2+x,y,1/2+z
1/2-x,-y,1/2+z
1/2+x,-y,1/2-z
1/2-x,y,1/2-z
1/2-x,-y,1/2-z
1/2+x,y,1/2-z
1/2-x,y,1/2+z
1/2+x,-y,1/2+z
1/2+x,1/2+y,z
1/2-x,1/2-y,z
1/2+x,1/2-y,-z
1/2-x,1/2+y,-z
1/2-x,1/2-y,-z
1/2+x,1/2+y,-z
1/2-x,1/2+y,z
1/2+x,1/2-y,z
loop_
_atom_site_type_symbol
_atom_site_label
_atom_site_fract_x
_atom_site_fract_y
_atom_site_fract_z
Si Si1 0.900414 0.453840 0.725354
Si Si2 0.163005 0.865662 0.795735
Si Si3 0.741559 0.796352 0.594102
Si Si4 0.409645 0.658568 0.371207
Si Si5 0.596130 0.561334 0.411152
O O1 0.878240 0.500000 0.692322
O O2 0.866441 0.412370 0.680490
O O3 0.871566 0.452151 0.821588
O O4 0.000000 0.450705 0.726561
O O5 0.250000 0.871611 0.750000
O O6 0.182298 0.829843 0.861920
O O7 0.101116 0.848174 0.726724
O O8 0.714796 0.791595 0.500000
O O9 0.750000 0.750000 0.632851
O O10 0.833341 0.814943 0.597976
O O11 0.500000 0.675327 0.390589
O O12 0.402238 0.611791 0.407425
O O13 0.631845 0.548291 0.500000
O O14 0.500000 0.548778 0.411732
#
# Coordination Sequence:
#
# PCOD9512980 Si02
#       5
#    32  32  32  32  32
#     4   9  17  29  46  69  99 138 183 225 260 301
#     4   9  18  32  51  74 101 134 169 209 260 317
#     4  10  21  36  53  75 104 135 168 211 267 327
#     4   9  17  31  53  76  99 131 170 211 253 306
#     4   8  13  22  39  66  98 129 163 206 257 306
#
# _framework density 18.968961
#
# number of rings (size 3 to 8) (size 9 to 14) (size 15 to 20)
#    0.000    3.000    0.000    2.400    0.000    5.600 
#    0.000    5.000    0.000    5.400    0.000    1.400 
#    0.000    0.000    0.000    0.000    0.000    0.000 
#
# Total GULP energy -222683.722006 kJ/mol
# GULP energy per Si atom -5567.093050 kJ/mol
# Density = 1.892579 g / cm^3
# Si number density = 18.968961 Si / 1000 Ang^3
#
#
#
# Elastic Constant Matrix: (Units=GPa)
#
#
# Indices 1 2 3 4 5 6 
#
# 1 30.5035 20.9612 11.1051 0.0000 0.0000 0.0000
# 2 20.9612 148.0577 44.3410 0.0000 0.0000 0.0000
# 3 11.1051 44.3410 57.0561 0.0000 0.0000 0.0000
# 4 0.0000 0.0000 0.0000 4.8239 0.0000 0.0000
# 5 0.0000 0.0000 0.0000 0.0000 11.3972 0.0000
# 6 0.0000 0.0000 0.0000 0.0000 0.0000 7.5795
#
#
#
# Elastic Compliance Matrix: (Units=1/GPa)
#
#
# Indices 1 2 3 4 5 6 
#
# 1 0.037032 -0.004020 -0.004084 0.000000 0.000000 0.000000
# 2 -0.004020 0.009239 -0.006398 0.000000 0.000000 0.000000
# 3 -0.004084 -0.006398 0.023294 0.000000 0.000000 0.000000
# 4 0.000000 0.000000 0.000000 0.207301 0.000000 0.000000
# 5 0.000000 0.000000 0.000000 0.000000 0.087741 0.000000
# 6 0.000000 0.000000 0.000000 0.000000 0.000000 0.131935
#
#
# Mechanical properties :
#
#
# Convention : Reuss Voigt Hill
#
# Bulk Modulus (GPa) = 24.65356 43.15912 33.90634
# Shear Modulus (GPa) = 9.27530 15.37411 12.32471
#
# Velocity S-wave (km/s) = 2.21367 2.85000 2.55175
# Velocity P-wave (km/s) = 4.42253 5.79930 5.15707
#
# Compressibility (1/GPa) = 0.04056209
#
# Stress axis : x y z
#
# Youngs Moduli (GPa) = 27.00355 108.23332 42.93028
#
# Poissons Ratio (x) = 0.43508 0.17532
# Poissons Ratio (y) = 0.10855 0.27466
# Poissons Ratio (z) = 0.11028 0.69247
#
# Static dielectric constant tensor:
#      x y z
#    x 1.660150 0.000000 0.000000 
#    y 0.000000 1.702510 0.000000 
#    z 0.000000 0.000000 1.702780 
# 
# From -- ./inp_files/23420.got.cif
#   From: 2010.05.17/outbox.cif.g08.bks.cpg/sg69_12_cif.got.tgz:23420.got - 2010.06.03 19:29:58.
