data_PCOD9512076
_publ_section_title
;
Structure prediction by ZEFSAII (Michael W. Deem and Ramdas Pophale) SiO2 
 PCOD9512076
Probable space group: F M M M
;
_chemical_formula_sum "Si O2"
_cell_formula_units_Z 168
_cell_length_a 18.646768
_cell_length_b 28.024760
_cell_length_c 16.415267
_cell_angle_alpha 90.000000
_cell_angle_beta 90.000000
_cell_angle_gamma 90.000000
_cell_volume 8578.145741
_symmetry_space_group_name_H-M "F M M M"
_symmetry_group_IT_number 69
_symmetry_cell_setting 'orthorhombic'
loop_
_space_group_symop_operation_xyz
x,y,z
-x,-y,z
x,-y,-z
-x,y,-z
-x,-y,-z
x,y,-z
-x,y,z
x,-y,z
x,1/2+y,1/2+z
-x,1/2-y,1/2+z
x,1/2-y,1/2-z
-x,1/2+y,1/2-z
-x,1/2-y,1/2-z
x,1/2+y,1/2-z
-x,1/2+y,1/2+z
x,1/2-y,1/2+z
1/2+x,y,1/2+z
1/2-x,-y,1/2+z
1/2+x,-y,1/2-z
1/2-x,y,1/2-z
1/2-x,-y,1/2-z
1/2+x,y,1/2-z
1/2-x,y,1/2+z
1/2+x,-y,1/2+z
1/2+x,1/2+y,z
1/2-x,1/2-y,z
1/2+x,1/2-y,-z
1/2-x,1/2+y,-z
1/2-x,1/2-y,-z
1/2+x,1/2+y,-z
1/2-x,1/2+y,z
1/2+x,1/2-y,z
loop_
_atom_site_type_symbol
_atom_site_label
_atom_site_fract_x
_atom_site_fract_y
_atom_site_fract_z
Si Si1 0.417575 0.763128 0.093978
Si Si2 0.386104 0.574591 0.094152
Si Si3 0.822225 0.346549 0.853152
Si Si4 0.728874 0.447049 0.654283
Si Si5 0.500000 0.500000 0.154944
Si Si6 0.658562 0.172658 0.338313
O O1 0.500000 0.766732 0.120243
O O2 0.378254 0.813733 0.100971
O O3 0.375670 0.723717 0.145694
O O4 0.415564 0.747307 0.000000
O O5 0.303828 0.558393 0.106848
O O6 0.437395 0.541768 0.147798
O O7 0.385792 0.630153 0.119070
O O8 0.407298 0.567909 0.000000
O O9 0.821641 0.403088 0.869179
O O10 0.740579 0.329516 0.870103
O O11 0.836729 0.338643 0.757293
O O12 0.699079 0.500000 0.642622
O O13 0.750000 0.441279 0.750000
#
# Coordination Sequence:
#
# PCOD9512076 Si02
#       6
#    32  32  32  32   8  32
#     4  11  25  41  58  83 119 158 199 247 296 351
#     4  11  21  35  56  86 123 160 195 235 297 359
#     4  10  20  39  62  90 115 151 190 251 301 345
#     4  10  19  37  62  85 117 150 194 243 287 341
#     4  12  25  36  50  88 136 164 185 244 305 362
#     4  10  21  39  61  89 115 152 198 244 297 357
#
# _framework density 19.584652999999999
#
# number of rings (size 3 to 8) (size 9 to 14) (size 15 to 20)
#    0.000    1.524    4.762    2.571    1.333    7.619 
#    0.000    0.000    0.000    0.571    0.000    1.333 
#    0.000    0.000    0.000    0.000    0.000    0.000 
#
# Total GULP energy -234089.800442 kJ/mol
# GULP energy per Si atom -5573.566677 kJ/mol
# Density = 1.954008 g / cm^3
# Si number density = 19.584653 Si / 1000 Ang^3
#
#
#
# Elastic Constant Matrix: (Units=GPa)
#
#
# Indices 1 2 3 4 5 6 
#
# 1 69.3161 61.4787 13.0236 0.0000 0.0000 0.0000
# 2 61.4787 175.7691 8.5832 0.0000 0.0000 0.0000
# 3 13.0236 8.5832 14.5681 0.0000 0.0000 0.0000
# 4 0.0000 0.0000 0.0000 -92.6348 0.0000 0.0000
# 5 0.0000 0.0000 0.0000 0.0000 8.4986 0.0000
# 6 0.0000 0.0000 0.0000 0.0000 0.0000 -108.6165
#
#
#
# Elastic Compliance Matrix: (Units=1/GPa)
#
#
# Indices 1 2 3 4 5 6 
#
# 1 0.024561 -0.007741 -0.017396 0.000000 0.000000 0.000000
# 2 -0.007741 0.008298 0.002032 0.000000 0.000000 0.000000
# 3 -0.017396 0.002032 0.082998 0.000000 0.000000 0.000000
# 4 0.000000 0.000000 0.000000 -0.010795 0.000000 0.000000
# 5 0.000000 0.000000 0.000000 0.000000 0.117666 0.000000
# 6 0.000000 0.000000 0.000000 0.000000 0.000000 -0.009207
#
#
# Mechanical properties :
#
#
# Convention : Reuss Voigt Hill
#
# Bulk Modulus (GPa) = 14.35850 47.31381 30.83616
# Shear Modulus (GPa) = 17.67115 -26.77933 -4.55409
#
# Velocity S-wave (km/s) = 3.00708 -3.70180 -1.52656
# Velocity P-wave (km/s) = 4.40501 2.43721 3.55978
#
# Compressibility (1/GPa) = 0.06964514
#
# Stress axis : x y z
#
# Youngs Moduli (GPa) = 40.71478 120.51501 12.04853
#
# Poissons Ratio (x) = 0.93294 0.20960
# Poissons Ratio (y) = 0.31518 -0.02448
# Poissons Ratio (z) = 0.70828 -0.24484
#
# Static dielectric constant tensor:
#      x y z
#    x 1.664680 0.000000 0.000000 
#    y 0.000000 1.699630 0.000000 
#    z 0.000000 0.000000 1.704440 
# 
# From -- ./inp_files/16866.got.cif
#   From: 2010.05.17/outbox.cif.g08.bks.cpg/sg69_9_cif.got.tgz:16866.got - 2010.06.03 19:29:58.
