data_PCOD9512509
_publ_section_title
;
Structure prediction by ZEFSAII (Michael W. Deem and Ramdas Pophale) SiO2 
 PCOD9512509
Probable space group: F M M M
;
_chemical_formula_sum "Si O2"
_cell_formula_units_Z 128
_cell_length_a 15.576147
_cell_length_b 28.830360
_cell_length_c 15.067702
_cell_angle_alpha 90.000000
_cell_angle_beta 90.000000
_cell_angle_gamma 90.000000
_cell_volume 6766.391543
_symmetry_space_group_name_H-M "F M M M"
_symmetry_group_IT_number 69
_symmetry_cell_setting 'orthorhombic'
loop_
_space_group_symop_operation_xyz
x,y,z
-x,-y,z
x,-y,-z
-x,y,-z
-x,-y,-z
x,y,-z
-x,y,z
x,-y,z
x,1/2+y,1/2+z
-x,1/2-y,1/2+z
x,1/2-y,1/2-z
-x,1/2+y,1/2-z
-x,1/2-y,1/2-z
x,1/2+y,1/2-z
-x,1/2+y,1/2+z
x,1/2-y,1/2+z
1/2+x,y,1/2+z
1/2-x,-y,1/2+z
1/2+x,-y,1/2-z
1/2-x,y,1/2-z
1/2-x,-y,1/2-z
1/2+x,y,1/2-z
1/2-x,y,1/2+z
1/2+x,-y,1/2+z
1/2+x,1/2+y,z
1/2-x,1/2-y,z
1/2+x,1/2-y,-z
1/2-x,1/2+y,-z
1/2-x,1/2-y,-z
1/2+x,1/2+y,-z
1/2-x,1/2+y,z
1/2+x,1/2-y,z
loop_
_atom_site_type_symbol
_atom_site_label
_atom_site_fract_x
_atom_site_fract_y
_atom_site_fract_z
Si Si1 0.094967 0.500000 0.359166
Si Si2 0.399028 0.821971 0.240829
Si Si3 0.707232 0.000000 0.099054
Si Si4 0.148959 0.256952 0.601297
Si Si5 0.599834 0.426011 0.705066
O O1 0.189247 0.500000 0.402047
O O2 0.095850 0.454497 0.296695
O O3 0.000000 0.500000 0.403403
O O4 0.500000 0.825638 0.255699
O O5 0.385147 0.786697 0.158758
O O6 0.363379 0.800182 0.331852
O O7 0.369029 0.873588 0.218241
O O8 0.666368 0.044626 0.146985
O O9 0.674461 0.000000 0.000000
O O10 0.114113 0.261088 0.500000
O O11 0.250000 0.250000 0.593455
O O12 0.500000 0.426111 0.670607
#
# Coordination Sequence:
#
# PCOD9512509 Si02
#       5
#    16  32  16  32  32
#     4   9  19  37  57  77 106 143 183 222 260 317
#     4  10  20  35  57  81 107 144 185 227 279 332
#     4  11  22  34  55  85 113 143 175 219 282 338
#     4  10  21  35  52  78 111 146 187 233 276 324
#     4   9  19  36  57  80 106 141 185 227 271 329
#
# _framework density 18.917024999999999
#
# number of rings (size 3 to 8) (size 9 to 14) (size 15 to 20)
#    0.000    2.250    0.000    5.625    0.000    8.250 
#    0.000    6.250    0.000    4.500    0.000    0.000 
#    0.000    0.000    0.000    0.000    0.000    0.000 
#
# Total GULP energy -178231.390961 kJ/mol
# GULP energy per Si atom -5569.730968 kJ/mol
# Density = 1.887397 g / cm^3
# Si number density = 18.917025 Si / 1000 Ang^3
#
#
#
# Elastic Constant Matrix: (Units=GPa)
#
#
# Indices 1 2 3 4 5 6 
#
# 1 88.0948 40.9903 39.3633 0.0000 0.0000 0.0000
# 2 40.9903 162.2221 66.4085 0.0000 0.0000 0.0000
# 3 39.3633 66.4085 143.2259 0.0000 0.0000 0.0000
# 4 0.0000 0.0000 0.0000 -8.6097 0.0000 0.0000
# 5 0.0000 0.0000 0.0000 0.0000 286.1955 0.0000
# 6 0.0000 0.0000 0.0000 0.0000 0.0000 14.0776
#
#
#
# Elastic Compliance Matrix: (Units=1/GPa)
#
#
# Indices 1 2 3 4 5 6 
#
# 1 0.013635 -0.002359 -0.002654 0.000000 0.000000 0.000000
# 2 -0.002359 0.008017 -0.003069 0.000000 0.000000 0.000000
# 3 -0.002654 -0.003069 0.009134 0.000000 0.000000 0.000000
# 4 0.000000 0.000000 0.000000 -0.116149 0.000000 0.000000
# 5 0.000000 0.000000 0.000000 0.000000 0.003494 0.000000
# 6 0.000000 0.000000 0.000000 0.000000 0.000000 0.071035
#
#
# Mechanical properties :
#
#
# Convention : Reuss Voigt Hill
#
# Bulk Modulus (GPa) = 68.38489 76.34078 72.36284
# Shear Modulus (GPa) = 490.05926 74.78473 282.42199
#
# Velocity S-wave (km/s) = 16.11272 6.29435 12.23189
# Velocity P-wave (km/s) = 19.55474 9.65755 15.42168
#
# Compressibility (1/GPa) = 0.01462311
#
# Stress axis : x y z
#
# Youngs Moduli (GPa) = 73.34230 124.73987 109.47981
#
# Poissons Ratio (x) = 0.29426 0.29051
# Poissons Ratio (y) = 0.17301 0.33596
# Poissons Ratio (z) = 0.19461 0.38279
#
# Static dielectric constant tensor:
#      x y z
#    x 1.686520 0.000000 0.000000 
#    y 0.000000 1.619510 0.000000 
#    z 0.000000 0.000000 1.652510 
# 
# From -- ./inp_files/15334.got.cif
#   From: 2010.05.17/outbox.cif.g08.bks.cpg/sg69_8_cif.got.tgz:15334.got - 2010.06.03 19:29:58.
