data_PCOD9512530
_publ_section_title
;
Structure prediction by ZEFSAII (Michael W. Deem and Ramdas Pophale) SiO2 
 PCOD9512530
Probable space group: F M M M
;
_chemical_formula_sum "Si O2"
_cell_formula_units_Z 192
_cell_length_a 15.021250
_cell_length_b 24.532459
_cell_length_c 28.191852
_cell_angle_alpha 90.000000
_cell_angle_beta 90.000000
_cell_angle_gamma 90.000000
_cell_volume 10388.928628
_symmetry_space_group_name_H-M "F M M M"
_symmetry_group_IT_number 69
_symmetry_cell_setting 'orthorhombic'
loop_
_space_group_symop_operation_xyz
x,y,z
-x,-y,z
x,-y,-z
-x,y,-z
-x,-y,-z
x,y,-z
-x,y,z
x,-y,z
x,1/2+y,1/2+z
-x,1/2-y,1/2+z
x,1/2-y,1/2-z
-x,1/2+y,1/2-z
-x,1/2-y,1/2-z
x,1/2+y,1/2-z
-x,1/2+y,1/2+z
x,1/2-y,1/2+z
1/2+x,y,1/2+z
1/2-x,-y,1/2+z
1/2+x,-y,1/2-z
1/2-x,y,1/2-z
1/2-x,-y,1/2-z
1/2+x,y,1/2-z
1/2-x,y,1/2+z
1/2+x,-y,1/2+z
1/2+x,1/2+y,z
1/2-x,1/2-y,z
1/2+x,1/2-y,-z
1/2-x,1/2+y,-z
1/2-x,1/2-y,-z
1/2+x,1/2+y,-z
1/2-x,1/2+y,z
1/2+x,1/2-y,z
loop_
_atom_site_type_symbol
_atom_site_label
_atom_site_fract_x
_atom_site_fract_y
_atom_site_fract_z
Si Si1 0.200143 0.938086 0.554382
Si Si2 0.902110 0.591849 0.552537
Si Si3 0.397105 0.611475 0.356723
Si Si4 0.144859 0.000000 0.190590
Si Si5 0.259230 0.687792 0.693408
Si Si6 0.096751 0.380934 0.344913
Si Si7 0.140737 0.500000 0.197698
O O1 0.177826 0.922448 0.500000
O O2 0.308133 0.939007 0.557066
O O3 0.157490 0.900492 0.594732
O O4 0.168305 0.000000 0.562484
O O5 0.899027 0.617377 0.500000
O O6 0.902377 0.629041 0.598746
O O7 0.000000 0.563277 0.554716
O O8 0.500000 0.624617 0.366269
O O9 0.346864 0.657914 0.326536
O O10 0.393062 0.555073 0.326843
O O11 0.111009 0.945335 0.165161
O O12 0.119205 0.000000 0.246261
O O13 0.252222 0.000000 0.190538
O O14 0.250000 0.687846 0.750000
O O15 0.250000 0.750000 0.676575
O O16 0.177029 0.651494 0.676730
O O17 0.000000 0.365544 0.325467
#
# Coordination Sequence:
#
# PCOD9512530 Si02
#       7
#    32  32  32  16  32  32  16
#     4  10  20  35  57  88 127 164 198 241 295 359
#     4   9  18  32  54  85 117 153 196 240 292 354
#     4  12  24  40  62  88 121 161 202 246 298 361
#     4  11  21  35  56  86 120 155 196 240 302 364
#     4  11  25  44  64  87 117 156 205 256 302 352
#     4  11  22  37  60  88 121 154 191 243 304 365
#     4  11  21  35  58  84 118 159 196 245 295 354
#
# _framework density 18.481211999999999
#
# number of rings (size 3 to 8) (size 9 to 14) (size 15 to 20)
#    0.000    1.333    4.167    1.500    1.167    4.667 
#    0.000    4.167    0.000    2.000    0.000    2.333 
#    0.000    0.000    0.000    0.000    0.000    0.000 
#
# Total GULP energy -267666.425633 kJ/mol
# GULP energy per Si atom -5576.383867 kJ/mol
# Density = 1.843915 g / cm^3
# Si number density = 18.481212 Si / 1000 Ang^3
#
#
#
# Elastic Constant Matrix: (Units=GPa)
#
#
# Indices 1 2 3 4 5 6 
#
# 1 130.1070 36.3503 36.3272 0.0000 0.0000 0.0000
# 2 36.3503 89.0931 26.2465 0.0000 0.0000 0.0000
# 3 36.3272 26.2465 98.5794 0.0000 0.0000 0.0000
# 4 0.0000 0.0000 0.0000 47.0380 0.0000 0.0000
# 5 0.0000 0.0000 0.0000 0.0000 4.9100 0.0000
# 6 0.0000 0.0000 0.0000 0.0000 0.0000 -5.7207
#
#
#
# Elastic Compliance Matrix: (Units=1/GPa)
#
#
# Indices 1 2 3 4 5 6 
#
# 1 0.009255 -0.003007 -0.002610 0.000000 0.000000 0.000000
# 2 -0.003007 0.013157 -0.002395 0.000000 0.000000 0.000000
# 3 -0.002610 -0.002395 0.011743 0.000000 0.000000 0.000000
# 4 0.000000 0.000000 0.000000 0.021259 0.000000 0.000000
# 5 0.000000 0.000000 0.000000 0.000000 0.203664 0.000000
# 6 0.000000 0.000000 0.000000 0.000000 0.000000 -0.174804
#
#
# Mechanical properties :
#
#
# Convention : Reuss Voigt Hill
#
# Bulk Modulus (GPa) = 55.15289 57.29196 56.22243
# Shear Modulus (GPa) = 47.01821 23.83584 35.42703
#
# Velocity S-wave (km/s) = 5.04939 3.59518 4.38302
# Velocity P-wave (km/s) = 7.99391 6.94991 7.49012
#
# Compressibility (1/GPa) = 0.01813142
#
# Stress axis : x y z
#
# Youngs Moduli (GPa) = 108.05160 76.00733 85.15391
#
# Poissons Ratio (x) = 0.22857 0.22224
# Poissons Ratio (y) = 0.32493 0.20392
# Poissons Ratio (z) = 0.28200 0.18202
#
# Static dielectric constant tensor:
#      x y z
#    x 1.663890 0.000000 0.000000 
#    y 0.000000 1.600470 0.000000 
#    z 0.000000 0.000000 1.664860 
# 
# From -- ./inp_files/41152.got.cif
#   From: 2010.05.17/outbox.cif.g08.bks.cpg/sg69_21_cif.got.tgz:41152.got - 2010.06.03 19:29:58.
