data_PCOD9512370
_publ_section_title
;
Structure prediction by ZEFSAII (Michael W. Deem and Ramdas Pophale) SiO2 
 PCOD9512370
Probable space group: F M M M
;
_chemical_formula_sum "Si O2"
_cell_formula_units_Z 192
_cell_length_a 29.652441
_cell_length_b 23.015492
_cell_length_c 15.266313
_cell_angle_alpha 90.000000
_cell_angle_beta 90.000000
_cell_angle_gamma 90.000000
_cell_volume 10418.732219
_symmetry_space_group_name_H-M "F M M M"
_symmetry_group_IT_number 69
_symmetry_cell_setting 'orthorhombic'
loop_
_space_group_symop_operation_xyz
x,y,z
-x,-y,z
x,-y,-z
-x,y,-z
-x,-y,-z
x,y,-z
-x,y,z
x,-y,z
x,1/2+y,1/2+z
-x,1/2-y,1/2+z
x,1/2-y,1/2-z
-x,1/2+y,1/2-z
-x,1/2-y,1/2-z
x,1/2+y,1/2-z
-x,1/2+y,1/2+z
x,1/2-y,1/2+z
1/2+x,y,1/2+z
1/2-x,-y,1/2+z
1/2+x,-y,1/2-z
1/2-x,y,1/2-z
1/2-x,-y,1/2-z
1/2+x,y,1/2-z
1/2-x,y,1/2+z
1/2+x,-y,1/2+z
1/2+x,1/2+y,z
1/2-x,1/2-y,z
1/2+x,1/2-y,-z
1/2-x,1/2+y,-z
1/2-x,1/2-y,-z
1/2+x,1/2+y,-z
1/2-x,1/2+y,z
1/2+x,1/2-y,z
loop_
_atom_site_type_symbol
_atom_site_label
_atom_site_fract_x
_atom_site_fract_y
_atom_site_fract_z
Si Si1 0.949744 0.655135 0.500000
Si Si2 0.703731 0.435563 0.692100
Si Si3 0.643894 0.740748 0.396238
Si Si4 0.549861 0.257065 0.644831
Si Si5 0.731363 0.832900 0.901254
Si Si6 0.827195 0.858239 0.835932
Si Si7 0.136688 0.428844 0.500000
O O1 0.947001 0.698258 0.415297
O O2 0.911439 0.605544 0.500000
O O3 0.000000 0.629225 0.500000
O O4 0.687540 0.500000 0.676829
O O5 0.750000 0.438735 0.750000
O O6 0.715390 0.399354 0.606410
O O7 0.670437 0.396331 0.749437
O O8 0.647555 0.754712 0.500000
O O9 0.595996 0.710024 0.380632
O O10 0.688975 0.705721 0.372885
O O11 0.642783 0.801060 0.343297
O O12 0.500000 0.281799 0.623113
O O13 0.550551 0.250000 0.750000
O O14 0.776741 0.831797 0.845491
O O15 0.743379 0.817174 0.000000
O O16 0.837272 0.902437 0.915701
O O17 0.134488 0.500000 0.500000
#
# Coordination Sequence:
#
# PCOD9512370 Si02
#       7
#    16  32  32  32  32  32  16
#     4  10  20  39  55  75 114 142 173 233 271 308
#     4   9  20  35  48  67  97 134 179 218 252 299
#     4  11  20  33  53  78 107 135 169 214 264 321
#     4  10  20  34  55  80 104 140 177 212 273 331
#     4  10  21  33  50  75 102 136 174 214 261 307
#     4  11  19  35  49  73 106 138 173 215 257 309
#     4  12  22  33  56  82 101 145 191 212 263 326
#
# _framework density 18.428346000000001
#
# number of rings (size 3 to 8) (size 9 to 14) (size 15 to 20)
#    0.000    1.667    4.167    1.000    2.333    2.500 
#    0.000    2.500    0.000    0.000    0.000    0.000 
#    0.000    0.667    0.000    3.667    0.000    8.167 
#
# Total GULP energy -267411.337005 kJ/mol
# GULP energy per Si atom -5571.069521 kJ/mol
# Density = 1.838640 g / cm^3
# Si number density = 18.428346 Si / 1000 Ang^3
#
#
#
# Elastic Constant Matrix: (Units=GPa)
#
#
# Indices 1 2 3 4 5 6 
#
# 1 122.6148 24.8349 7.2941 0.0000 0.0000 0.0000
# 2 24.8349 89.7248 23.2128 0.0000 0.0000 0.0000
# 3 7.2941 23.2128 56.0787 0.0000 0.0000 0.0000
# 4 0.0000 0.0000 0.0000 16.0153 0.0000 0.0000
# 5 0.0000 0.0000 0.0000 0.0000 22.5717 0.0000
# 6 0.0000 0.0000 0.0000 0.0000 0.0000 15.9777
#
#
#
# Elastic Compliance Matrix: (Units=1/GPa)
#
#
# Indices 1 2 3 4 5 6 
#
# 1 0.008641 -0.002353 -0.000150 0.000000 0.000000 0.000000
# 2 -0.002353 0.013123 -0.005126 0.000000 0.000000 0.000000
# 3 -0.000150 -0.005126 0.019973 0.000000 0.000000 0.000000
# 4 0.000000 0.000000 0.000000 0.062440 0.000000 0.000000
# 5 0.000000 0.000000 0.000000 0.000000 0.044303 0.000000
# 6 0.000000 0.000000 0.000000 0.000000 0.000000 0.062587
#
#
# Mechanical properties :
#
#
# Convention : Reuss Voigt Hill
#
# Bulk Modulus (GPa) = 37.76501 42.12240 39.94371
# Shear Modulus (GPa) = 21.26288 25.11805 23.19046
#
# Velocity S-wave (km/s) = 3.40047 3.69590 3.55126
# Velocity P-wave (km/s) = 5.99625 6.41248 6.20785
#
# Compressibility (1/GPa) = 0.02647953
#
# Stress axis : x y z
#
# Youngs Moduli (GPa) = 115.72565 76.20455 50.06675
#
# Poissons Ratio (x) = 0.17931 0.00751
# Poissons Ratio (y) = 0.27230 0.25663
# Poissons Ratio (z) = 0.01736 0.39061
#
# Static dielectric constant tensor:
#      x y z
#    x 1.708320 0.000000 0.000000 
#    y 0.000000 1.644460 0.000000 
#    z 0.000000 0.000000 1.685950 
# 
# From -- ./inp_files/19808.got.cif
#   From: 2010.05.17/outbox.cif.g08.bks.cpg/sg69_10_cif.got.tgz:19808.got - 2010.06.03 19:29:58.
