data_PCOD9512352
_publ_section_title
;
Structure prediction by ZEFSAII (Michael W. Deem and Ramdas Pophale) SiO2 
 PCOD9512352
Probable space group: F M M M
;
_chemical_formula_sum "Si O2"
_cell_formula_units_Z 176
_cell_length_a 25.029487
_cell_length_b 25.691774
_cell_length_c 14.477672
_cell_angle_alpha 90.000000
_cell_angle_beta 90.000000
_cell_angle_gamma 90.000000
_cell_volume 9309.894825
_symmetry_space_group_name_H-M "F M M M"
_symmetry_group_IT_number 69
_symmetry_cell_setting 'orthorhombic'
loop_
_space_group_symop_operation_xyz
x,y,z
-x,-y,z
x,-y,-z
-x,y,-z
-x,-y,-z
x,y,-z
-x,y,z
x,-y,z
x,1/2+y,1/2+z
-x,1/2-y,1/2+z
x,1/2-y,1/2-z
-x,1/2+y,1/2-z
-x,1/2-y,1/2-z
x,1/2+y,1/2-z
-x,1/2+y,1/2+z
x,1/2-y,1/2+z
1/2+x,y,1/2+z
1/2-x,-y,1/2+z
1/2+x,-y,1/2-z
1/2-x,y,1/2-z
1/2-x,-y,1/2-z
1/2+x,y,1/2-z
1/2-x,y,1/2+z
1/2+x,-y,1/2+z
1/2+x,1/2+y,z
1/2-x,1/2-y,z
1/2+x,1/2-y,-z
1/2-x,1/2+y,-z
1/2-x,1/2-y,-z
1/2+x,1/2+y,-z
1/2-x,1/2+y,z
1/2+x,1/2-y,z
loop_
_atom_site_type_symbol
_atom_site_label
_atom_site_fract_x
_atom_site_fract_y
_atom_site_fract_z
Si Si1 0.059692 0.688260 0.396630
Si Si2 0.774804 0.849653 0.148209
Si Si3 0.335553 0.873297 0.099647
Si Si4 0.384532 0.100880 0.293452
Si Si5 0.064623 0.000000 0.111125
Si Si6 0.336487 0.749133 0.361032
O O1 0.062698 0.663950 0.500000
O O2 0.073874 0.646394 0.318917
O O3 0.105526 0.730915 0.390834
O O4 0.000000 0.708893 0.384974
O O5 0.750000 0.839305 0.250000
O O6 0.728128 0.883679 0.103244
O O7 0.829355 0.881804 0.156912
O O8 0.793507 0.793360 0.109103
O O9 0.367876 0.897124 0.185536
O O10 0.332629 0.810197 0.108133
O O11 0.357727 0.888031 0.000000
O O12 0.408986 0.049369 0.337563
O O13 0.000000 0.000000 0.122256
O O14 0.075057 0.000000 0.000000
O O15 0.334234 0.750000 0.250000
#
# Coordination Sequence:
#
# PCOD9512352 Si02
#       6
#    32  32  32  32  16  32
#     4  10  20  34  54  80 109 145 190 241 297 346
#     4   9  18  32  55  81 119 158 198 235 276 325
#     4  11  22  35  54  83 121 165 202 229 268 333
#     4  10  21  39  60  84 116 144 179 242 300 349
#     4  11  24  44  72  97 109 129 178 242 308 365
#     4  11  18  32  53  81 118 161 203 239 277 322
#
# _framework density 18.904616999999998
#
# number of rings (size 3 to 8) (size 9 to 14) (size 15 to 20)
#    0.000    1.727    5.455    2.182    0.000    6.909 
#    0.000    4.545    0.000    3.818    0.000    0.000 
#    0.000    0.000    0.000    0.000    0.000    0.000 
#
# Total GULP energy -245221.015021 kJ/mol
# GULP energy per Si atom -5573.204887 kJ/mol
# Density = 1.886159 g / cm^3
# Si number density = 18.904617 Si / 1000 Ang^3
#
#
#
# Elastic Constant Matrix: (Units=GPa)
#
#
# Indices 1 2 3 4 5 6 
#
# 1 101.4868 34.8457 30.4260 0.0000 0.0000 0.0000
# 2 34.8457 66.7474 21.7166 0.0000 0.0000 0.0000
# 3 30.4260 21.7166 132.2609 0.0000 0.0000 0.0000
# 4 0.0000 0.0000 0.0000 6.2232 0.0000 0.0000
# 5 0.0000 0.0000 0.0000 0.0000 3.8981 0.0000
# 6 0.0000 0.0000 0.0000 0.0000 0.0000 17.7441
#
#
#
# Elastic Compliance Matrix: (Units=1/GPa)
#
#
# Indices 1 2 3 4 5 6 
#
# 1 0.012440 -0.005877 -0.001897 0.000000 0.000000 0.000000
# 2 -0.005877 0.018604 -0.001703 0.000000 0.000000 0.000000
# 3 -0.001897 -0.001703 0.008277 0.000000 0.000000 0.000000
# 4 0.000000 0.000000 0.000000 0.160690 0.000000 0.000000
# 5 0.000000 0.000000 0.000000 0.000000 0.256534 0.000000
# 6 0.000000 0.000000 0.000000 0.000000 0.000000 0.056357
#
#
# Mechanical properties :
#
#
# Convention : Reuss Voigt Hill
#
# Bulk Modulus (GPa) = 49.09782 52.71908 50.90845
# Shear Modulus (GPa) = 9.28257 19.80687 14.54472
#
# Velocity S-wave (km/s) = 2.21830 3.24037 2.77677
# Velocity P-wave (km/s) = 5.70867 6.47668 6.10477
#
# Compressibility (1/GPa) = 0.02036750
#
# Stress axis : x y z
#
# Youngs Moduli (GPa) = 80.38500 53.75167 120.82072
#
# Poissons Ratio (x) = 0.31591 0.22917
# Poissons Ratio (y) = 0.47245 0.20572
# Poissons Ratio (z) = 0.15247 0.09152
#
# Static dielectric constant tensor:
#      x y z
#    x 1.682920 0.000000 0.000000 
#    y 0.000000 1.658510 0.000000 
#    z 0.000000 0.000000 1.738120 
# 
# From -- ./inp_files/17921.got.cif
#   From: 2010.05.17/outbox.cif.g08.bks.cpg/sg69_9_cif.got.tgz:17921.got - 2010.06.03 19:29:58.
