data_PCOD9512740
_publ_section_title
;
Structure prediction by ZEFSAII (Michael W. Deem and Ramdas Pophale) SiO2 
 PCOD9512740
Probable space group: F M M M
;
_chemical_formula_sum "Si O2"
_cell_formula_units_Z 128
_cell_length_a 13.742426
_cell_length_b 21.067452
_cell_length_c 20.883457
_cell_angle_alpha 90.000000
_cell_angle_beta 90.000000
_cell_angle_gamma 90.000000
_cell_volume 6046.134618
_symmetry_space_group_name_H-M "F M M M"
_symmetry_group_IT_number 69
_symmetry_cell_setting 'orthorhombic'
loop_
_space_group_symop_operation_xyz
x,y,z
-x,-y,z
x,-y,-z
-x,y,-z
-x,-y,-z
x,y,-z
-x,y,z
x,-y,z
x,1/2+y,1/2+z
-x,1/2-y,1/2+z
x,1/2-y,1/2-z
-x,1/2+y,1/2-z
-x,1/2-y,1/2-z
x,1/2+y,1/2-z
-x,1/2+y,1/2+z
x,1/2-y,1/2+z
1/2+x,y,1/2+z
1/2-x,-y,1/2+z
1/2+x,-y,1/2-z
1/2-x,y,1/2-z
1/2-x,-y,1/2-z
1/2+x,y,1/2-z
1/2-x,y,1/2+z
1/2+x,-y,1/2+z
1/2+x,1/2+y,z
1/2-x,1/2-y,z
1/2+x,1/2-y,-z
1/2-x,1/2+y,-z
1/2-x,1/2-y,-z
1/2+x,1/2+y,-z
1/2-x,1/2+y,z
1/2+x,1/2-y,z
loop_
_atom_site_type_symbol
_atom_site_label
_atom_site_fract_x
_atom_site_fract_y
_atom_site_fract_z
Si Si1 0.386539 0.500000 0.371642
Si Si2 0.760114 0.104308 0.855650
Si Si3 0.113355 0.000000 0.216444
Si Si4 0.605469 0.202622 0.190974
Si Si5 0.352292 0.286062 0.929126
O O1 0.500000 0.500000 0.391483
O O2 0.321508 0.439215 0.390379
O O3 0.384085 0.500000 0.293550
O O4 0.828318 0.060210 0.811881
O O5 0.694441 0.154831 0.817069
O O6 0.828006 0.143880 0.903518
O O7 0.000000 0.000000 0.197123
O O8 0.500000 0.169346 0.199431
O O9 0.619711 0.250000 0.250000
O O10 0.599764 0.245897 0.127545
O O11 0.250000 0.250000 0.934849
O O12 0.395810 0.286391 0.000000
#
# Coordination Sequence:
#
# PCOD9512740 Si02
#       5
#    16  32  16  32  32
#     4  10  21  35  56  86 118 155 203 254 312 366
#     4  10  20  37  60  81 118 156 201 248 309 359
#     4  10  23  37  56  86 118 157 204 253 305 365
#     4  10  22  35  57  93 125 154 198 250 302 365
#     4   9  20  37  58  84 119 163 203 241 297 366
#
# _framework density 21.170551
#
# number of rings (size 3 to 8) (size 9 to 14) (size 15 to 20)
#    0.000    2.250    0.000    2.250    7.000    5.000 
#    0.000    2.500    0.000    4.500    0.000    0.000 
#    0.000    0.000    0.000    0.000    0.000    0.000 
#
# Total GULP energy -178685.799235 kJ/mol
# GULP energy per Si atom -5583.931226 kJ/mol
# Density = 2.112237 g / cm^3
# Si number density = 21.170551 Si / 1000 Ang^3
#
#
#
# Elastic Constant Matrix: (Units=GPa)
#
#
# Indices 1 2 3 4 5 6 
#
# 1 145.8406 41.5515 28.3098 0.0000 0.0000 0.0000
# 2 41.5515 99.7341 41.2410 0.0000 0.0000 0.0000
# 3 28.3098 41.2410 99.2161 0.0000 0.0000 0.0000
# 4 0.0000 0.0000 0.0000 9.9892 0.0000 0.0000
# 5 0.0000 0.0000 0.0000 0.0000 6.8201 0.0000
# 6 0.0000 0.0000 0.0000 0.0000 0.0000 12.7685
#
#
#
# Elastic Compliance Matrix: (Units=1/GPa)
#
#
# Indices 1 2 3 4 5 6 
#
# 1 0.007873 -0.002839 -0.001066 0.000000 0.000000 0.000000
# 2 -0.002839 0.013132 -0.004648 0.000000 0.000000 0.000000
# 3 -0.001066 -0.004648 0.012315 0.000000 0.000000 0.000000
# 4 0.000000 0.000000 0.000000 0.100109 0.000000 0.000000
# 5 0.000000 0.000000 0.000000 0.000000 0.146625 0.000000
# 6 0.000000 0.000000 0.000000 0.000000 0.000000 0.078318
#
#
# Mechanical properties :
#
#
# Convention : Reuss Voigt Hill
#
# Bulk Modulus (GPa) = 61.68093 62.99950 62.34022
# Shear Modulus (GPa) = 13.12741 21.49477 17.31109
#
# Velocity S-wave (km/s) = 2.49284 3.18986 2.86264
# Velocity P-wave (km/s) = 6.12243 6.58708 6.35900
#
# Compressibility (1/GPa) = 0.01621247
#
# Stress axis : x y z
#
# Youngs Moduli (GPa) = 127.02214 76.15222 81.19905
#
# Poissons Ratio (x) = 0.21620 0.08658
# Poissons Ratio (y) = 0.36062 0.37744
# Poissons Ratio (z) = 0.13544 0.35398
#
# Static dielectric constant tensor:
#      x y z
#    x 1.804670 0.000000 0.000000 
#    y 0.000000 1.789050 0.000000 
#    z 0.000000 0.000000 1.763420 
# 
# From -- ./inp_files/29667.got.cif
#   From: 2010.05.17/outbox.cif.g08.bks.cpg/sg69_15_cif.got.tgz:29667.got - 2010.06.03 19:29:58.
