data_PCOD9512666
_publ_section_title
;
Structure prediction by ZEFSAII (Michael W. Deem and Ramdas Pophale) SiO2 
 PCOD9512666
Probable space group: F M M M
;
_chemical_formula_sum "Si O2"
_cell_formula_units_Z 160
_cell_length_a 29.900658
_cell_length_b 33.117429
_cell_length_c 8.780274
_cell_angle_alpha 90.000000
_cell_angle_beta 90.000000
_cell_angle_gamma 90.000000
_cell_volume 8694.516347
_symmetry_space_group_name_H-M "F M M M"
_symmetry_group_IT_number 69
_symmetry_cell_setting 'orthorhombic'
loop_
_space_group_symop_operation_xyz
x,y,z
-x,-y,z
x,-y,-z
-x,y,-z
-x,-y,-z
x,y,-z
-x,y,z
x,-y,z
x,1/2+y,1/2+z
-x,1/2-y,1/2+z
x,1/2-y,1/2-z
-x,1/2+y,1/2-z
-x,1/2-y,1/2-z
x,1/2+y,1/2-z
-x,1/2+y,1/2+z
x,1/2-y,1/2+z
1/2+x,y,1/2+z
1/2-x,-y,1/2+z
1/2+x,-y,1/2-z
1/2-x,y,1/2-z
1/2-x,-y,1/2-z
1/2+x,y,1/2-z
1/2-x,y,1/2+z
1/2+x,-y,1/2+z
1/2+x,1/2+y,z
1/2-x,1/2-y,z
1/2+x,1/2-y,-z
1/2-x,1/2+y,-z
1/2-x,1/2-y,-z
1/2+x,1/2+y,-z
1/2-x,1/2+y,z
1/2+x,1/2-y,z
loop_
_atom_site_type_symbol
_atom_site_label
_atom_site_fract_x
_atom_site_fract_y
_atom_site_fract_z
Si Si1 0.923281 0.500000 0.179244
Si Si2 0.172408 0.000000 0.824253
Si Si3 0.371537 0.360803 0.325299
Si Si4 0.291189 0.423107 0.674038
Si Si5 0.551099 0.413126 0.818985
Si Si6 0.799011 0.205115 0.685253
O O1 0.870646 0.500000 0.216040
O O2 0.940945 0.542208 0.248258
O O3 0.931776 0.500000 0.000000
O O4 0.200481 0.960960 0.781909
O O5 0.158517 0.000000 0.000000
O O6 0.384792 0.352018 0.500000
O O7 0.335666 0.396985 0.326754
O O8 0.413969 0.379422 0.238823
O O9 0.340938 0.323408 0.268820
O O10 0.281740 0.434744 0.500000
O O11 0.250000 0.399901 0.750000
O O12 0.500000 0.401260 0.784795
O O13 0.556520 0.417349 0.000000
O O14 0.796627 0.204700 0.500000
O O15 0.806675 0.250000 0.750000
O O16 0.750000 0.192960 0.750000
#
# Coordination Sequence:
#
# PCOD9512666 Si02
#       6
#    16  16  32  32  32  32
#     4  12  23  38  59  82 110 149 194 240 292 344
#     4  12  23  36  53  75 105 146 189 236 282 328
#     4  10  22  38  58  83 114 149 189 233 283 341
#     4  11  22  36  53  76 107 147 189 230 277 334
#     4  11  24  40  60  86 114 147 191 241 292 343
#     4  10  20  36  59  90 122 156 192 229 276 334
#
# _framework density 18.402405000000002
#
# number of rings (size 3 to 8) (size 9 to 14) (size 15 to 20)
#    0.000    1.200    2.000    5.400    0.000    5.200 
#    0.000    0.000    0.000    0.600    0.000    0.000 
#    0.000    0.000    0.000    0.000    0.000    0.000 
#
# Total GULP energy -223257.073774 kJ/mol
# GULP energy per Si atom -5581.426844 kJ/mol
# Density = 1.836052 g / cm^3
# Si number density = 18.402405 Si / 1000 Ang^3
#
#
#
# Elastic Constant Matrix: (Units=GPa)
#
#
# Indices 1 2 3 4 5 6 
#
# 1 144.8183 58.6315 57.8543 -0.0009 0.0012 -0.0082
# 2 58.6315 118.3535 37.5769 0.0108 -0.0053 -0.0065
# 3 57.8543 37.5769 73.5247 0.0036 -0.0130 -0.0009
# 4 -0.0009 0.0108 0.0036 11.6566 -0.0006 -0.0082
# 5 0.0012 -0.0053 -0.0130 -0.0006 29.4276 0.0042
# 6 -0.0082 -0.0065 -0.0009 -0.0082 0.0042 27.6315
#
#
#
# Elastic Compliance Matrix: (Units=1/GPa)
#
#
# Indices 1 2 3 4 5 6 
#
# 1 0.011016 -0.003229 -0.007018 0.000006 -0.000004 0.000002
# 2 -0.003229 0.011032 -0.003097 -0.000009 0.000001 0.000002
# 3 -0.007018 -0.003097 0.020706 -0.000004 0.000009 -0.000002
# 4 0.000006 -0.000009 -0.000004 0.085788 0.000002 0.000026
# 5 -0.000004 0.000001 0.000009 0.000002 0.033982 -0.000005
# 6 0.000002 0.000002 -0.000002 0.000026 -0.000005 0.036191
#
#
# Mechanical properties :
#
#
# Convention : Reuss Voigt Hill
#
# Bulk Modulus (GPa) = 62.24506 71.64687 66.94596
# Shear Modulus (GPa) = 21.66756 25.91874 23.79315
#
# Velocity S-wave (km/s) = 3.43509 3.75699 3.59964
# Velocity P-wave (km/s) = 7.04493 7.60513 7.33038
#
# Compressibility (1/GPa) = 0.01606553
#
# Stress axis : x y z
#
# Youngs Moduli (GPa) = 90.77528 90.64199 48.29486
#
# Poissons Ratio (x) = 0.29270 0.33893
# Poissons Ratio (y) = 0.29313 0.14959
# Poissons Ratio (z) = 0.63706 0.28076
#
# Static dielectric constant tensor:
#      x y z
#    x 1.643220 0.000000 0.000010 
#    y 0.000000 1.651420 -0.000010 
#    z 0.000010 -0.000010 1.639210 
# 
# From -- ./inp_files/5759.got.cif
#   From: 2010.05.17/outbox.cif.g08.bks.cpg/sg69_3_cif.got.tgz:5759.got - 2010.06.03 19:29:58.
