data_PCOD9512681
_publ_section_title
;
Structure prediction by ZEFSAII (Michael W. Deem and Ramdas Pophale) SiO2 
 PCOD9512681
Probable space group: F M M M
;
_chemical_formula_sum "Si O2"
_cell_formula_units_Z 192
_cell_length_a 28.858899
_cell_length_b 29.081403
_cell_length_c 10.853566
_cell_angle_alpha 90.000000
_cell_angle_beta 90.000000
_cell_angle_gamma 90.000000
_cell_volume 9108.934192
_symmetry_space_group_name_H-M "F M M M"
_symmetry_group_IT_number 69
_symmetry_cell_setting 'orthorhombic'
loop_
_space_group_symop_operation_xyz
x,y,z
-x,-y,z
x,-y,-z
-x,y,-z
-x,-y,-z
x,y,-z
-x,y,z
x,-y,z
x,1/2+y,1/2+z
-x,1/2-y,1/2+z
x,1/2-y,1/2-z
-x,1/2+y,1/2-z
-x,1/2-y,1/2-z
x,1/2+y,1/2-z
-x,1/2+y,1/2+z
x,1/2-y,1/2+z
1/2+x,y,1/2+z
1/2-x,-y,1/2+z
1/2+x,-y,1/2-z
1/2-x,y,1/2-z
1/2-x,-y,1/2-z
1/2+x,y,1/2-z
1/2-x,y,1/2+z
1/2+x,-y,1/2+z
1/2+x,1/2+y,z
1/2-x,1/2-y,z
1/2+x,1/2-y,-z
1/2-x,1/2+y,-z
1/2-x,1/2-y,-z
1/2+x,1/2+y,-z
1/2-x,1/2+y,z
1/2+x,1/2-y,z
loop_
_atom_site_type_symbol
_atom_site_label
_atom_site_fract_x
_atom_site_fract_y
_atom_site_fract_z
Si Si1 0.642502 0.446776 0.000000
Si Si2 0.370446 0.447006 0.735397
Si Si3 0.387874 0.285340 0.639713
Si Si4 0.445630 0.371057 0.274795
Si Si5 0.223399 0.928633 0.630972
Si Si6 0.781516 0.682275 0.863102
Si Si7 0.052088 0.606348 0.500000
O O1 0.653413 0.427906 0.863651
O O2 0.654816 0.500000 0.000000
O O3 0.587240 0.436142 0.000000
O O4 0.384019 0.500000 0.756119
O O5 0.413967 0.415805 0.700566
O O6 0.329342 0.444842 0.638638
O O7 0.392926 0.266781 0.500000
O O8 0.396925 0.250000 0.750000
O O9 0.422195 0.328322 0.657822
O O10 0.334803 0.302899 0.652561
O O11 0.500000 0.376511 0.304140
O O12 0.441534 0.365330 0.125711
O O13 0.245120 0.941943 0.500000
O O14 0.250000 0.946386 0.750000
O O15 0.221221 0.873249 0.636742
O O16 0.750000 0.698351 0.750000
O O17 0.765744 0.697226 0.000000
O O18 0.000000 0.588494 0.500000
#
# Coordination Sequence:
#
# PCOD9512681 Si02
#       7
#    16  32  32  32  32  32  16
#     4   8  16  29  48  80 118 157 199 244 295 356
#     4  10  20  36  60  91 128 167 210 259 311 370
#     4  11  25  43  65  95 129 165 208 257 312 374
#     4  10  21  40  64  90 126 167 209 261 318 371
#     4  10  21  37  59  89 124 165 208 253 306 366
#     4   9  19  39  62  91 127 162 204 252 307 370
#     4   8  16  31  54  84 114 152 200 247 300 361
#
# _framework density 21.078206000000002
#
# number of rings (size 3 to 8) (size 9 to 14) (size 15 to 20)
#    0.000    2.333    1.667    0.000    2.333    2.833 
#    0.000    5.000    0.000    0.000    0.000    2.333 
#    0.000    0.000    0.000    0.000    0.000    0.000 
#
# Total GULP energy -267759.790689 kJ/mol
# GULP energy per Si atom -5578.328973 kJ/mol
# Density = 2.103023 g / cm^3
# Si number density = 21.078206 Si / 1000 Ang^3
#
#
#
# Elastic Constant Matrix: (Units=GPa)
#
#
# Indices 1 2 3 4 5 6 
#
# 1 101.9832 26.3551 66.7416 -0.0007 0.0001 -0.0001
# 2 26.3551 84.9064 44.6097 -0.0009 0.0000 0.0000
# 3 66.7416 44.6097 135.9964 -0.0002 -0.0003 -0.0004
# 4 -0.0007 -0.0009 -0.0002 -24.2422 0.0004 0.0006
# 5 0.0001 0.0000 -0.0003 0.0004 31.6459 0.0005
# 6 -0.0001 0.0000 -0.0004 0.0006 0.0005 0.6397
#
#
#
# Elastic Compliance Matrix: (Units=1/GPa)
#
#
# Indices 1 2 3 4 5 6 
#
# 1 0.014504 -0.000921 -0.006816 0.000000 0.000000 -0.000002
# 2 -0.000921 0.014289 -0.004235 0.000000 0.000000 -0.000003
# 3 -0.006816 -0.004235 0.012087 0.000000 0.000000 0.000007
# 4 0.000000 0.000000 0.000000 -0.041250 0.000001 0.000038
# 5 0.000000 0.000000 0.000000 0.000001 0.031600 -0.000025
# 6 -0.000002 -0.000003 0.000007 0.000038 -0.000025 1.563276
#
#
# Mechanical properties :
#
#
# Convention : Reuss Voigt Hill
#
# Bulk Modulus (GPa) = 59.04520 66.47765 62.76143
# Shear Modulus (GPa) = 3.07864 13.95399 8.51632
#
# Velocity S-wave (km/s) = 1.20986 2.57575 2.01224
# Velocity P-wave (km/s) = 5.47950 6.36027 5.93624
#
# Compressibility (1/GPa) = 0.01693618
#
# Stress axis : x y z
#
# Youngs Moduli (GPa) = 68.94570 69.98588 82.73153
#
# Poissons Ratio (x) = 0.06446 0.56389
# Poissons Ratio (y) = 0.06350 0.35036
# Poissons Ratio (z) = 0.46993 0.29639
#
# Static dielectric constant tensor:
#      x y z
#    x 1.728090 0.000000 0.000000 
#    y 0.000000 1.741670 0.000000 
#    z 0.000000 0.000000 1.854280 
# 
# From -- ./inp_files/12429.got.cif
#   From: 2010.05.17/outbox.cif.g08.bks.cpg/sg69_7_cif.got.tgz:12429.got - 2010.06.03 19:29:58.
