data_PCOD9512831
_publ_section_title
;
Structure prediction by ZEFSAII (Michael W. Deem and Ramdas Pophale) SiO2 
 PCOD9512831
Probable space group: F M M M
;
_chemical_formula_sum "Si O2"
_cell_formula_units_Z 168
_cell_length_a 28.509029
_cell_length_b 19.139563
_cell_length_c 15.061927
_cell_angle_alpha 90.000000
_cell_angle_beta 90.000000
_cell_angle_gamma 90.000000
_cell_volume 8218.545839
_symmetry_space_group_name_H-M "F M M M"
_symmetry_group_IT_number 69
_symmetry_cell_setting 'orthorhombic'
loop_
_space_group_symop_operation_xyz
x,y,z
-x,-y,z
x,-y,-z
-x,y,-z
-x,-y,-z
x,y,-z
-x,y,z
x,-y,z
x,1/2+y,1/2+z
-x,1/2-y,1/2+z
x,1/2-y,1/2-z
-x,1/2+y,1/2-z
-x,1/2-y,1/2-z
x,1/2+y,1/2-z
-x,1/2+y,1/2+z
x,1/2-y,1/2+z
1/2+x,y,1/2+z
1/2-x,-y,1/2+z
1/2+x,-y,1/2-z
1/2-x,y,1/2-z
1/2-x,-y,1/2-z
1/2+x,y,1/2-z
1/2-x,y,1/2+z
1/2+x,-y,1/2+z
1/2+x,1/2+y,z
1/2-x,1/2-y,z
1/2+x,1/2-y,-z
1/2-x,1/2+y,-z
1/2-x,1/2-y,-z
1/2+x,1/2+y,-z
1/2-x,1/2+y,z
1/2+x,1/2-y,z
loop_
_atom_site_type_symbol
_atom_site_label
_atom_site_fract_x
_atom_site_fract_y
_atom_site_fract_z
Si Si1 0.237280 0.894345 0.155907
Si Si2 0.258855 0.500000 0.500000
Si Si3 0.182423 0.810636 0.604189
Si Si4 0.901331 0.416446 0.104588
Si Si5 0.861741 0.337042 0.392865
Si Si6 0.553493 0.166033 0.264077
O O1 0.250000 0.925243 0.250000
O O2 0.268638 0.824327 0.151150
O O3 0.182417 0.882603 0.139225
O O4 0.256192 0.940211 0.076425
O O5 0.191870 0.801385 0.500000
O O6 0.148502 0.877489 0.616919
O O7 0.153584 0.742184 0.630934
O O8 0.898697 0.500000 0.120044
O O9 0.934770 0.376639 0.173953
O O10 0.914272 0.406393 0.000000
O O11 0.867051 0.342661 0.500000
O O12 0.908541 0.354149 0.338771
O O13 0.500000 0.151095 0.290924
O O14 0.557022 0.250000 0.250000
#
# Coordination Sequence:
#
# PCOD9512831 Si02
#       6
#    32   8  32  32  32  32
#     4  12  25  40  67  95 131 183 224 273 331 399
#     4  12  26  48  54  98 145 176 229 276 326 408
#     4  10  20  38  65  97 135 172 216 268 332 408
#     4  10  22  40  67 102 139 177 217 279 354 419
#     4  11  23  44  66  97 134 174 226 282 336 402
#     4  11  24  43  68  98 130 174 232 288 340 405
#
# _framework density 20.441573000000002
#
# number of rings (size 3 to 8) (size 9 to 14) (size 15 to 20)
#    0.000    1.143    3.810    2.000    1.333    3.429 
#    5.143    2.857    0.000    0.000    0.000    2.000 
#    0.000    0.000    0.000    0.000    0.000    0.000 
#
# Total GULP energy -234139.702355 kJ/mol
# GULP energy per Si atom -5574.754818 kJ/mol
# Density = 2.039505 g / cm^3
# Si number density = 20.441573 Si / 1000 Ang^3
#
#
#
# Elastic Constant Matrix: (Units=GPa)
#
#
# Indices 1 2 3 4 5 6 
#
# 1 136.9622 11.7054 58.4565 0.0000 0.0000 0.0000
# 2 11.7054 88.9673 41.7562 0.0000 0.0000 0.0000
# 3 58.4565 41.7562 143.8868 0.0000 0.0000 0.0000
# 4 0.0000 0.0000 0.0000 20.3769 0.0000 0.0000
# 5 0.0000 0.0000 0.0000 0.0000 10.6881 0.0000
# 6 0.0000 0.0000 0.0000 0.0000 0.0000 335.8311
#
#
#
# Elastic Compliance Matrix: (Units=1/GPa)
#
#
# Indices 1 2 3 4 5 6 
#
# 1 0.008861 0.000606 -0.003776 0.000000 0.000000 0.000000
# 2 0.000606 0.013054 -0.004035 0.000000 0.000000 0.000000
# 3 -0.003776 -0.004035 0.009655 0.000000 0.000000 0.000000
# 4 0.000000 0.000000 0.000000 0.049075 0.000000 0.000000
# 5 0.000000 0.000000 0.000000 0.000000 0.093562 0.000000
# 6 0.000000 0.000000 0.000000 0.000000 0.000000 0.002978
#
#
# Mechanical properties :
#
#
# Convention : Reuss Voigt Hill
#
# Bulk Modulus (GPa) = 58.27026 65.96139 62.11583
# Shear Modulus (GPa) = 25.34043 90.57245 57.95644
#
# Velocity S-wave (km/s) = 3.52469 6.66364 5.33046
# Velocity P-wave (km/s) = 6.71805 9.56785 8.26668
#
# Compressibility (1/GPa) = 0.01716141
#
# Stress axis : x y z
#
# Youngs Moduli (GPa) = 112.85339 76.60531 103.57549
#
# Poissons Ratio (x) = -0.04645 0.39109
# Poissons Ratio (y) = -0.06843 0.41789
# Poissons Ratio (z) = 0.42613 0.30907
#
# Static dielectric constant tensor:
#      x y z
#    x 1.725620 0.000000 0.000000 
#    y 0.000000 1.816170 0.000000 
#    z 0.000000 0.000000 1.750880 
# 
# From -- ./inp_files/18812.got.cif
#   From: 2010.05.17/outbox.cif.g08.bks.cpg/sg69_10_cif.got.tgz:18812.got - 2010.06.03 19:29:58.
