data_PCOD9512351
_publ_section_title
;
Structure prediction by ZEFSAII (Michael W. Deem and Ramdas Pophale) SiO2 
 PCOD9512351
Probable space group: F M M M
;
_chemical_formula_sum "Si O2"
_cell_formula_units_Z 176
_cell_length_a 38.686539
_cell_length_b 7.339274
_cell_length_c 28.470777
_cell_angle_alpha 90.000000
_cell_angle_beta 90.000000
_cell_angle_gamma 90.000000
_cell_volume 8083.739311
_symmetry_space_group_name_H-M "F M M M"
_symmetry_group_IT_number 69
_symmetry_cell_setting 'orthorhombic'
loop_
_space_group_symop_operation_xyz
x,y,z
-x,-y,z
x,-y,-z
-x,y,-z
-x,-y,-z
x,y,-z
-x,y,z
x,-y,z
x,1/2+y,1/2+z
-x,1/2-y,1/2+z
x,1/2-y,1/2-z
-x,1/2+y,1/2-z
-x,1/2-y,1/2-z
x,1/2+y,1/2-z
-x,1/2+y,1/2+z
x,1/2-y,1/2+z
1/2+x,y,1/2+z
1/2-x,-y,1/2+z
1/2+x,-y,1/2-z
1/2-x,y,1/2-z
1/2-x,-y,1/2-z
1/2+x,y,1/2-z
1/2-x,y,1/2+z
1/2+x,-y,1/2+z
1/2+x,1/2+y,z
1/2-x,1/2-y,z
1/2+x,1/2-y,-z
1/2-x,1/2+y,-z
1/2-x,1/2-y,-z
1/2+x,1/2+y,-z
1/2-x,1/2+y,z
1/2+x,1/2-y,z
loop_
_atom_site_type_symbol
_atom_site_label
_atom_site_fract_x
_atom_site_fract_y
_atom_site_fract_z
Si Si1 0.586043 0.783405 0.197805
Si Si2 0.397570 0.221101 0.052502
Si Si3 0.673544 0.278407 0.596069
Si Si4 0.460659 0.722614 0.611965
Si Si5 0.290622 0.283059 0.500000
Si Si6 0.165259 0.717612 0.802506
O O1 0.572511 0.750000 0.250000
O O2 0.559653 0.716668 0.158631
O O3 0.625484 0.712042 0.196655
O O4 0.588938 0.000000 0.190086
O O5 0.366523 0.271947 0.087030
O O6 0.435125 0.277884 0.070035
O O7 0.397457 0.000000 0.052058
O O8 0.389745 0.282725 0.000000
O O9 0.676030 0.500000 0.595540
O O10 0.693747 0.214065 0.549524
O O11 0.683175 0.218223 0.648997
O O12 0.500000 0.784913 0.608979
O O13 0.461671 0.500000 0.612243
O O14 0.297721 0.500000 0.500000
O O15 0.250000 0.250000 0.500000
O O16 0.163665 0.500000 0.806398
O O17 0.179625 0.750000 0.750000
#
# Coordination Sequence:
#
# PCOD9512351 Si02
#       6
#    32  32  32  32  16  32
#     4   9  16  26  40  58  84 116 150 190 231 270
#     4   9  14  22  38  60  85 115 154 191 225 274
#     4   9  15  27  48  70  93 125 160 190 225 277
#     4   9  16  24  34  53  85 120 150 188 237 277
#     4  10  20  34  54  80 105 127 153 187 230 280
#     4   9  16  27  45  69  94 122 159 199 233 269
#
# _framework density 21.772103999999999
#
# number of rings (size 3 to 8) (size 9 to 14) (size 15 to 20)
#    0.000    2.909    2.727    0.000    0.000    0.727 
#    0.000    2.727    0.000    0.545    0.000    3.818 
#    0.000    0.000    0.000    1.636    0.000    1.818 
#
# Total GULP energy -245315.662951 kJ/mol
# GULP energy per Si atom -5575.355976 kJ/mol
# Density = 2.172255 g / cm^3
# Si number density = 21.772104 Si / 1000 Ang^3
#
#
#
# Elastic Constant Matrix: (Units=GPa)
#
#
# Indices 1 2 3 4 5 6 
#
# 1 59.8779 -2.1354 44.8531 -0.0002 0.0015 -0.0012
# 2 -2.1354 81.9844 1.9480 -0.0041 0.0035 -0.0192
# 3 44.8531 1.9480 207.0910 -0.0004 0.0002 -0.0017
# 4 -0.0002 -0.0041 -0.0004 8.5823 0.0012 -0.0098
# 5 0.0015 0.0035 0.0002 0.0012 -2.0738 0.0066
# 6 -0.0012 -0.0192 -0.0017 -0.0098 0.0066 -53.0176
#
#
#
# Elastic Compliance Matrix: (Units=1/GPa)
#
#
# Indices 1 2 3 4 5 6 
#
# 1 0.019967 0.000623 -0.004330 0.000001 0.000015 -0.000001
# 2 0.000623 0.012220 -0.000250 0.000006 0.000021 -0.000004
# 3 -0.004330 -0.000250 0.005769 0.000000 -0.000003 0.000000
# 4 0.000001 0.000006 0.000000 0.116519 0.000069 -0.000021
# 5 0.000015 0.000021 -0.000003 0.000069 -0.482214 -0.000060
# 6 -0.000001 -0.000004 0.000000 -0.000021 -0.000060 -0.018862
#
#
# Mechanical properties :
#
#
# Convention : Reuss Voigt Hill
#
# Bulk Modulus (GPa) = 33.28815 48.69832 40.99324
# Shear Modulus (GPa) = -15.21266 10.98401 -2.11433
#
# Velocity S-wave (km/s) = -2.64620 2.24854 -0.98652
# Velocity P-wave (km/s) = 2.44664 5.39973 4.19185
#
# Compressibility (1/GPa) = 0.03004072
#
# Stress axis : x y z
#
# Youngs Moduli (GPa) = 50.08355 81.83570 173.33898
#
# Poissons Ratio (x) = -0.05098 0.75062
# Poissons Ratio (y) = -0.03120 0.04331
# Poissons Ratio (z) = 0.21688 0.02045
#
# Static dielectric constant tensor:
#      x y z
#    x 1.735590 0.000000 0.000000 
#    y 0.000000 1.899090 0.000000 
#    z 0.000000 0.000000 1.831300 
# 
# From -- ./inp_files/43880.got.cif
#   From: 2010.05.17/outbox.cif.g08.bks.cpg/sg69_22_cif.got.tgz:43880.got - 2010.06.03 19:29:58.
