data_PCOD9512121
_publ_section_title
;
Structure prediction by ZEFSAII (Michael W. Deem and Ramdas Pophale) SiO2 
 PCOD9512121
Probable space group: F M M M
;
_chemical_formula_sum "Si O2"
_cell_formula_units_Z 176
_cell_length_a 13.799868
_cell_length_b 22.966995
_cell_length_c 32.960644
_cell_angle_alpha 90.000000
_cell_angle_beta 90.000000
_cell_angle_gamma 90.000000
_cell_volume 10446.595929
_symmetry_space_group_name_H-M "F M M M"
_symmetry_group_IT_number 69
_symmetry_cell_setting 'orthorhombic'
loop_
_space_group_symop_operation_xyz
x,y,z
-x,-y,z
x,-y,-z
-x,y,-z
-x,-y,-z
x,y,-z
-x,y,z
x,-y,z
x,1/2+y,1/2+z
-x,1/2-y,1/2+z
x,1/2-y,1/2-z
-x,1/2+y,1/2-z
-x,1/2-y,1/2-z
x,1/2+y,1/2-z
-x,1/2+y,1/2+z
x,1/2-y,1/2+z
1/2+x,y,1/2+z
1/2-x,-y,1/2+z
1/2+x,-y,1/2-z
1/2-x,y,1/2-z
1/2-x,-y,1/2-z
1/2+x,y,1/2-z
1/2-x,y,1/2+z
1/2+x,-y,1/2+z
1/2+x,1/2+y,z
1/2-x,1/2-y,z
1/2+x,1/2-y,-z
1/2-x,1/2+y,-z
1/2-x,1/2-y,-z
1/2+x,1/2+y,-z
1/2-x,1/2+y,z
1/2+x,1/2-y,z
loop_
_atom_site_type_symbol
_atom_site_label
_atom_site_fract_x
_atom_site_fract_y
_atom_site_fract_z
Si Si1 0.267620 0.934341 0.187508
Si Si2 0.616833 0.901401 0.108863
Si Si3 0.884126 0.335294 0.321251
Si Si4 0.117526 0.782913 0.645636
Si Si5 0.617850 0.000000 0.046406
Si Si6 0.385302 0.655563 0.270072
O O1 0.339162 0.930892 0.148814
O O2 0.176398 0.894170 0.175571
O O3 0.328948 0.904465 0.223470
O O4 0.239994 0.000000 0.196144
O O5 0.500000 0.903120 0.110887
O O6 0.645109 0.832720 0.113075
O O7 0.646969 0.941462 0.070896
O O8 0.850626 0.284374 0.351993
O O9 0.867367 0.317148 0.273953
O O10 0.000000 0.343836 0.325783
O O11 0.142969 0.808015 0.690207
O O12 0.000000 0.779979 0.644160
O O13 0.500000 0.000000 0.045876
O O14 0.651666 0.000000 0.000000
O O15 0.500000 0.645889 0.272722
#
# Coordination Sequence:
#
# PCOD9512121 Si02
#       6
#    32  32  32  32  16  32
#     4  11  21  31  44  62  88 124 165 193 239 290
#     4   9  17  30  49  73  98 119 143 177 219 280
#     4  10  20  32  43  59  86 120 164 212 242 260
#     4   8  15  29  47  64  85 118 157 196 237 275
#     4   9  16  28  50  80 110 129 137 159 212 286
#     4   9  18  30  45  63  83 112 153 207 253 284
#
# _framework density 16.847593
#
# number of rings (size 3 to 8) (size 9 to 14) (size 15 to 20)
#    0.000    2.636    0.909    2.727    0.000    8.000 
#    0.000    5.455    0.000    0.000    0.000    2.545 
#    0.000    2.909    0.000    0.000    0.000    0.000 
#
# Total GULP energy -245062.591002 kJ/mol
# GULP energy per Si atom -5569.604341 kJ/mol
# Density = 1.680925 g / cm^3
# Si number density = 16.847593 Si / 1000 Ang^3
#
#
#
# Elastic Constant Matrix: (Units=GPa)
#
#
# Indices 1 2 3 4 5 6 
#
# 1 42.7817 31.6824 17.4981 0.0000 0.0000 0.0000
# 2 31.6824 147.1017 31.4297 0.0000 0.0000 0.0000
# 3 17.4981 31.4297 70.7329 0.0000 0.0000 0.0000
# 4 0.0000 0.0000 0.0000 20.0849 0.0000 0.0000
# 5 0.0000 0.0000 0.0000 0.0000 9.7463 0.0000
# 6 0.0000 0.0000 0.0000 0.0000 0.0000 22.1121
#
#
#
# Elastic Compliance Matrix: (Units=1/GPa)
#
#
# Indices 1 2 3 4 5 6 
#
# 1 0.029274 -0.005257 -0.004906 0.000000 0.000000 0.000000
# 2 -0.005257 0.008455 -0.002457 0.000000 0.000000 0.000000
# 3 -0.004906 -0.002457 0.016443 0.000000 0.000000 0.000000
# 4 0.000000 0.000000 0.000000 0.049789 0.000000 0.000000
# 5 0.000000 0.000000 0.000000 0.000000 0.102603 0.000000
# 6 0.000000 0.000000 0.000000 0.000000 0.000000 0.045224
#
#
# Mechanical properties :
#
#
# Convention : Reuss Voigt Hill
#
# Bulk Modulus (GPa) = 34.56227 46.87076 40.71651
# Shear Modulus (GPa) = 17.44160 22.38906 19.91533
#
# Velocity S-wave (km/s) = 3.22103 3.64939 3.44188
# Velocity P-wave (km/s) = 5.86452 6.75561 6.32577
#
# Compressibility (1/GPa) = 0.02893328
#
# Stress axis : x y z
#
# Youngs Moduli (GPa) = 34.15996 118.27239 60.81640
#
# Poissons Ratio (x) = 0.62173 0.29837
# Poissons Ratio (y) = 0.17957 0.14940
# Poissons Ratio (z) = 0.16759 0.29054
#
# Static dielectric constant tensor:
#      x y z
#    x 1.612540 0.000000 0.000000 
#    y 0.000000 1.638220 0.000000 
#    z 0.000000 0.000000 1.553810 
# 
# From -- ./inp_files/45821.got.cif
#   From: 2010.05.17/outbox.cif.g08.bks.cpg/sg69_23_cif.got.tgz:45821.got - 2010.06.03 19:29:58.
