data_PCOD9512849
_publ_section_title
;
Structure prediction by ZEFSAII (Michael W. Deem and Ramdas Pophale) SiO2 
 PCOD9512849
Probable space group: F M M M
;
_chemical_formula_sum "Si O2"
_cell_formula_units_Z 144
_cell_length_a 15.872812
_cell_length_b 23.439896
_cell_length_c 18.114939
_cell_angle_alpha 90.000000
_cell_angle_beta 90.000000
_cell_angle_gamma 90.000000
_cell_volume 6739.790992
_symmetry_space_group_name_H-M "F M M M"
_symmetry_group_IT_number 69
_symmetry_cell_setting 'orthorhombic'
loop_
_space_group_symop_operation_xyz
x,y,z
-x,-y,z
x,-y,-z
-x,y,-z
-x,-y,-z
x,y,-z
-x,y,z
x,-y,z
x,1/2+y,1/2+z
-x,1/2-y,1/2+z
x,1/2-y,1/2-z
-x,1/2+y,1/2-z
-x,1/2-y,1/2-z
x,1/2+y,1/2-z
-x,1/2+y,1/2+z
x,1/2-y,1/2+z
1/2+x,y,1/2+z
1/2-x,-y,1/2+z
1/2+x,-y,1/2-z
1/2-x,y,1/2-z
1/2-x,-y,1/2-z
1/2+x,y,1/2-z
1/2-x,y,1/2+z
1/2+x,-y,1/2+z
1/2+x,1/2+y,z
1/2-x,1/2-y,z
1/2+x,1/2-y,-z
1/2-x,1/2+y,-z
1/2-x,1/2-y,-z
1/2+x,1/2+y,-z
1/2-x,1/2+y,z
1/2+x,1/2-y,z
loop_
_atom_site_type_symbol
_atom_site_label
_atom_site_fract_x
_atom_site_fract_y
_atom_site_fract_z
Si Si1 0.861109 0.064254 0.816649
Si Si2 0.167794 0.098527 0.340815
Si Si3 0.594651 0.068082 0.000000
Si Si4 0.901113 0.830444 0.080990
Si Si5 0.099341 0.277787 0.830769
O O1 0.881726 0.072935 0.729933
O O2 0.761072 0.073806 0.829129
O O3 0.896400 0.115561 0.865305
O O4 0.884503 0.000000 0.838941
O O5 0.137862 0.084850 0.423132
O O6 0.156848 0.166395 0.332406
O O7 0.500000 0.092247 0.000000
O O8 0.590739 0.000000 0.000000
O O9 0.867468 0.771873 0.115423
O O10 0.000000 0.818812 0.073862
O O11 0.864842 0.843134 0.000000
O O12 0.099734 0.250000 0.750000
O O13 0.000000 0.292916 0.846751
#
# Coordination Sequence:
#
# PCOD9512849 Si02
#       5
#    32  32  16  32  32
#     4  11  24  43  65  89 126 174 216 261 316 377
#     4  11  23  41  63  93 127 168 212 257 321 386
#     4  11  24  40  62  95 131 169 216 269 321 383
#     4  10  23  42  64  94 126 161 211 265 317 376
#     4  10  20  39  65  91 124 164 207 261 320 375
#
# _framework density 21.365646999999999
#
# number of rings (size 3 to 8) (size 9 to 14) (size 15 to 20)
#    0.000    1.444    2.222    3.333    3.111    2.667 
#    0.000    2.222    0.000    0.000    0.000    0.000 
#    0.000    0.000    0.000    0.000    0.000    0.000 
#
# Total GULP energy -200960.437424 kJ/mol
# GULP energy per Si atom -5582.234373 kJ/mol
# Density = 2.131702 g / cm^3
# Si number density = 21.365647 Si / 1000 Ang^3
#
#
#
# Elastic Constant Matrix: (Units=GPa)
#
#
# Indices 1 2 3 4 5 6 
#
# 1 26.7466 -1.7328 17.8793 0.0000 0.0000 0.0000
# 2 -1.7328 132.3595 17.4097 0.0000 0.0000 0.0000
# 3 17.8793 17.4097 139.6777 0.0000 0.0000 0.0000
# 4 0.0000 0.0000 0.0000 10.0974 0.0000 0.0000
# 5 0.0000 0.0000 0.0000 0.0000 23.6371 0.0000
# 6 0.0000 0.0000 0.0000 0.0000 0.0000 19.4070
#
#
#
# Elastic Compliance Matrix: (Units=1/GPa)
#
#
# Indices 1 2 3 4 5 6 
#
# 1 0.041089 0.001250 -0.005415 0.000000 0.000000 0.000000
# 2 0.001250 0.007719 -0.001122 0.000000 0.000000 0.000000
# 3 -0.005415 -0.001122 0.007992 0.000000 0.000000 0.000000
# 4 0.000000 0.000000 0.000000 0.099035 0.000000 0.000000
# 5 0.000000 0.000000 0.000000 0.000000 0.042306 0.000000
# 6 0.000000 0.000000 0.000000 0.000000 0.000000 0.051528
#
#
# Mechanical properties :
#
#
# Convention : Reuss Voigt Hill
#
# Bulk Modulus (GPa) = 21.63290 40.65514 31.14402
# Shear Modulus (GPa) = 18.13873 28.31014 23.22444
#
# Velocity S-wave (km/s) = 2.91687 3.64405 3.30054
# Velocity P-wave (km/s) = 4.63586 6.06424 5.39751
#
# Compressibility (1/GPa) = 0.04622588
#
# Stress axis : x y z
#
# Youngs Moduli (GPa) = 24.33740 129.54792 125.11881
#
# Poissons Ratio (x) = -0.16196 0.67757
# Poissons Ratio (y) = -0.03043 0.14040
# Poissons Ratio (z) = 0.13180 0.14537
#
# Static dielectric constant tensor:
#      x y z
#    x 1.843570 0.000000 0.000000 
#    y 0.000000 1.737240 0.000000 
#    z 0.000000 0.000000 3.227260 
# 
# From -- ./inp_files/22837.got.cif
#   From: 2010.05.17/outbox.cif.g08.bks.cpg/sg69_12_cif.got.tgz:22837.got - 2010.06.03 19:29:58.
