data_PCOD9512775
_publ_section_title
;
Structure prediction by ZEFSAII (Michael W. Deem and Ramdas Pophale) SiO2 
 PCOD9512775
Probable space group: F M M M
;
_chemical_formula_sum "Si O2"
_cell_formula_units_Z 104
_cell_length_a 30.241098
_cell_length_b 23.065050
_cell_length_c 7.798339
_cell_angle_alpha 90.000000
_cell_angle_beta 90.000000
_cell_angle_gamma 90.000000
_cell_volume 5439.438444
_symmetry_space_group_name_H-M "F M M M"
_symmetry_group_IT_number 69
_symmetry_cell_setting 'orthorhombic'
loop_
_space_group_symop_operation_xyz
x,y,z
-x,-y,z
x,-y,-z
-x,y,-z
-x,-y,-z
x,y,-z
-x,y,z
x,-y,z
x,1/2+y,1/2+z
-x,1/2-y,1/2+z
x,1/2-y,1/2-z
-x,1/2+y,1/2-z
-x,1/2-y,1/2-z
x,1/2+y,1/2-z
-x,1/2+y,1/2+z
x,1/2-y,1/2+z
1/2+x,y,1/2+z
1/2-x,-y,1/2+z
1/2+x,-y,1/2-z
1/2-x,y,1/2-z
1/2-x,-y,1/2-z
1/2+x,y,1/2-z
1/2-x,y,1/2+z
1/2+x,-y,1/2+z
1/2+x,1/2+y,z
1/2-x,1/2-y,z
1/2+x,1/2-y,-z
1/2-x,1/2+y,-z
1/2-x,1/2-y,-z
1/2+x,1/2+y,-z
1/2-x,1/2+y,z
1/2+x,1/2-y,z
loop_
_atom_site_type_symbol
_atom_site_label
_atom_site_fract_x
_atom_site_fract_y
_atom_site_fract_z
Si Si1 0.625212 0.595252 0.691165
Si Si2 0.551240 0.815595 0.705160
Si Si3 0.625928 0.500000 0.000000
Si Si4 0.801437 0.816029 0.202672
O O1 0.624719 0.569491 0.500000
O O2 0.582806 0.637076 0.712520
O O3 0.667650 0.637310 0.707564
O O4 0.625798 0.550283 0.847344
O O5 0.553368 0.822188 0.500000
O O6 0.500000 0.822158 0.759379
O O7 0.565058 0.750000 0.750000
O O8 0.813612 0.750000 0.250000
O O9 0.750000 0.823807 0.250000
O O10 0.806771 0.822885 0.000000
#
# Coordination Sequence:
#
# PCOD9512775 Si02
#       4
#    32  32   8  32
#     4  12  24  43  67  90 127 170 215 262 317 371
#     4  10  20  37  63  98 134 164 204 260 320 381
#     4  12  26  48  63  90 126 174 220 266 295 376
#     4  11  21  38  64  99 132 161 207 264 326 388
#
# _framework density 19.119619
#
# number of rings (size 3 to 8) (size 9 to 14) (size 15 to 20)
#    0.000    0.923    3.077    6.000    0.000    1.846 
#    0.000    2.308    0.000    1.846    0.000    0.000 
#    0.000    0.000    0.000    0.000    0.000    0.000 
#
# Total GULP energy -144819.223487 kJ/mol
# GULP energy per Si atom -5569.970134 kJ/mol
# Density = 1.907610 g / cm^3
# Si number density = 19.119619 Si / 1000 Ang^3
#
#
#
# Elastic Constant Matrix: (Units=GPa)
#
#
# Indices 1 2 3 4 5 6 
#
# 1 73.5405 63.8229 30.4279 0.0001 0.0000 0.0001
# 2 63.8229 147.9841 62.9904 0.0000 0.0002 0.0000
# 3 30.4279 62.9904 182.7099 0.0002 0.0002 -0.0001
# 4 0.0001 0.0000 0.0002 45.5026 0.0002 0.0000
# 5 0.0000 0.0002 0.0002 0.0002 21.2536 -0.0002
# 6 0.0001 0.0000 -0.0001 0.0000 -0.0002 -4.7342
#
#
#
# Elastic Compliance Matrix: (Units=1/GPa)
#
#
# Indices 1 2 3 4 5 6 
#
# 1 0.021764 -0.009193 -0.000455 0.000000 0.000000 0.000001
# 2 -0.009193 0.011802 -0.002538 0.000000 0.000000 0.000000
# 3 -0.000455 -0.002538 0.006424 0.000000 0.000000 0.000000
# 4 0.000000 0.000000 0.000000 0.021977 0.000000 0.000000
# 5 0.000000 0.000000 0.000000 0.000000 0.047051 -0.000002
# 6 0.000001 0.000000 0.000000 0.000000 -0.000002 -0.211228
#
#
# Mechanical properties :
#
#
# Convention : Reuss Voigt Hill
#
# Bulk Modulus (GPa) = 64.02622 79.85742 71.94182
# Shear Modulus (GPa) = -68.84068 28.87063 -19.98502
#
# Velocity S-wave (km/s) = -6.00695 3.89009 -3.23656
# Velocity P-wave (km/s) = 3.81462 7.87623 4.87256
#
# Compressibility (1/GPa) = 0.01561860
#
# Stress axis : x y z
#
# Youngs Moduli (GPa) = 45.94665 84.72783 155.66646
#
# Poissons Ratio (x) = 0.77888 0.07088
# Poissons Ratio (y) = 0.42238 0.39509
# Poissons Ratio (z) = 0.02092 0.21504
#
# Static dielectric constant tensor:
#      x y z
#    x 1.679210 0.000000 0.000000 
#    y 0.000000 1.626980 0.000000 
#    z 0.000000 0.000000 1.677750 
# 
# From -- ./inp_files/5101.got.cif
#   From: 2010.05.17/outbox.cif.g08.bks.cpg/sg69_3_cif.got.tgz:5101.got - 2010.06.03 19:29:58.
