data_PCOD9512460
_publ_section_title
;
Structure prediction by ZEFSAII (Michael W. Deem and Ramdas Pophale) SiO2 
 PCOD9512460
Probable space group: F M M M
;
_chemical_formula_sum "Si O2"
_cell_formula_units_Z 112
_cell_length_a 10.955362
_cell_length_b 32.564618
_cell_length_c 14.401185
_cell_angle_alpha 90.000000
_cell_angle_beta 90.000000
_cell_angle_gamma 90.000000
_cell_volume 5137.726129
_symmetry_space_group_name_H-M "F M M M"
_symmetry_group_IT_number 69
_symmetry_cell_setting 'orthorhombic'
loop_
_space_group_symop_operation_xyz
x,y,z
-x,-y,z
x,-y,-z
-x,y,-z
-x,-y,-z
x,y,-z
-x,y,z
x,-y,z
x,1/2+y,1/2+z
-x,1/2-y,1/2+z
x,1/2-y,1/2-z
-x,1/2+y,1/2-z
-x,1/2-y,1/2-z
x,1/2+y,1/2-z
-x,1/2+y,1/2+z
x,1/2-y,1/2+z
1/2+x,y,1/2+z
1/2-x,-y,1/2+z
1/2+x,-y,1/2-z
1/2-x,y,1/2-z
1/2-x,-y,1/2-z
1/2+x,y,1/2-z
1/2-x,y,1/2+z
1/2+x,-y,1/2+z
1/2+x,1/2+y,z
1/2-x,1/2-y,z
1/2+x,1/2-y,-z
1/2-x,1/2+y,-z
1/2-x,1/2-y,-z
1/2+x,1/2+y,-z
1/2-x,1/2+y,z
1/2+x,1/2-y,z
loop_
_atom_site_type_symbol
_atom_site_label
_atom_site_fract_x
_atom_site_fract_y
_atom_site_fract_z
Si Si1 0.250000 0.069226 0.750000
Si Si2 0.731730 0.359681 0.111743
Si Si3 0.000000 0.361322 0.894797
Si Si4 0.500000 0.455586 0.340337
Si Si5 0.130745 0.726643 0.387315
O O1 0.294916 0.098886 0.666417
O O2 0.372130 0.046298 0.783547
O O3 0.645807 0.321567 0.132624
O O4 0.869875 0.348139 0.143866
O O5 0.733630 0.366106 0.000000
O O6 0.000000 0.411482 0.892835
O O7 0.000000 0.345890 0.000000
O O8 0.500000 0.500000 0.389734
O O9 0.131948 0.730041 0.500000
O O10 0.250000 0.750000 0.353714
O O11 0.000000 0.742734 0.355601
#
# Coordination Sequence:
#
# PCOD9512460 Si02
#       5
#    16  32  16  16  32
#     4  10  21  36  57  80 106 138 176 216 259 316
#     4   9  18  33  54  77 106 140 179 218 259 308
#     4   8  16  31  52  78 102 137 179 220 260 305
#     4  10  20  35  55  79 107 138 170 213 267 317
#     4   9  18  30  48  75 105 139 176 216 262 307
#
# _framework density 21.799526
#
# number of rings (size 3 to 8) (size 9 to 14) (size 15 to 20)
#    0.000    2.857    0.000    0.429    4.000    0.286 
#    0.000    0.714    0.000    5.143    0.000    0.000 
#    0.000    0.000    0.000    0.000    0.000    0.000 
#
# Total GULP energy -156100.694027 kJ/mol
# GULP energy per Si atom -5575.024787 kJ/mol
# Density = 2.174991 g / cm^3
# Si number density = 21.799526 Si / 1000 Ang^3
#
#
#
# Elastic Constant Matrix: (Units=GPa)
#
#
# Indices 1 2 3 4 5 6 
#
# 1 150.8401 43.8917 9.9885 0.0000 0.0000 0.0000
# 2 43.8917 71.7001 20.6938 0.0000 0.0000 0.0000
# 3 9.9885 20.6938 83.6621 0.0000 0.0000 0.0000
# 4 0.0000 0.0000 0.0000 7.9220 0.0000 0.0000
# 5 0.0000 0.0000 0.0000 0.0000 6.3736 0.0000
# 6 0.0000 0.0000 0.0000 0.0000 0.0000 -6.4823
#
#
#
# Elastic Compliance Matrix: (Units=1/GPa)
#
#
# Indices 1 2 3 4 5 6 
#
# 1 0.008072 -0.005022 0.000278 0.000000 0.000000 0.000000
# 2 -0.005022 0.018143 -0.003888 0.000000 0.000000 0.000000
# 3 0.000278 -0.003888 0.012881 0.000000 0.000000 0.000000
# 4 0.000000 0.000000 0.000000 0.126231 0.000000 0.000000
# 5 0.000000 0.000000 0.000000 0.000000 0.156898 0.000000
# 6 0.000000 0.000000 0.000000 0.000000 0.000000 -0.154265
#
#
# Mechanical properties :
#
#
# Convention : Reuss Voigt Hill
#
# Bulk Modulus (GPa) = 45.80076 50.59448 48.19762
# Shear Modulus (GPa) = 25.97383 17.00453 21.48918
#
# Velocity S-wave (km/s) = 3.45554 2.79595 3.14309
# Velocity P-wave (km/s) = 6.08084 5.80366 5.94386
#
# Compressibility (1/GPa) = 0.02183370
#
# Stress axis : x y z
#
# Youngs Moduli (GPa) = 123.87911 55.11653 77.63157
#
# Poissons Ratio (x) = 0.27679 -0.02161
# Poissons Ratio (y) = 0.62211 0.30185
# Poissons Ratio (z) = -0.03449 0.21430
#
# Static dielectric constant tensor:
#      x y z
#    x 1.851950 0.000000 0.000000 
#    y 0.000000 1.774490 0.000000 
#    z 0.000000 0.000000 1.797910 
# 
# From -- ./inp_files/7435.got.cif
#   From: 2010.05.17/outbox.cif.g08.bks.cpg/sg69_4_cif.got.tgz:7435.got - 2010.06.03 19:29:58.
