data_PCOD9512004
_publ_section_title
;
Structure prediction by ZEFSAII (Michael W. Deem and Ramdas Pophale) SiO2 
 PCOD9512004
Probable space group: F M M M
;
_chemical_formula_sum "Si O2"
_cell_formula_units_Z 192
_cell_length_a 24.379212
_cell_length_b 19.333664
_cell_length_c 20.802491
_cell_angle_alpha 90.000000
_cell_angle_beta 90.000000
_cell_angle_gamma 90.000000
_cell_volume 9805.035569
_symmetry_space_group_name_H-M "F M M M"
_symmetry_group_IT_number 69
_symmetry_cell_setting 'orthorhombic'
loop_
_space_group_symop_operation_xyz
x,y,z
-x,-y,z
x,-y,-z
-x,y,-z
-x,-y,-z
x,y,-z
-x,y,z
x,-y,z
x,1/2+y,1/2+z
-x,1/2-y,1/2+z
x,1/2-y,1/2-z
-x,1/2+y,1/2-z
-x,1/2-y,1/2-z
x,1/2+y,1/2-z
-x,1/2+y,1/2+z
x,1/2-y,1/2+z
1/2+x,y,1/2+z
1/2-x,-y,1/2+z
1/2+x,-y,1/2-z
1/2-x,y,1/2-z
1/2-x,-y,1/2-z
1/2+x,y,1/2-z
1/2-x,y,1/2+z
1/2+x,-y,1/2+z
1/2+x,1/2+y,z
1/2-x,1/2-y,z
1/2+x,1/2-y,-z
1/2-x,1/2+y,-z
1/2-x,1/2-y,-z
1/2+x,1/2+y,-z
1/2-x,1/2+y,z
1/2+x,1/2-y,z
loop_
_atom_site_type_symbol
_atom_site_label
_atom_site_fract_x
_atom_site_fract_y
_atom_site_fract_z
Si Si1 0.267214 0.418980 0.175974
Si Si2 0.562696 0.234079 0.574310
Si Si3 0.059362 0.397912 0.092815
Si Si4 0.138404 0.308575 0.305646
Si Si5 0.437513 0.423626 0.744717
Si Si6 0.815428 0.579673 0.932674
O O1 0.284126 0.500000 0.160755
O O2 0.250000 0.420908 0.250000
O O3 0.311608 0.357665 0.172076
O O4 0.215833 0.396492 0.131001
O O5 0.576847 0.214542 0.500000
O O6 0.500000 0.208080 0.587631
O O7 0.559059 0.316881 0.577736
O O8 0.606235 0.216593 0.630242
O O9 0.060289 0.414111 0.168341
O O10 0.118881 0.421255 0.070271
O O11 0.000000 0.424563 0.069676
O O12 0.150828 0.250000 0.250000
O O13 0.097141 0.361828 0.271949
O O14 0.500000 0.420976 0.768712
O O15 0.414320 0.500000 0.759035
O O16 0.798633 0.500000 0.936364
O O17 0.799166 0.615222 0.000000
#
# Coordination Sequence:
#
# PCOD9512004 Si02
#       6
#    32  32  32  32  32  32
#     4  10  23  43  64  84 117 162 206 255 314 369
#     4  10  22  39  59  88 129 170 202 243 306 370
#     4  10  19  35  59  88 124 161 198 241 300 368
#     4  12  23  38  63  93 121 159 210 263 309 360
#     4  10  20  34  58  93 128 161 202 254 310 369
#     4  10  21  37  58  85 117 155 200 250 302 359
#
# _framework density 19.581775
#
# number of rings (size 3 to 8) (size 9 to 14) (size 15 to 20)
#    0.000    1.667    1.667    3.000    0.000    5.000 
#    0.000    0.833    0.000    3.500    0.000    5.833 
#    0.000    0.000    0.000    0.000    0.000    0.000 
#
# Total GULP energy -267226.733685 kJ/mol
# GULP energy per Si atom -5567.223618 kJ/mol
# Density = 1.953721 g / cm^3
# Si number density = 19.581775 Si / 1000 Ang^3
#
#
#
# Elastic Constant Matrix: (Units=GPa)
#
#
# Indices 1 2 3 4 5 6 
#
# 1 113.5893 45.2343 73.0563 0.0000 0.0000 0.0000
# 2 45.2343 85.7549 36.3392 0.0000 0.0000 0.0000
# 3 73.0563 36.3392 127.0400 0.0000 0.0000 0.0000
# 4 0.0000 0.0000 0.0000 12.1993 0.0000 0.0000
# 5 0.0000 0.0000 0.0000 0.0000 67.1486 0.0000
# 6 0.0000 0.0000 0.0000 0.0000 0.0000 47.0394
#
#
#
# Elastic Compliance Matrix: (Units=1/GPa)
#
#
# Indices 1 2 3 4 5 6 
#
# 1 0.015694 -0.005068 -0.007575 0.000000 0.000000 0.000000
# 2 -0.005068 0.014906 -0.001349 0.000000 0.000000 0.000000
# 3 -0.007575 -0.001349 0.012614 0.000000 0.000000 0.000000
# 4 0.000000 0.000000 0.000000 0.081972 0.000000 0.000000
# 5 0.000000 0.000000 0.000000 0.000000 0.014892 0.000000
# 6 0.000000 0.000000 0.000000 0.000000 0.000000 0.021259
#
#
# Mechanical properties :
#
#
# Convention : Reuss Voigt Hill
#
# Bulk Modulus (GPa) = 65.66684 70.62709 68.14696
# Shear Modulus (GPa) = 25.72025 36.72775 31.22400
#
# Velocity S-wave (km/s) = 3.62813 4.33553 3.99751
# Velocity P-wave (km/s) = 7.15252 7.82358 7.49557
#
# Compressibility (1/GPa) = 0.01522839
#
# Stress axis : x y z
#
# Youngs Moduli (GPa) = 63.71781 67.08546 79.27784
#
# Poissons Ratio (x) = 0.34001 0.60056
# Poissons Ratio (y) = 0.32294 0.10697
# Poissons Ratio (z) = 0.48269 0.09052
#
# Static dielectric constant tensor:
#      x y z
#    x 1.724720 0.000000 0.000000 
#    y 0.000000 1.692670 0.000000 
#    z 0.000000 0.000000 1.738800 
# 
# From -- ./inp_files/32056.got.cif
#   From: 2010.05.17/outbox.cif.g08.bks.cpg/sg69_17_cif.got.tgz:32056.got - 2010.06.03 19:29:58.
