data_PCOD9512168
_publ_section_title
;
Structure prediction by ZEFSAII (Michael W. Deem and Ramdas Pophale) SiO2 
 PCOD9512168
Probable space group: F M M M
;
_chemical_formula_sum "Si O2"
_cell_formula_units_Z 144
_cell_length_a 18.216034
_cell_length_b 18.717326
_cell_length_c 20.053138
_cell_angle_alpha 90.000000
_cell_angle_beta 90.000000
_cell_angle_gamma 90.000000
_cell_volume 6837.226627
_symmetry_space_group_name_H-M "F M M M"
_symmetry_group_IT_number 69
_symmetry_cell_setting 'orthorhombic'
loop_
_space_group_symop_operation_xyz
x,y,z
-x,-y,z
x,-y,-z
-x,y,-z
-x,-y,-z
x,y,-z
-x,y,z
x,-y,z
x,1/2+y,1/2+z
-x,1/2-y,1/2+z
x,1/2-y,1/2-z
-x,1/2+y,1/2-z
-x,1/2-y,1/2-z
x,1/2+y,1/2-z
-x,1/2+y,1/2+z
x,1/2-y,1/2+z
1/2+x,y,1/2+z
1/2-x,-y,1/2+z
1/2+x,-y,1/2-z
1/2-x,y,1/2-z
1/2-x,-y,1/2-z
1/2+x,y,1/2-z
1/2-x,y,1/2+z
1/2+x,-y,1/2+z
1/2+x,1/2+y,z
1/2-x,1/2-y,z
1/2+x,1/2-y,-z
1/2-x,1/2+y,-z
1/2-x,1/2-y,-z
1/2+x,1/2+y,-z
1/2-x,1/2+y,z
1/2+x,1/2-y,z
loop_
_atom_site_type_symbol
_atom_site_label
_atom_site_fract_x
_atom_site_fract_y
_atom_site_fract_z
Si Si1 0.124114 0.852572 0.641281
Si Si2 0.413554 0.500000 0.709063
Si Si3 0.305374 0.500000 0.187209
Si Si4 0.138720 0.587910 0.000000
Si Si5 0.294111 0.342947 0.142600
Si Si6 0.622283 0.750000 0.250000
Si Si7 0.789151 0.673933 0.500000
O O1 0.119568 0.928954 0.677060
O O2 0.104717 0.874094 0.565605
O O3 0.207886 0.822977 0.639532
O O4 0.084754 0.796263 0.690774
O O5 0.500000 0.500000 0.699528
O O6 0.387904 0.500000 0.784964
O O7 0.250000 0.500000 0.250000
O O8 0.292965 0.427904 0.148618
O O9 0.225186 0.612422 0.000000
O O10 0.131961 0.500000 0.000000
O O11 0.331412 0.308387 0.207304
O O12 0.330130 0.327671 0.070765
O O13 0.750000 0.750000 0.500000
#
# Coordination Sequence:
#
# PCOD9512168 Si02
#       7
#    32  16  16  16  32  16  16
#     4  11  20  36  55  86 118 154 197 240 298 352
#     4  12  24  39  58  87 120 155 199 251 299 350
#     4  12  20  35  59  87 111 152 198 246 285 348
#     4  10  20  32  56  80 120 159 192 237 298 359
#     4  11  20  32  57  84 119 154 193 233 299 349
#     4  12  21  32  59  88 119 160 197 246 297 356
#     4  10  22  32  46  86 132 151 179 243 306 355
#
# _framework density 21.061171000000002
#
# number of rings (size 3 to 8) (size 9 to 14) (size 15 to 20)
#    0.000    0.889    5.556    4.667    4.667    0.000 
#    0.000    1.667    0.000    0.000    0.000    1.556 
#    0.000    0.000    0.000    0.000    0.000    0.000 
#
# Total GULP energy -200709.057548 kJ/mol
# GULP energy per Si atom -5575.251599 kJ/mol
# Density = 2.101324 g / cm^3
# Si number density = 21.061171 Si / 1000 Ang^3
#
#
#
# Elastic Constant Matrix: (Units=GPa)
#
#
# Indices 1 2 3 4 5 6 
#
# 1 45.5740 1.7360 14.5665 0.0000 0.0000 0.0000
# 2 1.7360 128.0270 56.1476 0.0000 0.0000 0.0000
# 3 14.5665 56.1476 175.9593 0.0000 0.0000 0.0000
# 4 0.0000 0.0000 0.0000 43.4647 0.0000 0.0000
# 5 0.0000 0.0000 0.0000 0.0000 -3.4318 0.0000
# 6 0.0000 0.0000 0.0000 0.0000 0.0000 -36.7693
#
#
#
# Elastic Compliance Matrix: (Units=1/GPa)
#
#
# Indices 1 2 3 4 5 6 
#
# 1 0.022578 0.000597 -0.002060 0.000000 0.000000 0.000000
# 2 0.000597 0.009098 -0.002952 0.000000 0.000000 0.000000
# 3 -0.002060 -0.002952 0.006796 0.000000 0.000000 0.000000
# 4 0.000000 0.000000 0.000000 0.023007 0.000000 0.000000
# 5 0.000000 0.000000 0.000000 0.000000 -0.291393 0.000000
# 6 0.000000 0.000000 0.000000 0.000000 0.000000 -0.027197
#
#
# Mechanical properties :
#
#
# Convention : Reuss Voigt Hill
#
# Bulk Modulus (GPa) = 33.73664 54.94005 44.33835
# Shear Modulus (GPa) = -20.97304 19.12674 -0.92315
#
# Velocity S-wave (km/s) = -3.15908 3.01682 -0.66277
# Velocity P-wave (km/s) = 1.65735 6.18689 4.52904
#
# Compressibility (1/GPa) = 0.02964136
#
# Stress axis : x y z
#
# Youngs Moduli (GPa) = 44.29116 109.91947 147.15125
#
# Poissons Ratio (x) = -0.06563 0.30307
# Poissons Ratio (y) = -0.02645 0.43445
# Poissons Ratio (z) = 0.09122 0.32453
#
# Static dielectric constant tensor:
#      x y z
#    x 1.766890 0.000000 0.000000 
#    y 0.000000 1.785080 0.000000 
#    z 0.000000 0.000000 1.835750 
# 
# From -- ./inp_files/24555.got.cif
#   From: 2010.05.17/outbox.cif.g08.bks.cpg/sg69_13_cif.got.tgz:24555.got - 2010.06.03 19:29:58.
