data_PCOD9512194
_publ_section_title
;
Structure prediction by ZEFSAII (Michael W. Deem and Ramdas Pophale) SiO2 
 PCOD9512194
Probable space group: F M M M
;
_chemical_formula_sum "Si O2"
_cell_formula_units_Z 160
_cell_length_a 26.706147
_cell_length_b 13.991805
_cell_length_c 23.485049
_cell_angle_alpha 90.000000
_cell_angle_beta 90.000000
_cell_angle_gamma 90.000000
_cell_volume 8775.592528
_symmetry_space_group_name_H-M "F M M M"
_symmetry_group_IT_number 69
_symmetry_cell_setting 'orthorhombic'
loop_
_space_group_symop_operation_xyz
x,y,z
-x,-y,z
x,-y,-z
-x,y,-z
-x,-y,-z
x,y,-z
-x,y,z
x,-y,z
x,1/2+y,1/2+z
-x,1/2-y,1/2+z
x,1/2-y,1/2-z
-x,1/2+y,1/2-z
-x,1/2-y,1/2-z
x,1/2+y,1/2-z
-x,1/2+y,1/2+z
x,1/2-y,1/2+z
1/2+x,y,1/2+z
1/2-x,-y,1/2+z
1/2+x,-y,1/2-z
1/2-x,y,1/2-z
1/2-x,-y,1/2-z
1/2+x,y,1/2-z
1/2-x,y,1/2+z
1/2+x,-y,1/2+z
1/2+x,1/2+y,z
1/2-x,1/2-y,z
1/2+x,1/2-y,-z
1/2-x,1/2+y,-z
1/2-x,1/2-y,-z
1/2+x,1/2+y,-z
1/2-x,1/2+y,z
1/2+x,1/2-y,z
loop_
_atom_site_type_symbol
_atom_site_label
_atom_site_fract_x
_atom_site_fract_y
_atom_site_fract_z
Si Si1 0.830654 0.388524 0.619286
Si Si2 0.272204 0.886135 0.065638
Si Si3 0.905721 0.110574 0.784811
Si Si4 0.942622 0.808227 0.671782
Si Si5 0.121778 0.213358 0.434388
O O1 0.834726 0.500000 0.604041
O O2 0.773482 0.359556 0.606970
O O3 0.852180 0.378013 0.683314
O O4 0.865854 0.323553 0.579975
O O5 0.325439 0.838967 0.077461
O O6 0.278461 0.000000 0.068685
O O7 0.257677 0.862418 0.000000
O O8 0.908947 0.136549 0.718337
O O9 0.938816 0.194925 0.812908
O O10 0.921322 0.000000 0.793606
O O11 0.919941 0.821362 0.609485
O O12 0.000000 0.839069 0.677053
O O13 0.108675 0.199494 0.500000
#
# Coordination Sequence:
#
# PCOD9512194 Si02
#       5
#    32  32  32  32  32
#     4   9  17  30  51  79 105 128 159 199 246 304
#     4   9  17  30  49  73 103 138 171 201 238 291
#     4   9  18  34  55  77 100 125 159 207 257 303
#     4  10  21  35  52  75  99 129 173 214 250 296
#     4  10  20  33  50  73 103 137 170 206 246 289
#
# _framework density 18.232386999999999
#
# number of rings (size 3 to 8) (size 9 to 14) (size 15 to 20)
#    0.000    2.600    0.000    2.400    0.000    5.600 
#    0.000    1.000    0.000    8.400    0.000    9.800 
#    0.000    0.000    0.000    0.000    0.000    0.000 
#
# Total GULP energy -222813.834181 kJ/mol
# GULP energy per Si atom -5570.345855 kJ/mol
# Density = 1.819089 g / cm^3
# Si number density = 18.232387 Si / 1000 Ang^3
#
#
#
# Elastic Constant Matrix: (Units=GPa)
#
#
# Indices 1 2 3 4 5 6 
#
# 1 64.8940 22.5730 62.4571 0.0000 0.0000 0.0000
# 2 22.5730 53.7015 15.4414 0.0000 0.0000 0.0000
# 3 62.4571 15.4414 111.5606 0.0000 0.0000 0.0000
# 4 0.0000 0.0000 0.0000 16.0354 0.0000 0.0000
# 5 0.0000 0.0000 0.0000 0.0000 15.1350 0.0000
# 6 0.0000 0.0000 0.0000 0.0000 0.0000 15.5696
#
#
#
# Elastic Compliance Matrix: (Units=1/GPa)
#
#
# Indices 1 2 3 4 5 6 
#
# 1 0.038219 -0.010323 -0.019968 0.000000 0.000000 0.000000
# 2 -0.010323 0.022182 0.002709 0.000000 0.000000 0.000000
# 3 -0.019968 0.002709 0.019768 0.000000 0.000000 0.000000
# 4 0.000000 0.000000 0.000000 0.062362 0.000000 0.000000
# 5 0.000000 0.000000 0.000000 0.000000 0.066072 0.000000
# 6 0.000000 0.000000 0.000000 0.000000 0.000000 0.064228
#
#
# Mechanical properties :
#
#
# Convention : Reuss Voigt Hill
#
# Bulk Modulus (GPa) = 39.99299 47.89990 43.94645
# Shear Modulus (GPa) = 14.86644 17.99366 16.43005
#
# Velocity S-wave (km/s) = 2.85859 3.14491 3.00517
# Velocity P-wave (km/s) = 5.73395 6.28619 6.01641
#
# Compressibility (1/GPa) = 0.02500438
#
# Stress axis : x y z
#
# Youngs Moduli (GPa) = 26.16523 45.08214 50.58756
#
# Poissons Ratio (x) = 0.46540 1.01012
# Poissons Ratio (y) = 0.27011 -0.13706
# Poissons Ratio (z) = 0.52246 -0.12214
#
# Static dielectric constant tensor:
#      x y z
#    x 1.608480 0.000000 0.000000 
#    y 0.000000 1.665670 0.000000 
#    z 0.000000 0.000000 1.630340 
# 
# From -- ./inp_files/17689.got.cif
#   From: 2010.05.17/outbox.cif.g08.bks.cpg/sg69_9_cif.got.tgz:17689.got - 2010.06.03 19:29:58.
