data_PCOD9512413
_publ_section_title
;
Structure prediction by ZEFSAII (Michael W. Deem and Ramdas Pophale) SiO2 
 PCOD9512413
Probable space group: F M M M
;
_chemical_formula_sum "Si O2"
_cell_formula_units_Z 128
_cell_length_a 27.567946
_cell_length_b 26.972294
_cell_length_c 9.244643
_cell_angle_alpha 90.000000
_cell_angle_beta 90.000000
_cell_angle_gamma 90.000000
_cell_volume 6874.046078
_symmetry_space_group_name_H-M "F M M M"
_symmetry_group_IT_number 69
_symmetry_cell_setting 'orthorhombic'
loop_
_space_group_symop_operation_xyz
x,y,z
-x,-y,z
x,-y,-z
-x,y,-z
-x,-y,-z
x,y,-z
-x,y,z
x,-y,z
x,1/2+y,1/2+z
-x,1/2-y,1/2+z
x,1/2-y,1/2-z
-x,1/2+y,1/2-z
-x,1/2-y,1/2-z
x,1/2+y,1/2-z
-x,1/2+y,1/2+z
x,1/2-y,1/2+z
1/2+x,y,1/2+z
1/2-x,-y,1/2+z
1/2+x,-y,1/2-z
1/2-x,y,1/2-z
1/2-x,-y,1/2-z
1/2+x,y,1/2-z
1/2-x,y,1/2+z
1/2+x,-y,1/2+z
1/2+x,1/2+y,z
1/2-x,1/2-y,z
1/2+x,1/2-y,-z
1/2-x,1/2+y,-z
1/2-x,1/2-y,-z
1/2+x,1/2+y,-z
1/2-x,1/2+y,z
1/2+x,1/2-y,z
loop_
_atom_site_type_symbol
_atom_site_label
_atom_site_fract_x
_atom_site_fract_y
_atom_site_fract_z
Si Si1 0.303777 0.500000 0.320964
Si Si2 0.941240 0.441295 0.000000
Si Si3 0.803146 0.101696 0.822236
Si Si4 0.600404 0.862390 0.782882
Si Si5 0.940795 0.716500 0.000000
Si Si6 0.556521 0.670127 0.000000
O O1 0.303758 0.500000 0.500000
O O2 0.250000 0.500000 0.250000
O O3 0.322973 0.450035 0.247149
O O4 0.917346 0.410771 0.868929
O O5 0.929829 0.500000 0.000000
O O6 0.000000 0.435748 0.000000
O O7 0.750000 0.109670 0.750000
O O8 0.842778 0.139349 0.757586
O O9 0.800851 0.100639 0.000000
O O10 0.581159 0.814095 0.866847
O O11 0.572838 0.861044 0.634475
O O12 0.924219 0.773388 0.000000
O O13 0.000000 0.713080 0.000000
O O14 0.500000 0.677053 0.000000
#
# Coordination Sequence:
#
# PCOD9512413 Si02
#       6
#    16  16  32  32  16  16
#     4  10  20  34  58  84 113 154 203 254 297 342
#     4  10  23  41  60  88 128 172 208 236 290 375
#     4  11  23  38  58  86 122 163 206 256 301 355
#     4  11  22  37  62  92 120 159 202 250 304 364
#     4  10  22  39  66  93 118 155 198 255 316 371
#     4  11  21  40  64  93 122 148 198 263 316 359
#
# _framework density 18.620766
#
# number of rings (size 3 to 8) (size 9 to 14) (size 15 to 20)
#    0.000    1.375    1.250    7.125    8.750    2.000 
#    0.000    0.625    0.000    6.750    0.000    0.000 
#    0.000    0.000    0.000    0.000    0.000    0.000 
#
# Total GULP energy -178164.488426 kJ/mol
# GULP energy per Si atom -5567.640263 kJ/mol
# Density = 1.857838 g / cm^3
# Si number density = 18.620766 Si / 1000 Ang^3
#
#
#
# Elastic Constant Matrix: (Units=GPa)
#
#
# Indices 1 2 3 4 5 6 
#
# 1 108.7170 42.7607 51.9641 -0.0007 0.0016 0.0037
# 2 42.7607 85.5893 55.6626 -0.0009 0.0026 0.0024
# 3 51.9641 55.6626 190.2882 -0.0008 0.0061 0.0094
# 4 -0.0007 -0.0009 -0.0008 -208.7402 -0.0168 -0.0051
# 5 0.0016 0.0026 0.0061 -0.0168 32.9110 -0.0050
# 6 0.0037 0.0024 0.0094 -0.0051 -0.0050 3.0882
#
#
#
# Elastic Compliance Matrix: (Units=1/GPa)
#
#
# Indices 1 2 3 4 5 6 
#
# 1 0.011966 -0.004759 -0.001876 0.000000 0.000000 -0.000005
# 2 -0.004759 0.016321 -0.003475 0.000000 0.000000 0.000003
# 3 -0.001876 -0.003475 0.006784 0.000000 -0.000001 -0.000016
# 4 0.000000 0.000000 0.000000 -0.004791 -0.000002 -0.000008
# 5 0.000000 0.000000 -0.000001 -0.000002 0.030385 0.000049
# 6 -0.000005 0.000003 -0.000016 -0.000008 0.000049 0.323810
#
#
# Mechanical properties :
#
#
# Convention : Reuss Voigt Hill
#
# Bulk Modulus (GPa) = 67.32639 76.15215 71.73927
# Shear Modulus (GPa) = 12.20570 -18.93437 -3.36434
#
# Velocity S-wave (km/s) = 2.56303 -3.19226 -1.34562
# Velocity P-wave (km/s) = 6.70775 5.23429 6.01630
#
# Compressibility (1/GPa) = 0.01485302
#
# Stress axis : x y z
#
# Youngs Moduli (GPa) = 83.56714 61.27157 147.40905
#
# Poissons Ratio (x) = 0.29156 0.27652
# Poissons Ratio (y) = 0.39765 0.51220
# Poissons Ratio (z) = 0.15676 0.21290
#
# Static dielectric constant tensor:
#      x y z
#    x 1.752300 0.000000 0.000000 
#    y 0.000000 1.695130 0.000000 
#    z 0.000000 0.000000 1.606820 
# 
# From -- ./inp_files/5415.got.cif
#   From: 2010.05.17/outbox.cif.g08.bks.cpg/sg69_3_cif.got.tgz:5415.got - 2010.06.03 19:29:58.
