data_PCOD9512203
_publ_section_title
;
Structure prediction by ZEFSAII (Michael W. Deem and Ramdas Pophale) SiO2 
 PCOD9512203
Probable space group: F M M M
;
_chemical_formula_sum "Si O2"
_cell_formula_units_Z 192
_cell_length_a 24.062741
_cell_length_b 16.677314
_cell_length_c 28.004513
_cell_angle_alpha 90.000000
_cell_angle_beta 90.000000
_cell_angle_gamma 90.000000
_cell_volume 11238.263921
_symmetry_space_group_name_H-M "F M M M"
_symmetry_group_IT_number 69
_symmetry_cell_setting 'orthorhombic'
loop_
_space_group_symop_operation_xyz
x,y,z
-x,-y,z
x,-y,-z
-x,y,-z
-x,-y,-z
x,y,-z
-x,y,z
x,-y,z
x,1/2+y,1/2+z
-x,1/2-y,1/2+z
x,1/2-y,1/2-z
-x,1/2+y,1/2-z
-x,1/2-y,1/2-z
x,1/2+y,1/2-z
-x,1/2+y,1/2+z
x,1/2-y,1/2+z
1/2+x,y,1/2+z
1/2-x,-y,1/2+z
1/2+x,-y,1/2-z
1/2-x,y,1/2-z
1/2-x,-y,1/2-z
1/2+x,y,1/2-z
1/2-x,y,1/2+z
1/2+x,-y,1/2+z
1/2+x,1/2+y,z
1/2-x,1/2-y,z
1/2+x,1/2-y,-z
1/2-x,1/2+y,-z
1/2-x,1/2-y,-z
1/2+x,1/2+y,-z
1/2-x,1/2+y,z
1/2+x,1/2-y,z
loop_
_atom_site_type_symbol
_atom_site_label
_atom_site_fract_x
_atom_site_fract_y
_atom_site_fract_z
Si Si1 0.383919 0.836549 0.228347
Si Si2 0.300882 0.810800 0.617653
Si Si3 0.780078 0.594869 0.054532
Si Si4 0.500000 0.592511 0.726327
Si Si5 0.794747 0.590798 0.713802
Si Si6 0.120098 0.830109 0.386113
Si Si7 0.000000 0.405906 0.110853
O O1 0.367993 0.750000 0.250000
O O2 0.446751 0.857201 0.240830
O O3 0.348988 0.904951 0.254003
O O4 0.376141 0.839654 0.171361
O O5 0.250000 0.750000 0.628359
O O6 0.275062 0.863062 0.575047
O O7 0.305997 0.863560 0.664994
O O8 0.356473 0.760538 0.605786
O O9 0.772743 0.500000 0.055768
O O10 0.833252 0.617437 0.086981
O O11 0.790309 0.620901 0.000000
O O12 0.500000 0.500000 0.743029
O O13 0.500000 0.589392 0.668510
O O14 0.776845 0.500000 0.702941
O O15 0.750000 0.629206 0.750000
O O16 0.057806 0.858606 0.401246
O O17 0.000000 0.500000 0.093880
#
# Coordination Sequence:
#
# PCOD9512203 Si02
#       7
#    32  32  32  16  32  32  16
#     4  11  20  33  52  74 105 143 180 220 261 308
#     4  10  20  33  51  74 105 138 173 220 265 318
#     4  10  21  37  58  82 107 137 177 225 276 327
#     4   9  19  33  49  72 101 137 184 224 258 303
#     4  11  22  32  47  72 104 141 178 216 264 318
#     4  10  20  34  55  79 108 144 180 222 268 323
#     4   9  18  33  54  79 109 143 181 222 268 321
#
# _framework density 17.084489999999999
#
# number of rings (size 3 to 8) (size 9 to 14) (size 15 to 20)
#    0.000    1.833    1.667    3.750    0.000    6.333 
#    0.000    0.417    0.000    1.500    0.000    1.750 
#    0.000    1.333    0.000    0.000    0.000    0.167 
#
# Total GULP energy -267364.535111 kJ/mol
# GULP energy per Si atom -5570.094481 kJ/mol
# Density = 1.704560 g / cm^3
# Si number density = 17.084490 Si / 1000 Ang^3
#
#
#
# Elastic Constant Matrix: (Units=GPa)
#
#
# Indices 1 2 3 4 5 6 
#
# 1 106.5996 33.3441 36.8166 0.0000 0.0000 0.0000
# 2 33.3441 82.4481 33.2349 0.0000 0.0000 0.0000
# 3 36.8166 33.2349 74.7605 0.0000 0.0000 0.0000
# 4 0.0000 0.0000 0.0000 21.0813 0.0000 0.0000
# 5 0.0000 0.0000 0.0000 0.0000 9.9551 0.0000
# 6 0.0000 0.0000 0.0000 0.0000 0.0000 25.0763
#
#
#
# Elastic Compliance Matrix: (Units=1/GPa)
#
#
# Indices 1 2 3 4 5 6 
#
# 1 0.011875 -0.002979 -0.004524 0.000000 0.000000 0.000000
# 2 -0.002979 0.015524 -0.005434 0.000000 0.000000 0.000000
# 3 -0.004524 -0.005434 0.018020 0.000000 0.000000 0.000000
# 4 0.000000 0.000000 0.000000 0.047435 0.000000 0.000000
# 5 0.000000 0.000000 0.000000 0.000000 0.100451 0.000000
# 6 0.000000 0.000000 0.000000 0.000000 0.000000 0.039878
#
#
# Mechanical properties :
#
#
# Convention : Reuss Voigt Hill
#
# Bulk Modulus (GPa) = 51.16419 52.28880 51.72650
# Shear Modulus (GPa) = 18.82723 21.91671 20.37197
#
# Velocity S-wave (km/s) = 3.32325 3.58557 3.45690
# Velocity P-wave (km/s) = 6.68865 6.91478 6.80266
#
# Compressibility (1/GPa) = 0.01954492
#
# Stress axis : x y z
#
# Youngs Moduli (GPa) = 84.20988 64.41552 55.49532
#
# Poissons Ratio (x) = 0.19190 0.25104
# Poissons Ratio (y) = 0.25087 0.30157
# Poissons Ratio (z) = 0.38094 0.35005
#
# Static dielectric constant tensor:
#      x y z
#    x 1.231430 0.000000 0.000000 
#    y 0.000000 1.628280 0.000000 
#    z 0.000000 0.000000 1.572240 
# 
# From -- ./inp_files/43196.got.cif
#   From: 2010.05.17/outbox.cif.g08.bks.cpg/sg69_22_cif.got.tgz:43196.got - 2010.06.03 19:29:58.
