data_PCOD9512456
_publ_section_title
;
Structure prediction by ZEFSAII (Michael W. Deem and Ramdas Pophale) SiO2 
 PCOD9512456
Probable space group: F M M M
;
_chemical_formula_sum "Si O2"
_cell_formula_units_Z 80
_cell_length_a 14.736350
_cell_length_b 34.175805
_cell_length_c 8.637656
_cell_angle_alpha 90.000000
_cell_angle_beta 90.000000
_cell_angle_gamma 90.000000
_cell_volume 4350.153531
_symmetry_space_group_name_H-M "F M M M"
_symmetry_group_IT_number 69
_symmetry_cell_setting 'orthorhombic'
loop_
_space_group_symop_operation_xyz
x,y,z
-x,-y,z
x,-y,-z
-x,y,-z
-x,-y,-z
x,y,-z
-x,y,z
x,-y,z
x,1/2+y,1/2+z
-x,1/2-y,1/2+z
x,1/2-y,1/2-z
-x,1/2+y,1/2-z
-x,1/2-y,1/2-z
x,1/2+y,1/2-z
-x,1/2+y,1/2+z
x,1/2-y,1/2+z
1/2+x,y,1/2+z
1/2-x,-y,1/2+z
1/2+x,-y,1/2-z
1/2-x,y,1/2-z
1/2-x,-y,1/2-z
1/2+x,y,1/2-z
1/2-x,y,1/2+z
1/2+x,-y,1/2+z
1/2+x,1/2+y,z
1/2-x,1/2-y,z
1/2+x,1/2-y,-z
1/2-x,1/2+y,-z
1/2-x,1/2-y,-z
1/2+x,1/2+y,-z
1/2-x,1/2+y,z
1/2+x,1/2-y,z
loop_
_atom_site_type_symbol
_atom_site_label
_atom_site_fract_x
_atom_site_fract_y
_atom_site_fract_z
Si Si1 0.350902 0.208549 0.185232
Si Si2 0.000000 0.058563 0.815447
Si Si3 0.147583 0.500000 0.814281
Si Si4 0.500000 0.354700 0.313375
O O1 0.385855 0.250000 0.250000
O O2 0.250000 0.203339 0.250000
O O3 0.413778 0.172127 0.227817
O O4 0.348274 0.211367 0.000000
O O5 0.088519 0.036882 0.745832
O O6 0.000000 0.103765 0.768782
O O7 0.000000 0.053568 0.000000
O O8 0.250000 0.500000 0.750000
O O9 0.149270 0.500000 0.000000
O O10 0.500000 0.360539 0.500000
#
# Coordination Sequence:
#
# PCOD9512456 Si02
#       4
#    32  16  16  16
#     4  10  20  35  55  78 108 145 188 233 280 333
#     4  11  23  39  60  89 119 149 189 233 280 339
#     4  11  22  41  66  88 116 151 186 229 280 338
#     4  10  22  38  55  79 113 151 186 230 283 332
#
# _framework density 18.390156000000001
#
# number of rings (size 3 to 8) (size 9 to 14) (size 15 to 20)
#    0.000    1.600    0.000    7.800    0.000    4.800 
#    0.000    4.000    0.000    0.000    0.000    0.000 
#    0.000    0.000    0.000    0.000    0.000    0.000 
#
# Total GULP energy -111760.462504 kJ/mol
# GULP energy per Si atom -5588.023125 kJ/mol
# Density = 1.834830 g / cm^3
# Si number density = 18.390156 Si / 1000 Ang^3
#
#
#
# Elastic Constant Matrix: (Units=GPa)
#
#
# Indices 1 2 3 4 5 6 
#
# 1 151.7532 93.1758 68.7552 0.0000 0.0000 0.0000
# 2 93.1758 184.3847 80.3987 0.0000 0.0000 0.0000
# 3 68.7552 80.3987 130.5360 0.0000 0.0000 0.0000
# 4 0.0000 0.0000 0.0000 33.5724 0.0000 0.0000
# 5 0.0000 0.0000 0.0000 0.0000 23.2323 0.0000
# 6 0.0000 0.0000 0.0000 0.0000 0.0000 -10.0963
#
#
#
# Elastic Compliance Matrix: (Units=1/GPa)
#
#
# Indices 1 2 3 4 5 6 
#
# 1 0.010375 -0.003910 -0.003056 0.000000 0.000000 0.000000
# 2 -0.003910 0.008888 -0.003415 0.000000 0.000000 0.000000
# 3 -0.003056 -0.003415 0.011374 0.000000 0.000000 0.000000
# 4 0.000000 0.000000 0.000000 0.029786 0.000000 0.000000
# 5 0.000000 0.000000 0.000000 0.000000 0.043044 0.000000
# 6 0.000000 0.000000 0.000000 0.000000 0.000000 -0.099046
#
#
# Mechanical properties :
#
#
# Convention : Reuss Voigt Hill
#
# Bulk Modulus (GPa) = 101.27197 105.70370 103.48784
# Shear Modulus (GPa) = 175.58237 24.29795 99.94016
#
# Velocity S-wave (km/s) = 9.78180 3.63884 7.37986
# Velocity P-wave (km/s) = 13.51910 8.67514 11.35835
#
# Compressibility (1/GPa) = 0.00987440
#
# Stress axis : x y z
#
# Youngs Moduli (GPa) = 96.38248 112.50533 87.92074
#
# Poissons Ratio (x) = 0.43993 0.26873
# Poissons Ratio (y) = 0.37688 0.30024
# Poissons Ratio (z) = 0.29459 0.38420
#
# Static dielectric constant tensor:
#      x y z
#    x 1.622270 0.000000 0.000000 
#    y 0.000000 1.609380 0.000000 
#    z 0.000000 0.000000 1.618270 
# 
# From -- ./inp_files/2297.got.cif
#   From: 2010.05.17/outbox.cif.g08.bks.cpg/sg69_2_cif.got.tgz:2297.got - 2010.06.03 19:29:58.
