data_PCOD9512280
_publ_section_title
;
Structure prediction by ZEFSAII (Michael W. Deem and Ramdas Pophale) SiO2 
 PCOD9512280
Probable space group: F M M M
;
_chemical_formula_sum "Si O2"
_cell_formula_units_Z 176
_cell_length_a 26.854966
_cell_length_b 27.918233
_cell_length_c 14.232619
_cell_angle_alpha 90.000000
_cell_angle_beta 90.000000
_cell_angle_gamma 90.000000
_cell_volume 10670.809285
_symmetry_space_group_name_H-M "F M M M"
_symmetry_group_IT_number 69
_symmetry_cell_setting 'orthorhombic'
loop_
_space_group_symop_operation_xyz
x,y,z
-x,-y,z
x,-y,-z
-x,y,-z
-x,-y,-z
x,y,-z
-x,y,z
x,-y,z
x,1/2+y,1/2+z
-x,1/2-y,1/2+z
x,1/2-y,1/2-z
-x,1/2+y,1/2-z
-x,1/2-y,1/2-z
x,1/2+y,1/2-z
-x,1/2+y,1/2+z
x,1/2-y,1/2+z
1/2+x,y,1/2+z
1/2-x,-y,1/2+z
1/2+x,-y,1/2-z
1/2-x,y,1/2-z
1/2-x,-y,1/2-z
1/2+x,y,1/2-z
1/2-x,y,1/2+z
1/2+x,-y,1/2+z
1/2+x,1/2+y,z
1/2-x,1/2-y,z
1/2+x,1/2-y,-z
1/2-x,1/2+y,-z
1/2-x,1/2-y,-z
1/2+x,1/2+y,-z
1/2-x,1/2+y,z
1/2+x,1/2-y,z
loop_
_atom_site_type_symbol
_atom_site_label
_atom_site_fract_x
_atom_site_fract_y
_atom_site_fract_z
Si Si1 0.614734 0.644223 0.891036
Si Si2 0.560287 0.000000 0.890873
Si Si3 0.443662 0.759603 0.638492
Si Si4 0.308886 0.692283 0.247208
Si Si5 0.386731 0.666658 0.603774
Si Si6 0.059251 0.593100 0.231915
O O1 0.574620 0.687346 0.884017
O O2 0.663446 0.667438 0.841110
O O3 0.591669 0.602278 0.825757
O O4 0.622578 0.631742 0.000000
O O5 0.573711 0.953443 0.829216
O O6 0.500000 0.000000 0.896470
O O7 0.578142 0.000000 0.000000
O O8 0.500000 0.752272 0.607089
O O9 0.442147 0.750000 0.750000
O O10 0.406857 0.720494 0.597426
O O11 0.317694 0.750000 0.250000
O O12 0.250000 0.684571 0.250000
O O13 0.336141 0.669388 0.337243
O O14 0.381065 0.646145 0.500000
O O15 0.426999 0.637594 0.664493
O O16 0.000000 0.591878 0.251779
#
# Coordination Sequence:
#
# PCOD9512280 Si02
#       6
#    32  16  32  32  32  32
#     4  11  21  34  50  72 101 138 176 206 246 302
#     4   9  18  34  55  77 102 135 171 208 254 299
#     4  11  19  30  45  66 101 139 172 204 238 285
#     4  10  20  35  50  67  97 134 173 219 260 298
#     4  11  20  31  48  73  99 129 170 211 253 301
#     4  10  20  34  51  75 106 136 169 210 251 297
#
# _framework density 16.493594000000002
#
# number of rings (size 3 to 8) (size 9 to 14) (size 15 to 20)
#    0.000    1.545    5.455    2.182    0.000    5.091 
#    0.000    2.273    0.000    1.636    0.000   10.182 
#    0.000   11.636    0.000    0.000    0.000    0.000 
#
# Total GULP energy -245327.638899 kJ/mol
# GULP energy per Si atom -5575.628157 kJ/mol
# Density = 1.645605 g / cm^3
# Si number density = 16.493594 Si / 1000 Ang^3
#
#
#
# Elastic Constant Matrix: (Units=GPa)
#
#
# Indices 1 2 3 4 5 6 
#
# 1 97.6715 14.0712 43.3709 0.0000 0.0000 0.0000
# 2 14.0712 64.8641 31.3451 0.0000 0.0000 0.0000
# 3 43.3709 31.3451 161.9604 0.0000 0.0000 0.0000
# 4 0.0000 0.0000 0.0000 16.5702 0.0000 0.0000
# 5 0.0000 0.0000 0.0000 0.0000 -6.8541 0.0000
# 6 0.0000 0.0000 0.0000 0.0000 0.0000 5.0661
#
#
#
# Elastic Compliance Matrix: (Units=1/GPa)
#
#
# Indices 1 2 3 4 5 6 
#
# 1 0.011695 -0.001129 -0.002913 0.000000 0.000000 0.000000
# 2 -0.001129 0.017117 -0.003010 0.000000 0.000000 0.000000
# 3 -0.002913 -0.003010 0.007537 0.000000 0.000000 0.000000
# 4 0.000000 0.000000 0.000000 0.060349 0.000000 0.000000
# 5 0.000000 0.000000 0.000000 0.000000 -0.145897 0.000000
# 6 0.000000 0.000000 0.000000 0.000000 0.000000 0.197389
#
#
# Mechanical properties :
#
#
# Convention : Reuss Voigt Hill
#
# Bulk Modulus (GPa) = 44.95799 55.78560 50.37180
# Shear Modulus (GPa) = 29.46218 18.67036 24.06627
#
# Velocity S-wave (km/s) = 4.23103 3.36814 3.82400
# Velocity P-wave (km/s) = 7.15442 7.00156 7.07840
#
# Compressibility (1/GPa) = 0.02224299
#
# Stress axis : x y z
#
# Youngs Moduli (GPa) = 85.50912 58.42316 132.67807
#
# Poissons Ratio (x) = 0.06597 0.38651
# Poissons Ratio (y) = 0.09656 0.39940
# Poissons Ratio (z) = 0.24910 0.17587
#
# Static dielectric constant tensor:
#      x y z
#    x 1.533410 0.000000 0.000000 
#    y 0.000000 1.558130 0.000000 
#    z 0.000000 0.000000 1.675470 
# 
# From -- ./inp_files/19017.got.cif
#   From: 2010.05.17/outbox.cif.g08.bks.cpg/sg69_10_cif.got.tgz:19017.got - 2010.06.03 19:29:58.
