data_PCOD9512720
_publ_section_title
;
Structure prediction by ZEFSAII (Michael W. Deem and Ramdas Pophale) SiO2 
 PCOD9512720
Probable space group: F M M M
;
_chemical_formula_sum "Si O2"
_cell_formula_units_Z 176
_cell_length_a 14.266285
_cell_length_b 24.003181
_cell_length_c 28.556101
_cell_angle_alpha 90.000000
_cell_angle_beta 90.000000
_cell_angle_gamma 90.000000
_cell_volume 9778.643314
_symmetry_space_group_name_H-M "F M M M"
_symmetry_group_IT_number 69
_symmetry_cell_setting 'orthorhombic'
loop_
_space_group_symop_operation_xyz
x,y,z
-x,-y,z
x,-y,-z
-x,y,-z
-x,-y,-z
x,y,-z
-x,y,z
x,-y,z
x,1/2+y,1/2+z
-x,1/2-y,1/2+z
x,1/2-y,1/2-z
-x,1/2+y,1/2-z
-x,1/2-y,1/2-z
x,1/2+y,1/2-z
-x,1/2+y,1/2+z
x,1/2-y,1/2+z
1/2+x,y,1/2+z
1/2-x,-y,1/2+z
1/2+x,-y,1/2-z
1/2-x,y,1/2-z
1/2-x,-y,1/2-z
1/2+x,y,1/2-z
1/2-x,y,1/2+z
1/2+x,-y,1/2+z
1/2+x,1/2+y,z
1/2-x,1/2-y,z
1/2+x,1/2-y,-z
1/2-x,1/2+y,-z
1/2-x,1/2-y,-z
1/2+x,1/2+y,-z
1/2-x,1/2+y,z
1/2+x,1/2-y,z
loop_
_atom_site_type_symbol
_atom_site_label
_atom_site_fract_x
_atom_site_fract_y
_atom_site_fract_z
Si Si1 0.639112 0.760858 0.945551
Si Si2 0.244341 0.434460 0.914031
Si Si3 0.607023 0.139887 0.871239
Si Si4 0.754833 0.316201 0.197441
Si Si5 0.607471 0.566860 0.500000
Si Si6 0.107073 0.152345 0.116105
O O1 0.750000 0.750000 0.946904
O O2 0.619884 0.815583 0.914043
O O3 0.603411 0.706950 0.917133
O O4 0.607805 0.765817 0.000000
O O5 0.264258 0.500000 0.914056
O O6 0.175753 0.413217 0.873307
O O7 0.174915 0.419982 0.956875
O O8 0.336829 0.396609 0.911233
O O9 0.500000 0.122975 0.870370
O O10 0.644978 0.171056 0.825792
O O11 0.750000 0.339453 0.250000
O O12 0.750000 0.250000 0.199742
O O13 0.672146 0.334958 0.161564
O O14 0.596953 0.500000 0.500000
O O15 0.500000 0.589532 0.500000
O O16 0.000000 0.137327 0.127986
#
# Coordination Sequence:
#
# PCOD9512720 Si02
#       6
#    32  32  32  32  16  32
#     4  11  21  36  56  81 117 155 190 228 275 332
#     4  10  22  38  54  79 114 152 194 240 279 324
#     4  11  21  35  57  85 113 144 186 232 283 339
#     4  10  20  37  57  83 118 148 178 228 289 345
#     4   9  18  34  55  78 107 147 195 239 280 323
#     4  11  22  38  59  84 115 153 194 233 280 343
#
# _framework density 17.998408000000001
#
# number of rings (size 3 to 8) (size 9 to 14) (size 15 to 20)
#    0.000    1.545    5.455    1.091    2.545    3.636 
#    0.000    1.818    0.000   10.364    0.000   10.182 
#    0.000    0.000    0.000    0.000    0.000    0.000 
#
# Total GULP energy -245033.184661 kJ/mol
# GULP energy per Si atom -5568.936015 kJ/mol
# Density = 1.795744 g / cm^3
# Si number density = 17.998408 Si / 1000 Ang^3
#
#
#
# Elastic Constant Matrix: (Units=GPa)
#
#
# Indices 1 2 3 4 5 6 
#
# 1 133.0396 25.7434 20.4810 0.0000 0.0000 0.0000
# 2 25.7434 93.1233 23.5235 0.0000 0.0000 0.0000
# 3 20.4810 23.5235 100.3706 0.0000 0.0000 0.0000
# 4 0.0000 0.0000 0.0000 9.4463 0.0000 0.0000
# 5 0.0000 0.0000 0.0000 0.0000 -17.5365 0.0000
# 6 0.0000 0.0000 0.0000 0.0000 0.0000 20.1662
#
#
#
# Elastic Compliance Matrix: (Units=1/GPa)
#
#
# Indices 1 2 3 4 5 6 
#
# 1 0.008074 -0.001930 -0.001195 0.000000 0.000000 0.000000
# 2 -0.001930 0.011876 -0.002389 0.000000 0.000000 0.000000
# 3 -0.001195 -0.002389 0.010767 0.000000 0.000000 0.000000
# 4 0.000000 0.000000 0.000000 0.105861 0.000000 0.000000
# 5 0.000000 0.000000 0.000000 0.000000 -0.057024 0.000000
# 6 0.000000 0.000000 0.000000 0.000000 0.000000 0.049588
#
#
# Mechanical properties :
#
#
# Convention : Reuss Voigt Hill
#
# Bulk Modulus (GPa) = 50.79442 51.78104 51.28773
# Shear Modulus (GPa) = 34.07539 19.53425 26.80482
#
# Velocity S-wave (km/s) = 4.35586 3.29801 3.86332
# Velocity P-wave (km/s) = 7.31990 6.58291 6.96117
#
# Compressibility (1/GPa) = 0.01968720
#
# Stress axis : x y z
#
# Youngs Moduli (GPa) = 123.85384 84.20630 92.87677
#
# Poissons Ratio (x) = 0.16253 0.11101
# Poissons Ratio (y) = 0.23905 0.22192
# Poissons Ratio (z) = 0.14803 0.20120
#
# Static dielectric constant tensor:
#      x y z
#    x 1.620600 0.000000 0.000000 
#    y 0.000000 1.628810 0.000000 
#    z 0.000000 0.000000 1.639090 
# 
# From -- ./inp_files/41109.got.cif
#   From: 2010.05.17/outbox.cif.g08.bks.cpg/sg69_21_cif.got.tgz:41109.got - 2010.06.03 19:29:58.
