data_PCOD9512648
_publ_section_title
;
Structure prediction by ZEFSAII (Michael W. Deem and Ramdas Pophale) SiO2 
 PCOD9512648
Probable space group: F M M M
;
_chemical_formula_sum "Si O2"
_cell_formula_units_Z 160
_cell_length_a 19.574167
_cell_length_b 29.434727
_cell_length_c 14.047514
_cell_angle_alpha 90.000000
_cell_angle_beta 90.000000
_cell_angle_gamma 90.000000
_cell_volume 8093.619345
_symmetry_space_group_name_H-M "F M M M"
_symmetry_group_IT_number 69
_symmetry_cell_setting 'orthorhombic'
loop_
_space_group_symop_operation_xyz
x,y,z
-x,-y,z
x,-y,-z
-x,y,-z
-x,-y,-z
x,y,-z
-x,y,z
x,-y,z
x,1/2+y,1/2+z
-x,1/2-y,1/2+z
x,1/2-y,1/2-z
-x,1/2+y,1/2-z
-x,1/2-y,1/2-z
x,1/2+y,1/2-z
-x,1/2+y,1/2+z
x,1/2-y,1/2+z
1/2+x,y,1/2+z
1/2-x,-y,1/2+z
1/2+x,-y,1/2-z
1/2-x,y,1/2-z
1/2-x,-y,1/2-z
1/2+x,y,1/2-z
1/2-x,y,1/2+z
1/2+x,-y,1/2+z
1/2+x,1/2+y,z
1/2-x,1/2-y,z
1/2+x,1/2-y,-z
1/2-x,1/2+y,-z
1/2-x,1/2-y,-z
1/2+x,1/2+y,-z
1/2-x,1/2+y,z
1/2+x,1/2-y,z
loop_
_atom_site_type_symbol
_atom_site_label
_atom_site_fract_x
_atom_site_fract_y
_atom_site_fract_z
Si Si1 0.312504 0.891994 0.681097
Si Si2 0.598010 0.947491 0.000000
Si Si3 0.418372 0.715223 0.605827
Si Si4 0.426047 0.945318 0.207022
Si Si5 0.238990 0.052552 0.000000
Si Si6 0.917867 0.683614 0.313863
O O1 0.250000 0.877197 0.750000
O O2 0.362139 0.924943 0.740269
O O3 0.284376 0.920471 0.592886
O O4 0.363793 0.852359 0.647162
O O5 0.574339 0.927026 0.098998
O O6 0.679288 0.948204 0.000000
O O7 0.574509 0.000000 0.000000
O O8 0.389930 0.704740 0.500000
O O9 0.500000 0.709667 0.600094
O O10 0.399063 0.687685 0.700950
O O11 0.407186 0.767943 0.634779
O O12 0.500000 0.934129 0.250716
O O13 0.419985 0.000000 0.203899
O O14 0.214880 0.000000 0.000000
O O15 0.000000 0.673659 0.321528
#
# Coordination Sequence:
#
# PCOD9512648 Si02
#       6
#    32  16  32  32  16  32
#     4  12  24  39  58  85 122 159 198 246 301 364
#     4   9  17  34  59  83 107 142 195 247 295 347
#     4   8  15  33  61  88 115 153 196 241 295 356
#     4  10  20  36  59  85 113 148 194 250 306 351
#     4  11  24  41  61  85 115 162 214 246 292 365
#     4   9  19  36  59  89 120 153 198 243 294 357
#
# _framework density 19.768659
#
# number of rings (size 3 to 8) (size 9 to 14) (size 15 to 20)
#    0.000    2.200    2.000    2.700    1.400    2.000 
#    3.600    3.500    0.000    4.800    0.000    0.000 
#    0.000    0.000    0.000    0.000    0.000    0.000 
#
# Total GULP energy -223022.681619 kJ/mol
# GULP energy per Si atom -5575.567040 kJ/mol
# Density = 1.972367 g / cm^3
# Si number density = 19.768659 Si / 1000 Ang^3
#
#
#
# Elastic Constant Matrix: (Units=GPa)
#
#
# Indices 1 2 3 4 5 6 
#
# 1 108.4843 22.7178 13.7741 0.0000 0.0000 0.0000
# 2 22.7178 34.5308 -13.5433 0.0000 0.0000 0.0000
# 3 13.7741 -13.5433 60.8651 0.0000 0.0000 0.0000
# 4 0.0000 0.0000 0.0000 10.0916 0.0000 0.0000
# 5 0.0000 0.0000 0.0000 0.0000 19.4032 0.0000
# 6 0.0000 0.0000 0.0000 0.0000 0.0000 18.3072
#
#
#
# Elastic Compliance Matrix: (Units=1/GPa)
#
#
# Indices 1 2 3 4 5 6 
#
# 1 0.011866 -0.009707 -0.004845 0.000000 0.000000 0.000000
# 2 -0.009707 0.039669 0.011024 0.000000 0.000000 0.000000
# 3 -0.004845 0.011024 0.019979 0.000000 0.000000 0.000000
# 4 0.000000 0.000000 0.000000 0.099092 0.000000 0.000000
# 5 0.000000 0.000000 0.000000 0.000000 0.051538 0.000000
# 6 0.000000 0.000000 0.000000 0.000000 0.000000 0.054623
#
#
# Mechanical properties :
#
#
# Convention : Reuss Voigt Hill
#
# Bulk Modulus (GPa) = 15.51405 27.75304 21.63355
# Shear Modulus (GPa) = 16.37679 21.62252 18.99965
#
# Velocity S-wave (km/s) = 2.88135 3.31082 3.10352
# Velocity P-wave (km/s) = 4.35137 5.35581 4.87951
#
# Compressibility (1/GPa) = 0.06445768
#
# Stress axis : x y z
#
# Youngs Moduli (GPa) = 84.27553 25.20834 50.05204
#
# Poissons Ratio (x) = 0.24469 0.24251
# Poissons Ratio (y) = 0.81805 -0.55176
# Poissons Ratio (z) = 0.40833 -0.27789
#
# Static dielectric constant tensor:
#      x y z
#    x 1.658740 0.000000 0.000000 
#    y 0.000000 1.732570 0.000000 
#    z 0.000000 0.000000 1.725850 
# 
# From -- ./inp_files/15662.got.cif
#   From: 2010.05.17/outbox.cif.g08.bks.cpg/sg69_8_cif.got.tgz:15662.got - 2010.06.03 19:29:58.
