data_PCOD9512928
_publ_section_title
;
Structure prediction by ZEFSAII (Michael W. Deem and Ramdas Pophale) SiO2 
 PCOD9512928
Probable space group: F M M M
;
_chemical_formula_sum "Si O2"
_cell_formula_units_Z 144
_cell_length_a 28.278417
_cell_length_b 7.334100
_cell_length_c 28.093003
_cell_angle_alpha 90.000000
_cell_angle_beta 90.000000
_cell_angle_gamma 90.000000
_cell_volume 5826.397186
_symmetry_space_group_name_H-M "F M M M"
_symmetry_group_IT_number 69
_symmetry_cell_setting 'orthorhombic'
loop_
_space_group_symop_operation_xyz
x,y,z
-x,-y,z
x,-y,-z
-x,y,-z
-x,-y,-z
x,y,-z
-x,y,z
x,-y,z
x,1/2+y,1/2+z
-x,1/2-y,1/2+z
x,1/2-y,1/2-z
-x,1/2+y,1/2-z
-x,1/2-y,1/2-z
x,1/2+y,1/2-z
-x,1/2+y,1/2+z
x,1/2-y,1/2+z
1/2+x,y,1/2+z
1/2-x,-y,1/2+z
1/2+x,-y,1/2-z
1/2-x,y,1/2-z
1/2-x,-y,1/2-z
1/2+x,y,1/2-z
1/2-x,y,1/2+z
1/2+x,-y,1/2+z
1/2+x,1/2+y,z
1/2-x,1/2-y,z
1/2+x,1/2-y,-z
1/2-x,1/2+y,-z
1/2-x,1/2-y,-z
1/2+x,1/2+y,-z
1/2-x,1/2+y,z
1/2+x,1/2-y,z
loop_
_atom_site_type_symbol
_atom_site_label
_atom_site_fract_x
_atom_site_fract_y
_atom_site_fract_z
Si Si1 0.301829 0.282944 0.647614
Si Si2 0.344372 0.222690 0.053931
Si Si3 0.500000 0.782100 0.192634
Si Si4 0.051040 0.784627 0.557884
Si Si5 0.897906 0.717702 0.193659
O O1 0.306629 0.500000 0.647086
O O2 0.250000 0.250000 0.668063
O O3 0.306661 0.218930 0.593013
O O4 0.348316 0.210561 0.673981
O O5 0.396866 0.282411 0.071267
O O6 0.345684 0.000000 0.052530
O O7 0.336002 0.283720 0.000000
O O8 0.500000 0.750000 0.250000
O O9 0.551063 0.713162 0.174927
O O10 0.500000 0.000000 0.185214
O O11 0.051265 0.771328 0.500000
O O12 0.000000 0.710151 0.573817
O O13 0.050485 0.000000 0.569738
O O14 0.898557 0.500000 0.185178
O O15 0.897815 0.750000 0.250000
#
# Coordination Sequence:
#
# PCOD9512928 Si02
#       5
#    32  32  16  32  32
#     4  10  21  35  49  70  99 130 166 206 243 284
#     4   8  14  26  43  63  91 126 161 198 240 284
#     4   8  14  28  50  74  99 125 153 191 238 290
#     4   7   9  15  30  54  84 115 144 177 224 280
#     4   9  18  33  53  76 101 128 159 196 243 293
#
# _framework density 24.715102999999999
#
# number of rings (size 3 to 8) (size 9 to 14) (size 15 to 20)
#    0.000    3.556    0.000    2.000    0.000    1.778 
#    2.000    2.222    0.000    0.000    0.000    0.000 
#    0.000    0.000    0.000    5.556    0.000    4.444 
#
# Total GULP energy -200851.531105 kJ/mol
# GULP energy per Si atom -5579.209197 kJ/mol
# Density = 2.465885 g / cm^3
# Si number density = 24.715103 Si / 1000 Ang^3
#
#
#
# Elastic Constant Matrix: (Units=GPa)
#
#
# Indices 1 2 3 4 5 6 
#
# 1 232.5266 9.4028 65.1821 -0.0009 -0.0001 0.0002
# 2 9.4028 93.7733 -3.6605 0.0000 -0.0002 0.0000
# 3 65.1821 -3.6605 65.2001 -0.0001 0.0000 0.0001
# 4 -0.0009 0.0000 -0.0001 15.8685 0.0001 0.0018
# 5 -0.0001 -0.0002 0.0000 0.0001 32.5071 0.0001
# 6 0.0002 0.0000 0.0001 0.0018 0.0001 -8.0736
#
#
#
# Elastic Compliance Matrix: (Units=1/GPa)
#
#
# Indices 1 2 3 4 5 6 
#
# 1 0.006041 -0.000843 -0.006087 0.000000 0.000000 0.000000
# 2 -0.000843 0.010805 0.001450 0.000000 0.000000 0.000000
# 3 -0.006087 0.001450 0.021504 0.000000 0.000000 0.000000
# 4 0.000000 0.000000 0.000000 0.063018 0.000000 0.000014
# 5 0.000000 0.000000 0.000000 0.000000 0.030763 0.000000
# 6 0.000000 0.000000 0.000000 0.000014 0.000000 -0.123861
#
#
# Mechanical properties :
#
#
# Convention : Reuss Voigt Hill
#
# Bulk Modulus (GPa) = 36.51046 59.26099 47.88572
# Shear Modulus (GPa) = 176.30596 29.43209 102.86903
#
# Velocity S-wave (km/s) = 8.45519 3.45462 6.45851
# Velocity P-wave (km/s) = 10.49404 6.31999 8.66219
#
# Compressibility (1/GPa) = 0.02738941
#
# Stress axis : x y z
#
# Youngs Moduli (GPa) = 165.53890 92.54826 46.50368
#
# Poissons Ratio (x) = 0.07805 0.28305
# Poissons Ratio (y) = 0.13960 -0.06742
# Poissons Ratio (z) = 1.00756 -0.13417
#
# Static dielectric constant tensor:
#      x y z
#    x 1.991460 0.000000 0.000000 
#    y 0.000000 2.085420 0.000000 
#    z 0.000000 0.000000 1.959840 
# 
# From -- ./inp_files/43456.got.cif
#   From: 2010.05.17/outbox.cif.g08.bks.cpg/sg69_22_cif.got.tgz:43456.got - 2010.06.03 19:29:58.
