data_PCOD9512843
_publ_section_title
;
Structure prediction by ZEFSAII (Michael W. Deem and Ramdas Pophale) SiO2 
 PCOD9512843
Probable space group: F M M M
;
_chemical_formula_sum "Si O2"
_cell_formula_units_Z 160
_cell_length_a 22.452122
_cell_length_b 17.254876
_cell_length_c 21.721291
_cell_angle_alpha 90.000000
_cell_angle_beta 90.000000
_cell_angle_gamma 90.000000
_cell_volume 8415.014525
_symmetry_space_group_name_H-M "F M M M"
_symmetry_group_IT_number 69
_symmetry_cell_setting 'orthorhombic'
loop_
_space_group_symop_operation_xyz
x,y,z
-x,-y,z
x,-y,-z
-x,y,-z
-x,-y,-z
x,y,-z
-x,y,z
x,-y,z
x,1/2+y,1/2+z
-x,1/2-y,1/2+z
x,1/2-y,1/2-z
-x,1/2+y,1/2-z
-x,1/2-y,1/2-z
x,1/2+y,1/2-z
-x,1/2+y,1/2+z
x,1/2-y,1/2+z
1/2+x,y,1/2+z
1/2-x,-y,1/2+z
1/2+x,-y,1/2-z
1/2-x,y,1/2-z
1/2-x,-y,1/2-z
1/2+x,y,1/2-z
1/2-x,y,1/2+z
1/2+x,-y,1/2+z
1/2+x,1/2+y,z
1/2-x,1/2-y,z
1/2+x,1/2-y,-z
1/2-x,1/2+y,-z
1/2-x,1/2-y,-z
1/2+x,1/2+y,-z
1/2-x,1/2+y,z
1/2+x,1/2-y,z
loop_
_atom_site_type_symbol
_atom_site_label
_atom_site_fract_x
_atom_site_fract_y
_atom_site_fract_z
Si Si1 0.289746 0.825599 0.167990
Si Si2 0.500000 0.285305 0.428539
Si Si3 0.122704 0.910645 0.755887
Si Si4 0.367195 0.242271 0.433185
Si Si5 0.500000 0.332814 0.713821
Si Si6 0.180866 0.587186 0.386372
O O1 0.250000 0.750000 0.318749
O O2 0.325505 0.860106 0.224787
O O3 0.338154 0.795429 0.118854
O O4 0.245847 0.889916 0.139716
O O5 0.500000 0.321016 0.500000
O O6 0.438273 0.238618 0.426179
O O7 0.500000 0.328867 0.361567
O O8 0.135475 0.908778 0.828516
O O9 0.059369 0.876515 0.736286
O O10 0.127619 0.000000 0.735640
O O11 0.353595 0.276713 0.500000
O O12 0.338879 0.157370 0.429227
O O13 0.500000 0.250000 0.750000
O O14 0.180415 0.500000 0.411196
#
# Coordination Sequence:
#
# PCOD9512843 Si02
#       6
#    32  16  32  32  16  32
#     4  10  21  35  60  84 114 153 199 238 289 351
#     4  10  20  39  63  87 115 150 197 250 298 348
#     4  11  23  39  58  88 124 153 191 247 305 359
#     4  10  21  38  60  86 113 149 200 251 289 345
#     4  12  23  37  66  92 118 159 205 251 304 359
#     4  10  22  37  55  83 119 156 188 235 298 357
#
# _framework density 19.013632999999999
#
# number of rings (size 3 to 8) (size 9 to 14) (size 15 to 20)
#    0.000    1.600    2.000    2.700    2.800    8.000 
#    0.000    1.500    0.000    6.000    0.000    0.000 
#    0.000    0.000    0.000    0.000    0.000    0.000 
#
# Total GULP energy -223170.058666 kJ/mol
# GULP energy per Si atom -5579.251467 kJ/mol
# Density = 1.897036 g / cm^3
# Si number density = 19.013633 Si / 1000 Ang^3
#
#
#
# Elastic Constant Matrix: (Units=GPa)
#
#
# Indices 1 2 3 4 5 6 
#
# 1 94.0804 4.7804 12.1220 0.0000 0.0000 0.0000
# 2 4.7804 61.2578 11.1587 0.0000 0.0000 0.0000
# 3 12.1220 11.1587 69.5187 0.0000 0.0000 0.0000
# 4 0.0000 0.0000 0.0000 13.0369 0.0000 0.0000
# 5 0.0000 0.0000 0.0000 0.0000 14.1636 0.0000
# 6 0.0000 0.0000 0.0000 0.0000 0.0000 25.5547
#
#
#
# Elastic Compliance Matrix: (Units=1/GPa)
#
#
# Indices 1 2 3 4 5 6 
#
# 1 0.010889 -0.000519 -0.001815 0.000000 0.000000 0.000000
# 2 -0.000519 0.016841 -0.002613 0.000000 0.000000 0.000000
# 3 -0.001815 -0.002613 0.015121 0.000000 0.000000 0.000000
# 4 0.000000 0.000000 0.000000 0.076705 0.000000 0.000000
# 5 0.000000 0.000000 0.000000 0.000000 0.070604 0.000000
# 6 0.000000 0.000000 0.000000 0.000000 0.000000 0.039132
#
#
# Mechanical properties :
#
#
# Convention : Reuss Voigt Hill
#
# Bulk Modulus (GPa) = 30.34307 31.21990 30.78148
# Shear Modulus (GPa) = 19.98630 23.67078 21.82854
#
# Velocity S-wave (km/s) = 3.24567 3.53219 3.39196
# Velocity P-wave (km/s) = 5.48079 5.75244 5.61826
#
# Compressibility (1/GPa) = 0.03295645
#
# Stress axis : x y z
#
# Youngs Moduli (GPa) = 91.83161 59.37935 66.13518
#
# Poissons Ratio (x) = 0.03082 0.12007
# Poissons Ratio (y) = 0.04767 0.17279
# Poissons Ratio (z) = 0.16672 0.15514
#
# Static dielectric constant tensor:
#      x y z
#    x 1.637400 0.000000 0.000000 
#    y 0.000000 1.646600 0.000000 
#    z 0.000000 0.000000 1.696940 
# 
# From -- ./inp_files/24622.got.cif
#   From: 2010.05.17/outbox.cif.g08.bks.cpg/sg69_13_cif.got.tgz:24622.got - 2010.06.03 19:29:58.
