data_PCOD9512440
_publ_section_title
;
Structure prediction by ZEFSAII (Michael W. Deem and Ramdas Pophale) SiO2 
 PCOD9512440
Probable space group: F M M M
;
_chemical_formula_sum "Si O2"
_cell_formula_units_Z 224
_cell_length_a 33.500502
_cell_length_b 21.731741
_cell_length_c 18.083924
_cell_angle_alpha 90.000000
_cell_angle_beta 90.000000
_cell_angle_gamma 90.000000
_cell_volume 13165.534897
_symmetry_space_group_name_H-M "F M M M"
_symmetry_group_IT_number 69
_symmetry_cell_setting 'orthorhombic'
loop_
_space_group_symop_operation_xyz
x,y,z
-x,-y,z
x,-y,-z
-x,y,-z
-x,-y,-z
x,y,-z
-x,y,z
x,-y,z
x,1/2+y,1/2+z
-x,1/2-y,1/2+z
x,1/2-y,1/2-z
-x,1/2+y,1/2-z
-x,1/2-y,1/2-z
x,1/2+y,1/2-z
-x,1/2+y,1/2+z
x,1/2-y,1/2+z
1/2+x,y,1/2+z
1/2-x,-y,1/2+z
1/2+x,-y,1/2-z
1/2-x,y,1/2-z
1/2-x,-y,1/2-z
1/2+x,y,1/2-z
1/2-x,y,1/2+z
1/2+x,-y,1/2+z
1/2+x,1/2+y,z
1/2-x,1/2-y,z
1/2+x,1/2-y,-z
1/2-x,1/2+y,-z
1/2-x,1/2-y,-z
1/2+x,1/2+y,-z
1/2-x,1/2+y,z
1/2+x,1/2-y,z
loop_
_atom_site_type_symbol
_atom_site_label
_atom_site_fract_x
_atom_site_fract_y
_atom_site_fract_z
Si Si1 0.454100 0.810770 0.301791
Si Si2 0.046651 0.886053 0.662521
Si Si3 0.273745 0.612580 0.675003
Si Si4 0.661048 0.279313 0.325717
Si Si5 0.782649 0.195396 0.082345
Si Si6 0.590621 0.500000 0.412457
Si Si7 0.416445 0.225861 0.087280
Si Si8 0.686465 0.000000 0.911904
O O1 0.500000 0.823047 0.324267
O O2 0.454791 0.750000 0.250000
O O3 0.440634 0.864394 0.245432
O O4 0.427862 0.789425 0.371194
O O5 0.072311 0.940442 0.627733
O O6 0.051620 0.825883 0.610689
O O7 0.000000 0.902952 0.665860
O O8 0.250000 0.595643 0.750000
O O9 0.306402 0.667135 0.689041
O O10 0.240076 0.640161 0.621120
O O11 0.295864 0.558510 0.631550
O O12 0.645290 0.250000 0.250000
O O13 0.683007 0.223987 0.368047
O O14 0.624807 0.299257 0.377623
O O15 0.750000 0.250000 0.077557
O O16 0.796487 0.180582 0.000000
O O17 0.580138 0.500000 0.500000
O O18 0.638497 0.500000 0.407060
O O19 0.413599 0.232715 0.000000
O O20 0.696721 0.000000 0.000000
#
# Coordination Sequence:
#
# PCOD9512440 Si02
#       8
#    32  32  32  32  32  16  32  16
#     4   8  16  32  51  72 104 144 183 217 254 309
#     4  10  20  35  54  77 110 149 184 218 260 315
#     4  11  21  37  57  77 101 137 182 224 270 333
#     4  11  20  33  54  77 108 138 174 222 272 321
#     4   9  18  31  51  76 102 131 168 217 271 319
#     4  11  23  37  54  81 111 142 182 222 269 329
#     4  11  21  31  49  80 115 146 178 217 270 322
#     4  11  25  40  55  76 108 143 180 228 278 326
#
# _framework density 17.014120999999999
#
# number of rings (size 3 to 8) (size 9 to 14) (size 15 to 20)
#    0.000    1.857    1.429    5.143    0.000    5.143 
#    0.000    0.000    0.000    0.000    0.000    0.500 
#    0.000    2.286    0.000    0.000    0.000    0.000 
#
# Total GULP energy -312252.666669 kJ/mol
# GULP energy per Si atom -5575.940476 kJ/mol
# Density = 1.697540 g / cm^3
# Si number density = 17.014121 Si / 1000 Ang^3
#
#
#
# Elastic Constant Matrix: (Units=GPa)
#
#
# Indices 1 2 3 4 5 6 
#
# 1 65.8702 26.9473 41.4110 0.0000 0.0000 0.0000
# 2 26.9473 81.4490 47.2041 0.0000 0.0000 0.0000
# 3 41.4110 47.2041 143.3780 0.0000 0.0000 0.0000
# 4 0.0000 0.0000 0.0000 17.3800 0.0000 0.0000
# 5 0.0000 0.0000 0.0000 0.0000 13.7927 0.0000
# 6 0.0000 0.0000 0.0000 0.0000 0.0000 14.3865
#
#
#
# Elastic Compliance Matrix: (Units=1/GPa)
#
#
# Indices 1 2 3 4 5 6 
#
# 1 0.019524 -0.003944 -0.004340 0.000000 0.000000 0.000000
# 2 -0.003944 0.015969 -0.004118 0.000000 0.000000 0.000000
# 3 -0.004340 -0.004118 0.009584 0.000000 0.000000 0.000000
# 4 0.000000 0.000000 0.000000 0.057537 0.000000 0.000000
# 5 0.000000 0.000000 0.000000 0.000000 0.072502 0.000000
# 6 0.000000 0.000000 0.000000 0.000000 0.000000 0.069510
#
#
# Mechanical properties :
#
#
# Convention : Reuss Voigt Hill
#
# Bulk Modulus (GPa) = 49.33043 57.98022 53.65532
# Shear Modulus (GPa) = 18.10358 20.78750 19.44554
#
# Velocity S-wave (km/s) = 3.26549 3.49919 3.38436
# Velocity P-wave (km/s) = 6.57835 7.10475 6.84661
#
# Compressibility (1/GPa) = 0.02027146
#
# Stress axis : x y z
#
# Youngs Moduli (GPa) = 51.22030 62.62012 104.33929
#
# Poissons Ratio (x) = 0.24696 0.45288
# Poissons Ratio (y) = 0.20200 0.42972
# Poissons Ratio (z) = 0.22232 0.25790
#
# Static dielectric constant tensor:
#      x y z
#    x 1.598130 0.000000 0.000000 
#    y 0.000000 1.575590 0.000000 
#    z 0.000000 0.000000 1.588960 
# 
# From -- ./inp_files/28001.got.cif
#   From: 2010.05.17/outbox.cif.g08.bks.cpg/sg69_15_cif.got.tgz:28001.got - 2010.06.03 19:29:58.
