data_PCOD9512048
_publ_section_title
;
Structure prediction by ZEFSAII (Michael W. Deem and Ramdas Pophale) SiO2 
 PCOD9512048
Probable space group: F M M M
;
_chemical_formula_sum "Si O2"
_cell_formula_units_Z 160
_cell_length_a 21.345194
_cell_length_b 21.529977
_cell_length_c 17.720953
_cell_angle_alpha 90.000000
_cell_angle_beta 90.000000
_cell_angle_gamma 90.000000
_cell_volume 8143.868378
_symmetry_space_group_name_H-M "F M M M"
_symmetry_group_IT_number 69
_symmetry_cell_setting 'orthorhombic'
loop_
_space_group_symop_operation_xyz
x,y,z
-x,-y,z
x,-y,-z
-x,y,-z
-x,-y,-z
x,y,-z
-x,y,z
x,-y,z
x,1/2+y,1/2+z
-x,1/2-y,1/2+z
x,1/2-y,1/2-z
-x,1/2+y,1/2-z
-x,1/2-y,1/2-z
x,1/2+y,1/2-z
-x,1/2+y,1/2+z
x,1/2-y,1/2+z
1/2+x,y,1/2+z
1/2-x,-y,1/2+z
1/2+x,-y,1/2-z
1/2-x,y,1/2-z
1/2-x,-y,1/2-z
1/2+x,y,1/2-z
1/2-x,y,1/2+z
1/2+x,-y,1/2+z
1/2+x,1/2+y,z
1/2-x,1/2-y,z
1/2+x,1/2-y,-z
1/2-x,1/2+y,-z
1/2-x,1/2-y,-z
1/2+x,1/2+y,-z
1/2-x,1/2+y,z
1/2+x,1/2-y,z
loop_
_atom_site_type_symbol
_atom_site_label
_atom_site_fract_x
_atom_site_fract_y
_atom_site_fract_z
Si Si1 0.230858 0.386685 0.587284
Si Si2 0.809262 0.500000 0.307074
Si Si3 0.117954 0.615200 0.088121
Si Si4 0.931782 0.819716 0.281407
Si Si5 0.574286 0.000000 0.809205
Si Si6 0.689615 0.181967 0.288503
O O1 0.215128 0.393788 0.500000
O O2 0.200559 0.440797 0.637874
O O3 0.306517 0.387370 0.593551
O O4 0.204268 0.323054 0.623791
O O5 0.750000 0.500000 0.250000
O O6 0.874051 0.500000 0.258733
O O7 0.091222 0.675225 0.132318
O O8 0.089441 0.558880 0.136669
O O9 0.101066 0.612643 0.000000
O O10 0.936861 0.750000 0.250000
O O11 0.875502 0.849052 0.233722
O O12 0.000000 0.848723 0.273136
O O13 0.500000 0.000000 0.788456
O O14 0.687314 0.250000 0.250000
O O15 0.750000 0.150815 0.250000
#
# Coordination Sequence:
#
# PCOD9512048 Si02
#       6
#    32  16  32  32  16  32
#     4  11  22  37  60  91 121 151 195 245 295 344
#     4  12  21  39  65  85 113 160 196 236 286 349
#     4  11  22  37  58  89 124 155 187 237 303 355
#     4  10  21  37  58  82 112 156 201 239 284 348
#     4  12  25  38  59  92 121 154 196 237 285 353
#     4  10  19  36  60  82 113 154 196 245 289 337
#
# _framework density 19.646682999999999
#
# number of rings (size 3 to 8) (size 9 to 14) (size 15 to 20)
#    0.000    1.200    4.000    3.000    0.000    3.600 
#    0.000    6.000    0.000    4.200    0.000    0.000 
#    0.000    0.000    0.000    0.000    0.000    0.000 
#
# Total GULP energy -222955.823059 kJ/mol
# GULP energy per Si atom -5573.895576 kJ/mol
# Density = 1.960197 g / cm^3
# Si number density = 19.646683 Si / 1000 Ang^3
#
#
#
# Elastic Constant Matrix: (Units=GPa)
#
#
# Indices 1 2 3 4 5 6 
#
# 1 184.5302 16.9503 81.6325 0.0000 0.0000 0.0000
# 2 16.9503 91.1877 64.1013 0.0000 0.0000 0.0000
# 3 81.6325 64.1013 176.9183 0.0000 0.0000 0.0000
# 4 0.0000 0.0000 0.0000 32.7457 0.0000 0.0000
# 5 0.0000 0.0000 0.0000 0.0000 12.3965 0.0000
# 6 0.0000 0.0000 0.0000 0.0000 0.0000 7.2182
#
#
#
# Elastic Compliance Matrix: (Units=1/GPa)
#
#
# Indices 1 2 3 4 5 6 
#
# 1 0.006920 0.001286 -0.003659 0.000000 0.000000 0.000000
# 2 0.001286 0.014953 -0.006011 0.000000 0.000000 0.000000
# 3 -0.003659 -0.006011 0.009518 0.000000 0.000000 0.000000
# 4 0.000000 0.000000 0.000000 0.030538 0.000000 0.000000
# 5 0.000000 0.000000 0.000000 0.000000 0.080668 0.000000
# 6 0.000000 0.000000 0.000000 0.000000 0.000000 0.138540
#
#
# Mechanical properties :
#
#
# Convention : Reuss Voigt Hill
#
# Bulk Modulus (GPa) = 68.38576 86.44494 77.41535
# Shear Modulus (GPa) = 16.51369 29.80219 23.15794
#
# Velocity S-wave (km/s) = 2.90234 3.89897 3.43697
# Velocity P-wave (km/s) = 6.79079 8.02276 7.43234
#
# Compressibility (1/GPa) = 0.01462293
#
# Stress axis : x y z
#
# Youngs Moduli (GPa) = 144.51780 66.87680 105.06031
#
# Poissons Ratio (x) = -0.08598 0.38437
# Poissons Ratio (y) = -0.18579 0.63151
# Poissons Ratio (z) = 0.52873 0.40199
#
# Static dielectric constant tensor:
#      x y z
#    x 1.747950 0.000000 0.000000 
#    y 0.000000 1.942730 0.000000 
#    z 0.000000 0.000000 1.702940 
# 
# From -- ./inp_files/24919.got.cif
#   From: 2010.05.17/outbox.cif.g08.bks.cpg/sg69_13_cif.got.tgz:24919.got - 2010.06.03 19:29:58.
