data_PCOD9512318
_publ_section_title
;
Structure prediction by ZEFSAII (Michael W. Deem and Ramdas Pophale) SiO2 
 PCOD9512318
Probable space group: F M M M
;
_chemical_formula_sum "Si O2"
_cell_formula_units_Z 176
_cell_length_a 14.580643
_cell_length_b 34.621544
_cell_length_c 19.088835
_cell_angle_alpha 90.000000
_cell_angle_beta 90.000000
_cell_angle_gamma 90.000000
_cell_volume 9636.127387
_symmetry_space_group_name_H-M "F M M M"
_symmetry_group_IT_number 69
_symmetry_cell_setting 'orthorhombic'
loop_
_space_group_symop_operation_xyz
x,y,z
-x,-y,z
x,-y,-z
-x,y,-z
-x,-y,-z
x,y,-z
-x,y,z
x,-y,z
x,1/2+y,1/2+z
-x,1/2-y,1/2+z
x,1/2-y,1/2-z
-x,1/2+y,1/2-z
-x,1/2-y,1/2-z
x,1/2+y,1/2-z
-x,1/2+y,1/2+z
x,1/2-y,1/2+z
1/2+x,y,1/2+z
1/2-x,-y,1/2+z
1/2+x,-y,1/2-z
1/2-x,y,1/2-z
1/2-x,-y,1/2-z
1/2+x,y,1/2-z
1/2-x,y,1/2+z
1/2+x,-y,1/2+z
1/2+x,1/2+y,z
1/2-x,1/2-y,z
1/2+x,1/2-y,-z
1/2-x,1/2+y,-z
1/2-x,1/2-y,-z
1/2+x,1/2+y,-z
1/2-x,1/2+y,z
1/2+x,1/2-y,z
loop_
_atom_site_type_symbol
_atom_site_label
_atom_site_fract_x
_atom_site_fract_y
_atom_site_fract_z
Si Si1 0.267451 0.371871 0.078965
Si Si2 0.111060 0.500000 0.081072
Si Si3 0.890663 0.417867 0.144355
Si Si4 0.603758 0.289979 0.223938
Si Si5 0.110195 0.375943 0.287052
Si Si6 0.820806 0.715212 0.577498
O O1 0.168920 0.389267 0.097026
O O2 0.336837 0.384330 0.140946
O O3 0.267296 0.325397 0.080649
O O4 0.295700 0.383319 0.000000
O O5 0.136986 0.538888 0.122096
O O6 0.000000 0.500000 0.078351
O O7 0.143441 0.500000 0.000000
O O8 0.872171 0.406204 0.224996
O O9 0.000000 0.413459 0.133101
O O10 0.500000 0.290257 0.251676
O O11 0.647644 0.250000 0.250000
O O12 0.640600 0.332920 0.239371
O O13 0.607594 0.286551 0.140103
O O14 0.000000 0.374027 0.299205
O O15 0.861984 0.718772 0.500000
O O16 0.750000 0.750000 0.587750
#
# Coordination Sequence:
#
# PCOD9512318 Si02
#       6
#    32  16  32  32  32  32
#     4  10  20  34  53  76 105 142 182 223 268 323
#     4   9  18  34  57  84 112 144 179 215 270 342
#     4  10  20  35  57  83 112 139 171 221 276 330
#     4   9  18  31  49  71  94 127 174 220 264 312
#     4   9  19  35  53  76 106 140 180 226 269 317
#     4   9  19  33  46  66  97 133 174 215 260 314
#
# _framework density 18.264600000000002
#
# number of rings (size 3 to 8) (size 9 to 14) (size 15 to 20)
#    0.000    2.636    0.000    1.091    2.545    2.182 
#    0.000    5.455    0.000    3.273    0.000    0.000 
#    0.000    5.818    0.000    0.000    0.000    0.000 
#
# Total GULP energy -245084.606247 kJ/mol
# GULP energy per Si atom -5570.104687 kJ/mol
# Density = 1.822303 g / cm^3
# Si number density = 18.264600 Si / 1000 Ang^3
#
#
#
# Elastic Constant Matrix: (Units=GPa)
#
#
# Indices 1 2 3 4 5 6 
#
# 1 56.0545 33.0456 30.9213 0.0000 0.0000 0.0000
# 2 33.0456 91.4780 78.8593 0.0000 0.0000 0.0000
# 3 30.9213 78.8593 121.9308 0.0000 0.0000 0.0000
# 4 0.0000 0.0000 0.0000 29.0802 0.0000 0.0000
# 5 0.0000 0.0000 0.0000 0.0000 21.9947 0.0000
# 6 0.0000 0.0000 0.0000 0.0000 0.0000 8.2642
#
#
#
# Elastic Compliance Matrix: (Units=1/GPa)
#
#
# Indices 1 2 3 4 5 6 
#
# 1 0.022724 -0.007325 -0.001025 0.000000 0.000000 0.000000
# 2 -0.007325 0.027068 -0.015648 0.000000 0.000000 0.000000
# 3 -0.001025 -0.015648 0.018582 0.000000 0.000000 0.000000
# 4 0.000000 0.000000 0.000000 0.034388 0.000000 0.000000
# 5 0.000000 0.000000 0.000000 0.000000 0.045465 0.000000
# 6 0.000000 0.000000 0.000000 0.000000 0.000000 0.121004
#
#
# Mechanical properties :
#
#
# Convention : Reuss Voigt Hill
#
# Bulk Modulus (GPa) = 49.07736 61.67952 55.37844
# Shear Modulus (GPa) = 15.43116 20.31029 17.87073
#
# Velocity S-wave (km/s) = 2.90981 3.33829 3.13139
# Velocity P-wave (km/s) = 6.18206 6.97870 6.59242
#
# Compressibility (1/GPa) = 0.02037600
#
# Stress axis : x y z
#
# Youngs Moduli (GPa) = 44.00728 36.94467 53.81524
#
# Poissons Ratio (x) = 0.27061 0.05517
# Poissons Ratio (y) = 0.32235 0.84213
# Poissons Ratio (z) = 0.04512 0.57813
#
# Static dielectric constant tensor:
#      x y z
#    x 1.634600 0.000000 0.000000 
#    y 0.000000 1.639900 0.000000 
#    z 0.000000 0.000000 1.632950 
# 
# From -- ./inp_files/23597.got.cif
#   From: 2010.05.17/outbox.cif.g08.bks.cpg/sg69_12_cif.got.tgz:23597.got - 2010.06.03 19:29:58.
