data_PCOD9512176
_publ_section_title
;
Structure prediction by ZEFSAII (Michael W. Deem and Ramdas Pophale) SiO2 
 PCOD9512176
Probable space group: F M M M
;
_chemical_formula_sum "Si O2"
_cell_formula_units_Z 144
_cell_length_a 28.686867
_cell_length_b 36.971695
_cell_length_c 8.922680
_cell_angle_alpha 90.000000
_cell_angle_beta 90.000000
_cell_angle_gamma 90.000000
_cell_volume 9463.413121
_symmetry_space_group_name_H-M "F M M M"
_symmetry_group_IT_number 69
_symmetry_cell_setting 'orthorhombic'
loop_
_space_group_symop_operation_xyz
x,y,z
-x,-y,z
x,-y,-z
-x,y,-z
-x,-y,-z
x,y,-z
-x,y,z
x,-y,z
x,1/2+y,1/2+z
-x,1/2-y,1/2+z
x,1/2-y,1/2-z
-x,1/2+y,1/2-z
-x,1/2-y,1/2-z
x,1/2+y,1/2-z
-x,1/2+y,1/2+z
x,1/2-y,1/2+z
1/2+x,y,1/2+z
1/2-x,-y,1/2+z
1/2+x,-y,1/2-z
1/2-x,y,1/2-z
1/2-x,-y,1/2-z
1/2+x,y,1/2-z
1/2-x,y,1/2+z
1/2+x,-y,1/2+z
1/2+x,1/2+y,z
1/2-x,1/2-y,z
1/2+x,1/2-y,-z
1/2-x,1/2+y,-z
1/2-x,1/2-y,-z
1/2+x,1/2+y,-z
1/2-x,1/2+y,z
1/2+x,1/2-y,z
loop_
_atom_site_type_symbol
_atom_site_label
_atom_site_fract_x
_atom_site_fract_y
_atom_site_fract_z
Si Si1 0.944121 0.000000 0.176063
Si Si2 0.106087 0.931094 0.320901
Si Si3 0.555692 0.137157 0.677929
Si Si4 0.056678 0.212868 0.672699
Si Si5 0.700000 0.543148 0.178015
O O1 0.923355 0.035474 0.253790
O O2 0.000000 0.000000 0.186091
O O3 0.930883 0.000000 0.000000
O O4 0.106055 0.932721 0.500000
O O5 0.082951 0.894237 0.263064
O O6 0.158128 0.935913 0.257203
O O7 0.563472 0.134479 0.500000
O O8 0.500000 0.132897 0.704273
O O9 0.569670 0.176732 0.737884
O O10 0.071682 0.210929 0.500000
O O11 0.072649 0.250000 0.750000
O O12 0.000000 0.213867 0.673161
O O13 0.691929 0.500000 0.200849
O O14 0.750000 0.551761 0.250000
O O15 0.700329 0.549764 0.000000
#
# Coordination Sequence:
#
# PCOD9512176 Si02
#       5
#    16  32  32  32  32
#     4  11  23  37  50  65  90 127 167 203 239 281
#     4  12  23  34  50  71  96 125 161 201 243 289
#     4  10  20  33  48  67  95 131 167 203 243 285
#     4   9  16  27  44  66  92 123 160 199 239 284
#     4  10  20  35  55  74  95 120 153 197 246 294
#
# _framework density 15.216497
#
# number of rings (size 3 to 8) (size 9 to 14) (size 15 to 20)
#    0.000    1.667    1.111    5.000    0.000    8.444 
#    0.000    0.000    0.000    0.000    0.000    0.000 
#    0.000    0.889    0.000    8.889    0.000    5.778 
#
# Total GULP energy -201037.211258 kJ/mol
# GULP energy per Si atom -5584.366979 kJ/mol
# Density = 1.518186 g / cm^3
# Si number density = 15.216497 Si / 1000 Ang^3
#
#
#
# Elastic Constant Matrix: (Units=GPa)
#
#
# Indices 1 2 3 4 5 6 
#
# 1 71.5013 54.2274 64.0641 0.0022 0.0021 0.0004
# 2 54.2274 128.3366 75.7231 0.0031 -0.0025 0.0005
# 3 64.0641 75.7231 145.7358 0.0039 0.0003 -0.0008
# 4 0.0022 0.0031 0.0039 30.4337 -0.0026 0.0001
# 5 0.0021 -0.0025 0.0003 -0.0026 23.7330 -0.0003
# 6 0.0004 0.0005 -0.0008 0.0001 -0.0003 0.8827
#
#
#
# Elastic Compliance Matrix: (Units=1/GPa)
#
#
# Indices 1 2 3 4 5 6 
#
# 1 0.026034 -0.006126 -0.008261 0.000000 -0.000003 -0.000015
# 2 -0.006126 0.012678 -0.003895 0.000000 0.000002 -0.000008
# 3 -0.008261 -0.003895 0.012517 -0.000001 0.000000 0.000017
# 4 0.000000 0.000000 -0.000001 0.032858 0.000004 -0.000006
# 5 -0.000003 0.000002 0.000000 0.000004 0.042135 0.000014
# 6 -0.000015 -0.000008 0.000017 -0.000006 0.000014 1.132887
#
#
# Mechanical properties :
#
#
# Convention : Reuss Voigt Hill
#
# Bulk Modulus (GPa) = 68.18760 81.51143 74.84951
# Shear Modulus (GPa) = 3.84449 21.11382 12.47916
#
# Velocity S-wave (km/s) = 1.59123 3.72904 2.86686
# Velocity P-wave (km/s) = 6.94874 8.49853 7.76241
#
# Compressibility (1/GPa) = 0.01466542
#
# Stress axis : x y z
#
# Youngs Moduli (GPa) = 38.41197 78.87380 79.89173
#
# Poissons Ratio (x) = 0.48317 0.66000
# Poissons Ratio (y) = 0.23531 0.31116
# Poissons Ratio (z) = 0.31733 0.30720
#
# Static dielectric constant tensor:
#      x y z
#    x 1.484780 0.000000 0.000000 
#    y 0.000000 1.487180 0.000000 
#    z 0.000000 0.000000 1.504730 
# 
# From -- ./inp_files/5598.got.cif
#   From: 2010.05.17/outbox.cif.g08.bks.cpg/sg69_3_cif.got.tgz:5598.got - 2010.06.03 19:29:58.
