data_PCOD9512887
_publ_section_title
;
Structure prediction by ZEFSAII (Michael W. Deem and Ramdas Pophale) SiO2 
 PCOD9512887
Probable space group: F M M M
;
_chemical_formula_sum "Si O2"
_cell_formula_units_Z 88
_cell_length_a 19.990335
_cell_length_b 9.661543
_cell_length_c 22.539479
_cell_angle_alpha 90.000000
_cell_angle_beta 90.000000
_cell_angle_gamma 90.000000
_cell_volume 4353.218201
_symmetry_space_group_name_H-M "F M M M"
_symmetry_group_IT_number 69
_symmetry_cell_setting 'orthorhombic'
loop_
_space_group_symop_operation_xyz
x,y,z
-x,-y,z
x,-y,-z
-x,y,-z
-x,-y,-z
x,y,-z
-x,y,z
x,-y,z
x,1/2+y,1/2+z
-x,1/2-y,1/2+z
x,1/2-y,1/2-z
-x,1/2+y,1/2-z
-x,1/2-y,1/2-z
x,1/2+y,1/2-z
-x,1/2+y,1/2+z
x,1/2-y,1/2+z
1/2+x,y,1/2+z
1/2-x,-y,1/2+z
1/2+x,-y,1/2-z
1/2-x,y,1/2-z
1/2-x,-y,1/2-z
1/2+x,y,1/2-z
1/2-x,y,1/2+z
1/2+x,-y,1/2+z
1/2+x,1/2+y,z
1/2-x,1/2-y,z
1/2+x,1/2-y,-z
1/2-x,1/2+y,-z
1/2-x,1/2-y,-z
1/2+x,1/2+y,-z
1/2-x,1/2+y,z
1/2+x,1/2-y,z
loop_
_atom_site_type_symbol
_atom_site_label
_atom_site_fract_x
_atom_site_fract_y
_atom_site_fract_z
Si Si1 0.000000 0.500000 0.360570
Si Si2 0.080854 0.000000 0.313300
Si Si3 0.314820 0.000000 0.291308
Si Si4 0.681249 0.666681 0.000000
Si Si5 0.377050 0.286704 0.871558
O O1 0.058048 0.619475 0.362953
O O2 0.105744 0.864527 0.347801
O O3 0.119583 0.000000 0.250808
O O4 0.000000 0.000000 0.304982
O O5 0.250000 0.000000 0.250000
O O6 0.320030 0.135425 0.332901
O O7 0.750000 0.750000 0.000000
O O8 0.642546 0.708001 0.059689
O O9 0.690571 0.500000 0.000000
#
# Coordination Sequence:
#
# PCOD9512887 Si02
#       5
#     8  16  16  16  32
#     4  10  20  47  72  98 134 186 236 281 350 414
#     4  12  27  44  71 112 150 179 234 302 349 420
#     4  11  27  46  74 101 142 199 239 285 348 432
#     4  12  28  48  73 100 142 184 233 298 349 426
#     4  11  26  46  74 104 139 187 238 290 358 417
#
# _framework density 20.214929000000001
#
# number of rings (size 3 to 8) (size 9 to 14) (size 15 to 20)
#    0.000    0.727    5.455    1.091   12.727    4.364 
#    0.000    0.909    0.000    0.000    0.000    0.000 
#    0.000    0.000    0.000    0.000    0.000    0.000 
#
# Total GULP energy -122569.105678 kJ/mol
# GULP energy per Si atom -5571.322985 kJ/mol
# Density = 2.016892 g / cm^3
# Si number density = 20.214929 Si / 1000 Ang^3
#
#
#
# Elastic Constant Matrix: (Units=GPa)
#
#
# Indices 1 2 3 4 5 6 
#
# 1 107.9603 41.1204 68.8730 0.0000 0.0000 0.0000
# 2 41.1204 171.3206 76.8311 0.0000 0.0000 0.0000
# 3 68.8730 76.8311 181.2462 0.0000 0.0000 0.0000
# 4 0.0000 0.0000 0.0000 9.0629 0.0000 0.0000
# 5 0.0000 0.0000 0.0000 0.0000 -8.5372 0.0000
# 6 0.0000 0.0000 0.0000 0.0000 0.0000 50.6418
#
#
#
# Elastic Compliance Matrix: (Units=1/GPa)
#
#
# Indices 1 2 3 4 5 6 
#
# 1 0.012382 -0.001064 -0.004254 0.000000 0.000000 0.000000
# 2 -0.001064 0.007299 -0.002690 0.000000 0.000000 0.000000
# 3 -0.004254 -0.002690 0.008274 0.000000 0.000000 0.000000
# 4 0.000000 0.000000 0.000000 0.110340 0.000000 0.000000
# 5 0.000000 0.000000 0.000000 0.000000 -0.117134 0.000000
# 6 0.000000 0.000000 0.000000 0.000000 0.000000 0.019747
#
#
# Mechanical properties :
#
#
# Convention : Reuss Voigt Hill
#
# Bulk Modulus (GPa) = 83.75859 92.68623 88.22241
# Shear Modulus (GPa) = 82.09998 28.48033 55.29016
#
# Velocity S-wave (km/s) = 6.37979 3.75757 5.23551
# Velocity P-wave (km/s) = 9.78739 8.04834 8.96015
#
# Compressibility (1/GPa) = 0.01193907
#
# Stress axis : x y z
#
# Youngs Moduli (GPa) = 80.76393 137.01283 120.86124
#
# Poissons Ratio (x) = 0.14580 0.51414
# Poissons Ratio (y) = 0.08594 0.32506
# Poissons Ratio (z) = 0.34356 0.36850
#
# Static dielectric constant tensor:
#      x y z
#    x 1.707390 0.000000 0.000000 
#    y 0.000000 1.711470 0.000000 
#    z 0.000000 0.000000 1.714840 
# 
# From -- ./inp_files/3388.got.cif
#   From: 2010.05.17/outbox.cif.g08.bks.cpg/sg69_2_cif.got.tgz:3388.got - 2010.06.03 19:29:58.
