data_PCOD9512062
_publ_section_title
;
Structure prediction by ZEFSAII (Michael W. Deem and Ramdas Pophale) SiO2 
 PCOD9512062
Probable space group: F M M M
;
_chemical_formula_sum "Si O2"
_cell_formula_units_Z 144
_cell_length_a 19.065528
_cell_length_b 14.059406
_cell_length_c 26.889328
_cell_angle_alpha 90.000000
_cell_angle_beta 90.000000
_cell_angle_gamma 90.000000
_cell_volume 7207.684337
_symmetry_space_group_name_H-M "F M M M"
_symmetry_group_IT_number 69
_symmetry_cell_setting 'orthorhombic'
loop_
_space_group_symop_operation_xyz
x,y,z
-x,-y,z
x,-y,-z
-x,y,-z
-x,-y,-z
x,y,-z
-x,y,z
x,-y,z
x,1/2+y,1/2+z
-x,1/2-y,1/2+z
x,1/2-y,1/2-z
-x,1/2+y,1/2-z
-x,1/2-y,1/2-z
x,1/2+y,1/2-z
-x,1/2+y,1/2+z
x,1/2-y,1/2+z
1/2+x,y,1/2+z
1/2-x,-y,1/2+z
1/2+x,-y,1/2-z
1/2-x,y,1/2-z
1/2-x,-y,1/2-z
1/2+x,y,1/2-z
1/2-x,y,1/2+z
1/2+x,-y,1/2+z
1/2+x,1/2+y,z
1/2-x,1/2-y,z
1/2+x,1/2-y,-z
1/2-x,1/2+y,-z
1/2-x,1/2-y,-z
1/2+x,1/2+y,-z
1/2-x,1/2+y,z
1/2+x,1/2-y,z
loop_
_atom_site_type_symbol
_atom_site_label
_atom_site_fract_x
_atom_site_fract_y
_atom_site_fract_z
Si Si1 0.579962 0.615630 0.500000
Si Si2 0.579399 0.385995 0.127799
Si Si3 0.158825 0.614332 0.896708
Si Si4 0.804717 0.384889 0.555238
Si Si5 0.334657 0.247044 0.692247
O O1 0.579836 0.500000 0.500000
O O2 0.500000 0.649925 0.500000
O O3 0.617650 0.639792 0.447711
O O4 0.500000 0.349626 0.130575
O O5 0.577034 0.500000 0.129230
O O6 0.620889 0.357300 0.077976
O O7 0.629677 0.347399 0.170651
O O8 0.152692 0.500000 0.889471
O O9 0.239571 0.639099 0.909787
O O10 0.139792 0.671046 0.846528
O O11 0.794448 0.347635 0.500000
O O12 0.803636 0.500000 0.552656
O O13 0.355428 0.250000 0.750000
O O14 0.250000 0.250000 0.691146
#
# Coordination Sequence:
#
# PCOD9512062 Si02
#       5
#    16  32  32  32  32
#     4   9  18  34  59  92 128 162 197 244 307 376
#     4  10  22  41  62  85 120 162 204 254 306 359
#     4  10  19  36  62  91 124 161 199 249 312 374
#     4   9  16  31  58  88 118 155 198 243 299 368
#     4  11  24  40  61  90 122 160 210 263 309 364
#
# _framework density 19.978677000000001
#
# number of rings (size 3 to 8) (size 9 to 14) (size 15 to 20)
#    0.000    2.111    3.333    0.000    0.000    2.667 
#    2.000    6.111    0.000    2.667    0.000    0.000 
#    0.000    0.000    0.000    0.000    0.000    0.000 
#
# Total GULP energy -200798.257283 kJ/mol
# GULP energy per Si atom -5577.729369 kJ/mol
# Density = 1.993320 g / cm^3
# Si number density = 19.978677 Si / 1000 Ang^3
#
#
#
# Elastic Constant Matrix: (Units=GPa)
#
#
# Indices 1 2 3 4 5 6 
#
# 1 110.1385 17.0985 35.3986 0.0000 0.0000 0.0000
# 2 17.0985 74.4143 41.1513 0.0000 0.0000 0.0000
# 3 35.3986 41.1513 163.3238 0.0000 0.0000 0.0000
# 4 0.0000 0.0000 0.0000 23.8862 0.0000 0.0000
# 5 0.0000 0.0000 0.0000 0.0000 13.4990 0.0000
# 6 0.0000 0.0000 0.0000 0.0000 0.0000 13.4382
#
#
#
# Elastic Compliance Matrix: (Units=1/GPa)
#
#
# Indices 1 2 3 4 5 6 
#
# 1 0.009860 -0.001259 -0.001820 0.000000 0.000000 0.000000
# 2 -0.001259 0.015775 -0.003702 0.000000 0.000000 0.000000
# 3 -0.001820 -0.003702 0.007450 0.000000 0.000000 0.000000
# 4 0.000000 0.000000 0.000000 0.041865 0.000000 0.000000
# 5 0.000000 0.000000 0.000000 0.000000 0.074079 0.000000
# 6 0.000000 0.000000 0.000000 0.000000 0.000000 0.074415
#
#
# Mechanical properties :
#
#
# Convention : Reuss Voigt Hill
#
# Bulk Modulus (GPa) = 51.22138 59.46373 55.34255
# Shear Modulus (GPa) = 20.53281 27.11323 23.82302
#
# Velocity S-wave (km/s) = 3.20931 3.68789 3.45689
# Velocity P-wave (km/s) = 6.27906 6.92548 6.61018
#
# Compressibility (1/GPa) = 0.01952310
#
# Stress axis : x y z
#
# Youngs Moduli (GPa) = 101.42164 63.39285 134.23011
#
# Poissons Ratio (x) = 0.07983 0.24426
# Poissons Ratio (y) = 0.12771 0.49688
# Poissons Ratio (z) = 0.18456 0.23466
#
# Static dielectric constant tensor:
#      x y z
#    x 1.698070 0.000000 0.000000 
#    y 0.000000 1.758330 0.000000 
#    z 0.000000 0.000000 1.717760 
# 
# From -- ./inp_files/41702.got.cif
#   From: 2010.05.17/outbox.cif.g08.bks.cpg/sg69_21_cif.got.tgz:41702.got - 2010.06.03 19:29:58.
