data_PCOD9512131
_publ_section_title
;
Structure prediction by ZEFSAII (Michael W. Deem and Ramdas Pophale) SiO2 
 PCOD9512131
Probable space group: F M M M
;
_chemical_formula_sum "Si O2"
_cell_formula_units_Z 160
_cell_length_a 21.136438
_cell_length_b 14.243315
_cell_length_c 24.579205
_cell_angle_alpha 90.000000
_cell_angle_beta 90.000000
_cell_angle_gamma 90.000000
_cell_volume 7399.642037
_symmetry_space_group_name_H-M "F M M M"
_symmetry_group_IT_number 69
_symmetry_cell_setting 'orthorhombic'
loop_
_space_group_symop_operation_xyz
x,y,z
-x,-y,z
x,-y,-z
-x,y,-z
-x,-y,-z
x,y,-z
-x,y,z
x,-y,z
x,1/2+y,1/2+z
-x,1/2-y,1/2+z
x,1/2-y,1/2-z
-x,1/2+y,1/2-z
-x,1/2-y,1/2-z
x,1/2+y,1/2-z
-x,1/2+y,1/2+z
x,1/2-y,1/2+z
1/2+x,y,1/2+z
1/2-x,-y,1/2+z
1/2+x,-y,1/2-z
1/2-x,y,1/2-z
1/2-x,-y,1/2-z
1/2+x,y,1/2-z
1/2-x,y,1/2+z
1/2+x,-y,1/2+z
1/2+x,1/2+y,z
1/2-x,1/2-y,z
1/2+x,1/2-y,-z
1/2-x,1/2+y,-z
1/2-x,1/2-y,-z
1/2+x,1/2+y,-z
1/2-x,1/2+y,z
1/2+x,1/2-y,z
loop_
_atom_site_type_symbol
_atom_site_label
_atom_site_fract_x
_atom_site_fract_y
_atom_site_fract_z
Si Si1 0.132643 0.867782 0.862297
Si Si2 0.500000 0.670040 0.436621
Si Si3 0.249462 0.364255 0.562457
Si Si4 0.127652 0.857441 0.628182
Si Si5 0.000000 0.603854 0.416587
Si Si6 0.323794 0.363898 0.745659
O O1 0.190327 0.896276 0.901395
O O2 0.134115 0.754818 0.865327
O O3 0.064735 0.897254 0.883238
O O4 0.143234 0.896875 0.800537
O O5 0.500000 0.640145 0.500000
O O6 0.561074 0.632890 0.403068
O O7 0.500000 0.786581 0.438905
O O8 0.244122 0.393551 0.500000
O O9 0.250000 0.250000 0.562482
O O10 0.315178 0.391894 0.590338
O O11 0.141538 0.892081 0.689707
O O12 0.000000 0.500000 0.444975
O O13 0.324204 0.250000 0.750000
O O14 0.250000 0.391222 0.750000
#
# Coordination Sequence:
#
# PCOD9512131 Si02
#       6
#    32  16  32  32  16  32
#     4   9  17  28  44  65  88 119 155 197 233 273
#     4  10  20  32  45  67  99 131 161 192 230 280
#     4   9  15  24  40  63  90 119 151 186 229 279
#     4   9  16  26  43  68  96 124 147 179 230 292
#     4  10  22  36  47  59  85 127 172 208 234 260
#     4   9  14  24  44  69  96 117 145 181 231 292
#
# _framework density 21.622668999999998
#
# number of rings (size 3 to 8) (size 9 to 14) (size 15 to 20)
#    0.000    2.800    2.000    0.600    0.000    5.800 
#    0.000    4.000    0.000    0.600    0.000    0.000 
#    0.000    0.000    0.000    0.000    0.000    9.100 
#
# Total GULP energy -223013.234866 kJ/mol
# GULP energy per Si atom -5575.330872 kJ/mol
# Density = 2.157345 g / cm^3
# Si number density = 21.622669 Si / 1000 Ang^3
#
#
#
# Elastic Constant Matrix: (Units=GPa)
#
#
# Indices 1 2 3 4 5 6 
#
# 1 226.3440 14.3152 145.5063 0.0000 0.0000 0.0000
# 2 14.3152 107.0744 11.1409 0.0000 0.0000 0.0000
# 3 145.5063 11.1409 254.0268 0.0000 0.0000 0.0000
# 4 0.0000 0.0000 0.0000 -33.2012 0.0000 0.0000
# 5 0.0000 0.0000 0.0000 0.0000 8.0242 0.0000
# 6 0.0000 0.0000 0.0000 0.0000 0.0000 -112.7880
#
#
#
# Elastic Compliance Matrix: (Units=1/GPa)
#
#
# Indices 1 2 3 4 5 6 
#
# 1 0.007022 -0.000523 -0.003999 0.000000 0.000000 0.000000
# 2 -0.000523 0.009421 -0.000114 0.000000 0.000000 0.000000
# 3 -0.003999 -0.000114 0.006232 0.000000 0.000000 0.000000
# 4 0.000000 0.000000 0.000000 -0.030119 0.000000 0.000000
# 5 0.000000 0.000000 0.000000 0.000000 0.124623 0.000000
# 6 0.000000 0.000000 0.000000 0.000000 0.000000 -0.008866
#
#
# Mechanical properties :
#
#
# Convention : Reuss Voigt Hill
#
# Bulk Modulus (GPa) = 74.60511 103.26334 88.93423
# Shear Modulus (GPa) = 40.96609 0.17255 20.56932
#
# Velocity S-wave (km/s) = 4.35741 0.28279 3.08764
# Velocity P-wave (km/s) = 7.73913 6.92584 7.34375
#
# Compressibility (1/GPa) = 0.01340391
#
# Stress axis : x y z
#
# Youngs Moduli (GPa) = 142.40765 106.14567 160.45205
#
# Poissons Ratio (x) = 0.05548 0.64170
# Poissons Ratio (y) = 0.07443 0.01826
# Poissons Ratio (z) = 0.56953 0.01208
#
# Static dielectric constant tensor:
#      x y z
#    x 1.713500 0.000000 0.000000 
#    y 0.000000 1.821040 0.000000 
#    z 0.000000 0.000000 1.748050 
# 
# From -- ./inp_files/37204.got.cif
#   From: 2010.05.17/outbox.cif.g08.bks.cpg/sg69_19_cif.got.tgz:37204.got - 2010.06.03 19:29:58.
