data_PCOD9512833
_publ_section_title
;
Structure prediction by ZEFSAII (Michael W. Deem and Ramdas Pophale) SiO2 
 PCOD9512833
Probable space group: F M M M
;
_chemical_formula_sum "Si O2"
_cell_formula_units_Z 96
_cell_length_a 11.559794
_cell_length_b 14.756144
_cell_length_c 24.342478
_cell_angle_alpha 90.000000
_cell_angle_beta 90.000000
_cell_angle_gamma 90.000000
_cell_volume 4152.290844
_symmetry_space_group_name_H-M "F M M M"
_symmetry_group_IT_number 69
_symmetry_cell_setting 'orthorhombic'
loop_
_space_group_symop_operation_xyz
x,y,z
-x,-y,z
x,-y,-z
-x,y,-z
-x,-y,-z
x,y,-z
-x,y,z
x,-y,z
x,1/2+y,1/2+z
-x,1/2-y,1/2+z
x,1/2-y,1/2-z
-x,1/2+y,1/2-z
-x,1/2-y,1/2-z
x,1/2+y,1/2-z
-x,1/2+y,1/2+z
x,1/2-y,1/2+z
1/2+x,y,1/2+z
1/2-x,-y,1/2+z
1/2+x,-y,1/2-z
1/2-x,y,1/2-z
1/2-x,-y,1/2-z
1/2+x,y,1/2-z
1/2-x,y,1/2+z
1/2+x,-y,1/2+z
1/2+x,1/2+y,z
1/2-x,1/2-y,z
1/2+x,1/2-y,-z
1/2-x,1/2+y,-z
1/2-x,1/2-y,-z
1/2+x,1/2+y,-z
1/2-x,1/2+y,z
1/2+x,1/2-y,z
loop_
_atom_site_type_symbol
_atom_site_label
_atom_site_fract_x
_atom_site_fract_y
_atom_site_fract_z
Si Si1 0.800094 0.649564 0.111358
Si Si2 0.137138 0.000000 0.934376
Si Si3 0.124919 0.856742 0.731781
Si Si4 0.121806 0.795692 0.500000
O O1 0.750000 0.750000 0.120036
O O2 0.693408 0.585078 0.096556
O O3 0.868975 0.629340 0.166360
O O4 0.875453 0.649401 0.056231
O O5 0.000000 0.000000 0.930253
O O6 0.166697 0.000000 0.000000
O O7 0.125778 0.750000 0.750000
O O8 0.250000 0.893669 0.750000
O O9 0.000000 0.891821 0.752320
O O10 0.250000 0.750000 0.500000
O O11 0.000000 0.739950 0.500000
#
# Coordination Sequence:
#
# PCOD9512833 Si02
#       4
#    32  16  32  16
#     4  11  22  43  70 104 140 191 242 301 364 438
#     4  11  26  46  71 110 157 198 243 301 372 453
#     4  10  20  38  66 100 137 183 239 297 359 426
#     4  10  22  37  62 101 138 180 236 291 357 435
#
# _framework density 23.119769000000002
#
# number of rings (size 3 to 8) (size 9 to 14) (size 15 to 20)
#    0.000    1.500    5.000    1.000    0.000    8.000 
#    0.000    5.000    0.000    0.000    0.000    0.000 
#    0.000    0.000    0.000    0.000    0.000    0.000 
#
# Total GULP energy -133834.331518 kJ/mol
# GULP energy per Si atom -5576.430480 kJ/mol
# Density = 2.306715 g / cm^3
# Si number density = 23.119769 Si / 1000 Ang^3
#
#
#
# Elastic Constant Matrix: (Units=GPa)
#
#
# Indices 1 2 3 4 5 6 
#
# 1 245.1003 41.2495 47.4082 0.0000 0.0000 0.0000
# 2 41.2495 99.6743 -2.7904 0.0000 0.0000 0.0000
# 3 47.4082 -2.7904 143.8738 0.0000 0.0000 0.0000
# 4 0.0000 0.0000 0.0000 457.3623 0.0000 0.0000
# 5 0.0000 0.0000 0.0000 0.0000 75.8984 0.0000
# 6 0.0000 0.0000 0.0000 0.0000 0.0000 -2.1025
#
#
#
# Elastic Compliance Matrix: (Units=1/GPa)
#
#
# Indices 1 2 3 4 5 6 
#
# 1 0.004725 -0.002000 -0.001596 0.000000 0.000000 0.000000
# 2 -0.002000 0.010885 0.000870 0.000000 0.000000 0.000000
# 3 -0.001596 0.000870 0.007493 0.000000 0.000000 0.000000
# 4 0.000000 0.000000 0.000000 0.002186 0.000000 0.000000
# 5 0.000000 0.000000 0.000000 0.000000 0.013175 0.000000
# 6 0.000000 0.000000 0.000000 0.000000 0.000000 -0.475628
#
#
# Mechanical properties :
#
#
# Convention : Reuss Voigt Hill
#
# Bulk Modulus (GPa) = 56.65183 73.37588 65.01386
# Shear Modulus (GPa) = -11.74185 133.08373 60.67094
#
# Velocity S-wave (km/s) = -2.25604 7.59524 5.12825
# Velocity P-wave (km/s) = 4.21551 10.42704 7.95279
#
# Compressibility (1/GPa) = 0.01765168
#
# Stress axis : x y z
#
# Youngs Moduli (GPa) = 211.62867 91.87121 133.45328
#
# Poissons Ratio (x) = 0.18376 0.21297
# Poissons Ratio (y) = 0.42330 -0.11613
# Poissons Ratio (z) = 0.33772 -0.07995
#
# Static dielectric constant tensor:
#      x y z
#    x 1.906690 0.000000 0.000000 
#    y 0.000000 1.897180 0.000000 
#    z 0.000000 0.000000 1.877270 
# 
# From -- ./inp_files/34790.got.cif
#   From: 2010.05.17/outbox.cif.g08.bks.cpg/sg69_18_cif.got.tgz:34790.got - 2010.06.03 19:29:58.
