data_PCOD9512363
_publ_section_title
;
Structure prediction by ZEFSAII (Michael W. Deem and Ramdas Pophale) SiO2 
 PCOD9512363
Probable space group: F M M M
;
_chemical_formula_sum "Si O2"
_cell_formula_units_Z 160
_cell_length_a 17.887407
_cell_length_b 29.301604
_cell_length_c 14.372323
_cell_angle_alpha 90.000000
_cell_angle_beta 90.000000
_cell_angle_gamma 90.000000
_cell_volume 7532.961579
_symmetry_space_group_name_H-M "F M M M"
_symmetry_group_IT_number 69
_symmetry_cell_setting 'orthorhombic'
loop_
_space_group_symop_operation_xyz
x,y,z
-x,-y,z
x,-y,-z
-x,y,-z
-x,-y,-z
x,y,-z
-x,y,z
x,-y,z
x,1/2+y,1/2+z
-x,1/2-y,1/2+z
x,1/2-y,1/2-z
-x,1/2+y,1/2-z
-x,1/2-y,1/2-z
x,1/2+y,1/2-z
-x,1/2+y,1/2+z
x,1/2-y,1/2+z
1/2+x,y,1/2+z
1/2-x,-y,1/2+z
1/2+x,-y,1/2-z
1/2-x,y,1/2-z
1/2-x,-y,1/2-z
1/2+x,y,1/2-z
1/2-x,y,1/2+z
1/2+x,-y,1/2+z
1/2+x,1/2+y,z
1/2-x,1/2-y,z
1/2+x,1/2-y,-z
1/2-x,1/2+y,-z
1/2-x,1/2-y,-z
1/2+x,1/2+y,-z
1/2-x,1/2+y,z
1/2+x,1/2-y,z
loop_
_atom_site_type_symbol
_atom_site_label
_atom_site_fract_x
_atom_site_fract_y
_atom_site_fract_z
Si Si1 0.914658 0.711855 0.888049
Si Si2 0.090690 0.189176 0.106515
Si Si3 0.914092 0.094046 0.196410
Si Si4 0.729645 0.050410 0.359138
Si Si5 0.863424 0.387367 0.103724
O O1 0.885271 0.761182 0.856513
O O2 0.866086 0.666684 0.875128
O O3 0.000000 0.703476 0.852126
O O4 0.920853 0.717410 0.000000
O O5 0.108963 0.145599 0.168142
O O6 0.000000 0.192120 0.103974
O O7 0.116601 0.182154 0.000000
O O8 0.857627 0.061996 0.140518
O O9 0.904360 0.089670 0.308068
O O10 0.000000 0.087110 0.171233
O O11 0.750000 0.049842 0.250000
O O12 0.781852 0.089999 0.398829
O O13 0.745989 0.000000 0.396386
O O14 0.897427 0.393273 0.000000
#
# Coordination Sequence:
#
# PCOD9512363 Si02
#       5
#    32  32  32  32  32
#     4   8  14  27  49  77 111 150 186 220 263 319
#     4   8  15  29  49  76 112 150 185 223 269 319
#     4  10  20  34  57  87 113 142 183 230 278 326
#     4   9  20  39  57  73 101 143 186 226 272 326
#     4  10  20  34  54  82 115 149 183 220 270 336
#
# _framework density 21.239985999999998
#
# number of rings (size 3 to 8) (size 9 to 14) (size 15 to 20)
#    0.000    3.000    0.000    1.800    0.000    3.600 
#    0.000    4.000    0.000    9.000    0.000   15.400 
#    0.000    0.000    0.000    0.000    0.000    0.000 
#
# Total GULP energy -222919.470518 kJ/mol
# GULP energy per Si atom -5572.986763 kJ/mol
# Density = 2.119164 g / cm^3
# Si number density = 21.239986 Si / 1000 Ang^3
#
#
#
# Elastic Constant Matrix: (Units=GPa)
#
#
# Indices 1 2 3 4 5 6 
#
# 1 75.3142 49.2076 4.4802 0.0000 0.0000 0.0000
# 2 49.2076 90.3230 11.2824 0.0000 0.0000 0.0000
# 3 4.4802 11.2824 88.4018 0.0000 0.0000 0.0000
# 4 0.0000 0.0000 0.0000 26.2695 0.0000 0.0000
# 5 0.0000 0.0000 0.0000 0.0000 12.8399 0.0000
# 6 0.0000 0.0000 0.0000 0.0000 0.0000 30.6827
#
#
#
# Elastic Compliance Matrix: (Units=1/GPa)
#
#
# Indices 1 2 3 4 5 6 
#
# 1 0.020630 -0.011288 0.000395 0.000000 0.000000 0.000000
# 2 -0.011288 0.017428 -0.001652 0.000000 0.000000 0.000000
# 3 0.000395 -0.001652 0.011503 0.000000 0.000000 0.000000
# 4 0.000000 0.000000 0.000000 0.038067 0.000000 0.000000
# 5 0.000000 0.000000 0.000000 0.000000 0.077882 0.000000
# 6 0.000000 0.000000 0.000000 0.000000 0.000000 0.032592
#
#
# Mechanical properties :
#
#
# Convention : Reuss Voigt Hill
#
# Bulk Modulus (GPa) = 40.86723 42.66438 41.76580
# Shear Modulus (GPa) = 21.61252 26.56301 24.08776
#
# Velocity S-wave (km/s) = 3.19335 3.54024 3.37126
# Velocity P-wave (km/s) = 5.73403 6.06972 5.90426
#
# Compressibility (1/GPa) = 0.02446948
#
# Stress axis : x y z
#
# Youngs Moduli (GPa) = 48.47425 57.38048 86.93525
#
# Poissons Ratio (x) = 0.64772 -0.03435
# Poissons Ratio (y) = 0.54719 0.14363
# Poissons Ratio (z) = -0.01916 0.09480
#
# Static dielectric constant tensor:
#      x y z
#    x 1.751010 0.000000 0.000000 
#    y 0.000000 1.787100 0.000000 
#    z 0.000000 0.000000 1.824250 
# 
# From -- ./inp_files/23122.got.cif
#   From: 2010.05.17/outbox.cif.g08.bks.cpg/sg69_12_cif.got.tgz:23122.got - 2010.06.03 19:29:58.
