data_PCOD9512970
_publ_section_title
;
Structure prediction by ZEFSAII (Michael W. Deem and Ramdas Pophale) SiO2 
 PCOD9512970
Probable space group: F M M M
;
_chemical_formula_sum "Si O2"
_cell_formula_units_Z 160
_cell_length_a 19.195723
_cell_length_b 14.520219
_cell_length_c 27.328593
_cell_angle_alpha 90.000000
_cell_angle_beta 90.000000
_cell_angle_gamma 90.000000
_cell_volume 7617.192195
_symmetry_space_group_name_H-M "F M M M"
_symmetry_group_IT_number 69
_symmetry_cell_setting 'orthorhombic'
loop_
_space_group_symop_operation_xyz
x,y,z
-x,-y,z
x,-y,-z
-x,y,-z
-x,-y,-z
x,y,-z
-x,y,z
x,-y,z
x,1/2+y,1/2+z
-x,1/2-y,1/2+z
x,1/2-y,1/2-z
-x,1/2+y,1/2-z
-x,1/2-y,1/2-z
x,1/2+y,1/2-z
-x,1/2+y,1/2+z
x,1/2-y,1/2+z
1/2+x,y,1/2+z
1/2-x,-y,1/2+z
1/2+x,-y,1/2-z
1/2-x,y,1/2-z
1/2-x,-y,1/2-z
1/2+x,y,1/2-z
1/2-x,y,1/2+z
1/2+x,-y,1/2+z
1/2+x,1/2+y,z
1/2-x,1/2-y,z
1/2+x,1/2-y,-z
1/2-x,1/2+y,-z
1/2-x,1/2-y,-z
1/2+x,1/2+y,-z
1/2-x,1/2+y,z
1/2+x,1/2-y,z
loop_
_atom_site_type_symbol
_atom_site_label
_atom_site_fract_x
_atom_site_fract_y
_atom_site_fract_z
Si Si1 0.575841 0.388612 0.588743
Si Si2 0.773719 0.854851 0.447054
Si Si3 0.779454 0.105461 0.159199
Si Si4 0.867733 0.887735 0.693707
Si Si5 0.922711 0.387340 0.700114
O O1 0.500000 0.355901 0.572245
O O2 0.575944 0.500000 0.586704
O O3 0.643088 0.358201 0.558979
O O4 0.589687 0.362324 0.645246
O O5 0.754374 0.894908 0.500000
O O6 0.750000 0.750000 0.446558
O O7 0.740704 0.896270 0.397936
O O8 0.711990 0.146110 0.186852
O O9 0.855951 0.145419 0.168870
O O10 0.783809 0.000000 0.177092
O O11 0.904052 0.861838 0.744048
O O12 0.864678 0.000000 0.693537
O O13 0.925484 0.500000 0.697362
O O14 0.000000 0.354197 0.686461
#
# Coordination Sequence:
#
# PCOD9512970 Si02
#       5
#    32  32  32  32  32
#     4   9  17  30  52  82 108 126 152 199 255 301
#     4  10  21  36  51  67  91 126 164 199 244 305
#     4   9  17  29  47  70  93 121 160 201 238 280
#     4   8  13  23  42  70 101 127 150 182 232 291
#     4   9  15  23  40  68  99 126 154 191 230 271
#
# _framework density 21.005115
#
# number of rings (size 3 to 8) (size 9 to 14) (size 15 to 20)
#    0.000    3.000    0.000    3.000    0.000    6.800 
#    0.000    2.000    0.000   11.400    0.000    9.800 
#    0.000    0.000    0.000    0.000    0.000    0.000 
#
# Total GULP energy -223142.485128 kJ/mol
# GULP energy per Si atom -5578.562128 kJ/mol
# Density = 2.095731 g / cm^3
# Si number density = 21.005115 Si / 1000 Ang^3
#
#
#
# Elastic Constant Matrix: (Units=GPa)
#
#
# Indices 1 2 3 4 5 6 
#
# 1 175.5060 23.4133 38.7377 0.0000 0.0000 0.0000
# 2 23.4133 52.4904 -7.3208 0.0000 0.0000 0.0000
# 3 38.7377 -7.3208 55.4615 0.0000 0.0000 0.0000
# 4 0.0000 0.0000 0.0000 -16.2939 0.0000 0.0000
# 5 0.0000 0.0000 0.0000 0.0000 9.0167 0.0000
# 6 0.0000 0.0000 0.0000 0.0000 0.0000 13.6026
#
#
#
# Elastic Compliance Matrix: (Units=1/GPa)
#
#
# Indices 1 2 3 4 5 6 
#
# 1 0.007538 -0.004174 -0.005816 0.000000 0.000000 0.000000
# 2 -0.004174 0.021719 0.005782 0.000000 0.000000 0.000000
# 3 -0.005816 0.005782 0.022856 0.000000 0.000000 0.000000
# 4 0.000000 0.000000 0.000000 -0.061373 0.000000 0.000000
# 5 0.000000 0.000000 0.000000 0.000000 0.110906 0.000000
# 6 0.000000 0.000000 0.000000 0.000000 0.000000 0.073516
#
#
# Mechanical properties :
#
#
# Convention : Reuss Voigt Hill
#
# Bulk Modulus (GPa) = 22.88432 43.67980 33.28206
# Shear Modulus (GPa) = 25.23422 16.50692 20.87057
#
# Velocity S-wave (km/s) = 3.46979 2.80635 3.15555
# Velocity P-wave (km/s) = 5.19335 5.59828 5.39961
#
# Compressibility (1/GPa) = 0.04369804
#
# Stress axis : x y z
#
# Youngs Moduli (GPa) = 132.65540 46.04231 43.75201
#
# Poissons Ratio (x) = 0.19216 0.25447
# Poissons Ratio (y) = 0.55366 -0.25297
# Poissons Ratio (z) = 0.77154 -0.26622
#
# Static dielectric constant tensor:
#      x y z
#    x 1.788900 0.000000 0.000000 
#    y 0.000000 1.798580 0.000000 
#    z 0.000000 0.000000 1.742720 
# 
# From -- ./inp_files/23113.got.cif
#   From: 2010.05.17/outbox.cif.g08.bks.cpg/sg69_12_cif.got.tgz:23113.got - 2010.06.03 19:29:58.
