data_PCOD9512178
_publ_section_title
;
Structure prediction by ZEFSAII (Michael W. Deem and Ramdas Pophale) SiO2 
 PCOD9512178
Probable space group: F M M M
;
_chemical_formula_sum "Si O2"
_cell_formula_units_Z 144
_cell_length_a 28.450899
_cell_length_b 14.746348
_cell_length_c 16.626336
_cell_angle_alpha 90.000000
_cell_angle_beta 90.000000
_cell_angle_gamma 90.000000
_cell_volume 6975.527022
_symmetry_space_group_name_H-M "F M M M"
_symmetry_group_IT_number 69
_symmetry_cell_setting 'orthorhombic'
loop_
_space_group_symop_operation_xyz
x,y,z
-x,-y,z
x,-y,-z
-x,y,-z
-x,-y,-z
x,y,-z
-x,y,z
x,-y,z
x,1/2+y,1/2+z
-x,1/2-y,1/2+z
x,1/2-y,1/2-z
-x,1/2+y,1/2-z
-x,1/2-y,1/2-z
x,1/2+y,1/2-z
-x,1/2+y,1/2+z
x,1/2-y,1/2+z
1/2+x,y,1/2+z
1/2-x,-y,1/2+z
1/2+x,-y,1/2-z
1/2-x,y,1/2-z
1/2-x,-y,1/2-z
1/2+x,y,1/2-z
1/2-x,y,1/2+z
1/2+x,-y,1/2+z
1/2+x,1/2+y,z
1/2-x,1/2-y,z
1/2+x,1/2-y,-z
1/2-x,1/2+y,-z
1/2-x,1/2-y,-z
1/2+x,1/2+y,-z
1/2-x,1/2+y,z
1/2+x,1/2-y,z
loop_
_atom_site_type_symbol
_atom_site_label
_atom_site_fract_x
_atom_site_fract_y
_atom_site_fract_z
Si Si1 0.946719 0.151880 0.292512
Si Si2 0.867050 0.109964 0.408725
Si Si3 0.945503 0.388503 0.500000
Si Si4 0.196371 0.889200 0.741391
Si Si5 0.384842 0.101183 0.350617
O O1 0.947108 0.250000 0.250000
O O2 0.915518 0.147611 0.372149
O O3 0.919127 0.094451 0.225953
O O4 0.000000 0.122686 0.305873
O O5 0.858187 0.139487 0.500000
O O6 0.826871 0.134617 0.344098
O O7 0.870375 0.000000 0.408456
O O8 0.947782 0.500000 0.500000
O O9 0.915762 0.358602 0.577700
O O10 0.000000 0.357805 0.500000
O O11 0.250000 0.860354 0.750000
O O12 0.161984 0.855045 0.812908
O O13 0.195298 0.000000 0.745873
O O14 0.371545 0.000000 0.378528
#
# Coordination Sequence:
#
# PCOD9512178 Si02
#       5
#    32  32  16  32  32
#     4  10  20  33  48  70  99 133 168 199 245 302
#     4   9  18  33  53  77 102 130 169 213 254 298
#     4   9  16  26  42  66  92 117 153 199 240 279
#     4   8  14  27  47  72 101 129 159 201 252 297
#     4   9  17  30  48  69  94 126 164 200 238 288
#
# _framework density 20.643602000000001
#
# number of rings (size 3 to 8) (size 9 to 14) (size 15 to 20)
#    0.000    3.000    0.000    2.667    0.000    3.111 
#    4.000    1.111    0.000   10.667    0.000    6.222 
#    0.000    0.000    0.000    0.000    0.000    0.000 
#
# Total GULP energy -200717.614403 kJ/mol
# GULP energy per Si atom -5575.489289 kJ/mol
# Density = 2.059662 g / cm^3
# Si number density = 20.643602 Si / 1000 Ang^3
#
#
#
# Elastic Constant Matrix: (Units=GPa)
#
#
# Indices 1 2 3 4 5 6 
#
# 1 222.4936 4.8048 101.2095 0.0000 0.0000 0.0000
# 2 4.8048 51.9786 5.2481 0.0000 0.0000 0.0000
# 3 101.2095 5.2481 158.2563 0.0000 0.0000 0.0000
# 4 0.0000 0.0000 0.0000 6.7536 0.0000 0.0000
# 5 0.0000 0.0000 0.0000 0.0000 15.8840 0.0000
# 6 0.0000 0.0000 0.0000 0.0000 0.0000 -158.1611
#
#
#
# Elastic Compliance Matrix: (Units=1/GPa)
#
#
# Indices 1 2 3 4 5 6 
#
# 1 0.006340 -0.000177 -0.004049 0.000000 0.000000 0.000000
# 2 -0.000177 0.019308 -0.000527 0.000000 0.000000 0.000000
# 3 -0.004049 -0.000527 0.008926 0.000000 0.000000 0.000000
# 4 0.000000 0.000000 0.000000 0.148069 0.000000 0.000000
# 5 0.000000 0.000000 0.000000 0.000000 0.062956 0.000000
# 6 0.000000 0.000000 0.000000 0.000000 0.000000 -0.006323
#
#
# Mechanical properties :
#
#
# Convention : Reuss Voigt Hill
#
# Bulk Modulus (GPa) = 39.89142 72.80590 56.34866
# Shear Modulus (GPa) = 19.44473 -5.67362 6.88556
#
# Velocity S-wave (km/s) = 3.07241 -1.65962 1.82830
# Velocity P-wave (km/s) = 5.65262 5.62780 5.64022
#
# Compressibility (1/GPa) = 0.02506805
#
# Stress axis : x y z
#
# Youngs Moduli (GPa) = 157.72676 51.79124 112.03664
#
# Poissons Ratio (x) = 0.00918 0.45361
# Poissons Ratio (y) = 0.02796 0.05904
# Poissons Ratio (z) = 0.63860 0.02729
#
# Static dielectric constant tensor:
#      x y z
#    x 1.715840 0.000000 0.000000 
#    y 0.000000 1.825010 0.000000 
#    z 0.000000 0.000000 1.721550 
# 
# From -- ./inp_files/23049.got.cif
#   From: 2010.05.17/outbox.cif.g08.bks.cpg/sg69_12_cif.got.tgz:23049.got - 2010.06.03 19:29:58.
