data_PCOD9512083
_publ_section_title
;
Structure prediction by ZEFSAII (Michael W. Deem and Ramdas Pophale) SiO2 
 PCOD9512083
Probable space group: F M M M
;
_chemical_formula_sum "Si O2"
_cell_formula_units_Z 120
_cell_length_a 20.256548
_cell_length_b 15.147744
_cell_length_c 17.922705
_cell_angle_alpha 90.000000
_cell_angle_beta 90.000000
_cell_angle_gamma 90.000000
_cell_volume 5499.420786
_symmetry_space_group_name_H-M "F M M M"
_symmetry_group_IT_number 69
_symmetry_cell_setting 'orthorhombic'
loop_
_space_group_symop_operation_xyz
x,y,z
-x,-y,z
x,-y,-z
-x,y,-z
-x,-y,-z
x,y,-z
-x,y,z
x,-y,z
x,1/2+y,1/2+z
-x,1/2-y,1/2+z
x,1/2-y,1/2-z
-x,1/2+y,1/2-z
-x,1/2-y,1/2-z
x,1/2+y,1/2-z
-x,1/2+y,1/2+z
x,1/2-y,1/2+z
1/2+x,y,1/2+z
1/2-x,-y,1/2+z
1/2+x,-y,1/2-z
1/2-x,y,1/2-z
1/2-x,-y,1/2-z
1/2+x,y,1/2-z
1/2-x,y,1/2+z
1/2+x,-y,1/2+z
1/2+x,1/2+y,z
1/2-x,1/2-y,z
1/2+x,1/2-y,-z
1/2-x,1/2+y,-z
1/2-x,1/2-y,-z
1/2+x,1/2+y,-z
1/2-x,1/2+y,z
1/2+x,1/2-y,z
loop_
_atom_site_type_symbol
_atom_site_label
_atom_site_fract_x
_atom_site_fract_y
_atom_site_fract_z
Si Si1 0.000000 0.000000 0.256151
Si Si2 0.606333 0.654609 0.765892
Si Si3 0.827121 0.892740 0.082832
Si Si4 0.320371 0.893236 0.873072
Si Si5 0.076424 0.392084 0.000000
O O1 0.942981 0.076667 0.253983
O O2 0.577350 0.750000 0.750000
O O3 0.629743 0.645396 0.850701
O O4 0.667631 0.643456 0.709102
O O5 0.750569 0.867672 0.094392
O O6 0.830796 0.000000 0.087506
O O7 0.848876 0.866361 0.000000
O O8 0.320835 0.000000 0.870106
O O9 0.380542 0.866283 0.927630
O O10 0.074384 0.500000 0.000000
O O11 0.000000 0.362402 0.000000
#
# Coordination Sequence:
#
# PCOD9512083 Si02
#       5
#     8  32  32  32  16
#     4  12  26  52  71  95 136 182 234 300 354 435
#     4  12  26  44  71 103 135 183 236 294 359 426
#     4  10  20  41  70 104 141 188 238 287 351 418
#     4  10  19  37  65  99 140 181 228 281 349 412
#     4   9  18  30  56  95 134 184 230 274 334 411
#
# _framework density 21.82048
#
# number of rings (size 3 to 8) (size 9 to 14) (size 15 to 20)
#    0.000    1.467    4.000    1.200    1.867    4.267 
#    2.400    2.667    0.000    0.000    0.000    0.000 
#    0.000    0.000    0.000    0.000    0.000    0.000 
#
# Total GULP energy -167278.445240 kJ/mol
# GULP energy per Si atom -5575.948175 kJ/mol
# Density = 2.177082 g / cm^3
# Si number density = 21.820480 Si / 1000 Ang^3
#
#
#
# Elastic Constant Matrix: (Units=GPa)
#
#
# Indices 1 2 3 4 5 6 
#
# 1 51.6623 28.2826 15.8233 0.0000 0.0000 0.0000
# 2 28.2826 120.2661 29.4314 0.0000 0.0000 0.0000
# 3 15.8233 29.4314 145.4053 0.0000 0.0000 0.0000
# 4 0.0000 0.0000 0.0000 -20.2556 0.0000 0.0000
# 5 0.0000 0.0000 0.0000 0.0000 -78.0517 0.0000
# 6 0.0000 0.0000 0.0000 0.0000 0.0000 47.9040
#
#
#
# Elastic Compliance Matrix: (Units=1/GPa)
#
#
# Indices 1 2 3 4 5 6 
#
# 1 0.022503 -0.004937 -0.001449 0.000000 0.000000 0.000000
# 2 -0.004937 0.009832 -0.001453 0.000000 0.000000 0.000000
# 3 -0.001449 -0.001453 0.007329 0.000000 0.000000 0.000000
# 4 0.000000 0.000000 0.000000 -0.049369 0.000000 0.000000
# 5 0.000000 0.000000 0.000000 0.000000 -0.012812 0.000000
# 6 0.000000 0.000000 0.000000 0.000000 0.000000 0.020875
#
#
# Mechanical properties :
#
#
# Convention : Reuss Voigt Hill
#
# Bulk Modulus (GPa) = 41.69284 51.60093 46.64689
# Shear Modulus (GPa) = 226.94258 6.17244 116.55751
#
# Velocity S-wave (km/s) = 10.20932 1.68371 7.31659
# Velocity P-wave (km/s) = 12.57467 5.24205 9.63331
#
# Compressibility (1/GPa) = 0.02398493
#
# Stress axis : x y z
#
# Youngs Moduli (GPa) = 44.43772 101.71386 136.44232
#
# Poissons Ratio (x) = 0.50220 0.19777
# Poissons Ratio (y) = 0.21940 0.19821
# Poissons Ratio (z) = 0.06441 0.14776
#
# Static dielectric constant tensor:
#      x y z
#    x 1.772930 0.000000 0.000000 
#    y 0.000000 1.809050 0.000000 
#    z 0.000000 0.000000 1.795920 
# 
# From -- ./inp_files/24143.got.cif
#   From: 2010.05.17/outbox.cif.g08.bks.cpg/sg69_13_cif.got.tgz:24143.got - 2010.06.03 19:29:58.
