data_PCOD9512751
_publ_section_title
;
Structure prediction by ZEFSAII (Michael W. Deem and Ramdas Pophale) SiO2 
 PCOD9512751
Probable space group: F M M M
;
_chemical_formula_sum "Si O2"
_cell_formula_units_Z 116
_cell_length_a 22.705688
_cell_length_b 14.453465
_cell_length_c 19.024010
_cell_angle_alpha 90.000000
_cell_angle_beta 90.000000
_cell_angle_gamma 90.000000
_cell_volume 6243.220972
_symmetry_space_group_name_H-M "F M M M"
_symmetry_group_IT_number 69
_symmetry_cell_setting 'orthorhombic'
loop_
_space_group_symop_operation_xyz
x,y,z
-x,-y,z
x,-y,-z
-x,y,-z
-x,-y,-z
x,y,-z
-x,y,z
x,-y,z
x,1/2+y,1/2+z
-x,1/2-y,1/2+z
x,1/2-y,1/2-z
-x,1/2+y,1/2-z
-x,1/2-y,1/2-z
x,1/2+y,1/2-z
-x,1/2+y,1/2+z
x,1/2-y,1/2+z
1/2+x,y,1/2+z
1/2-x,-y,1/2+z
1/2+x,-y,1/2-z
1/2-x,y,1/2-z
1/2-x,-y,1/2-z
1/2+x,y,1/2-z
1/2-x,y,1/2+z
1/2+x,-y,1/2+z
1/2+x,1/2+y,z
1/2-x,1/2-y,z
1/2+x,1/2-y,-z
1/2-x,1/2+y,-z
1/2-x,1/2-y,-z
1/2+x,1/2+y,-z
1/2-x,1/2+y,z
1/2+x,1/2-y,z
loop_
_atom_site_type_symbol
_atom_site_label
_atom_site_fract_x
_atom_site_fract_y
_atom_site_fract_z
Si Si1 0.500000 0.000000 0.500000
Si Si2 0.385432 0.724292 0.168659
Si Si3 0.500000 0.398005 0.144533
Si Si4 0.650891 0.893110 0.916259
Si Si5 0.229274 0.391726 0.670668
O O1 0.500000 0.078563 0.562155
O O2 0.378964 0.750000 0.250000
O O3 0.441962 0.659531 0.161758
O O4 0.388844 0.816588 0.121769
O O5 0.326256 0.668759 0.148374
O O6 0.500000 0.500000 0.180244
O O7 0.715516 0.881596 0.881286
O O8 0.633025 0.000000 0.902555
O O9 0.653131 0.879519 0.000000
O O10 0.212113 0.500000 0.672094
O O11 0.250000 0.367445 0.750000
#
# Coordination Sequence:
#
# PCOD9512751 Si02
#       5
#     4  32  16  32  32
#     4   8  24  52  64  84 126 156 214 264 312 358
#     4  12  23  38  66  93 121 162 208 257 309 371
#     4  10  25  45  63  90 121 156 210 258 312 362
#     4  10  23  40  59  91 129 164 204 254 310 376
#     4  10  20  37  60  91 128 162 199 248 310 370
#
# _framework density 18.580152999999999
#
# number of rings (size 3 to 8) (size 9 to 14) (size 15 to 20)
#    0.414    1.103    2.759    2.069    1.931    3.310 
#    0.000    0.690    0.000    1.655    0.000    0.000 
#    0.000    0.000    0.000    0.000    0.000    0.000 
#
# Total GULP energy -161640.963712 kJ/mol
# GULP energy per Si atom -5573.826335 kJ/mol
# Density = 1.853786 g / cm^3
# Si number density = 18.580153 Si / 1000 Ang^3
#
#
#
# Elastic Constant Matrix: (Units=GPa)
#
#
# Indices 1 2 3 4 5 6 
#
# 1 59.7627 68.9728 6.3308 0.0000 0.0000 0.0000
# 2 68.9728 155.8813 49.3762 0.0000 0.0000 0.0000
# 3 6.3308 49.3762 75.1544 0.0000 0.0000 0.0000
# 4 0.0000 0.0000 0.0000 29.7039 0.0000 0.0000
# 5 0.0000 0.0000 0.0000 0.0000 -1.4990 0.0000
# 6 0.0000 0.0000 0.0000 0.0000 0.0000 51.9828
#
#
#
# Elastic Compliance Matrix: (Units=1/GPa)
#
#
# Indices 1 2 3 4 5 6 
#
# 1 0.039685 -0.020837 0.010347 0.000000 0.000000 0.000000
# 2 -0.020837 0.019041 -0.010755 0.000000 0.000000 0.000000
# 3 0.010347 -0.010755 0.019500 0.000000 0.000000 0.000000
# 4 0.000000 0.000000 0.000000 0.033666 0.000000 0.000000
# 5 0.000000 0.000000 0.000000 0.000000 -0.667125 0.000000
# 6 0.000000 0.000000 0.000000 0.000000 0.000000 0.019237
#
#
# Mechanical properties :
#
#
# Convention : Reuss Voigt Hill
#
# Bulk Modulus (GPa) = 27.98254 60.01757 44.00005
# Shear Modulus (GPa) = -10.38219 27.11211 8.36496
#
# Velocity S-wave (km/s) = -2.36641 3.82409 2.12412
# Velocity P-wave (km/s) = 2.76163 7.20210 5.45421
#
# Compressibility (1/GPa) = 0.03573657
#
# Stress axis : x y z
#
# Youngs Moduli (GPa) = 25.19873 52.51719 51.28119
#
# Poissons Ratio (x) = 1.09428 -0.53059
# Poissons Ratio (y) = 0.52506 0.55153
# Poissons Ratio (z) = -0.26072 0.56482
#
# Static dielectric constant tensor:
#      x y z
#    x 1.620990 0.000000 0.000000 
#    y 0.000000 1.688710 0.000000 
#    z 0.000000 0.000000 1.605840 
# 
# From -- ./inp_files/15154.got.cif
#   From: 2010.05.17/outbox.cif.g08.bks.cpg/sg69_8_cif.got.tgz:15154.got - 2010.06.03 19:29:58.
