data_PCOD9512251
_publ_section_title
;
Structure prediction by ZEFSAII (Michael W. Deem and Ramdas Pophale) SiO2 
 PCOD9512251
Probable space group: F M M M
;
_chemical_formula_sum "Si O2"
_cell_formula_units_Z 168
_cell_length_a 18.627536
_cell_length_b 28.118103
_cell_length_c 15.957962
_cell_angle_alpha 90.000000
_cell_angle_beta 90.000000
_cell_angle_gamma 90.000000
_cell_volume 8358.317330
_symmetry_space_group_name_H-M "F M M M"
_symmetry_group_IT_number 69
_symmetry_cell_setting 'orthorhombic'
loop_
_space_group_symop_operation_xyz
x,y,z
-x,-y,z
x,-y,-z
-x,y,-z
-x,-y,-z
x,y,-z
-x,y,z
x,-y,z
x,1/2+y,1/2+z
-x,1/2-y,1/2+z
x,1/2-y,1/2-z
-x,1/2+y,1/2-z
-x,1/2-y,1/2-z
x,1/2+y,1/2-z
-x,1/2+y,1/2+z
x,1/2-y,1/2+z
1/2+x,y,1/2+z
1/2-x,-y,1/2+z
1/2+x,-y,1/2-z
1/2-x,y,1/2-z
1/2-x,-y,1/2-z
1/2+x,y,1/2-z
1/2-x,y,1/2+z
1/2+x,-y,1/2+z
1/2+x,1/2+y,z
1/2-x,1/2-y,z
1/2+x,1/2-y,-z
1/2-x,1/2+y,-z
1/2-x,1/2-y,-z
1/2+x,1/2+y,-z
1/2-x,1/2+y,z
1/2+x,1/2-y,z
loop_
_atom_site_type_symbol
_atom_site_label
_atom_site_fract_x
_atom_site_fract_y
_atom_site_fract_z
Si Si1 0.419089 0.764851 0.153224
Si Si2 0.386584 0.576191 0.097834
Si Si3 0.825082 0.349511 0.899210
Si Si4 0.728472 0.446857 0.652556
Si Si5 0.500000 0.500000 0.157029
Si Si6 0.665572 0.174442 0.598785
O O1 0.500000 0.762634 0.119520
O O2 0.420561 0.750000 0.250000
O O3 0.385401 0.816579 0.140638
O O4 0.368424 0.725563 0.111167
O O5 0.303494 0.560071 0.103307
O O6 0.437214 0.541537 0.149310
O O7 0.383786 0.630766 0.129958
O O8 0.409886 0.573454 0.000000
O O9 0.824251 0.404665 0.873752
O O10 0.746837 0.330200 0.868942
O O11 0.829569 0.345213 0.000000
O O12 0.700443 0.500000 0.638235
O O13 0.750000 0.442132 0.750000
O O14 0.671238 0.164890 0.500000
#
# Coordination Sequence:
#
# PCOD9512251 Si02
#       6
#    32  32  32  32   8  32
#     4  11  25  40  57  86 118 156 199 249 305 357
#     4  10  20  33  54  86 119 152 188 231 285 358
#     4  10  22  39  63  91 117 156 203 245 296 361
#     4  10  21  37  60  87 119 154 200 247 299 350
#     4  12  21  32  54  88 124 156 189 224 293 374
#     4   9  20  37  58  85 115 150 195 239 288 351
#
# _framework density 20.099737999999999
#
# number of rings (size 3 to 8) (size 9 to 14) (size 15 to 20)
#    0.000    1.905    0.952    3.714    6.667    4.952 
#    0.000    0.000    0.000    0.571    0.000    1.333 
#    0.000    0.000    0.000    0.000    0.000    0.000 
#
# Total GULP energy -234003.843594 kJ/mol
# GULP energy per Si atom -5571.520086 kJ/mol
# Density = 2.005399 g / cm^3
# Si number density = 20.099738 Si / 1000 Ang^3
#
#
#
# Elastic Constant Matrix: (Units=GPa)
#
#
# Indices 1 2 3 4 5 6 
#
# 1 36.0359 34.6248 13.2352 0.0000 0.0000 0.0000
# 2 34.6248 135.8669 15.2348 0.0000 0.0000 0.0000
# 3 13.2352 15.2348 33.0063 0.0000 0.0000 0.0000
# 4 0.0000 0.0000 0.0000 27.8297 0.0000 0.0000
# 5 0.0000 0.0000 0.0000 0.0000 1.9826 0.0000
# 6 0.0000 0.0000 0.0000 0.0000 0.0000 21.7390
#
#
#
# Elastic Compliance Matrix: (Units=1/GPa)
#
#
# Indices 1 2 3 4 5 6 
#
# 1 0.040955 -0.009065 -0.012238 0.000000 0.000000 0.000000
# 2 -0.009065 0.009768 -0.000874 0.000000 0.000000 0.000000
# 3 -0.012238 -0.000874 0.035608 0.000000 0.000000 0.000000
# 4 0.000000 0.000000 0.000000 0.035933 0.000000 0.000000
# 5 0.000000 0.000000 0.000000 0.000000 0.504387 0.000000
# 6 0.000000 0.000000 0.000000 0.000000 0.000000 0.046000
#
#
# Mechanical properties :
#
#
# Convention : Reuss Voigt Hill
#
# Bulk Modulus (GPa) = 23.82254 36.78872 30.30563
# Shear Modulus (GPa) = 6.83997 19.76454 13.30226
#
# Velocity S-wave (km/s) = 1.84673 3.13920 2.57536
# Velocity P-wave (km/s) = 4.05279 5.61091 4.89425
#
# Compressibility (1/GPa) = 0.04197706
#
# Stress axis : x y z
#
# Youngs Moduli (GPa) = 24.41721 102.37281 28.08349
#
# Poissons Ratio (x) = 0.92798 0.34370
# Poissons Ratio (y) = 0.22134 0.02454
# Poissons Ratio (z) = 0.29883 0.08946
#
# Static dielectric constant tensor:
#      x y z
#    x 1.691710 0.000000 0.000000 
#    y 0.000000 1.754200 0.000000 
#    z 0.000000 0.000000 1.752210 
# 
# From -- ./inp_files/16867.got.cif
#   From: 2010.05.17/outbox.cif.g08.bks.cpg/sg69_9_cif.got.tgz:16867.got - 2010.06.03 19:29:58.
