data_PCOD9512858
_publ_section_title
;
Structure prediction by ZEFSAII (Michael W. Deem and Ramdas Pophale) SiO2 
 PCOD9512858
Probable space group: F M M M
;
_chemical_formula_sum "Si O2"
_cell_formula_units_Z 160
_cell_length_a 14.143498
_cell_length_b 32.815849
_cell_length_c 18.405528
_cell_angle_alpha 90.000000
_cell_angle_beta 90.000000
_cell_angle_gamma 90.000000
_cell_volume 8542.574178
_symmetry_space_group_name_H-M "F M M M"
_symmetry_group_IT_number 69
_symmetry_cell_setting 'orthorhombic'
loop_
_space_group_symop_operation_xyz
x,y,z
-x,-y,z
x,-y,-z
-x,y,-z
-x,-y,-z
x,y,-z
-x,y,z
x,-y,z
x,1/2+y,1/2+z
-x,1/2-y,1/2+z
x,1/2-y,1/2-z
-x,1/2+y,1/2-z
-x,1/2-y,1/2-z
x,1/2+y,1/2-z
-x,1/2+y,1/2+z
x,1/2-y,1/2+z
1/2+x,y,1/2+z
1/2-x,-y,1/2+z
1/2+x,-y,1/2-z
1/2-x,y,1/2-z
1/2-x,-y,1/2-z
1/2+x,y,1/2-z
1/2-x,y,1/2+z
1/2+x,-y,1/2+z
1/2+x,1/2+y,z
1/2-x,1/2-y,z
1/2+x,1/2-y,-z
1/2-x,1/2+y,-z
1/2-x,1/2-y,-z
1/2+x,1/2+y,-z
1/2-x,1/2+y,z
1/2+x,1/2-y,z
loop_
_atom_site_type_symbol
_atom_site_label
_atom_site_fract_x
_atom_site_fract_y
_atom_site_fract_z
Si Si1 0.389512 0.000000 0.712937
Si Si2 0.110070 0.938532 0.342571
Si Si3 0.823963 0.651718 0.814368
Si Si4 0.500000 0.688384 0.082060
Si Si5 0.285449 0.791121 0.582628
Si Si6 0.742766 0.500000 0.417314
Si Si7 0.000000 0.199867 0.249582
O O1 0.371054 0.961224 0.765367
O O2 0.325651 0.000000 0.642118
O O3 0.500000 0.000000 0.693839
O O4 0.130105 0.890967 0.336532
O O5 0.000000 0.946010 0.359417
O O6 0.177204 0.960987 0.399790
O O7 0.750000 0.644373 0.750000
O O8 0.759716 0.670990 0.877150
O O9 0.906300 0.682932 0.789609
O O10 0.601339 0.710116 0.080424
O O11 0.500000 0.677612 0.169225
O O12 0.500000 0.666255 0.000000
O O13 0.250181 0.792012 0.500000
O O14 0.250000 0.750000 0.619941
O O15 0.775639 0.500000 0.500000
O O16 0.000000 0.250000 0.250000
#
# Coordination Sequence:
#
# PCOD9512858 Si02
#       7
#    16  32  32  16  32  16  16
#     4   9  19  39  67  89 124 161 203 242 290 369
#     4  10  21  40  62  92 119 160 205 246 304 366
#     4  12  23  37  62  90 124 155 207 268 310 364
#     4  10  20  40  60  80 115 153 201 253 308 379
#     4  10  22  39  59  83 115 162 205 252 321 379
#     4  11  22  38  65  95 129 163 195 243 304 370
#     4  12  24  38  60  93 120 161 215 266 315 369
#
# _framework density 18.729717000000001
#
# number of rings (size 3 to 8) (size 9 to 14) (size 15 to 20)
#    0.000    1.400    3.000    4.500    0.000    1.800 
#    0.000    0.500    0.000    0.000    0.000    0.000 
#    0.000    0.000    0.000    0.000    0.000    0.000 
#
# Total GULP energy -222839.462624 kJ/mol
# GULP energy per Si atom -5570.986566 kJ/mol
# Density = 1.868709 g / cm^3
# Si number density = 18.729717 Si / 1000 Ang^3
#
#
#
# Elastic Constant Matrix: (Units=GPa)
#
#
# Indices 1 2 3 4 5 6 
#
# 1 90.6944 22.1070 12.3937 0.0000 0.0000 0.0000
# 2 22.1070 106.8530 12.3708 0.0000 0.0000 0.0000
# 3 12.3937 12.3708 74.3731 0.0000 0.0000 0.0000
# 4 0.0000 0.0000 0.0000 4.4058 0.0000 0.0000
# 5 0.0000 0.0000 0.0000 0.0000 9.7528 0.0000
# 6 0.0000 0.0000 0.0000 0.0000 0.0000 13.3842
#
#
#
# Elastic Compliance Matrix: (Units=1/GPa)
#
#
# Indices 1 2 3 4 5 6 
#
# 1 0.011793 -0.002256 -0.001590 0.000000 0.000000 0.000000
# 2 -0.002256 0.009974 -0.001283 0.000000 0.000000 0.000000
# 3 -0.001590 -0.001283 0.013924 0.000000 0.000000 0.000000
# 4 0.000000 0.000000 0.000000 0.226972 0.000000 0.000000
# 5 0.000000 0.000000 0.000000 0.000000 0.102535 0.000000
# 6 0.000000 0.000000 0.000000 0.000000 0.000000 0.074715
#
#
# Mechanical properties :
#
#
# Convention : Reuss Voigt Hill
#
# Bulk Modulus (GPa) = 39.31849 40.62928 39.97389
# Shear Modulus (GPa) = 10.90158 20.51182 15.70670
#
# Velocity S-wave (km/s) = 2.41518 3.31289 2.89900
# Velocity P-wave (km/s) = 5.36802 6.03102 5.70915
#
# Compressibility (1/GPa) = 0.02543333
#
# Stress axis : x y z
#
# Youngs Moduli (GPa) = 84.79466 100.26151 71.81792
#
# Poissons Ratio (x) = 0.22617 0.11419
# Poissons Ratio (y) = 0.19128 0.09215
# Poissons Ratio (z) = 0.13483 0.12864
#
# Static dielectric constant tensor:
#      x y z
#    x 1.637570 0.000000 0.000000 
#    y 0.000000 1.673850 0.000000 
#    z 0.000000 0.000000 1.700350 
# 
# From -- ./inp_files/21893.got.cif
#   From: 2010.05.17/outbox.cif.g08.bks.cpg/sg69_11_cif.got.tgz:21893.got - 2010.06.03 19:29:58.
