data_PCOD9512030
_publ_section_title
;
Structure prediction by ZEFSAII (Michael W. Deem and Ramdas Pophale) SiO2 
 PCOD9512030
Probable space group: F M M M
;
_chemical_formula_sum "Si O2"
_cell_formula_units_Z 144
_cell_length_a 26.980563
_cell_length_b 18.425300
_cell_length_c 15.461843
_cell_angle_alpha 90.000000
_cell_angle_beta 90.000000
_cell_angle_gamma 90.000000
_cell_volume 7686.468198
_symmetry_space_group_name_H-M "F M M M"
_symmetry_group_IT_number 69
_symmetry_cell_setting 'orthorhombic'
loop_
_space_group_symop_operation_xyz
x,y,z
-x,-y,z
x,-y,-z
-x,y,-z
-x,-y,-z
x,y,-z
-x,y,z
x,-y,z
x,1/2+y,1/2+z
-x,1/2-y,1/2+z
x,1/2-y,1/2-z
-x,1/2+y,1/2-z
-x,1/2-y,1/2-z
x,1/2+y,1/2-z
-x,1/2+y,1/2+z
x,1/2-y,1/2+z
1/2+x,y,1/2+z
1/2-x,-y,1/2+z
1/2+x,-y,1/2-z
1/2-x,y,1/2-z
1/2-x,-y,1/2-z
1/2+x,y,1/2-z
1/2-x,y,1/2+z
1/2+x,-y,1/2+z
1/2+x,1/2+y,z
1/2-x,1/2-y,z
1/2+x,1/2-y,-z
1/2-x,1/2+y,-z
1/2-x,1/2-y,-z
1/2+x,1/2+y,-z
1/2-x,1/2+y,z
1/2+x,1/2-y,z
loop_
_atom_site_type_symbol
_atom_site_label
_atom_site_fract_x
_atom_site_fract_y
_atom_site_fract_z
Si Si1 0.440596 0.585612 0.500000
Si Si2 0.306505 0.767459 0.605285
Si Si3 0.904476 0.189204 0.352725
Si Si4 0.848783 0.420676 0.397594
Si Si5 0.942484 0.343230 0.340247
O O1 0.430972 0.500000 0.500000
O O2 0.500000 0.596467 0.500000
O O3 0.417044 0.625206 0.417672
O O4 0.312292 0.763400 0.500000
O O5 0.250000 0.750000 0.626471
O O6 0.346905 0.712667 0.645101
O O7 0.320041 0.849259 0.634383
O O8 0.932343 0.263635 0.380932
O O9 0.924358 0.167423 0.258633
O O10 0.839431 0.423563 0.500000
O O11 0.836517 0.500000 0.360439
O O12 0.906369 0.401636 0.382596
O O13 0.000000 0.361198 0.344090
#
# Coordination Sequence:
#
# PCOD9512030 Si02
#       5
#    16  32  32  32  32
#     4  11  22  34  51  74 105 145 182 223 274 324
#     4   9  17  33  59  82 103 138 181 223 270 320
#     4  10  19  36  52  77 108 137 183 228 261 320
#     4   9  19  35  53  79 110 137 174 225 278 328
#     4  10  20  33  54  79 106 145 181 218 269 322
#
# _framework density 18.734223
#
# number of rings (size 3 to 8) (size 9 to 14) (size 15 to 20)
#    0.000    2.333    1.111    2.667    1.556    1.778 
#    0.000   11.111    0.000    1.333    0.000    0.000 
#    0.000    0.000    0.000    0.000    0.000    0.000 
#
# Total GULP energy -200836.289900 kJ/mol
# GULP energy per Si atom -5578.785831 kJ/mol
# Density = 1.869158 g / cm^3
# Si number density = 18.734223 Si / 1000 Ang^3
#
#
#
# Elastic Constant Matrix: (Units=GPa)
#
#
# Indices 1 2 3 4 5 6 
#
# 1 149.5774 57.6986 7.1185 0.0000 0.0000 0.0000
# 2 57.6986 128.6762 25.2770 0.0000 0.0000 0.0000
# 3 7.1185 25.2770 23.2276 0.0000 0.0000 0.0000
# 4 0.0000 0.0000 0.0000 12.1775 0.0000 0.0000
# 5 0.0000 0.0000 0.0000 0.0000 23.8453 0.0000
# 6 0.0000 0.0000 0.0000 0.0000 0.0000 9.3679
#
#
#
# Elastic Compliance Matrix: (Units=1/GPa)
#
#
# Indices 1 2 3 4 5 6 
#
# 1 0.008148 -0.004023 0.001881 0.000000 0.000000 0.000000
# 2 -0.004023 0.011871 -0.011685 0.000000 0.000000 0.000000
# 3 0.001881 -0.011685 0.055192 0.000000 0.000000 0.000000
# 4 0.000000 0.000000 0.000000 0.082119 0.000000 0.000000
# 5 0.000000 0.000000 0.000000 0.000000 0.041937 0.000000
# 6 0.000000 0.000000 0.000000 0.000000 0.000000 0.106748
#
#
# Mechanical properties :
#
#
# Convention : Reuss Voigt Hill
#
# Bulk Modulus (GPa) = 21.02788 53.51883 37.27335
# Shear Modulus (GPa) = 14.30532 23.17062 18.73797
#
# Velocity S-wave (km/s) = 2.76632 3.52064 3.16602
# Velocity P-wave (km/s) = 4.63163 6.71982 5.77096
#
# Compressibility (1/GPa) = 0.04755591
#
# Stress axis : x y z
#
# Youngs Moduli (GPa) = 122.73204 84.24034 18.11859
#
# Poissons Ratio (x) = 0.33890 -0.03408
# Poissons Ratio (y) = 0.49375 0.21172
# Poissons Ratio (z) = -0.23085 0.98437
#
# Static dielectric constant tensor:
#      x y z
#    x 1.635310 0.000000 0.000000 
#    y 0.000000 1.654610 0.000000 
#    z 0.000000 0.000000 1.692410 
# 
# From -- ./inp_files/19479.got.cif
#   From: 2010.05.17/outbox.cif.g08.bks.cpg/sg69_10_cif.got.tgz:19479.got - 2010.06.03 19:29:58.
