data_PCOD9512294
_publ_section_title
;
Structure prediction by ZEFSAII (Michael W. Deem and Ramdas Pophale) SiO2 
 PCOD9512294
Probable space group: F M M M
;
_chemical_formula_sum "Si O2"
_cell_formula_units_Z 176
_cell_length_a 17.593814
_cell_length_b 27.215241
_cell_length_c 20.380286
_cell_angle_alpha 90.000000
_cell_angle_beta 90.000000
_cell_angle_gamma 90.000000
_cell_volume 9758.486262
_symmetry_space_group_name_H-M "F M M M"
_symmetry_group_IT_number 69
_symmetry_cell_setting 'orthorhombic'
loop_
_space_group_symop_operation_xyz
x,y,z
-x,-y,z
x,-y,-z
-x,y,-z
-x,-y,-z
x,y,-z
-x,y,z
x,-y,z
x,1/2+y,1/2+z
-x,1/2-y,1/2+z
x,1/2-y,1/2-z
-x,1/2+y,1/2-z
-x,1/2-y,1/2-z
x,1/2+y,1/2-z
-x,1/2+y,1/2+z
x,1/2-y,1/2+z
1/2+x,y,1/2+z
1/2-x,-y,1/2+z
1/2+x,-y,1/2-z
1/2-x,y,1/2-z
1/2-x,-y,1/2-z
1/2+x,y,1/2-z
1/2-x,y,1/2+z
1/2+x,-y,1/2+z
1/2+x,1/2+y,z
1/2-x,1/2-y,z
1/2+x,1/2-y,-z
1/2-x,1/2+y,-z
1/2-x,1/2-y,-z
1/2+x,1/2+y,-z
1/2-x,1/2+y,z
1/2+x,1/2-y,z
loop_
_atom_site_type_symbol
_atom_site_label
_atom_site_fract_x
_atom_site_fract_y
_atom_site_fract_z
Si Si1 0.087502 0.559798 0.000000
Si Si2 0.839194 0.137354 0.261821
Si Si3 0.088999 0.328144 0.371230
Si Si4 0.408216 0.057904 0.856520
Si Si5 0.586870 0.289287 0.641484
Si Si6 0.147781 0.797849 0.500000
Si Si7 0.819568 0.680138 0.500000
O O1 0.120397 0.573543 0.070626
O O2 0.085146 0.500000 0.000000
O O3 0.000000 0.576883 0.000000
O O4 0.750000 0.133729 0.250000
O O5 0.882164 0.144354 0.193112
O O6 0.870875 0.090873 0.301355
O O7 0.858058 0.184015 0.308039
O O8 0.096369 0.269483 0.357688
O O9 0.140292 0.339636 0.434554
O O10 0.000000 0.337464 0.384500
O O11 0.500000 0.063856 0.855691
O O12 0.392857 0.000000 0.847925
O O13 0.500000 0.301122 0.659826
O O14 0.602876 0.306886 0.567186
O O15 0.164447 0.739074 0.500000
O O16 0.228845 0.824873 0.500000
#
# Coordination Sequence:
#
# PCOD9512294 Si02
#       7
#    16  32  32  32  32  16  16
#     4   7  12  27  54  83 104 124 153 192 243 303
#     4  12  24  34  48  74 106 139 172 212 263 309
#     4  10  20  35  53  72  98 136 182 223 256 301
#     4   9  18  35  58  81 105 133 166 205 252 311
#     4  10  20  34  52  74 102 136 174 216 260 310
#     4   9  17  30  49  75 104 132 166 210 263 316
#     4   9  17  31  51  72  98 135 174 215 263 309
#
# _framework density 18.035584
#
# number of rings (size 3 to 8) (size 9 to 14) (size 15 to 20)
#    0.000    2.273    0.000    4.909    0.000    7.636 
#    0.000    2.727    0.000    0.000    0.000    0.636 
#    0.000    2.909    0.000    0.000    0.000    0.545 
#
# Total GULP energy -245680.792912 kJ/mol
# GULP energy per Si atom -5583.654384 kJ/mol
# Density = 1.799453 g / cm^3
# Si number density = 18.035584 Si / 1000 Ang^3
#
#
#
# Elastic Constant Matrix: (Units=GPa)
#
#
# Indices 1 2 3 4 5 6 
#
# 1 78.6026 32.4399 49.3811 0.0000 0.0000 0.0000
# 2 32.4399 52.8554 44.5628 0.0000 0.0000 0.0000
# 3 49.3811 44.5628 154.8120 0.0000 0.0000 0.0000
# 4 0.0000 0.0000 0.0000 137.1401 0.0000 0.0000
# 5 0.0000 0.0000 0.0000 0.0000 7.4187 0.0000
# 6 0.0000 0.0000 0.0000 0.0000 0.0000 15.4824
#
#
#
# Elastic Compliance Matrix: (Units=1/GPa)
#
#
# Indices 1 2 3 4 5 6 
#
# 1 0.018331 -0.008346 -0.003445 0.000000 0.000000 0.000000
# 2 -0.008346 0.028783 -0.005623 0.000000 0.000000 0.000000
# 3 -0.003445 -0.005623 0.009177 0.000000 0.000000 0.000000
# 4 0.000000 0.000000 0.000000 0.007292 0.000000 0.000000
# 5 0.000000 0.000000 0.000000 0.000000 0.134794 0.000000
# 6 0.000000 0.000000 0.000000 0.000000 0.000000 0.064590
#
#
# Mechanical properties :
#
#
# Convention : Reuss Voigt Hill
#
# Bulk Modulus (GPa) = 46.59237 59.89306 53.24272
# Shear Modulus (GPa) = 16.39624 42.66731 29.53178
#
# Velocity S-wave (km/s) = 3.01841 4.86915 4.05089
# Velocity P-wave (km/s) = 6.16745 8.05555 7.17389
#
# Compressibility (1/GPa) = 0.02146274
#
# Stress axis : x y z
#
# Youngs Moduli (GPa) = 54.55288 34.74301 108.97133
#
# Poissons Ratio (x) = 0.28998 0.37536
# Poissons Ratio (y) = 0.45532 0.61273
# Poissons Ratio (z) = 0.18791 0.19536
#
# Static dielectric constant tensor:
#      x y z
#    x 1.594760 0.000000 0.000000 
#    y 0.000000 1.630240 0.000000 
#    z 0.000000 0.000000 1.620660 
# 
# From -- ./inp_files/23309.got.cif
#   From: 2010.05.17/outbox.cif.g08.bks.cpg/sg69_12_cif.got.tgz:23309.got - 2010.06.03 19:29:58.
