data_PCOD9512327
_publ_section_title
;
Structure prediction by ZEFSAII (Michael W. Deem and Ramdas Pophale) SiO2 
 PCOD9512327
Probable space group: F M M M
;
_chemical_formula_sum "Si O2"
_cell_formula_units_Z 176
_cell_length_a 18.320687
_cell_length_b 17.245498
_cell_length_c 30.789107
_cell_angle_alpha 90.000000
_cell_angle_beta 90.000000
_cell_angle_gamma 90.000000
_cell_volume 9727.798991
_symmetry_space_group_name_H-M "F M M M"
_symmetry_group_IT_number 69
_symmetry_cell_setting 'orthorhombic'
loop_
_space_group_symop_operation_xyz
x,y,z
-x,-y,z
x,-y,-z
-x,y,-z
-x,-y,-z
x,y,-z
-x,y,z
x,-y,z
x,1/2+y,1/2+z
-x,1/2-y,1/2+z
x,1/2-y,1/2-z
-x,1/2+y,1/2-z
-x,1/2-y,1/2-z
x,1/2+y,1/2-z
-x,1/2+y,1/2+z
x,1/2-y,1/2+z
1/2+x,y,1/2+z
1/2-x,-y,1/2+z
1/2+x,-y,1/2-z
1/2-x,y,1/2-z
1/2-x,-y,1/2-z
1/2+x,y,1/2-z
1/2-x,y,1/2+z
1/2+x,-y,1/2+z
1/2+x,1/2+y,z
1/2-x,1/2-y,z
1/2+x,1/2-y,-z
1/2-x,1/2+y,-z
1/2-x,1/2-y,-z
1/2+x,1/2+y,-z
1/2-x,1/2+y,z
1/2+x,1/2-y,z
loop_
_atom_site_type_symbol
_atom_site_label
_atom_site_fract_x
_atom_site_fract_y
_atom_site_fract_z
Si Si1 0.209215 0.591102 0.705614
Si Si2 0.414315 0.406883 0.349986
Si Si3 0.269697 0.660612 0.617499
Si Si4 0.085977 0.660909 0.752995
Si Si5 0.000000 0.089672 0.947001
Si Si6 0.658976 0.906637 0.450249
O O1 0.221026 0.500000 0.698944
O O2 0.250000 0.614693 0.750000
O O3 0.237846 0.635411 0.664104
O O4 0.126207 0.610742 0.716752
O O5 0.500000 0.393212 0.360753
O O6 0.401638 0.500000 0.350885
O O7 0.354954 0.363276 0.379805
O O8 0.402549 0.375843 0.300728
O O9 0.250000 0.750000 0.611212
O O10 0.224944 0.616083 0.580524
O O11 0.112504 0.750000 0.750000
O O12 0.000000 0.661449 0.745104
O O13 0.079011 0.123418 0.934368
O O14 0.000000 0.000000 0.932330
O O15 0.000000 0.088953 0.000000
O O16 0.670233 0.880439 0.500000
O O17 0.653399 0.000000 0.451126
#
# Coordination Sequence:
#
# PCOD9512327 Si02
#       6
#    32  32  32  32  16  32
#     4  11  22  35  54  77 105 144 188 235 272 320
#     4  10  20  37  60  79 104 150 201 236 268 332
#     4  12  24  37  55  85 115 149 183 233 293 341
#     4  10  20  34  53  78 108 144 183 229 286 339
#     4   7  12  28  56  86 110 139 177 213 265 334
#     4   9  18  36  62  86 112 147 186 228 273 334
#
# _framework density 18.092479000000001
#
# number of rings (size 3 to 8) (size 9 to 14) (size 15 to 20)
#    0.000    1.909    1.818    4.364    0.000    1.455 
#    3.273    0.000    0.000    0.545    0.000    2.545 
#    0.000    0.000    0.000    0.000    0.000    0.000 
#
# Total GULP energy -245374.343132 kJ/mol
# GULP energy per Si atom -5576.689617 kJ/mol
# Density = 1.805130 g / cm^3
# Si number density = 18.092479 Si / 1000 Ang^3
#
#
#
# Elastic Constant Matrix: (Units=GPa)
#
#
# Indices 1 2 3 4 5 6 
#
# 1 130.7730 31.9563 40.0028 0.0000 0.0000 0.0000
# 2 31.9563 50.5140 13.2622 0.0000 0.0000 0.0000
# 3 40.0028 13.2622 43.4866 0.0000 0.0000 0.0000
# 4 0.0000 0.0000 0.0000 320.7111 0.0000 0.0000
# 5 0.0000 0.0000 0.0000 0.0000 26.6233 0.0000
# 6 0.0000 0.0000 0.0000 0.0000 0.0000 20.4843
#
#
#
# Elastic Compliance Matrix: (Units=1/GPa)
#
#
# Indices 1 2 3 4 5 6 
#
# 1 0.011686 -0.004968 -0.009234 0.000000 0.000000 0.000000
# 2 -0.004968 0.023632 -0.002637 0.000000 0.000000 0.000000
# 3 -0.009234 -0.002637 0.032294 0.000000 0.000000 0.000000
# 4 0.000000 0.000000 0.000000 0.003118 0.000000 0.000000
# 5 0.000000 0.000000 0.000000 0.000000 0.037561 0.000000
# 6 0.000000 0.000000 0.000000 0.000000 0.000000 0.048818
#
#
# Mechanical properties :
#
#
# Convention : Reuss Voigt Hill
#
# Bulk Modulus (GPa) = 29.46989 43.91293 36.69141
# Shear Modulus (GPa) = 24.74044 82.86724 53.80384
#
# Velocity S-wave (km/s) = 3.70191 6.77506 5.45919
# Velocity P-wave (km/s) = 5.88184 9.24803 7.74990
#
# Compressibility (1/GPa) = 0.03393294
#
# Stress axis : x y z
#
# Youngs Moduli (GPa) = 85.57541 42.31598 30.96525
#
# Poissons Ratio (x) = 0.21023 0.28594
# Poissons Ratio (y) = 0.42515 0.08165
# Poissons Ratio (z) = 0.79023 0.11158
#
# Static dielectric constant tensor:
#      x y z
#    x 1.688710 0.000000 0.000000 
#    y 0.000000 1.694600 0.000000 
#    z 0.000000 0.000000 1.581720 
# 
# From -- ./inp_files/23529.got.cif
#   From: 2010.05.17/outbox.cif.g08.bks.cpg/sg69_12_cif.got.tgz:23529.got - 2010.06.03 19:29:58.
