data_PCOD9512546
_publ_section_title
;
Structure prediction by ZEFSAII (Michael W. Deem and Ramdas Pophale) SiO2 
 PCOD9512546
Probable space group: F M M M
;
_chemical_formula_sum "Si O2"
_cell_formula_units_Z 164
_cell_length_a 22.273151
_cell_length_b 23.179348
_cell_length_c 16.413401
_cell_angle_alpha 90.000000
_cell_angle_beta 90.000000
_cell_angle_gamma 90.000000
_cell_volume 8473.863366
_symmetry_space_group_name_H-M "F M M M"
_symmetry_group_IT_number 69
_symmetry_cell_setting 'orthorhombic'
loop_
_space_group_symop_operation_xyz
x,y,z
-x,-y,z
x,-y,-z
-x,y,-z
-x,-y,-z
x,y,-z
-x,y,z
x,-y,z
x,1/2+y,1/2+z
-x,1/2-y,1/2+z
x,1/2-y,1/2-z
-x,1/2+y,1/2-z
-x,1/2-y,1/2-z
x,1/2+y,1/2-z
-x,1/2+y,1/2+z
x,1/2-y,1/2+z
1/2+x,y,1/2+z
1/2-x,-y,1/2+z
1/2+x,-y,1/2-z
1/2-x,y,1/2-z
1/2-x,-y,1/2-z
1/2+x,y,1/2-z
1/2-x,y,1/2+z
1/2+x,-y,1/2+z
1/2+x,1/2+y,z
1/2-x,1/2-y,z
1/2+x,1/2-y,-z
1/2-x,1/2+y,-z
1/2-x,1/2-y,-z
1/2+x,1/2+y,-z
1/2-x,1/2+y,z
1/2+x,1/2-y,z
loop_
_atom_site_type_symbol
_atom_site_label
_atom_site_fract_x
_atom_site_fract_y
_atom_site_fract_z
Si Si1 0.000000 0.783239 0.598523
Si Si2 0.186932 0.386175 0.091021
Si Si3 0.373313 0.063720 0.241363
Si Si4 0.000000 0.085865 0.342307
Si Si5 0.131594 0.759757 0.403842
Si Si6 0.203334 0.659258 0.675199
Si Si7 0.500000 0.500000 0.500000
O O1 0.937747 0.752666 0.621053
O O2 0.000000 0.788737 0.500000
O O3 0.000000 0.846826 0.635577
O O4 0.166678 0.430452 0.159429
O O5 0.149408 0.326909 0.104709
O O6 0.255667 0.367992 0.104400
O O7 0.174825 0.406817 0.000000
O O8 0.440966 0.071979 0.210327
O O9 0.348100 0.114469 0.298091
O O10 0.365775 0.000000 0.277276
O O11 0.000000 0.049890 0.426644
O O12 0.138210 0.746001 0.500000
O O13 0.174626 0.719006 0.352460
O O14 0.250000 0.666341 0.750000
#
# Coordination Sequence:
#
# PCOD9512546 Si02
#       7
#    16  32  32  16  32  32   4
#     4  10  20  35  58  88 119 138 177 239 299 334
#     4  10  21  36  60  85 112 150 194 241 283 341
#     4  11  24  39  57  83 118 152 190 237 290 340
#     4  12  22  39  57  90 114 151 189 232 291 345
#     4  10  20  37  61  86 115 148 189 241 291 346
#     4  10  23  39  56  80 118 159 195 230 279 345
#     4  12  24  32  76  80 120 160 198 236 286 374
#
# _framework density 19.353629000000002
#
# number of rings (size 3 to 8) (size 9 to 14) (size 15 to 20)
#    0.000    1.561    3.415    1.171    1.366   11.707 
#    0.000    0.976    0.000    1.756    0.000    0.000 
#    0.000    8.585    0.000    0.000    0.000    0.000 
#
# Total GULP energy -228837.071787 kJ/mol
# GULP energy per Si atom -5581.391995 kJ/mol
# Density = 1.930958 g / cm^3
# Si number density = 19.353629 Si / 1000 Ang^3
#
#
#
# Elastic Constant Matrix: (Units=GPa)
#
#
# Indices 1 2 3 4 5 6 
#
# 1 102.2386 18.1656 12.3026 0.0000 0.0000 0.0000
# 2 18.1656 58.0487 8.5765 0.0000 0.0000 0.0000
# 3 12.3026 8.5765 26.3550 0.0000 0.0000 0.0000
# 4 0.0000 0.0000 0.0000 12.6622 0.0000 0.0000
# 5 0.0000 0.0000 0.0000 0.0000 19.5162 0.0000
# 6 0.0000 0.0000 0.0000 0.0000 0.0000 -22.8767
#
#
#
# Elastic Compliance Matrix: (Units=1/GPa)
#
#
# Indices 1 2 3 4 5 6 
#
# 1 0.010768 -0.002760 -0.004129 0.000000 0.000000 0.000000
# 2 -0.002760 0.018804 -0.004831 0.000000 0.000000 0.000000
# 3 -0.004129 -0.004831 0.041443 0.000000 0.000000 0.000000
# 4 0.000000 0.000000 0.000000 0.078975 0.000000 0.000000
# 5 0.000000 0.000000 0.000000 0.000000 0.051239 0.000000
# 6 0.000000 0.000000 0.000000 0.000000 0.000000 -0.043713
#
#
# Mechanical properties :
#
#
# Convention : Reuss Voigt Hill
#
# Bulk Modulus (GPa) = 21.01876 29.41462 25.21669
# Shear Modulus (GPa) = 25.40462 11.70020 18.55241
#
# Velocity S-wave (km/s) = 3.62699 2.46142 3.09949
# Velocity P-wave (km/s) = 5.33142 4.82801 5.08594
#
# Compressibility (1/GPa) = 0.04757654
#
# Stress axis : x y z
#
# Youngs Moduli (GPa) = 92.86617 53.17923 24.12968
#
# Poissons Ratio (x) = 0.14676 0.09962
# Poissons Ratio (y) = 0.25629 0.11657
# Poissons Ratio (z) = 0.38340 0.25691
#
# Static dielectric constant tensor:
#      x y z
#    x 1.709840 0.000000 0.000000 
#    y 0.000000 1.656340 0.000000 
#    z 0.000000 0.000000 1.687290 
# 
# From -- ./inp_files/25858.got.cif
#   From: 2010.05.17/outbox.cif.g08.bks.cpg/sg69_13_cif.got.tgz:25858.got - 2010.06.03 19:29:58.
