data_PCOD9512810
_publ_section_title
;
Structure prediction by ZEFSAII (Michael W. Deem and Ramdas Pophale) SiO2 
 PCOD9512810
Probable space group: F M M M
;
_chemical_formula_sum "Si O2"
_cell_formula_units_Z 160
_cell_length_a 20.640905
_cell_length_b 25.190221
_cell_length_c 16.071514
_cell_angle_alpha 90.000000
_cell_angle_beta 90.000000
_cell_angle_gamma 90.000000
_cell_volume 8356.366967
_symmetry_space_group_name_H-M "F M M M"
_symmetry_group_IT_number 69
_symmetry_cell_setting 'orthorhombic'
loop_
_space_group_symop_operation_xyz
x,y,z
-x,-y,z
x,-y,-z
-x,y,-z
-x,-y,-z
x,y,-z
-x,y,z
x,-y,z
x,1/2+y,1/2+z
-x,1/2-y,1/2+z
x,1/2-y,1/2-z
-x,1/2+y,1/2-z
-x,1/2-y,1/2-z
x,1/2+y,1/2-z
-x,1/2+y,1/2+z
x,1/2-y,1/2+z
1/2+x,y,1/2+z
1/2-x,-y,1/2+z
1/2+x,-y,1/2-z
1/2-x,y,1/2-z
1/2-x,-y,1/2-z
1/2+x,y,1/2-z
1/2-x,y,1/2+z
1/2+x,-y,1/2+z
1/2+x,1/2+y,z
1/2-x,1/2-y,z
1/2+x,1/2-y,-z
1/2-x,1/2+y,-z
1/2-x,1/2-y,-z
1/2+x,1/2+y,-z
1/2-x,1/2+y,z
1/2+x,1/2-y,z
loop_
_atom_site_type_symbol
_atom_site_label
_atom_site_fract_x
_atom_site_fract_y
_atom_site_fract_z
Si Si1 0.780775 0.601452 0.900588
Si Si2 0.317077 0.500000 0.300933
Si Si3 0.925282 0.219839 0.838989
Si Si4 0.691128 0.215869 0.902666
Si Si5 0.575754 0.000000 0.660150
Si Si6 0.373191 0.611270 0.097573
O O1 0.813734 0.552297 0.856474
O O2 0.810347 0.656663 0.868107
O O3 0.703406 0.604116 0.884700
O O4 0.788870 0.595907 0.000000
O O5 0.250000 0.500000 0.250000
O O6 0.378072 0.500000 0.240451
O O7 0.920588 0.250000 0.750000
O O8 0.874767 0.252339 0.894475
O O9 0.902728 0.158419 0.846127
O O10 0.000000 0.222657 0.865704
O O11 0.750000 0.250000 0.865074
O O12 0.706965 0.208440 0.000000
O O13 0.593466 0.945707 0.611747
O O14 0.500000 0.000000 0.679867
O O15 0.379754 0.626682 0.000000
#
# Coordination Sequence:
#
# PCOD9512810 Si02
#       6
#    32  16  32  32  16  32
#     4  10  21  39  65  93 122 157 210 266 309 366
#     4  12  23  39  63  91 125 166 206 252 318 371
#     4  11  25  40  58  89 129 167 204 249 305 370
#     4  10  20  38  62  88 118 156 203 254 306 363
#     4  12  27  42  61  96 133 164 204 257 313 379
#     4  11  22  42  68  93 125 165 206 258 321 378
#
# _framework density 19.147076999999999
#
# number of rings (size 3 to 8) (size 9 to 14) (size 15 to 20)
#    0.000    1.200    4.000    1.800    2.800    5.200 
#    0.000    0.000    0.000    2.400    0.000    0.000 
#    0.000    0.000    0.000    0.000    0.000    0.000 
#
# Total GULP energy -223395.028919 kJ/mol
# GULP energy per Si atom -5584.875723 kJ/mol
# Density = 1.910350 g / cm^3
# Si number density = 19.147077 Si / 1000 Ang^3
#
#
#
# Elastic Constant Matrix: (Units=GPa)
#
#
# Indices 1 2 3 4 5 6 
#
# 1 76.9673 34.1520 23.1821 0.0000 0.0000 0.0000
# 2 34.1520 170.3766 32.5621 0.0000 0.0000 0.0000
# 3 23.1821 32.5621 39.4830 0.0000 0.0000 0.0000
# 4 0.0000 0.0000 0.0000 13.1497 0.0000 0.0000
# 5 0.0000 0.0000 0.0000 0.0000 33.3062 0.0000
# 6 0.0000 0.0000 0.0000 0.0000 0.0000 21.8864
#
#
#
# Elastic Compliance Matrix: (Units=1/GPa)
#
#
# Indices 1 2 3 4 5 6 
#
# 1 0.016186 -0.001695 -0.008105 0.000000 0.000000 0.000000
# 2 -0.001695 0.007145 -0.004897 0.000000 0.000000 0.000000
# 3 -0.008105 -0.004897 0.034125 0.000000 0.000000 0.000000
# 4 0.000000 0.000000 0.000000 0.076047 0.000000 0.000000
# 5 0.000000 0.000000 0.000000 0.000000 0.030024 0.000000
# 6 0.000000 0.000000 0.000000 0.000000 0.000000 0.045690
#
#
# Mechanical properties :
#
#
# Convention : Reuss Voigt Hill
#
# Bulk Modulus (GPa) = 35.63732 51.84658 43.74195
# Shear Modulus (GPa) = 20.16389 26.79718 23.48054
#
# Velocity S-wave (km/s) = 3.24868 3.74511 3.50569
# Velocity P-wave (km/s) = 5.72055 6.77037 6.26748
#
# Compressibility (1/GPa) = 0.02806047
#
# Stress axis : x y z
#
# Youngs Moduli (GPa) = 61.78141 139.95511 29.30391
#
# Poissons Ratio (x) = 0.23728 0.23752
# Poissons Ratio (y) = 0.10475 0.14351
# Poissons Ratio (z) = 0.50076 0.68539
#
# Static dielectric constant tensor:
#      x y z
#    x 1.625190 0.000000 0.000000 
#    y 0.000000 1.694810 0.000000 
#    z 0.000000 0.000000 1.688600 
# 
# From -- ./inp_files/24938.got.cif
#   From: 2010.05.17/outbox.cif.g08.bks.cpg/sg69_13_cif.got.tgz:24938.got - 2010.06.03 19:29:58.
