data_PCOD9512390
_publ_section_title
;
Structure prediction by ZEFSAII (Michael W. Deem and Ramdas Pophale) SiO2 
 PCOD9512390
Probable space group: F M M M
;
_chemical_formula_sum "Si O2"
_cell_formula_units_Z 152
_cell_length_a 30.055663
_cell_length_b 13.053591
_cell_length_c 23.532879
_cell_angle_alpha 90.000000
_cell_angle_beta 90.000000
_cell_angle_gamma 90.000000
_cell_volume 9232.756363
_symmetry_space_group_name_H-M "F M M M"
_symmetry_group_IT_number 69
_symmetry_cell_setting 'orthorhombic'
loop_
_space_group_symop_operation_xyz
x,y,z
-x,-y,z
x,-y,-z
-x,y,-z
-x,-y,-z
x,y,-z
-x,y,z
x,-y,z
x,1/2+y,1/2+z
-x,1/2-y,1/2+z
x,1/2-y,1/2-z
-x,1/2+y,1/2-z
-x,1/2-y,1/2-z
x,1/2+y,1/2-z
-x,1/2+y,1/2+z
x,1/2-y,1/2+z
1/2+x,y,1/2+z
1/2-x,-y,1/2+z
1/2+x,-y,1/2-z
1/2-x,y,1/2-z
1/2-x,-y,1/2-z
1/2+x,y,1/2-z
1/2-x,y,1/2+z
1/2+x,-y,1/2+z
1/2+x,1/2+y,z
1/2-x,1/2-y,z
1/2+x,1/2-y,-z
1/2-x,1/2+y,-z
1/2-x,1/2-y,-z
1/2+x,1/2+y,-z
1/2-x,1/2+y,z
1/2+x,1/2-y,z
loop_
_atom_site_type_symbol
_atom_site_label
_atom_site_fract_x
_atom_site_fract_y
_atom_site_fract_z
Si Si1 0.322330 0.879789 0.682393
Si Si2 0.895494 0.250000 0.750000
Si Si3 0.623690 0.618225 0.434006
Si Si4 0.551219 0.622954 0.659106
Si Si5 0.250000 0.250000 0.750000
Si Si6 0.800909 0.713523 0.434237
O O1 0.364318 0.818070 0.708372
O O2 0.280624 0.823263 0.711804
O O3 0.315561 0.864422 0.614863
O O4 0.324736 0.000000 0.696372
O O5 0.926162 0.323694 0.787337
O O6 0.610707 0.624334 0.500000
O O7 0.635369 0.500000 0.421197
O O8 0.582619 0.648344 0.394411
O O9 0.666302 0.689743 0.425853
O O10 0.500000 0.654579 0.651487
O O11 0.551974 0.500000 0.665660
O O12 0.805546 0.678076 0.500000
O O13 0.750000 0.750000 0.426641
#
# Coordination Sequence:
#
# PCOD9512390 Si02
#       6
#    32  16  32  32   8  32
#     4  11  22  36  56  78 104 144 185 219 264 319
#     4  11  21  37  51  76 112 146 172 218 266 320
#     4   9  18  34  55  79 109 141 174 220 275 323
#     4  10  20  34  56  83 107 137 177 221 271 324
#     4  10  22  40  52  78 110 140 172 230 270 314
#     4  10  20  36  54  78 109 142 183 225 266 312
#
# _framework density 16.463121999999998
#
# number of rings (size 3 to 8) (size 9 to 14) (size 15 to 20)
#    0.000    1.895    3.158    1.263    0.000    1.684 
#    0.000    4.211    0.000    0.000    0.000    0.000 
#    0.000    3.368    0.000    0.000    0.000    0.000 
#
# Total GULP energy -211903.465047 kJ/mol
# GULP energy per Si atom -5576.406975 kJ/mol
# Density = 1.642565 g / cm^3
# Si number density = 16.463122 Si / 1000 Ang^3
#
#
#
# Elastic Constant Matrix: (Units=GPa)
#
#
# Indices 1 2 3 4 5 6 
#
# 1 136.4689 40.9264 59.2465 0.0000 0.0000 0.0000
# 2 40.9264 60.8339 39.2686 0.0000 0.0000 0.0000
# 3 59.2465 39.2686 84.1678 0.0000 0.0000 0.0000
# 4 0.0000 0.0000 0.0000 23.0156 0.0000 0.0000
# 5 0.0000 0.0000 0.0000 0.0000 8.7418 0.0000
# 6 0.0000 0.0000 0.0000 0.0000 0.0000 20.7779
#
#
#
# Elastic Compliance Matrix: (Units=1/GPa)
#
#
# Indices 1 2 3 4 5 6 
#
# 1 0.011036 -0.003449 -0.006159 0.000000 0.000000 0.000000
# 2 -0.003449 0.024600 -0.009050 0.000000 0.000000 0.000000
# 3 -0.006159 -0.009050 0.020439 0.000000 0.000000 0.000000
# 4 0.000000 0.000000 0.000000 0.043449 0.000000 0.000000
# 5 0.000000 0.000000 0.000000 0.000000 0.114393 0.000000
# 6 0.000000 0.000000 0.000000 0.000000 0.000000 0.048128
#
#
# Mechanical properties :
#
#
# Convention : Reuss Voigt Hill
#
# Bulk Modulus (GPa) = 53.30648 62.26150 57.78399
# Shear Modulus (GPa) = 16.36059 19.97566 18.16813
#
# Velocity S-wave (km/s) = 3.15583 3.48711 3.32560
# Velocity P-wave (km/s) = 6.76230 7.35623 7.06551
#
# Compressibility (1/GPa) = 0.01875945
#
# Stress axis : x y z
#
# Youngs Moduli (GPa) = 90.61332 40.65077 48.92674
#
# Poissons Ratio (x) = 0.14019 0.30136
# Poissons Ratio (y) = 0.31249 0.44277
# Poissons Ratio (z) = 0.55812 0.36787
#
# Static dielectric constant tensor:
#      x y z
#    x 1.528610 0.000000 0.000000 
#    y 0.000000 1.533310 0.000000 
#    z 0.000000 0.000000 1.568270 
# 
# From -- ./inp_files/38856.got.cif
#   From: 2010.05.17/outbox.cif.g08.bks.cpg/sg69_20_cif.got.tgz:38856.got - 2010.06.03 19:29:58.
