data_PCOD9512510
_publ_section_title
;
Structure prediction by ZEFSAII (Michael W. Deem and Ramdas Pophale) SiO2 
 PCOD9512510
Probable space group: F M M M
;
_chemical_formula_sum "Si O2"
_cell_formula_units_Z 176
_cell_length_a 17.988169
_cell_length_b 28.184229
_cell_length_c 20.840618
_cell_angle_alpha 90.000000
_cell_angle_beta 90.000000
_cell_angle_gamma 90.000000
_cell_volume 10565.832250
_symmetry_space_group_name_H-M "F M M M"
_symmetry_group_IT_number 69
_symmetry_cell_setting 'orthorhombic'
loop_
_space_group_symop_operation_xyz
x,y,z
-x,-y,z
x,-y,-z
-x,y,-z
-x,-y,-z
x,y,-z
-x,y,z
x,-y,z
x,1/2+y,1/2+z
-x,1/2-y,1/2+z
x,1/2-y,1/2-z
-x,1/2+y,1/2-z
-x,1/2-y,1/2-z
x,1/2+y,1/2-z
-x,1/2+y,1/2+z
x,1/2-y,1/2+z
1/2+x,y,1/2+z
1/2-x,-y,1/2+z
1/2+x,-y,1/2-z
1/2-x,y,1/2-z
1/2-x,-y,1/2-z
1/2+x,y,1/2-z
1/2-x,y,1/2+z
1/2+x,-y,1/2+z
1/2+x,1/2+y,z
1/2-x,1/2-y,z
1/2+x,1/2-y,-z
1/2-x,1/2+y,-z
1/2-x,1/2-y,-z
1/2+x,1/2+y,-z
1/2-x,1/2+y,z
1/2+x,1/2-y,z
loop_
_atom_site_type_symbol
_atom_site_label
_atom_site_fract_x
_atom_site_fract_y
_atom_site_fract_z
Si Si1 0.834961 0.268744 0.820187
Si Si2 0.910926 0.205740 0.924719
Si Si3 0.088217 0.556261 0.749719
Si Si4 0.151270 0.894807 0.878530
Si Si5 0.584448 0.943846 0.500000
Si Si6 0.199765 0.621992 0.185437
O O1 0.861437 0.250000 0.750000
O O2 0.750000 0.250000 0.826052
O O3 0.880836 0.247294 0.879064
O O4 0.833530 0.325621 0.822386
O O5 0.878951 0.157628 0.893610
O O6 0.000000 0.204263 0.922950
O O7 0.888388 0.209390 0.000000
O O8 0.104875 0.500000 0.746299
O O9 0.112919 0.582156 0.683975
O O10 0.136876 0.582691 0.803604
O O11 0.000000 0.561840 0.758948
O O12 0.239584 0.891243 0.867893
O O13 0.127242 0.926353 0.937973
O O14 0.500000 0.923786 0.500000
O O15 0.579367 0.000000 0.500000
O O16 0.250000 0.624325 0.250000
#
# Coordination Sequence:
#
# PCOD9512510 Si02
#       6
#    32  32  32  32  16  32
#     4  11  19  36  57  81 111 144 188 231 275 332
#     4  11  23  37  55  82 115 151 189 231 282 341
#     4  10  21  36  56  83 113 147 186 230 284 337
#     4  11  20  34  54  79 111 145 183 224 273 336
#     4  11  22  34  50  73 107 145 179 218 263 326
#     4  10  20  35  57  81 110 142 181 232 280 329
#
# _framework density 16.657468000000001
#
# number of rings (size 3 to 8) (size 9 to 14) (size 15 to 20)
#    0.000    1.364    4.545    3.273    0.000    6.909 
#    1.636    0.000    0.000    0.000    0.000    0.000 
#    0.000    2.182    0.000    0.000    0.000    0.000 
#
# Total GULP energy -245568.315038 kJ/mol
# GULP energy per Si atom -5581.098069 kJ/mol
# Density = 1.661955 g / cm^3
# Si number density = 16.657468 Si / 1000 Ang^3
#
#
#
# Elastic Constant Matrix: (Units=GPa)
#
#
# Indices 1 2 3 4 5 6 
#
# 1 93.5448 66.4422 65.7051 0.0000 0.0000 0.0000
# 2 66.4422 117.1942 50.7821 0.0000 0.0000 0.0000
# 3 65.7051 50.7821 89.9650 0.0000 0.0000 0.0000
# 4 0.0000 0.0000 0.0000 19.7123 0.0000 0.0000
# 5 0.0000 0.0000 0.0000 0.0000 28.4358 0.0000
# 6 0.0000 0.0000 0.0000 0.0000 0.0000 208.7563
#
#
#
# Elastic Compliance Matrix: (Units=1/GPa)
#
#
# Indices 1 2 3 4 5 6 
#
# 1 0.027914 -0.009255 -0.015162 0.000000 0.000000 0.000000
# 2 -0.009255 0.014365 -0.001349 0.000000 0.000000 0.000000
# 3 -0.015162 -0.001349 0.022950 0.000000 0.000000 0.000000
# 4 0.000000 0.000000 0.000000 0.050730 0.000000 0.000000
# 5 0.000000 0.000000 0.000000 0.000000 0.035167 0.000000
# 6 0.000000 0.000000 0.000000 0.000000 0.000000 0.004790
#
#
# Mechanical properties :
#
#
# Convention : Reuss Voigt Hill
#
# Bulk Modulus (GPa) = 73.01402 74.06253 73.53827
# Shear Modulus (GPa) = 23.58342 59.23252 41.40797
#
# Velocity S-wave (km/s) = 3.76678 5.96962 4.99124
# Velocity P-wave (km/s) = 7.92754 9.59550 8.80112
#
# Compressibility (1/GPa) = 0.01369600
#
# Stress axis : x y z
#
# Youngs Moduli (GPa) = 35.82459 69.61591 43.57247
#
# Poissons Ratio (x) = 0.64433 0.66065
# Poissons Ratio (y) = 0.33157 0.05876
# Poissons Ratio (z) = 0.54318 0.09389
#
# Static dielectric constant tensor:
#      x y z
#    x 1.559970 0.000000 0.000000 
#    y 0.000000 1.564570 0.000000 
#    z 0.000000 0.000000 1.466620 
# 
# From -- ./inp_files/23602.got.cif
#   From: 2010.05.17/outbox.cif.g08.bks.cpg/sg69_12_cif.got.tgz:23602.got - 2010.06.03 19:29:58.
