data_PCOD9512411
_publ_section_title
;
Structure prediction by ZEFSAII (Michael W. Deem and Ramdas Pophale) SiO2 
 PCOD9512411
Probable space group: F M M M
;
_chemical_formula_sum "Si O2"
_cell_formula_units_Z 104
_cell_length_a 14.640219
_cell_length_b 13.614195
_cell_length_c 19.357144
_cell_angle_alpha 90.000000
_cell_angle_beta 90.000000
_cell_angle_gamma 90.000000
_cell_volume 3858.165213
_symmetry_space_group_name_H-M "F M M M"
_symmetry_group_IT_number 69
_symmetry_cell_setting 'orthorhombic'
loop_
_space_group_symop_operation_xyz
x,y,z
-x,-y,z
x,-y,-z
-x,y,-z
-x,-y,-z
x,y,-z
-x,y,z
x,-y,z
x,1/2+y,1/2+z
-x,1/2-y,1/2+z
x,1/2-y,1/2-z
-x,1/2+y,1/2-z
-x,1/2-y,1/2-z
x,1/2+y,1/2-z
-x,1/2+y,1/2+z
x,1/2-y,1/2+z
1/2+x,y,1/2+z
1/2-x,-y,1/2+z
1/2+x,-y,1/2-z
1/2-x,y,1/2-z
1/2-x,-y,1/2-z
1/2+x,y,1/2-z
1/2-x,y,1/2+z
1/2+x,-y,1/2+z
1/2+x,1/2+y,z
1/2-x,1/2-y,z
1/2+x,1/2-y,-z
1/2-x,1/2+y,-z
1/2-x,1/2-y,-z
1/2+x,1/2+y,-z
1/2-x,1/2+y,z
1/2+x,1/2-y,z
loop_
_atom_site_type_symbol
_atom_site_label
_atom_site_fract_x
_atom_site_fract_y
_atom_site_fract_z
Si Si1 0.392489 0.820317 0.094482
Si Si2 0.642434 0.390040 0.740862
Si Si3 0.829967 0.000000 0.500000
Si Si4 0.105294 0.393347 0.401126
O O1 0.500000 0.828555 0.075929
O O2 0.389072 0.823834 0.178060
O O3 0.356732 0.711321 0.075473
O O4 0.341508 0.911406 0.059691
O O5 0.624319 0.500000 0.715172
O O6 0.750000 0.375017 0.750000
O O7 0.604376 0.388433 0.817945
O O8 0.147193 0.500000 0.421377
O O9 0.000000 0.395633 0.423440
#
# Coordination Sequence:
#
# PCOD9512411 Si02
#       4
#    32  32   8  32
#     4  11  21  36  59  87 122 158 196 242 289 349
#     4  10  20  34  57  91 122 155 190 245 306 356
#     4  12  25  40  60  88 118 158 205 240 283 348
#     4   9  19  35  56  85 118 152 192 243 302 353
#
# _framework density 26.955819000000002
#
# number of rings (size 3 to 8) (size 9 to 14) (size 15 to 20)
#    0.000    1.846    1.538    3.231    0.000    6.154 
#    0.000    0.769    0.000    7.385    0.000    0.000 
#    0.000    0.000    0.000    0.154    0.000    0.000 
#
# Total GULP energy -144966.357836 kJ/mol
# GULP energy per Si atom -5575.629148 kJ/mol
# Density = 2.689447 g / cm^3
# Si number density = 26.955819 Si / 1000 Ang^3
#
#
#
# Elastic Constant Matrix: (Units=GPa)
#
#
# Indices 1 2 3 4 5 6 
#
# 1 64.4647 28.9722 -14.1112 0.0000 0.0000 0.0000
# 2 28.9722 318.8888 30.4402 0.0000 0.0000 0.0000
# 3 -14.1112 30.4402 209.1120 0.0000 0.0000 0.0000
# 4 0.0000 0.0000 0.0000 284.1840 0.0000 0.0000
# 5 0.0000 0.0000 0.0000 0.0000 -96.0408 0.0000
# 6 0.0000 0.0000 0.0000 0.0000 0.0000 23.0844
#
#
#
# Elastic Compliance Matrix: (Units=1/GPa)
#
#
# Indices 1 2 3 4 5 6 
#
# 1 0.016542 -0.001632 0.001354 0.000000 0.000000 0.000000
# 2 -0.001632 0.003341 -0.000597 0.000000 0.000000 0.000000
# 3 0.001354 -0.000597 0.004960 0.000000 0.000000 0.000000
# 4 0.000000 0.000000 0.000000 0.003519 0.000000 0.000000
# 5 0.000000 0.000000 0.000000 0.000000 -0.010412 0.000000
# 6 0.000000 0.000000 0.000000 0.000000 0.000000 0.043319
#
#
# Mechanical properties :
#
#
# Convention : Reuss Voigt Hill
#
# Bulk Modulus (GPa) = 43.30099 75.89641 59.59870
# Shear Modulus (GPa) = 70.70414 78.72314 74.71364
#
# Velocity S-wave (km/s) = 5.12704 5.40998 5.27041
# Velocity P-wave (km/s) = 7.15174 8.20005 7.69377
#
# Compressibility (1/GPa) = 0.02309416
#
# Stress axis : x y z
#
# Youngs Moduli (GPa) = 60.45120 299.30113 201.59987
#
# Poissons Ratio (x) = 0.48851 -0.27294
# Poissons Ratio (y) = 0.09867 0.12025
# Poissons Ratio (z) = -0.08184 0.17853
#
# Static dielectric constant tensor:
#      x y z
#    x 2.010820 0.000000 0.000000 
#    y 0.000000 2.110540 0.000000 
#    z 0.000000 0.000000 2.049890 
# 
# From -- ./inp_files/16180.got.cif
#   From: 2010.05.17/outbox.cif.g08.bks.cpg/sg69_9_cif.got.tgz:16180.got - 2010.06.03 19:29:58.
