data_PCOD9512474
_publ_section_title
;
Structure prediction by ZEFSAII (Michael W. Deem and Ramdas Pophale) SiO2 
 PCOD9512474
Probable space group: F M M M
;
_chemical_formula_sum "Si O2"
_cell_formula_units_Z 160
_cell_length_a 24.075822
_cell_length_b 27.244962
_cell_length_c 14.141720
_cell_angle_alpha 90.000000
_cell_angle_beta 90.000000
_cell_angle_gamma 90.000000
_cell_volume 9276.188482
_symmetry_space_group_name_H-M "F M M M"
_symmetry_group_IT_number 69
_symmetry_cell_setting 'orthorhombic'
loop_
_space_group_symop_operation_xyz
x,y,z
-x,-y,z
x,-y,-z
-x,y,-z
-x,-y,-z
x,y,-z
-x,y,z
x,-y,z
x,1/2+y,1/2+z
-x,1/2-y,1/2+z
x,1/2-y,1/2-z
-x,1/2+y,1/2-z
-x,1/2-y,1/2-z
x,1/2+y,1/2-z
-x,1/2+y,1/2+z
x,1/2-y,1/2+z
1/2+x,y,1/2+z
1/2-x,-y,1/2+z
1/2+x,-y,1/2-z
1/2-x,y,1/2-z
1/2-x,-y,1/2-z
1/2+x,y,1/2-z
1/2-x,y,1/2+z
1/2+x,-y,1/2+z
1/2+x,1/2+y,z
1/2-x,1/2-y,z
1/2+x,1/2-y,-z
1/2-x,1/2+y,-z
1/2-x,1/2-y,-z
1/2+x,1/2+y,-z
1/2-x,1/2+y,z
1/2+x,1/2-y,z
loop_
_atom_site_type_symbol
_atom_site_label
_atom_site_fract_x
_atom_site_fract_y
_atom_site_fract_z
Si Si1 0.809651 0.274313 0.610857
Si Si2 0.500000 0.193094 0.778572
Si Si3 0.315030 0.871179 0.736237
Si Si4 0.114330 0.557981 0.609772
Si Si5 0.500000 0.882760 0.608099
Si Si6 0.114539 0.679447 0.111663
O O1 0.807810 0.288200 0.500000
O O2 0.750000 0.250000 0.634387
O O3 0.820867 0.321544 0.673857
O O4 0.855869 0.232522 0.623369
O O5 0.500000 0.250000 0.750000
O O6 0.500000 0.160345 0.684120
O O7 0.445141 0.181147 0.838967
O O8 0.250000 0.880006 0.750000
O O9 0.343963 0.914953 0.679919
O O10 0.346406 0.859224 0.833918
O O11 0.131557 0.564922 0.500000
O O12 0.110167 0.500000 0.627460
O O13 0.054522 0.583895 0.620209
O O14 0.500000 0.863589 0.500000
O O15 0.110778 0.669581 0.000000
#
# Coordination Sequence:
#
# PCOD9512474 Si02
#       6
#    32  16  32  32  16  32
#     4  10  20  35  55  83 119 157 198 239 281 344
#     4  12  23  40  59  86 126 163 190 237 291 352
#     4  12  22  35  60  87 120 156 200 243 292 349
#     4  10  22  41  64  90 116 145 191 253 314 359
#     4  10  21  39  66  93 114 148 195 246 300 359
#     4  11  24  38  55  84 122 165 204 238 281 346
#
# _framework density 17.248463999999998
#
# number of rings (size 3 to 8) (size 9 to 14) (size 15 to 20)
#    0.000    1.200    4.000    3.000    0.000    3.200 
#    0.000    0.000    0.000    0.600    0.000    1.400 
#    0.000    0.000    0.000    0.000    0.000    0.000 
#
# Total GULP energy -223645.510198 kJ/mol
# GULP energy per Si atom -5591.137755 kJ/mol
# Density = 1.720921 g / cm^3
# Si number density = 17.248464 Si / 1000 Ang^3
#
#
#
# Elastic Constant Matrix: (Units=GPa)
#
#
# Indices 1 2 3 4 5 6 
#
# 1 145.9011 46.1698 81.6329 0.0000 0.0000 0.0000
# 2 46.1698 103.0588 84.0547 0.0000 0.0000 0.0000
# 3 81.6329 84.0547 148.5213 0.0000 0.0000 0.0000
# 4 0.0000 0.0000 0.0000 26.0669 0.0000 0.0000
# 5 0.0000 0.0000 0.0000 0.0000 22.8675 0.0000
# 6 0.0000 0.0000 0.0000 0.0000 0.0000 13.6707
#
#
#
# Elastic Compliance Matrix: (Units=1/GPa)
#
#
# Indices 1 2 3 4 5 6 
#
# 1 0.009898 0.000005 -0.005443 0.000000 0.000000 0.000000
# 2 0.000005 0.018022 -0.010202 0.000000 0.000000 0.000000
# 3 -0.005443 -0.010202 0.015499 0.000000 0.000000 0.000000
# 4 0.000000 0.000000 0.000000 0.038363 0.000000 0.000000
# 5 0.000000 0.000000 0.000000 0.000000 0.043730 0.000000
# 6 0.000000 0.000000 0.000000 0.000000 0.000000 0.073149
#
#
# Mechanical properties :
#
#
# Convention : Reuss Voigt Hill
#
# Bulk Modulus (GPa) = 82.38566 91.24399 86.81482
# Shear Modulus (GPa) = 21.36875 24.89595 23.13235
#
# Velocity S-wave (km/s) = 3.52359 3.80329 3.66611
# Velocity P-wave (km/s) = 8.02633 8.50302 8.26811
#
# Compressibility (1/GPa) = 0.01213804
#
# Stress axis : x y z
#
# Youngs Moduli (GPa) = 101.03261 55.48862 64.52152
#
# Poissons Ratio (x) = -0.00030 0.35120
# Poissons Ratio (y) = -0.00054 0.65826
# Poissons Ratio (z) = 0.54994 0.56611
#
# Static dielectric constant tensor:
#      x y z
#    x 1.583610 0.000000 0.000000 
#    y 0.000000 1.544070 0.000000 
#    z 0.000000 0.000000 1.592060 
# 
# From -- ./inp_files/17754.got.cif
#   From: 2010.05.17/outbox.cif.g08.bks.cpg/sg69_9_cif.got.tgz:17754.got - 2010.06.03 19:29:58.
