data_PCOD9512938
_publ_section_title
;
Structure prediction by ZEFSAII (Michael W. Deem and Ramdas Pophale) SiO2 
 PCOD9512938
Probable space group: F M M M
;
_chemical_formula_sum "Si O2"
_cell_formula_units_Z 96
_cell_length_a 13.921560
_cell_length_b 27.450474
_cell_length_c 13.318616
_cell_angle_alpha 90.000000
_cell_angle_beta 90.000000
_cell_angle_gamma 90.000000
_cell_volume 5089.754665
_symmetry_space_group_name_H-M "F M M M"
_symmetry_group_IT_number 69
_symmetry_cell_setting 'orthorhombic'
loop_
_space_group_symop_operation_xyz
x,y,z
-x,-y,z
x,-y,-z
-x,y,-z
-x,-y,-z
x,y,-z
-x,y,z
x,-y,z
x,1/2+y,1/2+z
-x,1/2-y,1/2+z
x,1/2-y,1/2-z
-x,1/2+y,1/2-z
-x,1/2-y,1/2-z
x,1/2+y,1/2-z
-x,1/2+y,1/2+z
x,1/2-y,1/2+z
1/2+x,y,1/2+z
1/2-x,-y,1/2+z
1/2+x,-y,1/2-z
1/2-x,y,1/2-z
1/2-x,-y,1/2-z
1/2+x,y,1/2-z
1/2-x,y,1/2+z
1/2+x,-y,1/2+z
1/2+x,1/2+y,z
1/2-x,1/2-y,z
1/2+x,1/2-y,-z
1/2-x,1/2+y,-z
1/2-x,1/2-y,-z
1/2+x,1/2+y,-z
1/2-x,1/2+y,z
1/2+x,1/2-y,z
loop_
_atom_site_type_symbol
_atom_site_label
_atom_site_fract_x
_atom_site_fract_y
_atom_site_fract_z
Si Si1 0.116997 0.555886 0.702713
Si Si2 0.614897 0.611541 0.000000
Si Si3 0.386851 0.622169 0.388725
Si Si4 0.734566 0.692955 0.500000
O O1 0.148713 0.500000 0.706222
O O2 0.144429 0.581992 0.599231
O O3 0.145781 0.587547 0.799297
O O4 0.000000 0.555043 0.703954
O O5 0.500000 0.616316 0.000000
O O6 0.666309 0.663393 0.000000
O O7 0.377632 0.598077 0.500000
O O8 0.500000 0.633151 0.374277
O O9 0.326304 0.671542 0.405337
O O10 0.750000 0.750000 0.500000
#
# Coordination Sequence:
#
# PCOD9512938 Si02
#       4
#    32  16  32  16
#     4   9  17  33  57  81 111 148 175 210 266 323
#     4  10  21  35  52  80 114 144 180 215 257 328
#     4   8  17  35  57  80 107 133 177 229 265 312
#     4  10  21  38  57  76 104 143 179 230 281 317
#
# _framework density 18.861419999999999
#
# number of rings (size 3 to 8) (size 9 to 14) (size 15 to 20)
#    1.000    2.000    0.000    0.500    0.000    5.333 
#    0.000   11.667    0.000    6.000    0.000    0.000 
#    0.000    0.000    0.000    0.000    0.000    0.000 
#
# Total GULP energy -133711.736349 kJ/mol
# GULP energy per Si atom -5571.322348 kJ/mol
# Density = 1.881849 g / cm^3
# Si number density = 18.861420 Si / 1000 Ang^3
#
#
#
# Elastic Constant Matrix: (Units=GPa)
#
#
# Indices 1 2 3 4 5 6 
#
# 1 82.6548 53.3222 46.5918 0.0000 0.0000 0.0000
# 2 53.3222 208.7562 107.2671 0.0000 0.0000 0.0000
# 3 46.5918 107.2671 150.5564 0.0000 0.0000 0.0000
# 4 0.0000 0.0000 0.0000 54.8172 0.0000 0.0000
# 5 0.0000 0.0000 0.0000 0.0000 18.7009 0.0000
# 6 0.0000 0.0000 0.0000 0.0000 0.0000 29.0025
#
#
#
# Elastic Compliance Matrix: (Units=1/GPa)
#
#
# Indices 1 2 3 4 5 6 
#
# 1 0.015343 -0.002334 -0.003086 0.000000 0.000000 0.000000
# 2 -0.002334 0.007912 -0.004915 0.000000 0.000000 0.000000
# 3 -0.003086 -0.004915 0.011098 0.000000 0.000000 0.000000
# 4 0.000000 0.000000 0.000000 0.018242 0.000000 0.000000
# 5 0.000000 0.000000 0.000000 0.000000 0.053473 0.000000
# 6 0.000000 0.000000 0.000000 0.000000 0.000000 0.034480
#
#
# Mechanical properties :
#
#
# Convention : Reuss Voigt Hill
#
# Bulk Modulus (GPa) = 73.06883 95.14772 84.10828
# Shear Modulus (GPa) = 30.16070 36.15654 33.15862
#
# Velocity S-wave (km/s) = 4.00317 4.38306 4.19742
# Velocity P-wave (km/s) = 7.75829 8.72755 8.25716
#
# Compressibility (1/GPa) = 0.01368573
#
# Stress axis : x y z
#
# Youngs Moduli (GPa) = 65.17512 126.39477 90.10244
#
# Poissons Ratio (x) = 0.29496 0.27801
# Poissons Ratio (y) = 0.15209 0.44283
# Poissons Ratio (z) = 0.20110 0.62119
#
# Static dielectric constant tensor:
#      x y z
#    x 1.732500 0.000000 0.000000 
#    y 0.000000 1.589370 0.000000 
#    z 0.000000 0.000000 1.656320 
# 
# From -- ./inp_files/11871.got.cif
#   From: 2010.05.17/outbox.cif.g08.bks.cpg/sg69_6_cif.got.tgz:11871.got - 2010.06.03 19:29:58.
