data_PCOD9512511
_publ_section_title
;
Structure prediction by ZEFSAII (Michael W. Deem and Ramdas Pophale) SiO2 
 PCOD9512511
Probable space group: F M M M
;
_chemical_formula_sum "Si O2"
_cell_formula_units_Z 192
_cell_length_a 25.024837
_cell_length_b 21.105972
_cell_length_c 18.955729
_cell_angle_alpha 90.000000
_cell_angle_beta 90.000000
_cell_angle_gamma 90.000000
_cell_volume 10011.913902
_symmetry_space_group_name_H-M "F M M M"
_symmetry_group_IT_number 69
_symmetry_cell_setting 'orthorhombic'
loop_
_space_group_symop_operation_xyz
x,y,z
-x,-y,z
x,-y,-z
-x,y,-z
-x,-y,-z
x,y,-z
-x,y,z
x,-y,z
x,1/2+y,1/2+z
-x,1/2-y,1/2+z
x,1/2-y,1/2-z
-x,1/2+y,1/2-z
-x,1/2-y,1/2-z
x,1/2+y,1/2-z
-x,1/2+y,1/2+z
x,1/2-y,1/2+z
1/2+x,y,1/2+z
1/2-x,-y,1/2+z
1/2+x,-y,1/2-z
1/2-x,y,1/2-z
1/2-x,-y,1/2-z
1/2+x,y,1/2-z
1/2-x,y,1/2+z
1/2+x,-y,1/2+z
1/2+x,1/2+y,z
1/2-x,1/2-y,z
1/2+x,1/2-y,-z
1/2-x,1/2+y,-z
1/2-x,1/2-y,-z
1/2+x,1/2+y,-z
1/2-x,1/2+y,z
1/2+x,1/2-y,z
loop_
_atom_site_type_symbol
_atom_site_label
_atom_site_fract_x
_atom_site_fract_y
_atom_site_fract_z
Si Si1 0.560503 0.682916 0.580272
Si Si2 0.702378 0.697562 0.174796
Si Si3 0.396005 0.815837 0.580444
Si Si4 0.259033 0.931426 0.165691
Si Si5 0.363087 0.629711 0.299462
Si Si6 0.563093 0.926545 0.678959
O O1 0.577665 0.665370 0.500000
O O2 0.500000 0.659959 0.591082
O O3 0.561508 0.759214 0.582390
O O4 0.598914 0.660395 0.642485
O O5 0.750000 0.750000 0.176047
O O6 0.655020 0.712678 0.121447
O O7 0.726362 0.630980 0.145800
O O8 0.672667 0.677787 0.249430
O O9 0.382257 0.829909 0.500000
O O10 0.417791 0.877693 0.619368
O O11 0.250000 0.935730 0.250000
O O12 0.321122 0.914707 0.160163
O O13 0.244610 0.000000 0.134837
O O14 0.400049 0.590820 0.245635
O O15 0.500000 0.917181 0.693625
O O16 0.571102 0.000000 0.659597
#
# Coordination Sequence:
#
# PCOD9512511 Si02
#       6
#    32  32  32  32  32  32
#     4  10  21  37  57  81 111 148 188 232 285 341
#     4  10  21  35  55  83 112 144 186 235 283 333
#     4  10  22  38  55  78 111 149 188 230 276 333
#     4   9  18  32  52  77 107 142 177 219 273 329
#     4  10  20  35  57  82 111 141 184 233 282 335
#     4  10  21  36  56  83 112 144 184 229 280 339
#
# _framework density 19.177153000000001
#
# number of rings (size 3 to 8) (size 9 to 14) (size 15 to 20)
#    0.000    2.167    0.000    2.500    0.000   16.667 
#    0.000    5.833    0.000    3.500    0.000    5.833 
#    0.000    0.000    0.000    0.000    0.000    0.000 
#
# Total GULP energy -267521.293938 kJ/mol
# GULP energy per Si atom -5573.360290 kJ/mol
# Density = 1.913350 g / cm^3
# Si number density = 19.177153 Si / 1000 Ang^3
#
#
#
# Elastic Constant Matrix: (Units=GPa)
#
#
# Indices 1 2 3 4 5 6 
#
# 1 108.4611 33.7537 33.2469 0.0000 0.0000 0.0000
# 2 33.7537 78.8419 15.5154 0.0000 0.0000 0.0000
# 3 33.2469 15.5154 62.1059 0.0000 0.0000 0.0000
# 4 0.0000 0.0000 0.0000 8.2677 0.0000 0.0000
# 5 0.0000 0.0000 0.0000 0.0000 14.2559 0.0000
# 6 0.0000 0.0000 0.0000 0.0000 0.0000 12.8046
#
#
#
# Elastic Compliance Matrix: (Units=1/GPa)
#
#
# Indices 1 2 3 4 5 6 
#
# 1 0.012191 -0.004139 -0.005493 0.000000 0.000000 0.000000
# 2 -0.004139 0.014744 -0.001468 0.000000 0.000000 0.000000
# 3 -0.005493 -0.001468 0.019409 0.000000 0.000000 0.000000
# 4 0.000000 0.000000 0.000000 0.120952 0.000000 0.000000
# 5 0.000000 0.000000 0.000000 0.000000 0.070146 0.000000
# 6 0.000000 0.000000 0.000000 0.000000 0.000000 0.078097
#
#
# Mechanical properties :
#
#
# Convention : Reuss Voigt Hill
#
# Bulk Modulus (GPa) = 41.41427 46.04899 43.73163
# Shear Modulus (GPa) = 14.45977 18.19183 16.32580
#
# Velocity S-wave (km/s) = 2.74890 3.08331 2.92090
# Velocity P-wave (km/s) = 5.63186 6.06138 5.85056
#
# Compressibility (1/GPa) = 0.02414627
#
# Stress axis : x y z
#
# Youngs Moduli (GPa) = 82.02460 67.82291 51.52366
#
# Poissons Ratio (x) = 0.28069 0.28299
# Poissons Ratio (y) = 0.33946 0.07564
# Poissons Ratio (z) = 0.45052 0.09956
#
# Static dielectric constant tensor:
#      x y z
#    x 1.689620 0.000000 0.000000 
#    y 0.000000 1.727480 0.000000 
#    z 0.000000 0.000000 1.654010 
# 
# From -- ./inp_files/32813.got.cif
#   From: 2010.05.17/outbox.cif.g08.bks.cpg/sg69_17_cif.got.tgz:32813.got - 2010.06.03 19:29:58.
