data_PCOD9512545
_publ_section_title
;
Structure prediction by ZEFSAII (Michael W. Deem and Ramdas Pophale) SiO2 
 PCOD9512545
Probable space group: F M M M
;
_chemical_formula_sum "Si O2"
_cell_formula_units_Z 160
_cell_length_a 24.785742
_cell_length_b 24.638529
_cell_length_c 15.019105
_cell_angle_alpha 90.000000
_cell_angle_beta 90.000000
_cell_angle_gamma 90.000000
_cell_volume 9171.930468
_symmetry_space_group_name_H-M "F M M M"
_symmetry_group_IT_number 69
_symmetry_cell_setting 'orthorhombic'
loop_
_space_group_symop_operation_xyz
x,y,z
-x,-y,z
x,-y,-z
-x,y,-z
-x,-y,-z
x,y,-z
-x,y,z
x,-y,z
x,1/2+y,1/2+z
-x,1/2-y,1/2+z
x,1/2-y,1/2-z
-x,1/2+y,1/2-z
-x,1/2-y,1/2-z
x,1/2+y,1/2-z
-x,1/2+y,1/2+z
x,1/2-y,1/2+z
1/2+x,y,1/2+z
1/2-x,-y,1/2+z
1/2+x,-y,1/2-z
1/2-x,y,1/2-z
1/2-x,-y,1/2-z
1/2+x,y,1/2-z
1/2-x,y,1/2+z
1/2+x,-y,1/2+z
1/2+x,1/2+y,z
1/2-x,1/2-y,z
1/2+x,1/2-y,-z
1/2-x,1/2+y,-z
1/2-x,1/2-y,-z
1/2+x,1/2+y,-z
1/2-x,1/2+y,z
1/2+x,1/2-y,z
loop_
_atom_site_type_symbol
_atom_site_label
_atom_site_fract_x
_atom_site_fract_y
_atom_site_fract_z
Si Si1 0.374768 0.764127 0.500000
Si Si2 0.000000 0.564284 0.100945
Si Si3 0.387039 0.607433 0.670154
Si Si4 0.300102 0.371505 0.000000
Si Si5 0.303011 0.565130 0.188837
Si Si6 0.059761 0.221379 0.657052
Si Si7 0.674169 0.641561 0.500000
O O1 0.336998 0.817043 0.500000
O O2 0.412670 0.760922 0.413650
O O3 0.346571 0.704157 0.500000
O O4 0.944514 0.580150 0.149322
O O5 0.000000 0.500000 0.093861
O O6 0.000000 0.587639 0.000000
O O7 0.354752 0.582797 0.752512
O O8 0.402628 0.670353 0.677353
O O9 0.348181 0.608143 0.584281
O O10 0.306580 0.405688 0.907763
O O11 0.237821 0.354708 0.000000
O O12 0.301766 0.500000 0.176693
O O13 0.250000 0.579705 0.250000
O O14 0.053713 0.250000 0.750000
O O15 0.000000 0.203894 0.624596
#
# Coordination Sequence:
#
# PCOD9512545 Si02
#       7
#    16  16  32  16  32  32  16
#     4  10  22  35  59  86 123 155 193 240 306 361
#     4  11  22  34  57  91 121 155 194 244 309 366
#     4  11  20  39  59  90 125 157 191 251 309 360
#     4  12  22  43  60  85 118 164 208 251 298 359
#     4  11  24  40  62  87 119 165 210 254 302 354
#     4  10  20  35  58  88 117 153 197 240 296 361
#     4  10  21  35  61  88 123 153 197 245 303 376
#
# _framework density 17.444527999999998
#
# number of rings (size 3 to 8) (size 9 to 14) (size 15 to 20)
#    0.000    1.300    4.000    2.700    0.000    0.000 
#    0.000    0.000    0.000    0.000    0.000    2.100 
#    0.000    0.000    0.000    0.000    0.000    0.000 
#
# Total GULP energy -222928.319804 kJ/mol
# GULP energy per Si atom -5573.207995 kJ/mol
# Density = 1.740482 g / cm^3
# Si number density = 17.444528 Si / 1000 Ang^3
#
#
#
# Elastic Constant Matrix: (Units=GPa)
#
#
# Indices 1 2 3 4 5 6 
#
# 1 122.0035 28.9434 66.7354 0.0000 0.0000 0.0000
# 2 28.9434 61.2128 50.1036 0.0000 0.0000 0.0000
# 3 66.7354 50.1036 150.5367 0.0000 0.0000 0.0000
# 4 0.0000 0.0000 0.0000 27.5107 0.0000 0.0000
# 5 0.0000 0.0000 0.0000 0.0000 30.8865 0.0000
# 6 0.0000 0.0000 0.0000 0.0000 0.0000 -1.2512
#
#
#
# Elastic Compliance Matrix: (Units=1/GPa)
#
#
# Indices 1 2 3 4 5 6 
#
# 1 0.010941 -0.001654 -0.004300 0.000000 0.000000 0.000000
# 2 -0.001654 0.022703 -0.006823 0.000000 0.000000 0.000000
# 3 -0.004300 -0.006823 0.010820 0.000000 0.000000 0.000000
# 4 0.000000 0.000000 0.000000 0.036350 0.000000 0.000000
# 5 0.000000 0.000000 0.000000 0.000000 0.032377 0.000000
# 6 0.000000 0.000000 0.000000 0.000000 0.000000 -0.799255
#
#
# Mechanical properties :
#
#
# Convention : Reuss Voigt Hill
#
# Bulk Modulus (GPa) = 52.88044 69.47975 61.18009
# Shear Modulus (GPa) = -7.64284 23.96058 8.15887
#
# Velocity S-wave (km/s) = -2.09541 3.71014 2.16499
# Velocity P-wave (km/s) = 4.95227 7.63341 6.43405
#
# Compressibility (1/GPa) = 0.01891059
#
# Stress axis : x y z
#
# Youngs Moduli (GPa) = 91.40117 44.04630 92.42058
#
# Poissons Ratio (x) = 0.07284 0.39739
# Poissons Ratio (y) = 0.15115 0.63062
# Poissons Ratio (z) = 0.39301 0.30054
#
# Static dielectric constant tensor:
#      x y z
#    x 1.602320 0.000000 0.000000 
#    y 0.000000 1.581690 0.000000 
#    z 0.000000 0.000000 1.606420 
# 
# From -- ./inp_files/17832.got.cif
#   From: 2010.05.17/outbox.cif.g08.bks.cpg/sg69_9_cif.got.tgz:17832.got - 2010.06.03 19:29:58.
