data_PCOD9512379
_publ_section_title
;
Structure prediction by ZEFSAII (Michael W. Deem and Ramdas Pophale) SiO2 
 PCOD9512379
Probable space group: F M M M
;
_chemical_formula_sum "Si O2"
_cell_formula_units_Z 192
_cell_length_a 14.127169
_cell_length_b 23.757090
_cell_length_c 27.981194
_cell_angle_alpha 90.000000
_cell_angle_beta 90.000000
_cell_angle_gamma 90.000000
_cell_volume 9391.060233
_symmetry_space_group_name_H-M "F M M M"
_symmetry_group_IT_number 69
_symmetry_cell_setting 'orthorhombic'
loop_
_space_group_symop_operation_xyz
x,y,z
-x,-y,z
x,-y,-z
-x,y,-z
-x,-y,-z
x,y,-z
-x,y,z
x,-y,z
x,1/2+y,1/2+z
-x,1/2-y,1/2+z
x,1/2-y,1/2-z
-x,1/2+y,1/2-z
-x,1/2-y,1/2-z
x,1/2+y,1/2-z
-x,1/2+y,1/2+z
x,1/2-y,1/2+z
1/2+x,y,1/2+z
1/2-x,-y,1/2+z
1/2+x,-y,1/2-z
1/2-x,y,1/2-z
1/2-x,-y,1/2-z
1/2+x,y,1/2-z
1/2-x,y,1/2+z
1/2+x,-y,1/2+z
1/2+x,1/2+y,z
1/2-x,1/2-y,z
1/2+x,1/2-y,-z
1/2-x,1/2+y,-z
1/2-x,1/2-y,-z
1/2+x,1/2+y,-z
1/2-x,1/2+y,z
1/2+x,1/2-y,z
loop_
_atom_site_type_symbol
_atom_site_label
_atom_site_fract_x
_atom_site_fract_y
_atom_site_fract_z
Si Si1 0.114166 0.337702 0.124528
Si Si2 0.753127 0.562662 0.605905
Si Si3 0.888105 0.129822 0.172064
Si Si4 0.261932 0.062777 0.000000
Si Si5 0.384937 0.812143 0.766579
Si Si6 0.111704 0.282759 0.410569
Si Si7 0.775944 0.183865 0.000000
O O1 0.167222 0.393122 0.107523
O O2 0.142740 0.326664 0.179618
O O3 0.143295 0.282074 0.094847
O O4 0.000000 0.342537 0.121994
O O5 0.720202 0.500000 0.617923
O O6 0.829998 0.583202 0.643832
O O7 0.789638 0.561013 0.551115
O O8 0.856148 0.143868 0.225681
O O9 0.875918 0.186362 0.140128
O O10 0.000000 0.116982 0.172538
O O11 0.294740 0.129685 0.000000
O O12 0.314751 0.000000 0.000000
O O13 0.500000 0.811729 0.766511
O O14 0.355661 0.750000 0.750000
O O15 0.161742 0.317810 0.451824
O O16 0.000000 0.281280 0.420772
O O17 0.750000 0.250000 0.000000
#
# Coordination Sequence:
#
# PCOD9512379 Si02
#       7
#    32  32  32  16  32  32  16
#     4  10  21  38  61  89 120 153 192 241 297 350
#     4  11  24  42  61  82 115 156 204 246 284 345
#     4  10  20  36  60  87 117 151 188 237 293 346
#     4  10  22  41  59  81 115 158 203 248 290 350
#     4   9  16  33  59  88 120 152 190 235 287 353
#     4  10  20  34  55  85 119 148 183 239 299 352
#     4  12  21  33  58  86 116 153 195 247 300 356
#
# _framework density 20.444976
#
# number of rings (size 3 to 8) (size 9 to 14) (size 15 to 20)
#    0.000    1.833    3.333    1.250    0.000    1.333 
#    0.000    4.167    0.000    7.000    0.000    0.000 
#    0.000    0.000    0.000    0.000    0.000    0.000 
#
# Total GULP energy -267662.484250 kJ/mol
# GULP energy per Si atom -5576.301755 kJ/mol
# Density = 2.039844 g / cm^3
# Si number density = 20.444976 Si / 1000 Ang^3
#
#
#
# Elastic Constant Matrix: (Units=GPa)
#
#
# Indices 1 2 3 4 5 6 
#
# 1 61.9015 33.6523 32.0500 0.0000 0.0000 0.0000
# 2 33.6523 155.2542 32.7530 0.0000 0.0000 0.0000
# 3 32.0500 32.7530 121.6655 0.0000 0.0000 0.0000
# 4 0.0000 0.0000 0.0000 28.2750 0.0000 0.0000
# 5 0.0000 0.0000 0.0000 0.0000 19.6541 0.0000
# 6 0.0000 0.0000 0.0000 0.0000 0.0000 23.5096
#
#
#
# Elastic Compliance Matrix: (Units=1/GPa)
#
#
# Indices 1 2 3 4 5 6 
#
# 1 0.020332 -0.003475 -0.004421 0.000000 0.000000 0.000000
# 2 -0.003475 0.007423 -0.001083 0.000000 0.000000 0.000000
# 3 -0.004421 -0.001083 0.009675 0.000000 0.000000 0.000000
# 4 0.000000 0.000000 0.000000 0.035367 0.000000 0.000000
# 5 0.000000 0.000000 0.000000 0.000000 0.050880 0.000000
# 6 0.000000 0.000000 0.000000 0.000000 0.000000 0.042536
#
#
# Mechanical properties :
#
#
# Convention : Reuss Voigt Hill
#
# Bulk Modulus (GPa) = 51.35057 59.52575 55.43816
# Shear Modulus (GPa) = 26.22455 30.31213 28.26834
#
# Velocity S-wave (km/s) = 3.58535 3.85466 3.72244
# Velocity P-wave (km/s) = 6.50466 6.99925 6.75648
#
# Compressibility (1/GPa) = 0.01947398
#
# Stress axis : x y z
#
# Youngs Moduli (GPa) = 49.18236 134.72297 103.35567
#
# Poissons Ratio (x) = 0.46810 0.45691
# Poissons Ratio (y) = 0.17089 0.11193
# Poissons Ratio (z) = 0.21742 0.14589
#
# Static dielectric constant tensor:
#      x y z
#    x 1.755130 0.000000 0.000000 
#    y 0.000000 1.751430 0.000000 
#    z 0.000000 0.000000 1.736890 
# 
# From -- ./inp_files/38390.got.cif
#   From: 2010.05.17/outbox.cif.g08.bks.cpg/sg69_20_cif.got.tgz:38390.got - 2010.06.03 19:29:58.
