data_PCOD9512374
_publ_section_title
;
Structure prediction by ZEFSAII (Michael W. Deem and Ramdas Pophale) SiO2 
 PCOD9512374
Probable space group: F M M M
;
_chemical_formula_sum "Si O2"
_cell_formula_units_Z 128
_cell_length_a 15.513473
_cell_length_b 26.404916
_cell_length_c 15.259188
_cell_angle_alpha 90.000000
_cell_angle_beta 90.000000
_cell_angle_gamma 90.000000
_cell_volume 6250.650958
_symmetry_space_group_name_H-M "F M M M"
_symmetry_group_IT_number 69
_symmetry_cell_setting 'orthorhombic'
loop_
_space_group_symop_operation_xyz
x,y,z
-x,-y,z
x,-y,-z
-x,y,-z
-x,-y,-z
x,y,-z
-x,y,z
x,-y,z
x,1/2+y,1/2+z
-x,1/2-y,1/2+z
x,1/2-y,1/2-z
-x,1/2+y,1/2-z
-x,1/2-y,1/2-z
x,1/2+y,1/2-z
-x,1/2+y,1/2+z
x,1/2-y,1/2+z
1/2+x,y,1/2+z
1/2-x,-y,1/2+z
1/2+x,-y,1/2-z
1/2-x,y,1/2-z
1/2-x,-y,1/2-z
1/2+x,y,1/2-z
1/2-x,y,1/2+z
1/2+x,-y,1/2+z
1/2+x,1/2+y,z
1/2-x,1/2-y,z
1/2+x,1/2-y,-z
1/2-x,1/2+y,-z
1/2-x,1/2-y,-z
1/2+x,1/2+y,-z
1/2-x,1/2+y,z
1/2+x,1/2-y,z
loop_
_atom_site_type_symbol
_atom_site_label
_atom_site_fract_x
_atom_site_fract_y
_atom_site_fract_z
Si Si1 0.601851 0.000000 0.105285
Si Si2 0.000000 0.680905 0.857000
Si Si3 0.149166 0.129999 0.145435
Si Si4 0.339598 0.886711 0.852413
Si Si5 0.500000 0.297216 0.856041
Si Si6 0.500000 0.054296 0.396079
O O1 0.641289 0.053243 0.138851
O O2 0.500000 0.000000 0.125791
O O3 0.611725 0.000000 0.000000
O O4 0.917688 0.648025 0.886715
O O5 0.000000 0.689870 0.749665
O O6 0.000000 0.739246 0.884448
O O7 0.245428 0.125537 0.109008
O O8 0.160513 0.128906 0.250186
O O9 0.088895 0.176240 0.114349
O O10 0.087004 0.082890 0.127579
O O11 0.500000 0.050540 0.500000
O O12 0.500000 0.000000 0.352326
#
# Coordination Sequence:
#
# PCOD9512374 Si02
#       6
#    16  16  32  32  16  16
#     4  11  24  37  52  77 109 146 181 222 272 323
#     4   9  16  31  54  78 112 145 177 221 276 323
#     4   9  20  34  54  83 109 140 184 226 269 321
#     4  10  20  34  55  82 110 146 183 223 272 323
#     4   8  16  32  52  81 112 141 176 226 274 317
#     4  10  22  36  52  76 107 146 184 223 268 319
#
# _framework density 20.477867
#
# number of rings (size 3 to 8) (size 9 to 14) (size 15 to 20)
#    0.000    2.500    1.250    0.750    3.500    3.000 
#    0.000    5.000    0.000    6.000    0.000    8.750 
#    0.000    0.000    0.000    0.000    0.000    0.000 
#
# Total GULP energy -178295.510798 kJ/mol
# GULP energy per Si atom -5571.734712 kJ/mol
# Density = 2.043126 g / cm^3
# Si number density = 20.477867 Si / 1000 Ang^3
#
#
#
# Elastic Constant Matrix: (Units=GPa)
#
#
# Indices 1 2 3 4 5 6 
#
# 1 242.9999 119.0701 11.1422 0.0000 0.0000 0.0000
# 2 119.0701 194.2462 -8.9705 0.0000 0.0000 0.0000
# 3 11.1422 -8.9705 35.7370 0.0000 0.0000 0.0000
# 4 0.0000 0.0000 0.0000 12.9108 0.0000 0.0000
# 5 0.0000 0.0000 0.0000 0.0000 -42.2907 0.0000
# 6 0.0000 0.0000 0.0000 0.0000 0.0000 -3.7070
#
#
#
# Elastic Compliance Matrix: (Units=1/GPa)
#
#
# Indices 1 2 3 4 5 6 
#
# 1 0.006166 -0.003914 -0.002905 0.000000 0.000000 0.000000
# 2 -0.003914 0.007693 0.003151 0.000000 0.000000 0.000000
# 3 -0.002905 0.003151 0.029679 0.000000 0.000000 0.000000
# 4 0.000000 0.000000 0.000000 0.077455 0.000000 0.000000
# 5 0.000000 0.000000 0.000000 0.000000 -0.023646 0.000000
# 6 0.000000 0.000000 0.000000 0.000000 0.000000 -0.269760
#
#
# Mechanical properties :
#
#
# Convention : Reuss Voigt Hill
#
# Bulk Modulus (GPa) = 27.62222 79.49631 53.55927
# Shear Modulus (GPa) = -32.67748 16.83204 -7.92272
#
# Velocity S-wave (km/s) = -3.99901 2.87010 -1.96909
# Velocity P-wave (km/s) = 2.79369 7.06316 4.58713
#
# Compressibility (1/GPa) = 0.03620274
#
# Stress axis : x y z
#
# Youngs Moduli (GPa) = 162.17194 129.99056 33.69391
#
# Poissons Ratio (x) = 0.50878 0.09788
# Poissons Ratio (y) = 0.63474 -0.10618
# Poissons Ratio (z) = 0.47111 -0.40964
#
# Static dielectric constant tensor:
#      x y z
#    x 1.720870 0.000000 0.000000 
#    y 0.000000 1.735860 0.000000 
#    z 0.000000 0.000000 1.681540 
# 
# From -- ./inp_files/21639.got.cif
#   From: 2010.05.17/outbox.cif.g08.bks.cpg/sg69_11_cif.got.tgz:21639.got - 2010.06.03 19:29:58.
