data_PCOD9512143
_publ_section_title
;
Structure prediction by ZEFSAII (Michael W. Deem and Ramdas Pophale) SiO2 
 PCOD9512143
Probable space group: F M M M
;
_chemical_formula_sum "Si O2"
_cell_formula_units_Z 160
_cell_length_a 33.560829
_cell_length_b 8.137007
_cell_length_c 28.246529
_cell_angle_alpha 90.000000
_cell_angle_beta 90.000000
_cell_angle_gamma 90.000000
_cell_volume 7713.694912
_symmetry_space_group_name_H-M "F M M M"
_symmetry_group_IT_number 69
_symmetry_cell_setting 'orthorhombic'
loop_
_space_group_symop_operation_xyz
x,y,z
-x,-y,z
x,-y,-z
-x,y,-z
-x,-y,-z
x,y,-z
-x,y,z
x,-y,z
x,1/2+y,1/2+z
-x,1/2-y,1/2+z
x,1/2-y,1/2-z
-x,1/2+y,1/2-z
-x,1/2-y,1/2-z
x,1/2+y,1/2-z
-x,1/2+y,1/2+z
x,1/2-y,1/2+z
1/2+x,y,1/2+z
1/2-x,-y,1/2+z
1/2+x,-y,1/2-z
1/2-x,y,1/2-z
1/2-x,-y,1/2-z
1/2+x,y,1/2-z
1/2-x,y,1/2+z
1/2+x,-y,1/2+z
1/2+x,1/2+y,z
1/2-x,1/2-y,z
1/2+x,1/2-y,-z
1/2-x,1/2+y,-z
1/2-x,1/2-y,-z
1/2+x,1/2+y,-z
1/2-x,1/2+y,z
1/2+x,1/2-y,z
loop_
_atom_site_type_symbol
_atom_site_label
_atom_site_fract_x
_atom_site_fract_y
_atom_site_fract_z
Si Si1 0.953257 0.500000 0.838485
Si Si2 0.293408 0.809585 0.095743
Si Si3 0.877298 0.820103 0.070216
Si Si4 0.311600 0.807384 0.699333
Si Si5 0.403280 0.817259 0.679543
Si Si6 0.926850 0.500000 0.050752
O O1 0.932452 0.337546 0.816427
O O2 0.947085 0.500000 0.896603
O O3 0.000000 0.500000 0.829407
O O4 0.250000 0.750000 0.080608
O O5 0.330010 0.710526 0.073176
O O6 0.296591 0.786218 0.152832
O O7 0.299036 0.000000 0.084650
O O8 0.893143 0.825823 0.123939
O O9 0.899474 0.662479 0.049961
O O10 0.885693 0.000000 0.049986
O O11 0.295815 0.750000 0.750000
O O12 0.359563 0.786074 0.700755
O O13 0.303311 0.000000 0.692036
O O14 0.417570 0.000000 0.694599
O O15 0.949863 0.500000 0.000000
#
# Coordination Sequence:
#
# PCOD9512143 Si02
#       6
#    16  32  32  32  32  16
#     4  10  20  33  56  82 105 137 169 207 259 313
#     4  11  20  32  50  75 105 139 179 223 266 311
#     4   9  17  33  53  76 101 135 181 217 249 302
#     4  10  20  32  49  75 102 138 180 223 270 312
#     4   8  17  32  51  74 101 133 178 217 248 302
#     4  10  20  35  56  82 109 137 167 207 261 315
#
# _framework density 20.742329000000002
#
# number of rings (size 3 to 8) (size 9 to 14) (size 15 to 20)
#    0.000    2.400    1.000    3.600    5.600    1.400 
#    0.000    2.000    0.000    1.200    0.000    5.600 
#    0.000    0.000    0.000    0.000    0.000    0.000 
#
# Total GULP energy -223114.706912 kJ/mol
# GULP energy per Si atom -5577.867673 kJ/mol
# Density = 2.069512 g / cm^3
# Si number density = 20.742329 Si / 1000 Ang^3
#
#
#
# Elastic Constant Matrix: (Units=GPa)
#
#
# Indices 1 2 3 4 5 6 
#
# 1 78.0149 71.3017 -22.5041 0.0001 0.0000 -0.0003
# 2 71.3017 149.4298 -0.1988 -0.0003 0.0000 -0.0001
# 3 -22.5041 -0.1988 39.6757 -0.0001 0.0000 0.0000
# 4 0.0001 -0.0003 -0.0001 22.5468 0.0000 -0.0003
# 5 0.0000 0.0000 0.0000 0.0000 -4.2336 0.0000
# 6 -0.0003 -0.0001 0.0000 -0.0003 0.0000 18.5285
#
#
#
# Elastic Compliance Matrix: (Units=1/GPa)
#
#
# Indices 1 2 3 4 5 6 
#
# 1 0.031913 -0.015203 0.018025 0.000000 0.000000 0.000000
# 2 -0.015203 0.013935 -0.008554 0.000000 0.000000 0.000000
# 3 0.018025 -0.008554 0.035385 0.000000 0.000000 0.000000
# 4 0.000000 0.000000 0.000000 0.044352 0.000000 0.000001
# 5 0.000000 0.000000 0.000000 0.000000 -0.236206 0.000000
# 6 0.000000 0.000000 0.000000 0.000001 0.000000 0.053971
#
#
# Mechanical properties :
#
#
# Convention : Reuss Voigt Hill
#
# Bulk Modulus (GPa) = 14.33311 40.47979 27.40645
# Shear Modulus (GPa) = -228.00679 21.93644 -103.03517
#
# Velocity S-wave (km/s) = -10.49581 3.25556 -7.05562
# Velocity P-wave (km/s) = 11.83037 5.80426 7.28931
#
# Compressibility (1/GPa) = 0.06976851
#
# Stress axis : x y z
#
# Youngs Moduli (GPa) = 31.33554 71.76086 28.26040
#
# Poissons Ratio (x) = 1.09101 -0.50939
# Poissons Ratio (y) = 0.47641 0.24173
# Poissons Ratio (z) = -0.56482 0.61381
#
# Static dielectric constant tensor:
#      x y z
#    x 1.710160 0.000000 0.000000 
#    y 0.000000 1.741790 0.000000 
#    z 0.000000 0.000000 1.805250 
# 
# From -- ./inp_files/47496.got.cif
#   From: 2010.05.17/outbox.cif.g08.bks.cpg/sg69_24_cif.got.tgz:47496.got - 2010.06.03 19:29:58.
