data_PCOD9512964
_publ_section_title
;
Structure prediction by ZEFSAII (Michael W. Deem and Ramdas Pophale) SiO2 
 PCOD9512964
Probable space group: F M M M
;
_chemical_formula_sum "Si O2"
_cell_formula_units_Z 136
_cell_length_a 25.000684
_cell_length_b 13.812787
_cell_length_c 21.266206
_cell_angle_alpha 90.000000
_cell_angle_beta 90.000000
_cell_angle_gamma 90.000000
_cell_volume 7343.840266
_symmetry_space_group_name_H-M "F M M M"
_symmetry_group_IT_number 69
_symmetry_cell_setting 'orthorhombic'
loop_
_space_group_symop_operation_xyz
x,y,z
-x,-y,z
x,-y,-z
-x,y,-z
-x,-y,-z
x,y,-z
-x,y,z
x,-y,z
x,1/2+y,1/2+z
-x,1/2-y,1/2+z
x,1/2-y,1/2-z
-x,1/2+y,1/2-z
-x,1/2-y,1/2-z
x,1/2+y,1/2-z
-x,1/2+y,1/2+z
x,1/2-y,1/2+z
1/2+x,y,1/2+z
1/2-x,-y,1/2+z
1/2+x,-y,1/2-z
1/2-x,y,1/2-z
1/2-x,-y,1/2-z
1/2+x,y,1/2-z
1/2-x,y,1/2+z
1/2+x,-y,1/2+z
1/2+x,1/2+y,z
1/2-x,1/2-y,z
1/2+x,1/2-y,-z
1/2-x,1/2+y,-z
1/2-x,1/2-y,-z
1/2+x,1/2+y,-z
1/2-x,1/2+y,z
1/2+x,1/2-y,z
loop_
_atom_site_type_symbol
_atom_site_label
_atom_site_fract_x
_atom_site_fract_y
_atom_site_fract_z
Si Si1 0.837696 0.756604 0.395492
Si Si2 0.348474 0.887567 0.500000
Si Si3 0.218899 0.386795 0.000000
Si Si4 0.500000 0.500000 0.706391
Si Si5 0.699745 0.107592 0.704127
Si Si6 0.596141 0.346327 0.286915
O O1 0.865094 0.675292 0.439665
O O2 0.804202 0.828893 0.439864
O O3 0.803726 0.692392 0.346528
O O4 0.879420 0.816747 0.354222
O O5 0.283286 0.883627 0.500000
O O6 0.364546 0.000000 0.500000
O O7 0.203031 0.500000 0.000000
O O8 0.547190 0.582781 0.707307
O O9 0.750000 0.119697 0.750000
O O10 0.646116 0.113102 0.745994
O O11 0.703560 0.000000 0.674459
O O12 0.579375 0.250000 0.250000
#
# Coordination Sequence:
#
# PCOD9512964 Si02
#       6
#    32  16  16   8  32  32
#     4  10  21  37  57  86 122 158 206 245 302 353
#     4  10  21  37  58  87 118 170 198 246 295 371
#     4  10  23  35  56  83 123 168 211 241 291 368
#     4  12  22  44  62  87 122 157 216 254 300 364
#     4  10  21  35  58  94 129 164 193 242 306 377
#     4  10  23  38  63  89 121 164 201 253 307 360
#
# _framework density 18.518922
#
# number of rings (size 3 to 8) (size 9 to 14) (size 15 to 20)
#    0.000    1.882    1.176    2.471    8.235    3.294 
#    0.000    0.000    0.000    6.353    0.000    0.824 
#    0.000    0.000    0.000    0.000    0.000    0.000 
#
# Total GULP energy -189439.799027 kJ/mol
# GULP energy per Si atom -5571.758795 kJ/mol
# Density = 1.847677 g / cm^3
# Si number density = 18.518922 Si / 1000 Ang^3
#
#
#
# Elastic Constant Matrix: (Units=GPa)
#
#
# Indices 1 2 3 4 5 6 
#
# 1 110.4047 70.8788 51.5366 0.0000 0.0000 0.0000
# 2 70.8788 166.8360 55.5809 0.0000 0.0000 0.0000
# 3 51.5366 55.5809 93.4454 0.0000 0.0000 0.0000
# 4 0.0000 0.0000 0.0000 9.3926 0.0000 0.0000
# 5 0.0000 0.0000 0.0000 0.0000 0.3954 0.0000
# 6 0.0000 0.0000 0.0000 0.0000 0.0000 46.5092
#
#
#
# Elastic Compliance Matrix: (Units=1/GPa)
#
#
# Indices 1 2 3 4 5 6 
#
# 1 0.014309 -0.004303 -0.005332 0.000000 0.000000 0.000000
# 2 -0.004303 0.008769 -0.002843 0.000000 0.000000 0.000000
# 3 -0.005332 -0.002843 0.015333 0.000000 0.000000 0.000000
# 4 0.000000 0.000000 0.000000 0.106467 0.000000 0.000000
# 5 0.000000 0.000000 0.000000 0.000000 2.529261 0.000000
# 6 0.000000 0.000000 0.000000 0.000000 0.000000 0.021501
#
#
# Mechanical properties :
#
#
# Convention : Reuss Voigt Hill
#
# Bulk Modulus (GPa) = 74.31903 80.74206 77.53054
# Shear Modulus (GPa) = 1.83481 24.10542 12.97012
#
# Velocity S-wave (km/s) = 0.99646 3.61177 2.64932
# Velocity P-wave (km/s) = 6.44534 7.81586 7.16345
#
# Compressibility (1/GPa) = 0.01345550
#
# Stress axis : x y z
#
# Youngs Moduli (GPa) = 69.88626 114.03992 65.21776
#
# Poissons Ratio (x) = 0.49066 0.34777
# Poissons Ratio (y) = 0.30069 0.18540
# Poissons Ratio (z) = 0.37267 0.32419
#
# Static dielectric constant tensor:
#      x y z
#    x 1.594950 0.000000 0.000000 
#    y 0.000000 1.681560 0.000000 
#    z 0.000000 0.000000 1.670270 
# 
# From -- ./inp_files/32504.got.cif
#   From: 2010.05.17/outbox.cif.g08.bks.cpg/sg69_17_cif.got.tgz:32504.got - 2010.06.03 19:29:58.
