data_PCOD9512181
_publ_section_title
;
Structure prediction by ZEFSAII (Michael W. Deem and Ramdas Pophale) SiO2 
 PCOD9512181
Probable space group: F M M M
;
_chemical_formula_sum "Si O2"
_cell_formula_units_Z 224
_cell_length_a 30.918823
_cell_length_b 24.397789
_cell_length_c 17.311301
_cell_angle_alpha 90.000000
_cell_angle_beta 90.000000
_cell_angle_gamma 90.000000
_cell_volume 13058.795830
_symmetry_space_group_name_H-M "F M M M"
_symmetry_group_IT_number 69
_symmetry_cell_setting 'orthorhombic'
loop_
_space_group_symop_operation_xyz
x,y,z
-x,-y,z
x,-y,-z
-x,y,-z
-x,-y,-z
x,y,-z
-x,y,z
x,-y,z
x,1/2+y,1/2+z
-x,1/2-y,1/2+z
x,1/2-y,1/2-z
-x,1/2+y,1/2-z
-x,1/2-y,1/2-z
x,1/2+y,1/2-z
-x,1/2+y,1/2+z
x,1/2-y,1/2+z
1/2+x,y,1/2+z
1/2-x,-y,1/2+z
1/2+x,-y,1/2-z
1/2-x,y,1/2-z
1/2-x,-y,1/2-z
1/2+x,y,1/2-z
1/2-x,y,1/2+z
1/2+x,-y,1/2+z
1/2+x,1/2+y,z
1/2-x,1/2-y,z
1/2+x,1/2-y,-z
1/2-x,1/2+y,-z
1/2-x,1/2-y,-z
1/2+x,1/2+y,-z
1/2-x,1/2+y,z
1/2+x,1/2-y,z
loop_
_atom_site_type_symbol
_atom_site_label
_atom_site_fract_x
_atom_site_fract_y
_atom_site_fract_z
Si Si1 0.048515 0.843585 0.731800
Si Si2 0.137902 0.698744 0.415452
Si Si3 0.130990 0.100547 0.798223
Si Si4 0.290142 0.711520 0.408965
Si Si5 0.288182 0.601376 0.688419
Si Si6 0.752353 0.000000 0.408660
Si Si7 0.548310 0.256788 0.126894
Si Si8 0.852243 0.500000 0.407510
O O1 0.086126 0.885663 0.754402
O O2 0.057229 0.804756 0.657783
O O3 0.046826 0.798713 0.800617
O O4 0.000000 0.867319 0.724854
O O5 0.150283 0.675572 0.500000
O O6 0.142981 0.654768 0.347759
O O7 0.167798 0.750890 0.400051
O O8 0.088855 0.720020 0.418472
O O9 0.168297 0.088455 0.736048
O O10 0.129248 0.052468 0.861686
O O11 0.284609 0.698205 0.500000
O O12 0.250000 0.750000 0.385601
O O13 0.293319 0.656983 0.359591
O O14 0.250000 0.608967 0.750000
O O15 0.273117 0.552716 0.632300
O O16 0.760651 0.000000 0.500000
O O17 0.700150 0.000000 0.397978
O O18 0.500000 0.257590 0.092513
O O19 0.861284 0.500000 0.500000
#
# Coordination Sequence:
#
# PCOD9512181 Si02
#       8
#    32  32  32  32  32  16  32  16
#     4   8  15  29  50  75 103 134 168 212 267 312
#     4  10  20  33  48  73 108 146 181 214 262 322
#     4  11  21  34  55  78 105 137 180 230 266 312
#     4  10  22  36  50  72 107 144 172 204 257 320
#     4  12  22  36  56  82 104 129 174 224 262 312
#     4  11  24  42  60  76 103 137 173 221 276 326
#     4   8  14  27  48  74 101 132 172 216 259 305
#     4  11  23  39  56  74 101 139 180 222 274 329
#
# _framework density 17.153189000000001
#
# number of rings (size 3 to 8) (size 9 to 14) (size 15 to 20)
#    0.000    2.000    1.429    4.071    0.000    3.429 
#    0.000    0.357    0.000    1.714    0.000    0.000 
#    0.000    0.571    0.000    0.000    0.000    0.286 
#
# Total GULP energy -312250.555673 kJ/mol
# GULP energy per Si atom -5575.902780 kJ/mol
# Density = 1.711415 g / cm^3
# Si number density = 17.153189 Si / 1000 Ang^3
#
#
#
# Elastic Constant Matrix: (Units=GPa)
#
#
# Indices 1 2 3 4 5 6 
#
# 1 65.0781 10.9756 1.8630 0.0000 0.0000 0.0000
# 2 10.9756 52.6522 23.9742 0.0000 0.0000 0.0000
# 3 1.8630 23.9742 49.4245 0.0000 0.0000 0.0000
# 4 0.0000 0.0000 0.0000 25.0982 0.0000 0.0000
# 5 0.0000 0.0000 0.0000 0.0000 23.2733 0.0000
# 6 0.0000 0.0000 0.0000 0.0000 0.0000 9.3224
#
#
#
# Elastic Compliance Matrix: (Units=1/GPa)
#
#
# Indices 1 2 3 4 5 6 
#
# 1 0.015991 -0.003926 0.001302 0.000000 0.000000 0.000000
# 2 -0.003926 0.025340 -0.012144 0.000000 0.000000 0.000000
# 3 0.001302 -0.012144 0.026074 0.000000 0.000000 0.000000
# 4 0.000000 0.000000 0.000000 0.039844 0.000000 0.000000
# 5 0.000000 0.000000 0.000000 0.000000 0.042968 0.000000
# 6 0.000000 0.000000 0.000000 0.000000 0.000000 0.107268
#
#
# Mechanical properties :
#
#
# Convention : Reuss Voigt Hill
#
# Bulk Modulus (GPa) = 26.40660 26.75339 26.57999
# Shear Modulus (GPa) = 16.68641 20.22824 18.45733
#
# Velocity S-wave (km/s) = 3.12234 3.43778 3.28385
# Velocity P-wave (km/s) = 5.33167 5.60253 5.46877
#
# Compressibility (1/GPa) = 0.03786932
#
# Stress axis : x y z
#
# Youngs Moduli (GPa) = 62.53502 39.46259 38.35176
#
# Poissons Ratio (x) = 0.15493 -0.04992
# Poissons Ratio (y) = 0.24552 0.46574
# Poissons Ratio (z) = -0.08140 0.47923
#
# Static dielectric constant tensor:
#      x y z
#    x 1.594940 0.000000 0.000000 
#    y 0.000000 1.561600 0.000000 
#    z 0.000000 0.000000 1.592170 
# 
# From -- ./inp_files/27991.got.cif
#   From: 2010.05.17/outbox.cif.g08.bks.cpg/sg69_14_cif.got.tgz:27991.got - 2010.06.03 19:29:58.
