data_PCOD9512467
_publ_section_title
;
Structure prediction by ZEFSAII (Michael W. Deem and Ramdas Pophale) SiO2 
 PCOD9512467
Probable space group: F M M M
;
_chemical_formula_sum "Si O2"
_cell_formula_units_Z 144
_cell_length_a 34.381973
_cell_length_b 8.805547
_cell_length_c 25.921270
_cell_angle_alpha 90.000000
_cell_angle_beta 90.000000
_cell_angle_gamma 90.000000
_cell_volume 7847.718388
_symmetry_space_group_name_H-M "F M M M"
_symmetry_group_IT_number 69
_symmetry_cell_setting 'orthorhombic'
loop_
_space_group_symop_operation_xyz
x,y,z
-x,-y,z
x,-y,-z
-x,y,-z
-x,-y,-z
x,y,-z
-x,y,z
x,-y,z
x,1/2+y,1/2+z
-x,1/2-y,1/2+z
x,1/2-y,1/2-z
-x,1/2+y,1/2-z
-x,1/2-y,1/2-z
x,1/2+y,1/2-z
-x,1/2+y,1/2+z
x,1/2-y,1/2+z
1/2+x,y,1/2+z
1/2-x,-y,1/2+z
1/2+x,-y,1/2-z
1/2-x,y,1/2-z
1/2-x,-y,1/2-z
1/2+x,y,1/2-z
1/2-x,y,1/2+z
1/2+x,-y,1/2+z
1/2+x,1/2+y,z
1/2-x,1/2-y,z
1/2+x,1/2-y,-z
1/2-x,1/2+y,-z
1/2-x,1/2-y,-z
1/2+x,1/2+y,-z
1/2-x,1/2+y,z
1/2+x,1/2-y,z
loop_
_atom_site_type_symbol
_atom_site_label
_atom_site_fract_x
_atom_site_fract_y
_atom_site_fract_z
Si Si1 0.569301 0.179977 0.056084
Si Si2 0.542387 0.681870 0.668717
Si Si3 0.292920 0.319068 0.500000
Si Si4 0.151082 0.818915 0.084525
Si Si5 0.125102 0.318722 0.302906
O O1 0.544389 0.209181 0.106964
O O2 0.609117 0.272591 0.061786
O O3 0.579021 0.000000 0.057649
O O4 0.551369 0.211025 0.000000
O O5 0.500000 0.733327 0.687716
O O6 0.545528 0.500000 0.677170
O O7 0.580623 0.760972 0.690830
O O8 0.291416 0.500000 0.500000
O O9 0.250000 0.250000 0.500000
O O10 0.316513 0.261789 0.550226
O O11 0.148090 0.774082 0.144964
O O12 0.156189 0.000000 0.081243
O O13 0.124755 0.500000 0.300124
O O14 0.141035 0.250000 0.250000
#
# Coordination Sequence:
#
# PCOD9512467 Si02
#       5
#    32  32  16  32  32
#     4   9  16  27  46  71  99 137 181 221 269 324
#     4   9  18  31  46  68 101 139 181 231 282 329
#     4  12  24  38  60  90 121 150 175 206 254 309
#     4  10  20  35  55  81 112 143 178 220 264 315
#     4  10  21  36  56  79 104 140 185 231 276 322
#
# _framework density 18.349281999999999
#
# number of rings (size 3 to 8) (size 9 to 14) (size 15 to 20)
#    0.000    2.222    1.111    2.333    0.000    4.000 
#    0.000    2.222    0.000    0.667    0.000   10.889 
#    0.000    0.000    0.000    0.000    0.000    0.000 
#
# Total GULP energy -200852.639215 kJ/mol
# GULP energy per Si atom -5579.239978 kJ/mol
# Density = 1.830752 g / cm^3
# Si number density = 18.349282 Si / 1000 Ang^3
#
#
#
# Elastic Constant Matrix: (Units=GPa)
#
#
# Indices 1 2 3 4 5 6 
#
# 1 98.1724 43.0863 41.8714 0.0000 -0.0001 0.0000
# 2 43.0863 57.1704 50.3418 0.0000 0.0000 0.0000
# 3 41.8714 50.3418 155.5732 0.0000 0.0000 0.0000
# 4 0.0000 0.0000 0.0000 27.0261 0.0000 0.0000
# 5 -0.0001 0.0000 0.0000 0.0000 20.5131 0.0001
# 6 0.0000 0.0000 0.0000 0.0000 0.0001 19.8790
#
#
#
# Elastic Compliance Matrix: (Units=1/GPa)
#
#
# Indices 1 2 3 4 5 6 
#
# 1 0.015253 -0.011021 -0.000539 0.000000 0.000000 0.000000
# 2 -0.011021 0.032424 -0.007526 0.000000 0.000000 0.000000
# 3 -0.000539 -0.007526 0.009008 0.000000 0.000000 0.000000
# 4 0.000000 0.000000 0.000000 0.037001 0.000000 0.000000
# 5 0.000000 0.000000 0.000000 0.000000 0.048749 0.000000
# 6 0.000000 0.000000 0.000000 0.000000 0.000000 0.050304
#
#
# Mechanical properties :
#
#
# Convention : Reuss Voigt Hill
#
# Bulk Modulus (GPa) = 54.01303 64.61280 59.31292
# Shear Modulus (GPa) = 21.08965 25.19141 23.14053
#
# Velocity S-wave (km/s) = 3.39388 3.70926 3.55507
# Velocity P-wave (km/s) = 6.69760 7.32352 7.01754
#
# Compressibility (1/GPa) = 0.01851405
#
# Stress axis : x y z
#
# Youngs Moduli (GPa) = 65.56154 30.84101 111.00906
#
# Poissons Ratio (x) = 0.33989 0.05984
# Poissons Ratio (y) = 0.72253 0.83546
# Poissons Ratio (z) = 0.03534 0.23211
#
# Static dielectric constant tensor:
#      x y z
#    x 1.590830 0.000000 0.000000 
#    y 0.000000 1.614750 0.000000 
#    z 0.000000 0.000000 1.681280 
# 
# From -- ./inp_files/47392.got.cif
#   From: 2010.05.17/outbox.cif.g08.bks.cpg/sg69_24_cif.got.tgz:47392.got - 2010.06.03 19:29:58.
