data_PCOD9512814
_publ_section_title
;
Structure prediction by ZEFSAII (Michael W. Deem and Ramdas Pophale) SiO2 
 PCOD9512814
Probable space group: F M M M
;
_chemical_formula_sum "Si O2"
_cell_formula_units_Z 208
_cell_length_a 18.755862
_cell_length_b 17.660338
_cell_length_c 32.998899
_cell_angle_alpha 90.000000
_cell_angle_beta 90.000000
_cell_angle_gamma 90.000000
_cell_volume 10930.385770
_symmetry_space_group_name_H-M "F M M M"
_symmetry_group_IT_number 69
_symmetry_cell_setting 'orthorhombic'
loop_
_space_group_symop_operation_xyz
x,y,z
-x,-y,z
x,-y,-z
-x,y,-z
-x,-y,-z
x,y,-z
-x,y,z
x,-y,z
x,1/2+y,1/2+z
-x,1/2-y,1/2+z
x,1/2-y,1/2-z
-x,1/2+y,1/2-z
-x,1/2-y,1/2-z
x,1/2+y,1/2-z
-x,1/2+y,1/2+z
x,1/2-y,1/2+z
1/2+x,y,1/2+z
1/2-x,-y,1/2+z
1/2+x,-y,1/2-z
1/2-x,y,1/2-z
1/2-x,-y,1/2-z
1/2+x,y,1/2-z
1/2-x,y,1/2+z
1/2+x,-y,1/2+z
1/2+x,1/2+y,z
1/2-x,1/2-y,z
1/2+x,1/2-y,-z
1/2-x,1/2+y,-z
1/2-x,1/2-y,-z
1/2+x,1/2+y,-z
1/2-x,1/2+y,z
1/2+x,1/2-y,z
loop_
_atom_site_type_symbol
_atom_site_label
_atom_site_fract_x
_atom_site_fract_y
_atom_site_fract_z
Si Si1 0.914639 0.413039 0.198722
Si Si2 0.686786 0.810829 0.646005
Si Si3 0.142923 0.588280 0.045618
Si Si4 0.916882 0.092487 0.000000
Si Si5 0.324589 0.589015 0.225980
Si Si6 0.194737 0.411565 0.567838
Si Si7 0.914862 0.816922 0.379367
O O1 0.890579 0.500000 0.194456
O O2 0.882626 0.385070 0.240928
O O3 0.891660 0.368108 0.159066
O O4 0.000000 0.411341 0.200435
O O5 0.750000 0.750000 0.651541
O O6 0.675546 0.858487 0.686724
O O7 0.703848 0.866981 0.609319
O O8 0.618534 0.763968 0.630630
O O9 0.125089 0.500000 0.055274
O O10 0.228878 0.593876 0.045886
O O11 0.113048 0.644226 0.079613
O O12 0.117124 0.604673 0.000000
O O13 0.869995 0.116069 0.960846
O O14 0.000000 0.116575 0.000000
O O15 0.916611 0.000000 0.000000
O O16 0.336654 0.500000 0.215451
O O17 0.250000 0.593586 0.250000
O O18 0.181440 0.500000 0.576272
O O19 0.000000 0.814429 0.380685
#
# Coordination Sequence:
#
# PCOD9512814 Si02
#       7
#    32  32  32  16  32  32  32
#     4   9  19  38  62  85 114 156 200 246 302 361
#     4  12  24  39  58  86 123 164 199 244 307 371
#     4  10  20  38  66  93 119 158 206 256 305 364
#     4   9  18  36  63  92 119 151 201 258 301 345
#     4  10  22  39  61  90 119 152 204 261 306 356
#     4  10  20  38  63  88 116 155 205 250 298 362
#     4  11  24  40  58  88 127 163 203 250 306 371
#
# _framework density 19.029520000000002
#
# number of rings (size 3 to 8) (size 9 to 14) (size 15 to 20)
#    0.000    1.769    2.308    1.846    0.000    4.615 
#    1.385    3.462    0.000    4.615    0.000    0.000 
#    0.000    0.000    0.000    0.000    0.000    0.000 
#
# Total GULP energy -290309.215252 kJ/mol
# GULP energy per Si atom -5582.869524 kJ/mol
# Density = 1.898621 g / cm^3
# Si number density = 19.029520 Si / 1000 Ang^3
#
#
#
# Elastic Constant Matrix: (Units=GPa)
#
#
# Indices 1 2 3 4 5 6 
#
# 1 55.5256 31.7779 30.0820 0.0000 0.0000 0.0000
# 2 31.7779 71.2803 78.6388 0.0000 0.0000 0.0000
# 3 30.0820 78.6388 157.9759 0.0000 0.0000 0.0000
# 4 0.0000 0.0000 0.0000 3.9829 0.0000 0.0000
# 5 0.0000 0.0000 0.0000 0.0000 32.7596 0.0000
# 6 0.0000 0.0000 0.0000 0.0000 0.0000 22.9502
#
#
#
# Elastic Compliance Matrix: (Units=1/GPa)
#
#
# Indices 1 2 3 4 5 6 
#
# 1 0.024384 -0.012750 0.001704 0.000000 0.000000 0.000000
# 2 -0.012750 0.037786 -0.016382 0.000000 0.000000 0.000000
# 3 0.001704 -0.016382 0.014160 0.000000 0.000000 0.000000
# 4 0.000000 0.000000 0.000000 0.251072 0.000000 0.000000
# 5 0.000000 0.000000 0.000000 0.000000 0.030525 0.000000
# 6 0.000000 0.000000 0.000000 0.000000 0.000000 0.043573
#
#
# Mechanical properties :
#
#
# Convention : Reuss Voigt Hill
#
# Bulk Modulus (GPa) = 46.56828 62.86434 54.71631
# Shear Modulus (GPa) = 10.78715 21.55743 16.17229
#
# Velocity S-wave (km/s) = 2.38347 3.36942 2.91839
# Velocity P-wave (km/s) = 5.66563 6.94581 6.33812
#
# Compressibility (1/GPa) = 0.02147385
#
# Stress axis : x y z
#
# Youngs Moduli (GPa) = 41.01079 26.46468 70.62020
#
# Poissons Ratio (x) = 0.33744 -0.12032
# Poissons Ratio (y) = 0.52290 1.15688
# Poissons Ratio (z) = -0.06987 0.43354
#
# Static dielectric constant tensor:
#      x y z
#    x 1.667960 0.000000 0.000000 
#    y 0.000000 1.667790 0.000000 
#    z 0.000000 0.000000 1.644570 
# 
# From -- ./inp_files/42712.got.cif
#   From: 2010.05.17/outbox.cif.g08.bks.cpg/sg69_22_cif.got.tgz:42712.got - 2010.06.03 19:29:58.
