data_PCOD9512044
_publ_section_title
;
Structure prediction by ZEFSAII (Michael W. Deem and Ramdas Pophale) SiO2 
 PCOD9512044
Probable space group: F M M M
;
_chemical_formula_sum "Si O2"
_cell_formula_units_Z 160
_cell_length_a 29.265485
_cell_length_b 14.755721
_cell_length_c 17.715392
_cell_angle_alpha 90.000000
_cell_angle_beta 90.000000
_cell_angle_gamma 90.000000
_cell_volume 7650.096748
_symmetry_space_group_name_H-M "F M M M"
_symmetry_group_IT_number 69
_symmetry_cell_setting 'orthorhombic'
loop_
_space_group_symop_operation_xyz
x,y,z
-x,-y,z
x,-y,-z
-x,y,-z
-x,-y,-z
x,y,-z
-x,y,z
x,-y,z
x,1/2+y,1/2+z
-x,1/2-y,1/2+z
x,1/2-y,1/2-z
-x,1/2+y,1/2-z
-x,1/2-y,1/2-z
x,1/2+y,1/2-z
-x,1/2+y,1/2+z
x,1/2-y,1/2+z
1/2+x,y,1/2+z
1/2-x,-y,1/2+z
1/2+x,-y,1/2-z
1/2-x,y,1/2-z
1/2-x,-y,1/2-z
1/2+x,y,1/2-z
1/2-x,y,1/2+z
1/2+x,-y,1/2+z
1/2+x,1/2+y,z
1/2-x,1/2-y,z
1/2+x,1/2-y,-z
1/2-x,1/2+y,-z
1/2-x,1/2-y,-z
1/2+x,1/2+y,-z
1/2-x,1/2+y,z
1/2+x,1/2-y,z
loop_
_atom_site_type_symbol
_atom_site_label
_atom_site_fract_x
_atom_site_fract_y
_atom_site_fract_z
Si Si1 0.225922 0.609753 0.588966
Si Si2 0.320198 0.399154 0.654948
Si Si3 0.352750 0.663161 0.806148
Si Si4 0.915549 0.895360 0.589160
Si Si5 0.048938 0.281735 0.663713
O O1 0.231671 0.628365 0.500000
O O2 0.219641 0.500000 0.597418
O O3 0.270981 0.640693 0.635418
O O4 0.182172 0.658079 0.625201
O O5 0.316284 0.500000 0.622355
O O6 0.333508 0.405309 0.742821
O O7 0.364779 0.362789 0.612750
O O8 0.350279 0.750000 0.750000
O O9 0.404574 0.658834 0.837270
O O10 0.919685 0.900440 0.500000
O O11 0.945980 0.813227 0.619242
O O12 0.923011 0.000000 0.618433
O O13 0.046886 0.250000 0.750000
O O14 0.000000 0.325266 0.643549
#
# Coordination Sequence:
#
# PCOD9512044 Si02
#       5
#    32  32  32  32  32
#     4  10  22  39  60  85 116 156 198 239 282 336
#     4  10  19  36  59  84 116 155 194 234 282 341
#     4  11  21  38  56  87 115 154 194 234 288 347
#     4  10  20  36  60  88 117 149 191 243 294 344
#     4  10  21  40  59  80 115 155 195 238 289 349
#
# _framework density 20.914767999999999
#
# number of rings (size 3 to 8) (size 9 to 14) (size 15 to 20)
#    0.000    1.800    4.000    1.800    0.000    7.200 
#    0.000    2.000    0.000    2.400    0.000    1.400 
#    0.000    0.000    0.000    0.000    0.000    0.000 
#
# Total GULP energy -222673.676390 kJ/mol
# GULP energy per Si atom -5566.841910 kJ/mol
# Density = 2.086717 g / cm^3
# Si number density = 20.914768 Si / 1000 Ang^3
#
#
#
# Elastic Constant Matrix: (Units=GPa)
#
#
# Indices 1 2 3 4 5 6 
#
# 1 196.4292 31.5365 41.2670 0.0000 0.0000 0.0000
# 2 31.5365 38.4088 25.8063 0.0000 0.0000 0.0000
# 3 41.2670 25.8063 80.2353 0.0000 0.0000 0.0000
# 4 0.0000 0.0000 0.0000 30.8971 0.0000 0.0000
# 5 0.0000 0.0000 0.0000 0.0000 36.3002 0.0000
# 6 0.0000 0.0000 0.0000 0.0000 0.0000 16.3825
#
#
#
# Elastic Compliance Matrix: (Units=1/GPa)
#
#
# Indices 1 2 3 4 5 6 
#
# 1 0.006093 -0.003696 -0.001945 0.000000 0.000000 0.000000
# 2 -0.003696 0.035455 -0.009503 0.000000 0.000000 0.000000
# 3 -0.001945 -0.009503 0.016520 0.000000 0.000000 0.000000
# 4 0.000000 0.000000 0.000000 0.032365 0.000000 0.000000
# 5 0.000000 0.000000 0.000000 0.000000 0.027548 0.000000
# 6 0.000000 0.000000 0.000000 0.000000 0.000000 0.061041
#
#
# Mechanical properties :
#
#
# Convention : Reuss Voigt Hill
#
# Bulk Modulus (GPa) = 35.99591 56.92143 46.45867
# Shear Modulus (GPa) = 22.87603 31.14688 27.01146
#
# Velocity S-wave (km/s) = 3.31081 3.86324 3.59765
# Velocity P-wave (km/s) = 5.64477 6.86837 6.28641
#
# Compressibility (1/GPa) = 0.02778094
#
# Stress axis : x y z
#
# Youngs Moduli (GPa) = 164.12587 28.20477 60.53254
#
# Poissons Ratio (x) = 0.10424 0.11774
# Poissons Ratio (y) = 0.60659 0.57522
# Poissons Ratio (z) = 0.31922 0.26802
#
# Static dielectric constant tensor:
#      x y z
#    x 1.830480 0.000000 0.000000 
#    y 0.000000 1.872650 0.000000 
#    z 0.000000 0.000000 1.744790 
# 
# From -- ./inp_files/23164.got.cif
#   From: 2010.05.17/outbox.cif.g08.bks.cpg/sg69_12_cif.got.tgz:23164.got - 2010.06.03 19:29:58.
