data_PCOD9512966
_publ_section_title
;
Structure prediction by ZEFSAII (Michael W. Deem and Ramdas Pophale) SiO2 
 PCOD9512966
Probable space group: F M M M
;
_chemical_formula_sum "Si O2"
_cell_formula_units_Z 144
_cell_length_a 17.967272
_cell_length_b 31.421697
_cell_length_c 14.298288
_cell_angle_alpha 90.000000
_cell_angle_beta 90.000000
_cell_angle_gamma 90.000000
_cell_volume 8072.272596
_symmetry_space_group_name_H-M "F M M M"
_symmetry_group_IT_number 69
_symmetry_cell_setting 'orthorhombic'
loop_
_space_group_symop_operation_xyz
x,y,z
-x,-y,z
x,-y,-z
-x,y,-z
-x,-y,-z
x,y,-z
-x,y,z
x,-y,z
x,1/2+y,1/2+z
-x,1/2-y,1/2+z
x,1/2-y,1/2-z
-x,1/2+y,1/2-z
-x,1/2-y,1/2-z
x,1/2+y,1/2-z
-x,1/2+y,1/2+z
x,1/2-y,1/2+z
1/2+x,y,1/2+z
1/2-x,-y,1/2+z
1/2+x,-y,1/2-z
1/2-x,y,1/2-z
1/2-x,-y,1/2-z
1/2+x,y,1/2-z
1/2-x,y,1/2+z
1/2+x,-y,1/2+z
1/2+x,1/2+y,z
1/2-x,1/2-y,z
1/2+x,1/2-y,-z
1/2-x,1/2+y,-z
1/2-x,1/2-y,-z
1/2+x,1/2+y,-z
1/2-x,1/2+y,z
1/2+x,1/2-y,z
loop_
_atom_site_type_symbol
_atom_site_label
_atom_site_fract_x
_atom_site_fract_y
_atom_site_fract_z
Si Si1 0.835064 0.203701 0.211770
Si Si2 0.194882 0.049403 0.000000
Si Si3 0.086394 0.951140 0.824592
Si Si4 0.587589 0.873733 0.814397
Si Si5 0.293266 0.794770 0.500000
Si Si6 0.314536 0.376139 0.500000
O O1 0.858458 0.250000 0.250000
O O2 0.750000 0.197644 0.250000
O O3 0.884226 0.166140 0.253719
O O4 0.835854 0.203135 0.098981
O O5 0.142570 0.055908 0.909750
O O6 0.261410 0.082772 0.000000
O O7 0.219795 0.000000 0.000000
O O8 0.100074 0.916747 0.744673
O O9 0.000000 0.946585 0.855676
O O10 0.095493 0.000000 0.791965
O O11 0.500000 0.869877 0.833679
O O12 0.634604 0.875496 0.908592
O O13 0.250000 0.750000 0.500000
O O14 0.236416 0.834103 0.500000
#
# Coordination Sequence:
#
# PCOD9512966 Si02
#       6
#    32  16  32  32  16  16
#     4  11  21  38  62  89 118 155 192 242 295 347
#     4  10  21  35  59  91 117 148 193 244 297 351
#     4   9  19  37  59  84 117 154 191 238 297 354
#     4  11  24  40  58  83 116 158 200 242 295 350
#     4  12  20  35  61  91 115 148 197 232 291 353
#     4  12  23  37  58  81 116 155 196 246 287 352
#
# _framework density 17.838843000000001
#
# number of rings (size 3 to 8) (size 9 to 14) (size 15 to 20)
#    0.000    1.333    4.444    2.000    0.000    2.667 
#    0.000    3.889    0.000    3.333    0.000    0.000 
#    0.000    0.000    0.000    0.000    0.000    0.000 
#
# Total GULP energy -201099.658631 kJ/mol
# GULP energy per Si atom -5586.101629 kJ/mol
# Density = 1.779824 g / cm^3
# Si number density = 17.838843 Si / 1000 Ang^3
#
#
#
# Elastic Constant Matrix: (Units=GPa)
#
#
# Indices 1 2 3 4 5 6 
#
# 1 71.8768 89.6905 79.2058 0.0000 0.0000 0.0000
# 2 89.6905 153.3597 98.8063 0.0000 0.0000 0.0000
# 3 79.2058 98.8063 173.0489 0.0000 0.0000 0.0000
# 4 0.0000 0.0000 0.0000 23.9953 0.0000 0.0000
# 5 0.0000 0.0000 0.0000 0.0000 1.4367 0.0000
# 6 0.0000 0.0000 0.0000 0.0000 0.0000 33.2592
#
#
#
# Elastic Compliance Matrix: (Units=1/GPa)
#
#
# Indices 1 2 3 4 5 6 
#
# 1 0.065668 -0.030121 -0.012859 0.000000 0.000000 0.000000
# 2 -0.030121 0.024131 0.000008 0.000000 0.000000 0.000000
# 3 -0.012859 0.000008 0.011660 0.000000 0.000000 0.000000
# 4 0.000000 0.000000 0.000000 0.041675 0.000000 0.000000
# 5 0.000000 0.000000 0.000000 0.000000 0.696031 0.000000
# 6 0.000000 0.000000 0.000000 0.000000 0.000000 0.030067
#
#
# Mechanical properties :
#
#
# Convention : Reuss Voigt Hill
#
# Bulk Modulus (GPa) = 64.44738 103.74340 84.09539
# Shear Modulus (GPa) = 5.20646 20.44376 12.82511
#
# Velocity S-wave (km/s) = 1.71025 3.38897 2.68422
# Velocity P-wave (km/s) = 6.33292 8.57879 7.53995
#
# Compressibility (1/GPa) = 0.01551654
#
# Stress axis : x y z
#
# Youngs Moduli (GPa) = 15.22806 41.44055 85.76682
#
# Poissons Ratio (x) = 1.24822 1.10285
# Poissons Ratio (y) = 0.45868 -0.00071
# Poissons Ratio (z) = 0.19581 -0.00034
#
# Static dielectric constant tensor:
#      x y z
#    x 1.584930 0.000000 0.000000 
#    y 0.000000 1.593080 0.000000 
#    z 0.000000 0.000000 1.595260 
# 
# From -- ./inp_files/15614.got.cif
#   From: 2010.05.17/outbox.cif.g08.bks.cpg/sg69_8_cif.got.tgz:15614.got - 2010.06.03 19:29:58.
