data_PCOD9512692
_publ_section_title
;
Structure prediction by ZEFSAII (Michael W. Deem and Ramdas Pophale) SiO2 
 PCOD9512692
Probable space group: F M M M
;
_chemical_formula_sum "Si O2"
_cell_formula_units_Z 160
_cell_length_a 22.147120
_cell_length_b 12.050967
_cell_length_c 27.765538
_cell_angle_alpha 90.000000
_cell_angle_beta 90.000000
_cell_angle_gamma 90.000000
_cell_volume 7410.461393
_symmetry_space_group_name_H-M "F M M M"
_symmetry_group_IT_number 69
_symmetry_cell_setting 'orthorhombic'
loop_
_space_group_symop_operation_xyz
x,y,z
-x,-y,z
x,-y,-z
-x,y,-z
-x,-y,-z
x,y,-z
-x,y,z
x,-y,z
x,1/2+y,1/2+z
-x,1/2-y,1/2+z
x,1/2-y,1/2-z
-x,1/2+y,1/2-z
-x,1/2-y,1/2-z
x,1/2+y,1/2-z
-x,1/2+y,1/2+z
x,1/2-y,1/2+z
1/2+x,y,1/2+z
1/2-x,-y,1/2+z
1/2+x,-y,1/2-z
1/2-x,y,1/2-z
1/2-x,-y,1/2-z
1/2+x,y,1/2-z
1/2-x,y,1/2+z
1/2+x,-y,1/2+z
1/2+x,1/2+y,z
1/2-x,1/2-y,z
1/2+x,1/2-y,-z
1/2-x,1/2+y,-z
1/2-x,1/2-y,-z
1/2+x,1/2+y,-z
1/2-x,1/2+y,z
1/2+x,1/2-y,z
loop_
_atom_site_type_symbol
_atom_site_label
_atom_site_fract_x
_atom_site_fract_y
_atom_site_fract_z
Si Si1 0.755885 0.125482 0.378034
Si Si2 0.349708 0.305089 0.704484
Si Si3 0.072952 0.735648 0.944227
Si Si4 0.615964 0.878525 0.641314
Si Si5 0.568799 0.500000 0.287893
Si Si6 0.070509 0.000000 0.595577
O O1 0.750000 0.250000 0.403586
O O2 0.804143 0.144871 0.335180
O O3 0.688638 0.114510 0.357006
O O4 0.768440 0.000000 0.399704
O O5 0.317628 0.250000 0.750000
O O6 0.395577 0.221730 0.677340
O O7 0.392384 0.396427 0.727507
O O8 0.097532 0.833906 0.911124
O O9 0.095957 0.615912 0.924630
O O10 0.000000 0.736311 0.940264
O O11 0.089206 0.747508 0.000000
O O12 0.590281 0.000000 0.651278
O O13 0.500000 0.500000 0.272682
O O14 0.571153 0.500000 0.346752
O O15 0.000000 0.000000 0.580055
#
# Coordination Sequence:
#
# PCOD9512692 Si02
#       6
#    32  32  32  32  16  16
#     4   9  19  37  59  86 117 159 206 262 313 362
#     4  11  23  39  65  90 121 164 214 261 313 374
#     4  10  20  36  61  92 125 164 212 263 317 382
#     4  10  22  37  56  88 127 162 208 262 318 369
#     4  11  22  39  64  93 127 166 204 256 321 379
#     4   9  17  34  61  91 120 155 207 265 314 365
#
# _framework density 21.591099
#
# number of rings (size 3 to 8) (size 9 to 14) (size 15 to 20)
#    0.000    2.000    3.000    0.300    1.400    6.000 
#    0.000    6.000    0.000    5.400    0.000    0.000 
#    0.000    0.000    0.000    0.000    0.000    0.000 
#
# Total GULP energy -222826.832532 kJ/mol
# GULP energy per Si atom -5570.670813 kJ/mol
# Density = 2.154196 g / cm^3
# Si number density = 21.591099 Si / 1000 Ang^3
#
#
#
# Elastic Constant Matrix: (Units=GPa)
#
#
# Indices 1 2 3 4 5 6 
#
# 1 59.0150 15.3313 11.2702 0.0000 0.0000 0.0000
# 2 15.3313 157.2881 13.7073 0.0000 0.0000 0.0000
# 3 11.2702 13.7073 57.3812 0.0000 0.0000 0.0000
# 4 0.0000 0.0000 0.0000 25.0522 0.0000 0.0000
# 5 0.0000 0.0000 0.0000 0.0000 2.8816 0.0000
# 6 0.0000 0.0000 0.0000 0.0000 0.0000 13.5888
#
#
#
# Elastic Compliance Matrix: (Units=1/GPa)
#
#
# Indices 1 2 3 4 5 6 
#
# 1 0.017933 -0.001472 -0.003171 0.000000 0.000000 0.000000
# 2 -0.001472 0.006614 -0.001291 0.000000 0.000000 0.000000
# 3 -0.003171 -0.001291 0.018358 0.000000 0.000000 0.000000
# 4 0.000000 0.000000 0.000000 0.039917 0.000000 0.000000
# 5 0.000000 0.000000 0.000000 0.000000 0.347030 0.000000
# 6 0.000000 0.000000 0.000000 0.000000 0.000000 0.073590
#
#
# Mechanical properties :
#
#
# Convention : Reuss Voigt Hill
#
# Bulk Modulus (GPa) = 32.21795 39.36689 35.79242
# Shear Modulus (GPa) = 9.51196 23.86287 16.68742
#
# Velocity S-wave (km/s) = 2.10121 3.32809 2.78310
# Velocity P-wave (km/s) = 4.56520 5.74811 5.19046
#
# Compressibility (1/GPa) = 0.03103860
#
# Stress axis : x y z
#
# Youngs Moduli (GPa) = 55.76417 151.20127 54.47099
#
# Poissons Ratio (x) = 0.22251 0.17271
# Poissons Ratio (y) = 0.08206 0.07031
# Poissons Ratio (z) = 0.17681 0.19518
#
# Static dielectric constant tensor:
#      x y z
#    x 1.792620 0.000000 0.000000 
#    y 0.000000 2.673290 0.000000 
#    z 0.000000 0.000000 1.748060 
# 
# From -- ./inp_files/46949.got.cif
#   From: 2010.05.17/outbox.cif.g08.bks.cpg/sg69_24_cif.got.tgz:46949.got - 2010.06.03 19:29:58.
