data_PCOD9512613
_publ_section_title
;
Structure prediction by ZEFSAII (Michael W. Deem and Ramdas Pophale) SiO2 
 PCOD9512613
Probable space group: F M M M
;
_chemical_formula_sum "Si O2"
_cell_formula_units_Z 208
_cell_length_a 27.410092
_cell_length_b 17.633679
_cell_length_c 24.468971
_cell_angle_alpha 90.000000
_cell_angle_beta 90.000000
_cell_angle_gamma 90.000000
_cell_volume 11826.851130
_symmetry_space_group_name_H-M "F M M M"
_symmetry_group_IT_number 69
_symmetry_cell_setting 'orthorhombic'
loop_
_space_group_symop_operation_xyz
x,y,z
-x,-y,z
x,-y,-z
-x,y,-z
-x,-y,-z
x,y,-z
-x,y,z
x,-y,z
x,1/2+y,1/2+z
-x,1/2-y,1/2+z
x,1/2-y,1/2-z
-x,1/2+y,1/2-z
-x,1/2-y,1/2-z
x,1/2+y,1/2-z
-x,1/2+y,1/2+z
x,1/2-y,1/2+z
1/2+x,y,1/2+z
1/2-x,-y,1/2+z
1/2+x,-y,1/2-z
1/2-x,y,1/2-z
1/2-x,-y,1/2-z
1/2+x,y,1/2-z
1/2-x,y,1/2+z
1/2+x,-y,1/2+z
1/2+x,1/2+y,z
1/2-x,1/2-y,z
1/2+x,1/2-y,-z
1/2-x,1/2+y,-z
1/2-x,1/2-y,-z
1/2+x,1/2+y,-z
1/2-x,1/2+y,z
1/2+x,1/2-y,z
loop_
_atom_site_type_symbol
_atom_site_label
_atom_site_fract_x
_atom_site_fract_y
_atom_site_fract_z
Si Si1 0.500000 0.409604 0.564907
Si Si2 0.058076 0.413694 0.757818
Si Si3 0.901659 0.908413 0.935873
Si Si4 0.406153 0.352298 0.369691
Si Si5 0.556449 0.309722 0.844644
Si Si6 0.813520 0.407779 0.935615
Si Si7 0.706658 0.412531 0.066265
O O1 0.500000 0.500000 0.575066
O O2 0.500000 0.396959 0.500000
O O3 0.548346 0.375022 0.591772
O O4 0.066127 0.500000 0.739100
O O5 0.086827 0.397335 0.813149
O O6 0.070338 0.354949 0.710051
O O7 0.000000 0.405647 0.769720
O O8 0.938066 0.866636 0.895562
O O9 0.846653 0.881598 0.919582
O O10 0.903911 0.000000 0.930707
O O11 0.909633 0.890962 0.000000
O O12 0.411676 0.264099 0.355496
O O13 0.356531 0.373321 0.400078
O O14 0.500000 0.285640 0.838784
O O15 0.814504 0.500000 0.931608
O O16 0.759324 0.380224 0.917889
O O17 0.820307 0.389734 0.000000
O O18 0.706427 0.500000 0.084901
O O19 0.707306 0.414059 0.000000
#
# Coordination Sequence:
#
# PCOD9512613 Si02
#       7
#    16  32  32  32  32  32  32
#     4  11  22  34  49  72 105 143 179 210 242 292
#     4  10  20  36  58  75  94 129 181 228 260 304
#     4   9  18  34  56  78 102 136 177 217 262 313
#     4  12  21  34  51  75 107 142 172 208 260 313
#     4  11  23  37  50  75 106 140 172 216 264 312
#     4   9  17  30  51  79 108 137 174 215 254 303
#     4   7  12  27  51  76 100 130 171 218 259 300
#
# _framework density 17.587098000000001
#
# number of rings (size 3 to 8) (size 9 to 14) (size 15 to 20)
#    0.000    2.231    1.538    4.615    0.000    4.923 
#    0.000    1.538    0.000    3.692    0.000    6.462 
#    0.000    0.000    0.000    0.000    0.000    0.000 
#
# Total GULP energy -289960.574380 kJ/mol
# GULP energy per Si atom -5576.164892 kJ/mol
# Density = 1.754707 g / cm^3
# Si number density = 17.587098 Si / 1000 Ang^3
#
#
#
# Elastic Constant Matrix: (Units=GPa)
#
#
# Indices 1 2 3 4 5 6 
#
# 1 32.2857 7.0199 6.9041 0.0000 0.0000 0.0000
# 2 7.0199 52.6555 25.3533 0.0000 0.0000 0.0000
# 3 6.9041 25.3533 52.9619 0.0000 0.0000 0.0000
# 4 0.0000 0.0000 0.0000 330.7735 0.0000 0.0000
# 5 0.0000 0.0000 0.0000 0.0000 2.8857 0.0000
# 6 0.0000 0.0000 0.0000 0.0000 0.0000 2.0887
#
#
#
# Elastic Compliance Matrix: (Units=1/GPa)
#
#
# Indices 1 2 3 4 5 6 
#
# 1 0.032211 -0.002953 -0.002785 0.000000 0.000000 0.000000
# 2 -0.002953 0.024951 -0.011559 0.000000 0.000000 0.000000
# 3 -0.002785 -0.011559 0.024778 0.000000 0.000000 0.000000
# 4 0.000000 0.000000 0.000000 0.003023 0.000000 0.000000
# 5 0.000000 0.000000 0.000000 0.000000 0.346536 0.000000
# 6 0.000000 0.000000 0.000000 0.000000 0.000000 0.478772
#
#
# Mechanical properties :
#
#
# Convention : Reuss Voigt Hill
#
# Bulk Modulus (GPa) = 21.12172 24.05086 22.58629
# Shear Modulus (GPa) = 5.20482 73.72463 39.46472
#
# Velocity S-wave (km/s) = 1.72217 6.48157 4.74218
# Velocity P-wave (km/s) = 3.99879 8.34981 6.54636
#
# Compressibility (1/GPa) = 0.04734462
#
# Stress axis : x y z
#
# Youngs Moduli (GPa) = 31.04512 40.07897 40.35831
#
# Poissons Ratio (x) = 0.11836 0.11241
# Poissons Ratio (y) = 0.09168 0.46651
# Poissons Ratio (z) = 0.08647 0.46328
#
# Static dielectric constant tensor:
#      x y z
#    x 1.607970 0.000000 0.000000 
#    y 0.000000 1.613090 0.000000 
#    z 0.000000 0.000000 1.574280 
# 
# From -- ./inp_files/39060.got.cif
#   From: 2010.05.17/outbox.cif.g08.bks.cpg/sg69_20_cif.got.tgz:39060.got - 2010.06.03 19:29:58.
