data_PCOD9512559
_publ_section_title
;
Structure prediction by ZEFSAII (Michael W. Deem and Ramdas Pophale) SiO2 
 PCOD9512559
Probable space group: F M M M
;
_chemical_formula_sum "Si O2"
_cell_formula_units_Z 160
_cell_length_a 22.106853
_cell_length_b 19.067397
_cell_length_c 19.250497
_cell_angle_alpha 90.000000
_cell_angle_beta 90.000000
_cell_angle_gamma 90.000000
_cell_volume 8114.472240
_symmetry_space_group_name_H-M "F M M M"
_symmetry_group_IT_number 69
_symmetry_cell_setting 'orthorhombic'
loop_
_space_group_symop_operation_xyz
x,y,z
-x,-y,z
x,-y,-z
-x,y,-z
-x,-y,-z
x,y,-z
-x,y,z
x,-y,z
x,1/2+y,1/2+z
-x,1/2-y,1/2+z
x,1/2-y,1/2-z
-x,1/2+y,1/2-z
-x,1/2-y,1/2-z
x,1/2+y,1/2-z
-x,1/2+y,1/2+z
x,1/2-y,1/2+z
1/2+x,y,1/2+z
1/2-x,-y,1/2+z
1/2+x,-y,1/2-z
1/2-x,y,1/2-z
1/2-x,-y,1/2-z
1/2+x,y,1/2-z
1/2-x,y,1/2+z
1/2+x,-y,1/2+z
1/2+x,1/2+y,z
1/2-x,1/2-y,z
1/2+x,1/2-y,-z
1/2-x,1/2+y,-z
1/2-x,1/2-y,-z
1/2+x,1/2+y,-z
1/2-x,1/2+y,z
1/2+x,1/2-y,z
loop_
_atom_site_type_symbol
_atom_site_label
_atom_site_fract_x
_atom_site_fract_y
_atom_site_fract_z
Si Si1 0.069718 0.296397 0.818685
Si Si2 0.500000 0.920242 0.415653
Si Si3 0.386872 0.676437 0.083343
Si Si4 0.640346 0.082168 0.140388
Si Si5 0.932103 0.915579 0.500000
Si Si6 0.227888 0.918782 0.082774
O O1 0.068302 0.250000 0.750000
O O2 0.101554 0.248575 0.877105
O O3 0.109133 0.365817 0.806038
O O4 0.000000 0.313062 0.837819
O O5 0.500000 0.923678 0.500000
O O6 0.441008 0.876256 0.395868
O O7 0.500000 0.000000 0.389714
O O8 0.324176 0.636859 0.098793
O O9 0.389869 0.687101 0.000000
O O10 0.605186 0.100643 0.068905
O O11 0.711152 0.093089 0.126022
O O12 0.631010 0.000000 0.155485
O O13 0.000000 0.885880 0.500000
O O14 0.937032 0.000000 0.500000
O O15 0.207845 0.000000 0.093822
O O16 0.242120 0.913477 0.000000
#
# Coordination Sequence:
#
# PCOD9512559 Si02
#       6
#    32  16  32  32  16  32
#     4  11  25  43  60  81 122 160 196 252 312 361
#     4   9  16  30  53  84 115 145 193 250 288 330
#     4  10  20  35  59  89 117 154 200 242 300 359
#     4  10  20  37  60  88 119 155 200 242 295 361
#     4   9  16  28  52  87 116 141 187 244 289 335
#     4   9  17  33  58  91 128 158 191 245 301 353
#
# _framework density 19.717856999999999
#
# number of rings (size 3 to 8) (size 9 to 14) (size 15 to 20)
#    0.000    2.200    2.000    1.200    1.400    4.400 
#    0.000    6.000    0.000    2.400    0.000    0.000 
#    0.000    0.000    0.000    0.000    0.000    0.000 
#
# Total GULP energy -223294.499833 kJ/mol
# GULP energy per Si atom -5582.362496 kJ/mol
# Density = 1.967298 g / cm^3
# Si number density = 19.717857 Si / 1000 Ang^3
#
#
#
# Elastic Constant Matrix: (Units=GPa)
#
#
# Indices 1 2 3 4 5 6 
#
# 1 126.2379 78.3065 22.6639 0.0000 0.0000 0.0000
# 2 78.3065 127.7079 25.0774 0.0000 0.0000 0.0000
# 3 22.6639 25.0774 19.0531 0.0000 0.0000 0.0000
# 4 0.0000 0.0000 0.0000 24.7426 0.0000 0.0000
# 5 0.0000 0.0000 0.0000 0.0000 18.6810 0.0000
# 6 0.0000 0.0000 0.0000 0.0000 0.0000 28.9211
#
#
#
# Elastic Compliance Matrix: (Units=1/GPa)
#
#
# Indices 1 2 3 4 5 6 
#
# 1 0.013429 -0.006874 -0.006926 0.000000 0.000000 0.000000
# 2 -0.006874 0.014078 -0.010353 0.000000 0.000000 0.000000
# 3 -0.006926 -0.010353 0.074350 0.000000 0.000000 0.000000
# 4 0.000000 0.000000 0.000000 0.040416 0.000000 0.000000
# 5 0.000000 0.000000 0.000000 0.000000 0.053530 0.000000
# 6 0.000000 0.000000 0.000000 0.000000 0.000000 0.034577
#
#
# Mechanical properties :
#
#
# Convention : Reuss Voigt Hill
#
# Bulk Modulus (GPa) = 18.67388 58.34385 38.50886
# Shear Modulus (GPa) = 16.86125 24.26567 20.56346
#
# Velocity S-wave (km/s) = 2.92743 3.51186 3.23288
# Velocity P-wave (km/s) = 4.57357 6.78954 5.78858
#
# Compressibility (1/GPa) = 0.05355073
#
# Stress axis : x y z
#
# Youngs Moduli (GPa) = 74.46430 71.03102 13.44992
#
# Poissons Ratio (x) = 0.48829 0.09316
# Poissons Ratio (y) = 0.51189 0.13924
# Poissons Ratio (z) = 0.51577 0.73536
#
# Static dielectric constant tensor:
#      x y z
#    x 1.668570 0.000000 0.000000 
#    y 0.000000 1.697580 0.000000 
#    z 0.000000 0.000000 1.722230 
# 
# From -- ./inp_files/24607.got.cif
#   From: 2010.05.17/outbox.cif.g08.bks.cpg/sg69_13_cif.got.tgz:24607.got - 2010.06.03 19:29:58.
