data_PCOD9512583
_publ_section_title
;
Structure prediction by ZEFSAII (Michael W. Deem and Ramdas Pophale) SiO2 
 PCOD9512583
Probable space group: F M M M
;
_chemical_formula_sum "Si O2"
_cell_formula_units_Z 176
_cell_length_a 15.679952
_cell_length_b 17.630842
_cell_length_c 32.345681
_cell_angle_alpha 90.000000
_cell_angle_beta 90.000000
_cell_angle_gamma 90.000000
_cell_volume 8941.987975
_symmetry_space_group_name_H-M "F M M M"
_symmetry_group_IT_number 69
_symmetry_cell_setting 'orthorhombic'
loop_
_space_group_symop_operation_xyz
x,y,z
-x,-y,z
x,-y,-z
-x,y,-z
-x,-y,-z
x,y,-z
-x,y,z
x,-y,z
x,1/2+y,1/2+z
-x,1/2-y,1/2+z
x,1/2-y,1/2-z
-x,1/2+y,1/2-z
-x,1/2-y,1/2-z
x,1/2+y,1/2-z
-x,1/2+y,1/2+z
x,1/2-y,1/2+z
1/2+x,y,1/2+z
1/2-x,-y,1/2+z
1/2+x,-y,1/2-z
1/2-x,y,1/2-z
1/2-x,-y,1/2-z
1/2+x,y,1/2-z
1/2-x,y,1/2+z
1/2+x,-y,1/2+z
1/2+x,1/2+y,z
1/2-x,1/2-y,z
1/2+x,1/2-y,-z
1/2-x,1/2+y,-z
1/2-x,1/2-y,-z
1/2+x,1/2+y,-z
1/2-x,1/2+y,z
1/2+x,1/2-y,z
loop_
_atom_site_type_symbol
_atom_site_label
_atom_site_fract_x
_atom_site_fract_y
_atom_site_fract_z
Si Si1 0.349496 0.166518 0.263403
Si Si2 0.597001 0.148782 0.641588
Si Si3 0.668285 0.699911 0.377959
Si Si4 0.278474 0.087838 0.423597
Si Si5 0.400593 0.408087 0.000000
Si Si6 0.598810 0.083155 0.186836
O O1 0.380379 0.250000 0.250000
O O2 0.250000 0.162457 0.250000
O O3 0.370722 0.156415 0.311304
O O4 0.394284 0.104780 0.234653
O O5 0.500000 0.121014 0.640726
O O6 0.600080 0.232350 0.619533
O O7 0.662311 0.095951 0.616890
O O8 0.750000 0.750000 0.366539
O O9 0.699778 0.645893 0.415534
O O10 0.644779 0.645307 0.340630
O O11 0.342354 0.112266 0.460457
O O12 0.252318 0.000000 0.429752
O O13 0.405922 0.500000 0.000000
O O14 0.500000 0.381047 0.000000
O O15 0.500000 0.083281 0.174674
O O16 0.635731 0.000000 0.179265
#
# Coordination Sequence:
#
# PCOD9512583 Si02
#       6
#    32  32  32  32  16  32
#     4  11  22  36  57  79 107 149 196 238 284 338
#     4  11  22  35  57  83 113 150 189 235 283 339
#     4  10  20  36  55  80 111 146 188 224 273 335
#     4  10  21  37  60  87 114 145 182 230 284 340
#     4   9  18  36  61  88 119 149 179 223 286 351
#     4  11  23  37  55  81 111 147 194 243 288 332
#
# _framework density 19.682424999999999
#
# number of rings (size 3 to 8) (size 9 to 14) (size 15 to 20)
#    0.000    1.545    1.818    4.364    2.545    2.909 
#    0.000    4.091    0.000    0.000    0.000    1.909 
#    0.000   10.182    0.000    0.000    0.000    1.091 
#
# Total GULP energy -245371.339810 kJ/mol
# GULP energy per Si atom -5576.621359 kJ/mol
# Density = 1.963763 g / cm^3
# Si number density = 19.682425 Si / 1000 Ang^3
#
#
#
# Elastic Constant Matrix: (Units=GPa)
#
#
# Indices 1 2 3 4 5 6 
#
# 1 47.8365 2.3543 5.2113 0.0000 0.0000 0.0000
# 2 2.3543 84.2476 3.8629 0.0000 0.0000 0.0000
# 3 5.2113 3.8629 81.5416 0.0000 0.0000 0.0000
# 4 0.0000 0.0000 0.0000 19.4491 0.0000 0.0000
# 5 0.0000 0.0000 0.0000 0.0000 -3.2867 0.0000
# 6 0.0000 0.0000 0.0000 0.0000 0.0000 12.2656
#
#
#
# Elastic Compliance Matrix: (Units=1/GPa)
#
#
# Indices 1 2 3 4 5 6 
#
# 1 0.021075 -0.000528 -0.001322 0.000000 0.000000 0.000000
# 2 -0.000528 0.011909 -0.000530 0.000000 0.000000 0.000000
# 3 -0.001322 -0.000530 0.012373 0.000000 0.000000 0.000000
# 4 0.000000 0.000000 0.000000 0.051416 0.000000 0.000000
# 5 0.000000 0.000000 0.000000 0.000000 -0.304261 0.000000
# 6 0.000000 0.000000 0.000000 0.000000 0.000000 0.081529
#
#
# Mechanical properties :
#
#
# Convention : Reuss Voigt Hill
#
# Bulk Modulus (GPa) = 24.63324 26.27587 25.45456
# Shear Modulus (GPa) = -46.43993 19.16542 -13.63726
#
# Velocity S-wave (km/s) = -4.86270 3.12385 -2.63509
# Velocity P-wave (km/s) = 4.35721 5.13714 1.92418
#
# Compressibility (1/GPa) = 0.04059555
#
# Stress axis : x y z
#
# Youngs Moduli (GPa) = 47.45063 83.97107 80.81933
#
# Poissons Ratio (x) = 0.04436 0.10683
# Poissons Ratio (y) = 0.02507 0.04287
# Poissons Ratio (z) = 0.06272 0.04454
#
# Static dielectric constant tensor:
#      x y z
#    x 1.743980 0.000000 0.000000 
#    y 0.000000 1.726130 0.000000 
#    z 0.000000 0.000000 1.681570 
# 
# From -- ./inp_files/41816.got.cif
#   From: 2010.05.17/outbox.cif.g08.bks.cpg/sg69_21_cif.got.tgz:41816.got - 2010.06.03 19:29:58.
