data_PCOD9512744
_publ_section_title
;
Structure prediction by ZEFSAII (Michael W. Deem and Ramdas Pophale) SiO2 
 PCOD9512744
Probable space group: F M M M
;
_chemical_formula_sum "Si O2"
_cell_formula_units_Z 168
_cell_length_a 14.405572
_cell_length_b 22.146487
_cell_length_c 27.184446
_cell_angle_alpha 90.000000
_cell_angle_beta 90.000000
_cell_angle_gamma 90.000000
_cell_volume 8672.730278
_symmetry_space_group_name_H-M "F M M M"
_symmetry_group_IT_number 69
_symmetry_cell_setting 'orthorhombic'
loop_
_space_group_symop_operation_xyz
x,y,z
-x,-y,z
x,-y,-z
-x,y,-z
-x,-y,-z
x,y,-z
-x,y,z
x,-y,z
x,1/2+y,1/2+z
-x,1/2-y,1/2+z
x,1/2-y,1/2-z
-x,1/2+y,1/2-z
-x,1/2-y,1/2-z
x,1/2+y,1/2-z
-x,1/2+y,1/2+z
x,1/2-y,1/2+z
1/2+x,y,1/2+z
1/2-x,-y,1/2+z
1/2+x,-y,1/2-z
1/2-x,y,1/2-z
1/2-x,-y,1/2-z
1/2+x,y,1/2-z
1/2-x,y,1/2+z
1/2+x,-y,1/2+z
1/2+x,1/2+y,z
1/2-x,1/2-y,z
1/2+x,1/2-y,-z
1/2-x,1/2+y,-z
1/2-x,1/2-y,-z
1/2+x,1/2+y,-z
1/2-x,1/2+y,z
1/2+x,1/2-y,z
loop_
_atom_site_type_symbol
_atom_site_label
_atom_site_fract_x
_atom_site_fract_y
_atom_site_fract_z
Si Si1 0.392670 0.210435 0.075647
Si Si2 0.194950 0.158231 0.944685
Si Si3 0.599829 0.321392 0.690142
Si Si4 0.360754 0.931270 0.746493
Si Si5 0.107900 0.571453 0.634559
Si Si6 0.250000 0.250000 0.250000
O O1 0.500000 0.202564 0.058153
O O2 0.304970 0.173550 0.054339
O O3 0.361091 0.280086 0.068364
O O4 0.392789 0.190373 0.132523
O O5 0.169722 0.109966 0.902761
O O6 0.167665 0.139084 0.000000
O O7 0.500000 0.295836 0.705621
O O8 0.603163 0.389720 0.709726
O O9 0.684788 0.289905 0.716336
O O10 0.250000 0.932065 0.750000
O O11 0.384192 0.907804 0.691580
O O12 0.394469 0.000000 0.749843
O O13 0.132424 0.500000 0.633904
O O14 0.000000 0.577498 0.620019
#
# Coordination Sequence:
#
# PCOD9512744 Si02
#       6
#    32  32  32  32  32   8
#     4  10  22  39  58  86 120 152 193 241 292 351
#     4  11  23  39  63  89 113 151 198 245 303 358
#     4  11  23  36  57  85 115 158 195 230 285 343
#     4  10  20  37  60  85 118 158 195 234 282 338
#     4  10  22  39  60  88 121 155 193 243 299 351
#     4  12  22  36  50  78 122 156 190 234 272 330
#
# _framework density 19.371062999999999
#
# number of rings (size 3 to 8) (size 9 to 14) (size 15 to 20)
#    0.000    1.524    0.952    4.857    2.667    4.190 
#    0.000    0.952    0.000    1.714    0.000    1.333 
#    0.000    0.000    0.000    0.000    0.000    0.000 
#
# Total GULP energy -234414.424323 kJ/mol
# GULP energy per Si atom -5581.295817 kJ/mol
# Density = 1.932697 g / cm^3
# Si number density = 19.371063 Si / 1000 Ang^3
#
#
#
# Elastic Constant Matrix: (Units=GPa)
#
#
# Indices 1 2 3 4 5 6 
#
# 1 134.7176 24.4432 33.1171 0.0000 0.0000 0.0000
# 2 24.4432 48.3501 36.2152 0.0000 0.0000 0.0000
# 3 33.1171 36.2152 111.9767 0.0000 0.0000 0.0000
# 4 0.0000 0.0000 0.0000 -104.3016 0.0000 0.0000
# 5 0.0000 0.0000 0.0000 0.0000 136.2589 0.0000
# 6 0.0000 0.0000 0.0000 0.0000 0.0000 16.5336
#
#
#
# Elastic Compliance Matrix: (Units=1/GPa)
#
#
# Indices 1 2 3 4 5 6 
#
# 1 0.008349 -0.003129 -0.001457 0.000000 0.000000 0.000000
# 2 -0.003129 0.028467 -0.008281 0.000000 0.000000 0.000000
# 3 -0.001457 -0.008281 0.012040 0.000000 0.000000 0.000000
# 4 0.000000 0.000000 0.000000 -0.009588 0.000000 0.000000
# 5 0.000000 0.000000 0.000000 0.000000 0.007339 0.000000
# 6 0.000000 0.000000 0.000000 0.000000 0.000000 0.060483
#
#
# Mechanical properties :
#
#
# Convention : Reuss Voigt Hill
#
# Bulk Modulus (GPa) = 43.25182 53.62170 48.43676
# Shear Modulus (GPa) = 35.57892 23.11613 29.34752
#
# Velocity S-wave (km/s) = 4.29033 3.45821 3.89655
# Velocity P-wave (km/s) = 6.84975 6.60962 6.73076
#
# Compressibility (1/GPa) = 0.02312041
#
# Stress axis : x y z
#
# Youngs Moduli (GPa) = 119.77594 35.12790 83.05861
#
# Poissons Ratio (x) = 0.10993 0.12102
# Poissons Ratio (y) = 0.37482 0.68784
# Poissons Ratio (z) = 0.17453 0.29091
#
# Static dielectric constant tensor:
#      x y z
#    x 1.703980 0.000000 0.000000 
#    y 0.000000 1.681910 0.000000 
#    z 0.000000 0.000000 1.666950 
# 
# From -- ./inp_files/40977.got.cif
#   From: 2010.05.17/outbox.cif.g08.bks.cpg/sg69_21_cif.got.tgz:40977.got - 2010.06.03 19:29:58.
