data_PCOD9512535
_publ_section_title
;
Structure prediction by ZEFSAII (Michael W. Deem and Ramdas Pophale) SiO2 
 PCOD9512535
Probable space group: F M M M
;
_chemical_formula_sum "Si O2"
_cell_formula_units_Z 144
_cell_length_a 16.788601
_cell_length_b 16.775281
_cell_length_c 26.430287
_cell_angle_alpha 90.000000
_cell_angle_beta 90.000000
_cell_angle_gamma 90.000000
_cell_volume 7443.654217
_symmetry_space_group_name_H-M "F M M M"
_symmetry_group_IT_number 69
_symmetry_cell_setting 'orthorhombic'
loop_
_space_group_symop_operation_xyz
x,y,z
-x,-y,z
x,-y,-z
-x,y,-z
-x,-y,-z
x,y,-z
-x,y,z
x,-y,z
x,1/2+y,1/2+z
-x,1/2-y,1/2+z
x,1/2-y,1/2-z
-x,1/2+y,1/2-z
-x,1/2-y,1/2-z
x,1/2+y,1/2-z
-x,1/2+y,1/2+z
x,1/2-y,1/2+z
1/2+x,y,1/2+z
1/2-x,-y,1/2+z
1/2+x,-y,1/2-z
1/2-x,y,1/2-z
1/2-x,-y,1/2-z
1/2+x,y,1/2-z
1/2-x,y,1/2+z
1/2+x,-y,1/2+z
1/2+x,1/2+y,z
1/2-x,1/2-y,z
1/2+x,1/2-y,-z
1/2-x,1/2+y,-z
1/2-x,1/2-y,-z
1/2+x,1/2+y,-z
1/2-x,1/2+y,z
1/2+x,1/2-y,z
loop_
_atom_site_type_symbol
_atom_site_label
_atom_site_fract_x
_atom_site_fract_y
_atom_site_fract_z
Si Si1 0.306113 0.409281 0.641509
Si Si2 0.905729 0.846421 0.557833
Si Si3 0.906913 0.406509 0.500000
Si Si4 0.591659 0.279698 0.693265
Si Si5 0.652093 0.183255 0.599335
O O1 0.287482 0.500000 0.656731
O O2 0.371281 0.409929 0.596466
O O3 0.348288 0.352159 0.682310
O O4 0.229771 0.360730 0.621048
O O5 0.895537 0.870096 0.500000
O O6 0.852708 0.768067 0.569765
O O7 0.000000 0.828923 0.565694
O O8 0.892000 0.500000 0.500000
O O9 0.876902 0.372851 0.553664
O O10 0.000000 0.388157 0.500000
O O11 0.500000 0.306387 0.688347
O O12 0.604050 0.250000 0.750000
O O13 0.605661 0.210856 0.650680
#
# Coordination Sequence:
#
# PCOD9512535 Si02
#       5
#    32  32  16  32  32
#     4  11  24  38  57  90 128 160 192 247 316 372
#     4  10  20  35  58  84 114 161 211 250 289 348
#     4  11  22  36  57  86 126 170 211 261 310 360
#     4  10  22  43  70  92 114 156 212 261 306 370
#     4  11  21  37  61  87 122 162 205 251 306 368
#
# _framework density 19.345337000000001
#
# number of rings (size 3 to 8) (size 9 to 14) (size 15 to 20)
#    0.000    1.444    1.111    7.333    1.556    4.889 
#    0.000    4.444    0.000    2.667    0.000    0.000 
#    0.000    0.000    0.000    0.000    0.000    0.000 
#
# Total GULP energy -200419.356484 kJ/mol
# GULP energy per Si atom -5567.204347 kJ/mol
# Density = 1.930131 g / cm^3
# Si number density = 19.345337 Si / 1000 Ang^3
#
#
#
# Elastic Constant Matrix: (Units=GPa)
#
#
# Indices 1 2 3 4 5 6 
#
# 1 110.0202 23.5003 14.8521 0.0000 0.0000 0.0000
# 2 23.5003 92.7651 -4.6276 0.0000 0.0000 0.0000
# 3 14.8521 -4.6276 101.9283 0.0000 0.0000 0.0000
# 4 0.0000 0.0000 0.0000 4.9734 0.0000 0.0000
# 5 0.0000 0.0000 0.0000 0.0000 24.0406 0.0000
# 6 0.0000 0.0000 0.0000 0.0000 0.0000 38.2845
#
#
#
# Elastic Compliance Matrix: (Units=1/GPa)
#
#
# Indices 1 2 3 4 5 6 
#
# 1 0.009848 -0.002572 -0.001552 0.000000 0.000000 0.000000
# 2 -0.002572 0.011476 0.000896 0.000000 0.000000 0.000000
# 3 -0.001552 0.000896 0.010078 0.000000 0.000000 0.000000
# 4 0.000000 0.000000 0.000000 0.201072 0.000000 0.000000
# 5 0.000000 0.000000 0.000000 0.000000 0.041596 0.000000
# 6 0.000000 0.000000 0.000000 0.000000 0.000000 0.026120
#
#
# Mechanical properties :
#
#
# Convention : Reuss Voigt Hill
#
# Bulk Modulus (GPa) = 40.08721 41.35146 40.71933
# Shear Modulus (GPa) = 15.87495 31.52560 23.70027
#
# Velocity S-wave (km/s) = 2.86773 4.04124 3.50396
# Velocity P-wave (km/s) = 5.63312 6.57246 6.12084
#
# Compressibility (1/GPa) = 0.02494562
#
# Stress axis : x y z
#
# Youngs Moduli (GPa) = 101.54181 87.13657 99.22991
#
# Poissons Ratio (x) = 0.22414 0.15398
# Poissons Ratio (y) = 0.26119 -0.08889
# Poissons Ratio (z) = 0.15757 -0.07806
#
# Static dielectric constant tensor:
#      x y z
#    x 1.713780 0.000000 0.000000 
#    y 0.000000 1.699180 0.000000 
#    z 0.000000 0.000000 1.722970 
# 
# From -- ./inp_files/45588.got.cif
#   From: 2010.05.17/outbox.cif.g08.bks.cpg/sg69_23_cif.got.tgz:45588.got - 2010.06.03 19:29:58.
