data_PCOD9512853
_publ_section_title
;
Structure prediction by ZEFSAII (Michael W. Deem and Ramdas Pophale) SiO2 
 PCOD9512853
Probable space group: F M M M
;
_chemical_formula_sum "Si O2"
_cell_formula_units_Z 104
_cell_length_a 13.505065
_cell_length_b 14.679687
_cell_length_c 25.107030
_cell_angle_alpha 90.000000
_cell_angle_beta 90.000000
_cell_angle_gamma 90.000000
_cell_volume 4977.471889
_symmetry_space_group_name_H-M "F M M M"
_symmetry_group_IT_number 69
_symmetry_cell_setting 'orthorhombic'
loop_
_space_group_symop_operation_xyz
x,y,z
-x,-y,z
x,-y,-z
-x,y,-z
-x,-y,-z
x,y,-z
-x,y,z
x,-y,z
x,1/2+y,1/2+z
-x,1/2-y,1/2+z
x,1/2-y,1/2-z
-x,1/2+y,1/2-z
-x,1/2-y,1/2-z
x,1/2+y,1/2-z
-x,1/2+y,1/2+z
x,1/2-y,1/2+z
1/2+x,y,1/2+z
1/2-x,-y,1/2+z
1/2+x,-y,1/2-z
1/2-x,y,1/2-z
1/2-x,-y,1/2-z
1/2+x,y,1/2-z
1/2-x,y,1/2+z
1/2+x,-y,1/2+z
1/2+x,1/2+y,z
1/2-x,1/2-y,z
1/2+x,1/2-y,-z
1/2-x,1/2+y,-z
1/2-x,1/2-y,-z
1/2+x,1/2+y,-z
1/2-x,1/2+y,z
1/2+x,1/2-y,z
loop_
_atom_site_type_symbol
_atom_site_label
_atom_site_fract_x
_atom_site_fract_y
_atom_site_fract_z
Si Si1 0.750000 0.500000 0.750000
Si Si2 0.215458 0.851845 0.830596
Si Si3 0.000000 0.106886 0.851360
Si Si4 0.310347 0.606730 0.560399
Si Si5 0.000000 0.263945 0.061537
O O1 0.724791 0.420929 0.705676
O O2 0.250000 0.750000 0.820779
O O3 0.100437 0.873158 0.819231
O O4 0.232747 0.873654 0.893062
O O5 0.000000 0.177950 0.899871
O O6 0.000000 0.000000 0.866409
O O7 0.273336 0.624124 0.500000
O O8 0.338976 0.500000 0.562796
O O9 0.403924 0.672284 0.570044
O O10 0.000000 0.235092 0.000000
#
# Coordination Sequence:
#
# PCOD9512853 Si02
#       5
#     8  32  16  32  16
#     4  12  26  50  70  98 132 182 234 292 350 406
#     4  12  25  46  73  99 138 185 234 289 349 420
#     4  12  24  44  68 102 144 178 226 295 347 411
#     4  10  20  39  68 102 139 183 230 285 348 416
#     4  10  21  37  66 105 145 182 231 282 344 426
#
# _framework density 20.89414
#
# number of rings (size 3 to 8) (size 9 to 14) (size 15 to 20)
#    0.000    0.923    6.154    0.923    0.000    4.000 
#    0.000    7.692    0.000    0.000    0.000    0.000 
#    0.000    0.000    0.000    0.000    0.000    0.000 
#
# Total GULP energy -144813.692798 kJ/mol
# GULP energy per Si atom -5569.757415 kJ/mol
# Density = 2.084658 g / cm^3
# Si number density = 20.894140 Si / 1000 Ang^3
#
#
#
# Elastic Constant Matrix: (Units=GPa)
#
#
# Indices 1 2 3 4 5 6 
#
# 1 55.7765 14.5633 10.5651 0.0000 0.0000 0.0000
# 2 14.5633 213.7656 44.6257 0.0000 0.0000 0.0000
# 3 10.5651 44.6257 76.4089 0.0000 0.0000 0.0000
# 4 0.0000 0.0000 0.0000 -7.5215 0.0000 0.0000
# 5 0.0000 0.0000 0.0000 0.0000 11.0627 0.0000
# 6 0.0000 0.0000 0.0000 0.0000 0.0000 12.2442
#
#
#
# Elastic Compliance Matrix: (Units=1/GPa)
#
#
# Indices 1 2 3 4 5 6 
#
# 1 0.018539 -0.000829 -0.002079 0.000000 0.000000 0.000000
# 2 -0.000829 0.005365 -0.003019 0.000000 0.000000 0.000000
# 3 -0.002079 -0.003019 0.015138 0.000000 0.000000 0.000000
# 4 0.000000 0.000000 0.000000 -0.132953 0.000000 0.000000
# 5 0.000000 0.000000 0.000000 0.000000 0.090394 0.000000
# 6 0.000000 0.000000 0.000000 0.000000 0.000000 0.081671
#
#
# Mechanical properties :
#
#
# Convention : Reuss Voigt Hill
#
# Bulk Modulus (GPa) = 36.78085 53.93991 45.36038
# Shear Modulus (GPa) = 50.46946 21.57021 36.01983
#
# Velocity S-wave (km/s) = 4.92009 3.21652 4.15652
# Velocity P-wave (km/s) = 7.06527 6.29813 6.69270
#
# Compressibility (1/GPa) = 0.02718806
#
# Stress axis : x y z
#
# Youngs Moduli (GPa) = 53.94033 186.40560 66.05923
#
# Poissons Ratio (x) = 0.15452 0.13736
# Poissons Ratio (y) = 0.04471 0.19940
# Poissons Ratio (z) = 0.11216 0.56267
#
# Static dielectric constant tensor:
#      x y z
#    x 1.822600 0.000000 0.000000 
#    y 0.000000 1.711420 0.000000 
#    z 0.000000 0.000000 1.779770 
# 
# From -- ./inp_files/35517.got.cif
#   From: 2010.05.17/outbox.cif.g08.bks.cpg/sg69_18_cif.got.tgz:35517.got - 2010.06.03 19:29:58.
