data_PCOD9512317
_publ_section_title
;
Structure prediction by ZEFSAII (Michael W. Deem and Ramdas Pophale) SiO2 
 PCOD9512317
Probable space group: F M M M
;
_chemical_formula_sum "Si O2"
_cell_formula_units_Z 160
_cell_length_a 27.163224
_cell_length_b 18.412557
_cell_length_c 21.695731
_cell_angle_alpha 90.000000
_cell_angle_beta 90.000000
_cell_angle_gamma 90.000000
_cell_volume 10850.998585
_symmetry_space_group_name_H-M "F M M M"
_symmetry_group_IT_number 69
_symmetry_cell_setting 'orthorhombic'
loop_
_space_group_symop_operation_xyz
x,y,z
-x,-y,z
x,-y,-z
-x,y,-z
-x,-y,-z
x,y,-z
-x,y,z
x,-y,z
x,1/2+y,1/2+z
-x,1/2-y,1/2+z
x,1/2-y,1/2-z
-x,1/2+y,1/2-z
-x,1/2-y,1/2-z
x,1/2+y,1/2-z
-x,1/2+y,1/2+z
x,1/2-y,1/2+z
1/2+x,y,1/2+z
1/2-x,-y,1/2+z
1/2+x,-y,1/2-z
1/2-x,y,1/2-z
1/2-x,-y,1/2-z
1/2+x,y,1/2-z
1/2-x,y,1/2+z
1/2+x,-y,1/2+z
1/2+x,1/2+y,z
1/2-x,1/2-y,z
1/2+x,1/2-y,-z
1/2-x,1/2+y,-z
1/2-x,1/2-y,-z
1/2+x,1/2+y,-z
1/2-x,1/2+y,z
1/2+x,1/2-y,z
loop_
_atom_site_type_symbol
_atom_site_label
_atom_site_fract_x
_atom_site_fract_y
_atom_site_fract_z
Si Si1 0.443401 0.586867 0.861444
Si Si2 0.190954 0.416756 0.500000
Si Si3 0.138633 0.824948 0.213953
Si Si4 0.727784 0.325923 0.884410
Si Si5 0.426739 0.917065 0.500000
Si Si6 0.294786 0.918452 0.200951
O O1 0.500000 0.592008 0.840028
O O2 0.429265 0.500000 0.860085
O O3 0.405985 0.635788 0.821973
O O4 0.441979 0.612366 0.933207
O O5 0.208542 0.500000 0.500000
O O6 0.207945 0.374666 0.439503
O O7 0.132067 0.417770 0.500000
O O8 0.126958 0.750000 0.250000
O O9 0.183800 0.812942 0.165326
O O10 0.160244 0.880593 0.264495
O O11 0.750000 0.250000 0.906152
O O12 0.772208 0.368890 0.851959
O O13 0.445081 0.000000 0.500000
O O14 0.250000 0.922712 0.250000
O O15 0.306402 0.000000 0.180600
#
# Coordination Sequence:
#
# PCOD9512317 Si02
#       6
#    32  16  32  32  16  32
#     4  10  20  34  53  75  99 128 164 208 256 303
#     4  11  21  32  51  75 101 131 167 205 245 297
#     4  11  20  32  50  70 100 133 168 207 246 296
#     4  11  20  33  49  71 100 135 167 202 249 294
#     4   9  17  31  50  72  97 125 155 197 250 298
#     4   9  18  29  46  68  94 130 170 205 237 283
#
# _framework density 14.745187
#
# number of rings (size 3 to 8) (size 9 to 14) (size 15 to 20)
#    0.000    1.800    4.000    1.800    0.000    3.200 
#    0.000    0.000    0.000    0.000    0.000    0.000 
#    0.000    0.000    0.000    0.000    0.000   25.200 
#
# Total GULP energy -222875.379513 kJ/mol
# GULP energy per Si atom -5571.884488 kJ/mol
# Density = 1.471163 g / cm^3
# Si number density = 14.745187 Si / 1000 Ang^3
#
#
#
# Elastic Constant Matrix: (Units=GPa)
#
#
# Indices 1 2 3 4 5 6 
#
# 1 85.4842 45.6056 42.1512 0.0000 0.0000 0.0000
# 2 45.6056 112.4967 43.9693 0.0000 0.0000 0.0000
# 3 42.1512 43.9693 78.7828 0.0000 0.0000 0.0000
# 4 0.0000 0.0000 0.0000 25.0025 0.0000 0.0000
# 5 0.0000 0.0000 0.0000 0.0000 32.9041 0.0000
# 6 0.0000 0.0000 0.0000 0.0000 0.0000 17.2245
#
#
#
# Elastic Compliance Matrix: (Units=1/GPa)
#
#
# Indices 1 2 3 4 5 6 
#
# 1 0.017425 -0.004374 -0.006882 0.000000 0.000000 0.000000
# 2 -0.004374 0.012467 -0.004618 0.000000 0.000000 0.000000
# 3 -0.006882 -0.004618 0.018952 0.000000 0.000000 0.000000
# 4 0.000000 0.000000 0.000000 0.039996 0.000000 0.000000
# 5 0.000000 0.000000 0.000000 0.000000 0.030391 0.000000
# 6 0.000000 0.000000 0.000000 0.000000 0.000000 0.058057
#
#
# Mechanical properties :
#
#
# Convention : Reuss Voigt Hill
#
# Bulk Modulus (GPa) = 58.48892 60.02400 59.25646
# Shear Modulus (GPa) = 23.28452 24.69539 23.98995
#
# Velocity S-wave (km/s) = 3.97813 4.09688 4.03795
# Velocity P-wave (km/s) = 7.80085 7.94828 7.87491
#
# Compressibility (1/GPa) = 0.01709726
#
# Stress axis : x y z
#
# Youngs Moduli (GPa) = 57.38891 80.20975 52.76459
#
# Poissons Ratio (x) = 0.35087 0.36310
# Poissons Ratio (y) = 0.25104 0.24365
# Poissons Ratio (z) = 0.39492 0.37038
#
# Static dielectric constant tensor:
#      x y z
#    x 1.475980 0.000000 0.000000 
#    y 0.000000 1.492520 0.000000 
#    z 0.000000 0.000000 1.488540 
# 
# From -- ./inp_files/23231.got.cif
#   From: 2010.05.17/outbox.cif.g08.bks.cpg/sg69_12_cif.got.tgz:23231.got - 2010.06.03 19:29:58.
