data_PCOD9512125
_publ_section_title
;
Structure prediction by ZEFSAII (Michael W. Deem and Ramdas Pophale) SiO2 
 PCOD9512125
Probable space group: F M M M
;
_chemical_formula_sum "Si O2"
_cell_formula_units_Z 192
_cell_length_a 14.869657
_cell_length_b 26.763241
_cell_length_c 26.833495
_cell_angle_alpha 90.000000
_cell_angle_beta 90.000000
_cell_angle_gamma 90.000000
_cell_volume 10678.663409
_symmetry_space_group_name_H-M "F M M M"
_symmetry_group_IT_number 69
_symmetry_cell_setting 'orthorhombic'
loop_
_space_group_symop_operation_xyz
x,y,z
-x,-y,z
x,-y,-z
-x,y,-z
-x,-y,-z
x,y,-z
-x,y,z
x,-y,z
x,1/2+y,1/2+z
-x,1/2-y,1/2+z
x,1/2-y,1/2-z
-x,1/2+y,1/2-z
-x,1/2-y,1/2-z
x,1/2+y,1/2-z
-x,1/2+y,1/2+z
x,1/2-y,1/2+z
1/2+x,y,1/2+z
1/2-x,-y,1/2+z
1/2+x,-y,1/2-z
1/2-x,y,1/2-z
1/2-x,-y,1/2-z
1/2+x,y,1/2-z
1/2-x,y,1/2+z
1/2+x,-y,1/2+z
1/2+x,1/2+y,z
1/2-x,1/2-y,z
1/2+x,1/2-y,-z
1/2-x,1/2+y,-z
1/2-x,1/2-y,-z
1/2+x,1/2+y,-z
1/2-x,1/2+y,z
1/2+x,1/2-y,z
loop_
_atom_site_type_symbol
_atom_site_label
_atom_site_fract_x
_atom_site_fract_y
_atom_site_fract_z
Si Si1 0.730750 0.370913 0.356506
Si Si2 0.198642 0.440734 0.557380
Si Si3 0.605728 0.295223 0.681716
Si Si4 0.000000 0.059949 0.912589
Si Si5 0.845125 0.055991 0.722709
Si Si6 0.500000 0.439230 0.797553
Si Si7 0.392540 0.678655 0.796156
O O1 0.753040 0.402328 0.405695
O O2 0.669846 0.321376 0.358275
O O3 0.670568 0.408180 0.323115
O O4 0.822126 0.354635 0.327367
O O5 0.227457 0.437175 0.500000
O O6 0.207455 0.500000 0.572711
O O7 0.093054 0.426482 0.561528
O O8 0.500000 0.305869 0.673879
O O9 0.630000 0.316419 0.737128
O O10 0.617076 0.235684 0.684133
O O11 0.000000 0.076291 0.854931
O O12 0.000000 0.000000 0.912631
O O13 0.750000 0.052631 0.750000
O O14 0.915073 0.074509 0.763881
O O15 0.872357 0.000000 0.707042
O O16 0.500000 0.500000 0.800197
O O17 0.500000 0.666861 0.800170
#
# Coordination Sequence:
#
# PCOD9512125 Si02
#       7
#    32  32  32  16  32  16  32
#     4  12  21  31  55  81 103 143 188 230 271 324
#     4  10  22  39  56  76 106 144 191 244 287 324
#     4   9  19  35  54  79 114 151 184 217 260 327
#     4   9  17  32  53  74 101 143 181 213 272 339
#     4  10  20  32  44  71 112 148 178 213 262 327
#     4   9  18  31  48  71 110 148 172 211 268 331
#     4   9  19  35  53  80 117 149 178 216 268 334
#
# _framework density 17.979778
#
# number of rings (size 3 to 8) (size 9 to 14) (size 15 to 20)
#    0.000    2.167    0.000    4.750    2.333    5.000 
#    1.500    0.000    0.000    2.500    0.000    3.500 
#    0.000    0.000    0.000    0.000    0.000    0.000 
#
# Total GULP energy -267880.658454 kJ/mol
# GULP energy per Si atom -5580.847051 kJ/mol
# Density = 1.793886 g / cm^3
# Si number density = 17.979778 Si / 1000 Ang^3
#
#
#
# Elastic Constant Matrix: (Units=GPa)
#
#
# Indices 1 2 3 4 5 6 
#
# 1 85.0644 33.8845 41.2812 0.0000 0.0000 0.0000
# 2 33.8845 86.7617 44.2361 0.0000 0.0000 0.0000
# 3 41.2812 44.2361 83.6840 0.0000 0.0000 0.0000
# 4 0.0000 0.0000 0.0000 28.2287 0.0000 0.0000
# 5 0.0000 0.0000 0.0000 0.0000 18.2309 0.0000
# 6 0.0000 0.0000 0.0000 0.0000 0.0000 34.4548
#
#
#
# Elastic Compliance Matrix: (Units=1/GPa)
#
#
# Indices 1 2 3 4 5 6 
#
# 1 0.016024 -0.003050 -0.006293 0.000000 0.000000 0.000000
# 2 -0.003050 0.016359 -0.007143 0.000000 0.000000 0.000000
# 3 -0.006293 -0.007143 0.018830 0.000000 0.000000 0.000000
# 4 0.000000 0.000000 0.000000 0.035425 0.000000 0.000000
# 5 0.000000 0.000000 0.000000 0.000000 0.054852 0.000000
# 6 0.000000 0.000000 0.000000 0.000000 0.000000 0.029024
#
#
# Mechanical properties :
#
#
# Convention : Reuss Voigt Hill
#
# Bulk Modulus (GPa) = 54.81845 54.92374 54.87109
# Shear Modulus (GPa) = 23.85897 25.25678 24.55787
#
# Velocity S-wave (km/s) = 3.64674 3.75204 3.69976
# Velocity P-wave (km/s) = 6.94887 7.02739 6.98824
#
# Compressibility (1/GPa) = 0.01824203
#
# Stress axis : x y z
#
# Youngs Moduli (GPa) = 62.40452 61.12910 53.10782
#
# Poissons Ratio (x) = 0.18644 0.33419
# Poissons Ratio (y) = 0.19033 0.37934
# Poissons Ratio (z) = 0.39269 0.43664
#
# Static dielectric constant tensor:
#      x y z
#    x 1.646550 0.000000 0.000000 
#    y 0.000000 1.732790 0.000000 
#    z 0.000000 0.000000 1.578820 
# 
# From -- ./inp_files/41306.got.cif
#   From: 2010.05.17/outbox.cif.g08.bks.cpg/sg69_21_cif.got.tgz:41306.got - 2010.06.03 19:29:58.
