data_PCOD9512349
_publ_section_title
;
Structure prediction by ZEFSAII (Michael W. Deem and Ramdas Pophale) SiO2 
 PCOD9512349
Probable space group: F M M M
;
_chemical_formula_sum "Si O2"
_cell_formula_units_Z 192
_cell_length_a 31.490026
_cell_length_b 19.867898
_cell_length_c 18.160161
_cell_angle_alpha 90.000000
_cell_angle_beta 90.000000
_cell_angle_gamma 90.000000
_cell_volume 11361.734471
_symmetry_space_group_name_H-M "F M M M"
_symmetry_group_IT_number 69
_symmetry_cell_setting 'orthorhombic'
loop_
_space_group_symop_operation_xyz
x,y,z
-x,-y,z
x,-y,-z
-x,y,-z
-x,-y,-z
x,y,-z
-x,y,z
x,-y,z
x,1/2+y,1/2+z
-x,1/2-y,1/2+z
x,1/2-y,1/2-z
-x,1/2+y,1/2-z
-x,1/2-y,1/2-z
x,1/2+y,1/2-z
-x,1/2+y,1/2+z
x,1/2-y,1/2+z
1/2+x,y,1/2+z
1/2-x,-y,1/2+z
1/2+x,-y,1/2-z
1/2-x,y,1/2-z
1/2-x,-y,1/2-z
1/2+x,y,1/2-z
1/2-x,y,1/2+z
1/2+x,-y,1/2+z
1/2+x,1/2+y,z
1/2-x,1/2-y,z
1/2+x,1/2-y,-z
1/2-x,1/2+y,-z
1/2-x,1/2-y,-z
1/2+x,1/2+y,-z
1/2-x,1/2+y,z
1/2+x,1/2-y,z
loop_
_atom_site_type_symbol
_atom_site_label
_atom_site_fract_x
_atom_site_fract_y
_atom_site_fract_z
Si Si1 0.000000 0.193133 0.352159
Si Si2 0.700937 0.323752 0.226639
Si Si3 0.405518 0.678593 0.586731
Si Si4 0.085653 0.922783 0.853254
Si Si5 0.852051 0.315006 0.414978
Si Si6 0.363819 0.077402 0.200194
Si Si7 0.000000 0.649614 0.687620
O O1 0.955603 0.181671 0.394113
O O2 0.000000 0.271926 0.332017
O O3 0.000000 0.149378 0.276864
O O4 0.684654 0.250000 0.250000
O O5 0.750000 0.326821 0.250000
O O6 0.687263 0.325910 0.140891
O O7 0.676913 0.382141 0.270507
O O8 0.400500 0.667088 0.500000
O O9 0.380482 0.748653 0.604273
O O10 0.384677 0.619703 0.634767
O O11 0.116996 0.878517 0.902838
O O12 0.105040 0.922197 0.770742
O O13 0.040817 0.886425 0.845897
O O14 0.082223 0.000000 0.877625
O O15 0.839006 0.309150 0.500000
O O16 0.354979 0.000000 0.180611
#
# Coordination Sequence:
#
# PCOD9512349 Si02
#       7
#    16  32  32  32  32  32  16
#     4  11  21  32  54  81 110 152 194 251 289 329
#     4  10  20  37  63  91 117 145 184 231 283 348
#     4  11  21  36  55  79 114 154 195 239 286 337
#     4  10  20  34  54  79 112 151 191 237 289 341
#     4  10  21  37  59  84 115 150 190 232 282 344
#     4  10  21  37  58  82 110 148 193 237 285 340
#     4  11  19  30  54  79 110 146 194 249 289 329
#
# _framework density 16.898828999999999
#
# number of rings (size 3 to 8) (size 9 to 14) (size 15 to 20)
#    0.000    1.667    5.000    0.500    0.000    1.000 
#    0.000    3.333    0.000    2.000    0.000    0.000 
#    0.000    0.000    0.000    0.000    0.000    0.000 
#
# Total GULP energy -267631.637248 kJ/mol
# GULP energy per Si atom -5575.659109 kJ/mol
# Density = 1.686037 g / cm^3
# Si number density = 16.898829 Si / 1000 Ang^3
#
#
#
# Elastic Constant Matrix: (Units=GPa)
#
#
# Indices 1 2 3 4 5 6 
#
# 1 97.6983 40.2606 53.9189 0.0000 0.0000 0.0000
# 2 40.2606 127.3167 40.9288 0.0000 0.0000 0.0000
# 3 53.9189 40.9288 89.6790 0.0000 0.0000 0.0000
# 4 0.0000 0.0000 0.0000 16.3577 0.0000 0.0000
# 5 0.0000 0.0000 0.0000 0.0000 11.3101 0.0000
# 6 0.0000 0.0000 0.0000 0.0000 0.0000 43.9307
#
#
#
# Elastic Compliance Matrix: (Units=1/GPa)
#
#
# Indices 1 2 3 4 5 6 
#
# 1 0.015867 -0.002286 -0.008496 0.000000 0.000000 0.000000
# 2 -0.002286 0.009534 -0.002977 0.000000 0.000000 0.000000
# 3 -0.008496 -0.002977 0.017618 0.000000 0.000000 0.000000
# 4 0.000000 0.000000 0.000000 0.061133 0.000000 0.000000
# 5 0.000000 0.000000 0.000000 0.000000 0.088416 0.000000
# 6 0.000000 0.000000 0.000000 0.000000 0.000000 0.022763
#
#
# Mechanical properties :
#
#
# Convention : Reuss Voigt Hill
#
# Bulk Modulus (GPa) = 64.51529 64.99006 64.75267
# Shear Modulus (GPa) = 20.15985 26.29207 23.22596
#
# Velocity S-wave (km/s) = 3.45769 3.94871 3.71133
# Velocity P-wave (km/s) = 7.36214 7.70270 7.53434
#
# Compressibility (1/GPa) = 0.01550020
#
# Stress axis : x y z
#
# Youngs Moduli (GPa) = 63.02469 104.88409 56.76025
#
# Poissons Ratio (x) = 0.23977 0.48226
# Poissons Ratio (y) = 0.14408 0.16897
# Poissons Ratio (z) = 0.53549 0.31223
#
# Static dielectric constant tensor:
#      x y z
#    x 1.555250 0.000000 0.000000 
#    y 0.000000 1.565600 0.000000 
#    z 0.000000 0.000000 1.569290 
# 
# From -- ./inp_files/23687.got.cif
#   From: 2010.05.17/outbox.cif.g08.bks.cpg/sg69_12_cif.got.tgz:23687.got - 2010.06.03 19:29:58.
