data_PCOD9512882
_publ_section_title
;
Structure prediction by ZEFSAII (Michael W. Deem and Ramdas Pophale) SiO2 
 PCOD9512882
Probable space group: F M M M
;
_chemical_formula_sum "Si O2"
_cell_formula_units_Z 160
_cell_length_a 17.742607
_cell_length_b 22.714019
_cell_length_c 19.674066
_cell_angle_alpha 90.000000
_cell_angle_beta 90.000000
_cell_angle_gamma 90.000000
_cell_volume 7928.764921
_symmetry_space_group_name_H-M "F M M M"
_symmetry_group_IT_number 69
_symmetry_cell_setting 'orthorhombic'
loop_
_space_group_symop_operation_xyz
x,y,z
-x,-y,z
x,-y,-z
-x,y,-z
-x,-y,-z
x,y,-z
-x,y,z
x,-y,z
x,1/2+y,1/2+z
-x,1/2-y,1/2+z
x,1/2-y,1/2-z
-x,1/2+y,1/2-z
-x,1/2-y,1/2-z
x,1/2+y,1/2-z
-x,1/2+y,1/2+z
x,1/2-y,1/2+z
1/2+x,y,1/2+z
1/2-x,-y,1/2+z
1/2+x,-y,1/2-z
1/2-x,y,1/2-z
1/2-x,-y,1/2-z
1/2+x,y,1/2-z
1/2-x,y,1/2+z
1/2+x,-y,1/2+z
1/2+x,1/2+y,z
1/2-x,1/2-y,z
1/2+x,1/2-y,-z
1/2-x,1/2+y,-z
1/2-x,1/2-y,-z
1/2+x,1/2+y,-z
1/2-x,1/2+y,z
1/2+x,1/2-y,z
loop_
_atom_site_type_symbol
_atom_site_label
_atom_site_fract_x
_atom_site_fract_y
_atom_site_fract_z
Si Si1 0.587588 0.811289 0.500000
Si Si2 0.585937 0.619457 0.274742
Si Si3 0.143652 0.879349 0.131559
Si Si4 0.179382 0.000000 0.697030
Si Si5 0.289149 0.185389 0.849633
Si Si6 0.680409 0.296255 0.500000
Si Si7 0.295537 0.500000 0.079899
O O1 0.500000 0.825348 0.500000
O O2 0.624434 0.837366 0.568345
O O3 0.605083 0.742250 0.500000
O O4 0.500000 0.620806 0.300027
O O5 0.585864 0.623535 0.192987
O O6 0.628464 0.558131 0.292324
O O7 0.637724 0.671966 0.305021
O O8 0.222286 0.859656 0.165642
O O9 0.156249 0.943398 0.101177
O O10 0.250000 0.000000 0.750000
O O11 0.219032 0.000000 0.623565
O O12 0.250000 0.250000 0.843241
O O13 0.311295 0.172362 0.928195
O O14 0.750000 0.250000 0.500000
O O15 0.280840 0.500000 0.000000
#
# Coordination Sequence:
#
# PCOD9512882 Si02
#       7
#    16  32  32  16  32  16  16
#     4  12  24  41  65  96 133 169 209 276 339 374
#     4  12  26  42  65 101 137 171 216 279 335 382
#     4  12  22  43  66  95 131 174 218 259 321 403
#     4  12  21  44  73  93 129 178 221 260 322 404
#     4  11  22  42  71  94 127 173 230 264 314 397
#     4  10  20  42  66  92 121 174 224 260 314 394
#     4  12  24  38  73 103 120 163 224 267 307 388
#
# _framework density 20.179687000000001
#
# number of rings (size 3 to 8) (size 9 to 14) (size 15 to 20)
#    0.000    0.400    9.000    1.500    0.000    2.400 
#    0.000    3.000    0.000    0.600    0.000    0.000 
#    0.000    0.000    0.000    0.000    0.000    0.000 
#
# Total GULP energy -223525.848382 kJ/mol
# GULP energy per Si atom -5588.146210 kJ/mol
# Density = 2.013376 g / cm^3
# Si number density = 20.179687 Si / 1000 Ang^3
#
#
#
# Elastic Constant Matrix: (Units=GPa)
#
#
# Indices 1 2 3 4 5 6 
#
# 1 138.9295 32.3640 42.5676 0.0000 0.0000 0.0000
# 2 32.3640 66.3305 8.7317 0.0000 0.0000 0.0000
# 3 42.5676 8.7317 128.4602 0.0000 0.0000 0.0000
# 4 0.0000 0.0000 0.0000 28.6826 0.0000 0.0000
# 5 0.0000 0.0000 0.0000 0.0000 21.0958 0.0000
# 6 0.0000 0.0000 0.0000 0.0000 0.0000 18.3120
#
#
#
# Elastic Compliance Matrix: (Units=1/GPa)
#
#
# Indices 1 2 3 4 5 6 
#
# 1 0.008960 -0.004017 -0.002696 0.000000 0.000000 0.000000
# 2 -0.004017 0.017013 0.000175 0.000000 0.000000 0.000000
# 3 -0.002696 0.000175 0.008666 0.000000 0.000000 0.000000
# 4 0.000000 0.000000 0.000000 0.034864 0.000000 0.000000
# 5 0.000000 0.000000 0.000000 0.000000 0.047403 0.000000
# 6 0.000000 0.000000 0.000000 0.000000 0.000000 0.054609
#
#
# Mechanical properties :
#
#
# Convention : Reuss Voigt Hill
#
# Bulk Modulus (GPa) = 46.37685 55.67184 51.02435
# Shear Modulus (GPa) = 26.07179 30.28853 28.18016
#
# Velocity S-wave (km/s) = 3.59831 3.87840 3.74098
# Velocity P-wave (km/s) = 6.34789 6.90680 6.63324
#
# Compressibility (1/GPa) = 0.02156248
#
# Stress axis : x y z
#
# Youngs Moduli (GPa) = 111.61200 58.77903 115.39376
#
# Poissons Ratio (x) = 0.23610 0.31109
# Poissons Ratio (y) = 0.44831 -0.02015
# Poissons Ratio (z) = 0.30090 -0.01026
#
# Static dielectric constant tensor:
#      x y z
#    x 1.736620 0.000000 0.000000 
#    y 0.000000 1.535800 0.000000 
#    z 0.000000 0.000000 1.730090 
# 
# From -- ./inp_files/31074.got.cif
#   From: 2010.05.17/outbox.cif.g08.bks.cpg/sg69_16_cif.got.tgz:31074.got - 2010.06.03 19:29:58.
