data_PCOD9512505
_publ_section_title
;
Structure prediction by ZEFSAII (Michael W. Deem and Ramdas Pophale) SiO2 
 PCOD9512505
Probable space group: F M M M
;
_chemical_formula_sum "Si O2"
_cell_formula_units_Z 232
_cell_length_a 28.727726
_cell_length_b 27.842872
_cell_length_c 17.909564
_cell_angle_alpha 90.000000
_cell_angle_beta 90.000000
_cell_angle_gamma 90.000000
_cell_volume 14325.186806
_symmetry_space_group_name_H-M "F M M M"
_symmetry_group_IT_number 69
_symmetry_cell_setting 'orthorhombic'
loop_
_space_group_symop_operation_xyz
x,y,z
-x,-y,z
x,-y,-z
-x,y,-z
-x,-y,-z
x,y,-z
-x,y,z
x,-y,z
x,1/2+y,1/2+z
-x,1/2-y,1/2+z
x,1/2-y,1/2-z
-x,1/2+y,1/2-z
-x,1/2-y,1/2-z
x,1/2+y,1/2-z
-x,1/2+y,1/2+z
x,1/2-y,1/2+z
1/2+x,y,1/2+z
1/2-x,-y,1/2+z
1/2+x,-y,1/2-z
1/2-x,y,1/2-z
1/2-x,-y,1/2-z
1/2+x,y,1/2-z
1/2-x,y,1/2+z
1/2+x,-y,1/2+z
1/2+x,1/2+y,z
1/2-x,1/2-y,z
1/2+x,1/2-y,-z
1/2-x,1/2+y,-z
1/2-x,1/2-y,-z
1/2+x,1/2+y,-z
1/2-x,1/2+y,z
1/2+x,1/2-y,z
loop_
_atom_site_type_symbol
_atom_site_label
_atom_site_fract_x
_atom_site_fract_y
_atom_site_fract_z
Si Si1 0.140770 0.766121 0.168076
Si Si2 0.145179 0.420598 0.868413
Si Si3 0.194170 0.320586 0.912263
Si Si4 0.052500 0.761410 0.589643
Si Si5 0.341886 0.000000 0.000000
Si Si6 0.781980 0.154122 0.174319
Si Si7 0.054200 0.126424 0.410366
Si Si8 0.802340 0.052189 0.782130
O O1 0.126109 0.750000 0.250000
O O2 0.171851 0.724201 0.130744
O O3 0.093747 0.770852 0.120916
O O4 0.173519 0.811980 0.177534
O O5 0.169602 0.369810 0.886730
O O6 0.156791 0.458147 0.933739
O O7 0.090331 0.408489 0.870419
O O8 0.164200 0.438003 0.788564
O O9 0.247940 0.327673 0.890477
O O10 0.187370 0.313909 0.000000
O O11 0.052729 0.759780 0.500000
O O12 0.062113 0.817511 0.609690
O O13 0.000000 0.749518 0.615004
O O14 0.750000 0.157471 0.250000
O O15 0.799375 0.099373 0.166834
O O16 0.062054 0.122255 0.500000
O O17 0.000000 0.115554 0.396419
O O18 0.750000 0.049216 0.750000
O O19 0.813337 0.000000 0.816149
#
# Coordination Sequence:
#
# PCOD9512505 Si02
#       8
#    32  32  32  32   8  32  32  32
#     4  12  22  33  55  77 108 146 176 219 269 328
#     4  12  19  34  51  78 108 140 185 226 267 315
#     4  12  23  36  55  78 110 145 184 224 273 323
#     4   9  19  35  54  77 103 139 183 226 275 328
#     4  12  24  28  51  84 110 140 182 248 261 306
#     4  11  22  38  52  78 109 144 181 222 269 322
#     4   9  17  31  51  73 104 141 175 215 267 321
#     4  10  20  35  57  74  98 144 188 217 264 322
#
# _framework density 16.195252
#
# number of rings (size 3 to 8) (size 9 to 14) (size 15 to 20)
#    0.000    1.241    7.586    1.655    0.000    1.931 
#    0.000    0.690    0.000    0.000    0.000    0.000 
#    0.000    0.000    0.000    1.517    0.000    0.000 
#
# Total GULP energy -322986.722640 kJ/mol
# GULP energy per Si atom -5568.736597 kJ/mol
# Density = 1.615839 g / cm^3
# Si number density = 16.195252 Si / 1000 Ang^3
#
#
#
# Elastic Constant Matrix: (Units=GPa)
#
#
# Indices 1 2 3 4 5 6 
#
# 1 91.3759 27.3360 8.9728 0.0000 0.0000 0.0000
# 2 27.3360 80.3116 7.0920 0.0000 0.0000 0.0000
# 3 8.9728 7.0920 25.2602 0.0000 0.0000 0.0000
# 4 0.0000 0.0000 0.0000 -0.3538 0.0000 0.0000
# 5 0.0000 0.0000 0.0000 0.0000 27.6172 0.0000
# 6 0.0000 0.0000 0.0000 0.0000 0.0000 18.8957
#
#
#
# Elastic Compliance Matrix: (Units=1/GPa)
#
#
# Indices 1 2 3 4 5 6 
#
# 1 0.012449 -0.003945 -0.003315 0.000000 0.000000 0.000000
# 2 -0.003945 0.014018 -0.002534 0.000000 0.000000 0.000000
# 3 -0.003315 -0.002534 0.041477 0.000000 0.000000 0.000000
# 4 0.000000 0.000000 0.000000 -2.826080 0.000000 0.000000
# 5 0.000000 0.000000 0.000000 0.000000 0.036209 0.000000
# 6 0.000000 0.000000 0.000000 0.000000 0.000000 0.052922
#
#
# Mechanical properties :
#
#
# Convention : Reuss Voigt Hill
#
# Bulk Modulus (GPa) = 20.67969 31.52770 26.10370
# Shear Modulus (GPa) = -1.89876 19.46828 8.78476
#
# Velocity S-wave (km/s) = -1.08396 3.47089 2.33153
# Velocity P-wave (km/s) = 3.35113 5.96425 4.83748
#
# Compressibility (1/GPa) = 0.04835662
#
# Stress axis : x y z
#
# Youngs Moduli (GPa) = 80.32513 71.33686 24.10978
#
# Poissons Ratio (x) = 0.28141 0.07992
# Poissons Ratio (y) = 0.31686 0.06110
# Poissons Ratio (z) = 0.26625 0.18080
#
# Static dielectric constant tensor:
#      x y z
#    x 1.569950 0.000000 0.000000 
#    y 0.000000 1.561960 0.000000 
#    z 0.000000 0.000000 1.542630 
# 
# From -- ./inp_files/28091.got.cif
#   From: 2010.05.17/outbox.cif.g08.bks.cpg/sg69_15_cif.got.tgz:28091.got - 2010.06.03 19:29:58.
