data_PCOD9512111
_publ_section_title
;
Structure prediction by ZEFSAII (Michael W. Deem and Ramdas Pophale) SiO2 
 PCOD9512111
Probable space group: F M M M
;
_chemical_formula_sum "Si O2"
_cell_formula_units_Z 176
_cell_length_a 16.234900
_cell_length_b 34.392298
_cell_length_c 16.873208
_cell_angle_alpha 90.000000
_cell_angle_beta 90.000000
_cell_angle_gamma 90.000000
_cell_volume 9421.248807
_symmetry_space_group_name_H-M "F M M M"
_symmetry_group_IT_number 69
_symmetry_cell_setting 'orthorhombic'
loop_
_space_group_symop_operation_xyz
x,y,z
-x,-y,z
x,-y,-z
-x,y,-z
-x,-y,-z
x,y,-z
-x,y,z
x,-y,z
x,1/2+y,1/2+z
-x,1/2-y,1/2+z
x,1/2-y,1/2-z
-x,1/2+y,1/2-z
-x,1/2-y,1/2-z
x,1/2+y,1/2-z
-x,1/2+y,1/2+z
x,1/2-y,1/2+z
1/2+x,y,1/2+z
1/2-x,-y,1/2+z
1/2+x,-y,1/2-z
1/2-x,y,1/2-z
1/2-x,-y,1/2-z
1/2+x,y,1/2-z
1/2-x,y,1/2+z
1/2+x,-y,1/2+z
1/2+x,1/2+y,z
1/2-x,1/2-y,z
1/2+x,1/2-y,-z
1/2-x,1/2+y,-z
1/2-x,1/2-y,-z
1/2+x,1/2+y,-z
1/2-x,1/2+y,z
1/2+x,1/2-y,z
loop_
_atom_site_type_symbol
_atom_site_label
_atom_site_fract_x
_atom_site_fract_y
_atom_site_fract_z
Si Si1 0.335953 0.181803 0.706332
Si Si2 0.000000 0.452719 0.090253
Si Si3 0.758773 0.621138 0.591553
Si Si4 0.407067 0.666195 0.370663
Si Si5 0.597906 0.743950 0.086993
Si Si6 0.819793 0.544441 0.097011
O O1 0.250000 0.190287 0.750000
O O2 0.317558 0.146480 0.646600
O O3 0.398252 0.169735 0.775572
O O4 0.362593 0.218996 0.656263
O O5 0.911270 0.443276 0.126564
O O6 0.000000 0.500000 0.085353
O O7 0.000000 0.437543 0.000000
O O8 0.784672 0.622201 0.500000
O O9 0.667015 0.639807 0.597974
O O10 0.746559 0.576737 0.619260
O O11 0.500000 0.654082 0.392754
O O12 0.392032 0.710009 0.401675
O O13 0.500000 0.736564 0.088738
O O14 0.630505 0.732678 0.000000
O O15 0.802696 0.500000 0.120726
O O16 0.824280 0.544718 0.000000
#
# Coordination Sequence:
#
# PCOD9512111 Si02
#       6
#    32  16  32  32  32  32
#     4  10  21  35  49  68  98 133 166 194 234 292
#     4   7  10  18  34  58  88 120 149 178 221 279
#     4  10  20  31  48  74 101 127 156 200 246 286
#     4  10  21  35  50  69  96 131 166 198 239 291
#     4  10  20  35  55  75  94 120 162 213 252 282
#     4   8  14  25  42  67  97 126 156 193 241 291
#
# _framework density 18.681175
#
# number of rings (size 3 to 8) (size 9 to 14) (size 15 to 20)
#    0.000    2.636    0.000    3.273    1.273    7.636 
#    0.000    4.545    0.000    4.909    0.000    0.000 
#    0.000    2.182    0.000   20.545    0.000    0.000 
#
# Total GULP energy -245474.682439 kJ/mol
# GULP energy per Si atom -5578.970055 kJ/mol
# Density = 1.863866 g / cm^3
# Si number density = 18.681175 Si / 1000 Ang^3
#
#
#
# Elastic Constant Matrix: (Units=GPa)
#
#
# Indices 1 2 3 4 5 6 
#
# 1 19.5649 10.8177 4.9975 0.0000 0.0000 0.0000
# 2 10.8177 63.8398 15.3879 0.0000 0.0000 0.0000
# 3 4.9975 15.3879 69.2619 0.0000 0.0000 0.0000
# 4 0.0000 0.0000 0.0000 -41.3680 0.0000 0.0000
# 5 0.0000 0.0000 0.0000 0.0000 11.4085 0.0000
# 6 0.0000 0.0000 0.0000 0.0000 0.0000 17.2508
#
#
#
# Elastic Compliance Matrix: (Units=1/GPa)
#
#
# Indices 1 2 3 4 5 6 
#
# 1 0.056674 -0.009105 -0.002066 0.000000 0.000000 0.000000
# 2 -0.009105 0.018013 -0.003345 0.000000 0.000000 0.000000
# 3 -0.002066 -0.003345 0.015330 0.000000 0.000000 0.000000
# 4 0.000000 0.000000 0.000000 -0.024173 0.000000 0.000000
# 5 0.000000 0.000000 0.000000 0.000000 0.087654 0.000000
# 6 0.000000 0.000000 0.000000 0.000000 0.000000 0.057968
#
#
# Mechanical properties :
#
#
# Convention : Reuss Voigt Hill
#
# Bulk Modulus (GPa) = 16.39767 23.89699 20.14733
# Shear Modulus (GPa) = 19.16965 5.55581 12.36273
#
# Velocity S-wave (km/s) = 3.20683 1.72640 2.57529
# Velocity P-wave (km/s) = 4.74430 4.09802 4.43295
#
# Compressibility (1/GPa) = 0.06098427
#
# Stress axis : x y z
#
# Youngs Moduli (GPa) = 17.64471 55.51410 65.23068
#
# Poissons Ratio (x) = 0.50548 0.13478
# Poissons Ratio (y) = 0.16066 0.21820
# Poissons Ratio (z) = 0.03646 0.18570
#
# Static dielectric constant tensor:
#      x y z
#    x 1.657860 0.000000 0.000000 
#    y 0.000000 1.656580 0.000000 
#    z 0.000000 0.000000 1.660940 
# 
# From -- ./inp_files/23530.got.cif
#   From: 2010.05.17/outbox.cif.g08.bks.cpg/sg69_12_cif.got.tgz:23530.got - 2010.06.03 19:29:58.
