data_PCOD9512590
_publ_section_title
;
Structure prediction by ZEFSAII (Michael W. Deem and Ramdas Pophale) SiO2 
 PCOD9512590
Probable space group: F M M M
;
_chemical_formula_sum "Si O2"
_cell_formula_units_Z 168
_cell_length_a 27.786028
_cell_length_b 22.315271
_cell_length_c 14.442012
_cell_angle_alpha 90.000000
_cell_angle_beta 90.000000
_cell_angle_gamma 90.000000
_cell_volume 8954.809182
_symmetry_space_group_name_H-M "F M M M"
_symmetry_group_IT_number 69
_symmetry_cell_setting 'orthorhombic'
loop_
_space_group_symop_operation_xyz
x,y,z
-x,-y,z
x,-y,-z
-x,y,-z
-x,-y,-z
x,y,-z
-x,y,z
x,-y,z
x,1/2+y,1/2+z
-x,1/2-y,1/2+z
x,1/2-y,1/2-z
-x,1/2+y,1/2-z
-x,1/2-y,1/2-z
x,1/2+y,1/2-z
-x,1/2+y,1/2+z
x,1/2-y,1/2+z
1/2+x,y,1/2+z
1/2-x,-y,1/2+z
1/2+x,-y,1/2-z
1/2-x,y,1/2-z
1/2-x,-y,1/2-z
1/2+x,y,1/2-z
1/2-x,y,1/2+z
1/2+x,-y,1/2+z
1/2+x,1/2+y,z
1/2-x,1/2-y,z
1/2+x,1/2-y,-z
1/2-x,1/2+y,-z
1/2-x,1/2-y,-z
1/2+x,1/2+y,-z
1/2-x,1/2+y,z
1/2+x,1/2-y,z
loop_
_atom_site_type_symbol
_atom_site_label
_atom_site_fract_x
_atom_site_fract_y
_atom_site_fract_z
Si Si1 0.058469 0.726426 0.395777
Si Si2 0.557617 0.654513 0.285350
Si Si3 0.860092 0.930417 0.311922
Si Si4 0.250000 0.750000 0.750000
Si Si5 0.714425 0.434068 0.839443
Si Si6 0.714399 0.840285 0.898601
O O1 0.076310 0.716205 0.500000
O O2 0.071975 0.678838 0.316684
O O3 0.071178 0.792042 0.356347
O O4 0.000000 0.725240 0.398271
O O5 0.500000 0.647323 0.287850
O O6 0.586535 0.595314 0.309944
O O7 0.836884 0.924944 0.208874
O O8 0.827594 0.887781 0.376261
O O9 0.856474 0.000000 0.338637
O O10 0.281526 0.791944 0.817116
O O11 0.716581 0.500000 0.884053
O O12 0.750000 0.436592 0.750000
O O13 0.736179 0.379205 0.895489
O O14 0.707911 0.813346 0.000000
#
# Coordination Sequence:
#
# PCOD9512590 Si02
#       6
#    32  32  32   8  32  32
#     4   8  15  31  54  76 102 140 186 235 283 328
#     4   9  18  32  53  82 113 148 191 231 274 331
#     4  10  20  36  56  79 113 150 186 230 277 325
#     4  12  22  40  58  86 122 144 170 230 280 338
#     4   8  15  33  56  74  99 138 177 222 268 312
#     4  11  22  38  61  84 110 146 182 222 279 340
#
# _framework density 18.760869
#
# number of rings (size 3 to 8) (size 9 to 14) (size 15 to 20)
#    0.000    2.667    2.857    3.143    0.000    4.190 
#    0.000    0.952    0.000    1.714    0.000    6.667 
#    0.000    0.000    0.000    0.000    0.000    0.000 
#
# Total GULP energy -233996.578997 kJ/mol
# GULP energy per Si atom -5571.347119 kJ/mol
# Density = 1.871817 g / cm^3
# Si number density = 18.760869 Si / 1000 Ang^3
#
#
#
# Elastic Constant Matrix: (Units=GPa)
#
#
# Indices 1 2 3 4 5 6 
#
# 1 42.1003 29.1609 3.0921 0.0000 0.0000 0.0000
# 2 29.1609 92.5543 33.6817 0.0000 0.0000 0.0000
# 3 3.0921 33.6817 106.8825 0.0000 0.0000 0.0000
# 4 0.0000 0.0000 0.0000 -4.9757 0.0000 0.0000
# 5 0.0000 0.0000 0.0000 0.0000 8.5216 0.0000
# 6 0.0000 0.0000 0.0000 0.0000 0.0000 31.9432
#
#
#
# Elastic Compliance Matrix: (Units=1/GPa)
#
#
# Indices 1 2 3 4 5 6 
#
# 1 0.030945 -0.010645 0.002459 0.000000 0.000000 0.000000
# 2 -0.010645 0.015866 -0.004692 0.000000 0.000000 0.000000
# 3 0.002459 -0.004692 0.010763 0.000000 0.000000 0.000000
# 4 0.000000 0.000000 0.000000 -0.200977 0.000000 0.000000
# 5 0.000000 0.000000 0.000000 0.000000 0.117348 0.000000
# 6 0.000000 0.000000 0.000000 0.000000 0.000000 0.031306
#
#
# Mechanical properties :
#
#
# Convention : Reuss Voigt Hill
#
# Bulk Modulus (GPa) = 31.42701 41.48961 36.45831
# Shear Modulus (GPa) = 120.15482 18.80465 69.47973
#
# Velocity S-wave (km/s) = 8.01152 3.16940 6.09219
# Velocity P-wave (km/s) = 10.11766 5.96292 8.30432
#
# Compressibility (1/GPa) = 0.03181976
#
# Stress axis : x y z
#
# Youngs Moduli (GPa) = 32.31499 63.02887 92.90707
#
# Poissons Ratio (x) = 0.67093 -0.22848
# Poissons Ratio (y) = 0.34399 0.43590
# Poissons Ratio (z) = -0.07947 0.29572
#
# Static dielectric constant tensor:
#      x y z
#    x 1.668690 0.000000 0.000000 
#    y 0.000000 1.659650 0.000000 
#    z 0.000000 0.000000 1.685710 
# 
# From -- ./inp_files/19702.got.cif
#   From: 2010.05.17/outbox.cif.g08.bks.cpg/sg69_10_cif.got.tgz:19702.got - 2010.06.03 19:29:58.
