data_PCOD9512987
_publ_section_title
;
Structure prediction by ZEFSAII (Michael W. Deem and Ramdas Pophale) SiO2 
 PCOD9512987
Probable space group: F M M M
;
_chemical_formula_sum "Si O2"
_cell_formula_units_Z 192
_cell_length_a 12.988069
_cell_length_b 29.522965
_cell_length_c 25.465567
_cell_angle_alpha 90.000000
_cell_angle_beta 90.000000
_cell_angle_gamma 90.000000
_cell_volume 9764.677609
_symmetry_space_group_name_H-M "F M M M"
_symmetry_group_IT_number 69
_symmetry_cell_setting 'orthorhombic'
loop_
_space_group_symop_operation_xyz
x,y,z
-x,-y,z
x,-y,-z
-x,y,-z
-x,-y,-z
x,y,-z
-x,y,z
x,-y,z
x,1/2+y,1/2+z
-x,1/2-y,1/2+z
x,1/2-y,1/2-z
-x,1/2+y,1/2-z
-x,1/2-y,1/2-z
x,1/2+y,1/2-z
-x,1/2+y,1/2+z
x,1/2-y,1/2+z
1/2+x,y,1/2+z
1/2-x,-y,1/2+z
1/2+x,-y,1/2-z
1/2-x,y,1/2-z
1/2-x,-y,1/2-z
1/2+x,y,1/2-z
1/2-x,y,1/2+z
1/2+x,-y,1/2+z
1/2+x,1/2+y,z
1/2-x,1/2-y,z
1/2+x,1/2-y,-z
1/2-x,1/2+y,-z
1/2-x,1/2-y,-z
1/2+x,1/2+y,-z
1/2-x,1/2+y,z
1/2+x,1/2-y,z
loop_
_atom_site_type_symbol
_atom_site_label
_atom_site_fract_x
_atom_site_fract_y
_atom_site_fract_z
Si Si1 0.625230 0.723775 0.669616
Si Si2 0.121465 0.406271 0.345087
Si Si3 0.723005 0.590541 0.559036
Si Si4 0.878001 0.500000 0.100540
Si Si5 0.875107 0.180630 0.777922
Si Si6 0.623225 0.312252 0.557846
Si Si7 0.289013 0.500000 0.808616
O O1 0.500000 0.721636 0.668136
O O2 0.650786 0.774681 0.687983
O O3 0.656292 0.690180 0.717480
O O4 0.661381 0.711332 0.611228
O O5 0.187545 0.404158 0.398199
O O6 0.154600 0.366086 0.305646
O O7 0.145988 0.455039 0.320408
O O8 0.000000 0.401562 0.355416
O O9 0.765140 0.587905 0.500000
O O10 0.657995 0.545326 0.570630
O O11 0.652031 0.634941 0.562464
O O12 0.810906 0.500000 0.153670
O O13 0.000000 0.500000 0.108928
O O14 0.000000 0.179750 0.776430
O O15 0.661762 0.296633 0.500000
O O16 0.500000 0.307282 0.557090
O O17 0.250000 0.500000 0.750000
#
# Coordination Sequence:
#
# PCOD9512987 Si02
#       7
#    32  32  32  16  32  32  16
#     4   8  14  28  51  78 106 139 182 227 273 323
#     4  10  21  38  58  80 109 145 185 227 270 320
#     4  10  21  36  54  79 110 143 183 229 277 332
#     4  10  21  37  59  85 110 139 180 230 279 328
#     4   8  15  29  52  79 105 138 182 229 270 315
#     4   9  17  30  50  77 111 148 181 221 279 340
#     4  10  23  40  58  84 116 146 177 216 270 336
#
# _framework density 19.662707999999999
#
# number of rings (size 3 to 8) (size 9 to 14) (size 15 to 20)
#    0.000    2.833    0.000    2.000    0.000    5.000 
#    0.000    3.333    0.000   10.000    0.000    0.000 
#    0.000    0.000    0.000    3.833    0.000    0.167 
#
# Total GULP energy -267980.958570 kJ/mol
# GULP energy per Si atom -5582.936637 kJ/mol
# Density = 1.961795 g / cm^3
# Si number density = 19.662708 Si / 1000 Ang^3
#
#
#
# Elastic Constant Matrix: (Units=GPa)
#
#
# Indices 1 2 3 4 5 6 
#
# 1 70.4815 33.5145 30.0840 0.0000 0.0000 0.0000
# 2 33.5145 133.3024 80.9656 0.0000 0.0000 0.0000
# 3 30.0840 80.9656 172.8330 0.0000 0.0000 0.0000
# 4 0.0000 0.0000 0.0000 29.4364 0.0000 0.0000
# 5 0.0000 0.0000 0.0000 0.0000 20.2751 0.0000
# 6 0.0000 0.0000 0.0000 0.0000 0.0000 29.6891
#
#
#
# Elastic Compliance Matrix: (Units=1/GPa)
#
#
# Indices 1 2 3 4 5 6 
#
# 1 0.016316 -0.003322 -0.001284 0.000000 0.000000 0.000000
# 2 -0.003322 0.011162 -0.004651 0.000000 0.000000 0.000000
# 3 -0.001284 -0.004651 0.008188 0.000000 0.000000 0.000000
# 4 0.000000 0.000000 0.000000 0.033972 0.000000 0.000000
# 5 0.000000 0.000000 0.000000 0.000000 0.049322 0.000000
# 6 0.000000 0.000000 0.000000 0.000000 0.000000 0.033682
#
#
# Mechanical properties :
#
#
# Convention : Reuss Voigt Hill
#
# Bulk Modulus (GPa) = 58.30079 73.97168 66.13623
# Shear Modulus (GPa) = 28.26908 31.35029 29.80969
#
# Velocity S-wave (km/s) = 3.79582 3.99733 3.89788
# Velocity P-wave (km/s) = 6.99470 7.68159 7.34618
#
# Compressibility (1/GPa) = 0.01715243
#
# Stress axis : x y z
#
# Youngs Moduli (GPa) = 61.29005 89.59206 122.13097
#
# Poissons Ratio (x) = 0.29767 0.15676
# Poissons Ratio (y) = 0.20364 0.56797
# Poissons Ratio (z) = 0.07867 0.41665
#
# Static dielectric constant tensor:
#      x y z
#    x 1.722730 0.000000 0.000000 
#    y 0.000000 1.614810 0.000000 
#    z 0.000000 0.000000 1.690510 
# 
# From -- ./inp_files/41298.got.cif
#   From: 2010.05.17/outbox.cif.g08.bks.cpg/sg69_21_cif.got.tgz:41298.got - 2010.06.03 19:29:58.
