data_PCOD9512658
_publ_section_title
;
Structure prediction by ZEFSAII (Michael W. Deem and Ramdas Pophale) SiO2 
 PCOD9512658
Probable space group: F M M M
;
_chemical_formula_sum "Si O2"
_cell_formula_units_Z 160
_cell_length_a 16.315262
_cell_length_b 31.914513
_cell_length_c 15.383862
_cell_angle_alpha 90.000000
_cell_angle_beta 90.000000
_cell_angle_gamma 90.000000
_cell_volume 8010.279120
_symmetry_space_group_name_H-M "F M M M"
_symmetry_group_IT_number 69
_symmetry_cell_setting 'orthorhombic'
loop_
_space_group_symop_operation_xyz
x,y,z
-x,-y,z
x,-y,-z
-x,y,-z
-x,-y,-z
x,y,-z
-x,y,z
x,-y,z
x,1/2+y,1/2+z
-x,1/2-y,1/2+z
x,1/2-y,1/2-z
-x,1/2+y,1/2-z
-x,1/2-y,1/2-z
x,1/2+y,1/2-z
-x,1/2+y,1/2+z
x,1/2-y,1/2+z
1/2+x,y,1/2+z
1/2-x,-y,1/2+z
1/2+x,-y,1/2-z
1/2-x,y,1/2-z
1/2-x,-y,1/2-z
1/2+x,y,1/2-z
1/2-x,y,1/2+z
1/2+x,-y,1/2+z
1/2+x,1/2+y,z
1/2-x,1/2-y,z
1/2+x,1/2-y,-z
1/2-x,1/2+y,-z
1/2-x,1/2-y,-z
1/2+x,1/2+y,-z
1/2-x,1/2+y,z
1/2+x,1/2-y,z
loop_
_atom_site_type_symbol
_atom_site_label
_atom_site_fract_x
_atom_site_fract_y
_atom_site_fract_z
Si Si1 0.400467 0.546083 0.212243
Si Si2 0.095846 0.311988 0.500000
Si Si3 0.095727 0.936693 0.593970
Si Si4 0.649034 0.653037 0.355182
Si Si5 0.599445 0.282676 0.500000
Si Si6 0.842260 0.364109 0.661436
O O1 0.500000 0.550485 0.212277
O O2 0.380552 0.500000 0.176401
O O3 0.371492 0.547447 0.313442
O O4 0.363448 0.586545 0.165321
O O5 0.131497 0.265020 0.500000
O O6 0.118370 0.339043 0.416598
O O7 0.000000 0.305390 0.500000
O O8 0.131595 0.949256 0.500000
O O9 0.103435 0.886572 0.602568
O O10 0.000000 0.948516 0.592487
O O11 0.630902 0.692848 0.414536
O O12 0.745249 0.641956 0.351259
O O13 0.626749 0.654894 0.253364
O O14 0.500000 0.284430 0.500000
#
# Coordination Sequence:
#
# PCOD9512658 Si02
#       6
#    32  16  32  32  16  32
#     4   9  18  34  57  83 113 154 201 243 283 335
#     4  11  25  41  58  84 116 154 196 245 291 335
#     4   9  16  28  51  83 116 149 187 235 292 345
#     4  10  20  36  59  88 116 155 191 229 293 353
#     4  11  23  39  63  91 116 145 191 241 291 357
#     4  10  22  39  58  84 121 158 194 239 288 348
#
# _framework density 19.974335
#
# number of rings (size 3 to 8) (size 9 to 14) (size 15 to 20)
#    0.000    2.200    1.000    1.800    0.000    5.200 
#    0.000   14.500    0.000    1.800    0.000    0.000 
#    0.000    0.000    0.000    0.000    0.000    0.000 
#
# Total GULP energy -223144.562700 kJ/mol
# GULP energy per Si atom -5578.614068 kJ/mol
# Density = 1.992887 g / cm^3
# Si number density = 19.974335 Si / 1000 Ang^3
#
#
#
# Elastic Constant Matrix: (Units=GPa)
#
#
# Indices 1 2 3 4 5 6 
#
# 1 36.8454 30.5962 32.0515 0.0000 0.0000 0.0000
# 2 30.5962 188.2884 97.9852 0.0000 0.0000 0.0000
# 3 32.0515 97.9852 118.1778 0.0000 0.0000 0.0000
# 4 0.0000 0.0000 0.0000 10.9631 0.0000 0.0000
# 5 0.0000 0.0000 0.0000 0.0000 20.4041 0.0000
# 6 0.0000 0.0000 0.0000 0.0000 0.0000 -352.3826
#
#
#
# Elastic Compliance Matrix: (Units=1/GPa)
#
#
# Indices 1 2 3 4 5 6 
#
# 1 0.035712 -0.001342 -0.008573 0.000000 0.000000 0.000000
# 2 -0.001342 0.009392 -0.007424 0.000000 0.000000 0.000000
# 3 -0.008573 -0.007424 0.016942 0.000000 0.000000 0.000000
# 4 0.000000 0.000000 0.000000 0.091215 0.000000 0.000000
# 5 0.000000 0.000000 0.000000 0.000000 0.049010 0.000000
# 6 0.000000 0.000000 0.000000 0.000000 0.000000 -0.002838
#
#
# Mechanical properties :
#
#
# Convention : Reuss Voigt Hill
#
# Bulk Modulus (GPa) = 36.53663 73.84196 55.18929
# Shear Modulus (GPa) = 20.55635 -52.02451 -15.73408
#
# Velocity S-wave (km/s) = 3.21150 -5.10903 -2.80967
# Velocity P-wave (km/s) = 5.66420 1.49857 4.14300
#
# Compressibility (1/GPa) = 0.02736979
#
# Stress axis : x y z
#
# Youngs Moduli (GPa) = 28.00147 106.47120 59.02434
#
# Poissons Ratio (x) = 0.14284 0.50604
# Poissons Ratio (y) = 0.03757 0.43817
# Poissons Ratio (z) = 0.24007 0.79039
#
# Static dielectric constant tensor:
#      x y z
#    x 1.726190 0.000000 0.000000 
#    y 0.000000 1.710760 0.000000 
#    z 0.000000 0.000000 1.716260 
# 
# From -- ./inp_files/15709.got.cif
#   From: 2010.05.17/outbox.cif.g08.bks.cpg/sg69_8_cif.got.tgz:15709.got - 2010.06.03 19:29:58.
