data_PCOD9512438
_publ_section_title
;
Structure prediction by ZEFSAII (Michael W. Deem and Ramdas Pophale) SiO2 
 PCOD9512438
Probable space group: F M M M
;
_chemical_formula_sum "Si O2"
_cell_formula_units_Z 160
_cell_length_a 28.658205
_cell_length_b 17.613657
_cell_length_c 14.934153
_cell_angle_alpha 90.000000
_cell_angle_beta 90.000000
_cell_angle_gamma 90.000000
_cell_volume 7538.398925
_symmetry_space_group_name_H-M "F M M M"
_symmetry_group_IT_number 69
_symmetry_cell_setting 'orthorhombic'
loop_
_space_group_symop_operation_xyz
x,y,z
-x,-y,z
x,-y,-z
-x,y,-z
-x,-y,-z
x,y,-z
-x,y,z
x,-y,z
x,1/2+y,1/2+z
-x,1/2-y,1/2+z
x,1/2-y,1/2-z
-x,1/2+y,1/2-z
-x,1/2-y,1/2-z
x,1/2+y,1/2-z
-x,1/2+y,1/2+z
x,1/2-y,1/2+z
1/2+x,y,1/2+z
1/2-x,-y,1/2+z
1/2+x,-y,1/2-z
1/2-x,y,1/2-z
1/2-x,-y,1/2-z
1/2+x,y,1/2-z
1/2-x,y,1/2+z
1/2+x,-y,1/2+z
1/2+x,1/2+y,z
1/2-x,1/2-y,z
1/2+x,1/2-y,-z
1/2-x,1/2+y,-z
1/2-x,1/2-y,-z
1/2+x,1/2+y,-z
1/2-x,1/2+y,z
1/2+x,1/2-y,z
loop_
_atom_site_type_symbol
_atom_site_label
_atom_site_fract_x
_atom_site_fract_y
_atom_site_fract_z
Si Si1 0.822916 0.085758 0.397669
Si Si2 0.822806 0.500000 0.395220
Si Si3 0.356868 0.760161 0.891859
Si Si4 0.273620 0.648711 0.155766
Si Si5 0.433519 0.000000 0.396594
Si Si6 0.051227 0.169129 0.890461
O O1 0.839168 0.078367 0.500000
O O2 0.852795 0.153995 0.354579
O O3 0.770870 0.121087 0.401251
O O4 0.822371 0.000000 0.359215
O O5 0.806440 0.500000 0.500000
O O6 0.805226 0.425984 0.345177
O O7 0.877931 0.500000 0.398490
O O8 0.308611 0.715296 0.872399
O O9 0.402985 0.715409 0.860727
O O10 0.359608 0.763849 0.000000
O O11 0.250000 0.664453 0.250000
O O12 0.447492 0.918412 0.357952
O O13 0.449725 0.000000 0.500000
O O14 0.000000 0.201637 0.868044
O O15 0.054219 0.166314 0.000000
#
# Coordination Sequence:
#
# PCOD9512438 Si02
#       6
#    32  16  32  32  16  32
#     4  10  21  36  54  73  99 141 189 230 269 322
#     4  11  19  32  53  75 111 155 184 213 261 319
#     4  10  20  35  54  77 108 147 184 221 272 328
#     4  12  23  34  51  79 111 143 183 224 270 319
#     4   9  15  25  46  74 107 141 172 207 258 322
#     4   9  16  27  47  77 109 138 174 223 272 323
#
# _framework density 21.224665999999999
#
# number of rings (size 3 to 8) (size 9 to 14) (size 15 to 20)
#    0.000    1.800    3.000    3.000    0.000    4.400 
#    0.000    0.000    0.000    0.600    0.000    7.000 
#    0.000    0.000    0.000    0.000    0.000    1.200 
#
# Total GULP energy -223116.001105 kJ/mol
# GULP energy per Si atom -5577.900028 kJ/mol
# Density = 2.117636 g / cm^3
# Si number density = 21.224666 Si / 1000 Ang^3
#
#
#
# Elastic Constant Matrix: (Units=GPa)
#
#
# Indices 1 2 3 4 5 6 
#
# 1 140.5791 85.0171 11.3352 0.0000 0.0000 0.0000
# 2 85.0171 204.4152 17.8805 0.0000 0.0000 0.0000
# 3 11.3352 17.8805 38.1519 0.0000 0.0000 0.0000
# 4 0.0000 0.0000 0.0000 9.8163 0.0000 0.0000
# 5 0.0000 0.0000 0.0000 0.0000 -2.0675 0.0000
# 6 0.0000 0.0000 0.0000 0.0000 0.0000 12.2067
#
#
#
# Elastic Compliance Matrix: (Units=1/GPa)
#
#
# Indices 1 2 3 4 5 6 
#
# 1 0.009542 -0.003879 -0.001017 0.000000 0.000000 0.000000
# 2 -0.003879 0.006678 -0.001977 0.000000 0.000000 0.000000
# 3 -0.001017 -0.001977 0.027440 0.000000 0.000000 0.000000
# 4 0.000000 0.000000 0.000000 0.101871 0.000000 0.000000
# 5 0.000000 0.000000 0.000000 0.000000 -0.483688 0.000000
# 6 0.000000 0.000000 0.000000 0.000000 0.000000 0.081922
#
#
# Mechanical properties :
#
#
# Convention : Reuss Voigt Hill
#
# Bulk Modulus (GPa) = 33.43049 67.95687 50.69368
# Shear Modulus (GPa) = -21.50386 21.91868 0.20741
#
# Velocity S-wave (km/s) = -3.18646 3.21705 0.31294
# Velocity P-wave (km/s) = 1.49897 6.77396 4.90579
#
# Compressibility (1/GPa) = 0.02991282
#
# Stress axis : x y z
#
# Youngs Moduli (GPa) = 104.80479 149.73564 36.44340
#
# Poissons Ratio (x) = 0.58089 0.03705
# Poissons Ratio (y) = 0.40658 0.07206
# Poissons Ratio (z) = 0.10656 0.29608
#
# Static dielectric constant tensor:
#      x y z
#    x 1.758340 0.000000 0.000000 
#    y 0.000000 1.823510 0.000000 
#    z 0.000000 0.000000 1.831050 
# 
# From -- ./inp_files/26680.got.cif
#   From: 2010.05.17/outbox.cif.g08.bks.cpg/sg69_14_cif.got.tgz:26680.got - 2010.06.03 19:29:58.
