data_PCOD9512717
_publ_section_title
;
Structure prediction by ZEFSAII (Michael W. Deem and Ramdas Pophale) SiO2 
 PCOD9512717
Probable space group: F M M M
;
_chemical_formula_sum "Si O2"
_cell_formula_units_Z 208
_cell_length_a 22.826643
_cell_length_b 17.136980
_cell_length_c 26.646896
_cell_angle_alpha 90.000000
_cell_angle_beta 90.000000
_cell_angle_gamma 90.000000
_cell_volume 10423.725438
_symmetry_space_group_name_H-M "F M M M"
_symmetry_group_IT_number 69
_symmetry_cell_setting 'orthorhombic'
loop_
_space_group_symop_operation_xyz
x,y,z
-x,-y,z
x,-y,-z
-x,y,-z
-x,-y,-z
x,y,-z
-x,y,z
x,-y,z
x,1/2+y,1/2+z
-x,1/2-y,1/2+z
x,1/2-y,1/2-z
-x,1/2+y,1/2-z
-x,1/2-y,1/2-z
x,1/2+y,1/2-z
-x,1/2+y,1/2+z
x,1/2-y,1/2+z
1/2+x,y,1/2+z
1/2-x,-y,1/2+z
1/2+x,-y,1/2-z
1/2-x,y,1/2-z
1/2-x,-y,1/2-z
1/2+x,y,1/2-z
1/2-x,y,1/2+z
1/2+x,-y,1/2+z
1/2+x,1/2+y,z
1/2-x,1/2-y,z
1/2+x,1/2-y,-z
1/2-x,1/2+y,-z
1/2-x,1/2-y,-z
1/2+x,1/2+y,-z
1/2-x,1/2+y,z
1/2+x,1/2-y,z
loop_
_atom_site_type_symbol
_atom_site_label
_atom_site_fract_x
_atom_site_fract_y
_atom_site_fract_z
Si Si1 0.066330 0.752261 0.193160
Si Si2 0.094645 0.084373 0.662246
Si Si3 0.366214 0.634117 0.555985
Si Si4 0.000000 0.410079 0.440024
Si Si5 0.386641 0.811782 0.591404
Si Si6 0.759573 0.158043 0.090954
Si Si7 0.728113 0.909301 0.196374
O O1 0.089190 0.750000 0.250000
O O2 0.061953 0.662226 0.177051
O O3 0.106267 0.793596 0.151141
O O4 0.000000 0.786122 0.193183
O O5 0.105218 0.089378 0.602447
O O6 0.158124 0.091387 0.689141
O O7 0.069648 0.000000 0.675419
O O8 0.384326 0.612364 0.500000
O O9 0.381721 0.725990 0.565667
O O10 0.295875 0.621705 0.562303
O O11 0.942973 0.361303 0.423642
O O12 0.000000 0.500000 0.421075
O O13 0.000000 0.413247 0.500000
O O14 0.326866 0.856771 0.577387
O O15 0.750000 0.250000 0.084466
O O16 0.752595 0.137079 0.149214
O O17 0.750000 0.879698 0.250000
O O18 0.747074 0.000000 0.192156
#
# Coordination Sequence:
#
# PCOD9512717 Si02
#       7
#    32  32  32  16  32  32  32
#     4  10  21  37  58  79 107 144 186 227 274 329
#     4   9  19  35  54  82 114 142 178 221 268 327
#     4   9  18  34  57  84 113 146 181 223 279 336
#     4  11  24  40  57  78 105 145 194 237 278 328
#     4  10  20  37  56  79 109 145 183 234 281 323
#     4   9  19  32  51  82 108 136 181 228 270 323
#     4   9  18  32  48  72 107 143 173 210 268 327
#
# _framework density 19.954478000000002
#
# number of rings (size 3 to 8) (size 9 to 14) (size 15 to 20)
#    0.000    2.538    0.769    1.385    2.154    4.923 
#    0.000    0.769    0.000    0.000    0.000    2.154 
#    0.000    0.000    0.000    0.000    0.000    0.000 
#
# Total GULP energy -289851.569136 kJ/mol
# GULP energy per Si atom -5574.068637 kJ/mol
# Density = 1.990906 g / cm^3
# Si number density = 19.954478 Si / 1000 Ang^3
#
#
#
# Elastic Constant Matrix: (Units=GPa)
#
#
# Indices 1 2 3 4 5 6 
#
# 1 95.4228 28.8479 9.4874 0.0000 0.0000 0.0000
# 2 28.8479 40.6838 -0.0627 0.0000 0.0000 0.0000
# 3 9.4874 -0.0627 113.5867 0.0000 0.0000 0.0000
# 4 0.0000 0.0000 0.0000 8.3691 0.0000 0.0000
# 5 0.0000 0.0000 0.0000 0.0000 1.2448 0.0000
# 6 0.0000 0.0000 0.0000 0.0000 0.0000 34.1113
#
#
#
# Elastic Compliance Matrix: (Units=1/GPa)
#
#
# Indices 1 2 3 4 5 6 
#
# 1 0.013483 -0.009562 -0.001131 0.000000 0.000000 0.000000
# 2 -0.009562 0.031361 0.000816 0.000000 0.000000 0.000000
# 3 -0.001131 0.000816 0.008899 0.000000 0.000000 0.000000
# 4 0.000000 0.000000 0.000000 0.119487 0.000000 0.000000
# 5 0.000000 0.000000 0.000000 0.000000 0.803362 0.000000
# 6 0.000000 0.000000 0.000000 0.000000 0.000000 0.029316
#
#
# Mechanical properties :
#
#
# Convention : Reuss Voigt Hill
#
# Bulk Modulus (GPa) = 29.42228 36.24873 32.83551
# Shear Modulus (GPa) = 4.82163 22.83975 13.83069
#
# Velocity S-wave (km/s) = 1.55614 3.38685 2.63556
# Velocity P-wave (km/s) = 4.24328 5.78788 5.07469
#
# Compressibility (1/GPa) = 0.03398785
#
# Stress axis : x y z
#
# Youngs Moduli (GPa) = 74.16756 31.88635 112.37468
#
# Poissons Ratio (x) = 0.30490 0.12715
# Poissons Ratio (y) = 0.70921 -0.09170
# Poissons Ratio (z) = 0.08392 -0.02602
#
# Static dielectric constant tensor:
#      x y z
#    x 1.733640 0.000000 0.000000 
#    y 0.000000 1.698600 0.000000 
#    z 0.000000 0.000000 1.697290 
# 
# From -- ./inp_files/43267.got.cif
#   From: 2010.05.17/outbox.cif.g08.bks.cpg/sg69_22_cif.got.tgz:43267.got - 2010.06.03 19:29:58.
