data_PCOD9512988
_publ_section_title
;
Structure prediction by ZEFSAII (Michael W. Deem and Ramdas Pophale) SiO2 
 PCOD9512988
Probable space group: F M M M
;
_chemical_formula_sum "Si O2"
_cell_formula_units_Z 176
_cell_length_a 25.101165
_cell_length_b 19.216952
_cell_length_c 20.675908
_cell_angle_alpha 90.000000
_cell_angle_beta 90.000000
_cell_angle_gamma 90.000000
_cell_volume 9973.393970
_symmetry_space_group_name_H-M "F M M M"
_symmetry_group_IT_number 69
_symmetry_cell_setting 'orthorhombic'
loop_
_space_group_symop_operation_xyz
x,y,z
-x,-y,z
x,-y,-z
-x,y,-z
-x,-y,-z
x,y,-z
-x,y,z
x,-y,z
x,1/2+y,1/2+z
-x,1/2-y,1/2+z
x,1/2-y,1/2-z
-x,1/2+y,1/2-z
-x,1/2-y,1/2-z
x,1/2+y,1/2-z
-x,1/2+y,1/2+z
x,1/2-y,1/2+z
1/2+x,y,1/2+z
1/2-x,-y,1/2+z
1/2+x,-y,1/2-z
1/2-x,y,1/2-z
1/2-x,-y,1/2-z
1/2+x,y,1/2-z
1/2-x,y,1/2+z
1/2+x,-y,1/2+z
1/2+x,1/2+y,z
1/2-x,1/2-y,z
1/2+x,1/2-y,-z
1/2-x,1/2+y,-z
1/2-x,1/2-y,-z
1/2+x,1/2+y,-z
1/2-x,1/2+y,z
1/2+x,1/2-y,z
loop_
_atom_site_type_symbol
_atom_site_label
_atom_site_fract_x
_atom_site_fract_y
_atom_site_fract_z
Si Si1 0.000000 0.703998 0.924879
Si Si2 0.589132 0.185947 0.389716
Si Si3 0.000000 0.922483 0.672312
Si Si4 0.086734 0.421078 0.283100
Si Si5 0.207386 0.811777 0.922924
Si Si6 0.712514 0.419059 0.191778
Si Si7 0.564257 0.579160 0.000000
O O1 0.949840 0.753080 0.909648
O O2 0.000000 0.637155 0.880144
O O3 0.000000 0.685634 0.000000
O O4 0.572238 0.147427 0.324082
O O5 0.649423 0.211879 0.396959
O O6 0.584580 0.121509 0.439058
O O7 0.052470 0.917027 0.717874
O O8 0.000000 0.000000 0.643740
O O9 0.074114 0.500000 0.309916
O O10 0.151090 0.417045 0.283388
O O11 0.250000 0.750000 0.916322
O O12 0.219693 0.875294 0.873987
O O13 0.204361 0.829678 0.000000
O O14 0.725434 0.500000 0.179459
O O15 0.750000 0.393253 0.250000
O O16 0.582345 0.500000 0.000000
O O17 0.500000 0.580919 0.000000
#
# Coordination Sequence:
#
# PCOD9512988 Si02
#       7
#    16  32  16  32  32  32  16
#     4  12  23  38  57  77 110 148 184 227 276 321
#     4  11  19  36  55  82 116 146 180 218 275 340
#     4  10  23  40  57  78 105 141 187 235 275 321
#     4   9  19  35  56  82 111 140 174 222 277 332
#     4  10  21  36  54  79 113 148 186 228 273 327
#     4   9  19  36  57  79 106 141 182 230 278 328
#     4  11  20  30  51  86 120 152 175 205 261 338
#
# _framework density 17.646951000000001
#
# number of rings (size 3 to 8) (size 9 to 14) (size 15 to 20)
#    0.000    1.909    2.727    1.091    0.000    4.545 
#    0.000    3.636    0.000    0.000    0.000    7.636 
#    0.000    0.000    0.000    0.000    0.000    0.000 
#
# Total GULP energy -245185.213668 kJ/mol
# GULP energy per Si atom -5572.391220 kJ/mol
# Density = 1.760679 g / cm^3
# Si number density = 17.646951 Si / 1000 Ang^3
#
#
#
# Elastic Constant Matrix: (Units=GPa)
#
#
# Indices 1 2 3 4 5 6 
#
# 1 70.3770 48.4684 36.8081 0.0000 0.0000 0.0000
# 2 48.4684 109.2065 71.8564 0.0000 0.0000 0.0000
# 3 36.8081 71.8564 95.9800 0.0000 0.0000 0.0000
# 4 0.0000 0.0000 0.0000 42.4228 0.0000 0.0000
# 5 0.0000 0.0000 0.0000 0.0000 23.2617 0.0000
# 6 0.0000 0.0000 0.0000 0.0000 0.0000 179.5550
#
#
#
# Elastic Compliance Matrix: (Units=1/GPa)
#
#
# Indices 1 2 3 4 5 6 
#
# 1 0.020674 -0.007802 -0.002087 0.000000 0.000000 0.000000
# 2 -0.007802 0.020992 -0.012723 0.000000 0.000000 0.000000
# 3 -0.002087 -0.012723 0.020745 0.000000 0.000000 0.000000
# 4 0.000000 0.000000 0.000000 0.023572 0.000000 0.000000
# 5 0.000000 0.000000 0.000000 0.000000 0.042989 0.000000
# 6 0.000000 0.000000 0.000000 0.000000 0.000000 0.005569
#
#
# Mechanical properties :
#
#
# Convention : Reuss Voigt Hill
#
# Bulk Modulus (GPa) = 58.19123 65.53659 61.86391
# Shear Modulus (GPa) = 26.95478 56.94328 41.94903
#
# Velocity S-wave (km/s) = 3.91250 5.68666 4.88087
# Velocity P-wave (km/s) = 7.31143 8.96302 8.17902
#
# Compressibility (1/GPa) = 0.01718472
#
# Stress axis : x y z
#
# Youngs Moduli (GPa) = 48.36924 47.63784 48.20478
#
# Poissons Ratio (x) = 0.37169 0.10061
# Poissons Ratio (y) = 0.37740 0.61333
# Poissons Ratio (z) = 0.10096 0.60612
#
# Static dielectric constant tensor:
#      x y z
#    x 1.612170 0.000000 0.000000 
#    y 0.000000 1.579420 0.000000 
#    z 0.000000 0.000000 1.708110 
# 
# From -- ./inp_files/26814.got.cif
#   From: 2010.05.17/outbox.cif.g08.bks.cpg/sg69_14_cif.got.tgz:26814.got - 2010.06.03 19:29:58.
