data_PCOD9512914
_publ_section_title
;
Structure prediction by ZEFSAII (Michael W. Deem and Ramdas Pophale) SiO2 
 PCOD9512914
Probable space group: F M M M
;
_chemical_formula_sum "Si O2"
_cell_formula_units_Z 144
_cell_length_a 14.609307
_cell_length_b 18.639564
_cell_length_c 28.706678
_cell_angle_alpha 90.000000
_cell_angle_beta 90.000000
_cell_angle_gamma 90.000000
_cell_volume 7817.147432
_symmetry_space_group_name_H-M "F M M M"
_symmetry_group_IT_number 69
_symmetry_cell_setting 'orthorhombic'
loop_
_space_group_symop_operation_xyz
x,y,z
-x,-y,z
x,-y,-z
-x,y,-z
-x,-y,-z
x,y,-z
-x,y,z
x,-y,z
x,1/2+y,1/2+z
-x,1/2-y,1/2+z
x,1/2-y,1/2-z
-x,1/2+y,1/2-z
-x,1/2-y,1/2-z
x,1/2+y,1/2-z
-x,1/2+y,1/2+z
x,1/2-y,1/2+z
1/2+x,y,1/2+z
1/2-x,-y,1/2+z
1/2+x,-y,1/2-z
1/2-x,y,1/2-z
1/2-x,-y,1/2-z
1/2+x,y,1/2-z
1/2-x,y,1/2+z
1/2+x,-y,1/2+z
1/2+x,1/2+y,z
1/2-x,1/2-y,z
1/2+x,1/2-y,-z
1/2-x,1/2+y,-z
1/2-x,1/2-y,-z
1/2+x,1/2+y,-z
1/2-x,1/2+y,z
1/2+x,1/2-y,z
loop_
_atom_site_type_symbol
_atom_site_label
_atom_site_fract_x
_atom_site_fract_y
_atom_site_fract_z
Si Si1 0.500000 0.417887 0.556505
Si Si2 0.729658 0.333470 0.862490
Si Si3 0.144585 0.173175 0.767487
Si Si4 0.898872 0.084406 0.315500
Si Si5 0.294123 0.586443 0.445289
O O1 0.500000 0.500000 0.574052
O O2 0.500000 0.421623 0.500000
O O3 0.398614 0.388278 0.567126
O O4 0.750000 0.250000 0.870156
O O5 0.650556 0.336411 0.823000
O O6 0.818306 0.371268 0.839235
O O7 0.722722 0.374783 0.911291
O O8 0.106541 0.250000 0.750000
O O9 0.250000 0.174458 0.750000
O O10 0.101098 0.109111 0.738368
O O11 0.000000 0.099937 0.335084
O O12 0.881184 0.000000 0.319652
O O13 0.278757 0.600740 0.500000
O O14 0.292069 0.500000 0.438935
#
# Coordination Sequence:
#
# PCOD9512914 Si02
#       5
#    16  32  32  32  32
#     4   7  12  26  46  68  97 128 155 197 262 309
#     4  11  20  33  50  72 105 142 177 200 254 317
#     4   9  16  34  50  69 101 140 169 201 254 310
#     4  10  21  34  53  80 102 129 175 223 260 301
#     4   9  18  31  49  74 103 134 168 213 259 301
#
# _framework density 18.421042
#
# number of rings (size 3 to 8) (size 9 to 14) (size 15 to 20)
#    0.000    2.556    4.444    2.000    1.556    5.778 
#    0.000    0.000    0.000    0.000    0.000    0.000 
#    0.000    0.000    0.000   12.222    0.000    0.000 
#
# Total GULP energy -200417.435486 kJ/mol
# GULP energy per Si atom -5567.150986 kJ/mol
# Density = 1.837911 g / cm^3
# Si number density = 18.421042 Si / 1000 Ang^3
#
#
#
# Elastic Constant Matrix: (Units=GPa)
#
#
# Indices 1 2 3 4 5 6 
#
# 1 37.0519 24.0961 14.7940 0.0000 0.0000 0.0000
# 2 24.0961 83.2442 38.5616 0.0000 0.0000 0.0000
# 3 14.7940 38.5616 132.0594 0.0000 0.0000 0.0000
# 4 0.0000 0.0000 0.0000 22.5742 0.0000 0.0000
# 5 0.0000 0.0000 0.0000 0.0000 16.2214 0.0000
# 6 0.0000 0.0000 0.0000 0.0000 0.0000 159.6132
#
#
#
# Elastic Compliance Matrix: (Units=1/GPa)
#
#
# Indices 1 2 3 4 5 6 
#
# 1 0.033376 -0.009169 -0.001061 0.000000 0.000000 0.000000
# 2 -0.009169 0.016411 -0.003765 0.000000 0.000000 0.000000
# 3 -0.001061 -0.003765 0.008791 0.000000 0.000000 0.000000
# 4 0.000000 0.000000 0.000000 0.044298 0.000000 0.000000
# 5 0.000000 0.000000 0.000000 0.000000 0.061647 0.000000
# 6 0.000000 0.000000 0.000000 0.000000 0.000000 0.006265
#
#
# Mechanical properties :
#
#
# Convention : Reuss Voigt Hill
#
# Bulk Modulus (GPa) = 32.69436 45.25099 38.97268
# Shear Modulus (GPa) = 23.92624 51.34201 37.63412
#
# Velocity S-wave (km/s) = 3.60787 5.28506 4.52486
# Velocity P-wave (km/s) = 5.92812 7.86516 6.96431
#
# Compressibility (1/GPa) = 0.03058631
#
# Stress axis : x y z
#
# Youngs Moduli (GPa) = 29.96142 60.93438 113.75778
#
# Poissons Ratio (x) = 0.55874 0.12075
# Poissons Ratio (y) = 0.27473 0.42828
# Poissons Ratio (z) = 0.03180 0.22941
#
# Static dielectric constant tensor:
#      x y z
#    x 1.668740 0.000000 0.000000 
#    y 0.000000 1.619880 0.000000 
#    z 0.000000 0.000000 1.745650 
# 
# From -- ./inp_files/45586.got.cif
#   From: 2010.05.17/outbox.cif.g08.bks.cpg/sg69_23_cif.got.tgz:45586.got - 2010.06.03 19:29:58.
