data_PCOD9512783
_publ_section_title
;
Structure prediction by ZEFSAII (Michael W. Deem and Ramdas Pophale) SiO2 
 PCOD9512783
Probable space group: F M M M
;
_chemical_formula_sum "Si O2"
_cell_formula_units_Z 208
_cell_length_a 21.730867
_cell_length_b 17.266773
_cell_length_c 25.288684
_cell_angle_alpha 90.000000
_cell_angle_beta 90.000000
_cell_angle_gamma 90.000000
_cell_volume 9488.869262
_symmetry_space_group_name_H-M "F M M M"
_symmetry_group_IT_number 69
_symmetry_cell_setting 'orthorhombic'
loop_
_space_group_symop_operation_xyz
x,y,z
-x,-y,z
x,-y,-z
-x,y,-z
-x,-y,-z
x,y,-z
-x,y,z
x,-y,z
x,1/2+y,1/2+z
-x,1/2-y,1/2+z
x,1/2-y,1/2-z
-x,1/2+y,1/2-z
-x,1/2-y,1/2-z
x,1/2+y,1/2-z
-x,1/2+y,1/2+z
x,1/2-y,1/2+z
1/2+x,y,1/2+z
1/2-x,-y,1/2+z
1/2+x,-y,1/2-z
1/2-x,y,1/2-z
1/2-x,-y,1/2-z
1/2+x,y,1/2-z
1/2-x,y,1/2+z
1/2+x,-y,1/2+z
1/2+x,1/2+y,z
1/2-x,1/2-y,z
1/2+x,1/2-y,-z
1/2-x,1/2+y,-z
1/2-x,1/2-y,-z
1/2+x,1/2+y,-z
1/2-x,1/2+y,z
1/2+x,1/2-y,z
loop_
_atom_site_type_symbol
_atom_site_label
_atom_site_fract_x
_atom_site_fract_y
_atom_site_fract_z
Si Si1 0.431242 0.817120 0.793409
Si Si2 0.910944 0.225220 0.097045
Si Si3 0.210757 0.180574 0.862475
Si Si4 0.500000 0.092061 0.564116
Si Si5 0.564839 0.616629 0.559444
Si Si6 0.799890 0.089015 0.438809
Si Si7 0.676748 0.091678 0.261882
O O1 0.500000 0.854297 0.791261
O O2 0.430231 0.750000 0.750000
O O3 0.425604 0.769884 0.848096
O O4 0.372486 0.870801 0.778799
O O5 0.838150 0.215535 0.096721
O O6 0.932815 0.290423 0.056878
O O7 0.943222 0.143091 0.086874
O O8 0.250000 0.250000 0.836821
O O9 0.256741 0.129715 0.896707
O O10 0.172383 0.133994 0.818668
O O11 0.500000 0.096159 0.500000
O O12 0.500000 0.000000 0.578158
O O13 0.564867 0.585829 0.500000
O O14 0.500000 0.593705 0.585083
O O15 0.629968 0.592329 0.582443
O O16 0.798541 0.119573 0.500000
O O17 0.781133 0.000000 0.441761
O O18 0.750000 0.101717 0.250000
O O19 0.665203 0.000000 0.265403
#
# Coordination Sequence:
#
# PCOD9512783 Si02
#       7
#    32  32  32  16  32  32  32
#     4  11  23  43  69  99 134 176 231 290 350 416
#     4  12  22  41  68  99 132 178 231 283 339 411
#     4  12  24  41  68  97 130 182 234 283 349 424
#     4  11  26  46  69 104 149 191 232 283 344 410
#     4  10  20  37  65  96 130 175 227 284 346 415
#     4  10  23  41  61  94 139 179 226 293 357 419
#     4  11  26  45  69 102 137 178 226 286 362 431
#
# _framework density 21.92042
#
# number of rings (size 3 to 8) (size 9 to 14) (size 15 to 20)
#    0.000    1.000    4.615    1.846    0.000    3.385 
#    0.000    3.077    0.000    1.846    0.000    0.000 
#    0.000    0.000    0.000    0.000    0.000    0.000 
#
# Total GULP energy -290174.740789 kJ/mol
# GULP energy per Si atom -5580.283477 kJ/mol
# Density = 2.187053 g / cm^3
# Si number density = 21.920420 Si / 1000 Ang^3
#
#
#
# Elastic Constant Matrix: (Units=GPa)
#
#
# Indices 1 2 3 4 5 6 
#
# 1 151.7503 51.6628 31.7894 0.0000 0.0000 0.0000
# 2 51.6628 145.3484 44.8199 0.0000 0.0000 0.0000
# 3 31.7894 44.8199 108.8570 0.0000 0.0000 0.0000
# 4 0.0000 0.0000 0.0000 24.7309 0.0000 0.0000
# 5 0.0000 0.0000 0.0000 0.0000 26.0849 0.0000
# 6 0.0000 0.0000 0.0000 0.0000 0.0000 24.4827
#
#
#
# Elastic Compliance Matrix: (Units=1/GPa)
#
#
# Indices 1 2 3 4 5 6 
#
# 1 0.007649 -0.002325 -0.001276 0.000000 0.000000 0.000000
# 2 -0.002325 0.008587 -0.002857 0.000000 0.000000 0.000000
# 3 -0.001276 -0.002857 0.010735 0.000000 0.000000 0.000000
# 4 0.000000 0.000000 0.000000 0.040435 0.000000 0.000000
# 5 0.000000 0.000000 0.000000 0.000000 0.038336 0.000000
# 6 0.000000 0.000000 0.000000 0.000000 0.000000 0.040845
#
#
# Mechanical properties :
#
#
# Convention : Reuss Voigt Hill
#
# Bulk Modulus (GPa) = 71.14852 73.61113 72.37982
# Shear Modulus (GPa) = 30.45263 33.57194 32.01229
#
# Velocity S-wave (km/s) = 3.73129 3.91773 3.82565
# Velocity P-wave (km/s) = 7.14783 7.35655 7.25294
#
# Compressibility (1/GPa) = 0.01405511
#
# Stress axis : x y z
#
# Youngs Moduli (GPa) = 130.74095 116.45038 93.15081
#
# Poissons Ratio (x) = 0.27076 0.11889
# Poissons Ratio (y) = 0.30399 0.26610
# Poissons Ratio (z) = 0.16687 0.33266
#
# Static dielectric constant tensor:
#      x y z
#    x 1.872630 0.000000 0.000000 
#    y 0.000000 1.797780 0.000000 
#    z 0.000000 0.000000 1.875740 
# 
# From -- ./inp_files/42736.got.cif
#   From: 2010.05.17/outbox.cif.g08.bks.cpg/sg69_22_cif.got.tgz:42736.got - 2010.06.03 19:29:58.
