data_PCOD9512528
_publ_section_title
;
Structure prediction by ZEFSAII (Michael W. Deem and Ramdas Pophale) SiO2 
 PCOD9512528
Probable space group: F M M M
;
_chemical_formula_sum "Si O2"
_cell_formula_units_Z 160
_cell_length_a 18.102084
_cell_length_b 16.828918
_cell_length_c 27.837005
_cell_angle_alpha 90.000000
_cell_angle_beta 90.000000
_cell_angle_gamma 90.000000
_cell_volume 8480.223093
_symmetry_space_group_name_H-M "F M M M"
_symmetry_group_IT_number 69
_symmetry_cell_setting 'orthorhombic'
loop_
_space_group_symop_operation_xyz
x,y,z
-x,-y,z
x,-y,-z
-x,y,-z
-x,-y,-z
x,y,-z
-x,y,z
x,-y,z
x,1/2+y,1/2+z
-x,1/2-y,1/2+z
x,1/2-y,1/2-z
-x,1/2+y,1/2-z
-x,1/2-y,1/2-z
x,1/2+y,1/2-z
-x,1/2+y,1/2+z
x,1/2-y,1/2+z
1/2+x,y,1/2+z
1/2-x,-y,1/2+z
1/2+x,-y,1/2-z
1/2-x,y,1/2-z
1/2-x,-y,1/2-z
1/2+x,y,1/2-z
1/2-x,y,1/2+z
1/2+x,-y,1/2+z
1/2+x,1/2+y,z
1/2-x,1/2-y,z
1/2+x,1/2-y,-z
1/2-x,1/2+y,-z
1/2-x,1/2-y,-z
1/2+x,1/2+y,-z
1/2-x,1/2+y,z
1/2+x,1/2-y,z
loop_
_atom_site_type_symbol
_atom_site_label
_atom_site_fract_x
_atom_site_fract_y
_atom_site_fract_z
Si Si1 0.255853 0.154804 0.448483
Si Si2 0.082302 0.407915 0.573655
Si Si3 0.583613 0.828330 0.329269
Si Si4 0.317551 0.689148 0.647029
Si Si5 0.662774 0.590096 0.741033
O O1 0.227998 0.122811 0.500000
O O2 0.250000 0.250000 0.450364
O O3 0.342005 0.131484 0.444344
O O4 0.210374 0.139546 0.399400
O O5 0.084646 0.500000 0.560089
O O6 0.085690 0.398074 0.631308
O O7 0.000000 0.376578 0.559457
O O8 0.500000 0.812014 0.315085
O O9 0.616501 0.752552 0.357606
O O10 0.627957 0.855165 0.282429
O O11 0.250000 0.750000 0.660221
O O12 0.342034 0.631479 0.689461
O O13 0.632384 0.500000 0.742448
O O14 0.750000 0.585430 0.750000
#
# Coordination Sequence:
#
# PCOD9512528 Si02
#       5
#    32  32  32  32  32
#     4  10  20  37  58  81 112 154 203 248 289 348
#     4  10  20  35  57  87 124 159 192 241 306 363
#     4  11  22  37  58  85 117 155 194 238 291 352
#     4  11  20  37  57  81 110 153 199 242 288 345
#     4  11  22  34  54  82 114 151 192 234 281 345
#
# _framework density 18.867428
#
# number of rings (size 3 to 8) (size 9 to 14) (size 15 to 20)
#    0.000    1.400    6.000    1.200    0.000    6.000 
#    0.000    1.000    0.000    0.600    0.000    0.000 
#    0.000    0.800    0.000   10.200    0.000    0.000 
#
# Total GULP energy -222769.946034 kJ/mol
# GULP energy per Si atom -5569.248651 kJ/mol
# Density = 1.882449 g / cm^3
# Si number density = 18.867428 Si / 1000 Ang^3
#
#
#
# Elastic Constant Matrix: (Units=GPa)
#
#
# Indices 1 2 3 4 5 6 
#
# 1 110.7088 35.6816 38.8073 0.0000 0.0000 0.0000
# 2 35.6816 51.6656 19.6544 0.0000 0.0000 0.0000
# 3 38.8073 19.6544 133.5984 0.0000 0.0000 0.0000
# 4 0.0000 0.0000 0.0000 -99.2688 0.0000 0.0000
# 5 0.0000 0.0000 0.0000 0.0000 7.4107 0.0000
# 6 0.0000 0.0000 0.0000 0.0000 0.0000 21.3199
#
#
#
# Elastic Compliance Matrix: (Units=1/GPa)
#
#
# Indices 1 2 3 4 5 6 
#
# 1 0.012343 -0.007585 -0.002469 0.000000 0.000000 0.000000
# 2 -0.007585 0.025164 -0.001499 0.000000 0.000000 0.000000
# 3 -0.002469 -0.001499 0.008423 0.000000 0.000000 0.000000
# 4 0.000000 0.000000 0.000000 -0.010074 0.000000 0.000000
# 5 0.000000 0.000000 0.000000 0.000000 0.134939 0.000000
# 6 0.000000 0.000000 0.000000 0.000000 0.000000 0.046905
#
#
# Mechanical properties :
#
#
# Convention : Reuss Voigt Hill
#
# Bulk Modulus (GPa) = 43.81480 53.80660 48.81070
# Shear Modulus (GPa) = 20.12770 -0.65234 9.73768
#
# Velocity S-wave (km/s) = 3.26973 -0.58864 2.27427
# Velocity P-wave (km/s) = 6.12598 5.30266 5.72913
#
# Compressibility (1/GPa) = 0.02282334
#
# Stress axis : x y z
#
# Youngs Moduli (GPa) = 81.01761 39.73967 118.72341
#
# Poissons Ratio (x) = 0.30142 0.29319
# Poissons Ratio (y) = 0.61452 0.17793
# Poissons Ratio (z) = 0.20007 0.05956
#
# Static dielectric constant tensor:
#      x y z
#    x 1.670060 0.000000 0.000000 
#    y 0.000000 1.681200 0.000000 
#    z 0.000000 0.000000 1.745340 
# 
# From -- ./inp_files/23450.got.cif
#   From: 2010.05.17/outbox.cif.g08.bks.cpg/sg69_12_cif.got.tgz:23450.got - 2010.06.03 19:29:58.
