data_PCOD9512357
_publ_section_title
;
Structure prediction by ZEFSAII (Michael W. Deem and Ramdas Pophale) SiO2 
 PCOD9512357
Probable space group: F M M M
;
_chemical_formula_sum "Si O2"
_cell_formula_units_Z 144
_cell_length_a 14.718884
_cell_length_b 15.209386
_cell_length_c 30.642657
_cell_angle_alpha 90.000000
_cell_angle_beta 90.000000
_cell_angle_gamma 90.000000
_cell_volume 6859.824178
_symmetry_space_group_name_H-M "F M M M"
_symmetry_group_IT_number 69
_symmetry_cell_setting 'orthorhombic'
loop_
_space_group_symop_operation_xyz
x,y,z
-x,-y,z
x,-y,-z
-x,y,-z
-x,-y,-z
x,y,-z
-x,y,z
x,-y,z
x,1/2+y,1/2+z
-x,1/2-y,1/2+z
x,1/2-y,1/2-z
-x,1/2+y,1/2-z
-x,1/2-y,1/2-z
x,1/2+y,1/2-z
-x,1/2+y,1/2+z
x,1/2-y,1/2+z
1/2+x,y,1/2+z
1/2-x,-y,1/2+z
1/2+x,-y,1/2-z
1/2-x,y,1/2-z
1/2-x,-y,1/2-z
1/2+x,y,1/2-z
1/2-x,y,1/2+z
1/2+x,-y,1/2+z
1/2+x,1/2+y,z
1/2-x,1/2-y,z
1/2+x,1/2-y,-z
1/2-x,1/2+y,-z
1/2-x,1/2-y,-z
1/2+x,1/2+y,-z
1/2-x,1/2+y,z
1/2+x,1/2-y,z
loop_
_atom_site_type_symbol
_atom_site_label
_atom_site_fract_x
_atom_site_fract_y
_atom_site_fract_z
Si Si1 0.858391 0.769209 0.899246
Si Si2 0.102805 0.852434 0.744886
Si Si3 0.000000 0.394042 0.447771
Si Si4 0.372268 0.597020 0.644542
Si Si5 0.663277 0.593014 0.168076
O O1 0.750000 0.750000 0.908698
O O2 0.912598 0.836275 0.930862
O O3 0.897098 0.672255 0.889768
O O4 0.874976 0.818765 0.852810
O O5 0.124395 0.750000 0.750000
O O6 0.103932 0.880524 0.694728
O O7 0.165440 0.900387 0.779936
O O8 0.000000 0.867535 0.761199
O O9 0.000000 0.500000 0.435495
O O10 0.000000 0.392729 0.500000
O O11 0.404109 0.500000 0.633296
O O12 0.263122 0.593153 0.647633
O O13 0.618454 0.500000 0.156285
#
# Coordination Sequence:
#
# PCOD9512357 Si02
#       5
#    32  32  16  32  32
#     4  10  22  41  67  97 134 172 217 270 330 396
#     4  11  22  32  46  74 116 165 222 277 328 373
#     4  11  26  48  77 110 137 165 207 265 337 415
#     4  10  21  36  55  81 118 168 220 267 319 380
#     4  10  20  34  54  80 113 164 221 274 324 375
#
# _framework density 20.991792
#
# number of rings (size 3 to 8) (size 9 to 14) (size 15 to 20)
#    0.000    1.667    2.222    2.000    3.111    5.778 
#    0.000    0.000    0.000    1.333    0.000    0.000 
#    0.000    0.000    0.000    0.000    0.000    0.000 
#
# Total GULP energy -200514.459620 kJ/mol
# GULP energy per Si atom -5569.846101 kJ/mol
# Density = 2.094401 g / cm^3
# Si number density = 20.991792 Si / 1000 Ang^3
#
#
#
# Elastic Constant Matrix: (Units=GPa)
#
#
# Indices 1 2 3 4 5 6 
#
# 1 67.9705 55.6102 25.8326 0.0000 0.0000 0.0000
# 2 55.6102 192.7572 49.1667 0.0000 0.0000 0.0000
# 3 25.8326 49.1667 82.7830 0.0000 0.0000 0.0000
# 4 0.0000 0.0000 0.0000 35.9239 0.0000 0.0000
# 5 0.0000 0.0000 0.0000 0.0000 21.6682 0.0000
# 6 0.0000 0.0000 0.0000 0.0000 0.0000 -19.7850
#
#
#
# Elastic Compliance Matrix: (Units=1/GPa)
#
#
# Indices 1 2 3 4 5 6 
#
# 1 0.020002 -0.004924 -0.003317 0.000000 0.000000 0.000000
# 2 -0.004924 0.007327 -0.002815 0.000000 0.000000 0.000000
# 3 -0.003317 -0.002815 0.014787 0.000000 0.000000 0.000000
# 4 0.000000 0.000000 0.000000 0.027837 0.000000 0.000000
# 5 0.000000 0.000000 0.000000 0.000000 0.046150 0.000000
# 6 0.000000 0.000000 0.000000 0.000000 0.000000 -0.050543
#
#
# Mechanical properties :
#
#
# Convention : Reuss Voigt Hill
#
# Bulk Modulus (GPa) = 49.99292 67.19217 58.59255
# Shear Modulus (GPa) = 53.00077 21.75485 37.37781
#
# Velocity S-wave (km/s) = 5.03022 3.22273 4.22428
# Velocity P-wave (km/s) = 7.58978 6.77689 7.19482
#
# Compressibility (1/GPa) = 0.02000283
#
# Stress axis : x y z
#
# Youngs Moduli (GPa) = 49.99546 136.49043 67.62916
#
# Poissons Ratio (x) = 0.67214 0.22432
# Poissons Ratio (y) = 0.24620 0.19036
# Poissons Ratio (z) = 0.16583 0.38418
#
# Static dielectric constant tensor:
#      x y z
#    x 1.866490 0.000000 0.000000 
#    y 0.000000 1.822850 0.000000 
#    z 0.000000 0.000000 1.702160 
# 
# From -- ./inp_files/21748.got.cif
#   From: 2010.05.17/outbox.cif.g08.bks.cpg/sg69_11_cif.got.tgz:21748.got - 2010.06.03 19:29:58.
