data_PCOD9512449
_publ_section_title
;
Structure prediction by ZEFSAII (Michael W. Deem and Ramdas Pophale) SiO2 
 PCOD9512449
Probable space group: F M M M
;
_chemical_formula_sum "Si O2"
_cell_formula_units_Z 176
_cell_length_a 26.986104
_cell_length_b 18.810603
_cell_length_c 20.203434
_cell_angle_alpha 90.000000
_cell_angle_beta 90.000000
_cell_angle_gamma 90.000000
_cell_volume 10255.765939
_symmetry_space_group_name_H-M "F M M M"
_symmetry_group_IT_number 69
_symmetry_cell_setting 'orthorhombic'
loop_
_space_group_symop_operation_xyz
x,y,z
-x,-y,z
x,-y,-z
-x,y,-z
-x,-y,-z
x,y,-z
-x,y,z
x,-y,z
x,1/2+y,1/2+z
-x,1/2-y,1/2+z
x,1/2-y,1/2-z
-x,1/2+y,1/2-z
-x,1/2-y,1/2-z
x,1/2+y,1/2-z
-x,1/2+y,1/2+z
x,1/2-y,1/2+z
1/2+x,y,1/2+z
1/2-x,-y,1/2+z
1/2+x,-y,1/2-z
1/2-x,y,1/2-z
1/2-x,-y,1/2-z
1/2+x,y,1/2-z
1/2-x,y,1/2+z
1/2+x,-y,1/2+z
1/2+x,1/2+y,z
1/2-x,1/2-y,z
1/2+x,1/2-y,-z
1/2-x,1/2+y,-z
1/2-x,1/2-y,-z
1/2+x,1/2+y,-z
1/2-x,1/2+y,z
1/2+x,1/2-y,z
loop_
_atom_site_type_symbol
_atom_site_label
_atom_site_fract_x
_atom_site_fract_y
_atom_site_fract_z
Si Si1 0.106605 0.082670 0.734779
Si Si2 0.559171 0.914762 0.500000
Si Si3 0.615273 0.158147 0.377479
Si Si4 0.770984 0.329792 0.423329
Si Si5 0.280622 0.082932 0.812630
Si Si6 0.055737 0.285526 0.823053
O O1 0.108559 0.113788 0.809397
O O2 0.161867 0.087904 0.705169
O O3 0.072833 0.134179 0.690396
O O4 0.091572 0.000000 0.735588
O O5 0.500000 0.901194 0.500000
O O6 0.585093 0.880538 0.564274
O O7 0.566509 0.000000 0.500000
O O8 0.673024 0.164124 0.396040
O O9 0.592711 0.236674 0.365171
O O10 0.770987 0.351863 0.500000
O O11 0.750000 0.250000 0.419361
O O12 0.735650 0.377272 0.378132
O O13 0.250000 0.112493 0.750000
O O14 0.267194 0.000000 0.819562
O O15 0.055414 0.250000 0.750000
O O16 0.000000 0.281947 0.849893
#
# Coordination Sequence:
#
# PCOD9512449 Si02
#       6
#    32  16  32  32  32  32
#     4  10  20  35  57  84 112 143 187 237 283 333
#     4  11  24  38  55  84 119 153 190 231 283 344
#     4  11  20  37  57  81 112 152 189 231 276 340
#     4  11  23  37  54  82 114 147 187 233 279 336
#     4  10  20  35  54  80 111 144 184 229 278 336
#     4   9  19  34  53  77 106 141 182 226 277 328
#
# _framework density 17.161078
#
# number of rings (size 3 to 8) (size 9 to 14) (size 15 to 20)
#    0.000    1.727    2.727    2.182    0.000    2.545 
#    0.000    0.000    0.000    0.000    0.000    0.000 
#    0.000    2.182    0.000    0.000    0.000    0.000 
#
# Total GULP energy -245556.523023 kJ/mol
# GULP energy per Si atom -5580.830069 kJ/mol
# Density = 1.712202 g / cm^3
# Si number density = 17.161078 Si / 1000 Ang^3
#
#
#
# Elastic Constant Matrix: (Units=GPa)
#
#
# Indices 1 2 3 4 5 6 
#
# 1 55.3388 38.7813 29.5883 0.0000 0.0000 0.0000
# 2 38.7813 108.2003 53.9718 0.0000 0.0000 0.0000
# 3 29.5883 53.9718 96.7045 0.0000 0.0000 0.0000
# 4 0.0000 0.0000 0.0000 25.3897 0.0000 0.0000
# 5 0.0000 0.0000 0.0000 0.0000 18.3164 0.0000
# 6 0.0000 0.0000 0.0000 0.0000 0.0000 28.4032
#
#
#
# Elastic Compliance Matrix: (Units=1/GPa)
#
#
# Indices 1 2 3 4 5 6 
#
# 1 0.025041 -0.007142 -0.003676 0.000000 0.000000 0.000000
# 2 -0.007142 0.014844 -0.006100 0.000000 0.000000 0.000000
# 3 -0.003676 -0.006100 0.014870 0.000000 0.000000 0.000000
# 4 0.000000 0.000000 0.000000 0.039386 0.000000 0.000000
# 5 0.000000 0.000000 0.000000 0.000000 0.054596 0.000000
# 6 0.000000 0.000000 0.000000 0.000000 0.000000 0.035207
#
#
# Mechanical properties :
#
#
# Convention : Reuss Voigt Hill
#
# Bulk Modulus (GPa) = 47.79970 56.10292 51.95131
# Shear Modulus (GPa) = 22.24674 23.61534 22.93104
#
# Velocity S-wave (km/s) = 3.60439 3.71360 3.65940
# Velocity P-wave (km/s) = 6.72579 7.15197 6.94215
#
# Compressibility (1/GPa) = 0.02092063
#
# Stress axis : x y z
#
# Youngs Moduli (GPa) = 39.93504 67.36525 67.25040
#
# Poissons Ratio (x) = 0.48109 0.24720
# Poissons Ratio (y) = 0.28520 0.41021
# Poissons Ratio (z) = 0.14679 0.41091
#
# Static dielectric constant tensor:
#      x y z
#    x 1.571930 0.000000 0.000000 
#    y 0.000000 1.578180 0.000000 
#    z 0.000000 0.000000 1.557490 
# 
# From -- ./inp_files/23571.got.cif
#   From: 2010.05.17/outbox.cif.g08.bks.cpg/sg69_12_cif.got.tgz:23571.got - 2010.06.03 19:29:58.
