data_PCOD9512621
_publ_section_title
;
Structure prediction by ZEFSAII (Michael W. Deem and Ramdas Pophale) SiO2 
 PCOD9512621
Probable space group: F M M M
;
_chemical_formula_sum "Si O2"
_cell_formula_units_Z 160
_cell_length_a 17.940940
_cell_length_b 15.360030
_cell_length_c 30.562765
_cell_angle_alpha 90.000000
_cell_angle_beta 90.000000
_cell_angle_gamma 90.000000
_cell_volume 8422.284350
_symmetry_space_group_name_H-M "F M M M"
_symmetry_group_IT_number 69
_symmetry_cell_setting 'orthorhombic'
loop_
_space_group_symop_operation_xyz
x,y,z
-x,-y,z
x,-y,-z
-x,y,-z
-x,-y,-z
x,y,-z
-x,y,z
x,-y,z
x,1/2+y,1/2+z
-x,1/2-y,1/2+z
x,1/2-y,1/2-z
-x,1/2+y,1/2-z
-x,1/2-y,1/2-z
x,1/2+y,1/2-z
-x,1/2+y,1/2+z
x,1/2-y,1/2+z
1/2+x,y,1/2+z
1/2-x,-y,1/2+z
1/2+x,-y,1/2-z
1/2-x,y,1/2-z
1/2-x,-y,1/2-z
1/2+x,y,1/2-z
1/2-x,y,1/2+z
1/2+x,-y,1/2+z
1/2+x,1/2+y,z
1/2-x,1/2-y,z
1/2+x,1/2-y,-z
1/2-x,1/2+y,-z
1/2-x,1/2-y,-z
1/2+x,1/2+y,-z
1/2-x,1/2+y,z
1/2+x,1/2-y,z
loop_
_atom_site_type_symbol
_atom_site_label
_atom_site_fract_x
_atom_site_fract_y
_atom_site_fract_z
Si Si1 0.850461 0.685973 0.086031
Si Si2 0.839871 0.246940 0.683567
Si Si3 0.703042 0.138934 0.550376
Si Si4 0.159208 0.398744 0.746862
Si Si5 0.083624 0.000000 0.946806
Si Si6 0.000000 0.103830 0.550463
O O1 0.858969 0.728435 0.133588
O O2 0.775352 0.628194 0.081157
O O3 0.828401 0.763534 0.053154
O O4 0.925167 0.638618 0.072625
O O5 0.750000 0.250000 0.686052
O O6 0.863268 0.339263 0.704937
O O7 0.864820 0.163861 0.712780
O O8 0.722295 0.116652 0.500000
O O9 0.633969 0.081391 0.565645
O O10 0.134012 0.500000 0.747068
O O11 0.250000 0.401854 0.750000
O O12 0.000000 0.000000 0.929634
O O13 0.079015 0.000000 0.000000
O O14 0.000000 0.132763 0.500000
O O15 0.000000 0.000000 0.551753
#
# Coordination Sequence:
#
# PCOD9512621 Si02
#       6
#    32  32  32  32  16  16
#     4  11  21  37  57  84 113 152 201 251 299 346
#     4   9  16  31  51  82 118 146 190 240 293 354
#     4  10  20  36  58  81 110 150 193 243 301 357
#     4   8  15  28  50  79 116 155 182 225 298 361
#     4   9  20  36  56  83 111 142 189 240 294 359
#     4  11  26  42  58  80 115 163 211 258 306 358
#
# _framework density 18.997222000000001
#
# number of rings (size 3 to 8) (size 9 to 14) (size 15 to 20)
#    0.000    2.400    2.000    3.600    2.800    0.800 
#    1.800    0.000    0.000    2.400    0.000    1.400 
#    0.000    0.000    0.000    0.000    0.000    0.000 
#
# Total GULP energy -222764.928946 kJ/mol
# GULP energy per Si atom -5569.123224 kJ/mol
# Density = 1.895398 g / cm^3
# Si number density = 18.997222 Si / 1000 Ang^3
#
#
#
# Elastic Constant Matrix: (Units=GPa)
#
#
# Indices 1 2 3 4 5 6 
#
# 1 110.9948 43.8648 24.3322 0.0000 0.0000 0.0000
# 2 43.8648 114.8602 42.2551 0.0000 0.0000 0.0000
# 3 24.3322 42.2551 109.8944 0.0000 0.0000 0.0000
# 4 0.0000 0.0000 0.0000 12.8057 0.0000 0.0000
# 5 0.0000 0.0000 0.0000 0.0000 9.5574 0.0000
# 6 0.0000 0.0000 0.0000 0.0000 0.0000 22.9630
#
#
#
# Elastic Compliance Matrix: (Units=1/GPa)
#
#
# Indices 1 2 3 4 5 6 
#
# 1 0.010692 -0.003741 -0.000929 0.000000 0.000000 0.000000
# 2 -0.003741 0.011450 -0.003574 0.000000 0.000000 0.000000
# 3 -0.000929 -0.003574 0.010680 0.000000 0.000000 0.000000
# 4 0.000000 0.000000 0.000000 0.078090 0.000000 0.000000
# 5 0.000000 0.000000 0.000000 0.000000 0.104631 0.000000
# 6 0.000000 0.000000 0.000000 0.000000 0.000000 0.043548
#
#
# Mechanical properties :
#
#
# Convention : Reuss Voigt Hill
#
# Bulk Modulus (GPa) = 61.22743 61.85040 61.53891
# Shear Modulus (GPa) = 17.79211 24.08504 20.93857
#
# Velocity S-wave (km/s) = 3.06365 3.56451 3.32353
# Velocity P-wave (km/s) = 6.69435 7.04054 6.86963
#
# Compressibility (1/GPa) = 0.01633255
#
# Stress axis : x y z
#
# Youngs Moduli (GPa) = 93.53114 87.33648 93.63688
#
# Poissons Ratio (x) = 0.32677 0.08696
# Poissons Ratio (y) = 0.34994 0.33467
# Poissons Ratio (z) = 0.08686 0.31216
#
# Static dielectric constant tensor:
#      x y z
#    x 1.656160 0.000000 0.000000 
#    y 0.000000 1.726620 0.000000 
#    z 0.000000 0.000000 1.682340 
# 
# From -- ./inp_files/46278.got.cif
#   From: 2010.05.17/outbox.cif.g08.bks.cpg/sg69_24_cif.got.tgz:46278.got - 2010.06.03 19:29:58.
