data_PCOD9512281
_publ_section_title
;
Structure prediction by ZEFSAII (Michael W. Deem and Ramdas Pophale) SiO2 
 PCOD9512281
Probable space group: F M M M
;
_chemical_formula_sum "Si O2"
_cell_formula_units_Z 160
_cell_length_a 19.461590
_cell_length_b 26.146841
_cell_length_c 16.010919
_cell_angle_alpha 90.000000
_cell_angle_beta 90.000000
_cell_angle_gamma 90.000000
_cell_volume 8147.301822
_symmetry_space_group_name_H-M "F M M M"
_symmetry_group_IT_number 69
_symmetry_cell_setting 'orthorhombic'
loop_
_space_group_symop_operation_xyz
x,y,z
-x,-y,z
x,-y,-z
-x,y,-z
-x,-y,-z
x,y,-z
-x,y,z
x,-y,z
x,1/2+y,1/2+z
-x,1/2-y,1/2+z
x,1/2-y,1/2-z
-x,1/2+y,1/2-z
-x,1/2-y,1/2-z
x,1/2+y,1/2-z
-x,1/2+y,1/2+z
x,1/2-y,1/2+z
1/2+x,y,1/2+z
1/2-x,-y,1/2+z
1/2+x,-y,1/2-z
1/2-x,y,1/2-z
1/2-x,-y,1/2-z
1/2+x,y,1/2-z
1/2-x,y,1/2+z
1/2+x,-y,1/2+z
1/2+x,1/2+y,z
1/2-x,1/2-y,z
1/2+x,1/2-y,-z
1/2-x,1/2+y,-z
1/2-x,1/2-y,-z
1/2+x,1/2+y,-z
1/2-x,1/2+y,z
1/2+x,1/2-y,z
loop_
_atom_site_type_symbol
_atom_site_label
_atom_site_fract_x
_atom_site_fract_y
_atom_site_fract_z
Si Si1 0.920417 0.054684 0.375896
Si Si2 0.578956 0.807039 0.215301
Si Si3 0.577560 0.089961 0.313287
Si Si4 0.714199 0.942118 0.399661
Si Si5 0.820397 0.357344 0.092957
O O1 0.916165 0.061192 0.275763
O O2 0.880534 0.100964 0.414236
O O3 0.000000 0.056283 0.397926
O O4 0.891348 0.000000 0.400828
O O5 0.500000 0.815338 0.180919
O O6 0.581360 0.750000 0.250000
O O7 0.586148 0.850472 0.286843
O O8 0.642279 0.816188 0.151836
O O9 0.500000 0.082354 0.344941
O O10 0.636564 0.070065 0.373142
O O11 0.721660 0.942186 0.500000
O O12 0.760226 0.893737 0.369575
O O13 0.731870 0.000000 0.369620
O O14 0.801426 0.338464 0.000000
#
# Coordination Sequence:
#
# PCOD9512281 Si02
#       5
#    32  32  32  32  32
#     4   9  17  28  45  72 103 135 171 210 254 307
#     4   9  19  37  59  81 105 135 175 222 268 314
#     4   9  18  34  54  75 102 137 182 232 273 315
#     4  10  21  35  51  75 109 146 180 217 265 320
#     4  10  20  34  51  75 108 140 171 210 258 315
#
# _framework density 19.638404000000001
#
# number of rings (size 3 to 8) (size 9 to 14) (size 15 to 20)
#    0.000    2.600    0.000    3.000    0.000    7.600 
#    0.000   10.000    0.000    6.000    0.000    0.000 
#    0.000    0.000    0.000    0.000    0.000    0.000 
#
# Total GULP energy -222864.895017 kJ/mol
# GULP energy per Si atom -5571.622375 kJ/mol
# Density = 1.959371 g / cm^3
# Si number density = 19.638404 Si / 1000 Ang^3
#
#
#
# Elastic Constant Matrix: (Units=GPa)
#
#
# Indices 1 2 3 4 5 6 
#
# 1 110.2780 24.5380 24.4153 0.0000 0.0000 0.0000
# 2 24.5380 90.8052 18.9807 0.0000 0.0000 0.0000
# 3 24.4153 18.9807 21.9392 0.0000 0.0000 0.0000
# 4 0.0000 0.0000 0.0000 -10.1994 0.0000 0.0000
# 5 0.0000 0.0000 0.0000 0.0000 33.4860 0.0000
# 6 0.0000 0.0000 0.0000 0.0000 0.0000 84.7587
#
#
#
# Elastic Compliance Matrix: (Units=1/GPa)
#
#
# Indices 1 2 3 4 5 6 
#
# 1 0.012055 -0.000553 -0.012937 0.000000 0.000000 0.000000
# 2 -0.000553 0.013469 -0.011037 0.000000 0.000000 0.000000
# 3 -0.012937 -0.011037 0.069526 0.000000 0.000000 0.000000
# 4 0.000000 0.000000 0.000000 -0.098045 0.000000 0.000000
# 5 0.000000 0.000000 0.000000 0.000000 0.029863 0.000000
# 6 0.000000 0.000000 0.000000 0.000000 0.000000 0.011798
#
#
# Mechanical properties :
#
#
# Convention : Reuss Voigt Hill
#
# Bulk Modulus (GPa) = 21.74109 39.87670 30.80890
# Shear Modulus (GPa) = 48.51828 31.94829 40.23329
#
# Velocity S-wave (km/s) = 4.97589 4.03777 4.53117
# Velocity P-wave (km/s) = 6.64134 6.48750 6.56487
#
# Compressibility (1/GPa) = 0.04599585
#
# Stress axis : x y z
#
# Youngs Moduli (GPa) = 82.95034 74.24369 14.38305
#
# Poissons Ratio (x) = 0.04109 0.18608
# Poissons Ratio (y) = 0.04591 0.15874
# Poissons Ratio (z) = 1.07314 0.81942
#
# Static dielectric constant tensor:
#      x y z
#    x 1.723050 0.000000 0.000000 
#    y 0.000000 1.692290 0.000000 
#    z 0.000000 0.000000 1.735960 
# 
# From -- ./inp_files/23144.got.cif
#   From: 2010.05.17/outbox.cif.g08.bks.cpg/sg69_12_cif.got.tgz:23144.got - 2010.06.03 19:29:58.
