data_PCOD9512633
_publ_section_title
;
Structure prediction by ZEFSAII (Michael W. Deem and Ramdas Pophale) SiO2 
 PCOD9512633
Probable space group: F M M M
;
_chemical_formula_sum "Si O2"
_cell_formula_units_Z 112
_cell_length_a 8.632064
_cell_length_b 27.592226
_cell_length_c 23.225355
_cell_angle_alpha 90.000000
_cell_angle_beta 90.000000
_cell_angle_gamma 90.000000
_cell_volume 5531.765369
_symmetry_space_group_name_H-M "F M M M"
_symmetry_group_IT_number 69
_symmetry_cell_setting 'orthorhombic'
loop_
_space_group_symop_operation_xyz
x,y,z
-x,-y,z
x,-y,-z
-x,y,-z
-x,-y,-z
x,y,-z
-x,y,z
x,-y,z
x,1/2+y,1/2+z
-x,1/2-y,1/2+z
x,1/2-y,1/2-z
-x,1/2+y,1/2-z
-x,1/2-y,1/2-z
x,1/2+y,1/2-z
-x,1/2+y,1/2+z
x,1/2-y,1/2+z
1/2+x,y,1/2+z
1/2-x,-y,1/2+z
1/2+x,-y,1/2-z
1/2-x,y,1/2-z
1/2-x,-y,1/2-z
1/2+x,y,1/2-z
1/2-x,y,1/2+z
1/2+x,-y,1/2+z
1/2+x,1/2+y,z
1/2-x,1/2-y,z
1/2+x,1/2-y,-z
1/2-x,1/2+y,-z
1/2-x,1/2-y,-z
1/2+x,1/2+y,-z
1/2-x,1/2+y,z
1/2+x,1/2-y,z
loop_
_atom_site_type_symbol
_atom_site_label
_atom_site_fract_x
_atom_site_fract_y
_atom_site_fract_z
Si Si1 0.183955 0.129437 0.933399
Si Si2 0.184524 0.057085 0.652409
Si Si3 0.327598 0.800005 0.157672
Si Si4 0.250000 0.377233 0.750000
O O1 0.275762 0.083702 0.907075
O O2 0.230602 0.174309 0.892737
O O3 0.000000 0.120998 0.928915
O O4 0.222720 0.137848 0.000000
O O5 0.291776 0.084340 0.699722
O O6 0.000000 0.064504 0.666274
O O7 0.212825 0.000000 0.651240
O O8 0.500000 0.790166 0.136393
O O9 0.250000 0.750000 0.176121
O O10 0.337775 0.838425 0.209852
#
# Coordination Sequence:
#
# PCOD9512633 Si02
#       4
#    32  32  32  16
#     4  10  22  40  61  86 117 153 194 241 291 342
#     4  10  22  39  60  87 118 155 196 238 289 345
#     4  11  24  40  61  88 117 153 194 237 289 346
#     4  10  20  36  58  84 116 150 188 234 280 336
#
# _framework density 20.246701000000002
#
# number of rings (size 3 to 8) (size 9 to 14) (size 15 to 20)
#    0.000    1.714    0.000    5.143    0.000   16.571 
#    0.000    2.857    0.000    0.000    0.000    0.000 
#    0.000    0.000    0.000    0.000    0.000    0.000 
#
# Total GULP energy -155890.126737 kJ/mol
# GULP energy per Si atom -5567.504526 kJ/mol
# Density = 2.020062 g / cm^3
# Si number density = 20.246701 Si / 1000 Ang^3
#
#
#
# Elastic Constant Matrix: (Units=GPa)
#
#
# Indices 1 2 3 4 5 6 
#
# 1 51.8090 44.3874 40.6281 0.0000 0.0000 0.0000
# 2 44.3874 157.7563 32.6614 0.0000 0.0000 0.0000
# 3 40.6281 32.6614 114.9576 0.0000 0.0000 0.0000
# 4 0.0000 0.0000 0.0000 12.2300 0.0000 0.0000
# 5 0.0000 0.0000 0.0000 0.0000 -19.2550 0.0000
# 6 0.0000 0.0000 0.0000 0.0000 0.0000 16.6459
#
#
#
# Elastic Compliance Matrix: (Units=1/GPa)
#
#
# Indices 1 2 3 4 5 6 
#
# 1 0.033129 -0.007328 -0.009626 0.000000 0.000000 0.000000
# 2 -0.007328 0.008356 0.000216 0.000000 0.000000 0.000000
# 3 -0.009626 0.000216 0.012040 0.000000 0.000000 0.000000
# 4 0.000000 0.000000 0.000000 0.081766 0.000000 0.000000
# 5 0.000000 0.000000 0.000000 0.000000 -0.051935 0.000000
# 6 0.000000 0.000000 0.000000 0.000000 0.000000 0.060075
#
#
# Mechanical properties :
#
#
# Convention : Reuss Voigt Hill
#
# Bulk Modulus (GPa) = 49.88226 62.20853 56.04539
# Shear Modulus (GPa) = 27.23436 15.71392 21.47414
#
# Velocity S-wave (km/s) = 3.67157 2.78892 3.26026
# Velocity P-wave (km/s) = 6.53182 6.41582 6.47408
#
# Compressibility (1/GPa) = 0.02004721
#
# Stress axis : x y z
#
# Youngs Moduli (GPa) = 30.18487 119.67190 83.05892
#
# Poissons Ratio (x) = 0.87701 0.79955
# Poissons Ratio (y) = 0.22121 -0.01793
# Poissons Ratio (z) = 0.29057 -0.02583
#
# Static dielectric constant tensor:
#      x y z
#    x 1.716840 0.000000 0.000000 
#    y 0.000000 1.695330 0.000000 
#    z 0.000000 0.000000 1.709310 
# 
# From -- ./inp_files/34492.got.cif
#   From: 2010.05.17/outbox.cif.g08.bks.cpg/sg69_18_cif.got.tgz:34492.got - 2010.06.03 19:29:58.
