data_PCOD9512188
_publ_section_title
;
Structure prediction by ZEFSAII (Michael W. Deem and Ramdas Pophale) SiO2 
 PCOD9512188
Probable space group: F M M M
;
_chemical_formula_sum "Si O2"
_cell_formula_units_Z 100
_cell_length_a 23.809364
_cell_length_b 7.604473
_cell_length_c 28.748021
_cell_angle_alpha 90.000000
_cell_angle_beta 90.000000
_cell_angle_gamma 90.000000
_cell_volume 5205.049575
_symmetry_space_group_name_H-M "F M M M"
_symmetry_group_IT_number 69
_symmetry_cell_setting 'orthorhombic'
loop_
_space_group_symop_operation_xyz
x,y,z
-x,-y,z
x,-y,-z
-x,y,-z
-x,-y,-z
x,y,-z
-x,y,z
x,-y,z
x,1/2+y,1/2+z
-x,1/2-y,1/2+z
x,1/2-y,1/2-z
-x,1/2+y,1/2-z
-x,1/2-y,1/2-z
x,1/2+y,1/2-z
-x,1/2+y,1/2+z
x,1/2-y,1/2+z
1/2+x,y,1/2+z
1/2-x,-y,1/2+z
1/2+x,-y,1/2-z
1/2-x,y,1/2-z
1/2-x,-y,1/2-z
1/2+x,y,1/2-z
1/2-x,y,1/2+z
1/2+x,-y,1/2+z
1/2+x,1/2+y,z
1/2-x,1/2-y,z
1/2+x,1/2-y,-z
1/2-x,1/2+y,-z
1/2-x,1/2-y,-z
1/2+x,1/2+y,-z
1/2-x,1/2+y,z
1/2+x,1/2-y,z
loop_
_atom_site_type_symbol
_atom_site_label
_atom_site_fract_x
_atom_site_fract_y
_atom_site_fract_z
Si Si1 0.500000 0.000000 0.000000
Si Si2 0.687075 0.293357 0.902905
Si Si3 0.652815 0.794110 0.298647
Si Si4 0.400714 0.000000 0.076574
Si Si5 0.064625 0.500000 0.816384
O O1 0.549737 0.000000 0.959993
O O2 0.675531 0.500000 0.909491
O O3 0.750000 0.250000 0.918982
O O4 0.684006 0.253910 0.847153
O O5 0.640339 0.169568 0.925989
O O6 0.683016 0.750000 0.250000
O O7 0.598129 0.670761 0.299046
O O8 0.639466 0.000000 0.299494
O O9 0.427971 0.000000 0.127901
O O10 0.000000 0.500000 0.803006
#
# Coordination Sequence:
#
# PCOD9512188 Si02
#       5
#     4  32  32  16  16
#     4  12  24  48  78  92 120 162 192 254 306 388
#     4  10  20  37  64  92 126 166 201 249 305 361
#     4  10  20  33  49  81 122 162 214 250 289 345
#     4  10  22  42  65  96 120 156 202 244 315 370
#     4  10  20  36  55  75 116 162 202 253 299 350
#
# _framework density 19.212112000000001
#
# number of rings (size 3 to 8) (size 9 to 14) (size 15 to 20)
#    0.000    1.920    4.000    0.000    0.000    1.920 
#    0.000    6.400    0.000    0.000    0.000    0.000 
#    0.000    0.000    0.000    0.000    0.000    0.000 
#
# Total GULP energy -139234.591074 kJ/mol
# GULP energy per Si atom -5569.383643 kJ/mol
# Density = 1.916838 g / cm^3
# Si number density = 19.212112 Si / 1000 Ang^3
#
#
#
# Elastic Constant Matrix: (Units=GPa)
#
#
# Indices 1 2 3 4 5 6 
#
# 1 159.4846 64.8402 44.2820 0.0000 0.0000 0.0002
# 2 64.8402 115.7191 28.4776 0.0001 0.0000 0.0005
# 3 44.2820 28.4776 87.9235 0.0000 0.0000 0.0000
# 4 0.0000 0.0001 0.0000 -8.8520 0.0001 0.0000
# 5 0.0000 0.0000 0.0000 0.0001 0.2317 0.0000
# 6 0.0002 0.0005 0.0000 0.0000 0.0000 13.5415
#
#
#
# Elastic Compliance Matrix: (Units=1/GPa)
#
#
# Indices 1 2 3 4 5 6 
#
# 1 0.008831 -0.004187 -0.003091 0.000000 -0.000001 0.000000
# 2 -0.004187 0.011376 -0.001575 0.000000 0.000003 0.000000
# 3 -0.003091 -0.001575 0.013441 0.000000 0.000000 0.000000
# 4 0.000000 0.000000 0.000000 -0.112969 0.000029 0.000000
# 5 -0.000001 0.000003 0.000000 0.000029 4.316472 -0.000002
# 6 0.000000 0.000000 0.000000 0.000000 -0.000002 0.073847
#
#
# Mechanical properties :
#
#
# Convention : Reuss Voigt Hill
#
# Bulk Modulus (GPa) = 62.74013 70.92520 66.83266
# Shear Modulus (GPa) = 1.15366 16.01939 8.58653
#
# Velocity S-wave (km/s) = 0.77575 2.89072 2.11637
# Velocity P-wave (km/s) = 5.79050 6.93821 6.39017
#
# Compressibility (1/GPa) = 0.01593876
#
# Stress axis : x y z
#
# Youngs Moduli (GPa) = 113.23748 87.90700 74.40049
#
# Poissons Ratio (x) = 0.36811 0.23000
# Poissons Ratio (y) = 0.47418 0.11722
# Poissons Ratio (z) = 0.35006 0.13850
#
# Static dielectric constant tensor:
#      x y z
#    x 1.628360 0.000000 0.000000 
#    y 0.000000 1.656550 0.000000 
#    z 0.000000 0.000000 1.692740 
# 
# From -- ./inp_files/3097.got.cif
#   From: 2010.05.17/outbox.cif.g08.bks.cpg/sg69_2_cif.got.tgz:3097.got - 2010.06.03 19:29:58.
