data_PCOD9512086
_publ_section_title
;
Structure prediction by ZEFSAII (Michael W. Deem and Ramdas Pophale) SiO2 
 PCOD9512086
Probable space group: F M M M
;
_chemical_formula_sum "Si O2"
_cell_formula_units_Z 160
_cell_length_a 30.329941
_cell_length_b 9.128657
_cell_length_c 32.368633
_cell_angle_alpha 90.000000
_cell_angle_beta 90.000000
_cell_angle_gamma 90.000000
_cell_volume 8961.956122
_symmetry_space_group_name_H-M "F M M M"
_symmetry_group_IT_number 69
_symmetry_cell_setting 'orthorhombic'
loop_
_space_group_symop_operation_xyz
x,y,z
-x,-y,z
x,-y,-z
-x,y,-z
-x,-y,-z
x,y,-z
-x,y,z
x,-y,z
x,1/2+y,1/2+z
-x,1/2-y,1/2+z
x,1/2-y,1/2-z
-x,1/2+y,1/2-z
-x,1/2-y,1/2-z
x,1/2+y,1/2-z
-x,1/2+y,1/2+z
x,1/2-y,1/2+z
1/2+x,y,1/2+z
1/2-x,-y,1/2+z
1/2+x,-y,1/2-z
1/2-x,y,1/2-z
1/2-x,-y,1/2-z
1/2+x,y,1/2-z
1/2-x,y,1/2+z
1/2+x,-y,1/2+z
1/2+x,1/2+y,z
1/2-x,1/2-y,z
1/2+x,1/2-y,-z
1/2-x,1/2+y,-z
1/2-x,1/2-y,-z
1/2+x,1/2+y,-z
1/2-x,1/2+y,z
1/2+x,1/2-y,z
loop_
_atom_site_type_symbol
_atom_site_label
_atom_site_fract_x
_atom_site_fract_y
_atom_site_fract_z
Si Si1 0.672723 0.675629 0.500000
Si Si2 0.452297 0.839231 0.927409
Si Si3 0.118527 0.330967 0.855659
Si Si4 0.796266 0.322317 0.092172
Si Si5 0.050612 0.175669 0.205102
Si Si6 0.079898 0.832608 0.000000
O O1 0.673517 0.500000 0.500000
O O2 0.693176 0.722666 0.544295
O O3 0.623141 0.732889 0.500000
O O4 0.500000 0.830939 0.906693
O O5 0.413347 0.833081 0.895248
O O6 0.447385 0.711776 0.960057
O O7 0.449824 0.000000 0.948223
O O8 0.123394 0.500000 0.840958
O O9 0.165210 0.280353 0.875161
O O10 0.090611 0.237671 0.822732
O O11 0.794067 0.500000 0.092537
O O12 0.750000 0.250000 0.103606
O O13 0.053928 0.250000 0.250000
O O14 0.000000 0.208187 0.189973
O O15 0.054125 0.000000 0.208081
O O16 0.092902 0.000000 0.000000
#
# Coordination Sequence:
#
# PCOD9512086 Si02
#       6
#    16  32  32  32  32  16
#     4  10  19  38  58  73 102 146 194 235 279 336
#     4  10  20  35  54  72  99 144 188 222 266 330
#     4  10  20  36  58  82 109 144 184 226 273 329
#     4  10  21  36  58  82 109 144 186 236 284 333
#     4  10  21  37  59  88 120 151 182 220 267 323
#     4  12  23  32  47  72 105 141 180 233 279 318
#
# _framework density 17.853245000000001
#
# number of rings (size 3 to 8) (size 9 to 14) (size 15 to 20)
#    0.000    1.800    2.000    2.700    0.000    6.000 
#    0.000    0.000    0.000    0.600    0.000    4.200 
#    0.000    0.000    0.000    0.000    0.000    0.000 
#
# Total GULP energy -222930.213216 kJ/mol
# GULP energy per Si atom -5573.255330 kJ/mol
# Density = 1.781261 g / cm^3
# Si number density = 17.853245 Si / 1000 Ang^3
#
#
#
# Elastic Constant Matrix: (Units=GPa)
#
#
# Indices 1 2 3 4 5 6 
#
# 1 163.6711 34.0472 53.5649 0.0001 0.0000 -0.0003
# 2 34.0472 32.1528 40.2397 0.0001 -0.0001 -0.0004
# 3 53.5649 40.2397 81.3112 0.0000 0.0000 0.0000
# 4 0.0001 0.0001 0.0000 19.5104 0.0000 -0.0001
# 5 0.0000 -0.0001 0.0000 0.0000 8.7990 0.0000
# 6 -0.0003 -0.0004 0.0000 -0.0001 0.0000 28.3224
#
#
#
# Elastic Compliance Matrix: (Units=1/GPa)
#
#
# Indices 1 2 3 4 5 6 
#
# 1 0.008081 -0.004978 -0.002860 0.000000 0.000000 0.000000
# 2 -0.004978 0.084774 -0.038674 0.000000 0.000001 0.000001
# 3 -0.002860 -0.038674 0.033322 0.000000 0.000000 -0.000001
# 4 0.000000 0.000000 0.000000 0.051255 0.000000 0.000000
# 5 0.000000 0.000001 0.000000 0.000000 0.113649 0.000000
# 6 0.000000 0.000001 -0.000001 0.000000 0.000000 0.035308
#
#
# Mechanical properties :
#
#
# Convention : Reuss Voigt Hill
#
# Bulk Modulus (GPa) = 30.16341 59.20430 44.68385
# Shear Modulus (GPa) = 11.61535 21.27858 16.44696
#
# Velocity S-wave (km/s) = 2.55346 3.45608 3.03847
# Velocity P-wave (km/s) = 5.06215 7.01139 6.11494
#
# Compressibility (1/GPa) = 0.03315275
#
# Stress axis : x y z
#
# Youngs Moduli (GPa) = 123.74084 11.79607 30.01028
#
# Poissons Ratio (x) = 0.05872 0.08584
# Poissons Ratio (y) = 0.61597 1.16062
# Poissons Ratio (z) = 0.35393 0.45620
#
# Static dielectric constant tensor:
#      x y z
#    x 1.610960 0.000000 0.000000 
#    y 0.000000 1.618510 0.000000 
#    z 0.000000 0.000000 1.616140 
# 
# From -- ./inp_files/44583.got.cif
#   From: 2010.05.17/outbox.cif.g08.bks.cpg/sg69_23_cif.got.tgz:44583.got - 2010.06.03 19:29:58.
