data_PCOD9512110
_publ_section_title
;
Structure prediction by ZEFSAII (Michael W. Deem and Ramdas Pophale) SiO2 
 PCOD9512110
Probable space group: F M M M
;
_chemical_formula_sum "Si O2"
_cell_formula_units_Z 176
_cell_length_a 18.306288
_cell_length_b 14.559630
_cell_length_c 30.202252
_cell_angle_alpha 90.000000
_cell_angle_beta 90.000000
_cell_angle_gamma 90.000000
_cell_volume 8049.890186
_symmetry_space_group_name_H-M "F M M M"
_symmetry_group_IT_number 69
_symmetry_cell_setting 'orthorhombic'
loop_
_space_group_symop_operation_xyz
x,y,z
-x,-y,z
x,-y,-z
-x,y,-z
-x,-y,-z
x,y,-z
-x,y,z
x,-y,z
x,1/2+y,1/2+z
-x,1/2-y,1/2+z
x,1/2-y,1/2-z
-x,1/2+y,1/2-z
-x,1/2-y,1/2-z
x,1/2+y,1/2-z
-x,1/2+y,1/2+z
x,1/2-y,1/2+z
1/2+x,y,1/2+z
1/2-x,-y,1/2+z
1/2+x,-y,1/2-z
1/2-x,y,1/2-z
1/2-x,-y,1/2-z
1/2+x,y,1/2-z
1/2-x,y,1/2+z
1/2+x,-y,1/2+z
1/2+x,1/2+y,z
1/2-x,1/2-y,z
1/2+x,1/2-y,-z
1/2-x,1/2+y,-z
1/2-x,1/2-y,-z
1/2+x,1/2+y,-z
1/2-x,1/2+y,z
1/2+x,1/2-y,z
loop_
_atom_site_type_symbol
_atom_site_label
_atom_site_fract_x
_atom_site_fract_y
_atom_site_fract_z
Si Si1 0.359123 0.895561 0.107997
Si Si2 0.583207 0.634023 0.704050
Si Si3 0.914391 0.645315 0.302285
Si Si4 0.302858 0.889547 0.381818
Si Si5 0.500000 0.387419 0.552331
Si Si6 0.579138 0.112092 0.449123
O O1 0.379137 0.899725 0.159876
O O2 0.278584 0.851987 0.110524
O O3 0.426939 0.856398 0.079226
O O4 0.351544 0.000000 0.090776
O O5 0.500000 0.603506 0.701730
O O6 0.608512 0.609727 0.753539
O O7 0.583488 0.744514 0.700976
O O8 0.851752 0.624177 0.337811
O O9 0.000000 0.616401 0.311785
O O10 0.354679 0.853721 0.420544
O O11 0.295961 0.000000 0.385155
O O12 0.500000 0.500000 0.554030
O O13 0.500000 0.361684 0.500000
O O14 0.584098 0.139636 0.500000
O O15 0.500000 0.140379 0.431055
O O16 0.580356 0.000000 0.448202
#
# Coordination Sequence:
#
# PCOD9512110 Si02
#       6
#    32  32  32  32  16  32
#     4  10  20  33  52  77 103 133 167 211 265 312
#     4   9  18  35  55  73  99 134 178 217 250 302
#     4   9  19  34  53  76 101 137 177 212 249 299
#     4  10  20  31  46  76 111 135 166 210 254 304
#     4   9  18  34  56  79 100 128 171 218 266 314
#     4   8  14  26  45  67  94 131 166 196 238 292
#
# _framework density 21.863651999999998
#
# number of rings (size 3 to 8) (size 9 to 14) (size 15 to 20)
#    0.000    2.818    0.909    2.182    0.000    4.000 
#    0.000    9.091    0.000    1.091    0.000    2.545 
#    0.000    0.000    0.000    0.000    0.000    0.000 
#
# Total GULP energy -245251.315057 kJ/mol
# GULP energy per Si atom -5573.893524 kJ/mol
# Density = 2.181389 g / cm^3
# Si number density = 21.863652 Si / 1000 Ang^3
#
#
#
# Elastic Constant Matrix: (Units=GPa)
#
#
# Indices 1 2 3 4 5 6 
#
# 1 215.5326 14.9101 125.2639 0.0000 0.0000 0.0000
# 2 14.9101 62.9396 1.8693 0.0000 0.0000 0.0000
# 3 125.2639 1.8693 134.9649 0.0000 0.0000 0.0000
# 4 0.0000 0.0000 0.0000 27.7290 0.0000 0.0000
# 5 0.0000 0.0000 0.0000 0.0000 -15.0773 0.0000
# 6 0.0000 0.0000 0.0000 0.0000 0.0000 14.2428
#
#
#
# Elastic Compliance Matrix: (Units=1/GPa)
#
#
# Indices 1 2 3 4 5 6 
#
# 1 0.010361 -0.002170 -0.009586 0.000000 0.000000 0.000000
# 2 -0.002170 0.016349 0.001787 0.000000 0.000000 0.000000
# 3 -0.009586 0.001787 0.016282 0.000000 0.000000 0.000000
# 4 0.000000 0.000000 0.000000 0.036063 0.000000 0.000000
# 5 0.000000 0.000000 0.000000 0.000000 -0.066325 0.000000
# 6 0.000000 0.000000 0.000000 0.000000 0.000000 0.070211
#
#
# Mechanical properties :
#
#
# Convention : Reuss Voigt Hill
#
# Bulk Modulus (GPa) = 43.37515 77.50265 60.43890
# Shear Modulus (GPa) = 45.22259 23.47183 34.34721
#
# Velocity S-wave (km/s) = 4.55289 3.28007 3.96785
# Velocity P-wave (km/s) = 6.89351 7.06189 6.97820
#
# Compressibility (1/GPa) = 0.02305468
#
# Stress axis : x y z
#
# Youngs Moduli (GPa) = 96.51330 61.16518 61.41757
#
# Poissons Ratio (x) = 0.13272 0.58878
# Poissons Ratio (y) = 0.20942 -0.10978
# Poissons Ratio (z) = 0.92522 -0.10933
#
# Static dielectric constant tensor:
#      x y z
#    x 1.804440 0.000000 0.000000 
#    y 0.000000 1.878350 0.000000 
#    z 0.000000 0.000000 1.794400 
# 
# From -- ./inp_files/46387.got.cif
#   From: 2010.05.17/outbox.cif.g08.bks.cpg/sg69_24_cif.got.tgz:46387.got - 2010.06.03 19:29:58.
