data_PCOD9512237
_publ_section_title
;
Structure prediction by ZEFSAII (Michael W. Deem and Ramdas Pophale) SiO2 
 PCOD9512237
Probable space group: F M M M
;
_chemical_formula_sum "Si O2"
_cell_formula_units_Z 192
_cell_length_a 27.811908
_cell_length_b 18.809291
_cell_length_c 17.523536
_cell_angle_alpha 90.000000
_cell_angle_beta 90.000000
_cell_angle_gamma 90.000000
_cell_volume 9166.951945
_symmetry_space_group_name_H-M "F M M M"
_symmetry_group_IT_number 69
_symmetry_cell_setting 'orthorhombic'
loop_
_space_group_symop_operation_xyz
x,y,z
-x,-y,z
x,-y,-z
-x,y,-z
-x,-y,-z
x,y,-z
-x,y,z
x,-y,z
x,1/2+y,1/2+z
-x,1/2-y,1/2+z
x,1/2-y,1/2-z
-x,1/2+y,1/2-z
-x,1/2-y,1/2-z
x,1/2+y,1/2-z
-x,1/2+y,1/2+z
x,1/2-y,1/2+z
1/2+x,y,1/2+z
1/2-x,-y,1/2+z
1/2+x,-y,1/2-z
1/2-x,y,1/2-z
1/2-x,-y,1/2-z
1/2+x,y,1/2-z
1/2-x,y,1/2+z
1/2+x,-y,1/2+z
1/2+x,1/2+y,z
1/2-x,1/2-y,z
1/2+x,1/2-y,-z
1/2-x,1/2+y,-z
1/2-x,1/2-y,-z
1/2+x,1/2+y,-z
1/2-x,1/2+y,z
1/2+x,1/2-y,z
loop_
_atom_site_type_symbol
_atom_site_label
_atom_site_fract_x
_atom_site_fract_y
_atom_site_fract_z
Si Si1 0.442200 0.582027 0.500000
Si Si2 0.279095 0.177279 0.088655
Si Si3 0.213197 0.079247 0.822510
Si Si4 0.442821 0.315143 0.357252
Si Si5 0.058500 0.656755 0.410769
Si Si6 0.146823 0.170470 0.724720
Si Si7 0.556483 0.000000 0.407059
O O1 0.423083 0.500000 0.500000
O O2 0.500000 0.575410 0.500000
O O3 0.431367 0.631204 0.573182
O O4 0.250000 0.250000 0.106898
O O5 0.240452 0.116827 0.108617
O O6 0.323892 0.163660 0.144925
O O7 0.293072 0.178451 0.000000
O O8 0.250000 0.079075 0.750000
O O9 0.168572 0.121431 0.789396
O O10 0.200014 0.000000 0.842691
O O11 0.500000 0.317010 0.342978
O O12 0.428209 0.233038 0.374510
O O13 0.409454 0.340283 0.288743
O O14 0.072198 0.662430 0.500000
O O15 0.075317 0.578352 0.383328
O O16 0.000000 0.655355 0.407723
O O17 0.156693 0.250000 0.750000
O O18 0.500000 0.000000 0.385663
O O19 0.558461 0.000000 0.500000
#
# Coordination Sequence:
#
# PCOD9512237 Si02
#       7
#    16  32  32  32  32  32  16
#     4   9  18  34  54  79 112 153 201 264 337 378
#     4  10  20  36  64  97 123 153 199 252 309 382
#     4   9  19  37  62  92 127 163 196 243 310 378
#     4  10  20  33  53  81 118 165 217 269 313 362
#     4   8  12  22  41  67 101 138 186 244 311 368
#     4  11  22  37  61  87 123 172 213 253 307 381
#     4   7  10  16  34  64  94 132 177 234 301 365
#
# _framework density 20.944801999999999
#
# number of rings (size 3 to 8) (size 9 to 14) (size 15 to 20)
#    0.000    2.667    2.500    1.000    1.167    1.333 
#    0.000    0.000    1.833    0.000    0.000    0.000 
#    0.000    0.000    0.000    1.500    0.000    0.000 
#
# Total GULP energy -267657.409582 kJ/mol
# GULP energy per Si atom -5576.196033 kJ/mol
# Density = 2.089713 g / cm^3
# Si number density = 20.944802 Si / 1000 Ang^3
#
#
#
# Elastic Constant Matrix: (Units=GPa)
#
#
# Indices 1 2 3 4 5 6 
#
# 1 66.0900 43.2483 29.8313 0.0000 0.0000 0.0000
# 2 43.2483 153.6237 14.3019 0.0000 0.0000 0.0000
# 3 29.8313 14.3019 38.6579 0.0000 0.0000 0.0000
# 4 0.0000 0.0000 0.0000 -1.6792 0.0000 0.0000
# 5 0.0000 0.0000 0.0000 0.0000 29.5531 0.0000
# 6 0.0000 0.0000 0.0000 0.0000 0.0000 -150.4836
#
#
#
# Elastic Compliance Matrix: (Units=1/GPa)
#
#
# Indices 1 2 3 4 5 6 
#
# 1 0.027720 -0.006020 -0.019164 0.000000 0.000000 0.000000
# 2 -0.006020 0.008049 0.001667 0.000000 0.000000 0.000000
# 3 -0.019164 0.001667 0.040039 0.000000 0.000000 0.000000
# 4 0.000000 0.000000 0.000000 -0.595535 0.000000 0.000000
# 5 0.000000 0.000000 0.000000 0.000000 0.033837 0.000000
# 6 0.000000 0.000000 0.000000 0.000000 0.000000 -0.006645
#
#
# Mechanical properties :
#
#
# Convention : Reuss Voigt Hill
#
# Bulk Modulus (GPa) = 34.75104 48.12607 41.43855
# Shear Modulus (GPa) = -11.47024 -13.12260 -12.29642
#
# Velocity S-wave (km/s) = -2.34271 -2.50578 -2.42562
# Velocity P-wave (km/s) = 3.05123 3.82826 3.46162
#
# Compressibility (1/GPa) = 0.02877612
#
# Stress axis : x y z
#
# Youngs Moduli (GPa) = 36.07489 124.24135 24.97551
#
# Poissons Ratio (x) = 0.74790 0.47863
# Poissons Ratio (y) = 0.21716 -0.04165
# Poissons Ratio (z) = 0.69133 -0.20717
#
# Static dielectric constant tensor:
#      x y z
#    x 1.752530 0.000000 0.000000 
#    y 0.000000 1.761560 0.000000 
#    z 0.000000 0.000000 1.779250 
# 
# From -- ./inp_files/27815.got.cif
#   From: 2010.05.17/outbox.cif.g08.bks.cpg/sg69_14_cif.got.tgz:27815.got - 2010.06.03 19:29:58.
