data_PCOD9512864
_publ_section_title
;
Structure prediction by ZEFSAII (Michael W. Deem and Ramdas Pophale) SiO2 
 PCOD9512864
Probable space group: F M M M
;
_chemical_formula_sum "Si O2"
_cell_formula_units_Z 136
_cell_length_a 17.348337
_cell_length_b 24.244994
_cell_length_c 14.907551
_cell_angle_alpha 90.000000
_cell_angle_beta 90.000000
_cell_angle_gamma 90.000000
_cell_volume 6270.269893
_symmetry_space_group_name_H-M "F M M M"
_symmetry_group_IT_number 69
_symmetry_cell_setting 'orthorhombic'
loop_
_space_group_symop_operation_xyz
x,y,z
-x,-y,z
x,-y,-z
-x,y,-z
-x,-y,-z
x,y,-z
-x,y,z
x,-y,z
x,1/2+y,1/2+z
-x,1/2-y,1/2+z
x,1/2-y,1/2-z
-x,1/2+y,1/2-z
-x,1/2-y,1/2-z
x,1/2+y,1/2-z
-x,1/2+y,1/2+z
x,1/2-y,1/2+z
1/2+x,y,1/2+z
1/2-x,-y,1/2+z
1/2+x,-y,1/2-z
1/2-x,y,1/2-z
1/2-x,-y,1/2-z
1/2+x,y,1/2-z
1/2-x,y,1/2+z
1/2+x,-y,1/2+z
1/2+x,1/2+y,z
1/2-x,1/2-y,z
1/2+x,1/2-y,-z
1/2-x,1/2+y,-z
1/2-x,1/2-y,-z
1/2+x,1/2+y,-z
1/2-x,1/2+y,z
1/2+x,1/2-y,z
loop_
_atom_site_type_symbol
_atom_site_label
_atom_site_fract_x
_atom_site_fract_y
_atom_site_fract_z
Si Si1 0.093050 0.000000 0.855934
Si Si2 0.734138 0.188406 0.105746
Si Si3 0.121504 0.879087 0.855200
Si Si4 0.500000 0.840034 0.500000
Si Si5 0.587985 0.620870 0.354313
Si Si6 0.593291 0.500000 0.354135
O O1 0.122019 0.058177 0.892109
O O2 0.114543 0.000000 0.750823
O O3 0.000000 0.000000 0.865064
O O4 0.750000 0.250000 0.139327
O O5 0.794020 0.146471 0.149964
O O6 0.647290 0.167886 0.118647
O O7 0.751096 0.187692 0.000000
O O8 0.088369 0.881659 0.754303
O O9 0.067254 0.844455 0.921101
O O10 0.500000 0.629989 0.384145
O O11 0.616196 0.560387 0.388989
O O12 0.500000 0.500000 0.358968
#
# Coordination Sequence:
#
# PCOD9512864 Si02
#       6
#    16  32  32   8  32  16
#     4   9  16  31  56  94 128 156 190 242 302 376
#     4  11  26  46  60  83 122 160 208 267 309 349
#     4  11  21  38  63  92 129 161 197 248 310 368
#     4  12  20  37  62  98 128 164 198 247 312 368
#     4  10  20  40  66  93 120 162 205 245 304 377
#     4   7  14  31  59  89 124 153 191 246 298 356
#
# _framework density 21.689657
#
# number of rings (size 3 to 8) (size 9 to 14) (size 15 to 20)
#    0.000    1.882    3.529    2.118    0.000    4.235 
#    2.118    6.471    0.000    2.118    0.000    0.000 
#    0.000    0.000    0.000    0.000    0.000    0.000 
#
# Total GULP energy -189304.586516 kJ/mol
# GULP energy per Si atom -5567.781956 kJ/mol
# Density = 2.164029 g / cm^3
# Si number density = 21.689657 Si / 1000 Ang^3
#
#
#
# Elastic Constant Matrix: (Units=GPa)
#
#
# Indices 1 2 3 4 5 6 
#
# 1 124.5147 72.7558 -1.4104 0.0000 0.0000 0.0000
# 2 72.7558 118.2063 -0.7364 0.0000 0.0000 0.0000
# 3 -1.4104 -0.7364 63.8430 0.0000 0.0000 0.0000
# 4 0.0000 0.0000 0.0000 15.0350 0.0000 0.0000
# 5 0.0000 0.0000 0.0000 0.0000 25.2809 0.0000
# 6 0.0000 0.0000 0.0000 0.0000 0.0000 28.9940
#
#
#
# Elastic Compliance Matrix: (Units=1/GPa)
#
#
# Indices 1 2 3 4 5 6 
#
# 1 0.012544 -0.007720 0.000188 0.000000 0.000000 0.000000
# 2 -0.007720 0.013211 -0.000018 0.000000 0.000000 0.000000
# 3 0.000188 -0.000018 0.015667 0.000000 0.000000 0.000000
# 4 0.000000 0.000000 0.000000 0.066512 0.000000 0.000000
# 5 0.000000 0.000000 0.000000 0.000000 0.039555 0.000000
# 6 0.000000 0.000000 0.000000 0.000000 0.000000 0.034490
#
#
# Mechanical properties :
#
#
# Convention : Reuss Voigt Hill
#
# Bulk Modulus (GPa) = 37.98955 49.75356 43.87155
# Shear Modulus (GPa) = 24.28914 29.59232 26.94073
#
# Velocity S-wave (km/s) = 3.35004 3.69772 3.52817
# Velocity P-wave (km/s) = 5.70235 6.42024 6.07191
#
# Compressibility (1/GPa) = 0.02632303
#
# Stress axis : x y z
#
# Youngs Moduli (GPa) = 79.71932 75.69393 63.82691
#
# Poissons Ratio (x) = 0.58433 -0.01200
# Poissons Ratio (y) = 0.61540 0.00116
# Poissons Ratio (z) = -0.01499 0.00137
#
# Static dielectric constant tensor:
#      x y z
#    x 6.503540 0.000000 0.000000 
#    y 0.000000 1.831190 0.000000 
#    z 0.000000 0.000000 1.824240 
# 
# From -- ./inp_files/22621.got.cif
#   From: 2010.05.17/outbox.cif.g08.bks.cpg/sg69_12_cif.got.tgz:22621.got - 2010.06.03 19:29:58.
