data_PCOD9512955
_publ_section_title
;
Structure prediction by ZEFSAII (Michael W. Deem and Ramdas Pophale) SiO2 
 PCOD9512955
Probable space group: F M M M
;
_chemical_formula_sum "Si O2"
_cell_formula_units_Z 144
_cell_length_a 31.593829
_cell_length_b 14.662138
_cell_length_c 16.258353
_cell_angle_alpha 90.000000
_cell_angle_beta 90.000000
_cell_angle_gamma 90.000000
_cell_volume 7531.406948
_symmetry_space_group_name_H-M "F M M M"
_symmetry_group_IT_number 69
_symmetry_cell_setting 'orthorhombic'
loop_
_space_group_symop_operation_xyz
x,y,z
-x,-y,z
x,-y,-z
-x,y,-z
-x,-y,-z
x,y,-z
-x,y,z
x,-y,z
x,1/2+y,1/2+z
-x,1/2-y,1/2+z
x,1/2-y,1/2-z
-x,1/2+y,1/2-z
-x,1/2-y,1/2-z
x,1/2+y,1/2-z
-x,1/2+y,1/2+z
x,1/2-y,1/2+z
1/2+x,y,1/2+z
1/2-x,-y,1/2+z
1/2+x,-y,1/2-z
1/2-x,y,1/2-z
1/2-x,-y,1/2-z
1/2+x,y,1/2-z
1/2-x,y,1/2+z
1/2+x,-y,1/2+z
1/2+x,1/2+y,z
1/2-x,1/2-y,z
1/2+x,1/2-y,-z
1/2-x,1/2+y,-z
1/2-x,1/2-y,-z
1/2+x,1/2+y,-z
1/2-x,1/2+y,z
1/2+x,1/2-y,z
loop_
_atom_site_type_symbol
_atom_site_label
_atom_site_fract_x
_atom_site_fract_y
_atom_site_fract_z
Si Si1 0.290887 0.308956 0.900807
Si Si2 0.628732 0.000000 0.810527
Si Si3 0.709188 0.000000 0.308540
Si Si4 0.627445 0.691254 0.400792
Si Si5 0.547970 0.311189 0.098933
Si Si6 0.951189 0.000000 0.195193
O O1 0.250000 0.250000 0.875731
O O2 0.289717 0.408819 0.862704
O O3 0.333277 0.255151 0.875906
O O4 0.290669 0.315877 0.000000
O O5 0.666338 0.000000 0.744352
O O6 0.632274 0.091468 0.863746
O O7 0.583444 0.000000 0.765918
O O8 0.750000 0.000000 0.250000
O O9 0.627515 0.685266 0.500000
O O10 0.583762 0.739878 0.374755
O O11 0.500000 0.280703 0.118432
O O12 0.554796 0.409231 0.140515
O O13 0.550927 0.321759 0.000000
O O14 0.000000 0.000000 0.224503
#
# Coordination Sequence:
#
# PCOD9512955 Si02
#       6
#    32  16  16  32  32  16
#     4  10  22  41  63  85 112 149 190 229 271 324
#     4  12  25  38  55  82 116 151 186 229 282 335
#     4  12  25  38  59  90 120 148 180 226 281 333
#     4  10  22  40  60  80 107 148 194 235 275 325
#     4   9  18  35  59  84 110 144 187 232 277 329
#     4  10  21  35  55  85 117 147 179 225 286 342
#
# _framework density 19.119933
#
# number of rings (size 3 to 8) (size 9 to 14) (size 15 to 20)
#    0.000    1.778    0.000    3.667    0.000    8.000 
#    0.000   11.111    0.000    3.333    0.000    0.000 
#    0.000    0.000    0.000    0.000    0.000    0.000 
#
# Total GULP energy -201269.312125 kJ/mol
# GULP energy per Si atom -5590.814226 kJ/mol
# Density = 1.907642 g / cm^3
# Si number density = 19.119933 Si / 1000 Ang^3
#
#
#
# Elastic Constant Matrix: (Units=GPa)
#
#
# Indices 1 2 3 4 5 6 
#
# 1 140.3248 102.4630 44.5069 0.0000 0.0000 0.0000
# 2 102.4630 201.1522 51.8779 0.0000 0.0000 0.0000
# 3 44.5069 51.8779 24.5635 0.0000 0.0000 0.0000
# 4 0.0000 0.0000 0.0000 435.4841 0.0000 0.0000
# 5 0.0000 0.0000 0.0000 0.0000 16.0994 0.0000
# 6 0.0000 0.0000 0.0000 0.0000 0.0000 35.0866
#
#
#
# Elastic Compliance Matrix: (Units=1/GPa)
#
#
# Indices 1 2 3 4 5 6 
#
# 1 0.016978 -0.001569 -0.027449 0.000000 0.000000 0.000000
# 2 -0.001569 0.011064 -0.020523 0.000000 0.000000 0.000000
# 3 -0.027449 -0.020523 0.133791 0.000000 0.000000 0.000000
# 4 0.000000 0.000000 0.000000 0.002296 0.000000 0.000000
# 5 0.000000 0.000000 0.000000 0.000000 0.062114 0.000000
# 6 0.000000 0.000000 0.000000 0.000000 0.000000 0.028501
#
#
# Mechanical properties :
#
#
# Convention : Reuss Voigt Hill
#
# Bulk Modulus (GPa) = 15.93623 84.85958 50.39791
# Shear Modulus (GPa) = 13.34249 108.48018 60.91133
#
# Velocity S-wave (km/s) = 2.64452 7.54055 5.65037
# Velocity P-wave (km/s) = 4.20447 10.96778 8.30572
#
# Compressibility (1/GPa) = 0.06275009
#
# Stress axis : x y z
#
# Youngs Moduli (GPa) = 58.89964 90.38582 7.47436
#
# Poissons Ratio (x) = 0.14183 0.20516
# Poissons Ratio (y) = 0.09242 0.15340
# Poissons Ratio (z) = 1.61672 1.85501
#
# Static dielectric constant tensor:
#      x y z
#    x 1.661540 0.000000 0.000000 
#    y 0.000000 1.609060 0.000000 
#    z 0.000000 0.000000 1.646090 
# 
# From -- ./inp_files/27436.got.cif
#   From: 2010.05.17/outbox.cif.g08.bks.cpg/sg69_14_cif.got.tgz:27436.got - 2010.06.03 19:29:58.
