data_PCOD9512952
_publ_section_title
;
Structure prediction by ZEFSAII (Michael W. Deem and Ramdas Pophale) SiO2 
 PCOD9512952
Probable space group: F M M M
;
_chemical_formula_sum "Si O2"
_cell_formula_units_Z 192
_cell_length_a 15.712056
_cell_length_b 27.173786
_cell_length_c 24.376633
_cell_angle_alpha 90.000000
_cell_angle_beta 90.000000
_cell_angle_gamma 90.000000
_cell_volume 10407.750874
_symmetry_space_group_name_H-M "F M M M"
_symmetry_group_IT_number 69
_symmetry_cell_setting 'orthorhombic'
loop_
_space_group_symop_operation_xyz
x,y,z
-x,-y,z
x,-y,-z
-x,y,-z
-x,-y,-z
x,y,-z
-x,y,z
x,-y,z
x,1/2+y,1/2+z
-x,1/2-y,1/2+z
x,1/2-y,1/2-z
-x,1/2+y,1/2-z
-x,1/2-y,1/2-z
x,1/2+y,1/2-z
-x,1/2+y,1/2+z
x,1/2-y,1/2+z
1/2+x,y,1/2+z
1/2-x,-y,1/2+z
1/2+x,-y,1/2-z
1/2-x,y,1/2-z
1/2-x,-y,1/2-z
1/2+x,y,1/2-z
1/2-x,y,1/2+z
1/2+x,-y,1/2+z
1/2+x,1/2+y,z
1/2-x,1/2-y,z
1/2+x,1/2-y,-z
1/2-x,1/2+y,-z
1/2-x,1/2-y,-z
1/2+x,1/2+y,-z
1/2-x,1/2+y,z
1/2+x,1/2-y,z
loop_
_atom_site_type_symbol
_atom_site_label
_atom_site_fract_x
_atom_site_fract_y
_atom_site_fract_z
Si Si1 0.776113 0.942042 0.500000
Si Si2 0.798670 0.705012 0.909564
Si Si3 0.901766 0.898541 0.312648
Si Si4 0.900124 0.717506 0.802024
Si Si5 0.597599 0.058107 0.305360
Si Si6 0.737085 0.898666 0.614505
Si Si7 0.900700 0.351800 0.000000
O O1 0.729152 0.926726 0.556524
O O2 0.856648 0.905138 0.500000
O O3 0.794468 0.000000 0.500000
O O4 0.750000 0.750000 0.936765
O O5 0.843725 0.726296 0.855490
O O6 0.736148 0.659955 0.895098
O O7 0.868050 0.678878 0.947783
O O8 0.893388 0.841485 0.293616
O O9 0.886679 0.930999 0.258777
O O10 0.830187 0.908707 0.358168
O O11 0.000000 0.905363 0.331632
O O12 0.873110 0.750000 0.750000
O O13 0.000000 0.728412 0.812187
O O14 0.500000 0.073905 0.316464
O O15 0.665239 0.085271 0.343165
O O16 0.604040 0.000000 0.315126
O O17 0.000000 0.356742 0.000000
#
# Coordination Sequence:
#
# PCOD9512952 Si02
#       7
#    16  32  32  32  32  32  16
#     4  10  22  38  59  87 112 142 185 231 282 348
#     4  10  21  35  55  81 109 145 189 228 272 336
#     4   9  19  35  55  82 115 148 186 230 281 342
#     4   9  18  32  51  78 112 145 179 223 275 327
#     4  10  21  37  57  81 110 149 194 237 284 339
#     4  10  21  37  58  82 116 151 183 236 290 335
#     4  10  21  40  60  78 109 147 185 234 286 335
#
# _framework density 18.447789
#
# number of rings (size 3 to 8) (size 9 to 14) (size 15 to 20)
#    0.000    2.333    0.000    1.750    2.333    6.500 
#    0.000    1.250    0.000    1.500    0.000    0.000 
#    0.000    0.000    0.000    0.000    0.000    0.000 
#
# Total GULP energy -267825.871703 kJ/mol
# GULP energy per Si atom -5579.705660 kJ/mol
# Density = 1.840580 g / cm^3
# Si number density = 18.447789 Si / 1000 Ang^3
#
#
#
# Elastic Constant Matrix: (Units=GPa)
#
#
# Indices 1 2 3 4 5 6 
#
# 1 46.4966 23.9185 29.5204 0.0000 0.0000 0.0000
# 2 23.9185 53.9102 26.4984 0.0000 0.0000 0.0000
# 3 29.5204 26.4984 92.5787 0.0000 0.0000 0.0000
# 4 0.0000 0.0000 0.0000 47.5105 0.0000 0.0000
# 5 0.0000 0.0000 0.0000 0.0000 27.8042 0.0000
# 6 0.0000 0.0000 0.0000 0.0000 0.0000 14.0927
#
#
#
# Elastic Compliance Matrix: (Units=1/GPa)
#
#
# Indices 1 2 3 4 5 6 
#
# 1 0.031330 -0.010462 -0.006996 0.000000 0.000000 0.000000
# 2 -0.010462 0.025080 -0.003843 0.000000 0.000000 0.000000
# 3 -0.006996 -0.003843 0.014132 0.000000 0.000000 0.000000
# 4 0.000000 0.000000 0.000000 0.021048 0.000000 0.000000
# 5 0.000000 0.000000 0.000000 0.000000 0.035966 0.000000
# 6 0.000000 0.000000 0.000000 0.000000 0.000000 0.070959
#
#
# Mechanical properties :
#
#
# Convention : Reuss Voigt Hill
#
# Bulk Modulus (GPa) = 35.78849 39.20666 37.49758
# Shear Modulus (GPa) = 19.96576 25.41804 22.69190
#
# Velocity S-wave (km/s) = 3.29338 3.71595 3.51103
# Velocity P-wave (km/s) = 5.82270 6.30158 6.06687
#
# Compressibility (1/GPa) = 0.02794195
#
# Stress axis : x y z
#
# Youngs Moduli (GPa) = 31.91803 39.87289 70.76049
#
# Poissons Ratio (x) = 0.41714 0.49502
# Poissons Ratio (y) = 0.33392 0.27190
# Poissons Ratio (z) = 0.22329 0.15321
#
# Static dielectric constant tensor:
#      x y z
#    x 1.623800 0.000000 0.000000 
#    y 0.000000 1.633990 0.000000 
#    z 0.000000 0.000000 1.660490 
# 
# From -- ./inp_files/36097.got.cif
#   From: 2010.05.17/outbox.cif.g08.bks.cpg/sg69_19_cif.got.tgz:36097.got - 2010.06.03 19:29:58.
