data_PCOD9512547
_publ_section_title
;
Structure prediction by ZEFSAII (Michael W. Deem and Ramdas Pophale) SiO2 
 PCOD9512547
Probable space group: F M M M
;
_chemical_formula_sum "Si O2"
_cell_formula_units_Z 112
_cell_length_a 22.179560
_cell_length_b 17.715928
_cell_length_c 14.219940
_cell_angle_alpha 90.000000
_cell_angle_beta 90.000000
_cell_angle_gamma 90.000000
_cell_volume 5587.462184
_symmetry_space_group_name_H-M "F M M M"
_symmetry_group_IT_number 69
_symmetry_cell_setting 'orthorhombic'
loop_
_space_group_symop_operation_xyz
x,y,z
-x,-y,z
x,-y,-z
-x,y,-z
-x,-y,-z
x,y,-z
-x,y,z
x,-y,z
x,1/2+y,1/2+z
-x,1/2-y,1/2+z
x,1/2-y,1/2-z
-x,1/2+y,1/2-z
-x,1/2-y,1/2-z
x,1/2+y,1/2-z
-x,1/2+y,1/2+z
x,1/2-y,1/2+z
1/2+x,y,1/2+z
1/2-x,-y,1/2+z
1/2+x,-y,1/2-z
1/2-x,y,1/2-z
1/2-x,-y,1/2-z
1/2+x,y,1/2-z
1/2-x,y,1/2+z
1/2+x,-y,1/2+z
1/2+x,1/2+y,z
1/2-x,1/2-y,z
1/2+x,1/2-y,-z
1/2-x,1/2+y,-z
1/2-x,1/2-y,-z
1/2+x,1/2+y,-z
1/2-x,1/2+y,z
1/2+x,1/2-y,z
loop_
_atom_site_type_symbol
_atom_site_label
_atom_site_fract_x
_atom_site_fract_y
_atom_site_fract_z
Si Si1 0.876016 0.856980 0.302228
Si Si2 0.652353 0.194495 0.389846
Si Si3 0.763244 0.083287 0.608166
Si Si4 0.500000 0.909688 0.892215
O O1 0.885755 0.847162 0.190865
O O2 0.852117 0.780253 0.353311
O O3 0.820288 0.911724 0.323937
O O4 0.938816 0.880424 0.346297
O O5 0.635657 0.189581 0.500000
O O6 0.717082 0.152689 0.379976
O O7 0.785534 0.088080 0.500000
O O8 0.734074 0.000000 0.618042
O O9 0.500000 0.000000 0.888206
O O10 0.500000 0.884897 0.000000
#
# Coordination Sequence:
#
# PCOD9512547 Si02
#       4
#    32  32  32  16
#     4  11  22  38  61  85 116 157 194 237 290 341
#     4  10  22  38  58  86 117 151 194 239 288 349
#     4  10  20  35  58  88 120 153 191 240 295 346
#     4  11  24  41  63  91 118 148 193 242 283 333
#
# _framework density 20.044879000000002
#
# number of rings (size 3 to 8) (size 9 to 14) (size 15 to 20)
#    0.000    1.571    0.000    5.143    0.000   12.571 
#    0.000    2.143    0.000    0.857    0.000    0.000 
#    0.000    0.000    0.000    0.000    0.000    0.000 
#
# Total GULP energy -156184.397790 kJ/mol
# GULP energy per Si atom -5578.014207 kJ/mol
# Density = 1.999926 g / cm^3
# Si number density = 20.044879 Si / 1000 Ang^3
#
#
#
# Elastic Constant Matrix: (Units=GPa)
#
#
# Indices 1 2 3 4 5 6 
#
# 1 71.7731 26.4359 53.4501 0.0000 0.0000 0.0000
# 2 26.4359 61.0801 28.8432 0.0000 0.0000 0.0000
# 3 53.4501 28.8432 184.1520 0.0000 0.0000 0.0000
# 4 0.0000 0.0000 0.0000 20.5309 0.0000 0.0000
# 5 0.0000 0.0000 0.0000 0.0000 31.2807 0.0000
# 6 0.0000 0.0000 0.0000 0.0000 0.0000 -3.4883
#
#
#
# Elastic Compliance Matrix: (Units=1/GPa)
#
#
# Indices 1 2 3 4 5 6 
#
# 1 0.019806 -0.006325 -0.004758 0.000000 0.000000 0.000000
# 2 -0.006325 0.019700 -0.001250 0.000000 0.000000 0.000000
# 3 -0.004758 -0.001250 0.007007 0.000000 0.000000 0.000000
# 4 0.000000 0.000000 0.000000 0.048707 0.000000 0.000000
# 5 0.000000 0.000000 0.000000 0.000000 0.031969 0.000000
# 6 0.000000 0.000000 0.000000 0.000000 0.000000 -0.286671
#
#
# Mechanical properties :
#
#
# Convention : Reuss Voigt Hill
#
# Bulk Modulus (GPa) = 45.77318 59.38486 52.57902
# Shear Modulus (GPa) = -39.20509 23.54973 -7.82768
#
# Velocity S-wave (km/s) = -4.42732 3.43133 -1.97827
# Velocity P-wave (km/s) = 1.80275 6.73713 4.59015
#
# Compressibility (1/GPa) = 0.02184685
#
# Stress axis : x y z
#
# Youngs Moduli (GPa) = 50.49010 50.76225 142.71434
#
# Poissons Ratio (x) = 0.32109 0.67903
# Poissons Ratio (y) = 0.31937 0.17833
# Poissons Ratio (z) = 0.24023 0.06343
#
# Static dielectric constant tensor:
#      x y z
#    x 1.647220 0.000000 0.000000 
#    y 0.000000 1.773000 0.000000 
#    z 0.000000 0.000000 1.747640 
# 
# From -- ./inp_files/17231.got.cif
#   From: 2010.05.17/outbox.cif.g08.bks.cpg/sg69_9_cif.got.tgz:17231.got - 2010.06.03 19:29:58.
