data_PCOD9512816
_publ_section_title
;
Structure prediction by ZEFSAII (Michael W. Deem and Ramdas Pophale) SiO2 
 PCOD9512816
Probable space group: F M M M
;
_chemical_formula_sum "Si O2"
_cell_formula_units_Z 160
_cell_length_a 18.343488
_cell_length_b 25.247243
_cell_length_c 18.410559
_cell_angle_alpha 90.000000
_cell_angle_beta 90.000000
_cell_angle_gamma 90.000000
_cell_volume 8526.344092
_symmetry_space_group_name_H-M "F M M M"
_symmetry_group_IT_number 69
_symmetry_cell_setting 'orthorhombic'
loop_
_space_group_symop_operation_xyz
x,y,z
-x,-y,z
x,-y,-z
-x,y,-z
-x,-y,-z
x,y,-z
-x,y,z
x,-y,z
x,1/2+y,1/2+z
-x,1/2-y,1/2+z
x,1/2-y,1/2-z
-x,1/2+y,1/2-z
-x,1/2-y,1/2-z
x,1/2+y,1/2-z
-x,1/2+y,1/2+z
x,1/2-y,1/2+z
1/2+x,y,1/2+z
1/2-x,-y,1/2+z
1/2+x,-y,1/2-z
1/2-x,y,1/2-z
1/2-x,-y,1/2-z
1/2+x,y,1/2-z
1/2-x,y,1/2+z
1/2+x,-y,1/2+z
1/2+x,1/2+y,z
1/2-x,1/2-y,z
1/2+x,1/2-y,-z
1/2-x,1/2+y,-z
1/2-x,1/2-y,-z
1/2+x,1/2+y,-z
1/2-x,1/2+y,z
1/2+x,1/2-y,z
loop_
_atom_site_type_symbol
_atom_site_label
_atom_site_fract_x
_atom_site_fract_y
_atom_site_fract_z
Si Si1 0.328032 0.439147 0.913792
Si Si2 0.834123 0.759983 0.584303
Si Si3 0.414624 0.159916 0.358399
Si Si4 0.305458 0.438277 0.316806
Si Si5 0.413766 0.157124 0.189035
O O1 0.346615 0.500000 0.893898
O O2 0.378524 0.396632 0.874512
O O3 0.245161 0.430583 0.887514
O O4 0.334592 0.433221 0.000000
O O5 0.836344 0.776765 0.500000
O O6 0.750000 0.750000 0.604849
O O7 0.875426 0.704505 0.594527
O O8 0.872922 0.802336 0.636055
O O9 0.500000 0.158087 0.374864
O O10 0.405842 0.173929 0.273337
O O11 0.326281 0.500000 0.311027
O O12 0.250000 0.426508 0.250000
O O13 0.373328 0.399239 0.316957
O O14 0.500000 0.154612 0.172823
#
# Coordination Sequence:
#
# PCOD9512816 Si02
#       5
#    32  32  32  32  32
#     4  10  21  37  60  91 122 155 201 252 300 360
#     4  11  25  42  62  87 116 158 209 257 307 363
#     4  11  23  39  59  86 122 160 198 244 304 370
#     4  10  20  38  63  88 117 160 203 241 294 356
#     4  11  24  39  60  92 124 157 201 252 305 365
#
# _framework density 18.765370000000001
#
# number of rings (size 3 to 8) (size 9 to 14) (size 15 to 20)
#    0.000    1.400    2.000    3.000    0.000    8.400 
#    0.000    3.000    0.000    0.000    0.000    4.200 
#    0.000    0.000    0.000    0.000    0.000    0.000 
#
# Total GULP energy -223551.801993 kJ/mol
# GULP energy per Si atom -5588.795050 kJ/mol
# Density = 1.872266 g / cm^3
# Si number density = 18.765370 Si / 1000 Ang^3
#
#
#
# Elastic Constant Matrix: (Units=GPa)
#
#
# Indices 1 2 3 4 5 6 
#
# 1 117.2857 57.1607 55.9120 0.0000 0.0000 0.0000
# 2 57.1607 78.5435 38.5157 0.0000 0.0000 0.0000
# 3 55.9120 38.5157 71.1042 0.0000 0.0000 0.0000
# 4 0.0000 0.0000 0.0000 25.9100 0.0000 0.0000
# 5 0.0000 0.0000 0.0000 0.0000 15.8443 0.0000
# 6 0.0000 0.0000 0.0000 0.0000 0.0000 -60.3451
#
#
#
# Elastic Compliance Matrix: (Units=1/GPa)
#
#
# Indices 1 2 3 4 5 6 
#
# 1 0.016448 -0.007663 -0.008782 0.000000 0.000000 0.000000
# 2 -0.007663 0.020907 -0.005299 0.000000 0.000000 0.000000
# 3 -0.008782 -0.005299 0.023840 0.000000 0.000000 0.000000
# 4 0.000000 0.000000 0.000000 0.038595 0.000000 0.000000
# 5 0.000000 0.000000 0.000000 0.000000 0.063114 0.000000
# 6 0.000000 0.000000 0.000000 0.000000 0.000000 -0.016571
#
#
# Mechanical properties :
#
#
# Convention : Reuss Voigt Hill
#
# Bulk Modulus (GPa) = 56.47923 63.34556 59.91240
# Shear Modulus (GPa) = 25.54606 3.97151 14.75879
#
# Velocity S-wave (km/s) = 3.69364 1.45637 2.80749
# Velocity P-wave (km/s) = 6.95367 6.05458 6.51964
#
# Compressibility (1/GPa) = 0.01770562
#
# Stress axis : x y z
#
# Youngs Moduli (GPa) = 60.79877 47.82999 41.94586
#
# Poissons Ratio (x) = 0.36653 0.36839
# Poissons Ratio (y) = 0.46592 0.22228
# Poissons Ratio (z) = 0.53396 0.25346
#
# Static dielectric constant tensor:
#      x y z
#    x 1.613790 0.000000 0.000000 
#    y 0.000000 1.639870 0.000000 
#    z 0.000000 0.000000 1.665760 
# 
# From -- ./inp_files/30795.got.cif
#   From: 2010.05.17/outbox.cif.g08.bks.cpg/sg69_16_cif.got.tgz:30795.got - 2010.06.03 19:29:58.
