data_PCOD9512728
_publ_section_title
;
Structure prediction by ZEFSAII (Michael W. Deem and Ramdas Pophale) SiO2 
 PCOD9512728
Probable space group: F M M M
;
_chemical_formula_sum "Si O2"
_cell_formula_units_Z 160
_cell_length_a 15.363249
_cell_length_b 29.411511
_cell_length_c 19.447792
_cell_angle_alpha 90.000000
_cell_angle_beta 90.000000
_cell_angle_gamma 90.000000
_cell_volume 8787.608638
_symmetry_space_group_name_H-M "F M M M"
_symmetry_group_IT_number 69
_symmetry_cell_setting 'orthorhombic'
loop_
_space_group_symop_operation_xyz
x,y,z
-x,-y,z
x,-y,-z
-x,y,-z
-x,-y,-z
x,y,-z
-x,y,z
x,-y,z
x,1/2+y,1/2+z
-x,1/2-y,1/2+z
x,1/2-y,1/2-z
-x,1/2+y,1/2-z
-x,1/2-y,1/2-z
x,1/2+y,1/2-z
-x,1/2+y,1/2+z
x,1/2-y,1/2+z
1/2+x,y,1/2+z
1/2-x,-y,1/2+z
1/2+x,-y,1/2-z
1/2-x,y,1/2-z
1/2-x,-y,1/2-z
1/2+x,y,1/2-z
1/2-x,y,1/2+z
1/2+x,-y,1/2+z
1/2+x,1/2+y,z
1/2-x,1/2-y,z
1/2+x,1/2-y,-z
1/2-x,1/2+y,-z
1/2-x,1/2-y,-z
1/2+x,1/2+y,-z
1/2-x,1/2+y,z
1/2+x,1/2-y,z
loop_
_atom_site_type_symbol
_atom_site_label
_atom_site_fract_x
_atom_site_fract_y
_atom_site_fract_z
Si Si1 0.101871 0.446212 0.656082
Si Si2 0.000000 0.678912 0.791835
Si Si3 0.160609 0.389000 0.785430
Si Si4 0.812549 0.710111 0.581510
Si Si5 0.500000 0.727069 0.855366
Si Si6 0.246841 0.106688 0.920249
O O1 0.117643 0.500000 0.653444
O O2 0.128138 0.426440 0.730798
O O3 0.159437 0.420315 0.599662
O O4 0.000000 0.437345 0.645221
O O5 0.085936 0.648194 0.794120
O O6 0.000000 0.704369 0.719225
O O7 0.000000 0.718280 0.848720
O O8 0.250000 0.370803 0.750000
O O9 0.185054 0.407266 0.861009
O O10 0.819520 0.717491 0.500000
O O11 0.750000 0.750000 0.610328
O O12 0.909986 0.712108 0.610131
O O13 0.771173 0.660384 0.591321
O O14 0.270815 0.099677 0.000000
#
# Coordination Sequence:
#
# PCOD9512728 Si02
#       6
#    32  16  32  32  16  32
#     4  10  21  38  62  89 117 152 194 243 299 360
#     4  11  22  34  53  82 109 146 194 244 292 338
#     4  10  20  37  59  81 115 151 192 236 287 351
#     4  10  21  37  55  78 113 155 195 236 291 356
#     4  11  21  32  52  80 108 142 193 244 294 337
#     4  10  22  37  58  86 118 155 195 244 297 346
#
# _framework density 18.207457000000002
#
# number of rings (size 3 to 8) (size 9 to 14) (size 15 to 20)
#    0.000    1.800    1.000    3.900    1.400    4.400 
#    0.000    4.500    0.000    0.000    0.000    1.400 
#    0.000    0.000    0.000    0.000    0.000    0.000 
#
# Total GULP energy -223199.997472 kJ/mol
# GULP energy per Si atom -5579.999937 kJ/mol
# Density = 1.816602 g / cm^3
# Si number density = 18.207457 Si / 1000 Ang^3
#
#
#
# Elastic Constant Matrix: (Units=GPa)
#
#
# Indices 1 2 3 4 5 6 
#
# 1 59.8562 9.2113 -0.1662 0.0000 0.0000 0.0000
# 2 9.2113 36.0188 6.7866 0.0000 0.0000 0.0000
# 3 -0.1662 6.7866 75.7324 0.0000 0.0000 0.0000
# 4 0.0000 0.0000 0.0000 20.4127 0.0000 0.0000
# 5 0.0000 0.0000 0.0000 0.0000 14.7705 0.0000
# 6 0.0000 0.0000 0.0000 0.0000 0.0000 22.2615
#
#
#
# Elastic Compliance Matrix: (Units=1/GPa)
#
#
# Indices 1 2 3 4 5 6 
#
# 1 0.017406 -0.004535 0.000445 0.000000 0.000000 0.000000
# 2 -0.004535 0.029422 -0.002647 0.000000 0.000000 0.000000
# 3 0.000445 -0.002647 0.013443 0.000000 0.000000 0.000000
# 4 0.000000 0.000000 0.000000 0.048989 0.000000 0.000000
# 5 0.000000 0.000000 0.000000 0.000000 0.067702 0.000000
# 6 0.000000 0.000000 0.000000 0.000000 0.000000 0.044921
#
#
# Mechanical properties :
#
#
# Convention : Reuss Voigt Hill
#
# Bulk Modulus (GPa) = 21.36927 22.58563 21.97745
# Shear Modulus (GPa) = 19.92390 21.87400 20.89895
#
# Velocity S-wave (km/s) = 3.31157 3.46985 3.39163
# Velocity P-wave (km/s) = 5.13653 5.33710 5.23778
#
# Compressibility (1/GPa) = 0.04679616
#
# Stress axis : x y z
#
# Youngs Moduli (GPa) = 57.45195 33.98847 74.39082
#
# Poissons Ratio (x) = 0.15414 -0.03307
# Poissons Ratio (y) = 0.26055 0.19688
# Poissons Ratio (z) = -0.02554 0.08995
#
# Static dielectric constant tensor:
#      x y z
#    x 1.626130 0.000000 0.000000 
#    y 0.000000 1.628890 0.000000 
#    z 0.000000 0.000000 1.627560 
# 
# From -- ./inp_files/15683.got.cif
#   From: 2010.05.17/outbox.cif.g08.bks.cpg/sg69_8_cif.got.tgz:15683.got - 2010.06.03 19:29:58.
