data_PCOD9512445
_publ_section_title
;
Structure prediction by ZEFSAII (Michael W. Deem and Ramdas Pophale) SiO2 
 PCOD9512445
Probable space group: F M M M
;
_chemical_formula_sum "Si O2"
_cell_formula_units_Z 176
_cell_length_a 21.731201
_cell_length_b 18.499861
_cell_length_c 25.395758
_cell_angle_alpha 90.000000
_cell_angle_beta 90.000000
_cell_angle_gamma 90.000000
_cell_volume 10209.709239
_symmetry_space_group_name_H-M "F M M M"
_symmetry_group_IT_number 69
_symmetry_cell_setting 'orthorhombic'
loop_
_space_group_symop_operation_xyz
x,y,z
-x,-y,z
x,-y,-z
-x,y,-z
-x,-y,-z
x,y,-z
-x,y,z
x,-y,z
x,1/2+y,1/2+z
-x,1/2-y,1/2+z
x,1/2-y,1/2-z
-x,1/2+y,1/2-z
-x,1/2-y,1/2-z
x,1/2+y,1/2-z
-x,1/2+y,1/2+z
x,1/2-y,1/2+z
1/2+x,y,1/2+z
1/2-x,-y,1/2+z
1/2+x,-y,1/2-z
1/2-x,y,1/2-z
1/2-x,-y,1/2-z
1/2+x,y,1/2-z
1/2-x,y,1/2+z
1/2+x,-y,1/2+z
1/2+x,1/2+y,z
1/2-x,1/2-y,z
1/2+x,1/2-y,-z
1/2-x,1/2+y,-z
1/2-x,1/2-y,-z
1/2+x,1/2+y,-z
1/2-x,1/2+y,z
1/2+x,1/2-y,z
loop_
_atom_site_type_symbol
_atom_site_label
_atom_site_fract_x
_atom_site_fract_y
_atom_site_fract_z
Si Si1 0.428981 0.353323 0.939863
Si Si2 0.665153 0.414126 0.144615
Si Si3 0.609998 0.688124 0.438679
Si Si4 0.285818 0.822833 0.853330
Si Si5 0.500000 0.416787 0.564080
Si Si6 0.176584 0.082129 0.261551
O O1 0.500000 0.373154 0.931229
O O2 0.384607 0.387955 0.897038
O O3 0.421925 0.266569 0.936411
O O4 0.412126 0.373924 0.000000
O O5 0.671854 0.500000 0.143009
O O6 0.730858 0.377869 0.132976
O O7 0.648002 0.395896 0.205413
O O8 0.625566 0.674147 0.500000
O O9 0.670215 0.690841 0.402685
O O10 0.561099 0.627561 0.420503
O O11 0.250000 0.750000 0.836287
O O12 0.326904 0.859263 0.807537
O O13 0.500000 0.500000 0.581737
O O14 0.500000 0.416457 0.500000
O O15 0.250000 0.078512 0.250000
O O16 0.157246 0.000000 0.276028
#
# Coordination Sequence:
#
# PCOD9512445 Si02
#       6
#    32  32  32  32  16  32
#     4  10  20  37  60  81 108 149 189 225 272 331
#     4  10  21  37  55  81 113 144 180 229 279 327
#     4  10  20  35  54  79 113 148 182 224 278 333
#     4  11  20  32  55  87 109 144 186 229 273 338
#     4   9  18  34  56  78 102 143 193 231 268 326
#     4   8  17  34  53  73 106 144 177 219 274 326
#
# _framework density 17.238492999999998
#
# number of rings (size 3 to 8) (size 9 to 14) (size 15 to 20)
#    0.000    2.273    2.727    1.636    0.000    6.545 
#    0.000    0.909    2.000    1.091    0.000    0.000 
#    0.000    0.000    0.000    0.000    0.000    0.000 
#
# Total GULP energy -245227.524427 kJ/mol
# GULP energy per Si atom -5573.352828 kJ/mol
# Density = 1.719926 g / cm^3
# Si number density = 17.238493 Si / 1000 Ang^3
#
#
#
# Elastic Constant Matrix: (Units=GPa)
#
#
# Indices 1 2 3 4 5 6 
#
# 1 60.8572 23.3831 53.8757 0.0000 0.0000 0.0000
# 2 23.3831 60.4862 36.1386 0.0000 0.0000 0.0000
# 3 53.8757 36.1386 103.3507 0.0000 0.0000 0.0000
# 4 0.0000 0.0000 0.0000 28.1107 0.0000 0.0000
# 5 0.0000 0.0000 0.0000 0.0000 7.8462 0.0000
# 6 0.0000 0.0000 0.0000 0.0000 0.0000 23.3973
#
#
#
# Elastic Compliance Matrix: (Units=1/GPa)
#
#
# Indices 1 2 3 4 5 6 
#
# 1 0.030921 -0.002937 -0.015092 0.000000 0.000000 0.000000
# 2 -0.002937 0.021178 -0.005874 0.000000 0.000000 0.000000
# 3 -0.015092 -0.005874 0.019597 0.000000 0.000000 0.000000
# 4 0.000000 0.000000 0.000000 0.035574 0.000000 0.000000
# 5 0.000000 0.000000 0.000000 0.000000 0.127450 0.000000
# 6 0.000000 0.000000 0.000000 0.000000 0.000000 0.042740
#
#
# Mechanical properties :
#
#
# Convention : Reuss Voigt Hill
#
# Bulk Modulus (GPa) = 41.85866 50.16544 46.01205
# Shear Modulus (GPa) = 15.00473 19.29062 17.14767
#
# Velocity S-wave (km/s) = 2.95349 3.34884 3.15736
# Velocity P-wave (km/s) = 5.99713 6.64206 6.32782
#
# Compressibility (1/GPa) = 0.02388992
#
# Stress axis : x y z
#
# Youngs Moduli (GPa) = 32.34072 47.21952 51.02790
#
# Poissons Ratio (x) = 0.13866 0.77011
# Poissons Ratio (y) = 0.09497 0.29976
# Poissons Ratio (z) = 0.48808 0.27738
#
# Static dielectric constant tensor:
#      x y z
#    x 1.552750 0.000000 0.000000 
#    y 0.000000 1.606580 0.000000 
#    z 0.000000 0.000000 1.609010 
# 
# From -- ./inp_files/41849.got.cif
#   From: 2010.05.17/outbox.cif.g08.bks.cpg/sg69_21_cif.got.tgz:41849.got - 2010.06.03 19:29:58.
