data_PCOD9513003
_publ_section_title
;
Structure prediction by ZEFSAII (Michael W. Deem and Ramdas Pophale) SiO2 
 PCOD9513003
Probable space group: F M M M
;
_chemical_formula_sum "Si O2"
_cell_formula_units_Z 192
_cell_length_a 28.124291
_cell_length_b 15.818182
_cell_length_c 22.495515
_cell_angle_alpha 90.000000
_cell_angle_beta 90.000000
_cell_angle_gamma 90.000000
_cell_volume 10007.695692
_symmetry_space_group_name_H-M "F M M M"
_symmetry_group_IT_number 69
_symmetry_cell_setting 'orthorhombic'
loop_
_space_group_symop_operation_xyz
x,y,z
-x,-y,z
x,-y,-z
-x,y,-z
-x,-y,-z
x,y,-z
-x,y,z
x,-y,z
x,1/2+y,1/2+z
-x,1/2-y,1/2+z
x,1/2-y,1/2-z
-x,1/2+y,1/2-z
-x,1/2-y,1/2-z
x,1/2+y,1/2-z
-x,1/2+y,1/2+z
x,1/2-y,1/2+z
1/2+x,y,1/2+z
1/2-x,-y,1/2+z
1/2+x,-y,1/2-z
1/2-x,y,1/2-z
1/2-x,-y,1/2-z
1/2+x,y,1/2-z
1/2-x,y,1/2+z
1/2+x,-y,1/2+z
1/2+x,1/2+y,z
1/2-x,1/2-y,z
1/2+x,1/2-y,-z
1/2-x,1/2+y,-z
1/2-x,1/2-y,-z
1/2+x,1/2+y,-z
1/2-x,1/2+y,z
1/2+x,1/2-y,z
loop_
_atom_site_type_symbol
_atom_site_label
_atom_site_fract_x
_atom_site_fract_y
_atom_site_fract_z
Si Si1 0.379149 0.000000 0.570513
Si Si2 0.373239 0.902486 0.865310
Si Si3 0.445680 0.350279 0.737208
Si Si4 0.445398 0.364845 0.127140
Si Si5 0.215472 0.330327 0.071440
Si Si6 0.555086 0.689571 0.433665
Si Si7 0.273010 0.000000 0.428618
O O1 0.408249 0.080975 0.591211
O O2 0.326109 0.000000 0.596246
O O3 0.376465 0.000000 0.500000
O O4 0.403645 0.879878 0.806143
O O5 0.330558 0.840089 0.886015
O O6 0.411926 0.887925 0.916979
O O7 0.357359 0.000000 0.862691
O O8 0.500000 0.368755 0.715026
O O9 0.443553 0.250000 0.750000
O O10 0.441143 0.387116 0.803508
O O11 0.500000 0.382201 0.108799
O O12 0.437229 0.266093 0.112621
O O13 0.250000 0.250000 0.081067
O O14 0.245288 0.414670 0.085528
O O15 0.202695 0.330515 0.000000
O O16 0.565378 0.721532 0.500000
O O17 0.500000 0.666269 0.430892
O O18 0.276703 0.000000 0.500000
#
# Coordination Sequence:
#
# PCOD9513003 Si02
#       7
#    16  32  32  32  32  32  16
#     4  11  23  36  60  92 123 156 199 267 336 382
#     4  12  24  38  63  95 127 162 211 262 316 377
#     4  10  21  40  63  88 122 169 219 256 294 361
#     4  10  21  38  59  87 124 166 212 255 302 375
#     4  10  22  41  66  93 126 168 212 266 330 394
#     4  10  21  36  56  87 126 164 202 251 316 384
#     4   9  20  39  59  89 124 155 205 266 318 383
#
# _framework density 19.185234999999999
#
# number of rings (size 3 to 8) (size 9 to 14) (size 15 to 20)
#    0.000    1.667    2.500    1.750    3.500    3.667 
#    0.000    0.833    0.000    4.500    0.000    0.000 
#    0.000    0.000    0.000    0.000    0.000    0.000 
#
# Total GULP energy -267708.396713 kJ/mol
# GULP energy per Si atom -5577.258265 kJ/mol
# Density = 1.914157 g / cm^3
# Si number density = 19.185235 Si / 1000 Ang^3
#
#
#
# Elastic Constant Matrix: (Units=GPa)
#
#
# Indices 1 2 3 4 5 6 
#
# 1 106.7282 38.5118 48.0376 0.0000 0.0000 0.0000
# 2 38.5118 69.0661 14.7493 0.0000 0.0000 0.0000
# 3 48.0376 14.7493 86.5388 0.0000 0.0000 0.0000
# 4 0.0000 0.0000 0.0000 20.8192 0.0000 0.0000
# 5 0.0000 0.0000 0.0000 0.0000 30.8327 0.0000
# 6 0.0000 0.0000 0.0000 0.0000 0.0000 15.9489
#
#
#
# Elastic Compliance Matrix: (Units=1/GPa)
#
#
# Indices 1 2 3 4 5 6 
#
# 1 0.015095 -0.006878 -0.007207 0.000000 0.000000 0.000000
# 2 -0.006878 0.018160 0.000723 0.000000 0.000000 0.000000
# 3 -0.007207 0.000723 0.015433 0.000000 0.000000 0.000000
# 4 0.000000 0.000000 0.000000 0.048033 0.000000 0.000000
# 5 0.000000 0.000000 0.000000 0.000000 0.032433 0.000000
# 6 0.000000 0.000000 0.000000 0.000000 0.000000 0.062700
#
#
# Mechanical properties :
#
#
# Convention : Reuss Voigt Hill
#
# Bulk Modulus (GPa) = 45.53013 51.65897 48.59455
# Shear Modulus (GPa) = 22.13369 24.25580 23.19474
#
# Velocity S-wave (km/s) = 3.40028 3.55955 3.48082
# Velocity P-wave (km/s) = 6.26093 6.62410 6.44507
#
# Compressibility (1/GPa) = 0.02196348
#
# Stress axis : x y z
#
# Youngs Moduli (GPa) = 66.24520 55.06662 64.79631
#
# Poissons Ratio (x) = 0.37876 0.46700
# Poissons Ratio (y) = 0.45565 -0.04685
# Poissons Ratio (z) = 0.47744 -0.03981
#
# Static dielectric constant tensor:
#      x y z
#    x 1.671220 0.000000 0.000000 
#    y 0.000000 1.674490 0.000000 
#    z 0.000000 0.000000 1.690810 
# 
# From -- ./inp_files/38405.got.cif
#   From: 2010.05.17/outbox.cif.g08.bks.cpg/sg69_20_cif.got.tgz:38405.got - 2010.06.03 19:29:58.
