data_PCOD9513399
_publ_section_title
;
Structure prediction by ZEFSAII (Michael W. Deem and Ramdas Pophale) SiO2 
 PCOD9513399
Probable space group: F M M M
;
_chemical_formula_sum "Si O2"
_cell_formula_units_Z 200
_cell_length_a 21.934853
_cell_length_b 16.785363
_cell_length_c 29.406549
_cell_angle_alpha 90.000000
_cell_angle_beta 90.000000
_cell_angle_gamma 90.000000
_cell_volume 10827.034657
_symmetry_space_group_name_H-M "F M M M"
_symmetry_group_IT_number 69
_symmetry_cell_setting 'orthorhombic'
loop_
_space_group_symop_operation_xyz
x,y,z
-x,-y,z
x,-y,-z
-x,y,-z
-x,-y,-z
x,y,-z
-x,y,z
x,-y,z
x,1/2+y,1/2+z
-x,1/2-y,1/2+z
x,1/2-y,1/2-z
-x,1/2+y,1/2-z
-x,1/2-y,1/2-z
x,1/2+y,1/2-z
-x,1/2+y,1/2+z
x,1/2-y,1/2+z
1/2+x,y,1/2+z
1/2-x,-y,1/2+z
1/2+x,-y,1/2-z
1/2-x,y,1/2-z
1/2-x,-y,1/2-z
1/2+x,y,1/2-z
1/2-x,y,1/2+z
1/2+x,-y,1/2+z
1/2+x,1/2+y,z
1/2-x,1/2-y,z
1/2+x,1/2-y,-z
1/2-x,1/2+y,-z
1/2-x,1/2-y,-z
1/2+x,1/2+y,-z
1/2-x,1/2+y,z
1/2+x,1/2-y,z
loop_
_atom_site_type_symbol
_atom_site_label
_atom_site_fract_x
_atom_site_fract_y
_atom_site_fract_z
Si Si1 0.250141 0.910548 0.626220
Si Si2 0.629755 0.809866 0.641422
Si Si3 0.655119 0.150783 0.192532
Si Si4 0.927122 0.746609 0.053065
Si Si5 0.071144 0.094421 0.774795
Si Si6 0.847879 0.090301 0.446365
Si Si7 0.750000 0.250000 0.250000
O O1 0.302174 0.846335 0.637106
O O2 0.194331 0.908993 0.662083
O O3 0.215045 0.891906 0.579520
O O4 0.276509 0.000000 0.625069
O O5 0.628795 0.719516 0.660086
O O6 0.599469 0.805826 0.591489
O O7 0.596843 0.860834 0.680767
O O8 0.607360 0.117649 0.228901
O O9 0.706497 0.195198 0.221167
O O10 0.896846 0.659780 0.061747
O O11 0.000000 0.742187 0.057617
O O12 0.913326 0.767887 0.000000
O O13 0.000000 0.114187 0.769265
O O14 0.077621 0.000000 0.781621
O O15 0.837052 0.089124 0.500000
O O16 0.867264 0.000000 0.432685
#
# Coordination Sequence:
#
# PCOD9513399 Si02
#       7
#    32  32  32  32  32  32   8
#     4  11  22  37  59  88 121 156 193 240 296 355
#     4  12  22  38  63  87 117 158 200 242 295 349
#     4  12  21  38  59  87 120 151 196 241 292 347
#     4  10  22  39  60  88 120 156 200 247 293 345
#     4  11  25  43  62  86 118 158 201 245 295 351
#     4   9  19  36  58  87 123 159 194 238 295 357
#     4  12  20  36  56  84 114 148 186 234 288 344
#
# _framework density 18.472279
#
# number of rings (size 3 to 8) (size 9 to 14) (size 15 to 20)
#    0.000    1.120    4.800    1.440    0.000    2.880 
#    0.000    5.600    0.000    1.440    0.000    5.600 
#    0.000    0.000    0.000    0.000    0.000    0.000 
#
# Total GULP energy -278905.854748 kJ/mol
# GULP energy per Si atom -5578.117095 kJ/mol
# Density = 1.843024 g / cm^3
# Si number density = 18.472279 Si / 1000 Ang^3
#
#
#
# Elastic Constant Matrix: (Units=GPa)
#
#
# Indices 1 2 3 4 5 6 
#
# 1 105.4788 44.9497 65.9847 0.0000 0.0000 0.0000
# 2 44.9497 64.2158 45.7978 0.0000 0.0000 0.0000
# 3 65.9847 45.7978 122.2392 0.0000 0.0000 0.0000
# 4 0.0000 0.0000 0.0000 27.3176 0.0000 0.0000
# 5 0.0000 0.0000 0.0000 0.0000 35.2596 0.0000
# 6 0.0000 0.0000 0.0000 0.0000 0.0000 24.3278
#
#
#
# Elastic Compliance Matrix: (Units=1/GPa)
#
#
# Indices 1 2 3 4 5 6 
#
# 1 0.016349 -0.007028 -0.006192 0.000000 0.000000 0.000000
# 2 -0.007028 0.024272 -0.005300 0.000000 0.000000 0.000000
# 3 -0.006192 -0.005300 0.013509 0.000000 0.000000 0.000000
# 4 0.000000 0.000000 0.000000 0.036606 0.000000 0.000000
# 5 0.000000 0.000000 0.000000 0.000000 0.028361 0.000000
# 6 0.000000 0.000000 0.000000 0.000000 0.000000 0.041105
#
#
# Mechanical properties :
#
#
# Convention : Reuss Voigt Hill
#
# Bulk Modulus (GPa) = 58.51472 67.26646 62.89059
# Shear Modulus (GPa) = 24.63790 26.39442 25.51616
#
# Velocity S-wave (km/s) = 3.65605 3.78414 3.72065
# Velocity P-wave (km/s) = 7.04046 7.45565 7.25103
#
# Compressibility (1/GPa) = 0.01708972
#
# Stress axis : x y z
#
# Youngs Moduli (GPa) = 61.16504 41.20026 74.02513
#
# Poissons Ratio (x) = 0.28955 0.45838
# Poissons Ratio (y) = 0.42986 0.39233
# Poissons Ratio (z) = 0.37875 0.21836
#
# Static dielectric constant tensor:
#      x y z
#    x 1.607000 0.000000 0.000000 
#    y 0.000000 1.617960 0.000000 
#    z 0.000000 0.000000 1.671910 
# 
# From -- ./inp_files/42714.got.cif
#   From: 2010.05.17/outbox.cif.g08.bks.cpg/sg69_22_cif.got.tgz:42714.got - 2010.06.03 19:29:58.
