data_PCOD9513236
_publ_section_title
;
Structure prediction by ZEFSAII (Michael W. Deem and Ramdas Pophale) SiO2 
 PCOD9513236
Probable space group: F M M M
;
_chemical_formula_sum "Si O2"
_cell_formula_units_Z 104
_cell_length_a 14.091548
_cell_length_b 14.185960
_cell_length_c 24.901593
_cell_angle_alpha 90.000000
_cell_angle_beta 90.000000
_cell_angle_gamma 90.000000
_cell_volume 4977.881637
_symmetry_space_group_name_H-M "F M M M"
_symmetry_group_IT_number 69
_symmetry_cell_setting 'orthorhombic'
loop_
_space_group_symop_operation_xyz
x,y,z
-x,-y,z
x,-y,-z
-x,y,-z
-x,-y,-z
x,y,-z
-x,y,z
x,-y,z
x,1/2+y,1/2+z
-x,1/2-y,1/2+z
x,1/2-y,1/2-z
-x,1/2+y,1/2-z
-x,1/2-y,1/2-z
x,1/2+y,1/2-z
-x,1/2+y,1/2+z
x,1/2-y,1/2+z
1/2+x,y,1/2+z
1/2-x,-y,1/2+z
1/2+x,-y,1/2-z
1/2-x,y,1/2-z
1/2-x,-y,1/2-z
1/2+x,y,1/2-z
1/2-x,y,1/2+z
1/2+x,-y,1/2+z
1/2+x,1/2+y,z
1/2-x,1/2-y,z
1/2+x,1/2-y,-z
1/2-x,1/2+y,-z
1/2-x,1/2-y,-z
1/2+x,1/2+y,-z
1/2-x,1/2+y,z
1/2+x,1/2-y,z
loop_
_atom_site_type_symbol
_atom_site_label
_atom_site_fract_x
_atom_site_fract_y
_atom_site_fract_z
Si Si1 0.105223 0.390293 0.397707
Si Si2 0.107004 0.206078 0.664948
Si Si3 0.250000 0.750000 0.250000
Si Si4 0.690174 0.387298 0.441205
O O1 0.111921 0.500000 0.381851
O O2 0.110297 0.317834 0.348449
O O3 0.196897 0.370099 0.434019
O O4 0.000000 0.376598 0.422585
O O5 0.181968 0.189149 0.711622
O O6 0.137539 0.158217 0.609130
O O7 0.000000 0.179683 0.679473
O O8 0.658950 0.353440 0.500000
O O9 0.676207 0.500000 0.439242
#
# Coordination Sequence:
#
# PCOD9513236 Si02
#       4
#    32  32   8  32
#     4   9  18  35  59  88 122 160 202 245 294 354
#     4  11  23  40  63  90 122 160 203 251 304 358
#     4  12  22  44  64  90 120 162 206 254 294 362
#     4  10  21  39  63  91 125 162 201 249 305 365
#
# _framework density 20.892422
#
# number of rings (size 3 to 8) (size 9 to 14) (size 15 to 20)
#    0.000    1.846    3.077    0.462    0.000    4.308 
#    0.000   10.769    0.000    3.692    0.000    0.000 
#    0.000    0.000    0.000    0.000    0.000    0.000 
#
# Total GULP energy -145109.916837 kJ/mol
# GULP energy per Si atom -5581.150648 kJ/mol
# Density = 2.084487 g / cm^3
# Si number density = 20.892422 Si / 1000 Ang^3
#
#
#
# Elastic Constant Matrix: (Units=GPa)
#
#
# Indices 1 2 3 4 5 6 
#
# 1 150.3208 20.5105 75.5007 0.0000 0.0000 0.0000
# 2 20.5105 39.5090 24.7249 0.0000 0.0000 0.0000
# 3 75.5007 24.7249 133.6953 0.0000 0.0000 0.0000
# 4 0.0000 0.0000 0.0000 4.4312 0.0000 0.0000
# 5 0.0000 0.0000 0.0000 0.0000 2.6047 0.0000
# 6 0.0000 0.0000 0.0000 0.0000 0.0000 23.5930
#
#
#
# Elastic Compliance Matrix: (Units=1/GPa)
#
#
# Indices 1 2 3 4 5 6 
#
# 1 0.009393 -0.001761 -0.004979 0.000000 0.000000 0.000000
# 2 -0.001761 0.028953 -0.004360 0.000000 0.000000 0.000000
# 3 -0.004979 -0.004360 0.011098 0.000000 0.000000 0.000000
# 4 0.000000 0.000000 0.000000 0.225674 0.000000 0.000000
# 5 0.000000 0.000000 0.000000 0.000000 0.383915 0.000000
# 6 0.000000 0.000000 0.000000 0.000000 0.000000 0.042385
#
#
# Mechanical properties :
#
#
# Convention : Reuss Voigt Hill
#
# Bulk Modulus (GPa) = 36.70419 62.77749 49.74084
# Shear Modulus (GPa) = 6.82407 19.64505 13.23456
#
# Velocity S-wave (km/s) = 1.80925 3.06975 2.51960
# Velocity P-wave (km/s) = 4.68730 6.53282 5.68544
#
# Compressibility (1/GPa) = 0.02724485
#
# Stress axis : x y z
#
# Youngs Moduli (GPa) = 106.45667 34.53834 90.10726
#
# Poissons Ratio (x) = 0.06081 0.44866
# Poissons Ratio (y) = 0.18742 0.39289
# Poissons Ratio (z) = 0.53006 0.15060
#
# Static dielectric constant tensor:
#      x y z
#    x 1.778770 0.000000 0.000000 
#    y 0.000000 1.761750 0.000000 
#    z 0.000000 0.000000 1.740560 
# 
# From -- ./inp_files/14086.got.cif
#   From: 2010.05.17/outbox.cif.g08.bks.cpg/sg69_8_cif.got.tgz:14086.got - 2010.06.03 19:29:58.
