data_PCOD9513326
_publ_section_title
;
Structure prediction by ZEFSAII (Michael W. Deem and Ramdas Pophale) SiO2 
 PCOD9513326
Probable space group: F M M M
;
_chemical_formula_sum "Si O2"
_cell_formula_units_Z 96
_cell_length_a 10.612891
_cell_length_b 26.053316
_cell_length_c 17.511143
_cell_angle_alpha 90.000000
_cell_angle_beta 90.000000
_cell_angle_gamma 90.000000
_cell_volume 4841.848601
_symmetry_space_group_name_H-M "F M M M"
_symmetry_group_IT_number 69
_symmetry_cell_setting 'orthorhombic'
loop_
_space_group_symop_operation_xyz
x,y,z
-x,-y,z
x,-y,-z
-x,y,-z
-x,-y,-z
x,y,-z
-x,y,z
x,-y,z
x,1/2+y,1/2+z
-x,1/2-y,1/2+z
x,1/2-y,1/2-z
-x,1/2+y,1/2-z
-x,1/2-y,1/2-z
x,1/2+y,1/2-z
-x,1/2+y,1/2+z
x,1/2-y,1/2+z
1/2+x,y,1/2+z
1/2-x,-y,1/2+z
1/2+x,-y,1/2-z
1/2-x,y,1/2-z
1/2-x,-y,1/2-z
1/2+x,y,1/2-z
1/2-x,y,1/2+z
1/2+x,-y,1/2+z
1/2+x,1/2+y,z
1/2-x,1/2-y,z
1/2+x,1/2-y,-z
1/2-x,1/2+y,-z
1/2-x,1/2-y,-z
1/2+x,1/2+y,-z
1/2-x,1/2+y,z
1/2+x,1/2-y,z
loop_
_atom_site_type_symbol
_atom_site_label
_atom_site_fract_x
_atom_site_fract_y
_atom_site_fract_z
Si Si1 0.259223 0.396638 0.341325
Si Si2 0.000000 0.438196 0.590874
Si Si3 0.143505 0.709631 0.092241
Si Si4 0.362180 0.000000 0.811706
O O1 0.250000 0.388926 0.250000
O O2 0.316810 0.346328 0.378759
O O3 0.343497 0.447249 0.356434
O O4 0.122573 0.411854 0.373115
O O5 0.000000 0.500000 0.602884
O O6 0.000000 0.429853 0.500000
O O7 0.250000 0.750000 0.118337
O O8 0.000000 0.722237 0.116782
O O9 0.144514 0.709673 0.000000
O O10 0.250000 0.000000 0.750000
O O11 0.500000 0.000000 0.775539
#
# Coordination Sequence:
#
# PCOD9513326 Si02
#       4
#    32  16  32  16
#     4  11  24  38  67  94 134 167 221 267 329 382
#     4  11  24  42  64  99 137 183 227 265 319 402
#     4  10  23  44  66  90 123 167 216 268 330 395
#     4  10  22  36  60  91 135 173 209 259 331 391
#
# _framework density 19.827138000000001
#
# number of rings (size 3 to 8) (size 9 to 14) (size 15 to 20)
#    0.000    1.500    1.667    2.000   14.000    0.667 
#    0.000    1.667    0.000    4.000    0.000    0.000 
#    0.000    0.000    0.000    0.000    0.000    0.000 
#
# Total GULP energy -134073.006821 kJ/mol
# GULP energy per Si atom -5586.375284 kJ/mol
# Density = 1.978201 g / cm^3
# Si number density = 19.827138 Si / 1000 Ang^3
#
#
#
# Elastic Constant Matrix: (Units=GPa)
#
#
# Indices 1 2 3 4 5 6 
#
# 1 212.0499 84.5353 52.8549 0.0000 0.0000 0.0000
# 2 84.5353 162.8699 20.4329 0.0000 0.0000 0.0000
# 3 52.8549 20.4329 60.7338 0.0000 0.0000 0.0000
# 4 0.0000 0.0000 0.0000 35.2949 0.0000 0.0000
# 5 0.0000 0.0000 0.0000 0.0000 20.3584 0.0000
# 6 0.0000 0.0000 0.0000 0.0000 0.0000 101.7208
#
#
#
# Elastic Compliance Matrix: (Units=1/GPa)
#
#
# Indices 1 2 3 4 5 6 
#
# 1 0.007273 -0.003112 -0.005283 0.000000 0.000000 0.000000
# 2 -0.003112 0.007742 0.000104 0.000000 0.000000 0.000000
# 3 -0.005283 0.000104 0.021028 0.000000 0.000000 0.000000
# 4 0.000000 0.000000 0.000000 0.028333 0.000000 0.000000
# 5 0.000000 0.000000 0.000000 0.000000 0.049120 0.000000
# 6 0.000000 0.000000 0.000000 0.000000 0.000000 0.009831
#
#
# Mechanical properties :
#
#
# Convention : Reuss Voigt Hill
#
# Bulk Modulus (GPa) = 51.38496 83.47775 67.43135
# Shear Modulus (GPa) = 34.15387 49.99686 42.07536
#
# Velocity S-wave (km/s) = 4.15490 5.02704 4.61163
# Velocity P-wave (km/s) = 6.99931 8.71143 7.90188
#
# Compressibility (1/GPa) = 0.01946095
#
# Stress axis : x y z
#
# Youngs Moduli (GPa) = 137.48701 129.16070 47.55617
#
# Poissons Ratio (x) = 0.40200 0.25123
# Poissons Ratio (y) = 0.42792 -0.00494
# Poissons Ratio (z) = 0.72631 -0.01342
#
# Static dielectric constant tensor:
#      x y z
#    x 1.704230 0.000000 0.000000 
#    y 0.000000 1.696620 0.000000 
#    z 0.000000 0.000000 1.692810 
# 
# From -- ./inp_files/20707.got.cif
#   From: 2010.05.17/outbox.cif.g08.bks.cpg/sg69_11_cif.got.tgz:20707.got - 2010.06.03 19:29:58.
