data_PCOD9513518
_publ_section_title
;
Structure prediction by ZEFSAII (Michael W. Deem and Ramdas Pophale) SiO2 
 PCOD9513518
Probable space group: F M M M
;
_chemical_formula_sum "Si O2"
_cell_formula_units_Z 136
_cell_length_a 22.157661
_cell_length_b 30.180052
_cell_length_c 10.793507
_cell_angle_alpha 90.000000
_cell_angle_beta 90.000000
_cell_angle_gamma 90.000000
_cell_volume 7217.827106
_symmetry_space_group_name_H-M "F M M M"
_symmetry_group_IT_number 69
_symmetry_cell_setting 'orthorhombic'
loop_
_space_group_symop_operation_xyz
x,y,z
-x,-y,z
x,-y,-z
-x,y,-z
-x,-y,-z
x,y,-z
-x,y,z
x,-y,z
x,1/2+y,1/2+z
-x,1/2-y,1/2+z
x,1/2-y,1/2-z
-x,1/2+y,1/2-z
-x,1/2-y,1/2-z
x,1/2+y,1/2-z
-x,1/2+y,1/2+z
x,1/2-y,1/2+z
1/2+x,y,1/2+z
1/2-x,-y,1/2+z
1/2+x,-y,1/2-z
1/2-x,y,1/2-z
1/2-x,-y,1/2-z
1/2+x,y,1/2-z
1/2-x,y,1/2+z
1/2+x,-y,1/2+z
1/2+x,1/2+y,z
1/2-x,1/2-y,z
1/2+x,1/2-y,-z
1/2-x,1/2+y,-z
1/2-x,1/2-y,-z
1/2+x,1/2+y,-z
1/2-x,1/2+y,z
1/2+x,1/2-y,z
loop_
_atom_site_type_symbol
_atom_site_label
_atom_site_fract_x
_atom_site_fract_y
_atom_site_fract_z
Si Si1 0.685227 0.224374 0.500000
Si Si2 0.389445 0.924029 0.360272
Si Si3 0.500000 0.450029 0.694290
Si Si4 0.000000 0.869490 0.500000
Si Si5 0.319026 0.659370 0.237451
Si Si6 0.209284 0.500000 0.631524
Si Si7 0.624157 0.687525 0.500000
O O1 0.750000 0.250000 0.500000
O O2 0.682128 0.195685 0.373382
O O3 0.629717 0.259123 0.500000
O O4 0.411629 0.916876 0.500000
O O5 0.441033 0.945471 0.278279
O O6 0.364429 0.878762 0.304680
O O7 0.333636 0.957573 0.365197
O O8 0.500000 0.500000 0.638485
O O9 0.500000 0.405472 0.611261
O O10 0.059582 0.837914 0.500000
O O11 0.250000 0.643063 0.250000
O O12 0.340925 0.674841 0.373053
O O13 0.243492 0.500000 0.500000
O O14 0.250000 0.500000 0.750000
#
# Coordination Sequence:
#
# PCOD9513518 Si02
#       7
#    16  32  16   8  32  16  16
#     4  12  24  44  71 102 136 174 233 282 338 407
#     4  11  23  41  67  98 130 174 226 284 334 401
#     4  12  24  46  72  94 128 179 238 278 335 401
#     4  12  27  50  64 100 144 178 228 283 346 420
#     4  12  23  42  69 102 139 175 225 279 340 406
#     4  10  22  43  63  94 138 171 216 274 347 410
#     4  12  26  43  70 100 138 182 223 285 341 397
#
# _framework density 18.842234999999999
#
# number of rings (size 3 to 8) (size 9 to 14) (size 15 to 20)
#    0.000    0.471    7.059    1.941    0.000    0.471 
#    4.235    3.529    0.000    0.000    0.000    0.000 
#    0.000    0.000    0.000    0.000    0.000    0.000 
#
# Total GULP energy -189745.212882 kJ/mol
# GULP energy per Si atom -5580.741555 kJ/mol
# Density = 1.879935 g / cm^3
# Si number density = 18.842235 Si / 1000 Ang^3
#
#
#
# Elastic Constant Matrix: (Units=GPa)
#
#
# Indices 1 2 3 4 5 6 
#
# 1 96.1415 34.3021 51.8011 0.0000 0.0000 0.0000
# 2 34.3021 107.6923 45.3398 0.0000 0.0000 0.0000
# 3 51.8011 45.3398 161.6966 0.0001 -0.0001 0.0000
# 4 0.0000 0.0000 0.0001 34.1607 0.0000 0.0000
# 5 0.0000 0.0000 -0.0001 0.0000 11.0385 0.0000
# 6 0.0000 0.0000 0.0000 0.0000 0.0000 42.3836
#
#
#
# Elastic Compliance Matrix: (Units=1/GPa)
#
#
# Indices 1 2 3 4 5 6 
#
# 1 0.013258 -0.002761 -0.003473 0.000000 0.000000 0.000000
# 2 -0.002761 0.011103 -0.002229 0.000000 0.000000 0.000000
# 3 -0.003473 -0.002229 0.007922 0.000000 0.000000 0.000000
# 4 0.000000 0.000000 0.000000 0.029273 0.000000 0.000000
# 5 0.000000 0.000000 0.000000 0.000000 0.090592 0.000000
# 6 0.000000 0.000000 0.000000 0.000000 0.000000 0.023594
#
#
# Mechanical properties :
#
#
# Convention : Reuss Voigt Hill
#
# Bulk Modulus (GPa) = 65.11403 69.82402 67.46903
# Shear Modulus (GPa) = 25.27968 33.12240 29.20104
#
# Velocity S-wave (km/s) = 3.66683 4.19726 3.94098
# Velocity P-wave (km/s) = 7.24983 7.78633 7.52286
#
# Compressibility (1/GPa) = 0.01535767
#
# Stress axis : x y z
#
# Youngs Moduli (GPa) = 75.42849 90.06197 126.22922
#
# Poissons Ratio (x) = 0.24862 0.43841
# Poissons Ratio (y) = 0.20823 0.28137
# Poissons Ratio (z) = 0.26197 0.20075
#
# Static dielectric constant tensor:
#      x y z
#    x 1.615390 0.000000 0.000000 
#    y 0.000000 1.663350 0.000000 
#    z 0.000000 0.000000 1.695090 
# 
# From -- ./inp_files/9529.got.cif
#   From: 2010.05.17/outbox.cif.g08.bks.cpg/sg69_5_cif.got.tgz:9529.got - 2010.06.03 19:29:58.
