data_PCOD9513873
_publ_section_title
;
Structure prediction by ZEFSAII (Michael W. Deem and Ramdas Pophale) SiO2 
 PCOD9513873
Probable space group: F M M M
;
_chemical_formula_sum "Si O2"
_cell_formula_units_Z 160
_cell_length_a 9.701505
_cell_length_b 28.769816
_cell_length_c 32.160588
_cell_angle_alpha 90.000000
_cell_angle_beta 90.000000
_cell_angle_gamma 90.000000
_cell_volume 8976.358240
_symmetry_space_group_name_H-M "F M M M"
_symmetry_group_IT_number 69
_symmetry_cell_setting 'orthorhombic'
loop_
_space_group_symop_operation_xyz
x,y,z
-x,-y,z
x,-y,-z
-x,y,-z
-x,-y,-z
x,y,-z
-x,y,z
x,-y,z
x,1/2+y,1/2+z
-x,1/2-y,1/2+z
x,1/2-y,1/2-z
-x,1/2+y,1/2-z
-x,1/2-y,1/2-z
x,1/2+y,1/2-z
-x,1/2+y,1/2+z
x,1/2-y,1/2+z
1/2+x,y,1/2+z
1/2-x,-y,1/2+z
1/2+x,-y,1/2-z
1/2-x,y,1/2-z
1/2-x,-y,1/2-z
1/2+x,y,1/2-z
1/2-x,y,1/2+z
1/2+x,-y,1/2+z
1/2+x,1/2+y,z
1/2-x,1/2-y,z
1/2+x,1/2-y,-z
1/2-x,1/2+y,-z
1/2-x,1/2-y,-z
1/2+x,1/2+y,-z
1/2-x,1/2+y,z
1/2+x,1/2-y,z
loop_
_atom_site_type_symbol
_atom_site_label
_atom_site_fract_x
_atom_site_fract_y
_atom_site_fract_z
Si Si1 0.500000 0.945363 0.806524
Si Si2 0.331705 0.206000 0.206176
Si Si3 0.750176 0.610285 0.337729
Si Si4 0.834114 0.625771 0.567930
Si Si5 0.331820 0.052536 0.500000
Si Si6 0.833455 0.702411 0.500000
Si Si7 0.500000 0.442572 0.792084
O O1 0.371771 0.925327 0.830726
O O2 0.500000 0.932086 0.757409
O O3 0.500000 0.000000 0.806626
O O4 0.500000 0.212432 0.209904
O O5 0.250000 0.201375 0.250000
O O6 0.250000 0.250000 0.186129
O O7 0.297956 0.158674 0.182573
O O8 0.781967 0.621268 0.385500
O O9 0.873236 0.584055 0.313648
O O10 0.789292 0.581649 0.540368
O O11 0.797874 0.671227 0.540650
O O12 0.000000 0.625216 0.569695
O O13 0.500000 0.052049 0.500000
O O14 0.282825 0.000000 0.500000
O O15 0.750000 0.750000 0.500000
O O16 0.000000 0.709468 0.500000
O O17 0.500000 0.500000 0.797354
#
# Coordination Sequence:
#
# PCOD9513873 Si02
#       7
#    16  32  32  32  16  16  16
#     4  11  24  42  57  84 125 166 209 264 316 361
#     4  11  24  40  62  88 117 158 204 252 308 364
#     4  12  23  39  62  89 124 164 206 257 307 359
#     4   9  19  36  57  88 120 148 194 244 291 353
#     4   8  15  30  55  83 113 144 181 237 296 347
#     4   9  19  40  65  91 122 155 187 239 301 358
#     4  11  24  40  63  88 117 166 223 264 306 363
#
# _framework density 17.824601000000001
#
# number of rings (size 3 to 8) (size 9 to 14) (size 15 to 20)
#    0.000    1.700    2.000    4.800    2.800    4.000 
#    1.800    2.000    0.000    0.000    0.000    2.100 
#    0.000    0.000    0.000    0.000    0.000    0.000 
#
# Total GULP energy -222891.700508 kJ/mol
# GULP energy per Si atom -5572.292513 kJ/mol
# Density = 1.778403 g / cm^3
# Si number density = 17.824601 Si / 1000 Ang^3
#
#
#
# Elastic Constant Matrix: (Units=GPa)
#
#
# Indices 1 2 3 4 5 6 
#
# 1 105.0439 47.0289 28.7002 0.0000 0.0000 0.0000
# 2 47.0289 134.5064 64.7200 0.0000 0.0000 0.0000
# 3 28.7002 64.7200 118.0542 0.0000 0.0000 0.0000
# 4 0.0000 0.0000 0.0000 1.8560 0.0000 0.0000
# 5 0.0000 0.0000 0.0000 0.0000 6.2215 0.0000
# 6 0.0000 0.0000 0.0000 0.0000 0.0000 38.4905
#
#
#
# Elastic Compliance Matrix: (Units=1/GPa)
#
#
# Indices 1 2 3 4 5 6 
#
# 1 0.011341 -0.003584 -0.000792 0.000000 0.000000 0.000000
# 2 -0.003584 0.011231 -0.005286 0.000000 0.000000 0.000000
# 3 -0.000792 -0.005286 0.011561 0.000000 0.000000 0.000000
# 4 0.000000 0.000000 0.000000 0.538805 0.000000 0.000000
# 5 0.000000 0.000000 0.000000 0.000000 0.160732 0.000000
# 6 0.000000 0.000000 0.000000 0.000000 0.000000 0.025980
#
#
# Mechanical properties :
#
#
# Convention : Reuss Voigt Hill
#
# Bulk Modulus (GPa) = 67.52711 70.94476 69.23593
# Shear Modulus (GPa) = 6.37828 23.79063 15.08445
#
# Velocity S-wave (km/s) = 1.89371 3.65733 2.91223
# Velocity P-wave (km/s) = 6.53819 7.59755 7.08769
#
# Compressibility (1/GPa) = 0.01480887
#
# Stress axis : x y z
#
# Youngs Moduli (GPa) = 88.17656 89.03874 86.49712
#
# Poissons Ratio (x) = 0.31912 0.06853
# Poissons Ratio (y) = 0.31603 0.45721
# Poissons Ratio (z) = 0.06986 0.47064
#
# Static dielectric constant tensor:
#      x y z
#    x 1.624000 0.000000 0.000000 
#    y 0.000000 1.636270 0.000000 
#    z 0.000000 0.000000 1.566140 
# 
# From -- ./inp_files/44647.got.cif
#   From: 2010.05.17/outbox.cif.g08.bks.cpg/sg69_23_cif.got.tgz:44647.got - 2010.06.03 19:29:58.
