data_PCOD9513222
_publ_section_title
;
Structure prediction by ZEFSAII (Michael W. Deem and Ramdas Pophale) SiO2 
 PCOD9513222
Probable space group: F M M M
;
_chemical_formula_sum "Si O2"
_cell_formula_units_Z 128
_cell_length_a 27.102375
_cell_length_b 7.892401
_cell_length_c 29.008737
_cell_angle_alpha 90.000000
_cell_angle_beta 90.000000
_cell_angle_gamma 90.000000
_cell_volume 6205.050404
_symmetry_space_group_name_H-M "F M M M"
_symmetry_group_IT_number 69
_symmetry_cell_setting 'orthorhombic'
loop_
_space_group_symop_operation_xyz
x,y,z
-x,-y,z
x,-y,-z
-x,y,-z
-x,-y,-z
x,y,-z
-x,y,z
x,-y,z
x,1/2+y,1/2+z
-x,1/2-y,1/2+z
x,1/2-y,1/2-z
-x,1/2+y,1/2-z
-x,1/2-y,1/2-z
x,1/2+y,1/2-z
-x,1/2+y,1/2+z
x,1/2-y,1/2+z
1/2+x,y,1/2+z
1/2-x,-y,1/2+z
1/2+x,-y,1/2-z
1/2-x,y,1/2-z
1/2-x,-y,1/2-z
1/2+x,y,1/2-z
1/2-x,y,1/2+z
1/2+x,-y,1/2+z
1/2+x,1/2+y,z
1/2-x,1/2-y,z
1/2+x,1/2-y,-z
1/2-x,1/2+y,-z
1/2-x,1/2-y,-z
1/2+x,1/2+y,-z
1/2-x,1/2+y,z
1/2+x,1/2-y,z
loop_
_atom_site_type_symbol
_atom_site_label
_atom_site_fract_x
_atom_site_fract_y
_atom_site_fract_z
Si Si1 0.000000 0.704050 0.195685
Si Si2 0.874730 0.190566 0.054742
Si Si3 0.056032 0.500000 0.943815
Si Si4 0.607064 0.295816 0.696289
Si Si5 0.694296 0.797230 0.130193
O O1 0.000000 0.750000 0.250000
O O2 0.053354 0.766715 0.178620
O O3 0.000000 0.500000 0.191307
O O4 0.913353 0.334301 0.070246
O O5 0.824246 0.220591 0.082030
O O6 0.892854 0.000000 0.063105
O O7 0.867527 0.210782 0.000000
O O8 0.000000 0.500000 0.926419
O O9 0.053939 0.500000 0.000000
O O10 0.606445 0.500000 0.693159
O O11 0.611943 0.250000 0.750000
O O12 0.653798 0.235196 0.667213
O O13 0.750000 0.750000 0.141788
O O14 0.691190 0.000000 0.127153
#
# Coordination Sequence:
#
# PCOD9513222 Si02
#       5
#    16  32  16  32  32
#     4   8  14  30  54  80 107 140 181 229 285 346
#     4  10  21  39  62  89 122 159 203 249 297 355
#     4   9  18  36  62  90 124 163 196 241 301 356
#     4   9  19  35  57  83 113 149 189 237 294 357
#     4  11  23  39  57  84 116 155 201 253 307 360
#
# _framework density 20.628357999999999
#
# number of rings (size 3 to 8) (size 9 to 14) (size 15 to 20)
#    0.000    2.375    1.250    0.750    0.000    3.500 
#    2.250    5.000    0.000    0.000    0.000    0.000 
#    0.000    0.000    0.000    0.000    0.000    0.000 
#
# Total GULP energy -178639.199666 kJ/mol
# GULP energy per Si atom -5582.474990 kJ/mol
# Density = 2.058141 g / cm^3
# Si number density = 20.628358 Si / 1000 Ang^3
#
#
#
# Elastic Constant Matrix: (Units=GPa)
#
#
# Indices 1 2 3 4 5 6 
#
# 1 207.9160 49.4240 58.3256 0.0000 0.0000 -0.0002
# 2 49.4240 77.7622 29.6624 -0.0001 0.0000 -0.0003
# 3 58.3256 29.6624 62.0402 0.0000 0.0000 0.0000
# 4 0.0000 -0.0001 0.0000 19.0338 0.0000 -0.0001
# 5 0.0000 0.0000 0.0000 0.0000 32.2162 0.0000
# 6 -0.0002 -0.0003 0.0000 -0.0001 0.0000 20.8628
#
#
#
# Elastic Compliance Matrix: (Units=1/GPa)
#
#
# Indices 1 2 3 4 5 6 
#
# 1 0.006859 -0.002324 -0.005338 0.000000 0.000000 0.000000
# 2 -0.002324 0.016515 -0.005712 0.000000 0.000000 0.000000
# 3 -0.005338 -0.005712 0.023868 0.000000 0.000000 0.000000
# 4 0.000000 0.000000 0.000000 0.052538 0.000000 0.000000
# 5 0.000000 0.000000 0.000000 0.000000 0.031040 0.000000
# 6 0.000000 0.000000 0.000000 0.000000 0.000000 0.047932
#
#
# Mechanical properties :
#
#
# Convention : Reuss Voigt Hill
#
# Bulk Modulus (GPa) = 48.78973 69.17137 58.98055
# Shear Modulus (GPa) = 23.54814 28.44298 25.99556
#
# Velocity S-wave (km/s) = 3.38234 3.71729 3.55376
# Velocity P-wave (km/s) = 6.24153 7.21313 6.74485
#
# Compressibility (1/GPa) = 0.02049612
#
# Stress axis : x y z
#
# Youngs Moduli (GPa) = 145.78683 60.54993 41.89784
#
# Poissons Ratio (x) = 0.14069 0.22364
# Poissons Ratio (y) = 0.33875 0.23931
# Poissons Ratio (z) = 0.77817 0.34585
#
# Static dielectric constant tensor:
#      x y z
#    x 1.739940 0.000000 0.000000 
#    y 0.000000 1.742060 0.000000 
#    z 0.000000 0.000000 1.627480 
# 
# From -- ./inp_files/4791.got.cif
#   From: 2010.05.17/outbox.cif.g08.bks.cpg/sg69_3_cif.got.tgz:4791.got - 2010.06.03 19:29:58.
