data_PCOD9513486
_publ_section_title
;
Structure prediction by ZEFSAII (Michael W. Deem and Ramdas Pophale) SiO2 
 PCOD9513486
Probable space group: F M M M
;
_chemical_formula_sum "Si O2"
_cell_formula_units_Z 168
_cell_length_a 27.905157
_cell_length_b 23.560293
_cell_length_c 15.050674
_cell_angle_alpha 90.000000
_cell_angle_beta 90.000000
_cell_angle_gamma 90.000000
_cell_volume 9895.120934
_symmetry_space_group_name_H-M "F M M M"
_symmetry_group_IT_number 69
_symmetry_cell_setting 'orthorhombic'
loop_
_space_group_symop_operation_xyz
x,y,z
-x,-y,z
x,-y,-z
-x,y,-z
-x,-y,-z
x,y,-z
-x,y,z
x,-y,z
x,1/2+y,1/2+z
-x,1/2-y,1/2+z
x,1/2-y,1/2-z
-x,1/2+y,1/2-z
-x,1/2-y,1/2-z
x,1/2+y,1/2-z
-x,1/2+y,1/2+z
x,1/2-y,1/2+z
1/2+x,y,1/2+z
1/2-x,-y,1/2+z
1/2+x,-y,1/2-z
1/2-x,y,1/2-z
1/2-x,-y,1/2-z
1/2+x,y,1/2-z
1/2-x,y,1/2+z
1/2+x,-y,1/2+z
1/2+x,1/2+y,z
1/2-x,1/2-y,z
1/2+x,1/2-y,-z
1/2-x,1/2+y,-z
1/2-x,1/2-y,-z
1/2+x,1/2+y,-z
1/2-x,1/2+y,z
1/2+x,1/2-y,z
loop_
_atom_site_type_symbol
_atom_site_label
_atom_site_fract_x
_atom_site_fract_y
_atom_site_fract_z
Si Si1 0.153515 0.363861 0.397462
Si Si2 0.500000 0.000000 0.258229
Si Si3 0.194714 0.244775 0.608261
Si Si4 0.153710 0.376429 0.898178
Si Si5 0.252547 0.434593 0.143069
Si Si6 0.900968 0.937029 0.244678
O O1 0.137801 0.362649 0.500000
O O2 0.164409 0.299931 0.365698
O O3 0.204541 0.395823 0.391549
O O4 0.117429 0.398728 0.336050
O O5 0.456971 0.048472 0.258024
O O6 0.196487 0.244570 0.500000
O O7 0.250000 0.250000 0.638719
O O8 0.170101 0.185883 0.634545
O O9 0.202144 0.413374 0.894234
O O10 0.115723 0.405950 0.834026
O O11 0.137066 0.372580 0.000000
O O12 0.261038 0.500000 0.120087
O O13 0.250000 0.429359 0.250000
O O14 0.876579 0.000000 0.240260
#
# Coordination Sequence:
#
# PCOD9513486 Si02
#       6
#    32   8  32  32  32  32
#     4  11  21  35  57  83 119 159 194 229 272 335
#     4   8  24  48  66  76 116 138 172 268 316 346
#     4   9  18  33  51  81 125 166 195 221 259 318
#     4  11  21  35  57  83 119 159 194 229 272 335
#     4  11  21  32  47  79 124 164 191 226 270 322
#     4  10  22  42  60  84 108 140 188 243 304 353
#
# _framework density 16.978065000000001
#
# number of rings (size 3 to 8) (size 9 to 14) (size 15 to 20)
#    0.571    1.143    3.810    1.714    0.000    4.571 
#    0.000    3.810    0.000    2.286    0.000    4.000 
#    0.000    0.000    0.000    0.000    0.000    0.000 
#
# Total GULP energy -233856.520207 kJ/mol
# GULP energy per Si atom -5568.012386 kJ/mol
# Density = 1.693942 g / cm^3
# Si number density = 16.978065 Si / 1000 Ang^3
#
#
#
# Elastic Constant Matrix: (Units=GPa)
#
#
# Indices 1 2 3 4 5 6 
#
# 1 98.4286 20.4177 28.4565 0.0000 0.0000 0.0000
# 2 20.4177 90.2694 23.1563 0.0000 0.0000 0.0000
# 3 28.4565 23.1563 79.9574 0.0000 0.0000 0.0000
# 4 0.0000 0.0000 0.0000 16.6441 0.0000 0.0000
# 5 0.0000 0.0000 0.0000 0.0000 -6.5746 0.0000
# 6 0.0000 0.0000 0.0000 0.0000 0.0000 4.6503
#
#
#
# Elastic Compliance Matrix: (Units=1/GPa)
#
#
# Indices 1 2 3 4 5 6 
#
# 1 0.011557 -0.001684 -0.003625 0.000000 0.000000 0.000000
# 2 -0.001684 0.012212 -0.002937 0.000000 0.000000 0.000000
# 3 -0.003625 -0.002937 0.014648 0.000000 0.000000 0.000000
# 4 0.000000 0.000000 0.000000 0.060081 0.000000 0.000000
# 5 0.000000 0.000000 0.000000 0.000000 -0.152100 0.000000
# 6 0.000000 0.000000 0.000000 0.000000 0.000000 0.215041
#
#
# Mechanical properties :
#
#
# Convention : Reuss Voigt Hill
#
# Bulk Modulus (GPa) = 45.61358 45.85738 45.73548
# Shear Modulus (GPa) = 26.99177 16.05228 21.52202
#
# Velocity S-wave (km/s) = 3.99156 3.07819 3.56425
# Velocity P-wave (km/s) = 6.94031 6.30096 6.62835
#
# Compressibility (1/GPa) = 0.02192329
#
# Stress axis : x y z
#
# Youngs Moduli (GPa) = 86.52672 81.88404 68.27039
#
# Poissons Ratio (x) = 0.13790 0.24751
# Poissons Ratio (y) = 0.14572 0.20054
# Poissons Ratio (z) = 0.31370 0.24053
#
# Static dielectric constant tensor:
#      x y z
#    x 1.521360 0.000000 0.000000 
#    y 0.000000 1.594240 0.000000 
#    z 0.000000 0.000000 1.619400 
# 
# From -- ./inp_files/19704.got.cif
#   From: 2010.05.17/outbox.cif.g08.bks.cpg/sg69_10_cif.got.tgz:19704.got - 2010.06.03 19:29:58.
