data_PCOD9513887
_publ_section_title
;
Structure prediction by ZEFSAII (Michael W. Deem and Ramdas Pophale) SiO2 
 PCOD9513887
Probable space group: F M M M
;
_chemical_formula_sum "Si O2"
_cell_formula_units_Z 200
_cell_length_a 15.274606
_cell_length_b 21.872034
_cell_length_c 25.066495
_cell_angle_alpha 90.000000
_cell_angle_beta 90.000000
_cell_angle_gamma 90.000000
_cell_volume 8374.382639
_symmetry_space_group_name_H-M "F M M M"
_symmetry_group_IT_number 69
_symmetry_cell_setting 'orthorhombic'
loop_
_space_group_symop_operation_xyz
x,y,z
-x,-y,z
x,-y,-z
-x,y,-z
-x,-y,-z
x,y,-z
-x,y,z
x,-y,z
x,1/2+y,1/2+z
-x,1/2-y,1/2+z
x,1/2-y,1/2-z
-x,1/2+y,1/2-z
-x,1/2-y,1/2-z
x,1/2+y,1/2-z
-x,1/2+y,1/2+z
x,1/2-y,1/2+z
1/2+x,y,1/2+z
1/2-x,-y,1/2+z
1/2+x,-y,1/2-z
1/2-x,y,1/2-z
1/2-x,-y,1/2-z
1/2+x,y,1/2-z
1/2-x,y,1/2+z
1/2+x,-y,1/2+z
1/2+x,1/2+y,z
1/2-x,1/2-y,z
1/2+x,1/2-y,-z
1/2-x,1/2+y,-z
1/2-x,1/2-y,-z
1/2+x,1/2+y,-z
1/2-x,1/2+y,z
1/2+x,1/2-y,z
loop_
_atom_site_type_symbol
_atom_site_label
_atom_site_fract_x
_atom_site_fract_y
_atom_site_fract_z
Si Si1 0.356827 0.932183 0.673850
Si Si2 0.140833 0.387577 0.439334
Si Si3 0.655154 0.115556 0.941268
Si Si4 0.000000 0.500000 0.788177
Si Si5 0.104346 0.819998 0.254108
Si Si6 0.850231 0.585218 0.829794
Si Si7 0.597372 0.750741 0.935858
O O1 0.390108 0.923586 0.612840
O O2 0.377594 0.870323 0.707212
O O3 0.250386 0.935415 0.674452
O O4 0.389934 0.000000 0.691778
O O5 0.104174 0.396257 0.500000
O O6 0.243447 0.401975 0.443942
O O7 0.132306 0.316194 0.423022
O O8 0.617831 0.080650 0.890753
O O9 0.650770 0.187622 0.927091
O O10 0.615311 0.106515 0.000000
O O11 0.922321 0.551716 0.795035
O O12 0.134653 0.750000 0.250000
O O13 0.148462 0.846732 0.307103
O O14 0.000000 0.817798 0.260363
O O15 0.500000 0.758362 0.912677
O O16 0.590671 0.748550 0.000000
#
# Coordination Sequence:
#
# PCOD9513887 Si02
#       7
#    32  32  32   8  32  32  32
#     4  11  25  43  69 102 132 177 231 274 327 406
#     4   9  19  37  59  89 131 175 215 265 326 391
#     4   9  19  36  59  90 127 173 219 263 321 394
#     4  12  24  44  69 100 130 188 219 270 336 408
#     4  11  27  48  71 100 133 170 219 284 348 402
#     4  11  24  43  70  94 135 176 222 272 333 397
#     4   9  17  29  51  82 119 162 211 264 320 379
#
# _framework density 23.882356999999999
#
# number of rings (size 3 to 8) (size 9 to 14) (size 15 to 20)
#    0.000    1.920    1.600    0.960    4.480    5.120 
#    0.000    0.800    0.000    0.000    0.000    3.360 
#    0.000    0.000    0.000    0.000    0.000    0.000 
#
# Total GULP energy -278344.429368 kJ/mol
# GULP energy per Si atom -5566.888587 kJ/mol
# Density = 2.382800 g / cm^3
# Si number density = 23.882357 Si / 1000 Ang^3
#
#
#
# Elastic Constant Matrix: (Units=GPa)
#
#
# Indices 1 2 3 4 5 6 
#
# 1 53.0806 -0.3307 -6.1147 0.0000 0.0000 0.0000
# 2 -0.3307 114.8620 52.2152 0.0000 0.0000 0.0000
# 3 -6.1147 52.2152 142.6639 0.0000 0.0000 0.0000
# 4 0.0000 0.0000 0.0000 -3.2802 0.0000 0.0000
# 5 0.0000 0.0000 0.0000 0.0000 119.3854 0.0000
# 6 0.0000 0.0000 0.0000 0.0000 0.0000 -224.1860
#
#
#
# Elastic Compliance Matrix: (Units=1/GPa)
#
#
# Indices 1 2 3 4 5 6 
#
# 1 0.018946 -0.000377 0.000950 0.000000 0.000000 0.000000
# 2 -0.000377 0.010451 -0.003841 0.000000 0.000000 0.000000
# 3 0.000950 -0.003841 0.008456 0.000000 0.000000 0.000000
# 4 0.000000 0.000000 0.000000 -0.304858 0.000000 0.000000
# 5 0.000000 0.000000 0.000000 0.000000 0.008376 0.000000
# 6 0.000000 0.000000 0.000000 0.000000 0.000000 -0.004461
#
#
# Mechanical properties :
#
#
# Convention : Reuss Voigt Hill
#
# Bulk Modulus (GPa) = 31.93188 44.68291 38.30740
# Shear Modulus (GPa) = -20.31592 -3.96040 -12.13816
#
# Velocity S-wave (km/s) = -2.91978 -1.28914 -2.25688
# Velocity P-wave (km/s) = 1.42572 4.06625 3.04689
#
# Compressibility (1/GPa) = 0.03131667
#
# Stress axis : x y z
#
# Youngs Moduli (GPa) = 52.78048 95.68224 118.25713
#
# Poissons Ratio (x) = 0.03611 -0.11237
# Poissons Ratio (y) = 0.01992 0.45427
# Poissons Ratio (z) = -0.05015 0.36755
#
# Static dielectric constant tensor:
#      x y z
#    x 1.889900 0.000000 0.000000 
#    y 0.000000 2.023940 0.000000 
#    z 0.000000 0.000000 1.992150 
# 
# From -- ./inp_files/42041.got.cif
#   From: 2010.05.17/outbox.cif.g08.bks.cpg/sg69_22_cif.got.tgz:42041.got - 2010.06.03 19:29:58.
