data_PCOD9513756
_publ_section_title
;
Structure prediction by ZEFSAII (Michael W. Deem and Ramdas Pophale) SiO2 
 PCOD9513756
Probable space group: F M M M
;
_chemical_formula_sum "Si O2"
_cell_formula_units_Z 176
_cell_length_a 14.181566
_cell_length_b 30.599373
_cell_length_c 21.672636
_cell_angle_alpha 90.000000
_cell_angle_beta 90.000000
_cell_angle_gamma 90.000000
_cell_volume 9404.775976
_symmetry_space_group_name_H-M "F M M M"
_symmetry_group_IT_number 69
_symmetry_cell_setting 'orthorhombic'
loop_
_space_group_symop_operation_xyz
x,y,z
-x,-y,z
x,-y,-z
-x,y,-z
-x,-y,-z
x,y,-z
-x,y,z
x,-y,z
x,1/2+y,1/2+z
-x,1/2-y,1/2+z
x,1/2-y,1/2-z
-x,1/2+y,1/2-z
-x,1/2-y,1/2-z
x,1/2+y,1/2-z
-x,1/2+y,1/2+z
x,1/2-y,1/2+z
1/2+x,y,1/2+z
1/2-x,-y,1/2+z
1/2+x,-y,1/2-z
1/2-x,y,1/2-z
1/2-x,-y,1/2-z
1/2+x,y,1/2-z
1/2-x,y,1/2+z
1/2+x,-y,1/2+z
1/2+x,1/2+y,z
1/2-x,1/2-y,z
1/2+x,1/2-y,-z
1/2-x,1/2+y,-z
1/2-x,1/2-y,-z
1/2+x,1/2+y,-z
1/2-x,1/2+y,z
1/2+x,1/2-y,z
loop_
_atom_site_type_symbol
_atom_site_label
_atom_site_fract_x
_atom_site_fract_y
_atom_site_fract_z
Si Si1 0.885761 0.804564 0.190006
Si Si2 0.394050 0.947126 0.500000
Si Si3 0.232377 0.051426 0.116885
Si Si4 0.889173 0.382911 0.854742
Si Si5 0.110890 0.899771 0.792618
Si Si6 0.614416 0.212075 0.166576
O O1 0.856562 0.853915 0.176054
O O2 0.860725 0.795719 0.261512
O O3 0.854795 0.761760 0.152119
O O4 0.000000 0.805607 0.188251
O O5 0.500000 0.929373 0.500000
O O6 0.337085 0.935622 0.561248
O O7 0.400024 0.000000 0.500000
O O8 0.325014 0.080996 0.113777
O O9 0.175979 0.062897 0.179578
O O10 0.253135 0.000000 0.113332
O O11 0.881345 0.392137 0.780765
O O12 0.857116 0.332680 0.866763
O O13 0.000000 0.386449 0.870139
O O14 0.000000 0.907572 0.805832
O O15 0.500000 0.212207 0.163827
#
# Coordination Sequence:
#
# PCOD9513756 Si02
#       6
#    32  16  32  32  32  32
#     4   7  10  19  38  64  94 128 162 193 227 270
#     4   9  20  40  61  75  86 109 156 216 265 295
#     4  11  22  35  51  70  93 124 164 207 247 289
#     4   9  18  31  47  72 106 137 162 190 231 289
#     4   9  17  29  47  74 105 132 160 197 242 292
#     4   7  10  20  39  62  93 132 164 189 222 267
#
# _framework density 18.713895999999998
#
# number of rings (size 3 to 8) (size 9 to 14) (size 15 to 20)
#    0.000    3.364    0.000    4.364    0.000    2.909 
#    0.000    3.182    0.000    6.000    0.000    2.545 
#    0.000    5.818    0.000    0.000    0.000    0.000 
#
# Total GULP energy -244998.096266 kJ/mol
# GULP energy per Si atom -5568.138551 kJ/mol
# Density = 1.867130 g / cm^3
# Si number density = 18.713896 Si / 1000 Ang^3
#
#
#
# Elastic Constant Matrix: (Units=GPa)
#
#
# Indices 1 2 3 4 5 6 
#
# 1 87.9677 40.8921 15.9645 0.0000 0.0000 0.0000
# 2 40.8921 119.5579 14.6813 0.0000 0.0000 0.0000
# 3 15.9645 14.6813 15.9569 0.0000 0.0000 0.0000
# 4 0.0000 0.0000 0.0000 5.5640 0.0000 0.0000
# 5 0.0000 0.0000 0.0000 0.0000 7.8690 0.0000
# 6 0.0000 0.0000 0.0000 0.0000 0.0000 -13.6050
#
#
#
# Elastic Compliance Matrix: (Units=1/GPa)
#
#
# Indices 1 2 3 4 5 6 
#
# 1 0.015262 -0.003771 -0.011800 0.000000 0.000000 0.000000
# 2 -0.003771 0.010361 -0.005760 0.000000 0.000000 0.000000
# 3 -0.011800 -0.005760 0.079774 0.000000 0.000000 0.000000
# 4 0.000000 0.000000 0.000000 0.179728 0.000000 0.000000
# 5 0.000000 0.000000 0.000000 0.000000 0.127080 0.000000
# 6 0.000000 0.000000 0.000000 0.000000 0.000000 -0.073503
#
#
# Mechanical properties :
#
#
# Convention : Reuss Voigt Hill
#
# Bulk Modulus (GPa) = 15.93995 40.72869 28.33432
# Shear Modulus (GPa) = 12.42923 10.09526 11.26224
#
# Velocity S-wave (km/s) = 2.57995 2.32513 2.45585
# Velocity P-wave (km/s) = 4.17265 5.38697 4.81822
#
# Compressibility (1/GPa) = 0.06273547
#
# Stress axis : x y z
#
# Youngs Moduli (GPa) = 65.52096 96.51302 12.53539
#
# Poissons Ratio (x) = 0.36396 0.14792
# Poissons Ratio (y) = 0.24709 0.07221
# Poissons Ratio (z) = 0.77314 0.55592
#
# Static dielectric constant tensor:
#      x y z
#    x 1.703850 0.000000 0.000000 
#    y 0.000000 1.694760 0.000000 
#    z 0.000000 0.000000 1.628860 
# 
# From -- ./inp_files/36059.got.cif
#   From: 2010.05.17/outbox.cif.g08.bks.cpg/sg69_19_cif.got.tgz:36059.got - 2010.06.03 19:29:58.
