data_PCOD9513917
_publ_section_title
;
Structure prediction by ZEFSAII (Michael W. Deem and Ramdas Pophale) SiO2 
 PCOD9513917
Probable space group: F M M M
;
_chemical_formula_sum "Si O2"
_cell_formula_units_Z 68
_cell_length_a 16.582813
_cell_length_b 8.044292
_cell_length_c 22.758023
_cell_angle_alpha 90.000000
_cell_angle_beta 90.000000
_cell_angle_gamma 90.000000
_cell_volume 3035.851765
_symmetry_space_group_name_H-M "F M M M"
_symmetry_group_IT_number 69
_symmetry_cell_setting 'orthorhombic'
loop_
_space_group_symop_operation_xyz
x,y,z
-x,-y,z
x,-y,-z
-x,y,-z
-x,-y,-z
x,y,-z
-x,y,z
x,-y,z
x,1/2+y,1/2+z
-x,1/2-y,1/2+z
x,1/2-y,1/2-z
-x,1/2+y,1/2-z
-x,1/2-y,1/2-z
x,1/2+y,1/2-z
-x,1/2+y,1/2+z
x,1/2-y,1/2+z
1/2+x,y,1/2+z
1/2-x,-y,1/2+z
1/2+x,-y,1/2-z
1/2-x,y,1/2-z
1/2-x,-y,1/2-z
1/2+x,y,1/2-z
1/2-x,y,1/2+z
1/2+x,-y,1/2+z
1/2+x,1/2+y,z
1/2-x,1/2-y,z
1/2+x,1/2-y,-z
1/2-x,1/2+y,-z
1/2-x,1/2-y,-z
1/2+x,1/2+y,-z
1/2-x,1/2+y,z
1/2+x,1/2-y,z
loop_
_atom_site_type_symbol
_atom_site_label
_atom_site_fract_x
_atom_site_fract_y
_atom_site_fract_z
Si Si1 0.622211 0.314507 0.000000
Si Si2 0.000000 0.198057 0.817786
Si Si3 0.667978 0.303712 0.622255
Si Si4 0.000000 0.000000 0.500000
O O1 0.668360 0.297508 0.938678
O O2 0.585747 0.500000 0.000000
O O3 0.567530 0.149693 0.000000
O O4 0.000000 0.250000 0.750000
O O5 0.082118 0.264762 0.847427
O O6 0.000000 0.000000 0.823532
O O7 0.670377 0.500000 0.612219
O O8 0.750000 0.250000 0.655468
#
# Coordination Sequence:
#
# PCOD9513917 Si02
#       4
#    16  16  32   4
#     4  12  24  42  68 106 149 190 234 292 357 431
#     4  12  27  49  72 103 137 185 241 301 358 424
#     4  12  25  46  72 107 146 189 236 295 357 430
#     4  12  22  40  60 102 140 186 238 280 348 412
#
# _framework density 22.398987000000002
#
# number of rings (size 3 to 8) (size 9 to 14) (size 15 to 20)
#    0.000    0.000    2.353    8.824    0.000    0.941 
#    0.000    4.706    0.000    0.000    0.000    0.000 
#    0.000    0.000    0.000    0.000    0.000    0.000 
#
# Total GULP energy -94765.339613 kJ/mol
# GULP energy per Si atom -5574.431742 kJ/mol
# Density = 2.234801 g / cm^3
# Si number density = 22.398987 Si / 1000 Ang^3
#
#
#
# Elastic Constant Matrix: (Units=GPa)
#
#
# Indices 1 2 3 4 5 6 
#
# 1 219.8593 65.5527 59.3646 0.0000 0.0000 0.0000
# 2 65.5527 242.7358 15.0416 0.0000 0.0000 0.0000
# 3 59.3646 15.0416 99.8273 0.0000 0.0000 0.0000
# 4 0.0000 0.0000 0.0000 28.6326 0.0000 0.0000
# 5 0.0000 0.0000 0.0000 0.0000 -7.0874 0.0000
# 6 0.0000 0.0000 0.0000 0.0000 0.0000 -9.8114
#
#
#
# Elastic Compliance Matrix: (Units=1/GPa)
#
#
# Indices 1 2 3 4 5 6 
#
# 1 0.005840 -0.001375 -0.003266 0.000000 0.000000 0.000000
# 2 -0.001375 0.004482 0.000142 0.000000 0.000000 0.000000
# 3 -0.003266 0.000142 0.011938 0.000000 0.000000 0.000000
# 4 0.000000 0.000000 0.000000 0.034925 0.000000 0.000000
# 5 0.000000 0.000000 0.000000 0.000000 -0.141095 0.000000
# 6 0.000000 0.000000 0.000000 0.000000 0.000000 -0.101922
#
#
# Mechanical properties :
#
#
# Convention : Reuss Voigt Hill
#
# Bulk Modulus (GPa) = 75.39529 93.59336 84.49432
# Shear Modulus (GPa) = -28.99995 30.51098 0.75552
#
# Velocity S-wave (km/s) = -3.60210 3.69475 0.58141
# Velocity P-wave (km/s) = 4.05377 7.75093 6.18506
#
# Compressibility (1/GPa) = 0.01326343
#
# Stress axis : x y z
#
# Youngs Moduli (GPa) = 171.23093 223.10641 83.76652
#
# Poissons Ratio (x) = 0.30672 0.27356
# Poissons Ratio (y) = 0.23541 -0.01191
# Poissons Ratio (z) = 0.55920 -0.03172
#
# Static dielectric constant tensor:
#      x y z
#    x 1.930590 0.000000 0.000000 
#    y 0.000000 1.761330 0.000000 
#    z 0.000000 0.000000 1.533740 
# 
# From -- ./inp_files/2108.got.cif
#   From: 2010.05.17/outbox.cif.g08.bks.cpg/sg69_2_cif.got.tgz:2108.got - 2010.06.03 19:29:58.
