data_PCOD9513855
_publ_section_title
;
Structure prediction by ZEFSAII (Michael W. Deem and Ramdas Pophale) SiO2 
 PCOD9513855
Probable space group: F M M M
;
_chemical_formula_sum "Si O2"
_cell_formula_units_Z 100
_cell_length_a 23.383707
_cell_length_b 7.702100
_cell_length_c 25.404536
_cell_angle_alpha 90.000000
_cell_angle_beta 90.000000
_cell_angle_gamma 90.000000
_cell_volume 4575.449652
_symmetry_space_group_name_H-M "F M M M"
_symmetry_group_IT_number 69
_symmetry_cell_setting 'orthorhombic'
loop_
_space_group_symop_operation_xyz
x,y,z
-x,-y,z
x,-y,-z
-x,y,-z
-x,-y,-z
x,y,-z
-x,y,z
x,-y,z
x,1/2+y,1/2+z
-x,1/2-y,1/2+z
x,1/2-y,1/2-z
-x,1/2+y,1/2-z
-x,1/2-y,1/2-z
x,1/2+y,1/2-z
-x,1/2+y,1/2+z
x,1/2-y,1/2+z
1/2+x,y,1/2+z
1/2-x,-y,1/2+z
1/2+x,-y,1/2-z
1/2-x,y,1/2-z
1/2-x,-y,1/2-z
1/2+x,y,1/2-z
1/2-x,y,1/2+z
1/2+x,-y,1/2+z
1/2+x,1/2+y,z
1/2-x,1/2-y,z
1/2+x,1/2-y,-z
1/2-x,1/2+y,-z
1/2-x,1/2-y,-z
1/2+x,1/2+y,-z
1/2-x,1/2+y,z
1/2+x,1/2-y,z
loop_
_atom_site_type_symbol
_atom_site_label
_atom_site_fract_x
_atom_site_fract_y
_atom_site_fract_z
Si Si1 0.595586 0.807110 0.000000
Si Si2 0.500000 0.207977 0.687941
Si Si3 0.685472 0.207453 0.412665
Si Si4 0.000000 0.500000 0.500000
Si Si5 0.625109 0.208558 0.311286
O O1 0.637874 0.786913 0.049744
O O2 0.549831 0.653209 0.000000
O O3 0.570236 0.000000 0.000000
O O4 0.500000 0.250000 0.750000
O O5 0.437983 0.273760 0.670054
O O6 0.500000 0.000000 0.679337
O O7 0.750000 0.250000 0.428147
O O8 0.672255 0.267135 0.352833
O O9 0.678818 0.000000 0.415486
O O10 0.634488 0.250000 0.250000
O O11 0.622680 0.000000 0.313569
#
# Coordination Sequence:
#
# PCOD9513855 Si02
#       5
#    16  16  32   4  32
#     4  12  26  48  76 107 140 181 228 281 354 422
#     4   8  14  29  50  77 109 155 207 262 327 398
#     4  11  23  42  65  97 136 186 236 293 348 414
#     4  12  26  52  76 110 152 168 222 290 352 416
#     4   9  19  34  57  89 128 175 228 285 350 408
#
# _framework density 21.855775999999999
#
# number of rings (size 3 to 8) (size 9 to 14) (size 15 to 20)
#    0.000    1.920    1.600    1.680    0.000    4.480 
#    2.880    3.200    0.000    3.840    0.000    0.000 
#    0.000    0.000    0.000    0.000    0.000    0.000 
#
# Total GULP energy -139288.914415 kJ/mol
# GULP energy per Si atom -5571.556577 kJ/mol
# Density = 2.180603 g / cm^3
# Si number density = 21.855776 Si / 1000 Ang^3
#
#
#
# Elastic Constant Matrix: (Units=GPa)
#
#
# Indices 1 2 3 4 5 6 
#
# 1 136.5232 42.6091 45.0037 0.0000 -0.0003 -0.0001
# 2 42.6091 119.8012 21.9848 0.0000 -0.0001 0.0000
# 3 45.0037 21.9848 91.2105 0.0000 0.0000 0.0000
# 4 0.0000 0.0000 0.0000 16.2027 0.0000 0.0000
# 5 -0.0003 -0.0001 0.0000 0.0000 642.3145 0.0003
# 6 -0.0001 0.0000 0.0000 0.0000 0.0003 33.2430
#
#
#
# Elastic Compliance Matrix: (Units=1/GPa)
#
#
# Indices 1 2 3 4 5 6 
#
# 1 0.009478 -0.002629 -0.004043 0.000000 0.000000 0.000000
# 2 -0.002629 0.009463 -0.000984 0.000000 0.000000 0.000000
# 3 -0.004043 -0.000984 0.013195 0.000000 0.000000 0.000000
# 4 0.000000 0.000000 0.000000 0.061718 0.000000 0.000000
# 5 0.000000 0.000000 0.000000 0.000000 0.001557 0.000000
# 6 0.000000 0.000000 0.000000 0.000000 0.000000 0.030082
#
#
# Mechanical properties :
#
#
# Convention : Reuss Voigt Hill
#
# Bulk Modulus (GPa) = 59.43472 62.97001 61.20236
# Shear Modulus (GPa) = 34.15016 154.21453 94.18234
#
# Velocity S-wave (km/s) = 3.95716 8.40912 6.57162
# Velocity P-wave (km/s) = 6.93772 11.09768 9.25447
#
# Compressibility (1/GPa) = 0.01682518
#
# Stress axis : x y z
#
# Youngs Moduli (GPa) = 105.50777 105.67756 75.78356
#
# Poissons Ratio (x) = 0.27784 0.30638
# Poissons Ratio (y) = 0.27739 0.07454
# Poissons Ratio (z) = 0.42655 0.10395
#
# Static dielectric constant tensor:
#      x y z
#    x 1.799470 0.000000 0.000000 
#    y 0.000000 1.814020 0.000000 
#    z 0.000000 0.000000 1.810430 
# 
# From -- ./inp_files/2968.got.cif
#   From: 2010.05.17/outbox.cif.g08.bks.cpg/sg69_2_cif.got.tgz:2968.got - 2010.06.03 19:29:58.
