data_PCOD9513018
_publ_section_title
;
Structure prediction by ZEFSAII (Michael W. Deem and Ramdas Pophale) SiO2 
 PCOD9513018
Probable space group: F M M M
;
_chemical_formula_sum "Si O2"
_cell_formula_units_Z 88
_cell_length_a 9.590584
_cell_length_b 25.649200
_cell_length_c 19.011847
_cell_angle_alpha 90.000000
_cell_angle_beta 90.000000
_cell_angle_gamma 90.000000
_cell_volume 4676.739589
_symmetry_space_group_name_H-M "F M M M"
_symmetry_group_IT_number 69
_symmetry_cell_setting 'orthorhombic'
loop_
_space_group_symop_operation_xyz
x,y,z
-x,-y,z
x,-y,-z
-x,y,-z
-x,-y,-z
x,y,-z
-x,y,z
x,-y,z
x,1/2+y,1/2+z
-x,1/2-y,1/2+z
x,1/2-y,1/2-z
-x,1/2+y,1/2-z
-x,1/2-y,1/2-z
x,1/2+y,1/2-z
-x,1/2+y,1/2+z
x,1/2-y,1/2+z
1/2+x,y,1/2+z
1/2-x,-y,1/2+z
1/2+x,-y,1/2-z
1/2-x,y,1/2-z
1/2-x,-y,1/2-z
1/2+x,y,1/2-z
1/2-x,y,1/2+z
1/2+x,-y,1/2+z
1/2+x,1/2+y,z
1/2-x,1/2-y,z
1/2+x,1/2-y,-z
1/2-x,1/2+y,-z
1/2-x,1/2-y,-z
1/2+x,1/2+y,-z
1/2-x,1/2+y,z
1/2+x,1/2-y,z
loop_
_atom_site_type_symbol
_atom_site_label
_atom_site_fract_x
_atom_site_fract_y
_atom_site_fract_z
Si Si1 0.162728 0.099755 0.418180
Si Si2 0.250000 0.250000 0.750000
Si Si3 0.159162 0.701904 0.612200
Si Si4 0.334036 0.000000 0.177928
O O1 0.174777 0.084323 0.500000
O O2 0.261897 0.148579 0.403647
O O3 0.196872 0.051274 0.368221
O O4 0.000000 0.114606 0.405991
O O5 0.163851 0.285920 0.696232
O O6 0.250000 0.750000 0.582377
O O7 0.000000 0.701795 0.588207
O O8 0.250000 0.000000 0.250000
O O9 0.500000 0.000000 0.191942
#
# Coordination Sequence:
#
# PCOD9513018 Si02
#       4
#    32   8  32  16
#     4  10  22  41  63  86 119 161 202 245 296 356
#     4   8  22  36  56  82 122 160 196 236 296 356
#     4  10  21  36  59  87 119 156 198 244 295 351
#     4  10  23  41  63  91 119 154 200 247 299 355
#
# _framework density 18.816528000000002
#
# number of rings (size 3 to 8) (size 9 to 14) (size 15 to 20)
#    1.091    1.091    0.000    2.182    2.545    5.091 
#    0.000    0.000    0.000    3.273    0.000    0.000 
#    0.000    0.000    0.000    0.000    0.000    0.000 
#
# Total GULP energy -122676.337680 kJ/mol
# GULP energy per Si atom -5576.197167 kJ/mol
# Density = 1.877370 g / cm^3
# Si number density = 18.816528 Si / 1000 Ang^3
#
#
#
# Elastic Constant Matrix: (Units=GPa)
#
#
# Indices 1 2 3 4 5 6 
#
# 1 145.8806 112.3699 62.0469 0.0000 0.0000 0.0000
# 2 112.3699 167.4185 64.0841 0.0000 0.0000 0.0000
# 3 62.0469 64.0841 124.5865 0.0000 0.0000 0.0000
# 4 0.0000 0.0000 0.0000 39.7177 0.0000 0.0000
# 5 0.0000 0.0000 0.0000 0.0000 11.0553 0.0000
# 6 0.0000 0.0000 0.0000 0.0000 0.0000 30.5315
#
#
#
# Elastic Compliance Matrix: (Units=1/GPa)
#
#
# Indices 1 2 3 4 5 6 
#
# 1 0.014962 -0.008953 -0.002846 0.000000 0.000000 0.000000
# 2 -0.008953 0.012794 -0.002123 0.000000 0.000000 0.000000
# 3 -0.002846 -0.002123 0.010536 0.000000 0.000000 0.000000
# 4 0.000000 0.000000 0.000000 0.025178 0.000000 0.000000
# 5 0.000000 0.000000 0.000000 0.000000 0.090455 0.000000
# 6 0.000000 0.000000 0.000000 0.000000 0.000000 0.032753
#
#
# Mechanical properties :
#
#
# Convention : Reuss Voigt Hill
#
# Bulk Modulus (GPa) = 95.70191 101.65415 98.67803
# Shear Modulus (GPa) = 22.93548 29.55321 26.24434
#
# Velocity S-wave (km/s) = 3.49506 3.96738 3.73869
# Velocity P-wave (km/s) = 8.20111 8.66764 8.43760
#
# Compressibility (1/GPa) = 0.01044911
#
# Stress axis : x y z
#
# Youngs Moduli (GPa) = 66.83792 78.15900 94.91454
#
# Poissons Ratio (x) = 0.69973 0.27015
# Poissons Ratio (y) = 0.59837 0.20146
# Poissons Ratio (z) = 0.19023 0.16589
#
# Static dielectric constant tensor:
#      x y z
#    x 1.638010 0.000000 0.000000 
#    y 0.000000 1.608940 0.000000 
#    z 0.000000 0.000000 1.668260 
# 
# From -- ./inp_files/28366.got.cif
#   From: 2010.05.17/outbox.cif.g08.bks.cpg/sg69_15_cif.got.tgz:28366.got - 2010.06.03 19:29:58.
