data_PCOD9513230
_publ_section_title
;
Structure prediction by ZEFSAII (Michael W. Deem and Ramdas Pophale) SiO2 
 PCOD9513230
Probable space group: F M M M
;
_chemical_formula_sum "Si O2"
_cell_formula_units_Z 208
_cell_length_a 18.480433
_cell_length_b 21.249048
_cell_length_c 29.473889
_cell_angle_alpha 90.000000
_cell_angle_beta 90.000000
_cell_angle_gamma 90.000000
_cell_volume 11574.148862
_symmetry_space_group_name_H-M "F M M M"
_symmetry_group_IT_number 69
_symmetry_cell_setting 'orthorhombic'
loop_
_space_group_symop_operation_xyz
x,y,z
-x,-y,z
x,-y,-z
-x,y,-z
-x,-y,-z
x,y,-z
-x,y,z
x,-y,z
x,1/2+y,1/2+z
-x,1/2-y,1/2+z
x,1/2-y,1/2-z
-x,1/2+y,1/2-z
-x,1/2-y,1/2-z
x,1/2+y,1/2-z
-x,1/2+y,1/2+z
x,1/2-y,1/2+z
1/2+x,y,1/2+z
1/2-x,-y,1/2+z
1/2+x,-y,1/2-z
1/2-x,y,1/2-z
1/2-x,-y,1/2-z
1/2+x,y,1/2-z
1/2-x,y,1/2+z
1/2+x,-y,1/2+z
1/2+x,1/2+y,z
1/2-x,1/2-y,z
1/2+x,1/2-y,-z
1/2-x,1/2+y,-z
1/2-x,1/2-y,-z
1/2+x,1/2+y,-z
1/2-x,1/2+y,z
1/2+x,1/2-y,z
loop_
_atom_site_type_symbol
_atom_site_label
_atom_site_fract_x
_atom_site_fract_y
_atom_site_fract_z
Si Si1 0.331715 0.236534 0.380965
Si Si2 0.586893 0.927958 0.174348
Si Si3 0.153234 0.928191 0.425478
Si Si4 0.420491 0.312182 0.449359
Si Si5 0.315961 0.617971 0.054202
Si Si6 0.086869 0.212438 0.705024
Si Si7 0.081827 0.500000 0.554418
O O1 0.250000 0.250000 0.366970
O O2 0.358138 0.286714 0.417858
O O3 0.334126 0.172598 0.409935
O O4 0.381477 0.249434 0.337724
O O5 0.500000 0.924568 0.164676
O O6 0.632718 0.924268 0.127905
O O7 0.605073 0.862986 0.201555
O O8 0.598952 0.000000 0.193190
O O9 0.093356 0.886014 0.449734
O O10 0.233578 0.904028 0.437246
O O11 0.149219 0.000000 0.439472
O O12 0.415214 0.286372 0.500000
O O13 0.500000 0.297005 0.430925
O O14 0.371034 0.561356 0.064984
O O15 0.322693 0.634592 0.000000
O O16 0.110983 0.250000 0.750000
O O17 0.000000 0.215104 0.703377
O O18 0.075594 0.500000 0.500000
O O19 0.000000 0.500000 0.573248
#
# Coordination Sequence:
#
# PCOD9513230 Si02
#       7
#    32  32  32  32  32  32  16
#     4  12  23  37  58  85 116 155 198 244 294 359
#     4   9  17  32  57  87 119 155 192 232 287 360
#     4  11  20  33  56  84 117 156 198 242 288 344
#     4  11  23  36  52  81 122 159 194 241 293 349
#     4  11  22  36  57  82 112 156 203 248 296 343
#     4  10  21  39  63  89 117 151 192 244 308 372
#     4   9  20  38  56  76 103 144 203 255 292 339
#
# _framework density 17.971084000000001
#
# number of rings (size 3 to 8) (size 9 to 14) (size 15 to 20)
#    0.000    1.462    3.846    1.846    0.000    4.000 
#    0.000    2.308    1.692    0.000    0.000    3.231 
#    0.000    0.000    0.000    0.000    0.000    0.000 
#
# Total GULP energy -289689.104087 kJ/mol
# GULP energy per Si atom -5570.944309 kJ/mol
# Density = 1.793018 g / cm^3
# Si number density = 17.971084 Si / 1000 Ang^3
#
#
#
# Elastic Constant Matrix: (Units=GPa)
#
#
# Indices 1 2 3 4 5 6 
#
# 1 45.7988 10.1664 7.5268 0.0000 0.0000 0.0000
# 2 10.1664 113.4986 49.4997 0.0000 0.0000 0.0000
# 3 7.5268 49.4997 74.1650 0.0000 0.0000 0.0000
# 4 0.0000 0.0000 0.0000 87.6442 0.0000 0.0000
# 5 0.0000 0.0000 0.0000 0.0000 34.1995 0.0000
# 6 0.0000 0.0000 0.0000 0.0000 0.0000 20.6673
#
#
#
# Elastic Compliance Matrix: (Units=1/GPa)
#
#
# Indices 1 2 3 4 5 6 
#
# 1 0.022368 -0.001430 -0.001316 0.000000 0.000000 0.000000
# 2 -0.001430 0.012520 -0.008211 0.000000 0.000000 0.000000
# 3 -0.001316 -0.008211 0.019097 0.000000 0.000000 0.000000
# 4 0.000000 0.000000 0.000000 0.011410 0.000000 0.000000
# 5 0.000000 0.000000 0.000000 0.000000 0.029240 0.000000
# 6 0.000000 0.000000 0.000000 0.000000 0.000000 0.048386
#
#
# Mechanical properties :
#
#
# Convention : Reuss Voigt Hill
#
# Bulk Modulus (GPa) = 31.17963 40.87202 36.02582
# Shear Modulus (GPa) = 28.46984 39.58684 34.02834
#
# Velocity S-wave (km/s) = 3.98452 4.69850 4.35616
# Velocity P-wave (km/s) = 6.20936 7.22683 6.73733
#
# Compressibility (1/GPa) = 0.03207223
#
# Stress axis : x y z
#
# Youngs Moduli (GPa) = 44.70617 79.87393 52.36379
#
# Poissons Ratio (x) = 0.11420 0.06890
# Poissons Ratio (y) = 0.06392 0.42995
# Poissons Ratio (z) = 0.05883 0.65584
#
# Static dielectric constant tensor:
#      x y z
#    x 1.600220 0.000000 0.000000 
#    y 0.000000 1.686630 0.000000 
#    z 0.000000 0.000000 1.604610 
# 
# From -- ./inp_files/46529.got.cif
#   From: 2010.05.17/outbox.cif.g08.bks.cpg/sg69_24_cif.got.tgz:46529.got - 2010.06.03 19:29:58.
