data_PCOD9513964
_publ_section_title
;
Structure prediction by ZEFSAII (Michael W. Deem and Ramdas Pophale) SiO2 
 PCOD9513964
Probable space group: F M M M
;
_chemical_formula_sum "Si O2"
_cell_formula_units_Z 34
_cell_length_a 15.000000
_cell_length_b 24.000000
_cell_length_c 21.000000
_cell_angle_alpha 90.000000
_cell_angle_beta 90.000000
_cell_angle_gamma 90.000000
_cell_volume 7560.000000
_symmetry_space_group_name_H-M "F M M M"
_symmetry_group_IT_number 69
_symmetry_cell_setting 'orthorhombic'
loop_
_space_group_symop_operation_xyz
x,y,z
-x,-y,z
x,-y,-z
-x,y,-z
-x,-y,-z
x,y,-z
-x,y,z
x,-y,z
x,1/2+y,1/2+z
-x,1/2-y,1/2+z
x,1/2-y,1/2-z
-x,1/2+y,1/2-z
-x,1/2-y,1/2-z
x,1/2+y,1/2-z
-x,1/2+y,1/2+z
x,1/2-y,1/2+z
1/2+x,y,1/2+z
1/2-x,-y,1/2+z
1/2+x,-y,1/2-z
1/2-x,y,1/2-z
1/2-x,-y,1/2-z
1/2+x,y,1/2-z
1/2-x,y,1/2+z
1/2+x,-y,1/2+z
1/2+x,1/2+y,z
1/2-x,1/2-y,z
1/2+x,1/2-y,-z
1/2-x,1/2+y,-z
1/2-x,1/2-y,-z
1/2+x,1/2+y,-z
1/2-x,1/2+y,z
1/2+x,1/2-y,z
loop_
_atom_site_type_symbol
_atom_site_label
_atom_site_fract_x
_atom_site_fract_y
_atom_site_fract_z
Si Si1 0.000000 0.601150 0.000000
Si Si2 0.500000 0.433533 0.863806
Si Si3 0.669056 0.370112 0.923091
Si Si4 0.000000 0.433251 0.788706
Si Si5 0.606507 0.245957 0.074043
Si Si6 0.633839 0.623749 0.382728
O O1 0.077071 0.603808 0.056099
O O2 0.500000 0.500000 0.875965
O O3 0.586638 0.404491 0.894664
O O4 0.500000 0.425120 0.787298
O O5 0.653871 0.303917 0.909747
O O6 0.762465 0.389193 0.892992
O O7 0.671284 0.375644 0.000000
O O8 0.085648 0.404252 0.822309
O O9 0.000000 0.500000 0.801628
O O10 0.500000 0.255579 0.075690
O O11 0.625875 0.191399 0.115641
O O12 0.629128 0.231671 0.000000
#
# Coordination Sequence:
#
# PCOD9513964 Si02
#       6
#     8  16  32  16  32  32
#     4  10  16  32  55  90 126 152 181 234 298 340
#     4  11  26  47  61  78 118 164 213 253 293 352
#     4  11  22  36  64  98 123 156 196 244 302 363
#     4  10  25  45  63  80 112 168 211 251 297 355
#     4  10  16  31  58  93 131 161 184 231 302 369
#     4  11  19  36  64  93 125 156 196 243 299 357
#
# _framework density 4.4973539999999996
#
# number of rings (size 3 to 8) (size 9 to 14) (size 15 to 20)
#    0.000    1.412    5.882    1.059    0.000    4.706 
#    0.000    9.412    0.000    2.824    0.000    0.000 
#    0.000    0.000    0.000    0.000    0.000    0.000 
#
# Total GULP energy -189330.100344 kJ/mol
# GULP energy per Si atom -5568.532363 kJ/mol
# Density = 0.448712 g / cm^3
# Si number density = 4.497354 Si / 1000 Ang^3
#
#
#
# Elastic Constant Matrix: (Units=GPa)
#
#
# Indices 1 2 3 4 5 6 
#
# 1 178.2810 48.2174 44.7588 0.0000 0.0000 0.0000
# 2 48.2174 96.8542 44.3591 0.0000 0.0000 0.0000
# 3 44.7588 44.3591 67.9805 0.0000 0.0000 0.0000
# 4 0.0000 0.0000 0.0000 27.2483 0.0000 0.0000
# 5 0.0000 0.0000 0.0000 0.0000 14.9051 0.0000
# 6 0.0000 0.0000 0.0000 0.0000 0.0000 9.9158
#
#
#
# Elastic Compliance Matrix: (Units=1/GPa)
#
#
# Indices 1 2 3 4 5 6 
#
# 1 0.006969 -0.001951 -0.003315 0.000000 0.000000 0.000000
# 2 -0.001951 0.015272 -0.008681 0.000000 0.000000 0.000000
# 3 -0.003315 -0.008681 0.022557 0.000000 0.000000 0.000000
# 4 0.000000 0.000000 0.000000 0.036700 0.000000 0.000000
# 5 0.000000 0.000000 0.000000 0.000000 0.067091 0.000000
# 6 0.000000 0.000000 0.000000 0.000000 0.000000 0.100849
#
#
# Mechanical properties :
#
#
# Convention : Reuss Voigt Hill
#
# Bulk Modulus (GPa) = 59.15744 68.64291 63.90017
# Shear Modulus (GPa) = 17.66992 24.13254 20.90123
#
# Velocity S-wave (km/s) = 3.13747 3.66660 3.41231
# Velocity P-wave (km/s) = 6.78829 7.49437 7.15005
#
# Compressibility (1/GPa) = 0.01690405
#
# Stress axis : x y z
#
# Youngs Moduli (GPa) = 143.48929 65.47991 44.33127
#
# Poissons Ratio (x) = 0.12775 0.14698
# Poissons Ratio (y) = 0.27995 0.38483
# Poissons Ratio (z) = 0.47573 0.56841
#
# Static dielectric constant tensor:
#      x y z
#    x 1.631250 0.000000 0.000000 
#    y 0.000000 1.631960 0.000000 
#    z 0.000000 0.000000 1.584070 
# 
# From -- ./inp_files/16606.got.cif
#   From: 2010.05.17/outbox.ucp.g08.bks.cvg/sg69_9_cif.got.tgz:16606.got - 2010.06.11 16:51:34.
