data_PCOD9513863
_publ_section_title
;
Structure prediction by ZEFSAII (Michael W. Deem and Ramdas Pophale) SiO2 
 PCOD9513863
Probable space group: F M M M
;
_chemical_formula_sum "Si O2"
_cell_formula_units_Z 80
_cell_length_a 10.088403
_cell_length_b 16.877599
_cell_length_c 22.711599
_cell_angle_alpha 90.000000
_cell_angle_beta 90.000000
_cell_angle_gamma 90.000000
_cell_volume 3867.059001
_symmetry_space_group_name_H-M "F M M M"
_symmetry_group_IT_number 69
_symmetry_cell_setting 'orthorhombic'
loop_
_space_group_symop_operation_xyz
x,y,z
-x,-y,z
x,-y,-z
-x,y,-z
-x,-y,-z
x,y,-z
-x,y,z
x,-y,z
x,1/2+y,1/2+z
-x,1/2-y,1/2+z
x,1/2-y,1/2-z
-x,1/2+y,1/2-z
-x,1/2-y,1/2-z
x,1/2+y,1/2-z
-x,1/2+y,1/2+z
x,1/2-y,1/2+z
1/2+x,y,1/2+z
1/2-x,-y,1/2+z
1/2+x,-y,1/2-z
1/2-x,y,1/2-z
1/2-x,-y,1/2-z
1/2+x,y,1/2-z
1/2-x,y,1/2+z
1/2+x,-y,1/2+z
1/2+x,1/2+y,z
1/2-x,1/2-y,z
1/2+x,1/2-y,-z
1/2-x,1/2+y,-z
1/2-x,1/2-y,-z
1/2+x,1/2+y,-z
1/2-x,1/2+y,z
1/2+x,1/2-y,z
loop_
_atom_site_type_symbol
_atom_site_label
_atom_site_fract_x
_atom_site_fract_y
_atom_site_fract_z
Si Si1 0.743357 0.908489 0.618369
Si Si2 0.500000 0.325733 0.668274
Si Si3 0.847165 0.324871 0.500000
Si Si4 0.500000 0.639151 0.195425
O O1 0.869199 0.855424 0.635375
O O2 0.681503 0.876633 0.557843
O O3 0.630958 0.899614 0.668229
O O4 0.782917 0.000000 0.612915
O O5 0.500000 0.361585 0.734160
O O6 0.500000 0.231135 0.675180
O O7 0.750000 0.250000 0.500000
O O8 0.000000 0.298834 0.500000
#
# Coordination Sequence:
#
# PCOD9513863 Si02
#       4
#    32  16  16  16
#     4  12  26  43  69 102 138 176 221 281 341 396
#     4  11  25  44  67 102 137 181 227 279 326 399
#     4  12  27  47  74 100 132 178 228 276 334 408
#     4  11  23  44  71  96 137 183 233 271 328 397
#
# _framework density 20.687555
#
# number of rings (size 3 to 8) (size 9 to 14) (size 15 to 20)
#    0.000    0.400    2.000    6.600    2.800    8.800 
#    0.000    2.000    0.000    0.000    0.000    0.000 
#    0.000    0.000    0.000    0.000    0.000    0.000 
#
# Total GULP energy -112082.792505 kJ/mol
# GULP energy per Si atom -5604.139625 kJ/mol
# Density = 2.064047 g / cm^3
# Si number density = 20.687555 Si / 1000 Ang^3
#
#
#
# Elastic Constant Matrix: (Units=GPa)
#
#
# Indices 1 2 3 4 5 6 
#
# 1 135.8516 3.6096 26.8613 0.0000 0.0000 0.0000
# 2 3.6096 64.6032 17.5204 0.0000 0.0000 0.0000
# 3 26.8613 17.5204 92.8714 0.0000 0.0000 0.0000
# 4 0.0000 0.0000 0.0000 14.5531 0.0000 0.0000
# 5 0.0000 0.0000 0.0000 0.0000 30.7597 0.0000
# 6 0.0000 0.0000 0.0000 0.0000 0.0000 34.0110
#
#
#
# Elastic Compliance Matrix: (Units=1/GPa)
#
#
# Indices 1 2 3 4 5 6 
#
# 1 0.007810 0.000186 -0.002294 0.000000 0.000000 0.000000
# 2 0.000186 0.016318 -0.003132 0.000000 0.000000 0.000000
# 3 -0.002294 -0.003132 0.012022 0.000000 0.000000 0.000000
# 4 0.000000 0.000000 0.000000 0.068714 0.000000 0.000000
# 5 0.000000 0.000000 0.000000 0.000000 0.032510 0.000000
# 6 0.000000 0.000000 0.000000 0.000000 0.000000 0.029402
#
#
# Mechanical properties :
#
#
# Convention : Reuss Voigt Hill
#
# Bulk Modulus (GPa) = 38.95726 43.25652 41.10689
# Shear Modulus (GPa) = 26.90880 32.22042 29.56461
#
# Velocity S-wave (km/s) = 3.61047 3.95077 3.78445
# Velocity P-wave (km/s) = 6.02103 6.46268 6.24576
#
# Compressibility (1/GPa) = 0.02566916
#
# Stress axis : x y z
#
# Youngs Moduli (GPa) = 128.04778 61.28132 83.18144
#
# Poissons Ratio (x) = -0.01138 0.19080
# Poissons Ratio (y) = -0.02378 0.26054
# Poissons Ratio (z) = 0.29372 0.19194
#
# Static dielectric constant tensor:
#      x y z
#    x 1.684330 0.000000 0.000000 
#    y 0.000000 1.711130 0.000000 
#    z 0.000000 0.000000 1.714310 
# 
# From -- ./inp_files/7845.got.cif
#   From: 2010.05.17/outbox.cif.g08.bks.cpg/sg69_4_cif.got.tgz:7845.got - 2010.06.03 19:29:58.
