data_PCOD9513278
_publ_section_title
;
Structure prediction by ZEFSAII (Michael W. Deem and Ramdas Pophale) SiO2 
 PCOD9513278
Probable space group: F M M M
;
_chemical_formula_sum "Si O2"
_cell_formula_units_Z 136
_cell_length_a 17.208017
_cell_length_b 21.856769
_cell_length_c 14.880142
_cell_angle_alpha 90.000000
_cell_angle_beta 90.000000
_cell_angle_gamma 90.000000
_cell_volume 5596.594797
_symmetry_space_group_name_H-M "F M M M"
_symmetry_group_IT_number 69
_symmetry_cell_setting 'orthorhombic'
loop_
_space_group_symop_operation_xyz
x,y,z
-x,-y,z
x,-y,-z
-x,y,-z
-x,-y,-z
x,y,-z
-x,y,z
x,-y,z
x,1/2+y,1/2+z
-x,1/2-y,1/2+z
x,1/2-y,1/2-z
-x,1/2+y,1/2-z
-x,1/2-y,1/2-z
x,1/2+y,1/2-z
-x,1/2+y,1/2+z
x,1/2-y,1/2+z
1/2+x,y,1/2+z
1/2-x,-y,1/2+z
1/2+x,-y,1/2-z
1/2-x,y,1/2-z
1/2-x,-y,1/2-z
1/2+x,y,1/2-z
1/2-x,y,1/2+z
1/2+x,-y,1/2+z
1/2+x,1/2+y,z
1/2-x,1/2-y,z
1/2+x,1/2-y,-z
1/2-x,1/2+y,-z
1/2-x,1/2-y,-z
1/2+x,1/2+y,-z
1/2-x,1/2+y,z
1/2+x,1/2-y,z
loop_
_atom_site_type_symbol
_atom_site_label
_atom_site_fract_x
_atom_site_fract_y
_atom_site_fract_z
Si Si1 0.364433 0.107113 0.347854
Si Si2 0.207957 0.832039 0.398759
Si Si3 0.369881 0.000000 0.500000
Si Si4 0.091355 0.568412 0.147863
Si Si5 0.583649 0.760352 0.607762
O O1 0.277158 0.134537 0.347343
O O2 0.370247 0.054132 0.421751
O O3 0.391508 0.081090 0.252711
O O4 0.412480 0.167981 0.371911
O O5 0.237535 0.818855 0.500000
O O6 0.139622 0.881529 0.404025
O O7 0.161485 0.773959 0.358845
O O8 0.117794 0.500000 0.124722
O O9 0.000000 0.572908 0.130949
O O10 0.585193 0.751955 0.500000
O O11 0.500000 0.735575 0.641114
#
# Coordination Sequence:
#
# PCOD9513278 Si02
#       5
#    32  32   8  32  32
#     4  12  23  43  68 101 134 172 219 273 334 392
#     4  11  24  42  70  96 131 172 225 272 325 391
#     4  12  24  40  69 104 139 170 218 270 332 400
#     4  11  26  44  63  95 136 177 221 273 330 391
#     4  10  21  40  65  97 134 175 218 270 329 391
#
# _framework density 24.300491000000001
#
# number of rings (size 3 to 8) (size 9 to 14) (size 15 to 20)
#    0.000    0.941    3.529    2.824    1.647    5.647 
#    0.000    8.235    0.000    0.000    0.000    0.000 
#    0.000    0.000    0.000    0.000    0.000    0.000 
#
# Total GULP energy -189834.365753 kJ/mol
# GULP energy per Si atom -5583.363699 kJ/mol
# Density = 2.424518 g / cm^3
# Si number density = 24.300491 Si / 1000 Ang^3
#
#
#
# Elastic Constant Matrix: (Units=GPa)
#
#
# Indices 1 2 3 4 5 6 
#
# 1 91.4081 12.8443 -13.2634 0.0000 0.0000 0.0000
# 2 12.8443 134.6006 -16.6704 0.0000 0.0000 0.0000
# 3 -13.2634 -16.6704 66.3951 0.0000 0.0000 0.0000
# 4 0.0000 0.0000 0.0000 20.8291 0.0000 0.0000
# 5 0.0000 0.0000 0.0000 0.0000 18.7211 0.0000
# 6 0.0000 0.0000 0.0000 0.0000 0.0000 48.6260
#
#
#
# Elastic Compliance Matrix: (Units=1/GPa)
#
#
# Indices 1 2 3 4 5 6 
#
# 1 0.011355 -0.000828 0.002060 0.000000 0.000000 0.000000
# 2 -0.000828 0.007728 0.001775 0.000000 0.000000 0.000000
# 3 0.002060 0.001775 0.015919 0.000000 0.000000 0.000000
# 4 0.000000 0.000000 0.000000 0.048010 0.000000 0.000000
# 5 0.000000 0.000000 0.000000 0.000000 0.053416 0.000000
# 6 0.000000 0.000000 0.000000 0.000000 0.000000 0.020565
#
#
# Mechanical properties :
#
#
# Convention : Reuss Voigt Hill
#
# Bulk Modulus (GPa) = 24.38071 28.69162 26.53617
# Shear Modulus (GPa) = 30.36730 38.26814 34.31772
#
# Velocity S-wave (km/s) = 3.53888 3.97267 3.76203
# Velocity P-wave (km/s) = 5.17234 5.73371 5.46024
#
# Compressibility (1/GPa) = 0.04101603
#
# Stress axis : x y z
#
# Youngs Moduli (GPa) = 88.06443 129.39518 62.81961
#
# Poissons Ratio (x) = 0.10719 -0.12943
# Poissons Ratio (y) = 0.07295 -0.11150
# Poissons Ratio (z) = -0.18145 -0.22967
#
# Static dielectric constant tensor:
#      x y z
#    x 1.989320 0.000000 0.000000 
#    y 0.000000 1.899020 0.000000 
#    z 0.000000 0.000000 1.918900 
# 
# From -- ./inp_files/22585.got.cif
#   From: 2010.05.17/outbox.cif.g08.bks.cpg/sg69_12_cif.got.tgz:22585.got - 2010.06.03 19:29:58.
