data_PCOD9513394
_publ_section_title
;
Structure prediction by ZEFSAII (Michael W. Deem and Ramdas Pophale) SiO2 
 PCOD9513394
Probable space group: F M M M
;
_chemical_formula_sum "Si O2"
_cell_formula_units_Z 128
_cell_length_a 11.019127
_cell_length_b 25.841125
_cell_length_c 19.337864
_cell_angle_alpha 90.000000
_cell_angle_beta 90.000000
_cell_angle_gamma 90.000000
_cell_volume 5506.391764
_symmetry_space_group_name_H-M "F M M M"
_symmetry_group_IT_number 69
_symmetry_cell_setting 'orthorhombic'
loop_
_space_group_symop_operation_xyz
x,y,z
-x,-y,z
x,-y,-z
-x,y,-z
-x,-y,-z
x,y,-z
-x,y,z
x,-y,z
x,1/2+y,1/2+z
-x,1/2-y,1/2+z
x,1/2-y,1/2-z
-x,1/2+y,1/2-z
-x,1/2-y,1/2-z
x,1/2+y,1/2-z
-x,1/2+y,1/2+z
x,1/2-y,1/2+z
1/2+x,y,1/2+z
1/2-x,-y,1/2+z
1/2+x,-y,1/2-z
1/2-x,y,1/2-z
1/2-x,-y,1/2-z
1/2+x,y,1/2-z
1/2-x,y,1/2+z
1/2+x,-y,1/2+z
1/2+x,1/2+y,z
1/2-x,1/2-y,z
1/2+x,1/2-y,-z
1/2-x,1/2+y,-z
1/2-x,1/2-y,-z
1/2+x,1/2+y,-z
1/2-x,1/2+y,z
1/2+x,1/2-y,z
loop_
_atom_site_type_symbol
_atom_site_label
_atom_site_fract_x
_atom_site_fract_y
_atom_site_fract_z
Si Si1 0.134228 0.442768 0.672680
Si Si2 0.137846 0.410131 0.918560
Si Si3 0.125972 0.832790 0.221269
Si Si4 0.217561 0.810058 0.923420
O O1 0.139870 0.500000 0.703803
O O2 0.250127 0.435218 0.622946
O O3 0.131370 0.395207 0.726218
O O4 0.000000 0.439482 0.637216
O O5 0.167406 0.348482 0.913654
O O6 0.000000 0.421225 0.894908
O O7 0.144766 0.424044 0.000000
O O8 0.250000 0.810568 0.250000
O O9 0.130520 0.822620 0.139664
O O10 0.000000 0.814009 0.252415
O O11 0.250000 0.750000 0.920687
O O12 0.168257 0.821594 0.000000
#
# Coordination Sequence:
#
# PCOD9513394 Si02
#       4
#    32  32  32  32
#     4   9  19  36  56  78 106 145 195 243 286 340
#     4   9  18  32  51  80 117 151 186 234 291 348
#     4  10  22  39  59  85 118 154 192 239 293 349
#     4   9  19  37  61  88 117 152 196 244 292 343
#
# _framework density 23.245712000000001
#
# number of rings (size 3 to 8) (size 9 to 14) (size 15 to 20)
#    0.000    2.750    0.000    0.000    0.000    8.000 
#    0.000   11.250    0.000    0.000    0.000    0.000 
#    0.000    0.000    0.000    0.000    0.000    0.000 
#
# Total GULP energy -178474.213540 kJ/mol
# GULP energy per Si atom -5577.319173 kJ/mol
# Density = 2.319280 g / cm^3
# Si number density = 23.245712 Si / 1000 Ang^3
#
#
#
# Elastic Constant Matrix: (Units=GPa)
#
#
# Indices 1 2 3 4 5 6 
#
# 1 243.9087 7.2249 56.2452 0.0000 0.0000 0.0000
# 2 7.2249 96.2042 -4.4919 0.0000 0.0000 0.0000
# 3 56.2452 -4.4919 48.3016 0.0000 0.0000 0.0000
# 4 0.0000 0.0000 0.0000 -1.3033 0.0000 0.0000
# 5 0.0000 0.0000 0.0000 0.0000 30.1025 0.0000
# 6 0.0000 0.0000 0.0000 0.0000 0.0000 -16.5298
#
#
#
# Elastic Compliance Matrix: (Units=1/GPa)
#
#
# Indices 1 2 3 4 5 6 
#
# 1 0.005656 -0.000736 -0.006655 0.000000 0.000000 0.000000
# 2 -0.000736 0.010536 0.001836 0.000000 0.000000 0.000000
# 3 -0.006655 0.001836 0.028623 0.000000 0.000000 0.000000
# 4 0.000000 0.000000 0.000000 -0.767269 0.000000 0.000000
# 5 0.000000 0.000000 0.000000 0.000000 0.033220 0.000000
# 6 0.000000 0.000000 0.000000 0.000000 0.000000 -0.060497
#
#
# Mechanical properties :
#
#
# Convention : Reuss Voigt Hill
#
# Bulk Modulus (GPa) = 29.66756 56.26342 42.96549
# Shear Modulus (GPa) = -6.87392 24.41630 8.77119
#
# Velocity S-wave (km/s) = -1.72148 3.24444 1.94459
# Velocity P-wave (km/s) = 2.97304 6.18801 4.85440
#
# Compressibility (1/GPa) = 0.03370685
#
# Stress axis : x y z
#
# Youngs Moduli (GPa) = 176.79397 94.91688 34.93644
#
# Poissons Ratio (x) = 0.06981 0.23250
# Poissons Ratio (y) = 0.13003 -0.06415
# Poissons Ratio (z) = 1.17655 -0.17429
#
# Static dielectric constant tensor:
#      x y z
#    x 1.919080 0.000000 0.000000 
#    y 0.000000 1.885540 0.000000 
#    z 0.000000 0.000000 1.897560 
# 
# From -- ./inp_files/35089.got.cif
#   From: 2010.05.17/outbox.cif.g08.bks.cpg/sg69_18_cif.got.tgz:35089.got - 2010.06.03 19:29:58.
