data_PCOD9513498
_publ_section_title
;
Structure prediction by ZEFSAII (Michael W. Deem and Ramdas Pophale) SiO2 
 PCOD9513498
Probable space group: F M M M
;
_chemical_formula_sum "Si O2"
_cell_formula_units_Z 104
_cell_length_a 29.648171
_cell_length_b 12.085891
_cell_length_c 13.701924
_cell_angle_alpha 90.000000
_cell_angle_beta 90.000000
_cell_angle_gamma 90.000000
_cell_volume 4909.735930
_symmetry_space_group_name_H-M "F M M M"
_symmetry_group_IT_number 69
_symmetry_cell_setting 'orthorhombic'
loop_
_space_group_symop_operation_xyz
x,y,z
-x,-y,z
x,-y,-z
-x,y,-z
-x,-y,-z
x,y,-z
-x,y,z
x,-y,z
x,1/2+y,1/2+z
-x,1/2-y,1/2+z
x,1/2-y,1/2-z
-x,1/2+y,1/2-z
-x,1/2-y,1/2-z
x,1/2+y,1/2-z
-x,1/2+y,1/2+z
x,1/2-y,1/2+z
1/2+x,y,1/2+z
1/2-x,-y,1/2+z
1/2+x,-y,1/2-z
1/2-x,y,1/2-z
1/2-x,-y,1/2-z
1/2+x,y,1/2-z
1/2-x,y,1/2+z
1/2+x,-y,1/2+z
1/2+x,1/2+y,z
1/2-x,1/2-y,z
1/2+x,1/2-y,-z
1/2-x,1/2+y,-z
1/2-x,1/2-y,-z
1/2+x,1/2+y,-z
1/2-x,1/2+y,z
1/2+x,1/2-y,z
loop_
_atom_site_type_symbol
_atom_site_label
_atom_site_fract_x
_atom_site_fract_y
_atom_site_fract_z
Si Si1 0.946547 0.500000 0.118597
Si Si2 0.500000 0.126784 0.618392
Si Si3 0.250000 0.250000 0.750000
Si Si4 0.087410 0.763630 0.381786
Si Si5 0.322502 0.630527 0.116693
O O1 0.921054 0.389173 0.151017
O O2 0.000000 0.500000 0.142605
O O3 0.945664 0.500000 0.000000
O O4 0.500000 0.127271 0.500000
O O5 0.455377 0.190940 0.648910
O O6 0.500000 0.000000 0.648798
O O7 0.281246 0.325495 0.819160
O O8 0.086674 0.766098 0.500000
O O9 0.133698 0.703195 0.356375
O O10 0.330819 0.500000 0.132922
O O11 0.314112 0.644855 0.000000
#
# Coordination Sequence:
#
# PCOD9513498 Si02
#       5
#    16  16   8  32  32
#     4   9  14  24  44  79 126 164 199 246 295 351
#     4   9  14  21  41  76 115 154 197 242 292 356
#     4  12  24  44  68  94 120 154 210 268 330 376
#     4   9  16  28  49  81 120 161 202 246 298 360
#     4  10  22  42  66  93 126 163 206 258 316 377
#
# _framework density 21.182402
#
# number of rings (size 3 to 8) (size 9 to 14) (size 15 to 20)
#    0.000    2.462    1.538    1.846    0.000    3.692 
#    5.538    0.000    0.000    0.923    0.000    0.000 
#    0.000    0.000    0.000    0.000    0.000    1.846 
#
# Total GULP energy -145394.741283 kJ/mol
# GULP energy per Si atom -5592.105434 kJ/mol
# Density = 2.113419 g / cm^3
# Si number density = 21.182402 Si / 1000 Ang^3
#
#
#
# Elastic Constant Matrix: (Units=GPa)
#
#
# Indices 1 2 3 4 5 6 
#
# 1 192.3280 129.2941 51.6320 0.0000 0.0000 0.0000
# 2 129.2941 236.5107 59.6581 0.0000 0.0000 0.0000
# 3 51.6320 59.6581 118.0004 0.0000 0.0000 0.0000
# 4 0.0000 0.0000 0.0000 11.4842 0.0000 0.0000
# 5 0.0000 0.0000 0.0000 0.0000 -35.6123 0.0000
# 6 0.0000 0.0000 0.0000 0.0000 0.0000 53.5584
#
#
#
# Elastic Compliance Matrix: (Units=1/GPa)
#
#
# Indices 1 2 3 4 5 6 
#
# 1 0.008465 -0.004233 -0.001564 0.000000 0.000000 0.000000
# 2 -0.004233 0.006963 -0.001668 0.000000 0.000000 0.000000
# 3 -0.001564 -0.001668 0.010002 0.000000 0.000000 0.000000
# 4 0.000000 0.000000 0.000000 0.087076 0.000000 0.000000
# 5 0.000000 0.000000 0.000000 0.000000 -0.028080 0.000000
# 6 0.000000 0.000000 0.000000 0.000000 0.000000 0.018671
#
#
# Mechanical properties :
#
#
# Convention : Reuss Voigt Hill
#
# Bulk Modulus (GPa) = 95.23642 114.22307 104.72975
# Shear Modulus (GPa) = 41.14297 26.30306 33.72301
#
# Velocity S-wave (km/s) = 4.41196 3.52766 3.99435
# Velocity P-wave (km/s) = 8.42684 8.40435 8.41560
#
# Compressibility (1/GPa) = 0.01050018
#
# Stress axis : x y z
#
# Youngs Moduli (GPa) = 118.13298 143.61500 99.97871
#
# Poissons Ratio (x) = 0.60795 0.15634
# Poissons Ratio (y) = 0.50008 0.16677
# Poissons Ratio (z) = 0.18473 0.23956
#
# Static dielectric constant tensor:
#      x y z
#    x 1.699580 0.000000 0.000000 
#    y 0.000000 1.748480 0.000000 
#    z 0.000000 0.000000 1.804430 
# 
# From -- ./inp_files/19208.got.cif
#   From: 2010.05.17/outbox.cif.g08.bks.cpg/sg69_10_cif.got.tgz:19208.got - 2010.06.03 19:29:58.
