data_PCOD9513550
_publ_section_title
;
Structure prediction by ZEFSAII (Michael W. Deem and Ramdas Pophale) SiO2 
 PCOD9513550
Probable space group: F M M M
;
_chemical_formula_sum "Si O2"
_cell_formula_units_Z 104
_cell_length_a 11.107391
_cell_length_b 14.395738
_cell_length_c 25.294978
_cell_angle_alpha 90.000000
_cell_angle_beta 90.000000
_cell_angle_gamma 90.000000
_cell_volume 4044.643981
_symmetry_space_group_name_H-M "F M M M"
_symmetry_group_IT_number 69
_symmetry_cell_setting 'orthorhombic'
loop_
_space_group_symop_operation_xyz
x,y,z
-x,-y,z
x,-y,-z
-x,y,-z
-x,-y,-z
x,y,-z
-x,y,z
x,-y,z
x,1/2+y,1/2+z
-x,1/2-y,1/2+z
x,1/2-y,1/2-z
-x,1/2+y,1/2-z
-x,1/2-y,1/2-z
x,1/2+y,1/2-z
-x,1/2+y,1/2+z
x,1/2-y,1/2+z
1/2+x,y,1/2+z
1/2-x,-y,1/2+z
1/2+x,-y,1/2-z
1/2-x,y,1/2-z
1/2-x,-y,1/2-z
1/2+x,y,1/2-z
1/2-x,y,1/2+z
1/2+x,-y,1/2+z
1/2+x,1/2+y,z
1/2-x,1/2-y,z
1/2+x,1/2-y,-z
1/2-x,1/2+y,-z
1/2-x,1/2-y,-z
1/2+x,1/2+y,-z
1/2-x,1/2+y,z
1/2+x,1/2-y,z
loop_
_atom_site_type_symbol
_atom_site_label
_atom_site_fract_x
_atom_site_fract_y
_atom_site_fract_z
Si Si1 0.000000 0.603260 0.620633
Si Si2 0.729658 0.111791 0.118331
Si Si3 0.242196 0.614798 0.000000
Si Si4 0.128682 0.853979 0.272717
Si Si5 0.500000 0.858234 0.500000
O O1 0.867455 0.645572 0.630382
O O2 0.000000 0.593633 0.556890
O O3 0.000000 0.500000 0.643973
O O4 0.688443 0.132110 0.058152
O O5 0.644504 0.146595 0.164385
O O6 0.734190 0.000000 0.121901
O O7 0.268485 0.500000 0.000000
O O8 0.363723 0.677665 0.000000
O O9 0.126507 0.750000 0.250000
O O10 0.250000 0.898376 0.250000
O O11 0.000000 0.895972 0.258377
#
# Coordination Sequence:
#
# PCOD9513550 Si02
#       5
#    16  32  16  32   8
#     4   8  13  22  43  79 121 156 186 225 274 335
#     4   9  17  31  55  89 124 155 191 235 289 349
#     4   8  13  24  47  83 124 156 181 223 285 353
#     4  10  23  42  61  80 109 153 202 249 295 345
#     4   8   9  16  36  68 116 164 188 206 257 336
#
# _framework density 25.713018000000002
#
# number of rings (size 3 to 8) (size 9 to 14) (size 15 to 20)
#    0.000    3.077    0.000    3.231    2.154    1.231 
#    0.000    0.769    0.000    6.462    0.000    2.154 
#    0.000    0.000    0.000    0.000    0.000    0.923 
#
# Total GULP energy -144947.376564 kJ/mol
# GULP energy per Si atom -5574.899099 kJ/mol
# Density = 2.565449 g / cm^3
# Si number density = 25.713018 Si / 1000 Ang^3
#
#
#
# Elastic Constant Matrix: (Units=GPa)
#
#
# Indices 1 2 3 4 5 6 
#
# 1 159.9361 10.2120 53.2031 0.0000 0.0000 0.0000
# 2 10.2120 99.3943 45.9786 0.0000 0.0000 0.0000
# 3 53.2031 45.9786 191.2346 0.0000 0.0000 0.0000
# 4 0.0000 0.0000 0.0000 29.4040 0.0000 0.0000
# 5 0.0000 0.0000 0.0000 0.0000 22.4767 0.0000
# 6 0.0000 0.0000 0.0000 0.0000 0.0000 -11.4750
#
#
#
# Elastic Compliance Matrix: (Units=1/GPa)
#
#
# Indices 1 2 3 4 5 6 
#
# 1 0.006894 0.000201 -0.001966 0.000000 0.000000 0.000000
# 2 0.000201 0.011326 -0.002779 0.000000 0.000000 0.000000
# 3 -0.001966 -0.002779 0.006444 0.000000 0.000000 0.000000
# 4 0.000000 0.000000 0.000000 0.034009 0.000000 0.000000
# 5 0.000000 0.000000 0.000000 0.000000 0.044491 0.000000
# 6 0.000000 0.000000 0.000000 0.000000 0.000000 -0.087146
#
#
# Mechanical properties :
#
#
# Convention : Reuss Voigt Hill
#
# Bulk Modulus (GPa) = 64.20208 74.37248 69.28728
# Shear Modulus (GPa) = 165.02954 30.82589 97.92771
#
# Velocity S-wave (km/s) = 8.02002 3.46619 6.17799
# Velocity P-wave (km/s) = 10.52539 6.70866 8.82581
#
# Compressibility (1/GPa) = 0.01557582
#
# Stress axis : x y z
#
# Youngs Moduli (GPa) = 145.05920 88.29381 155.17362
#
# Poissons Ratio (x) = -0.01777 0.30512
# Poissons Ratio (y) = -0.02920 0.43124
# Poissons Ratio (z) = 0.28523 0.24538
#
# Static dielectric constant tensor:
#      x y z
#    x 2.107970 0.000000 0.000000 
#    y 0.000000 2.028260 0.000000 
#    z 0.000000 0.000000 1.993790 
# 
# From -- ./inp_files/28921.got.cif
#   From: 2010.05.17/outbox.cif.g08.bks.cpg/sg69_15_cif.got.tgz:28921.got - 2010.06.03 19:29:58.
