data_PCOD9513378
_publ_section_title
;
Structure prediction by ZEFSAII (Michael W. Deem and Ramdas Pophale) SiO2 
 PCOD9513378
Probable space group: F M M M
;
_chemical_formula_sum "Si O2"
_cell_formula_units_Z 160
_cell_length_a 18.875678
_cell_length_b 21.631678
_cell_length_c 23.028941
_cell_angle_alpha 90.000000
_cell_angle_beta 90.000000
_cell_angle_gamma 90.000000
_cell_volume 9403.006511
_symmetry_space_group_name_H-M "F M M M"
_symmetry_group_IT_number 69
_symmetry_cell_setting 'orthorhombic'
loop_
_space_group_symop_operation_xyz
x,y,z
-x,-y,z
x,-y,-z
-x,y,-z
-x,-y,-z
x,y,-z
-x,y,z
x,-y,z
x,1/2+y,1/2+z
-x,1/2-y,1/2+z
x,1/2-y,1/2-z
-x,1/2+y,1/2-z
-x,1/2-y,1/2-z
x,1/2+y,1/2-z
-x,1/2+y,1/2+z
x,1/2-y,1/2+z
1/2+x,y,1/2+z
1/2-x,-y,1/2+z
1/2+x,-y,1/2-z
1/2-x,y,1/2-z
1/2-x,-y,1/2-z
1/2+x,y,1/2-z
1/2-x,y,1/2+z
1/2+x,-y,1/2+z
1/2+x,1/2+y,z
1/2-x,1/2-y,z
1/2+x,1/2-y,-z
1/2-x,1/2+y,-z
1/2-x,1/2-y,-z
1/2+x,1/2+y,-z
1/2-x,1/2+y,z
1/2+x,1/2-y,z
loop_
_atom_site_type_symbol
_atom_site_label
_atom_site_fract_x
_atom_site_fract_y
_atom_site_fract_z
Si Si1 0.165267 0.500000 0.262942
Si Si2 0.859798 0.135228 0.274930
Si Si3 0.776489 0.320404 0.335438
Si Si4 0.500000 0.774751 0.566334
Si Si5 0.627938 0.372027 0.065538
Si Si6 0.918157 0.500000 0.379622
Si Si7 0.500000 0.293693 0.692008
O O1 0.250000 0.500000 0.250000
O O2 0.132562 0.563137 0.238622
O O3 0.141756 0.500000 0.329915
O O4 0.834304 0.170925 0.216175
O O5 0.792588 0.142037 0.316678
O O6 0.929347 0.165731 0.300719
O O7 0.750000 0.250000 0.340667
O O8 0.810843 0.349263 0.391978
O O9 0.500000 0.745578 0.500000
O O10 0.567874 0.819473 0.568408
O O11 0.500000 0.736701 0.627281
O O12 0.594548 0.437223 0.084819
O O13 0.653684 0.377582 0.000000
O O14 0.000000 0.500000 0.357787
O O15 0.500000 0.250000 0.750000
#
# Coordination Sequence:
#
# PCOD9513378 Si02
#       7
#    16  32  32  16  32  16  16
#     4  12  22  39  59  84 120 151 189 244 296 353
#     4  11  22  37  59  84 116 154 188 243 304 345
#     4  11  21  37  56  83 117 154 194 239 296 351
#     4  10  22  39  56  83 124 162 189 240 302 353
#     4  11  22  37  58  83 116 157 201 240 289 357
#     4  12  23  36  60  85 122 157 193 239 297 364
#     4  12  24  37  61  89 119 151 199 249 286 358
#
# _framework density 17.015834999999999
#
# number of rings (size 3 to 8) (size 9 to 14) (size 15 to 20)
#    0.000    0.800    5.000    5.100    1.400    0.800 
#    0.000    1.000    0.000    0.000    0.000    2.800 
#    0.000    0.000    0.000    0.000    0.000    0.000 
#
# Total GULP energy -223247.064137 kJ/mol
# GULP energy per Si atom -5581.176603 kJ/mol
# Density = 1.697711 g / cm^3
# Si number density = 17.015835 Si / 1000 Ang^3
#
#
#
# Elastic Constant Matrix: (Units=GPa)
#
#
# Indices 1 2 3 4 5 6 
#
# 1 78.4757 28.2043 74.1281 0.0000 0.0000 0.0000
# 2 28.2043 107.4098 51.7629 0.0000 0.0000 0.0000
# 3 74.1281 51.7629 141.7910 0.0000 0.0000 0.0000
# 4 0.0000 0.0000 0.0000 4.1151 0.0000 0.0000
# 5 0.0000 0.0000 0.0000 0.0000 22.8752 0.0000
# 6 0.0000 0.0000 0.0000 0.0000 0.0000 -29.6583
#
#
#
# Elastic Compliance Matrix: (Units=1/GPa)
#
#
# Indices 1 2 3 4 5 6 
#
# 1 0.025185 -0.000325 -0.013048 0.000000 0.000000 0.000000
# 2 -0.000325 0.011302 -0.003956 0.000000 0.000000 0.000000
# 3 -0.013048 -0.003956 0.015318 0.000000 0.000000 0.000000
# 4 0.000000 0.000000 0.000000 0.243007 0.000000 0.000000
# 5 0.000000 0.000000 0.000000 0.000000 0.043715 0.000000
# 6 0.000000 0.000000 0.000000 0.000000 0.000000 -0.033717
#
#
# Mechanical properties :
#
#
# Convention : Reuss Voigt Hill
#
# Bulk Modulus (GPa) = 58.31933 70.65190 64.48562
# Shear Modulus (GPa) = 14.48507 11.03847 12.76177
#
# Velocity S-wave (km/s) = 2.92082 2.54976 2.74157
# Velocity P-wave (km/s) = 6.76187 7.09082 6.92830
#
# Compressibility (1/GPa) = 0.01714697
#
# Stress axis : x y z
#
# Youngs Moduli (GPa) = 39.70684 88.48017 65.28196
#
# Poissons Ratio (x) = 0.02877 0.85178
# Poissons Ratio (y) = 0.01291 0.25825
# Poissons Ratio (z) = 0.51809 0.35002
#
# Static dielectric constant tensor:
#      x y z
#    x 1.560700 0.000000 0.000000 
#    y 0.000000 1.603170 0.000000 
#    z 0.000000 0.000000 1.596180 
# 
# From -- ./inp_files/24713.got.cif
#   From: 2010.05.17/outbox.cif.g08.bks.cpg/sg69_13_cif.got.tgz:24713.got - 2010.06.03 19:29:58.
