data_PCOD9513665
_publ_section_title
;
Structure prediction by ZEFSAII (Michael W. Deem and Ramdas Pophale) SiO2 
 PCOD9513665
Probable space group: F M M M
;
_chemical_formula_sum "Si O2"
_cell_formula_units_Z 144
_cell_length_a 18.205332
_cell_length_b 16.291486
_cell_length_c 28.840072
_cell_angle_alpha 90.000000
_cell_angle_beta 90.000000
_cell_angle_gamma 90.000000
_cell_volume 8553.732079
_symmetry_space_group_name_H-M "F M M M"
_symmetry_group_IT_number 69
_symmetry_cell_setting 'orthorhombic'
loop_
_space_group_symop_operation_xyz
x,y,z
-x,-y,z
x,-y,-z
-x,y,-z
-x,-y,-z
x,y,-z
-x,y,z
x,-y,z
x,1/2+y,1/2+z
-x,1/2-y,1/2+z
x,1/2-y,1/2-z
-x,1/2+y,1/2-z
-x,1/2-y,1/2-z
x,1/2+y,1/2-z
-x,1/2+y,1/2+z
x,1/2-y,1/2+z
1/2+x,y,1/2+z
1/2-x,-y,1/2+z
1/2+x,-y,1/2-z
1/2-x,y,1/2-z
1/2-x,-y,1/2-z
1/2+x,y,1/2-z
1/2-x,y,1/2+z
1/2+x,-y,1/2+z
1/2+x,1/2+y,z
1/2-x,1/2-y,z
1/2+x,1/2-y,-z
1/2-x,1/2+y,-z
1/2-x,1/2-y,-z
1/2+x,1/2+y,-z
1/2-x,1/2+y,z
1/2+x,1/2-y,z
loop_
_atom_site_type_symbol
_atom_site_label
_atom_site_fract_x
_atom_site_fract_y
_atom_site_fract_z
Si Si1 0.084029 0.666818 0.281252
Si Si2 0.662915 0.747445 0.360250
Si Si3 0.583597 0.000000 0.943776
Si Si4 0.088729 0.183006 0.554248
Si Si5 0.087888 0.592099 0.812177
O O1 0.086264 0.750000 0.250000
O O2 0.134626 0.681895 0.325416
O O3 0.103001 0.598821 0.243047
O O4 0.000000 0.655688 0.296705
O O5 0.750000 0.750000 0.363381
O O6 0.625773 0.746239 0.410741
O O7 0.633502 0.662796 0.337099
O O8 0.614801 0.910140 0.932894
O O9 0.500000 0.000000 0.925461
O O10 0.578878 0.000000 0.000000
O O11 0.104824 0.197308 0.500000
O O12 0.000000 0.183986 0.559424
O O13 0.102732 0.500000 0.828886
O O14 0.000000 0.608707 0.817958
#
# Coordination Sequence:
#
# PCOD9513665 Si02
#       5
#    32  32  16  32  32
#     4   8  15  30  48  66  92 125 162 200 237 280
#     4  11  21  30  43  69 105 139 161 186 240 306
#     4   7  12  24  44  70  92 109 139 193 249 278
#     4   9  17  30  49  71  94 123 162 206 244 281
#     4   9  18  33  55  77  93 120 167 215 248 278
#
# _framework density 16.834757
#
# number of rings (size 3 to 8) (size 9 to 14) (size 15 to 20)
#    0.000    3.000    0.000    4.667    1.556    4.444 
#    0.000    2.222    0.000    0.000    0.000    0.000 
#    0.000    0.000    0.000   11.111    0.000    0.000 
#
# Total GULP energy -200436.409925 kJ/mol
# GULP energy per Si atom -5567.678053 kJ/mol
# Density = 1.679644 g / cm^3
# Si number density = 16.834757 Si / 1000 Ang^3
#
#
#
# Elastic Constant Matrix: (Units=GPa)
#
#
# Indices 1 2 3 4 5 6 
#
# 1 63.8929 13.2055 49.0929 0.0000 0.0000 0.0000
# 2 13.2055 38.7028 13.4580 0.0000 0.0000 0.0000
# 3 49.0929 13.4580 103.3793 0.0000 0.0000 0.0000
# 4 0.0000 0.0000 0.0000 24.6100 0.0000 0.0000
# 5 0.0000 0.0000 0.0000 0.0000 -107.2902 0.0000
# 6 0.0000 0.0000 0.0000 0.0000 0.0000 8.1494
#
#
#
# Elastic Compliance Matrix: (Units=1/GPa)
#
#
# Indices 1 2 3 4 5 6 
#
# 1 0.025430 -0.004690 -0.011466 0.000000 0.000000 0.000000
# 2 -0.004690 0.027928 -0.001409 0.000000 0.000000 0.000000
# 3 -0.011466 -0.001409 0.015301 0.000000 0.000000 0.000000
# 4 0.000000 0.000000 0.000000 0.040634 0.000000 0.000000
# 5 0.000000 0.000000 0.000000 0.000000 -0.009321 0.000000
# 6 0.000000 0.000000 0.000000 0.000000 0.000000 0.122709
#
#
# Mechanical properties :
#
#
# Convention : Reuss Voigt Hill
#
# Bulk Modulus (GPa) = 29.82309 39.72089 34.77199
# Shear Modulus (GPa) = 18.58821 -6.22492 6.18164
#
# Velocity S-wave (km/s) = 3.32649 -1.92502 1.91831
# Velocity P-wave (km/s) = 5.70155 4.32491 5.06027
#
# Compressibility (1/GPa) = 0.03353106
#
# Stress axis : x y z
#
# Youngs Moduli (GPa) = 39.32288 35.80650 65.35332
#
# Poissons Ratio (x) = 0.16793 0.74934
# Poissons Ratio (y) = 0.18442 0.09205
# Poissons Ratio (z) = 0.45087 0.05043
#
# Static dielectric constant tensor:
#      x y z
#    x 1.538550 0.000000 0.000000 
#    y 0.000000 1.598150 0.000000 
#    z 0.000000 0.000000 1.629230 
# 
# From -- ./inp_files/26579.got.cif
#   From: 2010.05.17/outbox.cif.g08.bks.cpg/sg69_14_cif.got.tgz:26579.got - 2010.06.03 19:29:58.
