data_PCOD9513560
_publ_section_title
;
Structure prediction by ZEFSAII (Michael W. Deem and Ramdas Pophale) SiO2 
 PCOD9513560
Probable space group: F M M M
;
_chemical_formula_sum "Si O2"
_cell_formula_units_Z 104
_cell_length_a 14.130502
_cell_length_b 12.227553
_cell_length_c 23.139352
_cell_angle_alpha 90.000000
_cell_angle_beta 90.000000
_cell_angle_gamma 90.000000
_cell_volume 3998.051071
_symmetry_space_group_name_H-M "F M M M"
_symmetry_group_IT_number 69
_symmetry_cell_setting 'orthorhombic'
loop_
_space_group_symop_operation_xyz
x,y,z
-x,-y,z
x,-y,-z
-x,y,-z
-x,-y,-z
x,y,-z
-x,y,z
x,-y,z
x,1/2+y,1/2+z
-x,1/2-y,1/2+z
x,1/2-y,1/2-z
-x,1/2+y,1/2-z
-x,1/2-y,1/2-z
x,1/2+y,1/2-z
-x,1/2+y,1/2+z
x,1/2-y,1/2+z
1/2+x,y,1/2+z
1/2-x,-y,1/2+z
1/2+x,-y,1/2-z
1/2-x,y,1/2-z
1/2-x,-y,1/2-z
1/2+x,y,1/2-z
1/2-x,y,1/2+z
1/2+x,-y,1/2+z
1/2+x,1/2+y,z
1/2-x,1/2-y,z
1/2+x,1/2-y,-z
1/2-x,1/2+y,-z
1/2-x,1/2-y,-z
1/2+x,1/2+y,-z
1/2-x,1/2+y,z
1/2+x,1/2-y,z
loop_
_atom_site_type_symbol
_atom_site_label
_atom_site_fract_x
_atom_site_fract_y
_atom_site_fract_z
Si Si1 0.612283 0.346436 0.897664
Si Si2 0.177572 0.000000 0.000000
Si Si3 0.860438 0.377098 0.264614
Si Si4 0.385494 0.884598 0.932406
O O1 0.500000 0.355101 0.912740
O O2 0.624741 0.385293 0.833090
O O3 0.643116 0.220444 0.898322
O O4 0.665592 0.406855 0.948749
O O5 0.894138 0.500000 0.241428
O O6 0.895458 0.250000 0.250000
O O7 0.750000 0.374401 0.250000
O O8 0.500000 0.885156 0.932710
O O9 0.353001 0.000000 0.908003
O O10 0.357517 0.881369 0.000000
#
# Coordination Sequence:
#
# PCOD9513560 Si02
#       4
#    32   8  32  32
#     4  11  20  33  59  95 130 160 197 252 314 377
#     4  12  21  32  56 100 138 154 185 248 327 384
#     4  10  23  43  64  86 115 171 219 258 300 356
#     4   8  14  25  43  75 121 164 193 227 294 377
#
# _framework density 26.012672999999999
#
# number of rings (size 3 to 8) (size 9 to 14) (size 15 to 20)
#    0.000    2.154    3.077    2.308    0.000    1.846 
#    0.000    0.000    0.000    3.692    0.000    0.000 
#    0.000    0.000    0.000    0.154    0.000    0.000 
#
# Total GULP energy -144772.261216 kJ/mol
# GULP energy per Si atom -5568.163893 kJ/mol
# Density = 2.595347 g / cm^3
# Si number density = 26.012673 Si / 1000 Ang^3
#
#
#
# Elastic Constant Matrix: (Units=GPa)
#
#
# Indices 1 2 3 4 5 6 
#
# 1 129.6988 20.4411 5.5471 0.0000 0.0000 0.0000
# 2 20.4411 295.1126 57.1280 0.0000 0.0000 0.0000
# 3 5.5471 57.1280 99.6643 0.0000 0.0000 0.0000
# 4 0.0000 0.0000 0.0000 -9.5572 0.0000 0.0000
# 5 0.0000 0.0000 0.0000 0.0000 24.9071 0.0000
# 6 0.0000 0.0000 0.0000 0.0000 0.0000 -3.6068
#
#
#
# Elastic Compliance Matrix: (Units=1/GPa)
#
#
# Indices 1 2 3 4 5 6 
#
# 1 0.007797 -0.000513 -0.000140 0.000000 0.000000 0.000000
# 2 -0.000513 0.003845 -0.002176 0.000000 0.000000 0.000000
# 3 -0.000140 -0.002176 0.011289 0.000000 0.000000 0.000000
# 4 0.000000 0.000000 0.000000 -0.104633 0.000000 0.000000
# 5 0.000000 0.000000 0.000000 0.000000 0.040149 0.000000
# 6 0.000000 0.000000 0.000000 0.000000 0.000000 -0.277251
#
#
# Mechanical properties :
#
#
# Convention : Reuss Voigt Hill
#
# Bulk Modulus (GPa) = 57.89102 76.74535 67.31819
# Shear Modulus (GPa) = -16.26599 31.77259 7.75330
#
# Velocity S-wave (km/s) = -2.50333 3.49868 1.72831
# Velocity P-wave (km/s) = 3.73466 6.77408 5.46973
#
# Compressibility (1/GPa) = 0.01727384
#
# Stress axis : x y z
#
# Youngs Moduli (GPa) = 128.25442 260.06380 88.58573
#
# Poissons Ratio (x) = 0.13341 0.01240
# Poissons Ratio (y) = 0.06579 0.19272
# Poissons Ratio (z) = 0.01795 0.56578
#
# Static dielectric constant tensor:
#      x y z
#    x 2.142380 0.000000 0.000000 
#    y 0.000000 2.181570 0.000000 
#    z 0.000000 0.000000 1.885830 
# 
# From -- ./inp_files/41495.got.cif
#   From: 2010.05.17/outbox.cif.g08.bks.cpg/sg69_21_cif.got.tgz:41495.got - 2010.06.03 19:29:58.
