data_PCOD9513536
_publ_section_title
;
Structure prediction by ZEFSAII (Michael W. Deem and Ramdas Pophale) SiO2 
 PCOD9513536
Probable space group: F M M M
;
_chemical_formula_sum "Si O2"
_cell_formula_units_Z 160
_cell_length_a 9.271275
_cell_length_b 27.791488
_cell_length_c 34.497486
_cell_angle_alpha 90.000000
_cell_angle_beta 90.000000
_cell_angle_gamma 90.000000
_cell_volume 8888.709449
_symmetry_space_group_name_H-M "F M M M"
_symmetry_group_IT_number 69
_symmetry_cell_setting 'orthorhombic'
loop_
_space_group_symop_operation_xyz
x,y,z
-x,-y,z
x,-y,-z
-x,y,-z
-x,-y,-z
x,y,-z
-x,y,z
x,-y,z
x,1/2+y,1/2+z
-x,1/2-y,1/2+z
x,1/2-y,1/2-z
-x,1/2+y,1/2-z
-x,1/2-y,1/2-z
x,1/2+y,1/2-z
-x,1/2+y,1/2+z
x,1/2-y,1/2+z
1/2+x,y,1/2+z
1/2-x,-y,1/2+z
1/2+x,-y,1/2-z
1/2-x,y,1/2-z
1/2-x,-y,1/2-z
1/2+x,y,1/2-z
1/2-x,y,1/2+z
1/2+x,-y,1/2+z
1/2+x,1/2+y,z
1/2-x,1/2-y,z
1/2+x,1/2-y,-z
1/2-x,1/2+y,-z
1/2-x,1/2-y,-z
1/2+x,1/2+y,-z
1/2-x,1/2+y,z
1/2+x,1/2-y,z
loop_
_atom_site_type_symbol
_atom_site_label
_atom_site_fract_x
_atom_site_fract_y
_atom_site_fract_z
Si Si1 0.835257 0.199473 0.410718
Si Si2 0.778859 0.193563 0.500000
Si Si3 0.834884 0.943319 0.427886
Si Si4 0.172714 0.944780 0.790876
Si Si5 0.173344 0.386844 0.366192
Si Si6 0.839652 0.903369 0.000000
O O1 0.750000 0.250000 0.408315
O O2 0.843240 0.185779 0.456754
O O3 0.750913 0.159721 0.385109
O O4 0.000000 0.204559 0.397106
O O5 0.750000 0.250000 0.500000
O O6 0.652968 0.154396 0.500000
O O7 0.738977 0.930352 0.391133
O O8 0.752204 0.919884 0.463522
O O9 0.000000 0.925341 0.423950
O O10 0.841065 0.000000 0.434077
O O11 0.250000 0.936520 0.750000
O O12 0.206773 0.903420 0.822305
O O13 0.000000 0.944155 0.785683
O O14 0.210612 0.000000 0.803639
O O15 0.000000 0.382714 0.370613
O O16 0.000000 0.923983 0.000000
#
# Coordination Sequence:
#
# PCOD9513536 Si02
#       6
#    32  16  32  32  32  16
#     4  11  23  39  60  85 116 153 195 244 296 346
#     4  10  23  38  58  83 114 146 193 244 295 341
#     4  11  24  39  55  78 111 151 194 238 286 341
#     4   9  19  36  59  88 120 153 189 232 281 340
#     4  11  22  37  59  86 117 151 191 236 287 345
#     4  12  24  38  58  80 108 148 195 240 290 345
#
# _framework density 18.000364000000001
#
# number of rings (size 3 to 8) (size 9 to 14) (size 15 to 20)
#    0.000    1.400    2.000    3.300    0.000    9.200 
#    0.000    2.000    0.000    0.600    0.000    4.200 
#    0.000    0.000    0.000    0.000    0.000    0.000 
#
# Total GULP energy -222902.180777 kJ/mol
# GULP energy per Si atom -5572.554519 kJ/mol
# Density = 1.795939 g / cm^3
# Si number density = 18.000364 Si / 1000 Ang^3
#
#
#
# Elastic Constant Matrix: (Units=GPa)
#
#
# Indices 1 2 3 4 5 6 
#
# 1 117.6606 54.5309 52.8527 0.0000 0.0000 0.0000
# 2 54.5309 107.9474 52.9235 0.0000 0.0000 0.0000
# 3 52.8527 52.9235 121.0900 0.0000 0.0000 0.0000
# 4 0.0000 0.0000 0.0000 34.0194 0.0000 0.0000
# 5 0.0000 0.0000 0.0000 0.0000 2.3962 0.0000
# 6 0.0000 0.0000 0.0000 0.0000 0.0000 25.9578
#
#
#
# Elastic Compliance Matrix: (Units=1/GPa)
#
#
# Indices 1 2 3 4 5 6 
#
# 1 0.012056 -0.004468 -0.003310 0.000000 0.000000 0.000000
# 2 -0.004468 0.013446 -0.003927 0.000000 0.000000 0.000000
# 3 -0.003310 -0.003927 0.011419 0.000000 0.000000 0.000000
# 4 0.000000 0.000000 0.000000 0.029395 0.000000 0.000000
# 5 0.000000 0.000000 0.000000 0.000000 0.417320 0.000000
# 6 0.000000 0.000000 0.000000 0.000000 0.000000 0.038524
#
#
# Mechanical properties :
#
#
# Convention : Reuss Voigt Hill
#
# Bulk Modulus (GPa) = 74.00124 74.14580 74.07352
# Shear Modulus (GPa) = 9.08971 24.90075 16.99523
#
# Velocity S-wave (km/s) = 2.24960 3.72337 3.07605
# Velocity P-wave (km/s) = 6.92444 7.73081 7.33871
#
# Compressibility (1/GPa) = 0.01351329
#
# Stress axis : x y z
#
# Youngs Moduli (GPa) = 82.94400 74.37272 87.57338
#
# Poissons Ratio (x) = 0.33228 0.28983
# Poissons Ratio (y) = 0.37058 0.34386
# Poissons Ratio (z) = 0.27451 0.29203
#
# Static dielectric constant tensor:
#      x y z
#    x 1.671230 0.000000 0.000000 
#    y 0.000000 1.651700 0.000000 
#    z 0.000000 0.000000 1.385030 
# 
# From -- ./inp_files/44603.got.cif
#   From: 2010.05.17/outbox.cif.g08.bks.cpg/sg69_23_cif.got.tgz:44603.got - 2010.06.03 19:29:58.
