data_PCOD9513760
_publ_section_title
;
Structure prediction by ZEFSAII (Michael W. Deem and Ramdas Pophale) SiO2 
 PCOD9513760
Probable space group: F M M M
;
_chemical_formula_sum "Si O2"
_cell_formula_units_Z 160
_cell_length_a 14.933991
_cell_length_b 22.069918
_cell_length_c 25.515114
_cell_angle_alpha 90.000000
_cell_angle_beta 90.000000
_cell_angle_gamma 90.000000
_cell_volume 8409.576351
_symmetry_space_group_name_H-M "F M M M"
_symmetry_group_IT_number 69
_symmetry_cell_setting 'orthorhombic'
loop_
_space_group_symop_operation_xyz
x,y,z
-x,-y,z
x,-y,-z
-x,y,-z
-x,-y,-z
x,y,-z
-x,y,z
x,-y,z
x,1/2+y,1/2+z
-x,1/2-y,1/2+z
x,1/2-y,1/2-z
-x,1/2+y,1/2-z
-x,1/2-y,1/2-z
x,1/2+y,1/2-z
-x,1/2+y,1/2+z
x,1/2-y,1/2+z
1/2+x,y,1/2+z
1/2-x,-y,1/2+z
1/2+x,-y,1/2-z
1/2-x,y,1/2-z
1/2-x,-y,1/2-z
1/2+x,y,1/2-z
1/2-x,y,1/2+z
1/2+x,-y,1/2+z
1/2+x,1/2+y,z
1/2-x,1/2-y,z
1/2+x,1/2-y,-z
1/2-x,1/2+y,-z
1/2-x,1/2-y,-z
1/2+x,1/2+y,-z
1/2-x,1/2+y,z
1/2+x,1/2-y,z
loop_
_atom_site_type_symbol
_atom_site_label
_atom_site_fract_x
_atom_site_fract_y
_atom_site_fract_z
Si Si1 0.607666 0.927993 0.500000
Si Si2 0.648176 0.621107 0.621447
Si Si3 0.358755 0.242027 0.939682
Si Si4 0.500000 0.926382 0.197974
Si Si5 0.648333 0.365550 0.890820
Si Si6 0.391701 0.000000 0.939994
Si Si7 0.000000 0.571683 0.322097
O O1 0.500000 0.916733 0.500000
O O2 0.647982 0.898879 0.447459
O O3 0.621194 0.000000 0.500000
O O4 0.616439 0.678672 0.587200
O O5 0.585661 0.604954 0.670598
O O6 0.751834 0.635156 0.632381
O O7 0.643080 0.560391 0.587099
O O8 0.250000 0.250000 0.941474
O O9 0.387642 0.298709 0.904572
O O10 0.389662 0.245432 0.000000
O O11 0.500000 0.917352 0.260081
O O12 0.500000 0.000000 0.188098
O O13 0.584916 0.400023 0.851026
O O14 0.500000 0.000000 0.936931
O O15 0.364373 0.000000 0.000000
O O16 0.000000 0.500000 0.331008
#
# Coordination Sequence:
#
# PCOD9513760 Si02
#       7
#    16  32  32  16  32  16  16
#     4  11  22  36  57  87 133 162 195 249 311 365
#     4  11  22  39  64  89 125 160 209 249 310 362
#     4   9  19  37  59  91 131 167 195 238 300 377
#     4  11  24  47  63  85 122 162 210 274 310 352
#     4  11  23  39  62  94 125 162 204 248 304 381
#     4  11  22  36  56  90 128 160 202 255 304 372
#     4  11  26  44  64  88 121 159 215 266 312 359
#
# _framework density 19.025929000000001
#
# number of rings (size 3 to 8) (size 9 to 14) (size 15 to 20)
#    0.000    1.400    4.000    1.200    5.600    1.600 
#    0.000    5.000    0.000    3.600    0.000    0.000 
#    0.000    0.000    0.000    0.000    0.000    0.000 
#
# Total GULP energy -223513.848242 kJ/mol
# GULP energy per Si atom -5587.846206 kJ/mol
# Density = 1.898262 g / cm^3
# Si number density = 19.025929 Si / 1000 Ang^3
#
#
#
# Elastic Constant Matrix: (Units=GPa)
#
#
# Indices 1 2 3 4 5 6 
#
# 1 98.6736 32.5650 50.2035 0.0000 0.0000 0.0000
# 2 32.5650 167.4105 76.6088 0.0000 0.0000 0.0000
# 3 50.2035 76.6088 145.0316 0.0000 0.0000 0.0000
# 4 0.0000 0.0000 0.0000 31.3953 0.0000 0.0000
# 5 0.0000 0.0000 0.0000 0.0000 -380.8329 0.0000
# 6 0.0000 0.0000 0.0000 0.0000 0.0000 95.6729
#
#
#
# Elastic Compliance Matrix: (Units=1/GPa)
#
#
# Indices 1 2 3 4 5 6 
#
# 1 0.012345 -0.000588 -0.003963 0.000000 0.000000 0.000000
# 2 -0.000588 0.007905 -0.003972 0.000000 0.000000 0.000000
# 3 -0.003963 -0.003972 0.010365 0.000000 0.000000 0.000000
# 4 0.000000 0.000000 0.000000 0.031852 0.000000 0.000000
# 5 0.000000 0.000000 0.000000 0.000000 -0.002626 0.000000
# 6 0.000000 0.000000 0.000000 0.000000 0.000000 0.010452
#
#
# Mechanical properties :
#
#
# Convention : Reuss Voigt Hill
#
# Bulk Modulus (GPa) = 73.69567 81.09668 77.39618
# Shear Modulus (GPa) = 54.42938 -33.97037 10.22950
#
# Velocity S-wave (km/s) = 5.35445 -4.23008 2.32127
# Velocity P-wave (km/s) = 8.77754 4.34267 6.92474
#
# Compressibility (1/GPa) = 0.01356932
#
# Stress axis : x y z
#
# Youngs Moduli (GPa) = 81.00740 126.49439 96.47886
#
# Poissons Ratio (x) = 0.07438 0.38230
# Poissons Ratio (y) = 0.04763 0.38324
# Poissons Ratio (z) = 0.32100 0.50248
#
# Static dielectric constant tensor:
#      x y z
#    x 1.710770 0.000000 0.000000 
#    y 0.000000 1.662950 0.000000 
#    z 0.000000 0.000000 1.615690 
# 
# From -- ./inp_files/41966.got.cif
#   From: 2010.05.17/outbox.cif.g08.bks.cpg/sg69_21_cif.got.tgz:41966.got - 2010.06.03 19:29:58.
