data_PCOD9513564
_publ_section_title
;
Structure prediction by ZEFSAII (Michael W. Deem and Ramdas Pophale) SiO2 
 PCOD9513564
Probable space group: F M M M
;
_chemical_formula_sum "Si O2"
_cell_formula_units_Z 168
_cell_length_a 26.514006
_cell_length_b 15.820984
_cell_length_c 21.487196
_cell_angle_alpha 90.000000
_cell_angle_beta 90.000000
_cell_angle_gamma 90.000000
_cell_volume 9013.398799
_symmetry_space_group_name_H-M "F M M M"
_symmetry_group_IT_number 69
_symmetry_cell_setting 'orthorhombic'
loop_
_space_group_symop_operation_xyz
x,y,z
-x,-y,z
x,-y,-z
-x,y,-z
-x,-y,-z
x,y,-z
-x,y,z
x,-y,z
x,1/2+y,1/2+z
-x,1/2-y,1/2+z
x,1/2-y,1/2-z
-x,1/2+y,1/2-z
-x,1/2-y,1/2-z
x,1/2+y,1/2-z
-x,1/2+y,1/2+z
x,1/2-y,1/2+z
1/2+x,y,1/2+z
1/2-x,-y,1/2+z
1/2+x,-y,1/2-z
1/2-x,y,1/2-z
1/2-x,-y,1/2-z
1/2+x,y,1/2-z
1/2-x,y,1/2+z
1/2+x,-y,1/2+z
1/2+x,1/2+y,z
1/2-x,1/2-y,z
1/2+x,1/2-y,-z
1/2-x,1/2+y,-z
1/2-x,1/2-y,-z
1/2+x,1/2+y,-z
1/2-x,1/2+y,z
1/2+x,1/2-y,z
loop_
_atom_site_type_symbol
_atom_site_label
_atom_site_fract_x
_atom_site_fract_y
_atom_site_fract_z
Si Si1 0.941838 0.598438 0.161244
Si Si2 0.824754 0.355985 0.608520
Si Si3 0.136553 0.329010 0.072357
Si Si4 0.720100 0.402648 0.658109
Si Si5 0.640522 0.148867 0.742022
Si Si6 0.326062 0.000000 0.500000
O O1 0.939324 0.500000 0.142497
O O2 0.915551 0.654759 0.108359
O O3 0.906859 0.610201 0.221749
O O4 0.000000 0.620691 0.172212
O O5 0.843788 0.266016 0.583421
O O6 0.768237 0.349679 0.636577
O O7 0.857228 0.376476 0.670209
O O8 0.825705 0.425845 0.554950
O O9 0.177351 0.389246 0.105671
O O10 0.132400 0.346943 0.000000
O O11 0.735912 0.500000 0.661286
O O12 0.691462 0.378406 0.721590
O O13 0.637558 0.250000 0.750000
#
# Coordination Sequence:
#
# PCOD9513564 Si02
#       6
#    32  32  32  32  32   8
#     4  10  23  44  68  98 125 152 204 271 343 402
#     4  12  24  41  58  90 132 177 222 260 309 377
#     4  11  23  39  61  91 127 171 212 255 315 387
#     4  11  24  37  60  92 128 171 219 268 316 372
#     4  11  22  40  65  95 126 165 218 272 331 376
#     4  12  28  40  60  92 135 186 231 250 314 390
#
# _framework density 18.638918
#
# number of rings (size 3 to 8) (size 9 to 14) (size 15 to 20)
#    0.000    0.952    5.714    3.429    4.000    4.571 
#    0.000    0.952    0.000    0.000    0.000    2.667 
#    0.000    0.000    0.000    0.000    0.000    0.000 
#
# Total GULP energy -234141.534183 kJ/mol
# GULP energy per Si atom -5574.798433 kJ/mol
# Density = 1.859650 g / cm^3
# Si number density = 18.638918 Si / 1000 Ang^3
#
#
#
# Elastic Constant Matrix: (Units=GPa)
#
#
# Indices 1 2 3 4 5 6 
#
# 1 88.6296 17.9392 15.7427 0.0000 0.0000 0.0000
# 2 17.9392 86.4571 4.9850 0.0000 0.0000 0.0000
# 3 15.7427 4.9850 135.7702 0.0000 0.0000 0.0000
# 4 0.0000 0.0000 0.0000 33.6338 0.0000 0.0000
# 5 0.0000 0.0000 0.0000 0.0000 5.9864 0.0000
# 6 0.0000 0.0000 0.0000 0.0000 0.0000 26.6138
#
#
#
# Elastic Compliance Matrix: (Units=1/GPa)
#
#
# Indices 1 2 3 4 5 6 
#
# 1 0.012003 -0.002415 -0.001303 0.000000 0.000000 0.000000
# 2 -0.002415 0.012077 -0.000163 0.000000 0.000000 0.000000
# 3 -0.001303 -0.000163 0.007522 0.000000 0.000000 0.000000
# 4 0.000000 0.000000 0.000000 0.029732 0.000000 0.000000
# 5 0.000000 0.000000 0.000000 0.000000 0.167045 0.000000
# 6 0.000000 0.000000 0.000000 0.000000 0.000000 0.037575
#
#
# Mechanical properties :
#
#
# Convention : Reuss Voigt Hill
#
# Bulk Modulus (GPa) = 41.94813 43.13231 42.54022
# Shear Modulus (GPa) = 17.75159 31.39280 24.57219
#
# Velocity S-wave (km/s) = 3.08944 4.10843 3.63482
# Velocity P-wave (km/s) = 5.93975 6.75994 6.36308
#
# Compressibility (1/GPa) = 0.02383896
#
# Stress axis : x y z
#
# Youngs Moduli (GPa) = 83.31055 82.80178 132.93490
#
# Poissons Ratio (x) = 0.20000 0.17323
# Poissons Ratio (y) = 0.20123 0.02172
# Poissons Ratio (z) = 0.10856 0.01353
#
# Static dielectric constant tensor:
#      x y z
#    x 1.641660 0.000000 0.000000 
#    y 0.000000 1.652210 0.000000 
#    z 0.000000 0.000000 1.654730 
# 
# From -- ./inp_files/29971.got.cif
#   From: 2010.05.17/outbox.cif.g08.bks.cpg/sg69_15_cif.got.tgz:29971.got - 2010.06.03 19:29:58.
