data_PCOD9513598
_publ_section_title
;
Structure prediction by ZEFSAII (Michael W. Deem and Ramdas Pophale) SiO2 
 PCOD9513598
Probable space group: F M M M
;
_chemical_formula_sum "Si O2"
_cell_formula_units_Z 116
_cell_length_a 23.617887
_cell_length_b 14.994244
_cell_length_c 13.893532
_cell_angle_alpha 90.000000
_cell_angle_beta 90.000000
_cell_angle_gamma 90.000000
_cell_volume 4920.149282
_symmetry_space_group_name_H-M "F M M M"
_symmetry_group_IT_number 69
_symmetry_cell_setting 'orthorhombic'
loop_
_space_group_symop_operation_xyz
x,y,z
-x,-y,z
x,-y,-z
-x,y,-z
-x,-y,-z
x,y,-z
-x,y,z
x,-y,z
x,1/2+y,1/2+z
-x,1/2-y,1/2+z
x,1/2-y,1/2-z
-x,1/2+y,1/2-z
-x,1/2-y,1/2-z
x,1/2+y,1/2-z
-x,1/2+y,1/2+z
x,1/2-y,1/2+z
1/2+x,y,1/2+z
1/2-x,-y,1/2+z
1/2+x,-y,1/2-z
1/2-x,y,1/2-z
1/2-x,-y,1/2-z
1/2+x,y,1/2-z
1/2-x,y,1/2+z
1/2+x,-y,1/2+z
1/2+x,1/2+y,z
1/2-x,1/2-y,z
1/2+x,1/2-y,-z
1/2-x,1/2+y,-z
1/2-x,1/2-y,-z
1/2+x,1/2+y,-z
1/2-x,1/2+y,z
1/2+x,1/2-y,z
loop_
_atom_site_type_symbol
_atom_site_label
_atom_site_fract_x
_atom_site_fract_y
_atom_site_fract_z
Si Si1 0.383518 0.163972 0.818144
Si Si2 0.935814 0.747024 0.500000
Si Si3 0.500000 0.500000 0.000000
Si Si4 0.240256 0.144329 0.644591
Si Si5 0.336915 0.900627 0.500000
Si Si6 0.437729 0.000000 0.705785
O O1 0.370492 0.250000 0.750000
O O2 0.426174 0.196099 0.902383
O O3 0.326435 0.132102 0.873338
O O4 0.406345 0.087536 0.746744
O O5 0.886396 0.672513 0.500000
O O6 0.000000 0.707067 0.500000
O O7 0.452748 0.500000 0.091693
O O8 0.250000 0.109439 0.750000
O O9 0.250000 0.250000 0.639521
O O10 0.292341 0.108739 0.585772
O O11 0.355943 0.000000 0.500000
O O12 0.500000 0.000000 0.753350
#
# Coordination Sequence:
#
# PCOD9513598 Si02
#       6
#    32  16   4  32  16  16
#     4  12  25  49  80 115 157 212 276 341 417 487
#     4  12  27  48  76 110 158 221 278 346 412 485
#     4   8  24  60  80 114 172 206 256 336 398 490
#     4  11  21  46  77 106 145 201 265 343 411 484
#     4  12  26  45  74 115 161 212 276 340 426 501
#     4  10  26  51  83 117 161 216 275 329 394 503
#
# _framework density 23.576521
#
# number of rings (size 3 to 8) (size 9 to 14) (size 15 to 20)
#    0.414    0.276    5.517    2.069    1.931    4.690 
#    9.931    2.759    0.000    0.000    0.000    0.000 
#    0.000    0.000    0.000    0.000    0.000    0.000 
#
# Total GULP energy -161764.048733 kJ/mol
# GULP energy per Si atom -5578.070646 kJ/mol
# Density = 2.352286 g / cm^3
# Si number density = 23.576521 Si / 1000 Ang^3
#
#
#
# Elastic Constant Matrix: (Units=GPa)
#
#
# Indices 1 2 3 4 5 6 
#
# 1 220.7873 67.0990 71.8307 0.0000 0.0000 0.0000
# 2 67.0990 143.8100 58.0957 0.0000 0.0000 0.0000
# 3 71.8307 58.0957 157.8702 0.0000 0.0000 0.0000
# 4 0.0000 0.0000 0.0000 18.5879 0.0000 0.0000
# 5 0.0000 0.0000 0.0000 0.0000 41.2506 0.0000
# 6 0.0000 0.0000 0.0000 0.0000 0.0000 8.3875
#
#
#
# Elastic Compliance Matrix: (Units=1/GPa)
#
#
# Indices 1 2 3 4 5 6 
#
# 1 0.005727 -0.001902 -0.001906 0.000000 0.000000 0.000000
# 2 -0.001902 0.008800 -0.002373 0.000000 0.000000 0.000000
# 3 -0.001906 -0.002373 0.008075 0.000000 0.000000 0.000000
# 4 0.000000 0.000000 0.000000 0.053798 0.000000 0.000000
# 5 0.000000 0.000000 0.000000 0.000000 0.024242 0.000000
# 6 0.000000 0.000000 0.000000 0.000000 0.000000 0.119225
#
#
# Mechanical properties :
#
#
# Convention : Reuss Voigt Hill
#
# Bulk Modulus (GPa) = 97.65748 101.83536 99.74642
# Shear Modulus (GPa) = 21.21857 35.34134 28.27995
#
# Velocity S-wave (km/s) = 3.00323 3.87590 3.46713
# Velocity P-wave (km/s) = 7.31692 7.95723 7.64378
#
# Compressibility (1/GPa) = 0.01023987
#
# Stress axis : x y z
#
# Youngs Moduli (GPa) = 174.59738 113.63964 123.84436
#
# Poissons Ratio (x) = 0.21619 0.23604
# Poissons Ratio (y) = 0.33215 0.29385
# Poissons Ratio (z) = 0.33277 0.26963
#
# Static dielectric constant tensor:
#      x y z
#    x 1.966250 0.000000 0.000000 
#    y 0.000000 1.919480 0.000000 
#    z 0.000000 0.000000 1.909780 
# 
# From -- ./inp_files/18599.got.cif
#   From: 2010.05.17/outbox.cif.g08.bks.cpg/sg69_10_cif.got.tgz:18599.got - 2010.06.03 19:29:58.
