data_PCOD9513714
_publ_section_title
;
Structure prediction by ZEFSAII (Michael W. Deem and Ramdas Pophale) SiO2 
 PCOD9513714
Probable space group: F M M M
;
_chemical_formula_sum "Si O2"
_cell_formula_units_Z 192
_cell_length_a 27.752630
_cell_length_b 19.325965
_cell_length_c 19.326021
_cell_angle_alpha 90.000000
_cell_angle_beta 90.000000
_cell_angle_gamma 90.000000
_cell_volume 10365.440940
_symmetry_space_group_name_H-M "F M M M"
_symmetry_group_IT_number 69
_symmetry_cell_setting 'orthorhombic'
loop_
_space_group_symop_operation_xyz
x,y,z
-x,-y,z
x,-y,-z
-x,y,-z
-x,-y,-z
x,y,-z
-x,y,z
x,-y,z
x,1/2+y,1/2+z
-x,1/2-y,1/2+z
x,1/2-y,1/2-z
-x,1/2+y,1/2-z
-x,1/2-y,1/2-z
x,1/2+y,1/2-z
-x,1/2+y,1/2+z
x,1/2-y,1/2+z
1/2+x,y,1/2+z
1/2-x,-y,1/2+z
1/2+x,-y,1/2-z
1/2-x,y,1/2-z
1/2-x,-y,1/2-z
1/2+x,y,1/2-z
1/2-x,y,1/2+z
1/2+x,-y,1/2+z
1/2+x,1/2+y,z
1/2-x,1/2-y,z
1/2+x,1/2-y,-z
1/2-x,1/2+y,-z
1/2-x,1/2-y,-z
1/2+x,1/2+y,-z
1/2-x,1/2+y,z
1/2+x,1/2-y,z
loop_
_atom_site_type_symbol
_atom_site_label
_atom_site_fract_x
_atom_site_fract_y
_atom_site_fract_z
Si Si1 0.000000 0.863989 0.725559
Si Si2 0.102780 0.312262 0.419849
Si Si3 0.345461 0.169976 0.083015
Si Si4 0.250000 0.667000 0.833000
Si Si5 0.345462 0.083016 0.330024
Si Si6 0.602780 0.919849 0.187738
Si Si7 0.000000 0.725559 0.363989
O O1 0.048856 0.906136 0.714173
O O2 0.000000 0.800788 0.671025
O O3 0.000000 0.828977 0.800789
O O4 0.109710 0.327467 0.500000
O O5 0.139388 0.249502 0.401069
O O6 0.113766 0.380024 0.375485
O O7 0.048856 0.285827 0.406136
O O8 0.296462 0.147078 0.121554
O O9 0.386233 0.124515 0.119976
O O10 0.342724 0.162592 0.000000
O O11 0.250000 0.656598 0.750000
O O12 0.250000 0.750000 0.843400
O O13 0.296462 0.621554 0.852922
O O14 0.360612 0.098932 0.250498
O O15 0.342724 0.000000 0.337408
O O16 0.609711 0.000000 0.172534
#
# Coordination Sequence:
#
# PCOD9513714 Si02
#       7
#    16  32  32  32  32  32  16
#     4  11  21  36  66  97 122 162 218 273 316 376
#     4  11  23  41  63  91 132 170 208 262 324 383
#     4  11  24  41  65  94 126 167 215 262 318 385
#     4  11  22  38  66  95 120 164 213 262 316 377
#     4  11  24  41  65  94 126 167 215 262 318 385
#     4  11  23  41  63  91 132 170 208 262 324 383
#     4  11  21  36  66  97 122 162 218 273 316 376
#
# _framework density 18.523091000000001
#
# number of rings (size 3 to 8) (size 9 to 14) (size 15 to 20)
#    0.000    1.000    6.667    0.500    0.000    3.333 
#    0.000    0.833    0.000    2.000    0.000    0.000 
#    0.000    0.000    0.000    0.000    0.000    0.000 
#
# Total GULP energy -267758.313397 kJ/mol
# GULP energy per Si atom -5578.298196 kJ/mol
# Density = 1.848093 g / cm^3
# Si number density = 18.523091 Si / 1000 Ang^3
#
#
#
# Elastic Constant Matrix: (Units=GPa)
#
#
# Indices 1 2 3 4 5 6 
#
# 1 105.9388 24.2624 24.2629 0.0000 0.0000 0.0000
# 2 24.2624 67.6879 47.5030 0.0000 0.0000 0.0000
# 3 24.2629 47.5030 67.6926 0.0000 0.0000 0.0000
# 4 0.0000 0.0000 0.0000 20.9682 0.0000 0.0000
# 5 0.0000 0.0000 0.0000 0.0000 25.6720 0.0000
# 6 0.0000 0.0000 0.0000 0.0000 0.0000 25.6716
#
#
#
# Elastic Compliance Matrix: (Units=1/GPa)
#
#
# Indices 1 2 3 4 5 6 
#
# 1 0.010447 -0.002201 -0.002200 0.000000 0.000000 0.000000
# 2 -0.002201 0.029573 -0.019964 0.000000 0.000000 0.000000
# 3 -0.002200 -0.019964 0.029571 0.000000 0.000000 0.000000
# 4 0.000000 0.000000 0.000000 0.047691 0.000000 0.000000
# 5 0.000000 0.000000 0.000000 0.000000 0.038953 0.000000
# 6 0.000000 0.000000 0.000000 0.000000 0.000000 0.038954
#
#
# Mechanical properties :
#
#
# Convention : Reuss Voigt Hill
#
# Bulk Modulus (GPa) = 47.93527 48.15288 48.04408
# Shear Modulus (GPa) = 19.93038 24.14843 22.03940
#
# Velocity S-wave (km/s) = 3.28376 3.61459 3.45314
# Velocity P-wave (km/s) = 6.34920 6.59340 6.47245
#
# Compressibility (1/GPa) = 0.02086147
#
# Stress axis : x y z
#
# Youngs Moduli (GPa) = 95.71813 33.81444 33.81683
#
# Poissons Ratio (x) = 0.07441 0.07441
# Poissons Ratio (y) = 0.21064 0.67512
# Poissons Ratio (z) = 0.21062 0.67507
#
# Static dielectric constant tensor:
#      x y z
#    x 1.662440 0.000000 0.000000 
#    y 0.000000 1.616990 0.000000 
#    z 0.000000 0.000000 1.616990 
# 
# From -- ./inp_files/27798.got.cif
#   From: 2010.05.17/outbox.cif.g08.bks.cpg/sg69_14_cif.got.tgz:27798.got - 2010.06.03 19:29:58.
