data_PCOD9513082
_publ_section_title
;
Structure prediction by ZEFSAII (Michael W. Deem and Ramdas Pophale) SiO2 
 PCOD9513082
Probable space group: F M M M
;
_chemical_formula_sum "Si O2"
_cell_formula_units_Z 96
_cell_length_a 12.004705
_cell_length_b 20.521130
_cell_length_c 13.915414
_cell_angle_alpha 90.000000
_cell_angle_beta 90.000000
_cell_angle_gamma 90.000000
_cell_volume 3428.063796
_symmetry_space_group_name_H-M "F M M M"
_symmetry_group_IT_number 69
_symmetry_cell_setting 'orthorhombic'
loop_
_space_group_symop_operation_xyz
x,y,z
-x,-y,z
x,-y,-z
-x,y,-z
-x,-y,-z
x,y,-z
-x,y,z
x,-y,z
x,1/2+y,1/2+z
-x,1/2-y,1/2+z
x,1/2-y,1/2-z
-x,1/2+y,1/2-z
-x,1/2-y,1/2-z
x,1/2+y,1/2-z
-x,1/2+y,1/2+z
x,1/2-y,1/2+z
1/2+x,y,1/2+z
1/2-x,-y,1/2+z
1/2+x,-y,1/2-z
1/2-x,y,1/2-z
1/2-x,-y,1/2-z
1/2+x,y,1/2-z
1/2-x,y,1/2+z
1/2+x,-y,1/2+z
1/2+x,1/2+y,z
1/2-x,1/2-y,z
1/2+x,1/2-y,-z
1/2-x,1/2+y,-z
1/2-x,1/2-y,-z
1/2+x,1/2+y,-z
1/2-x,1/2+y,z
1/2+x,1/2-y,z
loop_
_atom_site_type_symbol
_atom_site_label
_atom_site_fract_x
_atom_site_fract_y
_atom_site_fract_z
Si Si1 0.876355 0.733596 0.863546
Si Si2 0.350750 0.426714 0.000000
Si Si3 0.625372 0.079464 0.712852
Si Si4 0.114403 0.386111 0.000000
O O1 0.875204 0.750000 0.750000
O O2 0.750000 0.750000 0.895750
O O3 0.881720 0.660918 0.907575
O O4 0.000000 0.759723 0.894445
O O5 0.378910 0.396104 0.897909
O O6 0.218919 0.430596 0.000000
O O7 0.392989 0.500000 0.000000
O O8 0.500000 0.096134 0.751172
O O9 0.750000 0.099716 0.750000
O O10 0.629166 0.000000 0.714218
O O11 0.000000 0.423407 0.000000
#
# Coordination Sequence:
#
# PCOD9513082 Si02
#       4
#    32  16  32  16
#     4   9  18  36  62  89 120 155 194 252 320 381
#     4  10  21  38  60  86 126 178 222 259 304 364
#     4   9  18  35  59  85 117 162 216 270 317 362
#     4  10  21  37  59  91 127 160 205 261 311 373
#
# _framework density 28.004147
#
# number of rings (size 3 to 8) (size 9 to 14) (size 15 to 20)
#    0.000    2.667    0.000    1.000    0.000    3.667 
#    6.000    6.667    0.000    0.000    0.000    0.000 
#    0.000    0.000    0.000    0.000    0.000    0.000 
#
# Total GULP energy -133697.674074 kJ/mol
# GULP energy per Si atom -5570.736420 kJ/mol
# Density = 2.794041 g / cm^3
# Si number density = 28.004147 Si / 1000 Ang^3
#
#
#
# Elastic Constant Matrix: (Units=GPa)
#
#
# Indices 1 2 3 4 5 6 
#
# 1 432.1761 63.3518 75.9556 0.0000 0.0000 0.0000
# 2 63.3518 79.4777 33.4158 0.0000 0.0000 0.0000
# 3 75.9556 33.4158 193.5832 0.0000 0.0000 0.0000
# 4 0.0000 0.0000 0.0000 3.2183 0.0000 0.0000
# 5 0.0000 0.0000 0.0000 0.0000 16.2276 0.0000
# 6 0.0000 0.0000 0.0000 0.0000 0.0000 -3.7965
#
#
#
# Elastic Compliance Matrix: (Units=1/GPa)
#
#
# Indices 1 2 3 4 5 6 
#
# 1 0.002716 -0.001852 -0.000746 0.000000 0.000000 0.000000
# 2 -0.001852 0.014829 -0.001833 0.000000 0.000000 0.000000
# 3 -0.000746 -0.001833 0.005775 0.000000 0.000000 0.000000
# 4 0.000000 0.000000 0.000000 0.310722 0.000000 0.000000
# 5 0.000000 0.000000 0.000000 0.000000 0.061623 0.000000
# 6 0.000000 0.000000 0.000000 0.000000 0.000000 -0.263400
#
#
# Mechanical properties :
#
#
# Convention : Reuss Voigt Hill
#
# Bulk Modulus (GPa) = 69.16483 116.74262 92.95372
# Shear Modulus (GPa) = 34.25919 38.63081 36.44500
#
# Velocity S-wave (km/s) = 3.50145 3.71815 3.61143
# Velocity P-wave (km/s) = 6.41082 7.75957 7.11722
#
# Compressibility (1/GPa) = 0.01445822
#
# Stress axis : x y z
#
# Youngs Moduli (GPa) = 368.12955 67.43648 173.16076
#
# Poissons Ratio (x) = 0.12486 0.12922
# Poissons Ratio (y) = 0.68160 0.31744
# Poissons Ratio (z) = 0.27471 0.12363
#
# Static dielectric constant tensor:
#      x y z
#    x 2.112120 0.000000 0.000000 
#    y 0.000000 2.113300 0.000000 
#    z 0.000000 0.000000 2.267450 
# 
# From -- ./inp_files/11872.got.cif
#   From: 2010.05.17/outbox.cif.g08.bks.cpg/sg69_6_cif.got.tgz:11872.got - 2010.06.03 19:29:58.
