data_PCOD9513060
_publ_section_title
;
Structure prediction by ZEFSAII (Michael W. Deem and Ramdas Pophale) SiO2 
 PCOD9513060
Probable space group: F M M M
;
_chemical_formula_sum "Si O2"
_cell_formula_units_Z 128
_cell_length_a 15.770043
_cell_length_b 13.438272
_cell_length_c 31.766653
_cell_angle_alpha 90.000000
_cell_angle_beta 90.000000
_cell_angle_gamma 90.000000
_cell_volume 6732.056681
_symmetry_space_group_name_H-M "F M M M"
_symmetry_group_IT_number 69
_symmetry_cell_setting 'orthorhombic'
loop_
_space_group_symop_operation_xyz
x,y,z
-x,-y,z
x,-y,-z
-x,y,-z
-x,-y,-z
x,y,-z
-x,y,z
x,-y,z
x,1/2+y,1/2+z
-x,1/2-y,1/2+z
x,1/2-y,1/2-z
-x,1/2+y,1/2-z
-x,1/2-y,1/2-z
x,1/2+y,1/2-z
-x,1/2+y,1/2+z
x,1/2-y,1/2+z
1/2+x,y,1/2+z
1/2-x,-y,1/2+z
1/2+x,-y,1/2-z
1/2-x,y,1/2-z
1/2-x,-y,1/2-z
1/2+x,y,1/2-z
1/2-x,y,1/2+z
1/2+x,-y,1/2+z
1/2+x,1/2+y,z
1/2-x,1/2-y,z
1/2+x,1/2-y,-z
1/2-x,1/2+y,-z
1/2-x,1/2-y,-z
1/2+x,1/2+y,-z
1/2-x,1/2+y,z
1/2+x,1/2-y,z
loop_
_atom_site_type_symbol
_atom_site_label
_atom_site_fract_x
_atom_site_fract_y
_atom_site_fract_z
Si Si1 0.500000 0.378390 0.141991
Si Si2 0.825251 0.119686 0.284258
Si Si3 0.500000 0.118631 0.739181
Si Si4 0.154288 0.231562 0.626049
Si Si5 0.898543 0.387511 0.954895
O O1 0.500000 0.500000 0.136170
O O2 0.500000 0.351356 0.191197
O O3 0.587522 0.324260 0.127138
O O4 0.750000 0.139980 0.250000
O O5 0.831091 0.179234 0.328224
O O6 0.913838 0.144901 0.262199
O O7 0.820301 0.000000 0.292843
O O8 0.500000 0.000000 0.738412
O O9 0.250000 0.250000 0.611974
O O10 0.119710 0.161608 0.589479
O O11 0.865287 0.500000 0.953875
O O12 0.000000 0.391238 0.957253
O O13 0.869546 0.341423 0.000000
#
# Coordination Sequence:
#
# PCOD9513060 Si02
#       5
#    16  32  16  32  32
#     4  11  25  43  57  82 129 175 214 260 313 363
#     4  10  21  37  57  88 126 158 200 262 319 367
#     4   9  19  35  55  74 107 161 204 243 298 357
#     4  12  24  37  63  92 121 167 213 253 304 382
#     4   9  19  39  67  95 121 147 188 259 330 376
#
# _framework density 19.013506
#
# number of rings (size 3 to 8) (size 9 to 14) (size 15 to 20)
#    0.000    1.750    1.250    3.750    0.000    9.000 
#    0.000    0.000    0.000    2.250    0.000    0.000 
#    0.000    0.000    0.000    0.000    0.000    0.000 
#
# Total GULP energy -178140.518353 kJ/mol
# GULP energy per Si atom -5566.891199 kJ/mol
# Density = 1.897023 g / cm^3
# Si number density = 19.013506 Si / 1000 Ang^3
#
#
#
# Elastic Constant Matrix: (Units=GPa)
#
#
# Indices 1 2 3 4 5 6 
#
# 1 122.0655 30.3454 30.8499 0.0000 0.0000 0.0000
# 2 30.3454 93.7418 30.1269 0.0000 0.0000 0.0000
# 3 30.8499 30.1269 116.2980 0.0000 0.0000 0.0000
# 4 0.0000 0.0000 0.0000 -58.3553 0.0000 0.0000
# 5 0.0000 0.0000 0.0000 0.0000 25.7473 0.0000
# 6 0.0000 0.0000 0.0000 0.0000 0.0000 73.9783
#
#
#
# Elastic Compliance Matrix: (Units=1/GPa)
#
#
# Indices 1 2 3 4 5 6 
#
# 1 0.009253 -0.002407 -0.001831 0.000000 0.000000 0.000000
# 2 -0.002407 0.012262 -0.002538 0.000000 0.000000 0.000000
# 3 -0.001831 -0.002538 0.009742 0.000000 0.000000 0.000000
# 4 0.000000 0.000000 0.000000 -0.017136 0.000000 0.000000
# 5 0.000000 0.000000 0.000000 0.000000 0.038839 0.000000
# 6 0.000000 0.000000 0.000000 0.000000 0.000000 0.013517
#
#
# Mechanical properties :
#
#
# Convention : Reuss Voigt Hill
#
# Bulk Modulus (GPa) = 56.47994 57.19442 56.83718
# Shear Modulus (GPa) = 58.18551 24.32626 41.25589
#
# Velocity S-wave (km/s) = 5.53793 3.58078 4.66319
# Velocity P-wave (km/s) = 8.40602 6.87330 7.67800
#
# Compressibility (1/GPa) = 0.01770540
#
# Stress axis : x y z
#
# Youngs Moduli (GPa) = 108.06751 81.54971 102.65026
#
# Poissons Ratio (x) = 0.19629 0.18796
# Poissons Ratio (y) = 0.26012 0.26053
# Poissons Ratio (z) = 0.19788 0.20698
#
# Static dielectric constant tensor:
#      x y z
#    x 1.809670 0.000000 0.000000 
#    y 0.000000 1.702540 0.000000 
#    z 0.000000 0.000000 1.667730 
# 
# From -- ./inp_files/41630.got.cif
#   From: 2010.05.17/outbox.cif.g08.bks.cpg/sg69_21_cif.got.tgz:41630.got - 2010.06.03 19:29:58.
