data_PCOD9513239
_publ_section_title
;
Structure prediction by ZEFSAII (Michael W. Deem and Ramdas Pophale) SiO2 
 PCOD9513239
Probable space group: F M M M
;
_chemical_formula_sum "Si O2"
_cell_formula_units_Z 168
_cell_length_a 14.742515
_cell_length_b 21.407402
_cell_length_c 25.291461
_cell_angle_alpha 90.000000
_cell_angle_beta 90.000000
_cell_angle_gamma 90.000000
_cell_volume 7981.958412
_symmetry_space_group_name_H-M "F M M M"
_symmetry_group_IT_number 69
_symmetry_cell_setting 'orthorhombic'
loop_
_space_group_symop_operation_xyz
x,y,z
-x,-y,z
x,-y,-z
-x,y,-z
-x,-y,-z
x,y,-z
-x,y,z
x,-y,z
x,1/2+y,1/2+z
-x,1/2-y,1/2+z
x,1/2-y,1/2-z
-x,1/2+y,1/2-z
-x,1/2-y,1/2-z
x,1/2+y,1/2-z
-x,1/2+y,1/2+z
x,1/2-y,1/2+z
1/2+x,y,1/2+z
1/2-x,-y,1/2+z
1/2+x,-y,1/2-z
1/2-x,y,1/2-z
1/2-x,-y,1/2-z
1/2+x,y,1/2-z
1/2-x,y,1/2+z
1/2+x,-y,1/2+z
1/2+x,1/2+y,z
1/2-x,1/2-y,z
1/2+x,1/2-y,-z
1/2-x,1/2+y,-z
1/2-x,1/2-y,-z
1/2+x,1/2+y,-z
1/2-x,1/2+y,z
1/2+x,1/2-y,z
loop_
_atom_site_type_symbol
_atom_site_label
_atom_site_fract_x
_atom_site_fract_y
_atom_site_fract_z
Si Si1 0.161748 0.432475 0.287795
Si Si2 0.286281 0.903863 0.406894
Si Si3 0.829524 0.000000 0.000000
Si Si4 0.103738 0.285920 0.437095
Si Si5 0.893852 0.351095 0.887308
Si Si6 0.395311 0.814544 0.771572
O O1 0.115890 0.500000 0.278330
O O2 0.250000 0.431722 0.250000
O O3 0.188378 0.428537 0.349009
O O4 0.109737 0.370142 0.270486
O O5 0.326492 0.945781 0.453375
O O6 0.326816 0.834207 0.411844
O O7 0.177196 0.899046 0.412364
O O8 0.116766 0.285523 0.500000
O O9 0.112223 0.215678 0.415988
O O10 0.000000 0.306525 0.425690
O O11 0.859049 0.339221 0.827392
O O12 0.000000 0.370784 0.887631
O O13 0.500000 0.800230 0.784431
O O14 0.354750 0.750000 0.750000
#
# Coordination Sequence:
#
# PCOD9513239 Si02
#       6
#    32  32   8  32  32  32
#     4  11  23  40  63  91 125 167 213 259 317 379
#     4  12  23  44  66  92 128 170 213 266 321 381
#     4  12  28  44  66  92 124 170 220 268 318 376
#     4  10  22  40  65  96 128 164 213 269 324 382
#     4  10  22  40  64  97 130 164 210 267 323 381
#     4  10  21  39  63  96 132 165 209 264 322 388
#
# _framework density 21.047466
#
# number of rings (size 3 to 8) (size 9 to 14) (size 15 to 20)
#    0.000    1.333    3.810    1.714    1.333    3.810 
#    0.000    1.905    0.000    0.000    0.000    0.000 
#    0.000    0.000    0.000    0.000    0.000    0.000 
#
# Total GULP energy -234036.648600 kJ/mol
# GULP energy per Si atom -5572.301157 kJ/mol
# Density = 2.099956 g / cm^3
# Si number density = 21.047466 Si / 1000 Ang^3
#
#
#
# Elastic Constant Matrix: (Units=GPa)
#
#
# Indices 1 2 3 4 5 6 
#
# 1 39.6719 -3.0173 4.8460 0.0000 0.0000 0.0000
# 2 -3.0173 63.0892 0.5560 0.0000 0.0000 0.0000
# 3 4.8460 0.5560 96.6013 0.0000 0.0000 0.0000
# 4 0.0000 0.0000 0.0000 97.9517 0.0000 0.0000
# 5 0.0000 0.0000 0.0000 0.0000 18.1824 0.0000
# 6 0.0000 0.0000 0.0000 0.0000 0.0000 11.2611
#
#
#
# Elastic Compliance Matrix: (Units=1/GPa)
#
#
# Indices 1 2 3 4 5 6 
#
# 1 0.025457 0.001229 -0.001284 0.000000 0.000000 0.000000
# 2 0.001229 0.015911 -0.000153 0.000000 0.000000 0.000000
# 3 -0.001284 -0.000153 0.010417 0.000000 0.000000 0.000000
# 4 0.000000 0.000000 0.000000 0.010209 0.000000 0.000000
# 5 0.000000 0.000000 0.000000 0.000000 0.054998 0.000000
# 6 0.000000 0.000000 0.000000 0.000000 0.000000 0.088801
#
#
# Mechanical properties :
#
#
# Convention : Reuss Voigt Hill
#
# Bulk Modulus (GPa) = 19.46743 22.68132 21.07437
# Shear Modulus (GPa) = 22.38808 38.61088 30.49948
#
# Velocity S-wave (km/s) = 3.26497 4.28771 3.81081
# Velocity P-wave (km/s) = 4.84590 5.94242 5.42195
#
# Compressibility (1/GPa) = 0.05136785
#
# Stress axis : x y z
#
# Youngs Moduli (GPa) = 39.28178 62.85085 95.99575
#
# Poissons Ratio (x) = -0.07723 0.12327
# Poissons Ratio (y) = -0.04827 0.01471
# Poissons Ratio (z) = 0.05044 0.00963
#
# Static dielectric constant tensor:
#      x y z
#    x 1.800030 0.000000 0.000000 
#    y 0.000000 1.778840 0.000000 
#    z 0.000000 0.000000 1.741240 
# 
# From -- ./inp_files/17934.got.cif
#   From: 2010.05.17/outbox.cif.g08.bks.cpg/sg69_9_cif.got.tgz:17934.got - 2010.06.03 19:29:58.
