data_PCOD9513755
_publ_section_title
;
Structure prediction by ZEFSAII (Michael W. Deem and Ramdas Pophale) SiO2 
 PCOD9513755
Probable space group: F M M M
;
_chemical_formula_sum "Si O2"
_cell_formula_units_Z 192
_cell_length_a 15.967497
_cell_length_b 18.913873
_cell_length_c 29.689955
_cell_angle_alpha 90.000000
_cell_angle_beta 90.000000
_cell_angle_gamma 90.000000
_cell_volume 8966.580486
_symmetry_space_group_name_H-M "F M M M"
_symmetry_group_IT_number 69
_symmetry_cell_setting 'orthorhombic'
loop_
_space_group_symop_operation_xyz
x,y,z
-x,-y,z
x,-y,-z
-x,y,-z
-x,-y,-z
x,y,-z
-x,y,z
x,-y,z
x,1/2+y,1/2+z
-x,1/2-y,1/2+z
x,1/2-y,1/2-z
-x,1/2+y,1/2-z
-x,1/2-y,1/2-z
x,1/2+y,1/2-z
-x,1/2+y,1/2+z
x,1/2-y,1/2+z
1/2+x,y,1/2+z
1/2-x,-y,1/2+z
1/2+x,-y,1/2-z
1/2-x,y,1/2-z
1/2-x,-y,1/2-z
1/2+x,y,1/2-z
1/2-x,y,1/2+z
1/2+x,-y,1/2+z
1/2+x,1/2+y,z
1/2-x,1/2-y,z
1/2+x,1/2-y,-z
1/2-x,1/2+y,-z
1/2-x,1/2-y,-z
1/2+x,1/2+y,-z
1/2-x,1/2+y,z
1/2+x,1/2-y,z
loop_
_atom_site_type_symbol
_atom_site_label
_atom_site_fract_x
_atom_site_fract_y
_atom_site_fract_z
Si Si1 0.162052 0.166700 0.697871
Si Si2 0.189719 0.582887 0.645954
Si Si3 0.599189 0.183388 0.703942
Si Si4 0.500000 0.420820 0.419878
Si Si5 0.869459 0.694833 0.051472
Si Si6 0.674159 0.346764 0.052741
Si Si7 0.000000 0.074857 0.685387
O O1 0.234142 0.130275 0.667697
O O2 0.160021 0.174691 0.752487
O O3 0.135299 0.244912 0.681077
O O4 0.082753 0.116570 0.694929
O O5 0.205292 0.500000 0.653937
O O6 0.111796 0.615167 0.673267
O O7 0.172243 0.596908 0.593058
O O8 0.500000 0.192789 0.714711
O O9 0.500000 0.500000 0.441707
O O10 0.420908 0.370220 0.428916
O O11 0.500000 0.433248 0.367560
O O12 0.771829 0.675387 0.051918
O O13 0.876141 0.775872 0.067952
O O14 0.897346 0.699102 0.000000
O O15 0.652654 0.364885 0.000000
O O16 0.000000 0.000000 0.709601
#
# Coordination Sequence:
#
# PCOD9513755 Si02
#       7
#    32  32  32  16  32  32  16
#     4  11  22  44  67  97 131 170 222 266 321 392
#     4  12  27  41  65 102 131 171 220 271 337 390
#     4  11  24  45  70  97 130 178 223 264 318 386
#     4  11  23  34  54  99 142 167 200 261 340 408
#     4   9  19  36  60  87 120 169 217 257 316 386
#     4   9  21  42  64  88 122 171 229 275 314 377
#     4  11  22  34  59  94 132 171 204 259 333 392
#
# _framework density 21.412845999999998
#
# number of rings (size 3 to 8) (size 9 to 14) (size 15 to 20)
#    0.000    1.500    1.667    4.250    7.000    6.667 
#    0.000    1.667    0.000    0.000    0.000    1.167 
#    0.000    0.000    0.000    0.000    0.000    0.000 
#
# Total GULP energy -267327.687143 kJ/mol
# GULP energy per Si atom -5569.326815 kJ/mol
# Density = 2.136411 g / cm^3
# Si number density = 21.412846 Si / 1000 Ang^3
#
#
#
# Elastic Constant Matrix: (Units=GPa)
#
#
# Indices 1 2 3 4 5 6 
#
# 1 84.5985 54.2030 15.9599 0.0000 0.0000 0.0000
# 2 54.2030 161.2432 53.4351 0.0000 0.0000 0.0000
# 3 15.9599 53.4351 96.0186 0.0000 0.0000 0.0000
# 4 0.0000 0.0000 0.0000 33.2380 0.0000 0.0000
# 5 0.0000 0.0000 0.0000 0.0000 22.5941 0.0000
# 6 0.0000 0.0000 0.0000 0.0000 0.0000 69.1887
#
#
#
# Elastic Compliance Matrix: (Units=1/GPa)
#
#
# Indices 1 2 3 4 5 6 
#
# 1 0.015077 -0.005196 0.000386 0.000000 0.000000 0.000000
# 2 -0.005196 0.009395 -0.004365 0.000000 0.000000 0.000000
# 3 0.000386 -0.004365 0.012780 0.000000 0.000000 0.000000
# 4 0.000000 0.000000 0.000000 0.030086 0.000000 0.000000
# 5 0.000000 0.000000 0.000000 0.000000 0.044259 0.000000
# 6 0.000000 0.000000 0.000000 0.000000 0.000000 0.014453
#
#
# Mechanical properties :
#
#
# Convention : Reuss Voigt Hill
#
# Bulk Modulus (GPa) = 52.90675 65.45069 59.17872
# Shear Modulus (GPa) = 33.17839 39.55498 36.36669
#
# Velocity S-wave (km/s) = 3.94059 4.30263 4.12559
# Velocity P-wave (km/s) = 6.74284 7.43747 7.09866
#
# Compressibility (1/GPa) = 0.01890118
#
# Stress axis : x y z
#
# Youngs Moduli (GPa) = 66.32656 106.44069 78.25006
#
# Poissons Ratio (x) = 0.55306 -0.03017
# Poissons Ratio (y) = 0.34463 0.34154
# Poissons Ratio (z) = -0.02557 0.46458
#
# Static dielectric constant tensor:
#      x y z
#    x 1.768230 0.000000 0.000000 
#    y 0.000000 1.900090 0.000000 
#    z 0.000000 0.000000 1.853260 
# 
# From -- ./inp_files/46436.got.cif
#   From: 2010.05.17/outbox.cif.g08.bks.cpg/sg69_24_cif.got.tgz:46436.got - 2010.06.03 19:29:58.
