data_PCOD9513267
_publ_section_title
;
Structure prediction by ZEFSAII (Michael W. Deem and Ramdas Pophale) SiO2 
 PCOD9513267
Probable space group: F M M M
;
_chemical_formula_sum "Si O2"
_cell_formula_units_Z 208
_cell_length_a 14.800422
_cell_length_b 21.744549
_cell_length_c 28.598475
_cell_angle_alpha 90.000000
_cell_angle_beta 90.000000
_cell_angle_gamma 90.000000
_cell_volume 9203.804352
_symmetry_space_group_name_H-M "F M M M"
_symmetry_group_IT_number 69
_symmetry_cell_setting 'orthorhombic'
loop_
_space_group_symop_operation_xyz
x,y,z
-x,-y,z
x,-y,-z
-x,y,-z
-x,-y,-z
x,y,-z
-x,y,z
x,-y,z
x,1/2+y,1/2+z
-x,1/2-y,1/2+z
x,1/2-y,1/2-z
-x,1/2+y,1/2-z
-x,1/2-y,1/2-z
x,1/2+y,1/2-z
-x,1/2+y,1/2+z
x,1/2-y,1/2+z
1/2+x,y,1/2+z
1/2-x,-y,1/2+z
1/2+x,-y,1/2-z
1/2-x,y,1/2-z
1/2-x,-y,1/2-z
1/2+x,y,1/2-z
1/2-x,y,1/2+z
1/2+x,-y,1/2+z
1/2+x,1/2+y,z
1/2-x,1/2-y,z
1/2+x,1/2-y,-z
1/2-x,1/2+y,-z
1/2-x,1/2-y,-z
1/2+x,1/2+y,-z
1/2-x,1/2+y,z
1/2+x,1/2-y,z
loop_
_atom_site_type_symbol
_atom_site_label
_atom_site_fract_x
_atom_site_fract_y
_atom_site_fract_z
Si Si1 0.391769 0.070322 0.450254
Si Si2 0.103863 0.569818 0.794467
Si Si3 0.351419 0.377753 0.606398
Si Si4 0.392124 0.182664 0.265896
Si Si5 0.345168 0.161238 0.372912
Si Si6 0.391409 0.500000 0.444383
Si Si7 0.140239 0.740230 0.947531
O O1 0.357553 0.099192 0.500000
O O2 0.500000 0.072058 0.452599
O O3 0.367615 0.099552 0.401052
O O4 0.362487 0.000000 0.450590
O O5 0.143548 0.500000 0.793926
O O6 0.102421 0.597310 0.846761
O O7 0.145198 0.623697 0.762428
O O8 0.000000 0.563135 0.779036
O O9 0.263190 0.341963 0.625578
O O10 0.343347 0.439457 0.575928
O O11 0.389109 0.326497 0.571088
O O12 0.500000 0.184103 0.256770
O O13 0.357435 0.250000 0.250000
O O14 0.377047 0.171194 0.320676
O O15 0.386518 0.212134 0.407437
O O16 0.500000 0.500000 0.431201
O O17 0.387129 0.500000 0.500000
O O18 0.250000 0.750000 0.950006
O O19 0.106801 0.751388 0.000000
#
# Coordination Sequence:
#
# PCOD9513267 Si02
#       7
#    32  32  32  32  32  16  32
#     4   9  19  35  54  79 117 164 204 242 298 365
#     4  10  21  40  63  84 115 161 206 257 323 386
#     4  11  22  38  61  91 121 158 202 254 319 380
#     4  10  22  41  64  90 121 163 216 266 317 381
#     4  11  22  36  60  91 124 157 202 262 316 373
#     4  11  24  42  64  91 127 169 217 268 313 376
#     4   9  19  36  56  83 121 161 197 242 305 372
#
# _framework density 22.599350999999999
#
# number of rings (size 3 to 8) (size 9 to 14) (size 15 to 20)
#    0.000    1.923    0.769    3.231    1.077    3.077 
#    0.000    5.385    0.000    5.538    0.000    0.000 
#    0.000    0.000    0.000    0.000    0.000    0.000 
#
# Total GULP energy -290022.599051 kJ/mol
# GULP energy per Si atom -5577.357674 kJ/mol
# Density = 2.254791 g / cm^3
# Si number density = 22.599351 Si / 1000 Ang^3
#
#
#
# Elastic Constant Matrix: (Units=GPa)
#
#
# Indices 1 2 3 4 5 6 
#
# 1 42.5069 4.3392 -6.4759 0.0000 0.0000 0.0000
# 2 4.3392 178.3321 93.5563 0.0000 0.0000 0.0000
# 3 -6.4759 93.5563 182.1753 0.0000 0.0000 0.0000
# 4 0.0000 0.0000 0.0000 42.0294 0.0000 0.0000
# 5 0.0000 0.0000 0.0000 0.0000 37.6066 0.0000
# 6 0.0000 0.0000 0.0000 0.0000 0.0000 27.7559
#
#
#
# Elastic Compliance Matrix: (Units=1/GPa)
#
#
# Indices 1 2 3 4 5 6 
#
# 1 0.023909 -0.001407 0.001572 0.000000 0.000000 0.000000
# 2 -0.001407 0.007758 -0.004034 0.000000 0.000000 0.000000
# 3 0.001572 -0.004034 0.007617 0.000000 0.000000 0.000000
# 4 0.000000 0.000000 0.000000 0.023793 0.000000 0.000000
# 5 0.000000 0.000000 0.000000 0.000000 0.026591 0.000000
# 6 0.000000 0.000000 0.000000 0.000000 0.000000 0.036028
#
#
# Mechanical properties :
#
#
# Convention : Reuss Voigt Hill
#
# Bulk Modulus (GPa) = 31.69907 65.09484 48.39695
# Shear Modulus (GPa) = 34.73460 42.25136 38.49298
#
# Velocity S-wave (km/s) = 3.92468 4.32856 4.13156
# Velocity P-wave (km/s) = 5.88171 7.33814 6.64991
#
# Compressibility (1/GPa) = 0.03154667
#
# Stress axis : x y z
#
# Youngs Moduli (GPa) = 41.82576 128.89642 131.28723
#
# Poissons Ratio (x) = 0.18130 -0.20642
# Poissons Ratio (y) = 0.05883 0.52964
# Poissons Ratio (z) = -0.06576 0.52000
#
# Static dielectric constant tensor:
#      x y z
#    x 1.963420 0.000000 0.000000 
#    y 0.000000 1.869720 0.000000 
#    z 0.000000 0.000000 1.774590 
# 
# From -- ./inp_files/46479.got.cif
#   From: 2010.05.17/outbox.cif.g08.bks.cpg/sg69_24_cif.got.tgz:46479.got - 2010.06.03 19:29:58.
