data_PCOD9513133
_publ_section_title
;
Structure prediction by ZEFSAII (Michael W. Deem and Ramdas Pophale) SiO2 
 PCOD9513133
Probable space group: F M M M
;
_chemical_formula_sum "Si O2"
_cell_formula_units_Z 152
_cell_length_a 27.076059
_cell_length_b 22.248230
_cell_length_c 13.330230
_cell_angle_alpha 90.000000
_cell_angle_beta 90.000000
_cell_angle_gamma 90.000000
_cell_volume 8030.055744
_symmetry_space_group_name_H-M "F M M M"
_symmetry_group_IT_number 69
_symmetry_cell_setting 'orthorhombic'
loop_
_space_group_symop_operation_xyz
x,y,z
-x,-y,z
x,-y,-z
-x,y,-z
-x,-y,-z
x,y,-z
-x,y,z
x,-y,z
x,1/2+y,1/2+z
-x,1/2-y,1/2+z
x,1/2-y,1/2-z
-x,1/2+y,1/2-z
-x,1/2-y,1/2-z
x,1/2+y,1/2-z
-x,1/2+y,1/2+z
x,1/2-y,1/2+z
1/2+x,y,1/2+z
1/2-x,-y,1/2+z
1/2+x,-y,1/2-z
1/2-x,y,1/2-z
1/2-x,-y,1/2-z
1/2+x,y,1/2-z
1/2-x,y,1/2+z
1/2+x,-y,1/2+z
1/2+x,1/2+y,z
1/2-x,1/2-y,z
1/2+x,1/2-y,-z
1/2-x,1/2+y,-z
1/2-x,1/2-y,-z
1/2+x,1/2+y,-z
1/2-x,1/2+y,z
1/2+x,1/2-y,z
loop_
_atom_site_type_symbol
_atom_site_label
_atom_site_fract_x
_atom_site_fract_y
_atom_site_fract_z
Si Si1 0.419684 0.648122 0.231452
Si Si2 0.500000 0.250000 0.250000
Si Si3 0.857257 0.930041 0.620216
Si Si4 0.672709 0.790975 0.621288
Si Si5 0.500000 0.430439 0.119899
Si Si6 0.779403 0.835488 0.621187
O O1 0.456821 0.699097 0.268996
O O2 0.397837 0.607934 0.320523
O O3 0.375141 0.679882 0.170860
O O4 0.452145 0.604834 0.160233
O O5 0.864015 0.924976 0.500000
O O6 0.805562 0.897644 0.646734
O O7 0.858071 0.000000 0.647239
O O8 0.667697 0.794476 0.500000
O O9 0.723104 0.825113 0.653770
O O10 0.685157 0.721279 0.646396
O O11 0.500000 0.500000 0.152916
O O12 0.500000 0.428769 0.000000
O O13 0.776329 0.832864 0.500000
#
# Coordination Sequence:
#
# PCOD9513133 Si02
#       6
#    32   8  32  32  16  32
#     4  11  21  37  57  81 108 142 185 229 276 335
#     4  10  24  38  54  82 112 134 174 238 294 328
#     4  10  21  38  58  80 112 153 191 229 273 326
#     4   9  17  32  57  86 113 143 179 223 279 343
#     4  10  22  40  58  77 105 138 172 219 276 325
#     4   8  16  32  54  83 117 147 178 220 273 333
#
# _framework density 18.928884
#
# number of rings (size 3 to 8) (size 9 to 14) (size 15 to 20)
#    0.000    2.421    0.000    3.789    0.000    0.842 
#    0.000   12.632    0.000   10.737    0.000    0.000 
#    0.000    0.000    0.000    0.000    0.000    0.000 
#
# Total GULP energy -211653.835235 kJ/mol
# GULP energy per Si atom -5569.837769 kJ/mol
# Density = 1.888580 g / cm^3
# Si number density = 18.928884 Si / 1000 Ang^3
#
#
#
# Elastic Constant Matrix: (Units=GPa)
#
#
# Indices 1 2 3 4 5 6 
#
# 1 162.1466 92.5824 41.2225 0.0000 0.0000 0.0000
# 2 92.5824 156.4113 39.4647 0.0000 0.0000 0.0000
# 3 41.2225 39.4647 57.6636 0.0000 0.0000 0.0000
# 4 0.0000 0.0000 0.0000 26.9617 0.0000 0.0000
# 5 0.0000 0.0000 0.0000 0.0000 18.8703 0.0000
# 6 0.0000 0.0000 0.0000 0.0000 0.0000 29.0301
#
#
#
# Elastic Compliance Matrix: (Units=1/GPa)
#
#
# Indices 1 2 3 4 5 6 
#
# 1 0.009935 -0.004942 -0.003720 0.000000 0.000000 0.000000
# 2 -0.004942 0.010186 -0.003438 0.000000 0.000000 0.000000
# 3 -0.003720 -0.003438 0.022354 0.000000 0.000000 0.000000
# 4 0.000000 0.000000 0.000000 0.037090 0.000000 0.000000
# 5 0.000000 0.000000 0.000000 0.000000 0.052993 0.000000
# 6 0.000000 0.000000 0.000000 0.000000 0.000000 0.034447
#
#
# Mechanical properties :
#
#
# Convention : Reuss Voigt Hill
#
# Bulk Modulus (GPa) = 54.72019 80.30674 67.51347
# Shear Modulus (GPa) = 25.34243 28.50256 26.92250
#
# Velocity S-wave (km/s) = 3.66296 3.88464 3.77543
# Velocity P-wave (km/s) = 6.84549 7.91443 7.39929
#
# Compressibility (1/GPa) = 0.01827479
#
# Stress axis : x y z
#
# Youngs Moduli (GPa) = 100.65724 98.17211 44.73375
#
# Poissons Ratio (x) = 0.48516 0.16640
# Poissons Ratio (y) = 0.49744 0.15382
# Poissons Ratio (z) = 0.37443 0.33756
#
# Static dielectric constant tensor:
#      x y z
#    x 1.638470 0.000000 0.000000 
#    y 0.000000 1.635180 0.000000 
#    z 0.000000 0.000000 1.712310 
# 
# From -- ./inp_files/18783.got.cif
#   From: 2010.05.17/outbox.cif.g08.bks.cpg/sg69_10_cif.got.tgz:18783.got - 2010.06.03 19:29:58.
