data_PCOD9513669
_publ_section_title
;
Structure prediction by ZEFSAII (Michael W. Deem and Ramdas Pophale) SiO2 
 PCOD9513669
Probable space group: F M M M
;
_chemical_formula_sum "Si O2"
_cell_formula_units_Z 144
_cell_length_a 14.222366
_cell_length_b 17.437250
_cell_length_c 32.688578
_cell_angle_alpha 90.000000
_cell_angle_beta 90.000000
_cell_angle_gamma 90.000000
_cell_volume 8106.733071
_symmetry_space_group_name_H-M "F M M M"
_symmetry_group_IT_number 69
_symmetry_cell_setting 'orthorhombic'
loop_
_space_group_symop_operation_xyz
x,y,z
-x,-y,z
x,-y,-z
-x,y,-z
-x,-y,-z
x,y,-z
-x,y,z
x,-y,z
x,1/2+y,1/2+z
-x,1/2-y,1/2+z
x,1/2-y,1/2-z
-x,1/2+y,1/2-z
-x,1/2-y,1/2-z
x,1/2+y,1/2-z
-x,1/2+y,1/2+z
x,1/2-y,1/2+z
1/2+x,y,1/2+z
1/2-x,-y,1/2+z
1/2+x,-y,1/2-z
1/2-x,y,1/2-z
1/2-x,-y,1/2-z
1/2+x,y,1/2-z
1/2-x,y,1/2+z
1/2+x,-y,1/2+z
1/2+x,1/2+y,z
1/2-x,1/2-y,z
1/2+x,1/2-y,-z
1/2-x,1/2+y,-z
1/2-x,1/2-y,-z
1/2+x,1/2+y,-z
1/2-x,1/2+y,z
1/2+x,1/2-y,z
loop_
_atom_site_type_symbol
_atom_site_label
_atom_site_fract_x
_atom_site_fract_y
_atom_site_fract_z
Si Si1 0.113151 0.668851 0.583901
Si Si2 0.781828 0.589760 0.657247
Si Si3 0.892136 0.798447 0.209933
Si Si4 0.614707 0.089604 0.500000
Si Si5 0.606982 0.185372 0.131868
O O1 0.149579 0.614693 0.620220
O O2 0.145345 0.634833 0.540685
O O3 0.138405 0.756707 0.595596
O O4 0.000000 0.667517 0.584566
O O5 0.782737 0.500000 0.664191
O O6 0.819725 0.635916 0.696745
O O7 0.680718 0.619814 0.642139
O O8 0.867607 0.750000 0.250000
O O9 0.892980 0.740102 0.171736
O O10 0.000000 0.827603 0.214863
O O11 0.500000 0.089331 0.500000
O O12 0.643941 0.000000 0.500000
O O13 0.500000 0.159316 0.124607
#
# Coordination Sequence:
#
# PCOD9513669 Si02
#       5
#    32  32  32  16  32
#     4   9  17  31  52  76 103 135 167 203 255 317
#     4  11  21  32  51  77 103 132 169 216 261 301
#     4   9  18  34  55  75  98 129 161 199 250 309
#     4   9  16  26  45  78 114 136 157 207 272 318
#     4   9  19  35  51  68  96 136 177 210 246 300
#
# _framework density 17.763013000000001
#
# number of rings (size 3 to 8) (size 9 to 14) (size 15 to 20)
#    0.000    2.556    0.000    5.333    0.000    4.889 
#    0.000    4.444    0.000    4.000    0.000    0.000 
#    0.000    7.111    0.000    0.000    0.000    0.222 
#
# Total GULP energy -200706.321099 kJ/mol
# GULP energy per Si atom -5575.175586 kJ/mol
# Density = 1.772258 g / cm^3
# Si number density = 17.763013 Si / 1000 Ang^3
#
#
#
# Elastic Constant Matrix: (Units=GPa)
#
#
# Indices 1 2 3 4 5 6 
#
# 1 72.2848 36.4520 20.4991 0.0000 0.0000 0.0000
# 2 36.4520 83.3879 43.4071 0.0000 0.0000 0.0000
# 3 20.4991 43.4071 107.4944 0.0000 0.0000 0.0000
# 4 0.0000 0.0000 0.0000 21.7639 0.0000 0.0000
# 5 0.0000 0.0000 0.0000 0.0000 8.5761 0.0000
# 6 0.0000 0.0000 0.0000 0.0000 0.0000 14.3653
#
#
#
# Elastic Compliance Matrix: (Units=1/GPa)
#
#
# Indices 1 2 3 4 5 6 
#
# 1 0.017755 -0.007595 -0.000319 0.000000 0.000000 0.000000
# 2 -0.007595 0.018433 -0.005995 0.000000 0.000000 0.000000
# 3 -0.000319 -0.005995 0.011784 0.000000 0.000000 0.000000
# 4 0.000000 0.000000 0.000000 0.045948 0.000000 0.000000
# 5 0.000000 0.000000 0.000000 0.000000 0.116603 0.000000
# 6 0.000000 0.000000 0.000000 0.000000 0.000000 0.069612
#
#
# Mechanical properties :
#
#
# Convention : Reuss Voigt Hill
#
# Bulk Modulus (GPa) = 49.61786 51.54261 50.58024
# Shear Modulus (GPa) = 15.88962 19.79499 17.84230
#
# Velocity S-wave (km/s) = 2.99412 3.34187 3.17277
# Velocity P-wave (km/s) = 6.32036 6.63104 6.47756
#
# Compressibility (1/GPa) = 0.02015403
#
# Stress axis : x y z
#
# Youngs Moduli (GPa) = 56.32287 54.25050 84.85788
#
# Poissons Ratio (x) = 0.41205 0.02705
# Poissons Ratio (y) = 0.42779 0.50872
# Poissons Ratio (z) = 0.01795 0.32523
#
# Static dielectric constant tensor:
#      x y z
#    x 1.650950 0.000000 0.000000 
#    y 0.000000 1.586680 0.000000 
#    z 0.000000 0.000000 1.619000 
# 
# From -- ./inp_files/27385.got.cif
#   From: 2010.05.17/outbox.cif.g08.bks.cpg/sg69_14_cif.got.tgz:27385.got - 2010.06.03 19:29:58.
