data_PCOD9513181
_publ_section_title
;
Structure prediction by ZEFSAII (Michael W. Deem and Ramdas Pophale) SiO2 
 PCOD9513181
Probable space group: F M M M
;
_chemical_formula_sum "Si O2"
_cell_formula_units_Z 200
_cell_length_a 20.662573
_cell_length_b 17.752558
_cell_length_c 31.389231
_cell_angle_alpha 90.000000
_cell_angle_beta 90.000000
_cell_angle_gamma 90.000000
_cell_volume 11513.994489
_symmetry_space_group_name_H-M "F M M M"
_symmetry_group_IT_number 69
_symmetry_cell_setting 'orthorhombic'
loop_
_space_group_symop_operation_xyz
x,y,z
-x,-y,z
x,-y,-z
-x,y,-z
-x,-y,-z
x,y,-z
-x,y,z
x,-y,z
x,1/2+y,1/2+z
-x,1/2-y,1/2+z
x,1/2-y,1/2-z
-x,1/2+y,1/2-z
-x,1/2-y,1/2-z
x,1/2+y,1/2-z
-x,1/2+y,1/2+z
x,1/2-y,1/2+z
1/2+x,y,1/2+z
1/2-x,-y,1/2+z
1/2+x,-y,1/2-z
1/2-x,y,1/2-z
1/2-x,-y,1/2-z
1/2+x,y,1/2-z
1/2-x,y,1/2+z
1/2+x,-y,1/2+z
1/2+x,1/2+y,z
1/2-x,1/2-y,z
1/2+x,1/2-y,-z
1/2-x,1/2+y,-z
1/2-x,1/2-y,-z
1/2+x,1/2+y,-z
1/2-x,1/2+y,z
1/2+x,1/2-y,z
loop_
_atom_site_type_symbol
_atom_site_label
_atom_site_fract_x
_atom_site_fract_y
_atom_site_fract_z
Si Si1 0.401387 0.635823 0.353684
Si Si2 0.423092 0.338295 0.745246
Si Si3 0.800546 0.819260 0.950529
Si Si4 0.072253 0.704013 0.604082
Si Si5 0.129334 0.089104 0.828704
Si Si6 0.240878 0.088771 0.376262
Si Si7 0.500000 0.500000 0.626761
O O1 0.408687 0.635838 0.302611
O O2 0.424697 0.715964 0.371779
O O3 0.326475 0.628071 0.366114
O O4 0.443664 0.566827 0.371375
O O5 0.500000 0.346257 0.752690
O O6 0.406665 0.250000 0.750000
O O7 0.386584 0.385812 0.780998
O O8 0.750000 0.750000 0.947236
O O9 0.870197 0.798700 0.930429
O O10 0.770297 0.883931 0.920987
O O11 0.806646 0.839711 0.000000
O O12 0.086919 0.639166 0.638906
O O13 0.000000 0.694068 0.586296
O O14 0.203645 0.105640 0.841448
O O15 0.117976 0.000000 0.834468
O O16 0.229938 0.000000 0.376646
#
# Coordination Sequence:
#
# PCOD9513181 Si02
#       7
#    32  32  32  32  32  32   8
#     4  12  22  37  57  87 116 158 207 246 297 353
#     4  11  22  36  54  79 117 158 205 251 297 342
#     4  10  21  38  63  91 114 148 194 237 293 362
#     4  11  21  38  61  87 122 157 195 246 293 354
#     4  10  23  38  57  85 117 160 202 247 296 342
#     4  10  22  40  60  85 119 154 196 245 297 357
#     4  12  24  36  58  90 119 160 202 248 303 356
#
# _framework density 17.370166000000001
#
# number of rings (size 3 to 8) (size 9 to 14) (size 15 to 20)
#    0.000    1.280    5.600    0.480    1.120    2.560 
#    0.000    2.400    0.000    0.000    0.000    5.600 
#    0.000    0.000    0.000    0.000    0.000    0.000 
#
# Total GULP energy -278614.491514 kJ/mol
# GULP energy per Si atom -5572.289830 kJ/mol
# Density = 1.733063 g / cm^3
# Si number density = 17.370166 Si / 1000 Ang^3
#
#
#
# Elastic Constant Matrix: (Units=GPa)
#
#
# Indices 1 2 3 4 5 6 
#
# 1 130.8389 45.0084 35.2383 0.0000 0.0000 0.0000
# 2 45.0084 73.3404 11.0652 0.0000 0.0000 0.0000
# 3 35.2383 11.0652 62.5427 0.0000 0.0000 0.0000
# 4 0.0000 0.0000 0.0000 16.6555 0.0000 0.0000
# 5 0.0000 0.0000 0.0000 0.0000 7.7676 0.0000
# 6 0.0000 0.0000 0.0000 0.0000 0.0000 29.1029
#
#
#
# Elastic Compliance Matrix: (Units=1/GPa)
#
#
# Indices 1 2 3 4 5 6 
#
# 1 0.011121 -0.006041 -0.005197 0.000000 0.000000 0.000000
# 2 -0.006041 0.017290 0.000344 0.000000 0.000000 0.000000
# 3 -0.005197 0.000344 0.018856 0.000000 0.000000 0.000000
# 4 0.000000 0.000000 0.000000 0.060040 0.000000 0.000000
# 5 0.000000 0.000000 0.000000 0.000000 0.128740 0.000000
# 6 0.000000 0.000000 0.000000 0.000000 0.000000 0.034361
#
#
# Mechanical properties :
#
#
# Convention : Reuss Voigt Hill
#
# Bulk Modulus (GPa) = 39.24524 49.92731 44.58628
# Shear Modulus (GPa) = 16.62854 22.39918 19.51386
#
# Velocity S-wave (km/s) = 3.09739 3.59488 3.35537
# Velocity P-wave (km/s) = 5.95267 6.78502 6.38243
#
# Compressibility (1/GPa) = 0.02548080
#
# Stress axis : x y z
#
# Youngs Moduli (GPa) = 89.92322 57.83646 53.03276
#
# Poissons Ratio (x) = 0.34936 0.27561
# Poissons Ratio (y) = 0.54318 -0.01826
# Poissons Ratio (z) = 0.46733 -0.01992
#
# Static dielectric constant tensor:
#      x y z
#    x 1.578670 0.000000 0.000000 
#    y 0.000000 1.578490 0.000000 
#    z 0.000000 0.000000 1.560870 
# 
# From -- ./inp_files/42700.got.cif
#   From: 2010.05.17/outbox.cif.g08.bks.cpg/sg69_22_cif.got.tgz:42700.got - 2010.06.03 19:29:58.
