data_PCOD9513529
_publ_section_title
;
Structure prediction by ZEFSAII (Michael W. Deem and Ramdas Pophale) SiO2 
 PCOD9513529
Probable space group: F M M M
;
_chemical_formula_sum "Si O2"
_cell_formula_units_Z 72
_cell_length_a 10.612387
_cell_length_b 14.997393
_cell_length_c 20.509670
_cell_angle_alpha 90.000000
_cell_angle_beta 90.000000
_cell_angle_gamma 90.000000
_cell_volume 3264.280899
_symmetry_space_group_name_H-M "F M M M"
_symmetry_group_IT_number 69
_symmetry_cell_setting 'orthorhombic'
loop_
_space_group_symop_operation_xyz
x,y,z
-x,-y,z
x,-y,-z
-x,y,-z
-x,-y,-z
x,y,-z
-x,y,z
x,-y,z
x,1/2+y,1/2+z
-x,1/2-y,1/2+z
x,1/2-y,1/2-z
-x,1/2+y,1/2-z
-x,1/2-y,1/2-z
x,1/2+y,1/2-z
-x,1/2+y,1/2+z
x,1/2-y,1/2+z
1/2+x,y,1/2+z
1/2-x,-y,1/2+z
1/2+x,-y,1/2-z
1/2-x,y,1/2-z
1/2-x,-y,1/2-z
1/2+x,y,1/2-z
1/2-x,y,1/2+z
1/2+x,-y,1/2+z
1/2+x,1/2+y,z
1/2-x,1/2-y,z
1/2+x,1/2-y,-z
1/2-x,1/2+y,-z
1/2-x,1/2-y,-z
1/2+x,1/2+y,-z
1/2-x,1/2+y,z
1/2+x,1/2-y,z
loop_
_atom_site_type_symbol
_atom_site_label
_atom_site_fract_x
_atom_site_fract_y
_atom_site_fract_z
Si Si1 0.500000 0.500000 0.113649
Si Si2 0.217709 0.500000 0.074381
Si Si3 0.858387 0.178297 0.651321
Si Si4 0.500000 0.101182 0.740509
O O1 0.369978 0.500000 0.076089
O O2 0.500000 0.584294 0.164074
O O3 0.173253 0.411673 0.112127
O O4 0.172931 0.500000 0.000000
O O5 0.750000 0.250000 0.642011
O O6 0.882669 0.150364 0.726904
O O7 0.000000 0.208823 0.630997
O O8 0.500000 0.000000 0.767260
#
# Coordination Sequence:
#
# PCOD9513529 Si02
#       4
#     8  16  32  16
#     4  10  23  42  72  98 143 182 228 284 338 416
#     4  12  25  44  70  96 139 189 235 276 338 406
#     4  10  22  44  71 109 134 178 228 282 353 406
#     4   8  18  44  69  98 134 181 215 281 351 408
#
# _framework density 22.056923999999999
#
# number of rings (size 3 to 8) (size 9 to 14) (size 15 to 20)
#    2.000    0.000    2.222    1.000    3.111    6.222 
#    0.000    6.667    0.000    0.000    0.000    0.000 
#    0.000    0.000    0.000    0.000    0.000    0.000 
#
# Total GULP energy -100458.014761 kJ/mol
# GULP energy per Si atom -5581.000820 kJ/mol
# Density = 2.200672 g / cm^3
# Si number density = 22.056924 Si / 1000 Ang^3
#
#
#
# Elastic Constant Matrix: (Units=GPa)
#
#
# Indices 1 2 3 4 5 6 
#
# 1 192.6724 83.4842 21.4512 0.0000 0.0000 0.0000
# 2 83.4842 186.3106 39.2933 0.0000 0.0000 0.0000
# 3 21.4512 39.2933 77.8941 0.0000 0.0000 0.0000
# 4 0.0000 0.0000 0.0000 9.2919 0.0000 0.0000
# 5 0.0000 0.0000 0.0000 0.0000 19.5928 0.0000
# 6 0.0000 0.0000 0.0000 0.0000 0.0000 22.9567
#
#
#
# Elastic Compliance Matrix: (Units=1/GPa)
#
#
# Indices 1 2 3 4 5 6 
#
# 1 0.006449 -0.002815 -0.000356 0.000000 0.000000 0.000000
# 2 -0.002815 0.007235 -0.002874 0.000000 0.000000 0.000000
# 3 -0.000356 -0.002874 0.014386 0.000000 0.000000 0.000000
# 4 0.000000 0.000000 0.000000 0.107621 0.000000 0.000000
# 5 0.000000 0.000000 0.000000 0.000000 0.051039 0.000000
# 6 0.000000 0.000000 0.000000 0.000000 0.000000 0.043560
#
#
# Mechanical properties :
#
#
# Convention : Reuss Voigt Hill
#
# Bulk Modulus (GPa) = 62.58021 82.81494 72.69757
# Shear Modulus (GPa) = 20.18505 31.21149 25.69827
#
# Velocity S-wave (km/s) = 3.02840 3.76579 3.41704
# Velocity P-wave (km/s) = 6.37668 7.51902 6.97129
#
# Compressibility (1/GPa) = 0.01597949
#
# Stress axis : x y z
#
# Youngs Moduli (GPa) = 155.05148 138.21872 69.51187
#
# Poissons Ratio (x) = 0.38906 0.02476
# Poissons Ratio (y) = 0.43644 0.19981
# Poissons Ratio (z) = 0.05523 0.39730
#
# Static dielectric constant tensor:
#      x y z
#    x 1.827650 0.000000 0.000000 
#    y 0.000000 1.815700 0.000000 
#    z 0.000000 0.000000 1.771400 
# 
# From -- ./inp_files/28657.got.cif
#   From: 2010.05.17/outbox.cif.g08.bks.cpg/sg69_15_cif.got.tgz:28657.got - 2010.06.03 19:29:58.
