data_PCOD9513517
_publ_section_title
;
Structure prediction by ZEFSAII (Michael W. Deem and Ramdas Pophale) SiO2 
 PCOD9513517
Probable space group: F M M M
;
_chemical_formula_sum "Si O2"
_cell_formula_units_Z 88
_cell_length_a 13.615285
_cell_length_b 10.056620
_cell_length_c 36.081225
_cell_angle_alpha 90.000000
_cell_angle_beta 90.000000
_cell_angle_gamma 90.000000
_cell_volume 4940.376539
_symmetry_space_group_name_H-M "F M M M"
_symmetry_group_IT_number 69
_symmetry_cell_setting 'orthorhombic'
loop_
_space_group_symop_operation_xyz
x,y,z
-x,-y,z
x,-y,-z
-x,y,-z
-x,-y,-z
x,y,-z
-x,y,z
x,-y,z
x,1/2+y,1/2+z
-x,1/2-y,1/2+z
x,1/2-y,1/2-z
-x,1/2+y,1/2-z
-x,1/2-y,1/2-z
x,1/2+y,1/2-z
-x,1/2+y,1/2+z
x,1/2-y,1/2+z
1/2+x,y,1/2+z
1/2-x,-y,1/2+z
1/2+x,-y,1/2-z
1/2-x,y,1/2-z
1/2-x,-y,1/2-z
1/2+x,y,1/2-z
1/2-x,y,1/2+z
1/2+x,-y,1/2+z
1/2+x,1/2+y,z
1/2-x,1/2-y,z
1/2+x,1/2-y,-z
1/2-x,1/2+y,-z
1/2-x,1/2-y,-z
1/2+x,1/2+y,-z
1/2-x,1/2+y,z
1/2+x,1/2-y,z
loop_
_atom_site_type_symbol
_atom_site_label
_atom_site_fract_x
_atom_site_fract_y
_atom_site_fract_z
Si Si1 0.889622 0.840851 0.000000
Si Si2 0.204322 0.000000 0.616301
Si Si3 0.000000 0.500000 0.839201
Si Si4 0.000000 0.226174 0.793610
Si Si5 0.250000 0.750000 0.934988
Si Si6 0.105698 0.500000 0.668329
O O1 0.835573 0.793464 0.963007
O O2 0.000000 0.790849 0.000000
O O3 0.888287 0.000000 0.000000
O O4 0.216082 0.870728 0.590693
O O5 0.296313 0.000000 0.644837
O O6 0.099577 0.000000 0.636656
O O7 0.000000 0.366047 0.814605
O O8 0.000000 0.250000 0.750000
O O9 0.908797 0.132257 0.806723
O O10 0.000000 0.500000 0.645787
#
# Coordination Sequence:
#
# PCOD9513517 Si02
#       6
#    16  16   8  16  16  16
#     4  10  22  43  62  89 116 155 215 246 301 375
#     4  12  24  40  59  91 129 161 201 243 320 349
#     4  12  24  36  60  95 126 150 208 262 284 357
#     4   9  19  41  65  89 121 157 204 250 302 349
#     4  11  24  40  62  88 119 164 198 256 301 368
#     4   8  21  40  60  84 124 163 197 242 297 383
#
# _framework density 17.812405999999999
#
# number of rings (size 3 to 8) (size 9 to 14) (size 15 to 20)
#    1.091    0.545    1.818    3.273    2.545    1.455 
#    0.000    6.364    0.000    0.000    0.000    0.000 
#    0.000    0.000    0.000    0.000    0.000    0.000 
#
# Total GULP energy -122616.665283 kJ/mol
# GULP energy per Si atom -5573.484786 kJ/mol
# Density = 1.777186 g / cm^3
# Si number density = 17.812406 Si / 1000 Ang^3
#
#
#
# Elastic Constant Matrix: (Units=GPa)
#
#
# Indices 1 2 3 4 5 6 
#
# 1 164.4171 55.6125 99.2691 0.0000 0.0000 0.0000
# 2 55.6125 169.1585 96.3599 0.0000 0.0000 0.0000
# 3 99.2691 96.3599 163.9039 0.0000 0.0000 0.0000
# 4 0.0000 0.0000 0.0000 60.8769 0.0000 0.0000
# 5 0.0000 0.0000 0.0000 0.0000 -5.6855 0.0000
# 6 0.0000 0.0000 0.0000 0.0000 0.0000 4.5698
#
#
#
# Elastic Compliance Matrix: (Units=1/GPa)
#
#
# Indices 1 2 3 4 5 6 
#
# 1 0.009594 0.000234 -0.005949 0.000000 0.000000 0.000000
# 2 0.000234 0.008894 -0.005371 0.000000 0.000000 0.000000
# 3 -0.005949 -0.005371 0.012861 0.000000 0.000000 0.000000
# 4 0.000000 0.000000 0.000000 0.016427 0.000000 0.000000
# 5 0.000000 0.000000 0.000000 0.000000 -0.175887 0.000000
# 6 0.000000 0.000000 0.000000 0.000000 0.000000 0.218828
#
#
# Mechanical properties :
#
#
# Convention : Reuss Voigt Hill
#
# Bulk Modulus (GPa) = 108.93577 111.10695 110.02136
# Shear Modulus (GPa) = 43.12291 28.36812 35.74551
#
# Velocity S-wave (km/s) = 4.92565 3.99507 4.48457
# Velocity P-wave (km/s) = 9.67675 9.15382 9.41891
#
# Compressibility (1/GPa) = 0.00917972
#
# Stress axis : x y z
#
# Youngs Moduli (GPa) = 104.22721 112.43560 77.75158
#
# Poissons Ratio (x) = -0.02635 0.46252
# Poissons Ratio (y) = -0.02443 0.41758
# Poissons Ratio (z) = 0.62001 0.60386
#
# Static dielectric constant tensor:
#      x y z
#    x 1.610560 0.000000 0.000000 
#    y 0.000000 1.598570 0.000000 
#    z 0.000000 0.000000 1.570840 
# 
# From -- ./inp_files/35414.got.cif
#   From: 2010.05.17/outbox.cif.g08.bks.cpg/sg69_18_cif.got.tgz:35414.got - 2010.06.03 19:29:58.
