data_PCOD9513155
_publ_section_title
;
Structure prediction by ZEFSAII (Michael W. Deem and Ramdas Pophale) SiO2 
 PCOD9513155
Probable space group: F M M M
;
_chemical_formula_sum "Si O2"
_cell_formula_units_Z 208
_cell_length_a 18.071812
_cell_length_b 21.634280
_cell_length_c 29.275747
_cell_angle_alpha 90.000000
_cell_angle_beta 90.000000
_cell_angle_gamma 90.000000
_cell_volume 11445.957568
_symmetry_space_group_name_H-M "F M M M"
_symmetry_group_IT_number 69
_symmetry_cell_setting 'orthorhombic'
loop_
_space_group_symop_operation_xyz
x,y,z
-x,-y,z
x,-y,-z
-x,y,-z
-x,-y,-z
x,y,-z
-x,y,z
x,-y,z
x,1/2+y,1/2+z
-x,1/2-y,1/2+z
x,1/2-y,1/2-z
-x,1/2+y,1/2-z
-x,1/2-y,1/2-z
x,1/2+y,1/2-z
-x,1/2+y,1/2+z
x,1/2-y,1/2+z
1/2+x,y,1/2+z
1/2-x,-y,1/2+z
1/2+x,-y,1/2-z
1/2-x,y,1/2-z
1/2-x,-y,1/2-z
1/2+x,y,1/2-z
1/2-x,y,1/2+z
1/2+x,-y,1/2+z
1/2+x,1/2+y,z
1/2-x,1/2-y,z
1/2+x,1/2-y,-z
1/2-x,1/2+y,-z
1/2-x,1/2-y,-z
1/2+x,1/2+y,-z
1/2-x,1/2+y,z
1/2+x,1/2-y,z
loop_
_atom_site_type_symbol
_atom_site_label
_atom_site_fract_x
_atom_site_fract_y
_atom_site_fract_z
Si Si1 0.911938 0.930202 0.722325
Si Si2 0.163266 0.763465 0.867495
Si Si3 0.199300 0.073258 0.554199
Si Si4 0.353768 0.643817 0.054319
Si Si5 0.412345 0.367961 0.625519
Si Si6 0.165492 0.315555 0.730723
Si Si7 0.000000 0.568814 0.444696
O O1 0.900420 0.911758 0.669397
O O2 0.874483 0.876450 0.751563
O O3 0.000000 0.928918 0.730388
O O4 0.884951 0.000000 0.731198
O O5 0.250000 0.750000 0.869947
O O6 0.142440 0.795952 0.914645
O O7 0.117855 0.700212 0.861947
O O8 0.157149 0.808009 0.823607
O O9 0.184706 0.079901 0.500000
O O10 0.277845 0.106635 0.563509
O O11 0.135898 0.105347 0.584019
O O12 0.204150 0.000000 0.564164
O O13 0.424929 0.603427 0.067322
O O14 0.356299 0.656934 0.000000
O O15 0.500000 0.365834 0.615633
O O16 0.135249 0.250000 0.750000
O O17 0.250000 0.318494 0.750000
O O18 0.000000 0.500000 0.425904
O O19 0.000000 0.565412 0.500000
#
# Coordination Sequence:
#
# PCOD9513155 Si02
#       7
#    32  32  32  32  32  32  16
#     4  10  22  41  63  88 121 159 201 251 304 361
#     4  12  22  39  62  87 120 157 200 249 306 364
#     4  10  21  38  60  86 118 158 204 252 304 360
#     4  10  22  38  61  92 123 158 199 249 304 362
#     4  11  23  38  59  87 118 163 207 246 302 364
#     4  11  21  39  64  90 117 157 203 251 300 360
#     4   9  18  38  64  88 121 162 201 245 302 369
#
# _framework density 18.172353999999999
#
# number of rings (size 3 to 8) (size 9 to 14) (size 15 to 20)
#    0.000    1.462    4.615    0.923    1.077    5.231 
#    0.000    2.308    0.000    0.000    0.000    0.000 
#    0.000    0.000    0.000    0.000    0.000    0.000 
#
# Total GULP energy -290228.588455 kJ/mol
# GULP energy per Si atom -5581.319009 kJ/mol
# Density = 1.813099 g / cm^3
# Si number density = 18.172354 Si / 1000 Ang^3
#
#
#
# Elastic Constant Matrix: (Units=GPa)
#
#
# Indices 1 2 3 4 5 6 
#
# 1 77.1570 55.2719 30.2139 0.0000 0.0000 0.0000
# 2 55.2719 141.2457 51.8985 0.0000 0.0000 0.0000
# 3 30.2139 51.8985 57.4100 0.0000 0.0000 0.0000
# 4 0.0000 0.0000 0.0000 31.3104 0.0000 0.0000
# 5 0.0000 0.0000 0.0000 0.0000 27.1755 0.0000
# 6 0.0000 0.0000 0.0000 0.0000 0.0000 -22.9310
#
#
#
# Elastic Compliance Matrix: (Units=1/GPa)
#
#
# Indices 1 2 3 4 5 6 
#
# 1 0.018879 -0.005596 -0.004877 0.000000 0.000000 0.000000
# 2 -0.005596 0.012260 -0.008138 0.000000 0.000000 0.000000
# 3 -0.004877 -0.008138 0.027342 0.000000 0.000000 0.000000
# 4 0.000000 0.000000 0.000000 0.031938 0.000000 0.000000
# 5 0.000000 0.000000 0.000000 0.000000 0.036798 0.000000
# 6 0.000000 0.000000 0.000000 0.000000 0.000000 -0.043609
#
#
# Mechanical properties :
#
#
# Convention : Reuss Voigt Hill
#
# Bulk Modulus (GPa) = 47.03854 61.17570 54.10712
# Shear Modulus (GPa) = 39.08842 16.33953 27.71397
#
# Velocity S-wave (km/s) = 4.64290 3.00182 3.90944
# Velocity P-wave (km/s) = 7.39479 6.76401 7.08642
#
# Compressibility (1/GPa) = 0.02125916
#
# Stress axis : x y z
#
# Youngs Moduli (GPa) = 52.96917 81.56881 36.57389
#
# Poissons Ratio (x) = 0.45642 0.17838
# Poissons Ratio (y) = 0.29639 0.29763
# Poissons Ratio (z) = 0.25835 0.66379
#
# Static dielectric constant tensor:
#      x y z
#    x 1.616200 0.000000 0.000000 
#    y 0.000000 1.628110 0.000000 
#    z 0.000000 0.000000 1.622470 
# 
# From -- ./inp_files/42037.got.cif
#   From: 2010.05.17/outbox.cif.g08.bks.cpg/sg69_22_cif.got.tgz:42037.got - 2010.06.03 19:29:58.
