data_PCOD9513185
_publ_section_title
;
Structure prediction by ZEFSAII (Michael W. Deem and Ramdas Pophale) SiO2 
 PCOD9513185
Probable space group: F M M M
;
_chemical_formula_sum "Si O2"
_cell_formula_units_Z 192
_cell_length_a 19.858526
_cell_length_b 16.448569
_cell_length_c 30.628450
_cell_angle_alpha 90.000000
_cell_angle_beta 90.000000
_cell_angle_gamma 90.000000
_cell_volume 10004.609687
_symmetry_space_group_name_H-M "F M M M"
_symmetry_group_IT_number 69
_symmetry_cell_setting 'orthorhombic'
loop_
_space_group_symop_operation_xyz
x,y,z
-x,-y,z
x,-y,-z
-x,y,-z
-x,-y,-z
x,y,-z
-x,y,z
x,-y,z
x,1/2+y,1/2+z
-x,1/2-y,1/2+z
x,1/2-y,1/2-z
-x,1/2+y,1/2-z
-x,1/2-y,1/2-z
x,1/2+y,1/2-z
-x,1/2+y,1/2+z
x,1/2-y,1/2+z
1/2+x,y,1/2+z
1/2-x,-y,1/2+z
1/2+x,-y,1/2-z
1/2-x,y,1/2-z
1/2-x,-y,1/2-z
1/2+x,y,1/2-z
1/2-x,y,1/2+z
1/2+x,-y,1/2+z
1/2+x,1/2+y,z
1/2-x,1/2-y,z
1/2+x,1/2-y,-z
1/2-x,1/2+y,-z
1/2-x,1/2-y,-z
1/2+x,1/2+y,-z
1/2-x,1/2+y,z
1/2+x,1/2-y,z
loop_
_atom_site_type_symbol
_atom_site_label
_atom_site_fract_x
_atom_site_fract_y
_atom_site_fract_z
Si Si1 0.831445 0.749610 0.548345
Si Si2 0.421954 0.093214 0.571467
Si Si3 0.113317 0.368704 0.668800
Si Si4 0.000000 0.406584 0.164001
Si Si5 0.635235 0.183912 0.140448
Si Si6 0.500000 0.652841 0.761064
Si Si7 0.741829 0.907608 0.200779
O O1 0.851906 0.778241 0.500000
O O2 0.750000 0.750000 0.549235
O O3 0.868664 0.661723 0.555439
O O4 0.850683 0.805328 0.589261
O O5 0.500000 0.112453 0.559136
O O6 0.417409 0.096224 0.624264
O O7 0.407286 0.000000 0.557440
O O8 0.126448 0.274060 0.659248
O O9 0.184367 0.408060 0.679932
O O10 0.063824 0.371352 0.709739
O O11 0.066341 0.363439 0.146628
O O12 0.000000 0.394295 0.215965
O O13 0.000000 0.500000 0.152206
O O14 0.693318 0.141667 0.168795
O O15 0.500000 0.750000 0.750000
O O16 0.750000 0.873457 0.250000
O O17 0.715713 0.000000 0.205040
#
# Coordination Sequence:
#
# PCOD9513185 Si02
#       7
#    32  32  32  16  32  16  32
#     4  10  23  43  68  98 124 162 214 259 317 390
#     4  10  21  38  63  98 134 166 201 257 336 399
#     4  11  21  36  60  87 120 164 213 253 307 381
#     4  12  26  40  61  87 121 167 215 261 309 364
#     4  11  22  41  63  87 122 167 207 258 315 366
#     4  12  22  38  58  90 121 166 214 259 306 366
#     4  11  24  38  56  88 127 166 212 263 317 371
#
# _framework density 19.191153
#
# number of rings (size 3 to 8) (size 9 to 14) (size 15 to 20)
#    0.000    1.167    2.500    4.500    3.500    4.000 
#    0.000    1.667    0.000    4.500    0.000    0.000 
#    0.000    0.000    0.000    0.000    0.000    0.000 
#
# Total GULP energy -268163.852799 kJ/mol
# GULP energy per Si atom -5586.746933 kJ/mol
# Density = 1.914747 g / cm^3
# Si number density = 19.191153 Si / 1000 Ang^3
#
#
#
# Elastic Constant Matrix: (Units=GPa)
#
#
# Indices 1 2 3 4 5 6 
#
# 1 132.5216 45.1241 58.6008 0.0000 0.0000 0.0000
# 2 45.1241 95.9073 38.2067 0.0000 0.0000 0.0000
# 3 58.6008 38.2067 162.2477 0.0000 0.0000 0.0000
# 4 0.0000 0.0000 0.0000 6.3152 0.0000 0.0000
# 5 0.0000 0.0000 0.0000 0.0000 33.0351 0.0000
# 6 0.0000 0.0000 0.0000 0.0000 0.0000 161.0277
#
#
#
# Elastic Compliance Matrix: (Units=1/GPa)
#
#
# Indices 1 2 3 4 5 6 
#
# 1 0.009993 -0.003602 -0.002761 0.000000 0.000000 0.000000
# 2 -0.003602 0.012804 -0.001714 0.000000 0.000000 0.000000
# 3 -0.002761 -0.001714 0.007564 0.000000 0.000000 0.000000
# 4 0.000000 0.000000 0.000000 0.158347 0.000000 0.000000
# 5 0.000000 0.000000 0.000000 0.000000 0.030271 0.000000
# 6 0.000000 0.000000 0.000000 0.000000 0.000000 0.006210
#
#
# Mechanical properties :
#
#
# Convention : Reuss Voigt Hill
#
# Bulk Modulus (GPa) = 70.38613 74.94886 72.66750
# Shear Modulus (GPa) = 20.31853 56.65862 38.48857
#
# Velocity S-wave (km/s) = 3.25737 5.43943 4.48318
# Velocity P-wave (km/s) = 7.13465 8.86502 8.04648
#
# Compressibility (1/GPa) = 0.01420735
#
# Stress axis : x y z
#
# Youngs Moduli (GPa) = 100.06594 78.09863 132.19799
#
# Poissons Ratio (x) = 0.28130 0.36503
# Poissons Ratio (y) = 0.36042 0.22662
# Poissons Ratio (z) = 0.27631 0.13388
#
# Static dielectric constant tensor:
#      x y z
#    x 1.657720 0.000000 0.000000 
#    y 0.000000 1.678330 0.000000 
#    z 0.000000 0.000000 1.581480 
# 
# From -- ./inp_files/46446.got.cif
#   From: 2010.05.17/outbox.cif.g08.bks.cpg/sg69_24_cif.got.tgz:46446.got - 2010.06.03 19:29:58.
