data_PCOD9513919
_publ_section_title
;
Structure prediction by ZEFSAII (Michael W. Deem and Ramdas Pophale) SiO2 
 PCOD9513919
Probable space group: F M M M
;
_chemical_formula_sum "Si O2"
_cell_formula_units_Z 128
_cell_length_a 32.645895
_cell_length_b 14.408289
_cell_length_c 13.949343
_cell_angle_alpha 90.000000
_cell_angle_beta 90.000000
_cell_angle_gamma 90.000000
_cell_volume 6561.373249
_symmetry_space_group_name_H-M "F M M M"
_symmetry_group_IT_number 69
_symmetry_cell_setting 'orthorhombic'
loop_
_space_group_symop_operation_xyz
x,y,z
-x,-y,z
x,-y,-z
-x,y,-z
-x,-y,-z
x,y,-z
-x,y,z
x,-y,z
x,1/2+y,1/2+z
-x,1/2-y,1/2+z
x,1/2-y,1/2-z
-x,1/2+y,1/2-z
-x,1/2-y,1/2-z
x,1/2+y,1/2-z
-x,1/2+y,1/2+z
x,1/2-y,1/2+z
1/2+x,y,1/2+z
1/2-x,-y,1/2+z
1/2+x,-y,1/2-z
1/2-x,y,1/2-z
1/2-x,-y,1/2-z
1/2+x,y,1/2-z
1/2-x,y,1/2+z
1/2+x,-y,1/2+z
1/2+x,1/2+y,z
1/2-x,1/2-y,z
1/2+x,1/2-y,-z
1/2-x,1/2+y,-z
1/2-x,1/2-y,-z
1/2+x,1/2+y,-z
1/2-x,1/2+y,z
1/2+x,1/2-y,z
loop_
_atom_site_type_symbol
_atom_site_label
_atom_site_fract_x
_atom_site_fract_y
_atom_site_fract_z
Si Si1 0.110645 0.250000 0.250000
Si Si2 0.952139 0.111534 0.214695
Si Si3 0.950664 0.395727 0.500000
Si Si4 0.237113 0.396335 0.883867
Si Si5 0.184074 0.216573 0.115011
O O1 0.080024 0.166672 0.278949
O O2 0.141378 0.213004 0.168753
O O3 0.942083 0.143795 0.105025
O O4 0.000000 0.132292 0.234719
O O5 0.947801 0.000000 0.218897
O O6 0.932868 0.500000 0.500000
O O7 0.000000 0.404099 0.500000
O O8 0.227762 0.500000 0.849930
O O9 0.205291 0.315226 0.859435
O O10 0.282509 0.361222 0.856585
O O11 0.237193 0.398205 0.000000
O O12 0.179030 0.212052 0.000000
#
# Coordination Sequence:
#
# PCOD9513919 Si02
#       5
#    16  32  16  32  32
#     4  12  23  31  52  82 110 140 170 213 279 314
#     4   9  19  36  55  76 104 138 178 219 262 317
#     4   7  12  28  54  76  93 122 167 217 262 302
#     4   8  15  33  57  72  96 142 180 212 258 304
#     4   9  20  35  49  76 109 133 173 220 255 311
#
# _framework density 19.508111
#
# number of rings (size 3 to 8) (size 9 to 14) (size 15 to 20)
#    0.000    3.125    0.000    3.375    1.750    4.000 
#    0.000    1.250    0.000    0.000    0.000    1.750 
#    0.000    0.000    0.000    0.000    0.000    0.000 
#
# Total GULP energy -178262.565587 kJ/mol
# GULP energy per Si atom -5570.705175 kJ/mol
# Density = 1.946371 g / cm^3
# Si number density = 19.508111 Si / 1000 Ang^3
#
#
#
# Elastic Constant Matrix: (Units=GPa)
#
#
# Indices 1 2 3 4 5 6 
#
# 1 122.1100 35.6162 -4.9928 0.0000 0.0000 0.0000
# 2 35.6162 88.6930 -19.5008 0.0000 0.0000 0.0000
# 3 -4.9928 -19.5008 17.8104 0.0000 0.0000 0.0000
# 4 0.0000 0.0000 0.0000 13.8853 0.0000 0.0000
# 5 0.0000 0.0000 0.0000 0.0000 23.9392 0.0000
# 6 0.0000 0.0000 0.0000 0.0000 0.0000 -1.3550
#
#
#
# Elastic Compliance Matrix: (Units=1/GPa)
#
#
# Indices 1 2 3 4 5 6 
#
# 1 0.009327 -0.004176 -0.001958 0.000000 0.000000 0.000000
# 2 -0.004176 0.016719 0.017136 0.000000 0.000000 0.000000
# 3 -0.001958 0.017136 0.074360 0.000000 0.000000 0.000000
# 4 0.000000 0.000000 0.000000 0.072019 0.000000 0.000000
# 5 0.000000 0.000000 0.000000 0.000000 0.041773 0.000000
# 6 0.000000 0.000000 0.000000 0.000000 0.000000 -0.737996
#
#
# Mechanical properties :
#
#
# Convention : Reuss Voigt Hill
#
# Bulk Modulus (GPa) = 8.16918 27.87315 18.02117
# Shear Modulus (GPa) = -9.90102 21.79328 5.94613
#
# Velocity S-wave (km/s) = -2.25529 3.34599 1.74775
# Velocity P-wave (km/s) = 1.60783 5.40801 3.65112
#
# Compressibility (1/GPa) = 0.12241125
#
# Stress axis : x y z
#
# Youngs Moduli (GPa) = 107.21213 59.81091 13.44803
#
# Poissons Ratio (x) = 0.24977 0.02633
# Poissons Ratio (y) = 0.44771 -0.23044
# Poissons Ratio (z) = 0.20987 -1.02490
#
# Static dielectric constant tensor:
#      x y z
#    x 1.654430 0.000000 0.000000 
#    y 0.000000 1.696040 0.000000 
#    z 0.000000 0.000000 1.775850 
# 
# From -- ./inp_files/18615.got.cif
#   From: 2010.05.17/outbox.cif.g08.bks.cpg/sg69_10_cif.got.tgz:18615.got - 2010.06.03 19:29:58.
