data_PCOD9513349
_publ_section_title
;
Structure prediction by ZEFSAII (Michael W. Deem and Ramdas Pophale) SiO2 
 PCOD9513349
Probable space group: F M M M
;
_chemical_formula_sum "Si O2"
_cell_formula_units_Z 112
_cell_length_a 13.962074
_cell_length_b 9.979520
_cell_length_c 38.253307
_cell_angle_alpha 90.000000
_cell_angle_beta 90.000000
_cell_angle_gamma 90.000000
_cell_volume 5330.016755
_symmetry_space_group_name_H-M "F M M M"
_symmetry_group_IT_number 69
_symmetry_cell_setting 'orthorhombic'
loop_
_space_group_symop_operation_xyz
x,y,z
-x,-y,z
x,-y,-z
-x,y,-z
-x,-y,-z
x,y,-z
-x,y,z
x,-y,z
x,1/2+y,1/2+z
-x,1/2-y,1/2+z
x,1/2-y,1/2-z
-x,1/2+y,1/2-z
-x,1/2-y,1/2-z
x,1/2+y,1/2-z
-x,1/2+y,1/2+z
x,1/2-y,1/2+z
1/2+x,y,1/2+z
1/2-x,-y,1/2+z
1/2+x,-y,1/2-z
1/2-x,y,1/2-z
1/2-x,-y,1/2-z
1/2+x,y,1/2-z
1/2-x,y,1/2+z
1/2+x,-y,1/2+z
1/2+x,1/2+y,z
1/2-x,1/2-y,z
1/2+x,1/2-y,-z
1/2-x,1/2+y,-z
1/2-x,1/2-y,-z
1/2+x,1/2+y,-z
1/2-x,1/2+y,z
1/2+x,1/2-y,z
loop_
_atom_site_type_symbol
_atom_site_label
_atom_site_fract_x
_atom_site_fract_y
_atom_site_fract_z
Si Si1 0.750000 0.750000 0.902479
Si Si2 0.892822 0.840646 0.538612
Si Si3 0.112853 0.350778 0.344560
Si Si4 0.383934 0.653272 0.718331
O O1 0.824144 0.683760 0.929127
O O2 0.815745 0.839323 0.877071
O O3 0.861971 0.789652 0.500000
O O4 0.000000 0.787022 0.545242
O O5 0.899618 0.000000 0.535684
O O6 0.121406 0.500000 0.328445
O O7 0.136974 0.233106 0.317315
O O8 0.000000 0.335060 0.354391
O O9 0.500000 0.644969 0.720317
O O10 0.347550 0.500000 0.719344
O O11 0.354278 0.750000 0.750000
#
# Coordination Sequence:
#
# PCOD9513349 Si02
#       4
#    16  32  32  32
#     4  12  21  34  57  84 112 150 196 238 283 342
#     4   9  19  36  57  82 112 146 187 236 287 340
#     4  10  22  38  55  81 119 157 193 238 293 349
#     4   9  17  32  57  85 113 150 196 243 291 343
#
# _framework density 21.013065999999998
#
# number of rings (size 3 to 8) (size 9 to 14) (size 15 to 20)
#    0.000    2.286    0.000    3.857    0.000    5.714 
#    0.000    3.571    0.000    3.429    0.000   12.000 
#    0.000    0.000    0.000    0.000    0.000    0.000 
#
# Total GULP energy -156177.952591 kJ/mol
# GULP energy per Si atom -5577.784021 kJ/mol
# Density = 2.096524 g / cm^3
# Si number density = 21.013066 Si / 1000 Ang^3
#
#
#
# Elastic Constant Matrix: (Units=GPa)
#
#
# Indices 1 2 3 4 5 6 
#
# 1 113.6377 40.0649 59.0477 0.0000 0.0000 0.0000
# 2 40.0649 137.4257 68.9689 0.0000 0.0000 0.0000
# 3 59.0477 68.9689 140.8050 0.0000 0.0000 0.0000
# 4 0.0000 0.0000 0.0000 26.1375 0.0000 0.0000
# 5 0.0000 0.0000 0.0000 0.0000 14.7201 0.0000
# 6 0.0000 0.0000 0.0000 0.0000 0.0000 59.6687
#
#
#
# Elastic Compliance Matrix: (Units=1/GPa)
#
#
# Indices 1 2 3 4 5 6 
#
# 1 0.011405 -0.001226 -0.004182 0.000000 0.000000 0.000000
# 2 -0.001226 0.009780 -0.004276 0.000000 0.000000 0.000000
# 3 -0.004182 -0.004276 0.010951 0.000000 0.000000 0.000000
# 4 0.000000 0.000000 0.000000 0.038259 0.000000 0.000000
# 5 0.000000 0.000000 0.000000 0.000000 0.067934 0.000000
# 6 0.000000 0.000000 0.000000 0.000000 0.000000 0.016759
#
#
# Mechanical properties :
#
#
# Convention : Reuss Voigt Hill
#
# Bulk Modulus (GPa) = 78.32991 80.89236 79.61114
# Shear Modulus (GPa) = 27.97761 35.02439 31.50100
#
# Velocity S-wave (km/s) = 3.65285 4.08706 3.87604
# Velocity P-wave (km/s) = 7.42622 7.80076 7.61579
#
# Compressibility (1/GPa) = 0.01276652
#
# Stress axis : x y z
#
# Youngs Moduli (GPa) = 87.67768 102.24665 91.31944
#
# Poissons Ratio (x) = 0.12537 0.38193
# Poissons Ratio (y) = 0.10751 0.39052
# Poissons Ratio (z) = 0.36670 0.43724
#
# Static dielectric constant tensor:
#      x y z
#    x 1.801230 0.000000 0.000000 
#    y 0.000000 1.744890 0.000000 
#    z 0.000000 0.000000 1.748400 
# 
# From -- ./inp_files/45389.got.cif
#   From: 2010.05.17/outbox.cif.g08.bks.cpg/sg69_23_cif.got.tgz:45389.got - 2010.06.03 19:29:58.
