data_PCOD9513430
_publ_section_title
;
Structure prediction by ZEFSAII (Michael W. Deem and Ramdas Pophale) SiO2 
 PCOD9513430
Probable space group: F M M M
;
_chemical_formula_sum "Si O2"
_cell_formula_units_Z 168
_cell_length_a 13.228286
_cell_length_b 23.171750
_cell_length_c 28.117404
_cell_angle_alpha 90.000000
_cell_angle_beta 90.000000
_cell_angle_gamma 90.000000
_cell_volume 8618.617983
_symmetry_space_group_name_H-M "F M M M"
_symmetry_group_IT_number 69
_symmetry_cell_setting 'orthorhombic'
loop_
_space_group_symop_operation_xyz
x,y,z
-x,-y,z
x,-y,-z
-x,y,-z
-x,-y,-z
x,y,-z
-x,y,z
x,-y,z
x,1/2+y,1/2+z
-x,1/2-y,1/2+z
x,1/2-y,1/2-z
-x,1/2+y,1/2-z
-x,1/2-y,1/2-z
x,1/2+y,1/2-z
-x,1/2+y,1/2+z
x,1/2-y,1/2+z
1/2+x,y,1/2+z
1/2-x,-y,1/2+z
1/2+x,-y,1/2-z
1/2-x,y,1/2-z
1/2-x,-y,1/2-z
1/2+x,y,1/2-z
1/2-x,y,1/2+z
1/2+x,-y,1/2+z
1/2+x,1/2+y,z
1/2-x,1/2-y,z
1/2+x,1/2-y,-z
1/2-x,1/2+y,-z
1/2-x,1/2-y,-z
1/2+x,1/2+y,-z
1/2-x,1/2+y,z
1/2+x,1/2-y,z
loop_
_atom_site_type_symbol
_atom_site_label
_atom_site_fract_x
_atom_site_fract_y
_atom_site_fract_z
Si Si1 0.620430 0.567229 0.856365
Si Si2 0.876913 0.663286 0.281747
Si Si3 0.738745 0.432583 0.445983
Si Si4 0.122622 0.209737 0.682101
Si Si5 0.750000 0.250000 0.000000
Si Si6 0.880314 0.676888 0.924004
O O1 0.500000 0.574598 0.863482
O O2 0.638760 0.500000 0.844438
O O3 0.653970 0.609333 0.813964
O O4 0.677766 0.579823 0.905700
O O5 0.849706 0.723959 0.306773
O O6 0.845770 0.669757 0.226571
O O7 0.000000 0.661126 0.280884
O O8 0.777149 0.422789 0.500000
O O9 0.710750 0.500000 0.442119
O O10 0.647736 0.388797 0.437007
O O11 0.152592 0.188732 0.630295
O O12 0.000000 0.209044 0.682405
O O13 0.818299 0.282243 0.958798
O O14 0.000000 0.687076 0.928334
#
# Coordination Sequence:
#
# PCOD9513430 Si02
#       6
#    32  32  32  32   8  32
#     4   9  18  33  56  87 123 161 201 252 311 362
#     4   8  14  29  54  83 114 154 197 238 292 361
#     4  10  22  40  61  85 117 159 209 258 297 355
#     4   8  16  31  55  83 113 151 196 241 293 361
#     4  12  26  40  62  90 120 150 194 252 302 362
#     4  11  24  43  63  88 122 158 198 251 309 364
#
# _framework density 19.492685000000002
#
# number of rings (size 3 to 8) (size 9 to 14) (size 15 to 20)
#    0.000    2.667    0.952    1.429    2.667    0.762 
#    0.000    5.714    0.000    5.714    0.000    0.000 
#    0.000    0.000    0.000    0.000    0.000    0.000 
#
# Total GULP energy -233961.992719 kJ/mol
# GULP energy per Si atom -5570.523636 kJ/mol
# Density = 1.944832 g / cm^3
# Si number density = 19.492685 Si / 1000 Ang^3
#
#
#
# Elastic Constant Matrix: (Units=GPa)
#
#
# Indices 1 2 3 4 5 6 
#
# 1 72.3941 51.4535 52.1459 0.0000 0.0000 0.0000
# 2 51.4535 88.0397 98.4861 0.0000 0.0000 0.0000
# 3 52.1459 98.4861 215.7839 0.0000 0.0000 0.0000
# 4 0.0000 0.0000 0.0000 36.1036 0.0000 0.0000
# 5 0.0000 0.0000 0.0000 0.0000 31.2448 0.0000
# 6 0.0000 0.0000 0.0000 0.0000 0.0000 25.9288
#
#
#
# Elastic Compliance Matrix: (Units=1/GPa)
#
#
# Indices 1 2 3 4 5 6 
#
# 1 0.023784 -0.015264 0.001219 0.000000 0.000000 0.000000
# 2 -0.015264 0.033003 -0.011374 0.000000 0.000000 0.000000
# 3 0.001219 -0.011374 0.009531 0.000000 0.000000 0.000000
# 4 0.000000 0.000000 0.000000 0.027698 0.000000 0.000000
# 5 0.000000 0.000000 0.000000 0.000000 0.032005 0.000000
# 6 0.000000 0.000000 0.000000 0.000000 0.000000 0.038567
#
#
# Mechanical properties :
#
#
# Convention : Reuss Voigt Hill
#
# Bulk Modulus (GPa) = 64.60027 86.70985 75.65506
# Shear Modulus (GPa) = 22.66679 30.26426 26.46552
#
# Velocity S-wave (km/s) = 3.41374 3.94457 3.68872
# Velocity P-wave (km/s) = 6.98218 8.08245 7.55238
#
# Compressibility (1/GPa) = 0.01547981
#
# Stress axis : x y z
#
# Youngs Moduli (GPa) = 42.04539 30.30003 104.91961
#
# Poissons Ratio (x) = 0.46249 -0.12790
# Poissons Ratio (y) = 0.64177 1.19340
# Poissons Ratio (z) = -0.05125 0.34465
#
# Static dielectric constant tensor:
#      x y z
#    x 1.726190 0.000000 0.000000 
#    y 0.000000 1.658510 0.000000 
#    z 0.000000 0.000000 1.670400 
# 
# From -- ./inp_files/40978.got.cif
#   From: 2010.05.17/outbox.cif.g08.bks.cpg/sg69_21_cif.got.tgz:40978.got - 2010.06.03 19:29:58.
