data_PCOD9513552
_publ_section_title
;
Structure prediction by ZEFSAII (Michael W. Deem and Ramdas Pophale) SiO2 
 PCOD9513552
Probable space group: F M M M
;
_chemical_formula_sum "Si O2"
_cell_formula_units_Z 192
_cell_length_a 30.512145
_cell_length_b 18.960493
_cell_length_c 15.949864
_cell_angle_alpha 90.000000
_cell_angle_beta 90.000000
_cell_angle_gamma 90.000000
_cell_volume 9227.400042
_symmetry_space_group_name_H-M "F M M M"
_symmetry_group_IT_number 69
_symmetry_cell_setting 'orthorhombic'
loop_
_space_group_symop_operation_xyz
x,y,z
-x,-y,z
x,-y,-z
-x,y,-z
-x,-y,-z
x,y,-z
-x,y,z
x,-y,z
x,1/2+y,1/2+z
-x,1/2-y,1/2+z
x,1/2-y,1/2-z
-x,1/2+y,1/2-z
-x,1/2-y,1/2-z
x,1/2+y,1/2-z
-x,1/2+y,1/2+z
x,1/2-y,1/2+z
1/2+x,y,1/2+z
1/2-x,-y,1/2+z
1/2+x,-y,1/2-z
1/2-x,y,1/2-z
1/2-x,-y,1/2-z
1/2+x,y,1/2-z
1/2-x,y,1/2+z
1/2+x,-y,1/2+z
1/2+x,1/2+y,z
1/2-x,1/2-y,z
1/2+x,1/2-y,-z
1/2-x,1/2+y,-z
1/2-x,1/2-y,-z
1/2+x,1/2+y,-z
1/2-x,1/2+y,z
1/2+x,1/2-y,z
loop_
_atom_site_type_symbol
_atom_site_label
_atom_site_fract_x
_atom_site_fract_y
_atom_site_fract_z
Si Si1 0.000000 0.164475 0.363881
Si Si2 0.180971 0.921304 0.899877
Si Si3 0.587411 0.416261 0.595999
Si Si4 0.760810 0.326019 0.849198
Si Si5 0.639830 0.300424 0.331559
Si Si6 0.596097 0.834802 0.598245
Si Si7 0.000000 0.825974 0.838398
O O1 0.040817 0.121676 0.398742
O O2 0.000000 0.168537 0.262275
O O3 0.000000 0.248053 0.381643
O O4 0.227081 0.882972 0.883774
O O5 0.138291 0.878718 0.868904
O O6 0.181643 0.000000 0.864461
O O7 0.176226 0.924898 0.000000
O O8 0.604974 0.406334 0.500000
O O9 0.585122 0.500000 0.610954
O O10 0.613479 0.373242 0.667270
O O11 0.750000 0.325177 0.750000
O O12 0.750000 0.250000 0.886818
O O13 0.812716 0.327357 0.860474
O O14 0.645884 0.250000 0.250000
O O15 0.611014 0.246562 0.387892
O O16 0.592071 0.847851 0.500000
O O17 0.548612 0.853244 0.636601
#
# Coordination Sequence:
#
# PCOD9513552 Si02
#       7
#    16  32  32  32  32  32  16
#     4  11  22  40  65  91 132 172 214 271 331 391
#     4  10  23  42  63  92 130 168 209 264 329 391
#     4  11  25  43  65  97 136 176 217 270 337 401
#     4  11  21  40  63  92 124 163 209 263 318 380
#     4  12  22  39  65  93 131 169 218 274 322 388
#     4  11  22  38  63  93 124 168 220 269 323 386
#     4  11  23  39  63  98 128 169 218 279 323 381
#
# _framework density 20.807594999999999
#
# number of rings (size 3 to 8) (size 9 to 14) (size 15 to 20)
#    0.000    1.000    5.000    2.250    0.000    4.000 
#    0.000    9.583    0.000    2.000    0.000    0.000 
#    0.000    0.000    0.000    0.000    0.000    0.000 
#
# Total GULP energy -267455.808009 kJ/mol
# GULP energy per Si atom -5571.996000 kJ/mol
# Density = 2.076024 g / cm^3
# Si number density = 20.807595 Si / 1000 Ang^3
#
#
#
# Elastic Constant Matrix: (Units=GPa)
#
#
# Indices 1 2 3 4 5 6 
#
# 1 158.8774 41.1784 16.7250 0.0000 0.0000 0.0000
# 2 41.1784 133.7567 17.8885 0.0000 0.0000 0.0000
# 3 16.7250 17.8885 49.7608 0.0000 0.0000 0.0000
# 4 0.0000 0.0000 0.0000 1.2533 0.0000 0.0000
# 5 0.0000 0.0000 0.0000 0.0000 27.5544 0.0000
# 6 0.0000 0.0000 0.0000 0.0000 0.0000 43.8037
#
#
#
# Elastic Compliance Matrix: (Units=1/GPa)
#
#
# Indices 1 2 3 4 5 6 
#
# 1 0.006967 -0.001924 -0.001650 0.000000 0.000000 0.000000
# 2 -0.001924 0.008385 -0.002368 0.000000 0.000000 0.000000
# 3 -0.001650 -0.002368 0.021502 0.000000 0.000000 0.000000
# 4 0.000000 0.000000 0.000000 0.797871 0.000000 0.000000
# 5 0.000000 0.000000 0.000000 0.000000 0.036292 0.000000
# 6 0.000000 0.000000 0.000000 0.000000 0.000000 0.022829
#
#
# Mechanical properties :
#
#
# Convention : Reuss Voigt Hill
#
# Bulk Modulus (GPa) = 40.04745 54.88653 47.46699
# Shear Modulus (GPa) = 5.47015 32.29582 18.88298
#
# Velocity S-wave (km/s) = 1.62315 3.94397 3.01575
# Velocity P-wave (km/s) = 4.77506 6.86842 5.91508
#
# Compressibility (1/GPa) = 0.02497038
#
# Stress axis : x y z
#
# Youngs Moduli (GPa) = 143.54361 119.25686 46.50772
#
# Poissons Ratio (x) = 0.22946 0.07673
# Poissons Ratio (y) = 0.27619 0.11012
# Poissons Ratio (z) = 0.23682 0.28237
#
# Static dielectric constant tensor:
#      x y z
#    x -0.331490 0.000000 0.000000 
#    y 0.000000 1.737690 0.000000 
#    z 0.000000 0.000000 1.808210 
# 
# From -- ./inp_files/27760.got.cif
#   From: 2010.05.17/outbox.cif.g08.bks.cpg/sg69_14_cif.got.tgz:27760.got - 2010.06.03 19:29:58.
