data_PCOD9513182
_publ_section_title
;
Structure prediction by ZEFSAII (Michael W. Deem and Ramdas Pophale) SiO2 
 PCOD9513182
Probable space group: F M M M
;
_chemical_formula_sum "Si O2"
_cell_formula_units_Z 160
_cell_length_a 27.174212
_cell_length_b 16.349366
_cell_length_c 17.868833
_cell_angle_alpha 90.000000
_cell_angle_beta 90.000000
_cell_angle_gamma 90.000000
_cell_volume 7938.785455
_symmetry_space_group_name_H-M "F M M M"
_symmetry_group_IT_number 69
_symmetry_cell_setting 'orthorhombic'
loop_
_space_group_symop_operation_xyz
x,y,z
-x,-y,z
x,-y,-z
-x,y,-z
-x,-y,-z
x,y,-z
-x,y,z
x,-y,z
x,1/2+y,1/2+z
-x,1/2-y,1/2+z
x,1/2-y,1/2-z
-x,1/2+y,1/2-z
-x,1/2-y,1/2-z
x,1/2+y,1/2-z
-x,1/2+y,1/2+z
x,1/2-y,1/2+z
1/2+x,y,1/2+z
1/2-x,-y,1/2+z
1/2+x,-y,1/2-z
1/2-x,y,1/2-z
1/2-x,-y,1/2-z
1/2+x,y,1/2-z
1/2-x,y,1/2+z
1/2+x,-y,1/2+z
1/2+x,1/2+y,z
1/2-x,1/2-y,z
1/2+x,1/2-y,-z
1/2-x,1/2+y,-z
1/2-x,1/2-y,-z
1/2+x,1/2+y,-z
1/2-x,1/2+y,z
1/2+x,1/2-y,z
loop_
_atom_site_type_symbol
_atom_site_label
_atom_site_fract_x
_atom_site_fract_y
_atom_site_fract_z
Si Si1 0.153646 0.598239 0.085449
Si Si2 0.243801 0.347294 0.412906
Si Si3 0.944022 0.829023 0.196625
Si Si4 0.863821 0.402336 0.410406
Si Si5 0.946776 0.405714 0.847666
O O1 0.151230 0.500000 0.084651
O O2 0.205702 0.619905 0.122567
O O3 0.103444 0.631274 0.120904
O O4 0.154645 0.628740 0.000000
O O5 0.243714 0.376288 0.500000
O O6 0.250000 0.250000 0.412233
O O7 0.191055 0.376337 0.383663
O O8 0.934557 0.750000 0.250000
O O9 0.904276 0.850320 0.134340
O O10 0.943602 0.900853 0.258390
O O11 0.000000 0.821958 0.167349
O O12 0.867103 0.386785 0.500000
O O13 0.870389 0.500000 0.398906
O O14 0.947915 0.500000 0.872088
O O15 0.000000 0.368893 0.869570
#
# Coordination Sequence:
#
# PCOD9513182 Si02
#       5
#    32  32  32  32  32
#     4   9  17  30  51  78 108 143 185 233 281 336
#     4   9  18  32  53  81 113 150 189 236 297 353
#     4  10  22  39  58  82 115 154 191 233 295 361
#     4  10  21  38  63  92 119 152 200 253 298 351
#     4   9  18  33  53  76 105 145 188 230 283 346
#
# _framework density 20.154216999999999
#
# number of rings (size 3 to 8) (size 9 to 14) (size 15 to 20)
#    0.000    2.600    0.000    1.200    2.800    4.400 
#    0.000    4.000    0.000    7.200    0.000    0.000 
#    0.000    0.000    0.000    0.000    0.000    0.000 
#
# Total GULP energy -222765.377350 kJ/mol
# GULP energy per Si atom -5569.134434 kJ/mol
# Density = 2.010835 g / cm^3
# Si number density = 20.154217 Si / 1000 Ang^3
#
#
#
# Elastic Constant Matrix: (Units=GPa)
#
#
# Indices 1 2 3 4 5 6 
#
# 1 240.5629 52.6172 74.0671 0.0000 0.0000 0.0000
# 2 52.6172 51.1950 18.3261 0.0000 0.0000 0.0000
# 3 74.0671 18.3261 37.5720 0.0000 0.0000 0.0000
# 4 0.0000 0.0000 0.0000 22.6298 0.0000 0.0000
# 5 0.0000 0.0000 0.0000 0.0000 64.2246 0.0000
# 6 0.0000 0.0000 0.0000 0.0000 0.0000 15.9095
#
#
#
# Elastic Compliance Matrix: (Units=1/GPa)
#
#
# Indices 1 2 3 4 5 6 
#
# 1 0.011349 -0.004429 -0.020212 0.000000 0.000000 0.000000
# 2 -0.004429 0.025393 -0.003655 0.000000 0.000000 0.000000
# 3 -0.020212 -0.003655 0.068243 0.000000 0.000000 0.000000
# 4 0.000000 0.000000 0.000000 0.044190 0.000000 0.000000
# 5 0.000000 0.000000 0.000000 0.000000 0.015570 0.000000
# 6 0.000000 0.000000 0.000000 0.000000 0.000000 0.062856
#
#
# Mechanical properties :
#
#
# Convention : Reuss Voigt Hill
#
# Bulk Modulus (GPa) = 20.66417 68.81676 44.74047
# Shear Modulus (GPa) = 16.64874 32.84074 24.74474
#
# Velocity S-wave (km/s) = 2.87726 4.04105 3.50776
# Velocity P-wave (km/s) = 4.61665 7.48283 6.21716
#
# Compressibility (1/GPa) = 0.04839293
#
# Stress axis : x y z
#
# Youngs Moduli (GPa) = 88.11657 39.38030 14.65359
#
# Poissons Ratio (x) = 0.17440 0.29617
# Poissons Ratio (y) = 0.39024 0.05356
# Poissons Ratio (z) = 1.78099 0.14395
#
# Static dielectric constant tensor:
#      x y z
#    x 1.769500 0.000000 0.000000 
#    y 0.000000 1.791630 0.000000 
#    z 0.000000 0.000000 1.704100 
# 
# From -- ./inp_files/24564.got.cif
#   From: 2010.05.17/outbox.cif.g08.bks.cpg/sg69_13_cif.got.tgz:24564.got - 2010.06.03 19:29:58.
