data_PCOD9513043
_publ_section_title
;
Structure prediction by ZEFSAII (Michael W. Deem and Ramdas Pophale) SiO2 
 PCOD9513043
Probable space group: F M M M
;
_chemical_formula_sum "Si O2"
_cell_formula_units_Z 104
_cell_length_a 18.226336
_cell_length_b 15.752805
_cell_length_c 13.583496
_cell_angle_alpha 90.000000
_cell_angle_beta 90.000000
_cell_angle_gamma 90.000000
_cell_volume 3900.037908
_symmetry_space_group_name_H-M "F M M M"
_symmetry_group_IT_number 69
_symmetry_cell_setting 'orthorhombic'
loop_
_space_group_symop_operation_xyz
x,y,z
-x,-y,z
x,-y,-z
-x,y,-z
-x,-y,-z
x,y,-z
-x,y,z
x,-y,z
x,1/2+y,1/2+z
-x,1/2-y,1/2+z
x,1/2-y,1/2-z
-x,1/2+y,1/2-z
-x,1/2-y,1/2-z
x,1/2+y,1/2-z
-x,1/2+y,1/2+z
x,1/2-y,1/2+z
1/2+x,y,1/2+z
1/2-x,-y,1/2+z
1/2+x,-y,1/2-z
1/2-x,y,1/2-z
1/2-x,-y,1/2-z
1/2+x,y,1/2-z
1/2-x,y,1/2+z
1/2+x,-y,1/2+z
1/2+x,1/2+y,z
1/2-x,1/2-y,z
1/2+x,1/2-y,-z
1/2-x,1/2+y,-z
1/2-x,1/2-y,-z
1/2+x,1/2+y,-z
1/2-x,1/2+y,z
1/2+x,1/2-y,z
loop_
_atom_site_type_symbol
_atom_site_label
_atom_site_fract_x
_atom_site_fract_y
_atom_site_fract_z
Si Si1 0.374103 0.317016 0.882224
Si Si2 0.420839 0.629543 0.618649
Si Si3 0.875203 0.500000 0.380979
Si Si4 0.750000 0.250000 0.750000
Si Si5 0.296134 0.500000 0.619755
O O1 0.415803 0.229707 0.860343
O O2 0.407755 0.408109 0.854020
O O3 0.299376 0.305450 0.822850
O O4 0.360748 0.317697 0.000000
O O5 0.421124 0.621195 0.500000
O O6 0.500000 0.597210 0.652794
O O7 0.347817 0.579440 0.648985
O O8 0.877351 0.500000 0.500000
O O9 0.788890 0.500000 0.349716
O O10 0.291691 0.500000 0.500000
#
# Coordination Sequence:
#
# PCOD9513043 Si02
#       5
#    32  32  16   8  16
#     4  10  21  37  56  82 116 150 188 231 277 335
#     4   9  17  31  52  78 110 148 187 228 276 330
#     4   9  18  34  56  81 113 151 186 228 280 330
#     4  12  22  34  58  86 112 150 186 232 296 334
#     4   9  15  24  46  79 109 140 182 233 285 329
#
# _framework density 26.666408000000001
#
# number of rings (size 3 to 8) (size 9 to 14) (size 15 to 20)
#    0.000    2.462    0.000    2.769    0.000    7.385 
#    0.000    3.077    0.000    4.615    0.000    0.000 
#    0.000    0.000    0.000    0.000    0.000    1.231 
#
# Total GULP energy -145478.623108 kJ/mol
# GULP energy per Si atom -5595.331658 kJ/mol
# Density = 2.660571 g / cm^3
# Si number density = 26.666408 Si / 1000 Ang^3
#
#
#
# Elastic Constant Matrix: (Units=GPa)
#
#
# Indices 1 2 3 4 5 6 
#
# 1 120.7044 53.1268 14.6640 0.0000 0.0000 0.0000
# 2 53.1268 238.6565 -4.4834 0.0000 0.0000 0.0000
# 3 14.6640 -4.4834 128.1109 0.0000 0.0000 0.0000
# 4 0.0000 0.0000 0.0000 10.3414 0.0000 0.0000
# 5 0.0000 0.0000 0.0000 0.0000 28.4709 0.0000
# 6 0.0000 0.0000 0.0000 0.0000 0.0000 -82.9960
#
#
#
# Elastic Compliance Matrix: (Units=1/GPa)
#
#
# Indices 1 2 3 4 5 6 
#
# 1 0.009349 -0.002103 -0.001144 0.000000 0.000000 0.000000
# 2 -0.002103 0.004666 0.000404 0.000000 0.000000 0.000000
# 3 -0.001144 0.000404 0.007951 0.000000 0.000000 0.000000
# 4 0.000000 0.000000 0.000000 0.096699 0.000000 0.000000
# 5 0.000000 0.000000 0.000000 0.000000 0.035124 0.000000
# 6 0.000000 0.000000 0.000000 0.000000 0.000000 -0.012049
#
#
# Mechanical properties :
#
#
# Convention : Reuss Voigt Hill
#
# Bulk Modulus (GPa) = 61.42192 68.23187 64.82690
# Shear Modulus (GPa) = 32.71161 19.44090 26.07626
#
# Velocity S-wave (km/s) = 3.50622 2.70300 3.13048
# Velocity P-wave (km/s) = 6.28291 5.94848 6.11798
#
# Compressibility (1/GPa) = 0.01628083
#
# Stress axis : x y z
#
# Youngs Moduli (GPa) = 106.96197 214.32629 125.77372
#
# Poissons Ratio (x) = 0.45066 0.14385
# Poissons Ratio (y) = 0.22491 -0.05081
# Poissons Ratio (z) = 0.12233 -0.08658
#
# Static dielectric constant tensor:
#      x y z
#    x 1.998890 0.000000 0.000000 
#    y 0.000000 2.124080 0.000000 
#    z 0.000000 0.000000 2.086290 
# 
# From -- ./inp_files/25388.got.cif
#   From: 2010.05.17/outbox.cif.g08.bks.cpg/sg69_13_cif.got.tgz:25388.got - 2010.06.03 19:29:58.
