data_PCOD9513838
_publ_section_title
;
Structure prediction by ZEFSAII (Michael W. Deem and Ramdas Pophale) SiO2 
 PCOD9513838
Probable space group: F M M M
;
_chemical_formula_sum "Si O2"
_cell_formula_units_Z 136
_cell_length_a 21.375489
_cell_length_b 21.235154
_cell_length_c 14.679819
_cell_angle_alpha 90.000000
_cell_angle_beta 90.000000
_cell_angle_gamma 90.000000
_cell_volume 6663.343077
_symmetry_space_group_name_H-M "F M M M"
_symmetry_group_IT_number 69
_symmetry_cell_setting 'orthorhombic'
loop_
_space_group_symop_operation_xyz
x,y,z
-x,-y,z
x,-y,-z
-x,y,-z
-x,-y,-z
x,y,-z
-x,y,z
x,-y,z
x,1/2+y,1/2+z
-x,1/2-y,1/2+z
x,1/2-y,1/2-z
-x,1/2+y,1/2-z
-x,1/2-y,1/2-z
x,1/2+y,1/2-z
-x,1/2+y,1/2+z
x,1/2-y,1/2+z
1/2+x,y,1/2+z
1/2-x,-y,1/2+z
1/2+x,-y,1/2-z
1/2-x,y,1/2-z
1/2-x,-y,1/2-z
1/2+x,y,1/2-z
1/2-x,y,1/2+z
1/2+x,-y,1/2+z
1/2+x,1/2+y,z
1/2-x,1/2-y,z
1/2+x,1/2-y,-z
1/2-x,1/2+y,-z
1/2-x,1/2-y,-z
1/2+x,1/2+y,-z
1/2-x,1/2+y,z
1/2+x,1/2-y,z
loop_
_atom_site_type_symbol
_atom_site_label
_atom_site_fract_x
_atom_site_fract_y
_atom_site_fract_z
Si Si1 0.250000 0.250000 0.750000
Si Si2 0.929003 0.427971 0.366391
Si Si3 0.430615 0.702097 0.607638
Si Si4 0.927484 0.067627 0.647666
Si Si5 0.839270 0.187872 0.106240
O O1 0.213920 0.202792 0.819896
O O2 0.919046 0.500000 0.397740
O O3 0.929273 0.431233 0.256697
O O4 0.875134 0.378984 0.392091
O O5 0.000000 0.408229 0.393909
O O6 0.437327 0.710190 0.500000
O O7 0.500000 0.700794 0.650082
O O8 0.398676 0.634095 0.620342
O O9 0.390987 0.761026 0.637447
O O10 0.000000 0.068952 0.614543
O O11 0.900448 0.000000 0.618282
O O12 0.820582 0.199626 0.000000
#
# Coordination Sequence:
#
# PCOD9513838 Si02
#       5
#     8  32  32  32  32
#     4  12  26  44  60  78 108 156 206 248 280 314
#     4   9  18  34  59  91 122 148 177 225 294 360
#     4   9  17  29  49  80 113 143 180 232 295 354
#     4   8  14  25  42  70 111 152 183 211 256 331
#     4  11  23  39  60  84 112 149 194 240 285 337
#
# _framework density 20.410174999999999
#
# number of rings (size 3 to 8) (size 9 to 14) (size 15 to 20)
#    0.000    2.588    0.000    3.882    0.000    2.353 
#    0.000    8.824    0.000    1.412    0.000    3.294 
#    0.000    0.000    0.000    0.000    0.000    0.706 
#
# Total GULP energy -189357.048795 kJ/mol
# GULP energy per Si atom -5569.324965 kJ/mol
# Density = 2.036372 g / cm^3
# Si number density = 20.410175 Si / 1000 Ang^3
#
#
#
# Elastic Constant Matrix: (Units=GPa)
#
#
# Indices 1 2 3 4 5 6 
#
# 1 64.2594 50.2223 43.5420 0.0000 0.0000 0.0000
# 2 50.2223 123.7922 20.9361 0.0000 0.0000 0.0000
# 3 43.5420 20.9361 91.6886 0.0000 0.0000 0.0000
# 4 0.0000 0.0000 0.0000 19.6288 0.0000 0.0000
# 5 0.0000 0.0000 0.0000 0.0000 29.8257 0.0000
# 6 0.0000 0.0000 0.0000 0.0000 0.0000 49.9358
#
#
#
# Elastic Compliance Matrix: (Units=1/GPa)
#
#
# Indices 1 2 3 4 5 6 
#
# 1 0.033390 -0.011301 -0.013276 0.000000 0.000000 0.000000
# 2 -0.011301 0.012227 0.002575 0.000000 0.000000 0.000000
# 3 -0.013276 0.002575 0.016623 0.000000 0.000000 0.000000
# 4 0.000000 0.000000 0.000000 0.050946 0.000000 0.000000
# 5 0.000000 0.000000 0.000000 0.000000 0.033528 0.000000
# 6 0.000000 0.000000 0.000000 0.000000 0.000000 0.020026
#
#
# Mechanical properties :
#
#
# Convention : Reuss Voigt Hill
#
# Bulk Modulus (GPa) = 54.83676 56.57123 55.70399
# Shear Modulus (GPa) = 23.06017 30.88071 26.97044
#
# Velocity S-wave (km/s) = 3.36495 3.89396 3.63908
# Velocity P-wave (km/s) = 6.48251 6.92781 6.70885
#
# Compressibility (1/GPa) = 0.01823594
#
# Stress axis : x y z
#
# Youngs Moduli (GPa) = 29.94887 81.78336 60.15651
#
# Poissons Ratio (x) = 0.92424 0.79865
# Poissons Ratio (y) = 0.33845 -0.15489
# Poissons Ratio (z) = 0.39761 -0.21057
#
# Static dielectric constant tensor:
#      x y z
#    x 1.767110 0.000000 0.000000 
#    y 0.000000 1.758320 0.000000 
#    z 0.000000 0.000000 1.754450 
# 
# From -- ./inp_files/25587.got.cif
#   From: 2010.05.17/outbox.cif.g08.bks.cpg/sg69_13_cif.got.tgz:25587.got - 2010.06.03 19:29:58.
