data_PCOD9513203
_publ_section_title
;
Structure prediction by ZEFSAII (Michael W. Deem and Ramdas Pophale) SiO2 
 PCOD9513203
Probable space group: F M M M
;
_chemical_formula_sum "Si O2"
_cell_formula_units_Z 168
_cell_length_a 25.212898
_cell_length_b 17.226845
_cell_length_c 20.878372
_cell_angle_alpha 90.000000
_cell_angle_beta 90.000000
_cell_angle_gamma 90.000000
_cell_volume 9068.284657
_symmetry_space_group_name_H-M "F M M M"
_symmetry_group_IT_number 69
_symmetry_cell_setting 'orthorhombic'
loop_
_space_group_symop_operation_xyz
x,y,z
-x,-y,z
x,-y,-z
-x,y,-z
-x,-y,-z
x,y,-z
-x,y,z
x,-y,z
x,1/2+y,1/2+z
-x,1/2-y,1/2+z
x,1/2-y,1/2-z
-x,1/2+y,1/2-z
-x,1/2-y,1/2-z
x,1/2+y,1/2-z
-x,1/2+y,1/2+z
x,1/2-y,1/2+z
1/2+x,y,1/2+z
1/2-x,-y,1/2+z
1/2+x,-y,1/2-z
1/2-x,y,1/2-z
1/2-x,-y,1/2-z
1/2+x,y,1/2-z
1/2-x,y,1/2+z
1/2+x,-y,1/2+z
1/2+x,1/2+y,z
1/2-x,1/2-y,z
1/2+x,1/2-y,-z
1/2-x,1/2+y,-z
1/2-x,1/2-y,-z
1/2+x,1/2+y,-z
1/2-x,1/2+y,z
1/2+x,1/2-y,z
loop_
_atom_site_type_symbol
_atom_site_label
_atom_site_fract_x
_atom_site_fract_y
_atom_site_fract_z
Si Si1 0.796462 0.407425 0.701517
Si Si2 0.000000 0.500000 0.681540
Si Si3 0.583561 0.863275 0.290606
Si Si4 0.253836 0.156931 0.572582
Si Si5 0.560279 0.297119 0.652145
Si Si6 0.863859 0.088593 0.575843
O O1 0.791211 0.500000 0.697497
O O2 0.750000 0.379050 0.750000
O O3 0.855736 0.386878 0.723066
O O4 0.789018 0.372471 0.630885
O O5 0.953254 0.432197 0.684560
O O6 0.581687 0.790079 0.338717
O O7 0.560559 0.833985 0.223056
O O8 0.271327 0.135939 0.500000
O O9 0.250000 0.250000 0.575266
O O10 0.196207 0.118488 0.583357
O O11 0.500000 0.294858 0.628103
O O12 0.597050 0.351784 0.609685
O O13 0.874846 0.087554 0.500000
O O14 0.868882 0.000000 0.600482
#
# Coordination Sequence:
#
# PCOD9513203 Si02
#       6
#    32   8  32  32  32  32
#     4  11  23  36  57  90 121 152 193 250 305 356
#     4  12  20  38  62  84 116 158 200 250 302 356
#     4  11  22  38  58  88 118 156 202 244 303 360
#     4  10  21  39  60  84 116 158 199 239 300 369
#     4  11  22  38  58  84 118 155 201 243 293 360
#     4  10  22  38  59  87 119 155 195 243 300 365
#
# _framework density 18.526105999999999
#
# number of rings (size 3 to 8) (size 9 to 14) (size 15 to 20)
#    0.000    1.333    2.857    3.429    1.333    5.333 
#    0.000    0.952    0.000    0.000    0.000    2.667 
#    0.000    0.000    0.000    0.000    0.000    0.000 
#
# Total GULP energy -234011.480988 kJ/mol
# GULP energy per Si atom -5571.701928 kJ/mol
# Density = 1.848394 g / cm^3
# Si number density = 18.526106 Si / 1000 Ang^3
#
#
#
# Elastic Constant Matrix: (Units=GPa)
#
#
# Indices 1 2 3 4 5 6 
#
# 1 104.0756 34.1186 27.4450 0.0000 0.0000 0.0000
# 2 34.1186 131.5943 23.4178 0.0000 0.0000 0.0000
# 3 27.4450 23.4178 36.2519 0.0000 0.0000 0.0000
# 4 0.0000 0.0000 0.0000 38.3363 0.0000 0.0000
# 5 0.0000 0.0000 0.0000 0.0000 81.3185 0.0000
# 6 0.0000 0.0000 0.0000 0.0000 0.0000 36.5427
#
#
#
# Elastic Compliance Matrix: (Units=1/GPa)
#
#
# Indices 1 2 3 4 5 6 
#
# 1 0.012347 -0.001738 -0.008225 0.000000 0.000000 0.000000
# 2 -0.001738 0.008831 -0.004389 0.000000 0.000000 0.000000
# 3 -0.008225 -0.004389 0.036647 0.000000 0.000000 0.000000
# 4 0.000000 0.000000 0.000000 0.026085 0.000000 0.000000
# 5 0.000000 0.000000 0.000000 0.000000 0.012297 0.000000
# 6 0.000000 0.000000 0.000000 0.000000 0.000000 0.027365
#
#
# Mechanical properties :
#
#
# Convention : Reuss Voigt Hill
#
# Bulk Modulus (GPa) = 34.33907 49.09829 41.71868
# Shear Modulus (GPa) = 30.86764 43.70220 37.28492
#
# Velocity S-wave (km/s) = 4.08630 4.86217 4.49102
# Velocity P-wave (km/s) = 6.39058 7.62107 7.03279
#
# Compressibility (1/GPa) = 0.02912135
#
# Stress axis : x y z
#
# Youngs Moduli (GPa) = 80.99156 113.24216 27.28757
#
# Poissons Ratio (x) = 0.19676 0.22444
# Poissons Ratio (y) = 0.14073 0.11976
# Poissons Ratio (z) = 0.66616 0.49701
#
# Static dielectric constant tensor:
#      x y z
#    x 1.655600 0.000000 0.000000 
#    y 0.000000 1.632510 0.000000 
#    z 0.000000 0.000000 1.639490 
# 
# From -- ./inp_files/17914.got.cif
#   From: 2010.05.17/outbox.cif.g08.bks.cpg/sg69_9_cif.got.tgz:17914.got - 2010.06.03 19:29:58.
