data_PCOD9513145
_publ_section_title
;
Structure prediction by ZEFSAII (Michael W. Deem and Ramdas Pophale) SiO2 
 PCOD9513145
Probable space group: F M M M
;
_chemical_formula_sum "Si O2"
_cell_formula_units_Z 176
_cell_length_a 29.099291
_cell_length_b 19.334078
_cell_length_c 17.102566
_cell_angle_alpha 90.000000
_cell_angle_beta 90.000000
_cell_angle_gamma 90.000000
_cell_volume 9622.039801
_symmetry_space_group_name_H-M "F M M M"
_symmetry_group_IT_number 69
_symmetry_cell_setting 'orthorhombic'
loop_
_space_group_symop_operation_xyz
x,y,z
-x,-y,z
x,-y,-z
-x,y,-z
-x,-y,-z
x,y,-z
-x,y,z
x,-y,z
x,1/2+y,1/2+z
-x,1/2-y,1/2+z
x,1/2-y,1/2-z
-x,1/2+y,1/2-z
-x,1/2-y,1/2-z
x,1/2+y,1/2-z
-x,1/2+y,1/2+z
x,1/2-y,1/2+z
1/2+x,y,1/2+z
1/2-x,-y,1/2+z
1/2+x,-y,1/2-z
1/2-x,y,1/2-z
1/2-x,-y,1/2-z
1/2+x,y,1/2-z
1/2-x,y,1/2+z
1/2+x,-y,1/2+z
1/2+x,1/2+y,z
1/2-x,1/2-y,z
1/2+x,1/2-y,-z
1/2-x,1/2+y,-z
1/2-x,1/2-y,-z
1/2+x,1/2+y,-z
1/2-x,1/2+y,z
1/2+x,1/2-y,z
loop_
_atom_site_type_symbol
_atom_site_label
_atom_site_fract_x
_atom_site_fract_y
_atom_site_fract_z
Si Si1 0.054911 0.660712 0.155889
Si Si2 0.444256 0.078775 0.000000
Si Si3 0.293407 0.709499 0.907499
Si Si4 0.602641 0.706874 0.905493
Si Si5 0.895280 0.581501 0.296575
Si Si6 0.711543 0.920994 0.312800
O O1 0.069450 0.619385 0.077587
O O2 0.070013 0.739526 0.139600
O O3 0.078301 0.621729 0.228090
O O4 0.000000 0.657455 0.164248
O O5 0.500000 0.077128 0.000000
O O6 0.427629 0.000000 0.000000
O O7 0.250000 0.750000 0.872869
O O8 0.345046 0.728889 0.882733
O O9 0.286600 0.630081 0.885319
O O10 0.293221 0.719062 0.000000
O O11 0.596737 0.628620 0.873814
O O12 0.597018 0.710523 0.000000
O O13 0.908082 0.500000 0.303410
O O14 0.840406 0.583544 0.280272
O O15 0.750000 0.900899 0.250000
O O16 0.720075 0.000000 0.335424
#
# Coordination Sequence:
#
# PCOD9513145 Si02
#       6
#    32  16  32  32  32  32
#     4  11  22  38  59  84 117 151 190 239 286 341
#     4   9  18  34  58  84 110 149 193 233 285 340
#     4   9  19  34  54  80 109 144 185 231 276 329
#     4  10  21  38  59  85 115 150 193 238 287 343
#     4  10  22  38  58  85 115 150 194 239 286 342
#     4   9  19  35  54  78 110 146 184 228 279 332
#
# _framework density 18.291340999999999
#
# number of rings (size 3 to 8) (size 9 to 14) (size 15 to 20)
#    0.000    2.273    0.909    1.091    2.545    3.636 
#    0.000    3.636    0.000    0.000    0.000    2.545 
#    0.000    0.000    0.000    0.000    0.000    0.000 
#
# Total GULP energy -245186.029577 kJ/mol
# GULP energy per Si atom -5572.409763 kJ/mol
# Density = 1.824971 g / cm^3
# Si number density = 18.291341 Si / 1000 Ang^3
#
#
#
# Elastic Constant Matrix: (Units=GPa)
#
#
# Indices 1 2 3 4 5 6 
#
# 1 47.7419 34.5875 21.9529 0.0000 0.0000 0.0000
# 2 34.5875 101.6181 30.2477 0.0000 0.0000 0.0000
# 3 21.9529 30.2477 37.7748 0.0000 0.0000 0.0000
# 4 0.0000 0.0000 0.0000 15.0918 0.0000 0.0000
# 5 0.0000 0.0000 0.0000 0.0000 18.9951 0.0000
# 6 0.0000 0.0000 0.0000 0.0000 0.0000 28.4622
#
#
#
# Elastic Compliance Matrix: (Units=1/GPa)
#
#
# Indices 1 2 3 4 5 6 
#
# 1 0.032004 -0.007033 -0.012967 0.000000 0.000000 0.000000
# 2 -0.007033 0.014466 -0.007496 0.000000 0.000000 0.000000
# 3 -0.012967 -0.007496 0.040011 0.000000 0.000000 0.000000
# 4 0.000000 0.000000 0.000000 0.066261 0.000000 0.000000
# 5 0.000000 0.000000 0.000000 0.000000 0.052645 0.000000
# 6 0.000000 0.000000 0.000000 0.000000 0.000000 0.035134
#
#
# Mechanical properties :
#
#
# Convention : Reuss Voigt Hill
#
# Bulk Modulus (GPa) = 31.75850 40.07900 35.91875
# Shear Modulus (GPa) = 16.33928 19.19960 17.76944
#
# Velocity S-wave (km/s) = 2.99202 3.24335 3.12022
# Velocity P-wave (km/s) = 5.41632 5.99873 5.71495
#
# Compressibility (1/GPa) = 0.03148763
#
# Stress axis : x y z
#
# Youngs Moduli (GPa) = 31.24596 69.12791 24.99310
#
# Poissons Ratio (x) = 0.48620 0.32410
# Poissons Ratio (y) = 0.21976 0.18735
# Poissons Ratio (z) = 0.40518 0.51818
#
# Static dielectric constant tensor:
#      x y z
#    x 1.653470 0.000000 0.000000 
#    y 0.000000 1.631430 0.000000 
#    z 0.000000 0.000000 1.617630 
# 
# From -- ./inp_files/26737.got.cif
#   From: 2010.05.17/outbox.cif.g08.bks.cpg/sg69_14_cif.got.tgz:26737.got - 2010.06.03 19:29:58.
