data_PCOD9513588
_publ_section_title
;
Structure prediction by ZEFSAII (Michael W. Deem and Ramdas Pophale) SiO2 
 PCOD9513588
Probable space group: F M M M
;
_chemical_formula_sum "Si O2"
_cell_formula_units_Z 92
_cell_length_a 15.558792
_cell_length_b 13.369848
_cell_length_c 22.844310
_cell_angle_alpha 90.000000
_cell_angle_beta 90.000000
_cell_angle_gamma 90.000000
_cell_volume 4752.043305
_symmetry_space_group_name_H-M "F M M M"
_symmetry_group_IT_number 69
_symmetry_cell_setting 'orthorhombic'
loop_
_space_group_symop_operation_xyz
x,y,z
-x,-y,z
x,-y,-z
-x,y,-z
-x,-y,-z
x,y,-z
-x,y,z
x,-y,z
x,1/2+y,1/2+z
-x,1/2-y,1/2+z
x,1/2-y,1/2-z
-x,1/2+y,1/2-z
-x,1/2-y,1/2-z
x,1/2+y,1/2-z
-x,1/2+y,1/2+z
x,1/2-y,1/2+z
1/2+x,y,1/2+z
1/2-x,-y,1/2+z
1/2+x,-y,1/2-z
1/2-x,y,1/2-z
1/2-x,-y,1/2-z
1/2+x,y,1/2-z
1/2-x,y,1/2+z
1/2+x,-y,1/2+z
1/2+x,1/2+y,z
1/2-x,1/2-y,z
1/2+x,1/2-y,-z
1/2-x,1/2+y,-z
1/2-x,1/2-y,-z
1/2+x,1/2+y,-z
1/2-x,1/2+y,z
1/2+x,1/2-y,z
loop_
_atom_site_type_symbol
_atom_site_label
_atom_site_fract_x
_atom_site_fract_y
_atom_site_fract_z
Si Si1 0.662297 0.309494 0.378734
Si Si2 0.833614 0.000000 0.292215
Si Si3 0.098981 0.617689 0.000000
Si Si4 0.000000 0.500000 0.288149
Si Si5 0.000000 0.161537 0.111916
Si Si6 0.000000 0.500000 0.500000
O O1 0.750000 0.250000 0.370077
O O2 0.660806 0.400851 0.332801
O O3 0.653256 0.354363 0.443430
O O4 0.583078 0.232144 0.380045
O O5 0.750000 0.000000 0.250000
O O6 0.916454 0.000000 0.251530
O O7 0.088047 0.500000 0.000000
O O8 0.000000 0.660595 0.000000
O O9 0.000000 0.592566 0.331460
O O10 0.000000 0.090104 0.053218
#
# Coordination Sequence:
#
# PCOD9513588 Si02
#       6
#    32  16  16   8  16   4
#     4  12  25  44  72 101 137 186 228 282 353 411
#     4  12  27  46  67 103 141 184 241 293 332 408
#     4  11  22  42  71 102 135 169 219 283 345 417
#     4  11  26  43  68  97 136 187 228 290 348 389
#     4  11  24  46  70 102 136 183 233 286 349 425
#     4  10  24  48  72  98 148 172 220 298 352 420
#
# _framework density 19.360092000000002
#
# number of rings (size 3 to 8) (size 9 to 14) (size 15 to 20)
#    0.000    0.522    3.478    4.696    0.000    7.652 
#    3.130    0.000    0.000    0.000    0.000    0.000 
#    0.000    0.000    0.000    0.000    0.000    0.000 
#
# Total GULP energy -128121.747113 kJ/mol
# GULP energy per Si atom -5570.510744 kJ/mol
# Density = 1.931603 g / cm^3
# Si number density = 19.360092 Si / 1000 Ang^3
#
#
#
# Elastic Constant Matrix: (Units=GPa)
#
#
# Indices 1 2 3 4 5 6 
#
# 1 167.5174 97.2110 90.2487 0.0000 0.0000 0.0000
# 2 97.2110 188.7213 110.9075 0.0000 0.0000 0.0000
# 3 90.2487 110.9075 212.1307 0.0000 0.0000 0.0000
# 4 0.0000 0.0000 0.0000 26.8109 0.0000 0.0000
# 5 0.0000 0.0000 0.0000 0.0000 52.7685 0.0000
# 6 0.0000 0.0000 0.0000 0.0000 0.0000 140.2174
#
#
#
# Elastic Compliance Matrix: (Units=1/GPa)
#
#
# Indices 1 2 3 4 5 6 
#
# 1 0.009093 -0.003479 -0.002049 0.000000 0.000000 0.000000
# 2 -0.003479 0.008980 -0.003215 0.000000 0.000000 0.000000
# 3 -0.002049 -0.003215 0.007267 0.000000 0.000000 0.000000
# 4 0.000000 0.000000 0.000000 0.037298 0.000000 0.000000
# 5 0.000000 0.000000 0.000000 0.000000 0.018951 0.000000
# 6 0.000000 0.000000 0.000000 0.000000 0.000000 0.007132
#
#
# Mechanical properties :
#
#
# Convention : Reuss Voigt Hill
#
# Bulk Modulus (GPa) = 127.34475 129.45597 128.40036
# Shear Modulus (GPa) = 45.94523 61.95951 53.95237
#
# Velocity S-wave (km/s) = 4.87683 5.66332 5.28473
# Velocity P-wave (km/s) = 9.88084 10.47745 10.18351
#
# Compressibility (1/GPa) = 0.00785270
#
# Stress axis : x y z
#
# Youngs Moduli (GPa) = 109.97919 111.35382 137.61274
#
# Poissons Ratio (x) = 0.38744 0.28201
# Poissons Ratio (y) = 0.38265 0.44242
# Poissons Ratio (z) = 0.22538 0.35800
#
# Static dielectric constant tensor:
#      x y z
#    x 1.666040 0.000000 0.000000 
#    y 0.000000 1.797050 0.000000 
#    z 0.000000 0.000000 1.655910 
# 
# From -- ./inp_files/29423.got.cif
#   From: 2010.05.17/outbox.cif.g08.bks.cpg/sg69_15_cif.got.tgz:29423.got - 2010.06.03 19:29:58.
