data_PCOD9513250
_publ_section_title
;
Structure prediction by ZEFSAII (Michael W. Deem and Ramdas Pophale) SiO2 
 PCOD9513250
Probable space group: F M M M
;
_chemical_formula_sum "Si O2"
_cell_formula_units_Z 160
_cell_length_a 27.927330
_cell_length_b 29.245482
_cell_length_c 9.632852
_cell_angle_alpha 90.000000
_cell_angle_beta 90.000000
_cell_angle_gamma 90.000000
_cell_volume 7867.614790
_symmetry_space_group_name_H-M "F M M M"
_symmetry_group_IT_number 69
_symmetry_cell_setting 'orthorhombic'
loop_
_space_group_symop_operation_xyz
x,y,z
-x,-y,z
x,-y,-z
-x,y,-z
-x,-y,-z
x,y,-z
-x,y,z
x,-y,z
x,1/2+y,1/2+z
-x,1/2-y,1/2+z
x,1/2-y,1/2-z
-x,1/2+y,1/2-z
-x,1/2-y,1/2-z
x,1/2+y,1/2-z
-x,1/2+y,1/2+z
x,1/2-y,1/2+z
1/2+x,y,1/2+z
1/2-x,-y,1/2+z
1/2+x,-y,1/2-z
1/2-x,y,1/2-z
1/2-x,-y,1/2-z
1/2+x,y,1/2-z
1/2-x,y,1/2+z
1/2+x,-y,1/2+z
1/2+x,1/2+y,z
1/2-x,1/2-y,z
1/2+x,1/2-y,-z
1/2-x,1/2+y,-z
1/2-x,1/2-y,-z
1/2+x,1/2+y,-z
1/2-x,1/2+y,z
1/2+x,1/2-y,z
loop_
_atom_site_type_symbol
_atom_site_label
_atom_site_fract_x
_atom_site_fract_y
_atom_site_fract_z
Si Si1 0.441806 0.550468 0.000000
Si Si2 0.558054 0.052819 0.000000
Si Si3 0.117610 0.203730 0.169831
Si Si4 0.442321 0.384472 0.244302
Si Si5 0.799744 0.549224 0.834544
Si Si6 0.800740 0.151531 0.669549
O O1 0.427346 0.580447 0.127172
O O2 0.422149 0.500000 0.000000
O O3 0.500000 0.547450 0.000000
O O4 0.571969 0.085806 0.124111
O O5 0.500000 0.048894 0.000000
O O6 0.575742 0.000000 0.000000
O O7 0.103420 0.250000 0.250000
O O8 0.080224 0.164093 0.210635
O O9 0.165831 0.186814 0.247906
O O10 0.121542 0.207958 0.000000
O O11 0.500000 0.379443 0.246570
O O12 0.824331 0.500000 0.802761
O O13 0.750000 0.548635 0.750000
O O14 0.820680 0.599657 0.807608
O O15 0.790065 0.549173 0.000000
O O16 0.797822 0.159238 0.500000
O O17 0.750000 0.153206 0.750000
#
# Coordination Sequence:
#
# PCOD9513250 Si02
#       6
#    16  16  32  32  32  32
#     4   9  16  32  61  93 128 171 211 253 309 371
#     4   9  18  34  61  97 134 173 213 255 309 375
#     4  12  27  45  66  90 123 165 218 276 331 382
#     4  10  21  39  64  95 133 172 213 260 312 379
#     4   8  14  27  51  83 117 154 191 231 287 356
#     4  10  21  40  67  94 126 163 209 263 323 384
#
# _framework density 20.336531999999998
#
# number of rings (size 3 to 8) (size 9 to 14) (size 15 to 20)
#    0.000    2.200    1.000    1.800    2.800    4.000 
#    0.000    4.000    0.000    0.000    0.000    0.000 
#    0.000    0.000    0.000    0.000    0.000    0.000 
#
# Total GULP energy -222716.473235 kJ/mol
# GULP energy per Si atom -5567.911831 kJ/mol
# Density = 2.029025 g / cm^3
# Si number density = 20.336532 Si / 1000 Ang^3
#
#
#
# Elastic Constant Matrix: (Units=GPa)
#
#
# Indices 1 2 3 4 5 6 
#
# 1 64.2906 38.1747 35.2259 0.0047 -0.0049 -0.0017
# 2 38.1747 205.0450 97.5966 0.0044 -0.0044 -0.0033
# 3 35.2259 97.5966 191.2912 0.0125 -0.0114 -0.0055
# 4 0.0047 0.0044 0.0125 38.0696 -0.0072 -0.0041
# 5 -0.0049 -0.0044 -0.0114 -0.0072 20.6262 0.0032
# 6 -0.0017 -0.0033 -0.0055 -0.0041 0.0032 32.8530
#
#
#
# Elastic Compliance Matrix: (Units=1/GPa)
#
#
# Indices 1 2 3 4 5 6 
#
# 1 0.018124 -0.002358 -0.002134 -0.000001 0.000003 0.000000
# 2 -0.002358 0.006748 -0.003009 0.000000 -0.000001 0.000000
# 3 -0.002134 -0.003009 0.007156 -0.000002 0.000003 0.000001
# 4 -0.000001 0.000000 -0.000002 0.026268 0.000009 0.000003
# 5 0.000003 -0.000001 0.000003 0.000009 0.048482 -0.000005
# 6 0.000000 0.000000 0.000001 0.000003 -0.000005 0.030439
#
#
# Mechanical properties :
#
#
# Convention : Reuss Voigt Hill
#
# Bulk Modulus (GPa) = 58.73599 89.18014 73.95806
# Shear Modulus (GPa) = 31.66683 37.61839 34.64261
#
# Velocity S-wave (km/s) = 3.95034 4.30559 4.13179
# Velocity P-wave (km/s) = 7.05349 8.28643 7.69469
#
# Compressibility (1/GPa) = 0.01702534
#
# Stress axis : x y z
#
# Youngs Moduli (GPa) = 55.17491 148.19052 139.75048
#
# Poissons Ratio (x) = 0.34950 0.29826
# Poissons Ratio (y) = 0.13013 0.42045
# Poissons Ratio (z) = 0.11776 0.44584
#
# Static dielectric constant tensor:
#      x y z
#    x 1.774170 0.000000 0.000000 
#    y 0.000000 1.706400 -0.000010 
#    z 0.000000 -0.000010 1.648180 
# 
# From -- ./inp_files/5771.got.cif
#   From: 2010.05.17/outbox.cif.g08.bks.cpg/sg69_3_cif.got.tgz:5771.got - 2010.06.03 19:29:58.
