data_PCOD9513356
_publ_section_title
;
Structure prediction by ZEFSAII (Michael W. Deem and Ramdas Pophale) SiO2 
 PCOD9513356
Probable space group: F M M M
;
_chemical_formula_sum "Si O2"
_cell_formula_units_Z 144
_cell_length_a 14.129738
_cell_length_b 16.504379
_cell_length_c 31.213952
_cell_angle_alpha 90.000000
_cell_angle_beta 90.000000
_cell_angle_gamma 90.000000
_cell_volume 7279.173237
_symmetry_space_group_name_H-M "F M M M"
_symmetry_group_IT_number 69
_symmetry_cell_setting 'orthorhombic'
loop_
_space_group_symop_operation_xyz
x,y,z
-x,-y,z
x,-y,-z
-x,y,-z
-x,-y,-z
x,y,-z
-x,y,z
x,-y,z
x,1/2+y,1/2+z
-x,1/2-y,1/2+z
x,1/2-y,1/2-z
-x,1/2+y,1/2-z
-x,1/2-y,1/2-z
x,1/2+y,1/2-z
-x,1/2+y,1/2+z
x,1/2-y,1/2+z
1/2+x,y,1/2+z
1/2-x,-y,1/2+z
1/2+x,-y,1/2-z
1/2-x,y,1/2-z
1/2-x,-y,1/2-z
1/2+x,y,1/2-z
1/2-x,y,1/2+z
1/2+x,-y,1/2+z
1/2+x,1/2+y,z
1/2-x,1/2-y,z
1/2+x,1/2-y,-z
1/2-x,1/2+y,-z
1/2-x,1/2-y,-z
1/2+x,1/2+y,-z
1/2-x,1/2+y,z
1/2+x,1/2-y,z
loop_
_atom_site_type_symbol
_atom_site_label
_atom_site_fract_x
_atom_site_fract_y
_atom_site_fract_z
Si Si1 0.612222 0.000000 0.548239
Si Si2 0.393169 0.403445 0.198960
Si Si3 0.113539 0.093322 0.292102
Si Si4 0.310145 0.136822 0.609036
Si Si5 0.610688 0.183433 0.880214
O O1 0.641353 0.077406 0.575911
O O2 0.500000 0.000000 0.545256
O O3 0.651823 0.000000 0.500000
O O4 0.500000 0.370856 0.190590
O O5 0.401093 0.500000 0.203765
O O6 0.356154 0.375799 0.245210
O O7 0.328470 0.389136 0.158125
O O8 0.124837 0.157168 0.330451
O O9 0.000000 0.085164 0.287780
O O10 0.148957 0.000000 0.300690
O O11 0.359779 0.224783 0.609131
O O12 0.198252 0.135776 0.598518
O O13 0.500000 0.167922 0.890738
#
# Coordination Sequence:
#
# PCOD9513356 Si02
#       5
#    16  32  32  32  32
#     4  11  24  44  71  98 121 145 184 246 309 359
#     4   9  16  29  52  81 117 157 205 257 292 336
#     4   8  16  30  49  78 119 168 206 240 289 337
#     4  11  22  37  62  91 115 155 205 245 300 360
#     4  10  22  38  56  85 126 162 198 243 289 346
#
# _framework density 19.782467
#
# number of rings (size 3 to 8) (size 9 to 14) (size 15 to 20)
#    0.000    2.333    1.111    3.333    1.556    1.778 
#    0.000   10.000    0.000    2.667    0.000    0.000 
#    0.000    0.000    0.000    0.000    0.000    0.000 
#
# Total GULP energy -200544.273830 kJ/mol
# GULP energy per Si atom -5570.674273 kJ/mol
# Density = 1.973744 g / cm^3
# Si number density = 19.782467 Si / 1000 Ang^3
#
#
#
# Elastic Constant Matrix: (Units=GPa)
#
#
# Indices 1 2 3 4 5 6 
#
# 1 152.7027 26.0830 35.7160 0.0000 0.0000 0.0000
# 2 26.0830 60.3969 55.4924 0.0000 0.0000 0.0000
# 3 35.7160 55.4924 77.1692 0.0000 0.0000 0.0000
# 4 0.0000 0.0000 0.0000 -10.9246 0.0000 0.0000
# 5 0.0000 0.0000 0.0000 0.0000 -14.0749 0.0000
# 6 0.0000 0.0000 0.0000 0.0000 0.0000 24.2539
#
#
#
# Elastic Compliance Matrix: (Units=1/GPa)
#
#
# Indices 1 2 3 4 5 6 
#
# 1 0.007344 -0.000143 -0.003296 0.000000 0.000000 0.000000
# 2 -0.000143 0.048802 -0.035027 0.000000 0.000000 0.000000
# 3 -0.003296 -0.035027 0.039672 0.000000 0.000000 0.000000
# 4 0.000000 0.000000 0.000000 -0.091537 0.000000 0.000000
# 5 0.000000 0.000000 0.000000 0.000000 -0.071048 0.000000
# 6 0.000000 0.000000 0.000000 0.000000 0.000000 0.041231
#
#
# Mechanical properties :
#
#
# Convention : Reuss Voigt Hill
#
# Bulk Modulus (GPa) = 52.95166 58.31686 55.63426
# Shear Modulus (GPa) = 86.66884 11.38270 49.02577
#
# Velocity S-wave (km/s) = 6.62616 2.40134 4.98360
# Velocity P-wave (km/s) = 9.23940 6.10177 7.82937
#
# Compressibility (1/GPa) = 0.01888515
#
# Stress axis : x y z
#
# Youngs Moduli (GPa) = 136.16464 20.49108 25.20671
#
# Poissons Ratio (x) = 0.00294 0.08308
# Poissons Ratio (y) = 0.01950 0.88292
# Poissons Ratio (z) = 0.44880 0.71774
#
# Static dielectric constant tensor:
#      x y z
#    x 1.763760 0.000000 0.000000 
#    y 0.000000 1.717090 0.000000 
#    z 0.000000 0.000000 1.681220 
# 
# From -- ./inp_files/19472.got.cif
#   From: 2010.05.17/outbox.cif.g08.bks.cpg/sg69_10_cif.got.tgz:19472.got - 2010.06.03 19:29:58.
