data_PCOD9513044
_publ_section_title
;
Structure prediction by ZEFSAII (Michael W. Deem and Ramdas Pophale) SiO2 
 PCOD9513044
Probable space group: F M M M
;
_chemical_formula_sum "Si O2"
_cell_formula_units_Z 144
_cell_length_a 18.235195
_cell_length_b 13.658506
_cell_length_c 30.087627
_cell_angle_alpha 90.000000
_cell_angle_beta 90.000000
_cell_angle_gamma 90.000000
_cell_volume 7493.790474
_symmetry_space_group_name_H-M "F M M M"
_symmetry_group_IT_number 69
_symmetry_cell_setting 'orthorhombic'
loop_
_space_group_symop_operation_xyz
x,y,z
-x,-y,z
x,-y,-z
-x,y,-z
-x,-y,-z
x,y,-z
-x,y,z
x,-y,z
x,1/2+y,1/2+z
-x,1/2-y,1/2+z
x,1/2-y,1/2-z
-x,1/2+y,1/2-z
-x,1/2-y,1/2-z
x,1/2+y,1/2-z
-x,1/2+y,1/2+z
x,1/2-y,1/2+z
1/2+x,y,1/2+z
1/2-x,-y,1/2+z
1/2+x,-y,1/2-z
1/2-x,y,1/2-z
1/2-x,-y,1/2-z
1/2+x,y,1/2-z
1/2-x,y,1/2+z
1/2+x,-y,1/2+z
1/2+x,1/2+y,z
1/2-x,1/2-y,z
1/2+x,1/2-y,-z
1/2-x,1/2+y,-z
1/2-x,1/2-y,-z
1/2+x,1/2+y,-z
1/2-x,1/2+y,z
1/2+x,1/2-y,z
loop_
_atom_site_type_symbol
_atom_site_label
_atom_site_fract_x
_atom_site_fract_y
_atom_site_fract_z
Si Si1 0.087580 0.000000 0.949124
Si Si2 0.320753 0.886022 0.884197
Si Si3 0.416634 0.116448 0.796222
Si Si4 0.911972 0.388941 0.301485
Si Si5 0.848432 0.675854 0.608149
O O1 0.114486 0.903023 0.923856
O O2 0.000000 0.000000 0.948523
O O3 0.113875 0.000000 0.000000
O O4 0.358809 0.876006 0.835929
O O5 0.234372 0.862877 0.883996
O O6 0.351120 0.788298 0.909118
O O7 0.332919 0.000000 0.898864
O O8 0.500000 0.155712 0.805210
O O9 0.389752 0.147094 0.747329
O O10 0.425995 0.000000 0.790731
O O11 0.884577 0.500000 0.308365
O O12 0.886249 0.328685 0.343624
O O13 0.000000 0.391926 0.300767
#
# Coordination Sequence:
#
# PCOD9513044 Si02
#       5
#    16  32  32  32  32
#     4  11  24  44  70  97 121 143 185 252 312 359
#     4  10  21  37  56  82 125 161 197 241 287 348
#     4   8  16  30  48  76 116 163 207 244 285 332
#     4   9  16  29  51  79 114 156 207 257 292 333
#     4  11  21  36  61  87 115 155 201 245 300 360
#
# _framework density 19.215910000000001
#
# number of rings (size 3 to 8) (size 9 to 14) (size 15 to 20)
#    0.000    2.333    2.222    2.000    0.000    3.556 
#    0.000   10.000    0.000    0.000    0.000    1.556 
#    0.000    0.000    0.000    0.000    0.000    0.000 
#
# Total GULP energy -200458.288329 kJ/mol
# GULP energy per Si atom -5568.285787 kJ/mol
# Density = 1.917217 g / cm^3
# Si number density = 19.215910 Si / 1000 Ang^3
#
#
#
# Elastic Constant Matrix: (Units=GPa)
#
#
# Indices 1 2 3 4 5 6 
#
# 1 41.9631 20.5031 28.8850 0.0000 0.0000 0.0000
# 2 20.5031 197.7532 35.6990 0.0000 0.0000 0.0000
# 3 28.8850 35.6990 50.9321 0.0000 0.0000 0.0000
# 4 0.0000 0.0000 0.0000 -5.8409 0.0000 0.0000
# 5 0.0000 0.0000 0.0000 0.0000 -27.4340 0.0000
# 6 0.0000 0.0000 0.0000 0.0000 0.0000 5.4717
#
#
#
# Elastic Compliance Matrix: (Units=1/GPa)
#
#
# Indices 1 2 3 4 5 6 
#
# 1 0.039091 -0.000058 -0.022129 0.000000 0.000000 0.000000
# 2 -0.000058 0.005789 -0.004025 0.000000 0.000000 0.000000
# 3 -0.022129 -0.004025 0.035005 0.000000 0.000000 0.000000
# 4 0.000000 0.000000 0.000000 -0.171205 0.000000 0.000000
# 5 0.000000 0.000000 0.000000 0.000000 -0.036451 0.000000
# 6 0.000000 0.000000 0.000000 0.000000 0.000000 0.182758
#
#
# Mechanical properties :
#
#
# Convention : Reuss Voigt Hill
#
# Bulk Modulus (GPa) = 36.41446 51.20251 43.80849
# Shear Modulus (GPa) = 42.89462 8.14345 25.51904
#
# Velocity S-wave (km/s) = 4.72979 2.06084 3.64815
# Velocity P-wave (km/s) = 6.98707 5.68916 6.37125
#
# Compressibility (1/GPa) = 0.02746162
#
# Stress axis : x y z
#
# Youngs Moduli (GPa) = 25.58125 172.72880 28.56740
#
# Poissons Ratio (x) = 0.01005 0.63216
# Poissons Ratio (y) = 0.00149 0.11498
# Poissons Ratio (z) = 0.56608 0.69521
#
# Static dielectric constant tensor:
#      x y z
#    x 1.659170 0.000000 0.000000 
#    y 0.000000 1.800670 0.000000 
#    z 0.000000 0.000000 1.642930 
# 
# From -- ./inp_files/27397.got.cif
#   From: 2010.05.17/outbox.cif.g08.bks.cpg/sg69_14_cif.got.tgz:27397.got - 2010.06.03 19:29:58.
