data_PCOD9513303
_publ_section_title
;
Structure prediction by ZEFSAII (Michael W. Deem and Ramdas Pophale) SiO2 
 PCOD9513303
Probable space group: F M M M
;
_chemical_formula_sum "Si O2"
_cell_formula_units_Z 168
_cell_length_a 24.048876
_cell_length_b 14.771158
_cell_length_c 21.804223
_cell_angle_alpha 90.000000
_cell_angle_beta 90.000000
_cell_angle_gamma 90.000000
_cell_volume 7745.508622
_symmetry_space_group_name_H-M "F M M M"
_symmetry_group_IT_number 69
_symmetry_cell_setting 'orthorhombic'
loop_
_space_group_symop_operation_xyz
x,y,z
-x,-y,z
x,-y,-z
-x,y,-z
-x,-y,-z
x,y,-z
-x,y,z
x,-y,z
x,1/2+y,1/2+z
-x,1/2-y,1/2+z
x,1/2-y,1/2-z
-x,1/2+y,1/2-z
-x,1/2-y,1/2-z
x,1/2+y,1/2-z
-x,1/2+y,1/2+z
x,1/2-y,1/2+z
1/2+x,y,1/2+z
1/2-x,-y,1/2+z
1/2+x,-y,1/2-z
1/2-x,y,1/2-z
1/2-x,-y,1/2-z
1/2+x,y,1/2-z
1/2-x,y,1/2+z
1/2+x,-y,1/2+z
1/2+x,1/2+y,z
1/2-x,1/2-y,z
1/2+x,1/2-y,-z
1/2-x,1/2+y,-z
1/2-x,1/2-y,-z
1/2+x,1/2+y,-z
1/2-x,1/2+y,z
1/2+x,1/2-y,z
loop_
_atom_site_type_symbol
_atom_site_label
_atom_site_fract_x
_atom_site_fract_y
_atom_site_fract_z
Si Si1 0.934548 0.901075 0.615418
Si Si2 0.201708 0.500000 0.000000
Si Si3 0.146289 0.604344 0.655541
Si Si4 0.336002 0.894138 0.206813
Si Si5 0.261202 0.649563 0.597153
Si Si6 0.933678 0.291584 0.567367
O O1 0.896594 0.892637 0.675350
O O2 0.923039 0.815811 0.572677
O O3 0.000000 0.898229 0.630572
O O4 0.922786 0.000000 0.586820
O O5 0.207068 0.419876 0.053338
O O6 0.128503 0.500000 0.662079
O O7 0.160647 0.638556 0.723683
O O8 0.201331 0.609112 0.614366
O O9 0.099102 0.660564 0.621466
O O10 0.295912 0.842407 0.160314
O O11 0.317085 0.000000 0.208007
O O12 0.250000 0.750000 0.572186
O O13 0.915802 0.324384 0.500000
O O14 0.000000 0.305307 0.572785
#
# Coordination Sequence:
#
# PCOD9513303 Si02
#       6
#    32   8  32  32  32  32
#     4   9  19  38  63  91 125 166 210 266 329 388
#     4  12  26  48  62  94 142 172 212 266 324 382
#     4  11  24  42  68  91 128 173 216 271 329 387
#     4  10  21  42  64  96 130 166 216 273 328 384
#     4  12  25  43  68  98 129 175 220 264 325 388
#     4  10  23  41  61  93 132 171 219 268 322 393
#
# _framework density 21.689989000000001
#
# number of rings (size 3 to 8) (size 9 to 14) (size 15 to 20)
#    0.000    1.524    1.905    2.000    1.333    7.238 
#    5.143    6.667    0.000    0.000    0.000    0.000 
#    0.000    0.000    0.000    0.000    0.000    0.000 
#
# Total GULP energy -234381.721727 kJ/mol
# GULP energy per Si atom -5580.517184 kJ/mol
# Density = 2.164062 g / cm^3
# Si number density = 21.689989 Si / 1000 Ang^3
#
#
#
# Elastic Constant Matrix: (Units=GPa)
#
#
# Indices 1 2 3 4 5 6 
#
# 1 54.1000 27.3183 27.0244 0.0000 0.0000 0.0000
# 2 27.3183 112.1446 41.6425 0.0000 0.0000 0.0000
# 3 27.0244 41.6425 117.2903 0.0000 0.0000 0.0000
# 4 0.0000 0.0000 0.0000 26.6705 0.0000 0.0000
# 5 0.0000 0.0000 0.0000 0.0000 79.6387 0.0000
# 6 0.0000 0.0000 0.0000 0.0000 0.0000 31.9842
#
#
#
# Elastic Compliance Matrix: (Units=1/GPa)
#
#
# Indices 1 2 3 4 5 6 
#
# 1 0.022398 -0.004077 -0.003713 0.000000 0.000000 0.000000
# 2 -0.004077 0.011013 -0.002971 0.000000 0.000000 0.000000
# 3 -0.003713 -0.002971 0.010436 0.000000 0.000000 0.000000
# 4 0.000000 0.000000 0.000000 0.037495 0.000000 0.000000
# 5 0.000000 0.000000 0.000000 0.000000 0.012557 0.000000
# 6 0.000000 0.000000 0.000000 0.000000 0.000000 0.031265
#
#
# Mechanical properties :
#
#
# Convention : Reuss Voigt Hill
#
# Bulk Modulus (GPa) = 44.79235 52.83390 48.81312
# Shear Modulus (GPa) = 32.44054 40.16201 36.30127
#
# Velocity S-wave (km/s) = 3.87155 4.30773 4.09546
# Velocity P-wave (km/s) = 6.37818 7.01097 6.70205
#
# Compressibility (1/GPa) = 0.02232524
#
# Stress axis : x y z
#
# Youngs Moduli (GPa) = 44.64693 90.79833 95.82146
#
# Poissons Ratio (x) = 0.37022 0.35579
# Poissons Ratio (y) = 0.18204 0.28466
# Poissons Ratio (z) = 0.16577 0.26974
#
# Static dielectric constant tensor:
#      x y z
#    x 1.782440 0.000000 0.000000 
#    y 0.000000 1.821530 0.000000 
#    z 0.000000 0.000000 1.766110 
# 
# From -- ./inp_files/18811.got.cif
#   From: 2010.05.17/outbox.cif.g08.bks.cpg/sg69_10_cif.got.tgz:18811.got - 2010.06.03 19:29:58.
