data_PCOD9513670
_publ_section_title
;
Structure prediction by ZEFSAII (Michael W. Deem and Ramdas Pophale) SiO2 
 PCOD9513670
Probable space group: F M M M
;
_chemical_formula_sum "Si O2"
_cell_formula_units_Z 160
_cell_length_a 29.661025
_cell_length_b 17.695656
_cell_length_c 14.773640
_cell_angle_alpha 90.000000
_cell_angle_beta 90.000000
_cell_angle_gamma 90.000000
_cell_volume 7754.259559
_symmetry_space_group_name_H-M "F M M M"
_symmetry_group_IT_number 69
_symmetry_cell_setting 'orthorhombic'
loop_
_space_group_symop_operation_xyz
x,y,z
-x,-y,z
x,-y,-z
-x,y,-z
-x,-y,-z
x,y,-z
-x,y,z
x,-y,z
x,1/2+y,1/2+z
-x,1/2-y,1/2+z
x,1/2-y,1/2-z
-x,1/2+y,1/2-z
-x,1/2-y,1/2-z
x,1/2+y,1/2-z
-x,1/2+y,1/2+z
x,1/2-y,1/2+z
1/2+x,y,1/2+z
1/2-x,-y,1/2+z
1/2+x,-y,1/2-z
1/2-x,y,1/2-z
1/2-x,-y,1/2-z
1/2+x,y,1/2-z
1/2-x,y,1/2+z
1/2+x,-y,1/2+z
1/2+x,1/2+y,z
1/2-x,1/2-y,z
1/2+x,1/2-y,-z
1/2-x,1/2+y,-z
1/2-x,1/2-y,-z
1/2+x,1/2+y,-z
1/2-x,1/2+y,z
1/2+x,1/2-y,z
loop_
_atom_site_type_symbol
_atom_site_label
_atom_site_fract_x
_atom_site_fract_y
_atom_site_fract_z
Si Si1 0.571251 0.704847 0.155163
Si Si2 0.000000 0.821078 0.594152
Si Si3 0.264700 0.090506 0.600537
Si Si4 0.161697 0.668691 0.717578
Si Si5 0.000000 0.409932 0.717228
Si Si6 0.658208 0.909182 0.898083
O O1 0.571616 0.750000 0.250000
O O2 0.542833 0.764258 0.097086
O O3 0.623086 0.683062 0.142103
O O4 0.542639 0.628557 0.167667
O O5 0.000000 0.864613 0.500000
O O6 0.000000 0.875208 0.681044
O O7 0.279296 0.115506 0.500000
O O8 0.297145 0.123139 0.676090
O O9 0.211732 0.108946 0.608112
O O10 0.267291 0.000000 0.604566
O O11 0.178205 0.750000 0.750000
O O12 0.139706 0.628270 0.806322
O O13 0.000000 0.500000 0.716668
O O14 0.652844 0.000000 0.893383
O O15 0.642810 0.885766 0.000000
#
# Coordination Sequence:
#
# PCOD9513670 Si02
#       6
#    32  16  32  32  16  32
#     4   8  18  35  50  69 102 140 168 193 242 311
#     4   9  17  34  58  76  99 137 168 194 244 313
#     4   9  19  35  52  71 100 139 179 218 261 309
#     4  11  21  32  51  78 105 136 174 216 260 305
#     4   9  17  32  54  78 101 125 160 208 252 289
#     4   9  19  36  54  72 100 139 178 216 264 317
#
# _framework density 20.63382
#
# number of rings (size 3 to 8) (size 9 to 14) (size 15 to 20)
#    0.000    2.800    0.000    3.600    0.000    6.600 
#    0.000   10.000    0.000    4.800    0.000    0.000 
#    0.000    0.000    0.000    0.000    0.000    0.000 
#
# Total GULP energy -222916.433838 kJ/mol
# GULP energy per Si atom -5572.910846 kJ/mol
# Density = 2.058686 g / cm^3
# Si number density = 20.633820 Si / 1000 Ang^3
#
#
#
# Elastic Constant Matrix: (Units=GPa)
#
#
# Indices 1 2 3 4 5 6 
#
# 1 45.3760 5.2888 -7.0231 0.0000 0.0000 0.0000
# 2 5.2888 73.4005 -0.4156 0.0000 0.0000 0.0000
# 3 -7.0231 -0.4156 53.3696 0.0000 0.0000 0.0000
# 4 0.0000 0.0000 0.0000 4.4648 0.0000 0.0000
# 5 0.0000 0.0000 0.0000 0.0000 0.1989 0.0000
# 6 0.0000 0.0000 0.0000 0.0000 0.0000 10.3803
#
#
#
# Elastic Compliance Matrix: (Units=1/GPa)
#
#
# Indices 1 2 3 4 5 6 
#
# 1 0.022687 -0.001618 0.002973 0.000000 0.000000 0.000000
# 2 -0.001618 0.013740 -0.000106 0.000000 0.000000 0.000000
# 3 0.002973 -0.000106 0.019128 0.000000 0.000000 0.000000
# 4 0.000000 0.000000 0.000000 0.223973 0.000000 0.000000
# 5 0.000000 0.000000 0.000000 0.000000 5.026651 0.000000
# 6 0.000000 0.000000 0.000000 0.000000 0.000000 0.096336
#
#
# Mechanical properties :
#
#
# Convention : Reuss Voigt Hill
#
# Bulk Modulus (GPa) = 17.22577 18.64956 17.93767
# Shear Modulus (GPa) = 0.92262 14.62856 7.77559
#
# Velocity S-wave (km/s) = 0.66941 2.66552 1.94334
# Velocity P-wave (km/s) = 2.99398 4.30480 3.70778
#
# Compressibility (1/GPa) = 0.05805254
#
# Stress axis : x y z
#
# Youngs Moduli (GPa) = 44.07857 72.78094 52.28032
#
# Poissons Ratio (x) = 0.11775 -0.15542
# Poissons Ratio (y) = 0.07131 0.00554
# Poissons Ratio (z) = -0.13104 0.00771
#
# Static dielectric constant tensor:
#      x y z
#    x 1.796580 0.000000 0.000000 
#    y 0.000000 1.698100 0.000000 
#    z 0.000000 0.000000 1.821570 
# 
# From -- ./inp_files/15711.got.cif
#   From: 2010.05.17/outbox.cif.g08.bks.cpg/sg69_8_cif.got.tgz:15711.got - 2010.06.03 19:29:58.
