data_PCOD9513165
_publ_section_title
;
Structure prediction by ZEFSAII (Michael W. Deem and Ramdas Pophale) SiO2 
 PCOD9513165
Probable space group: F M M M
;
_chemical_formula_sum "Si O2"
_cell_formula_units_Z 192
_cell_length_a 23.170509
_cell_length_b 15.148566
_cell_length_c 26.278184
_cell_angle_alpha 90.000000
_cell_angle_beta 90.000000
_cell_angle_gamma 90.000000
_cell_volume 9223.642186
_symmetry_space_group_name_H-M "F M M M"
_symmetry_group_IT_number 69
_symmetry_cell_setting 'orthorhombic'
loop_
_space_group_symop_operation_xyz
x,y,z
-x,-y,z
x,-y,-z
-x,y,-z
-x,-y,-z
x,y,-z
-x,y,z
x,-y,z
x,1/2+y,1/2+z
-x,1/2-y,1/2+z
x,1/2-y,1/2-z
-x,1/2+y,1/2-z
-x,1/2-y,1/2-z
x,1/2+y,1/2-z
-x,1/2+y,1/2+z
x,1/2-y,1/2+z
1/2+x,y,1/2+z
1/2-x,-y,1/2+z
1/2+x,-y,1/2-z
1/2-x,y,1/2-z
1/2-x,-y,1/2-z
1/2+x,y,1/2-z
1/2-x,y,1/2+z
1/2+x,-y,1/2+z
1/2+x,1/2+y,z
1/2-x,1/2-y,z
1/2+x,1/2-y,-z
1/2-x,1/2+y,-z
1/2-x,1/2-y,-z
1/2+x,1/2+y,-z
1/2-x,1/2+y,z
1/2+x,1/2-y,z
loop_
_atom_site_type_symbol
_atom_site_label
_atom_site_fract_x
_atom_site_fract_y
_atom_site_fract_z
Si Si1 0.281382 0.656458 0.442929
Si Si2 0.380363 0.691969 0.799984
Si Si3 0.064206 0.645050 0.559251
Si Si4 0.430208 0.000000 0.732704
Si Si5 0.403863 0.814126 0.891412
Si Si6 0.178688 0.404112 0.377024
Si Si7 0.933892 0.000000 0.347242
O O1 0.294699 0.623242 0.500000
O O2 0.250000 0.750000 0.448245
O O3 0.338258 0.673305 0.410166
O O4 0.233695 0.601101 0.413090
O O5 0.371880 0.750000 0.750000
O O6 0.410193 0.596359 0.789568
O O7 0.412756 0.756435 0.839916
O O8 0.323089 0.667004 0.832038
O O9 0.071030 0.622387 0.500000
O O10 0.067158 0.751167 0.566656
O O11 0.119475 0.609717 0.590465
O O12 0.000000 0.615016 0.576019
O O13 0.500000 0.000000 0.728495
O O14 0.405506 0.000000 0.791108
O O15 0.423419 0.912279 0.879414
O O16 0.177114 0.500000 0.353169
O O17 0.000000 0.000000 0.333209
#
# Coordination Sequence:
#
# PCOD9513165 Si02
#       7
#    32  32  32  16  32  32  16
#     4  11  22  41  68  94 123 170 223 271 321 387
#     4  11  22  41  64  92 132 167 210 268 323 389
#     4  10  21  38  61  89 126 171 211 260 331 399
#     4  11  24  40  65  97 128 172 223 270 320 387
#     4  11  23  41  65  92 130 169 219 271 329 382
#     4  11  24  41  63  96 132 168 219 271 326 386
#     4  11  24  42  64  92 128 172 221 272 323 380
#
# _framework density 20.816072999999999
#
# number of rings (size 3 to 8) (size 9 to 14) (size 15 to 20)
#    0.000    1.167    5.833    1.500    1.167    5.333 
#    0.000    3.750    0.000    5.000    0.000    0.000 
#    0.000    0.000    0.000    0.000    0.000    0.000 
#
# Total GULP energy -267471.864679 kJ/mol
# GULP energy per Si atom -5572.330514 kJ/mol
# Density = 2.076869 g / cm^3
# Si number density = 20.816073 Si / 1000 Ang^3
#
#
#
# Elastic Constant Matrix: (Units=GPa)
#
#
# Indices 1 2 3 4 5 6 
#
# 1 93.1825 10.5095 29.7412 0.0000 0.0000 0.0000
# 2 10.5095 125.1232 22.7601 0.0000 0.0000 0.0000
# 3 29.7412 22.7601 91.0590 0.0000 0.0000 0.0000
# 4 0.0000 0.0000 0.0000 21.8918 0.0000 0.0000
# 5 0.0000 0.0000 0.0000 0.0000 20.7394 0.0000
# 6 0.0000 0.0000 0.0000 0.0000 0.0000 10.8087
#
#
#
# Elastic Compliance Matrix: (Units=1/GPa)
#
#
# Indices 1 2 3 4 5 6 
#
# 1 0.011992 -0.000309 -0.003840 0.000000 0.000000 0.000000
# 2 -0.000309 0.008381 -0.001994 0.000000 0.000000 0.000000
# 3 -0.003840 -0.001994 0.012734 0.000000 0.000000 0.000000
# 4 0.000000 0.000000 0.000000 0.045679 0.000000 0.000000
# 5 0.000000 0.000000 0.000000 0.000000 0.048217 0.000000
# 6 0.000000 0.000000 0.000000 0.000000 0.000000 0.092518
#
#
# Mechanical properties :
#
#
# Convention : Reuss Voigt Hill
#
# Bulk Modulus (GPa) = 48.02501 48.37623 48.20062
# Shear Modulus (GPa) = 20.94265 27.11158 24.02712
#
# Velocity S-wave (km/s) = 3.17532 3.61284 3.40112
# Velocity P-wave (km/s) = 6.04688 6.37917 6.21524
#
# Compressibility (1/GPa) = 0.02082248
#
# Stress axis : x y z
#
# Youngs Moduli (GPa) = 83.38938 119.32102 78.52800
#
# Poissons Ratio (x) = 0.03685 0.30151
# Poissons Ratio (y) = 0.02575 0.15658
# Poissons Ratio (z) = 0.32018 0.23791
#
# Static dielectric constant tensor:
#      x y z
#    x 1.752170 0.000000 0.000000 
#    y 0.000000 1.774520 0.000000 
#    z 0.000000 0.000000 1.803140 
# 
# From -- ./inp_files/43199.got.cif
#   From: 2010.05.17/outbox.cif.g08.bks.cpg/sg69_22_cif.got.tgz:43199.got - 2010.06.03 19:29:58.
