data_PCOD9513930
_publ_section_title
;
Structure prediction by ZEFSAII (Michael W. Deem and Ramdas Pophale) SiO2 
 PCOD9513930
Probable space group: F M M M
;
_chemical_formula_sum "Si O2"
_cell_formula_units_Z 92
_cell_length_a 10.066481
_cell_length_b 23.216239
_cell_length_c 18.851902
_cell_angle_alpha 90.000000
_cell_angle_beta 90.000000
_cell_angle_gamma 90.000000
_cell_volume 4405.799381
_symmetry_space_group_name_H-M "F M M M"
_symmetry_group_IT_number 69
_symmetry_cell_setting 'orthorhombic'
loop_
_space_group_symop_operation_xyz
x,y,z
-x,-y,z
x,-y,-z
-x,y,-z
-x,-y,-z
x,y,-z
-x,y,z
x,-y,z
x,1/2+y,1/2+z
-x,1/2-y,1/2+z
x,1/2-y,1/2-z
-x,1/2+y,1/2-z
-x,1/2-y,1/2-z
x,1/2+y,1/2-z
-x,1/2+y,1/2+z
x,1/2-y,1/2+z
1/2+x,y,1/2+z
1/2-x,-y,1/2+z
1/2+x,-y,1/2-z
1/2-x,y,1/2-z
1/2-x,-y,1/2-z
1/2+x,y,1/2-z
1/2-x,y,1/2+z
1/2+x,-y,1/2+z
1/2+x,1/2+y,z
1/2-x,1/2-y,z
1/2+x,1/2-y,-z
1/2-x,1/2+y,-z
1/2-x,1/2-y,-z
1/2+x,1/2+y,-z
1/2-x,1/2+y,z
1/2+x,1/2-y,z
loop_
_atom_site_type_symbol
_atom_site_label
_atom_site_fract_x
_atom_site_fract_y
_atom_site_fract_z
Si Si1 0.750000 0.250000 0.250000
Si Si2 0.500000 0.595778 0.869439
Si Si3 0.289621 0.350718 0.353818
Si Si4 0.500000 0.564112 0.291171
Si Si5 0.358904 0.201288 0.000000
Si Si6 0.500000 0.500000 0.000000
O O1 0.682639 0.295136 0.304000
O O2 0.365861 0.634574 0.865013
O O3 0.500000 0.563824 0.793724
O O4 0.500000 0.551613 0.936233
O O5 0.369872 0.402489 0.318277
O O6 0.345458 0.337235 0.430818
O O7 0.500000 0.500000 0.319925
O O8 0.250000 0.250000 0.000000
O O9 0.500000 0.231751 0.000000
#
# Coordination Sequence:
#
# PCOD9513930 Si02
#       6
#     8  16  32  16  16   4
#     4  12  24  44  82 110 152 188 248 312 388 444
#     4  12  26  46  74 109 145 194 249 309 371 450
#     4  12  27  47  75 114 148 198 251 312 388 454
#     4  12  26  49  77 107 152 196 254 319 373 448
#     4  12  27  46  71 106 155 196 247 314 389 459
#     4  12  28  48  72 102 156 202 256 306 370 436
#
# _framework density 20.881567
#
# number of rings (size 3 to 8) (size 9 to 14) (size 15 to 20)
#    0.000    0.000    7.826    1.043    4.870    4.174 
#    0.000    0.870    0.000    0.000    0.000    0.000 
#    0.000    0.000    0.000    0.000    0.000    0.000 
#
# Total GULP energy -128213.393225 kJ/mol
# GULP energy per Si atom -5574.495358 kJ/mol
# Density = 2.083404 g / cm^3
# Si number density = 20.881567 Si / 1000 Ang^3
#
#
#
# Elastic Constant Matrix: (Units=GPa)
#
#
# Indices 1 2 3 4 5 6 
#
# 1 169.5288 50.6799 31.9724 0.0000 0.0000 0.0000
# 2 50.6799 148.4381 56.3407 0.0000 0.0000 0.0000
# 3 31.9724 56.3407 200.8788 0.0000 0.0000 0.0000
# 4 0.0000 0.0000 0.0000 25.6241 0.0000 0.0000
# 5 0.0000 0.0000 0.0000 0.0000 24.4224 0.0000
# 6 0.0000 0.0000 0.0000 0.0000 0.0000 18.1926
#
#
#
# Elastic Compliance Matrix: (Units=1/GPa)
#
#
# Indices 1 2 3 4 5 6 
#
# 1 0.006608 -0.002078 -0.000469 0.000000 0.000000 0.000000
# 2 -0.002078 0.008193 -0.001967 0.000000 0.000000 0.000000
# 3 -0.000469 -0.001967 0.005604 0.000000 0.000000 0.000000
# 4 0.000000 0.000000 0.000000 0.039026 0.000000 0.000000
# 5 0.000000 0.000000 0.000000 0.000000 0.040946 0.000000
# 6 0.000000 0.000000 0.000000 0.000000 0.000000 0.054967
#
#
# Mechanical properties :
#
#
# Convention : Reuss Voigt Hill
#
# Bulk Modulus (GPa) = 87.89433 88.53684 88.21559
# Shear Modulus (GPa) = 29.73247 38.97133 34.35190
#
# Velocity S-wave (km/s) = 3.77750 4.32476 4.06036
# Velocity P-wave (km/s) = 7.82363 8.21155 8.01994
#
# Compressibility (1/GPa) = 0.01137730
#
# Stress axis : x y z
#
# Youngs Moduli (GPa) = 151.32191 122.05518 178.42870
#
# Poissons Ratio (x) = 0.25366 0.08367
# Poissons Ratio (y) = 0.31449 0.35099
# Poissons Ratio (z) = 0.07096 0.24010
#
# Static dielectric constant tensor:
#      x y z
#    x 1.776120 0.000000 0.000000 
#    y 0.000000 1.717420 0.000000 
#    z 0.000000 0.000000 1.739670 
# 
# From -- ./inp_files/20656.got.cif
#   From: 2010.05.17/outbox.cif.g08.bks.cpg/sg69_11_cif.got.tgz:20656.got - 2010.06.03 19:29:58.
