data_PCOD9513802
_publ_section_title
;
Structure prediction by ZEFSAII (Michael W. Deem and Ramdas Pophale) SiO2 
 PCOD9513802
Probable space group: F M M M
;
_chemical_formula_sum "Si O2"
_cell_formula_units_Z 160
_cell_length_a 9.686053
_cell_length_b 28.770975
_cell_length_c 32.209223
_cell_angle_alpha 90.000000
_cell_angle_beta 90.000000
_cell_angle_gamma 90.000000
_cell_volume 8975.975716
_symmetry_space_group_name_H-M "F M M M"
_symmetry_group_IT_number 69
_symmetry_cell_setting 'orthorhombic'
loop_
_space_group_symop_operation_xyz
x,y,z
-x,-y,z
x,-y,-z
-x,y,-z
-x,-y,-z
x,y,-z
-x,y,z
x,-y,z
x,1/2+y,1/2+z
-x,1/2-y,1/2+z
x,1/2-y,1/2-z
-x,1/2+y,1/2-z
-x,1/2-y,1/2-z
x,1/2+y,1/2-z
-x,1/2+y,1/2+z
x,1/2-y,1/2+z
1/2+x,y,1/2+z
1/2-x,-y,1/2+z
1/2+x,-y,1/2-z
1/2-x,y,1/2-z
1/2-x,-y,1/2-z
1/2+x,y,1/2-z
1/2-x,y,1/2+z
1/2+x,-y,1/2+z
1/2+x,1/2+y,z
1/2-x,1/2-y,z
1/2+x,1/2-y,-z
1/2-x,1/2+y,-z
1/2-x,1/2-y,-z
1/2+x,1/2+y,-z
1/2-x,1/2+y,z
1/2+x,1/2-y,z
loop_
_atom_site_type_symbol
_atom_site_label
_atom_site_fract_x
_atom_site_fract_y
_atom_site_fract_z
Si Si1 0.500000 0.942734 0.797778
Si Si2 0.168724 0.205895 0.206196
Si Si3 0.755294 0.610322 0.338845
Si Si4 0.833356 0.625545 0.569160
Si Si5 0.332832 0.052014 0.500000
Si Si6 0.835125 0.702617 0.500000
Si Si7 0.500000 0.445251 0.800723
O O1 0.374360 0.915766 0.819185
O O2 0.500000 0.932233 0.748197
O O3 0.500000 0.000000 0.802605
O O4 0.250000 0.200968 0.250000
O O5 0.250000 0.250000 0.186441
O O6 0.203121 0.159148 0.181925
O O7 0.000000 0.211964 0.209873
O O8 0.754404 0.620612 0.387731
O O9 0.873422 0.574913 0.325723
O O10 0.796355 0.581688 0.540372
O O11 0.805237 0.670789 0.540650
O O12 0.000000 0.625158 0.577047
O O13 0.500000 0.050220 0.500000
O O14 0.278183 0.000000 0.500000
O O15 0.750000 0.750000 0.500000
O O16 0.000000 0.711488 0.500000
O O17 0.500000 0.500000 0.801363
#
# Coordination Sequence:
#
# PCOD9513802 Si02
#       7
#    16  32  32  32  16  16  16
#     4  11  26  42  57  86 125 164 211 262 318 365
#     4  11  23  38  60  87 116 155 200 245 301 360
#     4  12  23  39  62  87 122 162 203 258 308 361
#     4   9  18  36  56  87 120 147 193 243 289 351
#     4   8  15  28  53  83 111 142 179 231 288 341
#     4   9  19  38  65  91 124 157 189 241 299 360
#     4  11  22  40  63  86 113 160 213 260 308 371
#
# _framework density 17.82536
#
# number of rings (size 3 to 8) (size 9 to 14) (size 15 to 20)
#    0.000    1.700    2.000    4.800    2.800    4.000 
#    1.800    0.000    0.000    0.000    0.000    2.100 
#    0.000    0.000    0.000    0.000    0.000    0.000 
#
# Total GULP energy -222850.432483 kJ/mol
# GULP energy per Si atom -5571.260812 kJ/mol
# Density = 1.778479 g / cm^3
# Si number density = 17.825360 Si / 1000 Ang^3
#
#
#
# Elastic Constant Matrix: (Units=GPa)
#
#
# Indices 1 2 3 4 5 6 
#
# 1 94.4049 26.6345 10.3728 0.0000 0.0000 0.0000
# 2 26.6345 113.5964 39.5549 0.0000 0.0000 0.0000
# 3 10.3728 39.5549 93.3242 0.0000 0.0000 0.0000
# 4 0.0000 0.0000 0.0000 -9.6513 0.0000 0.0000
# 5 0.0000 0.0000 0.0000 0.0000 -26.2973 0.0000
# 6 0.0000 0.0000 0.0000 0.0000 0.0000 35.6412
#
#
#
# Elastic Compliance Matrix: (Units=1/GPa)
#
#
# Indices 1 2 3 4 5 6 
#
# 1 0.011345 -0.002605 -0.000157 0.000000 0.000000 0.000000
# 2 -0.002605 0.010926 -0.004341 0.000000 0.000000 0.000000
# 3 -0.000157 -0.004341 0.012573 0.000000 0.000000 0.000000
# 4 0.000000 0.000000 0.000000 -0.103613 0.000000 0.000000
# 5 0.000000 0.000000 0.000000 0.000000 -0.038027 0.000000
# 6 0.000000 0.000000 0.000000 0.000000 0.000000 0.028057
#
#
# Mechanical properties :
#
#
# Convention : Reuss Voigt Hill
#
# Bulk Modulus (GPa) = 48.45731 50.49444 49.47587
# Shear Modulus (GPa) = -86.72469 14.92276 -35.90097
#
# Velocity S-wave (km/s) = -6.98270 2.89652 -4.49267
# Velocity P-wave (km/s) = 6.14550 6.29088 0.95079
#
# Compressibility (1/GPa) = 0.02063672
#
# Stress axis : x y z
#
# Youngs Moduli (GPa) = 88.14490 91.52809 79.53722
#
# Poissons Ratio (x) = 0.23847 0.01246
# Poissons Ratio (y) = 0.22966 0.34528
# Poissons Ratio (z) = 0.01381 0.39734
#
# Static dielectric constant tensor:
#      x y z
#    x 1.430840 0.000000 0.000000 
#    y 0.000000 1.746960 0.000000 
#    z 0.000000 0.000000 1.597300 
# 
# From -- ./inp_files/44648.got.cif
#   From: 2010.05.17/outbox.cif.g08.bks.cpg/sg69_23_cif.got.tgz:44648.got - 2010.06.03 19:29:58.
