data_PCOD9513412
_publ_section_title
;
Structure prediction by ZEFSAII (Michael W. Deem and Ramdas Pophale) SiO2 
 PCOD9513412
Probable space group: F M M M
;
_chemical_formula_sum "Si O2"
_cell_formula_units_Z 80
_cell_length_a 13.319520
_cell_length_b 21.086243
_cell_length_c 11.328316
_cell_angle_alpha 90.000000
_cell_angle_beta 90.000000
_cell_angle_gamma 90.000000
_cell_volume 3181.655373
_symmetry_space_group_name_H-M "F M M M"
_symmetry_group_IT_number 69
_symmetry_cell_setting 'orthorhombic'
loop_
_space_group_symop_operation_xyz
x,y,z
-x,-y,z
x,-y,-z
-x,y,-z
-x,-y,-z
x,y,-z
-x,y,z
x,-y,z
x,1/2+y,1/2+z
-x,1/2-y,1/2+z
x,1/2-y,1/2-z
-x,1/2+y,1/2-z
-x,1/2-y,1/2-z
x,1/2+y,1/2-z
-x,1/2+y,1/2+z
x,1/2-y,1/2+z
1/2+x,y,1/2+z
1/2-x,-y,1/2+z
1/2+x,-y,1/2-z
1/2-x,y,1/2-z
1/2-x,-y,1/2-z
1/2+x,y,1/2-z
1/2-x,y,1/2+z
1/2+x,-y,1/2+z
1/2+x,1/2+y,z
1/2-x,1/2-y,z
1/2+x,1/2-y,-z
1/2-x,1/2+y,-z
1/2-x,1/2-y,-z
1/2+x,1/2+y,-z
1/2-x,1/2+y,z
1/2+x,1/2-y,z
loop_
_atom_site_type_symbol
_atom_site_label
_atom_site_fract_x
_atom_site_fract_y
_atom_site_fract_z
Si Si1 0.614876 0.289625 0.630016
Si Si2 0.280744 0.899658 0.631688
Si Si3 0.500000 0.427760 0.138947
O O1 0.622769 0.255737 0.500000
O O2 0.500000 0.315797 0.630656
O O3 0.625318 0.250000 0.750000
O O4 0.704050 0.340833 0.628924
O O5 0.273970 0.928214 0.500000
O O6 0.250000 0.935964 0.750000
O O7 0.398461 0.888807 0.657433
O O8 0.500000 0.500000 0.192440
O O9 0.500000 0.438015 0.000000
#
# Coordination Sequence:
#
# PCOD9513412 Si02
#       3
#    32  32  16
#     4   9  19  37  61  90 127 170 213 257 308 369
#     4  10  22  39  64  94 127 166 210 262 316 374
#     4   9  20  42  68  93 125 167 211 255 318 395
#
# _framework density 25.144145000000002
#
# number of rings (size 3 to 8) (size 9 to 14) (size 15 to 20)
#    0.000    2.600    0.000    0.000    2.800    3.200 
#    0.000    5.000    0.000    1.200    0.000    0.000 
#    0.000    0.000    0.000    0.000    0.000    0.000 
#
# Total GULP energy -111454.685135 kJ/mol
# GULP energy per Si atom -5572.734257 kJ/mol
# Density = 2.508692 g / cm^3
# Si number density = 25.144145 Si / 1000 Ang^3
#
#
#
# Elastic Constant Matrix: (Units=GPa)
#
#
# Indices 1 2 3 4 5 6 
#
# 1 257.2092 86.4855 62.4950 0.0000 0.0000 0.0000
# 2 86.4855 103.0065 53.0344 0.0000 0.0000 0.0000
# 3 62.4950 53.0344 265.9708 0.0000 0.0000 0.0000
# 4 0.0000 0.0000 0.0000 -207.9532 0.0000 0.0000
# 5 0.0000 0.0000 0.0000 0.0000 42.2397 0.0000
# 6 0.0000 0.0000 0.0000 0.0000 0.0000 197.1595
#
#
#
# Elastic Compliance Matrix: (Units=1/GPa)
#
#
# Indices 1 2 3 4 5 6 
#
# 1 0.005457 -0.004370 -0.000411 0.000000 0.000000 0.000000
# 2 -0.004370 0.014319 -0.001828 0.000000 0.000000 0.000000
# 3 -0.000411 -0.001828 0.004221 0.000000 0.000000 0.000000
# 4 0.000000 0.000000 0.000000 -0.004809 0.000000 0.000000
# 5 0.000000 0.000000 0.000000 0.000000 0.023674 0.000000
# 6 0.000000 0.000000 0.000000 0.000000 0.000000 0.005072
#
#
# Mechanical properties :
#
#
# Convention : Reuss Voigt Hill
#
# Bulk Modulus (GPa) = 92.78165 114.46847 103.62506
# Shear Modulus (GPa) = 77.22423 34.56728 55.89576
#
# Velocity S-wave (km/s) = 5.54791 3.71180 4.72000
# Velocity P-wave (km/s) = 8.83284 7.99961 8.42653
#
# Compressibility (1/GPa) = 0.01077799
#
# Stress axis : x y z
#
# Youngs Moduli (GPa) = 183.24241 69.83764 236.91650
#
# Poissons Ratio (x) = 0.30522 0.09733
# Poissons Ratio (y) = 0.80085 0.43315
# Poissons Ratio (z) = 0.07528 0.12768
#
# Static dielectric constant tensor:
#      x y z
#    x 1.983550 0.000000 0.000000 
#    y 0.000000 2.097540 0.000000 
#    z 0.000000 0.000000 2.050470 
# 
# From -- ./inp_files/6306.got.cif
#   From: 2010.05.17/outbox.cif.g08.bks.cpg/sg69_4_cif.got.tgz:6306.got - 2010.06.03 19:29:58.
