data_PCOD9513436
_publ_section_title
;
Structure prediction by ZEFSAII (Michael W. Deem and Ramdas Pophale) SiO2 
 PCOD9513436
Probable space group: F M M M
;
_chemical_formula_sum "Si O2"
_cell_formula_units_Z 96
_cell_length_a 10.589551
_cell_length_b 15.240700
_cell_length_c 26.279940
_cell_angle_alpha 90.000000
_cell_angle_beta 90.000000
_cell_angle_gamma 90.000000
_cell_volume 4241.376542
_symmetry_space_group_name_H-M "F M M M"
_symmetry_group_IT_number 69
_symmetry_cell_setting 'orthorhombic'
loop_
_space_group_symop_operation_xyz
x,y,z
-x,-y,z
x,-y,-z
-x,y,-z
-x,-y,-z
x,y,-z
-x,y,z
x,-y,z
x,1/2+y,1/2+z
-x,1/2-y,1/2+z
x,1/2-y,1/2-z
-x,1/2+y,1/2-z
-x,1/2-y,1/2-z
x,1/2+y,1/2-z
-x,1/2+y,1/2+z
x,1/2-y,1/2+z
1/2+x,y,1/2+z
1/2-x,-y,1/2+z
1/2+x,-y,1/2-z
1/2-x,y,1/2-z
1/2-x,-y,1/2-z
1/2+x,y,1/2-z
1/2-x,y,1/2+z
1/2+x,-y,1/2+z
1/2+x,1/2+y,z
1/2-x,1/2-y,z
1/2+x,1/2-y,-z
1/2-x,1/2+y,-z
1/2-x,1/2-y,-z
1/2+x,1/2+y,-z
1/2-x,1/2+y,z
1/2+x,1/2-y,z
loop_
_atom_site_type_symbol
_atom_site_label
_atom_site_fract_x
_atom_site_fract_y
_atom_site_fract_z
Si Si1 0.143854 0.000000 0.939453
Si Si2 0.641359 0.357710 0.558383
Si Si3 0.636816 0.194134 0.833213
Si Si4 0.858044 0.000000 0.708265
O O1 0.237213 0.917994 0.930055
O O2 0.000000 0.000000 0.917272
O O3 0.127619 0.000000 0.000000
O O4 0.653008 0.325282 0.500000
O O5 0.500000 0.401106 0.559833
O O6 0.634230 0.292337 0.605722
O O7 0.500000 0.220217 0.812731
O O8 0.750000 0.250000 0.811164
O O9 0.652569 0.090089 0.823452
O O10 0.750000 0.000000 0.750000
O O11 0.000000 0.000000 0.730583
#
# Coordination Sequence:
#
# PCOD9513436 Si02
#       4
#    16  32  32  16
#     4   9  16  25  41  70 106 145 195 251 293 326
#     4   9  17  31  52  78 114 162 204 235 280 346
#     4  10  22  40  62  91 125 159 199 247 296 352
#     4  10  23  44  67  90 119 155 197 248 308 369
#
# _framework density 22.634163000000001
#
# number of rings (size 3 to 8) (size 9 to 14) (size 15 to 20)
#    0.000    2.500    0.000    1.500    0.000    8.667 
#    0.000    5.000    0.000    0.000    0.000    0.000 
#    0.000    0.000    0.000    0.000    0.000    0.000 
#
# Total GULP energy -133642.613630 kJ/mol
# GULP energy per Si atom -5568.442235 kJ/mol
# Density = 2.258265 g / cm^3
# Si number density = 22.634163 Si / 1000 Ang^3
#
#
#
# Elastic Constant Matrix: (Units=GPa)
#
#
# Indices 1 2 3 4 5 6 
#
# 1 254.1345 81.6521 41.9319 0.0000 0.0000 0.0000
# 2 81.6521 66.8285 -3.1434 0.0000 0.0000 0.0000
# 3 41.9319 -3.1434 86.7107 0.0000 0.0000 0.0000
# 4 0.0000 0.0000 0.0000 -63.6376 0.0000 0.0000
# 5 0.0000 0.0000 0.0000 0.0000 21.0167 0.0000
# 6 0.0000 0.0000 0.0000 0.0000 0.0000 15.5974
#
#
#
# Elastic Compliance Matrix: (Units=1/GPa)
#
#
# Indices 1 2 3 4 5 6 
#
# 1 0.007682 -0.009578 -0.004062 0.000000 0.000000 0.000000
# 2 -0.009578 0.026929 0.005608 0.000000 0.000000 0.000000
# 3 -0.004062 0.005608 0.013700 0.000000 0.000000 0.000000
# 4 0.000000 0.000000 0.000000 -0.015714 0.000000 0.000000
# 5 0.000000 0.000000 0.000000 0.000000 0.047581 0.000000
# 6 0.000000 0.000000 0.000000 0.000000 0.000000 0.064113
#
#
# Mechanical properties :
#
#
# Convention : Reuss Voigt Hill
#
# Bulk Modulus (GPa) = 31.00957 72.06167 51.53562
# Shear Modulus (GPa) = 29.22163 13.74420 21.48291
#
# Velocity S-wave (km/s) = 3.59700 2.46688 3.08415
# Velocity P-wave (km/s) = 5.56609 6.32619 5.95827
#
# Compressibility (1/GPa) = 0.03224811
#
# Stress axis : x y z
#
# Youngs Moduli (GPa) = 130.16717 37.13402 72.99078
#
# Poissons Ratio (x) = 0.35565 0.29651
# Poissons Ratio (y) = 1.24669 -0.40932
# Poissons Ratio (z) = 0.52878 -0.20824
#
# Static dielectric constant tensor:
#      x y z
#    x 1.910100 0.000000 0.000000 
#    y 0.000000 1.880870 0.000000 
#    z 0.000000 0.000000 1.831700 
# 
# From -- ./inp_files/44779.got.cif
#   From: 2010.05.17/outbox.cif.g08.bks.cpg/sg69_23_cif.got.tgz:44779.got - 2010.06.03 19:29:58.
