data_PCOD9513493
_publ_section_title
;
Structure prediction by ZEFSAII (Michael W. Deem and Ramdas Pophale) SiO2 
 PCOD9513493
Probable space group: F M M M
;
_chemical_formula_sum "Si O2"
_cell_formula_units_Z 168
_cell_length_a 27.369387
_cell_length_b 20.647391
_cell_length_c 14.254012
_cell_angle_alpha 90.000000
_cell_angle_beta 90.000000
_cell_angle_gamma 90.000000
_cell_volume 8055.033903
_symmetry_space_group_name_H-M "F M M M"
_symmetry_group_IT_number 69
_symmetry_cell_setting 'orthorhombic'
loop_
_space_group_symop_operation_xyz
x,y,z
-x,-y,z
x,-y,-z
-x,y,-z
-x,-y,-z
x,y,-z
-x,y,z
x,-y,z
x,1/2+y,1/2+z
-x,1/2-y,1/2+z
x,1/2-y,1/2-z
-x,1/2+y,1/2-z
-x,1/2-y,1/2-z
x,1/2+y,1/2-z
-x,1/2+y,1/2+z
x,1/2-y,1/2+z
1/2+x,y,1/2+z
1/2-x,-y,1/2+z
1/2+x,-y,1/2-z
1/2-x,y,1/2-z
1/2-x,-y,1/2-z
1/2+x,y,1/2-z
1/2-x,y,1/2+z
1/2+x,-y,1/2+z
1/2+x,1/2+y,z
1/2-x,1/2-y,z
1/2+x,1/2-y,-z
1/2-x,1/2+y,-z
1/2-x,1/2-y,-z
1/2+x,1/2+y,-z
1/2-x,1/2+y,z
1/2+x,1/2-y,z
loop_
_atom_site_type_symbol
_atom_site_label
_atom_site_fract_x
_atom_site_fract_y
_atom_site_fract_z
Si Si1 0.679295 0.421759 0.107780
Si Si2 0.054891 0.738802 0.606979
Si Si3 0.785965 0.926124 0.386365
Si Si4 0.500000 0.500000 0.144949
Si Si5 0.890743 0.870777 0.392070
Si Si6 0.077326 0.893222 0.200431
O O1 0.680342 0.500000 0.107338
O O2 0.732743 0.401802 0.145165
O O3 0.632649 0.399800 0.164905
O O4 0.673699 0.399703 0.000000
O O5 0.058574 0.712875 0.500000
O O6 0.094127 0.795744 0.615613
O O7 0.061300 0.679716 0.677312
O O8 0.000000 0.766457 0.617088
O O9 0.781364 0.930257 0.500000
O O10 0.833974 0.884069 0.369780
O O11 0.794304 0.000000 0.351562
O O12 0.542533 0.443490 0.148907
O O13 0.899725 0.891356 0.500000
O O14 0.922220 0.905991 0.312029
#
# Coordination Sequence:
#
# PCOD9513493 Si02
#       6
#    32  32  32   8  32  32
#     4   9  18  35  60  89 122 158 197 245 306 369
#     4  10  22  42  65  87 113 158 207 251 305 361
#     4   8  16  34  59  88 121 156 197 247 301 355
#     4  12  28  40  56  94 132 158 198 250 302 350
#     4  10  23  40  62  88 119 161 208 249 293 351
#     4  12  23  41  60  89 127 160 201 249 299 358
#
# _framework density 20.856521999999998
#
# number of rings (size 3 to 8) (size 9 to 14) (size 15 to 20)
#    0.000    2.095    1.905    2.286    2.667    1.524 
#    0.000    5.238    0.000    6.857    0.000    0.000 
#    0.000    0.000    0.000    0.000    0.000    0.000 
#
# Total GULP energy -233961.354451 kJ/mol
# GULP energy per Si atom -5570.508439 kJ/mol
# Density = 2.080905 g / cm^3
# Si number density = 20.856522 Si / 1000 Ang^3
#
#
#
# Elastic Constant Matrix: (Units=GPa)
#
#
# Indices 1 2 3 4 5 6 
#
# 1 146.5283 56.7149 28.2104 0.0000 0.0000 0.0000
# 2 56.7149 52.7132 2.9983 0.0000 0.0000 0.0000
# 3 28.2104 2.9983 86.9988 0.0000 0.0000 0.0000
# 4 0.0000 0.0000 0.0000 -20.7589 0.0000 0.0000
# 5 0.0000 0.0000 0.0000 0.0000 6.3542 0.0000
# 6 0.0000 0.0000 0.0000 0.0000 0.0000 31.3128
#
#
#
# Elastic Compliance Matrix: (Units=1/GPa)
#
#
# Indices 1 2 3 4 5 6 
#
# 1 0.012768 -0.013529 -0.003674 0.000000 0.000000 0.000000
# 2 -0.013529 0.033342 0.003238 0.000000 0.000000 0.000000
# 3 -0.003674 0.003238 0.012574 0.000000 0.000000 0.000000
# 4 0.000000 0.000000 0.000000 -0.048172 0.000000 0.000000
# 5 0.000000 0.000000 0.000000 0.000000 0.157376 0.000000
# 6 0.000000 0.000000 0.000000 0.000000 0.000000 0.031936
#
#
# Mechanical properties :
#
#
# Convention : Reuss Voigt Hill
#
# Bulk Modulus (GPa) = 32.51533 51.34305 41.92919
# Shear Modulus (GPa) = 21.00784 16.60273 18.80529
#
# Velocity S-wave (km/s) = 3.17717 2.82449 3.00601
# Velocity P-wave (km/s) = 5.39287 5.94203 5.67410
#
# Compressibility (1/GPa) = 0.03075472
#
# Stress axis : x y z
#
# Youngs Moduli (GPa) = 78.31865 29.99205 79.52803
#
# Poissons Ratio (x) = 0.40575 0.29219
# Poissons Ratio (y) = 1.05955 -0.25749
# Poissons Ratio (z) = 0.28775 -0.09711
#
# Static dielectric constant tensor:
#      x y z
#    x 1.742100 0.000000 0.000000 
#    y 0.000000 1.694200 0.000000 
#    z 0.000000 0.000000 1.843170 
# 
# From -- ./inp_files/18841.got.cif
#   From: 2010.05.17/outbox.cif.g08.bks.cpg/sg69_10_cif.got.tgz:18841.got - 2010.06.03 19:29:58.
