data_PCOD9513374
_publ_section_title
;
Structure prediction by ZEFSAII (Michael W. Deem and Ramdas Pophale) SiO2 
 PCOD9513374
Probable space group: F M M M
;
_chemical_formula_sum "Si O2"
_cell_formula_units_Z 160
_cell_length_a 20.690888
_cell_length_b 18.099244
_cell_length_c 19.942008
_cell_angle_alpha 90.000000
_cell_angle_beta 90.000000
_cell_angle_gamma 90.000000
_cell_volume 7468.071219
_symmetry_space_group_name_H-M "F M M M"
_symmetry_group_IT_number 69
_symmetry_cell_setting 'orthorhombic'
loop_
_space_group_symop_operation_xyz
x,y,z
-x,-y,z
x,-y,-z
-x,y,-z
-x,-y,-z
x,y,-z
-x,y,z
x,-y,z
x,1/2+y,1/2+z
-x,1/2-y,1/2+z
x,1/2-y,1/2-z
-x,1/2+y,1/2-z
-x,1/2-y,1/2-z
x,1/2+y,1/2-z
-x,1/2+y,1/2+z
x,1/2-y,1/2+z
1/2+x,y,1/2+z
1/2-x,-y,1/2+z
1/2+x,-y,1/2-z
1/2-x,y,1/2-z
1/2-x,-y,1/2-z
1/2+x,y,1/2-z
1/2-x,y,1/2+z
1/2+x,-y,1/2+z
1/2+x,1/2+y,z
1/2-x,1/2-y,z
1/2+x,1/2-y,-z
1/2-x,1/2+y,-z
1/2-x,1/2-y,-z
1/2+x,1/2+y,-z
1/2-x,1/2+y,z
1/2+x,1/2-y,z
loop_
_atom_site_type_symbol
_atom_site_label
_atom_site_fract_x
_atom_site_fract_y
_atom_site_fract_z
Si Si1 0.635474 0.867156 0.867008
Si Si2 0.930730 0.730173 0.328319
Si Si3 0.782365 0.585542 0.613592
Si Si4 0.075385 0.668325 0.000000
Si Si5 0.683451 0.798634 0.500000
Si Si6 0.887955 0.582152 0.717606
O O1 0.627703 0.778678 0.855962
O O2 0.707456 0.893778 0.880028
O O3 0.611044 0.901477 0.796944
O O4 0.593741 0.878438 0.933717
O O5 0.932160 0.750000 0.250000
O O6 0.924617 0.642912 0.326049
O O7 0.000000 0.753140 0.358067
O O8 0.789158 0.500000 0.590531
O O9 0.813665 0.645019 0.563174
O O10 0.815919 0.588634 0.686734
O O11 0.122821 0.741384 0.000000
O O12 0.000000 0.687011 0.000000
O O13 0.750000 0.750000 0.500000
O O14 0.911877 0.500000 0.705847
#
# Coordination Sequence:
#
# PCOD9513374 Si02
#       6
#    32  32  32  16  16  32
#     4  11  21  39  63  92 130 176 228 285 346 408
#     4   9  19  35  56  83 118 164 220 276 331 400
#     4  11  23  40  66 100 136 173 223 286 351 414
#     4  12  26  42  66 100 138 180 238 296 346 414
#     4  12  23  44  71 103 133 181 227 280 343 422
#     4  10  22  38  62  95 132 175 226 288 354 413
#
# _framework density 21.424541999999999
#
# number of rings (size 3 to 8) (size 9 to 14) (size 15 to 20)
#    0.000    1.400    2.000    3.300    0.000    2.800 
#    0.000    4.500    0.000   12.000    0.000    0.000 
#    0.000    0.000    0.000    0.000    0.000    0.000 
#
# Total GULP energy -223092.535489 kJ/mol
# GULP energy per Si atom -5577.313387 kJ/mol
# Density = 2.137578 g / cm^3
# Si number density = 21.424542 Si / 1000 Ang^3
#
#
#
# Elastic Constant Matrix: (Units=GPa)
#
#
# Indices 1 2 3 4 5 6 
#
# 1 100.5317 25.0986 18.8252 0.0000 0.0000 0.0000
# 2 25.0986 122.5847 25.6838 0.0000 0.0000 0.0000
# 3 18.8252 25.6838 119.0057 0.0000 0.0000 0.0000
# 4 0.0000 0.0000 0.0000 28.9516 0.0000 0.0000
# 5 0.0000 0.0000 0.0000 0.0000 2.5482 0.0000
# 6 0.0000 0.0000 0.0000 0.0000 0.0000 10.6311
#
#
#
# Elastic Compliance Matrix: (Units=1/GPa)
#
#
# Indices 1 2 3 4 5 6 
#
# 1 0.010664 -0.001917 -0.001273 0.000000 0.000000 0.000000
# 2 -0.001917 0.008888 -0.001615 0.000000 0.000000 0.000000
# 3 -0.001273 -0.001615 0.008953 0.000000 0.000000 0.000000
# 4 0.000000 0.000000 0.000000 0.034540 0.000000 0.000000
# 5 0.000000 0.000000 0.000000 0.000000 0.392436 0.000000
# 6 0.000000 0.000000 0.000000 0.000000 0.000000 0.094063
#
#
# Mechanical properties :
#
#
# Convention : Reuss Voigt Hill
#
# Bulk Modulus (GPa) = 52.92295 53.48192 53.20244
# Shear Modulus (GPa) = 8.84245 26.59381 17.71813
#
# Velocity S-wave (km/s) = 2.03377 3.52700 2.87888
# Velocity P-wave (km/s) = 5.50187 6.45007 5.99475
#
# Compressibility (1/GPa) = 0.01889539
#
# Stress axis : x y z
#
# Youngs Moduli (GPa) = 93.77308 112.50569 111.69503
#
# Poissons Ratio (x) = 0.21563 0.14222
# Poissons Ratio (y) = 0.17973 0.18040
# Poissons Ratio (z) = 0.11940 0.18171
#
# Static dielectric constant tensor:
#      x y z
#    x 1.783280 0.000000 0.000000 
#    y 0.000000 1.802860 0.000000 
#    z 0.000000 0.000000 1.821990 
# 
# From -- ./inp_files/31740.got.cif
#   From: 2010.05.17/outbox.cif.g08.bks.cpg/sg69_16_cif.got.tgz:31740.got - 2010.06.03 19:29:58.
