data_PCOD9513197
_publ_section_title
;
Structure prediction by ZEFSAII (Michael W. Deem and Ramdas Pophale) SiO2 
 PCOD9513197
Probable space group: F M M M
;
_chemical_formula_sum "Si O2"
_cell_formula_units_Z 152
_cell_length_a 21.249857
_cell_length_b 25.397280
_cell_length_c 14.671867
_cell_angle_alpha 90.000000
_cell_angle_beta 90.000000
_cell_angle_gamma 90.000000
_cell_volume 7918.238894
_symmetry_space_group_name_H-M "F M M M"
_symmetry_group_IT_number 69
_symmetry_cell_setting 'orthorhombic'
loop_
_space_group_symop_operation_xyz
x,y,z
-x,-y,z
x,-y,-z
-x,y,-z
-x,-y,-z
x,y,-z
-x,y,z
x,-y,z
x,1/2+y,1/2+z
-x,1/2-y,1/2+z
x,1/2-y,1/2-z
-x,1/2+y,1/2-z
-x,1/2-y,1/2-z
x,1/2+y,1/2-z
-x,1/2+y,1/2+z
x,1/2-y,1/2+z
1/2+x,y,1/2+z
1/2-x,-y,1/2+z
1/2+x,-y,1/2-z
1/2-x,y,1/2-z
1/2-x,-y,1/2-z
1/2+x,y,1/2-z
1/2-x,y,1/2+z
1/2+x,-y,1/2+z
1/2+x,1/2+y,z
1/2-x,1/2-y,z
1/2+x,1/2-y,-z
1/2-x,1/2+y,-z
1/2-x,1/2-y,-z
1/2+x,1/2+y,-z
1/2-x,1/2+y,z
1/2+x,1/2-y,z
loop_
_atom_site_type_symbol
_atom_site_label
_atom_site_fract_x
_atom_site_fract_y
_atom_site_fract_z
Si Si1 0.073292 0.909494 0.201675
Si Si2 0.423909 0.439623 0.000000
Si Si3 0.689805 0.672322 0.600295
Si Si4 0.428447 0.699412 0.306575
Si Si5 0.250000 0.250000 0.750000
Si Si6 0.808726 0.557572 0.180551
O O1 0.093489 0.913479 0.095975
O O2 0.073548 0.849885 0.237679
O O3 0.125619 0.938106 0.263062
O O4 0.000000 0.928660 0.209767
O O5 0.401503 0.500000 0.000000
O O6 0.500000 0.440290 0.000000
O O7 0.714370 0.684776 0.500000
O O8 0.615958 0.685389 0.609948
O O9 0.718071 0.708644 0.679747
O O10 0.697135 0.610206 0.620655
O O11 0.500000 0.708660 0.335137
O O12 0.406611 0.750000 0.250000
O O13 0.807252 0.500000 0.134371
O O14 0.750000 0.559271 0.250000
#
# Coordination Sequence:
#
# PCOD9513197 Si02
#       6
#    32  16  32  32   8  32
#     4   9  18  33  55  81 113 154 193 234 289 348
#     4   9  16  28  48  78 110 139 183 233 274 335
#     4  11  23  40  64  87 114 155 196 242 291 349
#     4   9  18  36  57  81 114 150 189 238 291 342
#     4  12  22  44  60  86 116 152 198 236 284 366
#     4  10  21  39  58  82 117 155 194 241 295 351
#
# _framework density 19.196187999999999
#
# number of rings (size 3 to 8) (size 9 to 14) (size 15 to 20)
#    0.000    2.211    2.105    0.947    0.000    2.105 
#    3.789    0.000    0.000    0.000    0.000    5.895 
#    0.000    0.000    0.000    0.000    0.000    0.000 
#
# Total GULP energy -211651.891559 kJ/mol
# GULP energy per Si atom -5569.786620 kJ/mol
# Density = 1.915250 g / cm^3
# Si number density = 19.196188 Si / 1000 Ang^3
#
#
#
# Elastic Constant Matrix: (Units=GPa)
#
#
# Indices 1 2 3 4 5 6 
#
# 1 55.0968 33.0077 31.3548 0.0000 0.0000 0.0000
# 2 33.0077 118.1963 35.3800 0.0000 0.0000 0.0000
# 3 31.3548 35.3800 108.1071 0.0000 0.0000 0.0000
# 4 0.0000 0.0000 0.0000 0.6153 0.0000 0.0000
# 5 0.0000 0.0000 0.0000 0.0000 7.5788 0.0000
# 6 0.0000 0.0000 0.0000 0.0000 0.0000 15.3625
#
#
#
# Elastic Compliance Matrix: (Units=1/GPa)
#
#
# Indices 1 2 3 4 5 6 
#
# 1 0.024301 -0.005185 -0.005351 0.000000 0.000000 0.000000
# 2 -0.005185 0.010485 -0.001928 0.000000 0.000000 0.000000
# 3 -0.005351 -0.001928 0.011433 0.000000 0.000000 0.000000
# 4 0.000000 0.000000 0.000000 1.625294 0.000000 0.000000
# 5 0.000000 0.000000 0.000000 0.000000 0.131947 0.000000
# 6 0.000000 0.000000 0.000000 0.000000 0.000000 0.065094
#
#
# Mechanical properties :
#
#
# Convention : Reuss Voigt Hill
#
# Bulk Modulus (GPa) = 46.96580 53.43169 50.19874
# Shear Modulus (GPa) = 2.63078 16.82183 9.72630
#
# Velocity S-wave (km/s) = 1.17194 2.96347 2.25340
# Velocity P-wave (km/s) = 5.13328 6.29321 5.74261
#
# Compressibility (1/GPa) = 0.02129209
#
# Stress axis : x y z
#
# Youngs Moduli (GPa) = 41.15006 95.37058 87.46523
#
# Poissons Ratio (x) = 0.49445 0.46807
# Poissons Ratio (y) = 0.21334 0.16862
# Poissons Ratio (z) = 0.22021 0.18386
#
# Static dielectric constant tensor:
#      x y z
#    x 1.716570 0.000000 0.000000 
#    y 0.000000 1.671240 0.000000 
#    z 0.000000 0.000000 1.638530 
# 
# From -- ./inp_files/16800.got.cif
#   From: 2010.05.17/outbox.cif.g08.bks.cpg/sg69_9_cif.got.tgz:16800.got - 2010.06.03 19:29:58.
