data_PCOD9513651
_publ_section_title
;
Structure prediction by ZEFSAII (Michael W. Deem and Ramdas Pophale) SiO2 
 PCOD9513651
Probable space group: F M M M
;
_chemical_formula_sum "Si O2"
_cell_formula_units_Z 144
_cell_length_a 17.758321
_cell_length_b 22.521067
_cell_length_c 19.945091
_cell_angle_alpha 90.000000
_cell_angle_beta 90.000000
_cell_angle_gamma 90.000000
_cell_volume 7976.766637
_symmetry_space_group_name_H-M "F M M M"
_symmetry_group_IT_number 69
_symmetry_cell_setting 'orthorhombic'
loop_
_space_group_symop_operation_xyz
x,y,z
-x,-y,z
x,-y,-z
-x,y,-z
-x,-y,-z
x,y,-z
-x,y,z
x,-y,z
x,1/2+y,1/2+z
-x,1/2-y,1/2+z
x,1/2-y,1/2-z
-x,1/2+y,1/2-z
-x,1/2-y,1/2-z
x,1/2+y,1/2-z
-x,1/2+y,1/2+z
x,1/2-y,1/2+z
1/2+x,y,1/2+z
1/2-x,-y,1/2+z
1/2+x,-y,1/2-z
1/2-x,y,1/2-z
1/2-x,-y,1/2-z
1/2+x,y,1/2-z
1/2-x,y,1/2+z
1/2+x,-y,1/2+z
1/2+x,1/2+y,z
1/2-x,1/2-y,z
1/2+x,1/2-y,-z
1/2-x,1/2+y,-z
1/2-x,1/2-y,-z
1/2+x,1/2+y,-z
1/2-x,1/2+y,z
1/2+x,1/2-y,z
loop_
_atom_site_type_symbol
_atom_site_label
_atom_site_fract_x
_atom_site_fract_y
_atom_site_fract_z
Si Si1 0.335840 0.773356 0.843515
Si Si2 0.911674 0.831554 0.786333
Si Si3 0.085168 0.500000 0.918668
Si Si4 0.313324 0.887414 0.079170
Si Si5 0.196490 0.430546 0.315415
O O1 0.250000 0.750000 0.837806
O O2 0.363417 0.809120 0.777645
O O3 0.388870 0.715567 0.844114
O O4 0.341330 0.821560 0.902343
O O5 0.880842 0.896228 0.803068
O O6 0.000000 0.829045 0.772443
O O7 0.129216 0.440079 0.899428
O O8 0.000000 0.500000 0.893082
O O9 0.082547 0.500000 0.000000
O O10 0.239430 0.899730 0.122979
O O11 0.300574 0.892908 0.000000
O O12 0.186844 0.500000 0.328224
O O13 0.250000 0.423962 0.250000
#
# Coordination Sequence:
#
# PCOD9513651 Si02
#       5
#    32  32  16  32  32
#     4  11  20  37  60  84 118 153 197 238 293 357
#     4  11  22  37  59  88 120 155 194 244 302 345
#     4   9  20  38  57  84 123 159 189 234 299 359
#     4  11  22  37  61  89 119 157 197 240 294 355
#     4  11  21  39  62  87 116 152 199 246 287 345
#
# _framework density 18.052427000000002
#
# number of rings (size 3 to 8) (size 9 to 14) (size 15 to 20)
#    0.000    1.222    5.556    2.667    0.000    2.667 
#    0.000    0.000    0.000    2.000    0.000    1.556 
#    0.000    0.000    0.000    0.000    0.000    0.000 
#
# Total GULP energy -200869.650111 kJ/mol
# GULP energy per Si atom -5579.712503 kJ/mol
# Density = 1.801134 g / cm^3
# Si number density = 18.052427 Si / 1000 Ang^3
#
#
#
# Elastic Constant Matrix: (Units=GPa)
#
#
# Indices 1 2 3 4 5 6 
#
# 1 82.7739 17.7027 12.3550 0.0000 0.0000 0.0000
# 2 17.7027 88.4546 21.4140 0.0000 0.0000 0.0000
# 3 12.3550 21.4140 62.2103 0.0000 0.0000 0.0000
# 4 0.0000 0.0000 0.0000 29.0525 0.0000 0.0000
# 5 0.0000 0.0000 0.0000 0.0000 9.3763 0.0000
# 6 0.0000 0.0000 0.0000 0.0000 0.0000 19.9853
#
#
#
# Elastic Compliance Matrix: (Units=1/GPa)
#
#
# Indices 1 2 3 4 5 6 
#
# 1 0.012806 -0.002124 -0.001812 0.000000 0.000000 0.000000
# 2 -0.002124 0.012685 -0.003945 0.000000 0.000000 0.000000
# 3 -0.001812 -0.003945 0.017792 0.000000 0.000000 0.000000
# 4 0.000000 0.000000 0.000000 0.034420 0.000000 0.000000
# 5 0.000000 0.000000 0.000000 0.000000 0.106652 0.000000
# 6 0.000000 0.000000 0.000000 0.000000 0.000000 0.050037
#
#
# Mechanical properties :
#
#
# Convention : Reuss Voigt Hill
#
# Bulk Modulus (GPa) = 36.33514 37.37577 36.85545
# Shear Modulus (GPa) = 19.28056 23.81396 21.54726
#
# Velocity S-wave (km/s) = 3.27162 3.63596 3.45859
# Velocity P-wave (km/s) = 5.86878 6.19483 6.03401
#
# Compressibility (1/GPa) = 0.02752157
#
# Stress axis : x y z
#
# Youngs Moduli (GPa) = 78.08913 78.83125 56.20439
#
# Poissons Ratio (x) = 0.16745 0.10185
# Poissons Ratio (y) = 0.16588 0.22171
# Poissons Ratio (z) = 0.14150 0.31096
#
# Static dielectric constant tensor:
#      x y z
#    x 1.601670 0.000000 0.000000 
#    y 0.000000 1.666040 0.000000 
#    z 0.000000 0.000000 1.630430 
# 
# From -- ./inp_files/36561.got.cif
#   From: 2010.05.17/outbox.cif.g08.bks.cpg/sg69_19_cif.got.tgz:36561.got - 2010.06.03 19:29:58.
