data_PCOD9513025
_publ_section_title
;
Structure prediction by ZEFSAII (Michael W. Deem and Ramdas Pophale) SiO2 
 PCOD9513025
Probable space group: F M M M
;
_chemical_formula_sum "Si O2"
_cell_formula_units_Z 128
_cell_length_a 19.214123
_cell_length_b 13.957062
_cell_length_c 20.028243
_cell_angle_alpha 90.000000
_cell_angle_beta 90.000000
_cell_angle_gamma 90.000000
_cell_volume 5371.028121
_symmetry_space_group_name_H-M "F M M M"
_symmetry_group_IT_number 69
_symmetry_cell_setting 'orthorhombic'
loop_
_space_group_symop_operation_xyz
x,y,z
-x,-y,z
x,-y,-z
-x,y,-z
-x,-y,-z
x,y,-z
-x,y,z
x,-y,z
x,1/2+y,1/2+z
-x,1/2-y,1/2+z
x,1/2-y,1/2-z
-x,1/2+y,1/2-z
-x,1/2-y,1/2-z
x,1/2+y,1/2-z
-x,1/2+y,1/2+z
x,1/2-y,1/2+z
1/2+x,y,1/2+z
1/2-x,-y,1/2+z
1/2+x,-y,1/2-z
1/2-x,y,1/2-z
1/2-x,-y,1/2-z
1/2+x,y,1/2-z
1/2-x,y,1/2+z
1/2+x,-y,1/2+z
1/2+x,1/2+y,z
1/2-x,1/2-y,z
1/2+x,1/2-y,-z
1/2-x,1/2+y,-z
1/2-x,1/2-y,-z
1/2+x,1/2+y,-z
1/2-x,1/2+y,z
1/2+x,1/2-y,z
loop_
_atom_site_type_symbol
_atom_site_label
_atom_site_fract_x
_atom_site_fract_y
_atom_site_fract_z
Si Si1 0.000000 0.217272 0.074670
Si Si2 0.350997 0.395030 0.248441
Si Si3 0.500000 0.657561 0.702707
Si Si4 0.351546 0.690060 0.891596
Si Si5 0.793868 0.607494 0.107374
O O1 0.000000 0.302652 0.128071
O O2 0.071606 0.160018 0.086868
O O3 0.000000 0.253560 0.000000
O O4 0.340574 0.500000 0.216698
O O5 0.428155 0.393921 0.280571
O O6 0.349491 0.318196 0.189224
O O7 0.299577 0.387156 0.311402
O O8 0.500000 0.750000 0.750000
O O9 0.285167 0.629158 0.914190
O O10 0.338476 0.799946 0.913997
O O11 0.815480 0.500000 0.088055
#
# Coordination Sequence:
#
# PCOD9513025 Si02
#       5
#    16  32  16  32  32
#     4  12  26  44  68  94 129 184 232 274 339 398
#     4  11  20  33  63 103 136 170 216 273 340 398
#     4  12  19  38  63  95 130 170 221 279 335 391
#     4  11  21  40  64  93 138 172 217 276 325 398
#     4  10  21  36  63 101 134 170 213 271 340 396
#
# _framework density 23.831564
#
# number of rings (size 3 to 8) (size 9 to 14) (size 15 to 20)
#    0.000    1.000    5.000    2.625    0.000    4.000 
#    0.000    5.000    0.000   13.500    0.000    0.000 
#    0.000    0.000    0.000    0.000    0.000    0.000 
#
# Total GULP energy -178907.519613 kJ/mol
# GULP energy per Si atom -5590.859988 kJ/mol
# Density = 2.377732 g / cm^3
# Si number density = 23.831564 Si / 1000 Ang^3
#
#
#
# Elastic Constant Matrix: (Units=GPa)
#
#
# Indices 1 2 3 4 5 6 
#
# 1 180.2325 23.7392 15.3560 0.0000 0.0000 0.0000
# 2 23.7392 114.7268 17.3713 0.0000 0.0000 0.0000
# 3 15.3560 17.3713 90.1911 0.0000 0.0000 0.0000
# 4 0.0000 0.0000 0.0000 -1.8411 0.0000 0.0000
# 5 0.0000 0.0000 0.0000 0.0000 -12.0871 0.0000
# 6 0.0000 0.0000 0.0000 0.0000 0.0000 26.4061
#
#
#
# Elastic Compliance Matrix: (Units=1/GPa)
#
#
# Indices 1 2 3 4 5 6 
#
# 1 0.005756 -0.001074 -0.000773 0.000000 0.000000 0.000000
# 2 -0.001074 0.009179 -0.001585 0.000000 0.000000 0.000000
# 3 -0.000773 -0.001585 0.011524 0.000000 0.000000 0.000000
# 4 0.000000 0.000000 0.000000 -0.543159 0.000000 0.000000
# 5 0.000000 0.000000 0.000000 0.000000 -0.082733 0.000000
# 6 0.000000 0.000000 0.000000 0.000000 0.000000 0.037870
#
#
# Mechanical properties :
#
#
# Convention : Reuss Voigt Hill
#
# Bulk Modulus (GPa) = 51.03426 55.34262 53.18844
# Shear Modulus (GPa) = -9.12130 24.40783 7.64327
#
# Velocity S-wave (km/s) = -1.95850 3.20375 1.79281
# Velocity P-wave (km/s) = 4.04311 6.07933 5.16260
#
# Compressibility (1/GPa) = 0.01959468
#
# Stress axis : x y z
#
# Youngs Moduli (GPa) = 173.74055 108.94949 86.77177
#
# Poissons Ratio (x) = 0.11700 0.06709
# Poissons Ratio (y) = 0.18658 0.13753
# Poissons Ratio (z) = 0.13432 0.17268
#
# Static dielectric constant tensor:
#      x y z
#    x 1.956730 0.000000 0.000000 
#    y 0.000000 1.871960 0.000000 
#    z 0.000000 0.000000 1.645830 
# 
# From -- ./inp_files/31515.got.cif
#   From: 2010.05.17/outbox.cif.g08.bks.cpg/sg69_16_cif.got.tgz:31515.got - 2010.06.03 19:29:58.
