data_PCOD9513947
_publ_section_title
;
Structure prediction by ZEFSAII (Michael W. Deem and Ramdas Pophale) SiO2 
 PCOD9513947
Probable space group: F M M M
;
_chemical_formula_sum "Si O2"
_cell_formula_units_Z 160
_cell_length_a 7.512780
_cell_length_b 28.380307
_cell_length_c 39.067519
_cell_angle_alpha 90.000000
_cell_angle_beta 90.000000
_cell_angle_gamma 90.000000
_cell_volume 8329.781174
_symmetry_space_group_name_H-M "F M M M"
_symmetry_group_IT_number 69
_symmetry_cell_setting 'orthorhombic'
loop_
_space_group_symop_operation_xyz
x,y,z
-x,-y,z
x,-y,-z
-x,y,-z
-x,-y,-z
x,y,-z
-x,y,z
x,-y,z
x,1/2+y,1/2+z
-x,1/2-y,1/2+z
x,1/2-y,1/2-z
-x,1/2+y,1/2-z
-x,1/2-y,1/2-z
x,1/2+y,1/2-z
-x,1/2+y,1/2+z
x,1/2-y,1/2+z
1/2+x,y,1/2+z
1/2-x,-y,1/2+z
1/2+x,-y,1/2-z
1/2-x,y,1/2-z
1/2-x,-y,1/2-z
1/2+x,y,1/2-z
1/2-x,y,1/2+z
1/2+x,-y,1/2+z
1/2+x,1/2+y,z
1/2-x,1/2-y,z
1/2+x,1/2-y,-z
1/2-x,1/2+y,-z
1/2-x,1/2-y,-z
1/2+x,1/2+y,-z
1/2-x,1/2+y,z
1/2+x,1/2-y,z
loop_
_atom_site_type_symbol
_atom_site_label
_atom_site_fract_x
_atom_site_fract_y
_atom_site_fract_z
Si Si1 0.717578 0.852304 0.392881
Si Si2 0.717340 0.947446 0.642885
Si Si3 0.286557 0.805312 0.462017
Si Si4 0.712643 0.602573 0.788723
Si Si5 0.787365 0.696239 0.676493
O O1 0.500000 0.851378 0.393309
O O2 0.771203 0.905088 0.382229
O O3 0.781074 0.834583 0.429635
O O4 0.774991 0.818035 0.361738
O O5 0.500000 0.947916 0.642667
O O6 0.775221 0.931902 0.681078
O O7 0.777616 0.000000 0.634380
O O8 0.218232 0.817899 0.500000
O O9 0.500000 0.811120 0.462799
O O10 0.250000 0.750000 0.456528
O O11 0.500000 0.603567 0.791881
O O12 0.750000 0.588822 0.750000
O O13 0.779265 0.655381 0.797948
O O14 0.750000 0.750000 0.685501
O O15 0.000000 0.692094 0.675765
#
# Coordination Sequence:
#
# PCOD9513947 Si02
#       5
#    32  32  32  32  32
#     4   8  14  25  40  58  81 107 134 165 198 232
#     4   8  14  26  44  62  78 101 134 166 198 240
#     4   9  16  25  39  61  88 114 137 162 194 231
#     4   9  18  30  42  59  81 102 128 164 202 239
#     4   9  17  28  41  57  78 105 136 165 193 231
#
# _framework density 19.208186999999999
#
# number of rings (size 3 to 8) (size 9 to 14) (size 15 to 20)
#    0.000    3.400    0.000    3.000    0.000    1.600 
#    0.000    2.000    0.000    1.800    0.000    4.200 
#    0.000    0.000    0.000    5.000    0.000    5.200 
#
# Total GULP energy -222922.744599 kJ/mol
# GULP energy per Si atom -5573.068615 kJ/mol
# Density = 1.916447 g / cm^3
# Si number density = 19.208187 Si / 1000 Ang^3
#
#
#
# Elastic Constant Matrix: (Units=GPa)
#
#
# Indices 1 2 3 4 5 6 
#
# 1 47.2564 -4.5180 -0.0452 0.0000 0.0000 0.0000
# 2 -4.5180 76.1417 30.5894 0.0000 0.0000 0.0000
# 3 -0.0452 30.5894 121.9845 0.0000 0.0000 0.0000
# 4 0.0000 0.0000 0.0000 13.8038 0.0000 0.0000
# 5 0.0000 0.0000 0.0000 0.0000 5.1477 0.0000
# 6 0.0000 0.0000 0.0000 0.0000 0.0000 5.9074
#
#
#
# Elastic Compliance Matrix: (Units=1/GPa)
#
#
# Indices 1 2 3 4 5 6 
#
# 1 0.021295 0.001402 -0.000344 0.000000 0.000000 0.000000
# 2 0.001402 0.014697 -0.003685 0.000000 0.000000 0.000000
# 3 -0.000344 -0.003685 0.009122 0.000000 0.000000 0.000000
# 4 0.000000 0.000000 0.000000 0.072444 0.000000 0.000000
# 5 0.000000 0.000000 0.000000 0.000000 0.194260 0.000000
# 6 0.000000 0.000000 0.000000 0.000000 0.000000 0.169279
#
#
# Mechanical properties :
#
#
# Convention : Reuss Voigt Hill
#
# Bulk Modulus (GPa) = 25.08805 33.04833 29.06819
# Shear Modulus (GPa) = 10.00727 19.59555 14.80141
#
# Velocity S-wave (km/s) = 2.28500 3.19747 2.77894
# Velocity P-wave (km/s) = 4.47784 5.55648 5.04606
#
# Compressibility (1/GPa) = 0.03985961
#
# Stress axis : x y z
#
# Youngs Moduli (GPa) = 46.95977 68.04113 109.62874
#
# Poissons Ratio (x) = -0.09537 0.03767
# Poissons Ratio (y) = -0.06582 0.40398
# Poissons Ratio (z) = 0.01613 0.25073
#
# Static dielectric constant tensor:
#      x y z
#    x 1.750590 0.000000 0.000000 
#    y 0.000000 1.658430 0.000000 
#    z 0.000000 0.000000 1.675010 
# 
# From -- ./inp_files/11661.got.cif
#   From: 2010.05.17/outbox.cif.g08.bks.cpg/sg69_6_cif.got.tgz:11661.got - 2010.06.03 19:29:58.
