data_PCOD9513411
_publ_section_title
;
Structure prediction by ZEFSAII (Michael W. Deem and Ramdas Pophale) SiO2 
 PCOD9513411
Probable space group: F M M M
;
_chemical_formula_sum "Si O2"
_cell_formula_units_Z 224
_cell_length_a 29.624005
_cell_length_b 23.643933
_cell_length_c 16.778502
_cell_angle_alpha 90.000000
_cell_angle_beta 90.000000
_cell_angle_gamma 90.000000
_cell_volume 11752.132421
_symmetry_space_group_name_H-M "F M M M"
_symmetry_group_IT_number 69
_symmetry_cell_setting 'orthorhombic'
loop_
_space_group_symop_operation_xyz
x,y,z
-x,-y,z
x,-y,-z
-x,y,-z
-x,-y,-z
x,y,-z
-x,y,z
x,-y,z
x,1/2+y,1/2+z
-x,1/2-y,1/2+z
x,1/2-y,1/2-z
-x,1/2+y,1/2-z
-x,1/2-y,1/2-z
x,1/2+y,1/2-z
-x,1/2+y,1/2+z
x,1/2-y,1/2+z
1/2+x,y,1/2+z
1/2-x,-y,1/2+z
1/2+x,-y,1/2-z
1/2-x,y,1/2-z
1/2-x,-y,1/2-z
1/2+x,y,1/2-z
1/2-x,y,1/2+z
1/2+x,-y,1/2+z
1/2+x,1/2+y,z
1/2-x,1/2-y,z
1/2+x,1/2-y,-z
1/2-x,1/2+y,-z
1/2-x,1/2-y,-z
1/2+x,1/2+y,-z
1/2-x,1/2+y,z
1/2+x,1/2-y,z
loop_
_atom_site_type_symbol
_atom_site_label
_atom_site_fract_x
_atom_site_fract_y
_atom_site_fract_z
Si Si1 0.199619 0.266624 0.156297
Si Si2 0.380973 0.401468 0.815446
Si Si3 0.888856 0.714306 0.593502
Si Si4 0.796008 0.891947 0.696804
Si Si5 0.554273 0.937275 0.182387
Si Si6 0.334791 0.000000 0.406819
Si Si7 0.552915 0.177693 0.904592
Si Si8 0.230015 0.000000 0.596840
O O1 0.193022 0.250000 0.250000
O O2 0.250000 0.250000 0.133891
O O3 0.162462 0.234477 0.105626
O O4 0.197064 0.333833 0.149674
O O5 0.394406 0.341998 0.854507
O O6 0.339066 0.396001 0.754382
O O7 0.422370 0.428095 0.767221
O O8 0.361808 0.445099 0.879452
O O9 0.898391 0.703840 0.500000
O O10 0.919034 0.767507 0.622124
O O11 0.750000 0.887607 0.750000
O O12 0.791550 0.944867 0.637841
O O13 0.500000 0.936275 0.187336
O O14 0.568198 0.882372 0.131225
O O15 0.567259 0.000000 0.151344
O O16 0.330554 0.000000 0.500000
O O17 0.282994 0.000000 0.376730
O O18 0.500000 0.185346 0.884877
O O19 0.557005 0.174547 0.000000
O O20 0.226665 0.000000 0.500000
#
# Coordination Sequence:
#
# PCOD9513411 Si02
#       8
#    32  32  32  32  32  16  32  16
#     4  11  21  38  59  86 119 161 200 242 295 362
#     4  12  22  39  64  87 119 162 202 251 301 365
#     4  11  24  40  61  92 124 158 202 253 304 360
#     4  12  21  38  63  87 119 159 202 246 303 359
#     4  10  22  39  63  93 122 158 204 250 297 355
#     4  11  23  39  60  86 117 158 205 253 305 360
#     4   9  20  40  64  92 126 160 197 246 305 363
#     4  11  26  42  60  90 123 157 208 261 304 359
#
# _framework density 19.060369999999999
#
# number of rings (size 3 to 8) (size 9 to 14) (size 15 to 20)
#    0.000    1.143    5.000    1.929    0.000    1.714 
#    0.000    3.571    0.000    1.714    0.000    0.000 
#    0.000    0.000    0.000    0.000    0.000    0.000 
#
# Total GULP energy -312765.299692 kJ/mol
# GULP energy per Si atom -5585.094637 kJ/mol
# Density = 1.901699 g / cm^3
# Si number density = 19.060370 Si / 1000 Ang^3
#
#
#
# Elastic Constant Matrix: (Units=GPa)
#
#
# Indices 1 2 3 4 5 6 
#
# 1 34.7646 32.4648 15.0143 0.0000 0.0000 0.0000
# 2 32.4648 170.3377 36.4870 0.0000 0.0000 0.0000
# 3 15.0143 36.4870 34.3036 0.0000 0.0000 0.0000
# 4 0.0000 0.0000 0.0000 18.7913 0.0000 0.0000
# 5 0.0000 0.0000 0.0000 0.0000 22.0978 0.0000
# 6 0.0000 0.0000 0.0000 0.0000 0.0000 30.4780
#
#
#
# Elastic Compliance Matrix: (Units=1/GPa)
#
#
# Indices 1 2 3 4 5 6 
#
# 1 0.038278 -0.004800 -0.011648 0.000000 0.000000 0.000000
# 2 -0.004800 0.008205 -0.006626 0.000000 0.000000 0.000000
# 3 -0.011648 -0.006626 0.041297 0.000000 0.000000 0.000000
# 4 0.000000 0.000000 0.000000 0.053216 0.000000 0.000000
# 5 0.000000 0.000000 0.000000 0.000000 0.045253 0.000000
# 6 0.000000 0.000000 0.000000 0.000000 0.000000 0.032811
#
#
# Mechanical properties :
#
#
# Convention : Reuss Voigt Hill
#
# Bulk Modulus (GPa) = 24.02017 45.25981 34.63999
# Shear Modulus (GPa) = 17.91554 24.63606 21.27580
#
# Velocity S-wave (km/s) = 3.06916 3.59907 3.34463
# Velocity P-wave (km/s) = 5.01888 6.40845 5.75575
#
# Compressibility (1/GPa) = 0.04163167
#
# Stress axis : x y z
#
# Youngs Moduli (GPa) = 26.12442 121.87776 24.21455
#
# Poissons Ratio (x) = 0.58507 0.28205
# Poissons Ratio (y) = 0.12541 0.16045
# Poissons Ratio (z) = 0.30430 0.80757
#
# Static dielectric constant tensor:
#      x y z
#    x 1.663720 0.000000 0.000000 
#    y 0.000000 1.642010 0.000000 
#    z 0.000000 0.000000 1.664130 
# 
# From -- ./inp_files/27994.got.cif
#   From: 2010.05.17/outbox.cif.g08.bks.cpg/sg69_14_cif.got.tgz:27994.got - 2010.06.03 19:29:58.
