data_PCOD9513353
_publ_section_title
;
Structure prediction by ZEFSAII (Michael W. Deem and Ramdas Pophale) SiO2 
 PCOD9513353
Probable space group: F M M M
;
_chemical_formula_sum "Si O2"
_cell_formula_units_Z 144
_cell_length_a 9.639531
_cell_length_b 28.372843
_cell_length_c 29.104922
_cell_angle_alpha 90.000000
_cell_angle_beta 90.000000
_cell_angle_gamma 90.000000
_cell_volume 7960.222351
_symmetry_space_group_name_H-M "F M M M"
_symmetry_group_IT_number 69
_symmetry_cell_setting 'orthorhombic'
loop_
_space_group_symop_operation_xyz
x,y,z
-x,-y,z
x,-y,-z
-x,y,-z
-x,-y,-z
x,y,-z
-x,y,z
x,-y,z
x,1/2+y,1/2+z
-x,1/2-y,1/2+z
x,1/2-y,1/2-z
-x,1/2+y,1/2-z
-x,1/2-y,1/2-z
x,1/2+y,1/2-z
-x,1/2+y,1/2+z
x,1/2-y,1/2+z
1/2+x,y,1/2+z
1/2-x,-y,1/2+z
1/2+x,-y,1/2-z
1/2-x,y,1/2-z
1/2-x,-y,1/2-z
1/2+x,y,1/2-z
1/2-x,y,1/2+z
1/2+x,-y,1/2+z
1/2+x,1/2+y,z
1/2-x,1/2-y,z
1/2+x,1/2-y,-z
1/2-x,1/2+y,-z
1/2-x,1/2-y,-z
1/2+x,1/2+y,-z
1/2-x,1/2+y,z
1/2+x,1/2-y,z
loop_
_atom_site_type_symbol
_atom_site_label
_atom_site_fract_x
_atom_site_fract_y
_atom_site_fract_z
Si Si1 0.337260 0.946215 0.410796
Si Si2 0.000000 0.205146 0.056457
Si Si3 0.830664 0.700070 0.206098
Si Si4 0.743504 0.348052 0.111443
Si Si5 0.500000 0.682139 0.554359
Si Si6 0.155993 0.443699 0.000000
O O1 0.500000 0.945956 0.422342
O O2 0.306201 0.901451 0.379097
O O3 0.247396 0.934064 0.455512
O O4 0.303203 0.000000 0.395506
O O5 0.127634 0.181447 0.083531
O O6 0.000000 0.261488 0.064727
O O7 0.000000 0.197411 0.000000
O O8 0.750000 0.677802 0.250000
O O9 0.750000 0.750000 0.201552
O O10 0.794449 0.673653 0.159232
O O11 0.000000 0.704170 0.211911
O O12 0.870860 0.343242 0.076961
O O13 0.500000 0.679536 0.500000
O O14 0.141346 0.500000 0.000000
O O15 0.000000 0.424065 0.000000
#
# Coordination Sequence:
#
# PCOD9513353 Si02
#       6
#    32  16  32  32  16  16
#     4  10  22  38  56  81 115 157 205 254 302 359
#     4  11  24  40  58  86 124 171 210 246 294 364
#     4  11  24  41  66  95 125 158 202 255 312 365
#     4  12  24  38  63  89 119 164 209 249 304 364
#     4  11  24  40  56  84 128 163 204 252 296 364
#     4   9  19  33  53  79 110 149 198 258 308 346
#
# _framework density 18.089946000000001
#
# number of rings (size 3 to 8) (size 9 to 14) (size 15 to 20)
#    0.000    1.222    2.222    4.333    7.778    3.111 
#    0.000    0.000    0.000    0.667    0.000    0.000 
#    0.000    0.000    0.000    0.000    0.000    0.000 
#
# Total GULP energy -200629.659838 kJ/mol
# GULP energy per Si atom -5573.046107 kJ/mol
# Density = 1.804877 g / cm^3
# Si number density = 18.089946 Si / 1000 Ang^3
#
#
#
# Elastic Constant Matrix: (Units=GPa)
#
#
# Indices 1 2 3 4 5 6 
#
# 1 163.0036 47.6880 48.5476 0.0000 0.0000 0.0000
# 2 47.6880 129.3974 39.6882 0.0000 0.0000 0.0000
# 3 48.5476 39.6882 97.5645 0.0000 0.0000 0.0000
# 4 0.0000 0.0000 0.0000 14.1287 0.0000 0.0000
# 5 0.0000 0.0000 0.0000 0.0000 22.7315 0.0000
# 6 0.0000 0.0000 0.0000 0.0000 0.0000 19.4250
#
#
#
# Elastic Compliance Matrix: (Units=1/GPa)
#
#
# Indices 1 2 3 4 5 6 
#
# 1 0.007578 -0.001870 -0.003010 0.000000 0.000000 0.000000
# 2 -0.001870 0.009291 -0.002849 0.000000 0.000000 0.000000
# 3 -0.003010 -0.002849 0.012907 0.000000 0.000000 0.000000
# 4 0.000000 0.000000 0.000000 0.070778 0.000000 0.000000
# 5 0.000000 0.000000 0.000000 0.000000 0.043992 0.000000
# 6 0.000000 0.000000 0.000000 0.000000 0.000000 0.051480
#
#
# Mechanical properties :
#
#
# Convention : Reuss Voigt Hill
#
# Bulk Modulus (GPa) = 69.84406 73.53480 71.68943
# Shear Modulus (GPa) = 23.12066 28.19316 25.65691
#
# Velocity S-wave (km/s) = 3.57892 3.95207 3.77011
# Velocity P-wave (km/s) = 7.46802 7.84620 7.65945
#
# Compressibility (1/GPa) = 0.01431761
#
# Stress axis : x y z
#
# Youngs Moduli (GPa) = 131.95392 107.63054 77.47954
#
# Poissons Ratio (x) = 0.20122 0.23325
# Poissons Ratio (y) = 0.24670 0.22075
# Poissons Ratio (z) = 0.39724 0.30666
#
# Static dielectric constant tensor:
#      x y z
#    x 1.655560 0.000000 0.000000 
#    y 0.000000 1.670850 0.000000 
#    z 0.000000 0.000000 1.189760 
# 
# From -- ./inp_files/44560.got.cif
#   From: 2010.05.17/outbox.cif.g08.bks.cpg/sg69_23_cif.got.tgz:44560.got - 2010.06.03 19:29:58.
