data_PCOD9513256
_publ_section_title
;
Structure prediction by ZEFSAII (Michael W. Deem and Ramdas Pophale) SiO2 
 PCOD9513256
Probable space group: F M M M
;
_chemical_formula_sum "Si O2"
_cell_formula_units_Z 160
_cell_length_a 24.167541
_cell_length_b 17.730422
_cell_length_c 19.030797
_cell_angle_alpha 90.000000
_cell_angle_beta 90.000000
_cell_angle_gamma 90.000000
_cell_volume 8154.709848
_symmetry_space_group_name_H-M "F M M M"
_symmetry_group_IT_number 69
_symmetry_cell_setting 'orthorhombic'
loop_
_space_group_symop_operation_xyz
x,y,z
-x,-y,z
x,-y,-z
-x,y,-z
-x,-y,-z
x,y,-z
-x,y,z
x,-y,z
x,1/2+y,1/2+z
-x,1/2-y,1/2+z
x,1/2-y,1/2-z
-x,1/2+y,1/2-z
-x,1/2-y,1/2-z
x,1/2+y,1/2-z
-x,1/2+y,1/2+z
x,1/2-y,1/2+z
1/2+x,y,1/2+z
1/2-x,-y,1/2+z
1/2+x,-y,1/2-z
1/2-x,y,1/2-z
1/2-x,-y,1/2-z
1/2+x,y,1/2-z
1/2-x,y,1/2+z
1/2+x,-y,1/2+z
1/2+x,1/2+y,z
1/2-x,1/2-y,z
1/2+x,1/2-y,-z
1/2-x,1/2+y,-z
1/2-x,1/2-y,-z
1/2+x,1/2+y,-z
1/2-x,1/2+y,z
1/2+x,1/2-y,z
loop_
_atom_site_type_symbol
_atom_site_label
_atom_site_fract_x
_atom_site_fract_y
_atom_site_fract_z
Si Si1 0.611792 0.084486 0.663031
Si Si2 0.000000 0.785195 0.670504
Si Si3 0.086544 0.415154 0.172905
Si Si4 0.226044 0.164955 0.824674
Si Si5 0.000000 0.366163 0.415737
Si Si6 0.307693 0.411197 0.422332
O O1 0.591547 0.082005 0.743365
O O2 0.660820 0.147144 0.665905
O O3 0.557449 0.099464 0.615531
O O4 0.634173 0.000000 0.646161
O O5 0.000000 0.750000 0.750000
O O6 0.050282 0.842218 0.658672
O O7 0.000000 0.718263 0.615058
O O8 0.067367 0.500000 0.150451
O O9 0.144018 0.400862 0.134065
O O10 0.250000 0.132736 0.750000
O O11 0.250000 0.250000 0.825174
O O12 0.253940 0.126513 0.891227
O O13 0.000000 0.370761 0.500000
O O14 0.322878 0.383145 0.500000
O O15 0.298321 0.500000 0.426543
#
# Coordination Sequence:
#
# PCOD9513256 Si02
#       6
#    32  16  32  32  16  32
#     4  11  23  43  71  98 131 184 234 279 339 413
#     4  12  23  39  67  95 131 172 222 271 335 393
#     4  10  21  39  66  95 127 170 226 278 332 409
#     4  11  24  39  66 100 137 174 225 278 337 404
#     4  12  29  46  67 104 143 179 227 291 347 404
#     4  10  22  40  62  91 127 165 211 274 337 392
#
# _framework density 19.620564000000002
#
# number of rings (size 3 to 8) (size 9 to 14) (size 15 to 20)
#    0.000    1.200    4.000    1.200    2.800    5.200 
#    0.000    0.000    0.000    3.000    0.000    0.000 
#    0.000    0.000    0.000    0.000    0.000    0.000 
#
# Total GULP energy -222929.174971 kJ/mol
# GULP energy per Si atom -5573.229374 kJ/mol
# Density = 1.957591 g / cm^3
# Si number density = 19.620564 Si / 1000 Ang^3
#
#
#
# Elastic Constant Matrix: (Units=GPa)
#
#
# Indices 1 2 3 4 5 6 
#
# 1 87.1524 39.7043 32.3779 0.0000 0.0000 0.0000
# 2 39.7043 68.9465 6.1311 0.0000 0.0000 0.0000
# 3 32.3779 6.1311 122.3678 0.0000 0.0000 0.0000
# 4 0.0000 0.0000 0.0000 21.1105 0.0000 0.0000
# 5 0.0000 0.0000 0.0000 0.0000 28.9748 0.0000
# 6 0.0000 0.0000 0.0000 0.0000 0.0000 45.2534
#
#
#
# Elastic Compliance Matrix: (Units=1/GPa)
#
#
# Indices 1 2 3 4 5 6 
#
# 1 0.017404 -0.009656 -0.004121 0.000000 0.000000 0.000000
# 2 -0.009656 0.019926 0.001557 0.000000 0.000000 0.000000
# 3 -0.004121 0.001557 0.009185 0.000000 0.000000 0.000000
# 4 0.000000 0.000000 0.000000 0.047370 0.000000 0.000000
# 5 0.000000 0.000000 0.000000 0.000000 0.034513 0.000000
# 6 0.000000 0.000000 0.000000 0.000000 0.000000 0.022098
#
#
# Mechanical properties :
#
#
# Convention : Reuss Voigt Hill
#
# Bulk Modulus (GPa) = 45.30329 48.32148 46.81238
# Shear Modulus (GPa) = 27.42806 32.41797 29.92302
#
# Velocity S-wave (km/s) = 3.74294 4.06919 3.90947
# Velocity P-wave (km/s) = 6.46678 6.83807 6.65502
#
# Compressibility (1/GPa) = 0.02207345
#
# Stress axis : x y z
#
# Youngs Moduli (GPa) = 57.45694 50.18500 108.87830
#
# Poissons Ratio (x) = 0.48459 0.44872
# Poissons Ratio (y) = 0.55481 -0.16948
# Poissons Ratio (z) = 0.23680 -0.07812
#
# Static dielectric constant tensor:
#      x y z
#    x 1.745170 0.000000 0.000000 
#    y 0.000000 1.734240 0.000000 
#    z 0.000000 0.000000 1.678910 
# 
# From -- ./inp_files/31758.got.cif
#   From: 2010.05.17/outbox.cif.g08.bks.cpg/sg69_16_cif.got.tgz:31758.got - 2010.06.03 19:29:58.
