data_PCOD9513732
_publ_section_title
;
Structure prediction by ZEFSAII (Michael W. Deem and Ramdas Pophale) SiO2 
 PCOD9513732
Probable space group: F M M M
;
_chemical_formula_sum "Si O2"
_cell_formula_units_Z 192
_cell_length_a 20.738809
_cell_length_b 27.891143
_cell_length_c 17.217359
_cell_angle_alpha 90.000000
_cell_angle_beta 90.000000
_cell_angle_gamma 90.000000
_cell_volume 9959.021255
_symmetry_space_group_name_H-M "F M M M"
_symmetry_group_IT_number 69
_symmetry_cell_setting 'orthorhombic'
loop_
_space_group_symop_operation_xyz
x,y,z
-x,-y,z
x,-y,-z
-x,y,-z
-x,-y,-z
x,y,-z
-x,y,z
x,-y,z
x,1/2+y,1/2+z
-x,1/2-y,1/2+z
x,1/2-y,1/2-z
-x,1/2+y,1/2-z
-x,1/2-y,1/2-z
x,1/2+y,1/2-z
-x,1/2+y,1/2+z
x,1/2-y,1/2+z
1/2+x,y,1/2+z
1/2-x,-y,1/2+z
1/2+x,-y,1/2-z
1/2-x,y,1/2-z
1/2-x,-y,1/2-z
1/2+x,y,1/2-z
1/2-x,y,1/2+z
1/2+x,-y,1/2+z
1/2+x,1/2+y,z
1/2-x,1/2-y,z
1/2+x,1/2-y,-z
1/2-x,1/2+y,-z
1/2-x,1/2-y,-z
1/2+x,1/2+y,-z
1/2-x,1/2+y,z
1/2+x,1/2-y,z
loop_
_atom_site_type_symbol
_atom_site_label
_atom_site_fract_x
_atom_site_fract_y
_atom_site_fract_z
Si Si1 0.000000 0.944953 0.406081
Si Si2 0.138065 0.942587 0.911253
Si Si3 0.074770 0.733543 0.839753
Si Si4 0.305906 0.286472 0.908173
Si Si5 0.245396 0.116310 0.158375
Si Si6 0.500000 0.055866 0.595045
Si Si7 0.611968 0.370049 0.593920
O O1 0.937207 0.913175 0.385745
O O2 0.000000 0.947903 0.500000
O O3 0.000000 0.000000 0.376448
O O4 0.200836 0.927799 0.865569
O O5 0.069000 0.923269 0.880193
O O6 0.132493 0.000000 0.913354
O O7 0.145377 0.925413 0.000000
O O8 0.083049 0.750000 0.750000
O O9 0.125036 0.764813 0.888359
O O10 0.091861 0.678211 0.859999
O O11 0.000000 0.741244 0.860410
O O12 0.250000 0.250000 0.880447
O O13 0.293096 0.336948 0.869267
O O14 0.298420 0.291863 0.000000
O O15 0.250000 0.117951 0.250000
O O16 0.315209 0.116944 0.117871
O O17 0.500000 0.056465 0.500000
O O18 0.500000 0.000000 0.618857
O O19 0.608416 0.361518 0.500000
#
# Coordination Sequence:
#
# PCOD9513732 Si02
#       7
#    16  32  32  32  32  16  32
#     4   9  20  38  64  98 126 154 206 267 308 356
#     4   9  18  36  62  88 116 155 205 255 306 370
#     4  11  23  39  62  94 127 164 201 249 311 380
#     4  11  23  39  62  88 117 158 210 253 294 360
#     4  12  25  39  58  88 125 166 202 257 317 375
#     4   7  12  28  57  86 110 145 191 239 293 351
#     4  11  21  39  67  91 121 169 216 253 312 378
#
# _framework density 19.279004
#
# number of rings (size 3 to 8) (size 9 to 14) (size 15 to 20)
#    0.000    1.667    2.500    4.000    0.000    2.000 
#    1.500    2.500    0.000    1.000    0.000    0.000 
#    0.000    0.000    0.000    0.000    0.000    0.667 
#
# Total GULP energy -267886.947266 kJ/mol
# GULP energy per Si atom -5580.978068 kJ/mol
# Density = 1.923512 g / cm^3
# Si number density = 19.279004 Si / 1000 Ang^3
#
#
#
# Elastic Constant Matrix: (Units=GPa)
#
#
# Indices 1 2 3 4 5 6 
#
# 1 147.3833 53.2751 36.0413 0.0000 0.0000 0.0000
# 2 53.2751 82.5480 31.9942 0.0000 0.0000 0.0000
# 3 36.0413 31.9942 61.3781 0.0000 0.0000 0.0000
# 4 0.0000 0.0000 0.0000 53.3627 0.0000 0.0000
# 5 0.0000 0.0000 0.0000 0.0000 15.3539 0.0000
# 6 0.0000 0.0000 0.0000 0.0000 0.0000 36.5982
#
#
#
# Elastic Compliance Matrix: (Units=1/GPa)
#
#
# Indices 1 2 3 4 5 6 
#
# 1 0.009245 -0.004841 -0.002906 0.000000 0.000000 0.000000
# 2 -0.004841 0.017716 -0.006392 0.000000 0.000000 0.000000
# 3 -0.002906 -0.006392 0.021331 0.000000 0.000000 0.000000
# 4 0.000000 0.000000 0.000000 0.018740 0.000000 0.000000
# 5 0.000000 0.000000 0.000000 0.000000 0.065130 0.000000
# 6 0.000000 0.000000 0.000000 0.000000 0.000000 0.027324
#
#
# Mechanical properties :
#
#
# Convention : Reuss Voigt Hill
#
# Bulk Modulus (GPa) = 49.96281 59.32563 54.64422
# Shear Modulus (GPa) = 25.71571 32.39622 29.05596
#
# Velocity S-wave (km/s) = 3.65618 4.10370 3.88639
# Velocity P-wave (km/s) = 6.61782 7.30019 6.96736
#
# Compressibility (1/GPa) = 0.02001489
#
# Stress axis : x y z
#
# Youngs Moduli (GPa) = 108.16281 56.44707 46.88092
#
# Poissons Ratio (x) = 0.27324 0.13622
# Poissons Ratio (y) = 0.52357 0.29967
# Poissons Ratio (z) = 0.31428 0.36082
#
# Static dielectric constant tensor:
#      x y z
#    x 1.725760 0.000000 0.000000 
#    y 0.000000 1.708450 0.000000 
#    z 0.000000 0.000000 1.650910 
# 
# From -- ./inp_files/23733.got.cif
#   From: 2010.05.17/outbox.cif.g08.bks.cpg/sg69_12_cif.got.tgz:23733.got - 2010.06.03 19:29:58.
