data_PCOD9513224
_publ_section_title
;
Structure prediction by ZEFSAII (Michael W. Deem and Ramdas Pophale) SiO2 
 PCOD9513224
Probable space group: F M M M
;
_chemical_formula_sum "Si O2"
_cell_formula_units_Z 176
_cell_length_a 24.379017
_cell_length_b 21.609654
_cell_length_c 16.904638
_cell_angle_alpha 90.000000
_cell_angle_beta 90.000000
_cell_angle_gamma 90.000000
_cell_volume 8905.737267
_symmetry_space_group_name_H-M "F M M M"
_symmetry_group_IT_number 69
_symmetry_cell_setting 'orthorhombic'
loop_
_space_group_symop_operation_xyz
x,y,z
-x,-y,z
x,-y,-z
-x,y,-z
-x,-y,-z
x,y,-z
-x,y,z
x,-y,z
x,1/2+y,1/2+z
-x,1/2-y,1/2+z
x,1/2-y,1/2-z
-x,1/2+y,1/2-z
-x,1/2-y,1/2-z
x,1/2+y,1/2-z
-x,1/2+y,1/2+z
x,1/2-y,1/2+z
1/2+x,y,1/2+z
1/2-x,-y,1/2+z
1/2+x,-y,1/2-z
1/2-x,y,1/2-z
1/2-x,-y,1/2-z
1/2+x,y,1/2-z
1/2-x,y,1/2+z
1/2+x,-y,1/2+z
1/2+x,1/2+y,z
1/2-x,1/2-y,z
1/2+x,1/2-y,-z
1/2-x,1/2+y,-z
1/2-x,1/2-y,-z
1/2+x,1/2+y,-z
1/2-x,1/2+y,z
1/2+x,1/2-y,z
loop_
_atom_site_type_symbol
_atom_site_label
_atom_site_fract_x
_atom_site_fract_y
_atom_site_fract_z
Si Si1 0.063013 0.888745 0.406988
Si Si2 0.561779 0.426591 0.000000
Si Si3 0.751916 0.073244 0.911443
Si Si4 0.154254 0.569955 0.792823
Si Si5 0.062600 0.248623 0.845493
Si Si6 0.636149 0.135083 0.370753
O O1 0.073454 0.895120 0.500000
O O2 0.105034 0.927043 0.355072
O O3 0.068875 0.816941 0.381201
O O4 0.000000 0.906621 0.391322
O O5 0.594200 0.404946 0.077377
O O6 0.560033 0.500000 0.000000
O O7 0.500000 0.401819 0.000000
O O8 0.708661 0.086668 0.842249
O O9 0.803875 0.118201 0.903686
O O10 0.767905 0.000000 0.904491
O O11 0.727984 0.080192 0.000000
O O12 0.161373 0.500000 0.762527
O O13 0.139800 0.614041 0.720267
O O14 0.065455 0.250000 0.750000
O O15 0.110540 0.203452 0.875204
O O16 0.000000 0.227226 0.865577
#
# Coordination Sequence:
#
# PCOD9513224 Si02
#       6
#    32  16  32  32  32  32
#     4  10  22  40  62  89 122 158 201 258 313 362
#     4  11  24  38  56  92 135 164 196 254 321 382
#     4  10  21  39  62  89 124 162 202 252 308 368
#     4  11  23  39  63  91 120 161 209 253 306 373
#     4  10  21  40  63  88 119 160 208 252 301 366
#     4  12  22  38  63  89 121 162 206 253 305 370
#
# _framework density 19.762540999999999
#
# number of rings (size 3 to 8) (size 9 to 14) (size 15 to 20)
#    0.000    1.364    2.727    3.273    1.273    3.636 
#    0.000    1.818    0.000    2.182    0.000    0.000 
#    0.000    0.000    0.000    0.000    0.000    0.000 
#
# Total GULP energy -245765.528794 kJ/mol
# GULP energy per Si atom -5585.580200 kJ/mol
# Density = 1.971756 g / cm^3
# Si number density = 19.762541 Si / 1000 Ang^3
#
#
#
# Elastic Constant Matrix: (Units=GPa)
#
#
# Indices 1 2 3 4 5 6 
#
# 1 93.0078 23.2323 37.6670 0.0000 0.0000 0.0000
# 2 23.2323 35.3382 1.6648 0.0000 0.0000 0.0000
# 3 37.6670 1.6648 80.2587 0.0000 0.0000 0.0000
# 4 0.0000 0.0000 0.0000 24.2394 0.0000 0.0000
# 5 0.0000 0.0000 0.0000 0.0000 157.6087 0.0000
# 6 0.0000 0.0000 0.0000 0.0000 0.0000 30.3046
#
#
#
# Elastic Compliance Matrix: (Units=1/GPa)
#
#
# Indices 1 2 3 4 5 6 
#
# 1 0.016379 -0.010416 -0.007471 0.000000 0.000000 0.000000
# 2 -0.010416 0.034950 0.004164 0.000000 0.000000 0.000000
# 3 -0.007471 0.004164 0.015880 0.000000 0.000000 0.000000
# 4 0.000000 0.000000 0.000000 0.041255 0.000000 0.000000
# 5 0.000000 0.000000 0.000000 0.000000 0.006345 0.000000
# 6 0.000000 0.000000 0.000000 0.000000 0.000000 0.032998
#
#
# Mechanical properties :
#
#
# Convention : Reuss Voigt Hill
#
# Bulk Modulus (GPa) = 25.15009 37.08146 31.11577
# Shear Modulus (GPa) = 26.52401 52.16657 39.34529
#
# Velocity S-wave (km/s) = 3.66749 5.14334 4.46679
# Velocity P-wave (km/s) = 5.53965 7.35365 6.51015
#
# Compressibility (1/GPa) = 0.03976130
#
# Stress axis : x y z
#
# Youngs Moduli (GPa) = 61.05244 28.61245 62.97356
#
# Poissons Ratio (x) = 0.29804 0.47048
# Poissons Ratio (y) = 0.63594 -0.26220
# Poissons Ratio (z) = 0.45613 -0.11913
#
# Static dielectric constant tensor:
#      x y z
#    x 1.689840 0.000000 0.000000 
#    y 0.000000 1.664990 0.000000 
#    z 0.000000 0.000000 1.700810 
# 
# From -- ./inp_files/17877.got.cif
#   From: 2010.05.17/outbox.cif.g08.bks.cpg/sg69_9_cif.got.tgz:17877.got - 2010.06.03 19:29:58.
