data_PCOD9513846
_publ_section_title
;
Structure prediction by ZEFSAII (Michael W. Deem and Ramdas Pophale) SiO2 
 PCOD9513846
Probable space group: F M M M
;
_chemical_formula_sum "Si O2"
_cell_formula_units_Z 160
_cell_length_a 19.014747
_cell_length_b 17.878660
_cell_length_c 25.538178
_cell_angle_alpha 90.000000
_cell_angle_beta 90.000000
_cell_angle_gamma 90.000000
_cell_volume 8681.912937
_symmetry_space_group_name_H-M "F M M M"
_symmetry_group_IT_number 69
_symmetry_cell_setting 'orthorhombic'
loop_
_space_group_symop_operation_xyz
x,y,z
-x,-y,z
x,-y,-z
-x,y,-z
-x,-y,-z
x,y,-z
-x,y,z
x,-y,z
x,1/2+y,1/2+z
-x,1/2-y,1/2+z
x,1/2-y,1/2-z
-x,1/2+y,1/2-z
-x,1/2-y,1/2-z
x,1/2+y,1/2-z
-x,1/2+y,1/2+z
x,1/2-y,1/2+z
1/2+x,y,1/2+z
1/2-x,-y,1/2+z
1/2+x,-y,1/2-z
1/2-x,y,1/2-z
1/2-x,-y,1/2-z
1/2+x,y,1/2-z
1/2-x,y,1/2+z
1/2+x,-y,1/2+z
1/2+x,1/2+y,z
1/2-x,1/2-y,z
1/2+x,1/2-y,-z
1/2-x,1/2+y,-z
1/2-x,1/2-y,-z
1/2+x,1/2+y,-z
1/2-x,1/2+y,z
1/2+x,1/2-y,z
loop_
_atom_site_type_symbol
_atom_site_label
_atom_site_fract_x
_atom_site_fract_y
_atom_site_fract_z
Si Si1 0.166039 0.915626 0.256637
Si Si2 0.579151 0.338358 0.164063
Si Si3 0.611974 0.087703 0.556981
Si Si4 0.281467 0.586763 0.439113
Si Si5 0.678254 0.200718 0.150585
O O1 0.250000 0.920479 0.250000
O O2 0.127449 0.883549 0.205280
O O3 0.160148 0.856559 0.303132
O O4 0.140263 0.000000 0.267771
O O5 0.500000 0.330953 0.184732
O O6 0.578391 0.379251 0.108364
O O7 0.615909 0.260077 0.151294
O O8 0.592241 0.120072 0.500000
O O9 0.696670 0.094903 0.562680
O O10 0.596278 0.000000 0.555563
O O11 0.302445 0.596026 0.500000
O O12 0.297214 0.500000 0.423545
O O13 0.312305 0.649731 0.401059
O O14 0.750000 0.250000 0.158849
#
# Coordination Sequence:
#
# PCOD9513846 Si02
#       5
#    32  32  32  32  32
#     4  11  23  40  63  86 113 155 207 249 288 353
#     4  12  26  40  58  89 126 160 198 251 310 368
#     4   9  18  35  59  87 122 161 199 242 297 363
#     4   9  18  35  62  95 124 155 205 258 295 343
#     4  12  22  37  62  89 119 159 200 246 305 357
#
# _framework density 18.429117999999999
#
# number of rings (size 3 to 8) (size 9 to 14) (size 15 to 20)
#    0.000    1.400    4.000    3.000    0.000    8.000 
#    0.000    1.000    0.000    1.800    0.000    1.400 
#    0.000    0.000    0.000    0.000    0.000    0.000 
#
# Total GULP energy -223194.688628 kJ/mol
# GULP energy per Si atom -5579.867216 kJ/mol
# Density = 1.838717 g / cm^3
# Si number density = 18.429118 Si / 1000 Ang^3
#
#
#
# Elastic Constant Matrix: (Units=GPa)
#
#
# Indices 1 2 3 4 5 6 
#
# 1 86.8403 46.5262 43.1082 0.0000 0.0000 0.0000
# 2 46.5262 130.7226 77.2061 0.0000 0.0000 0.0000
# 3 43.1082 77.2061 126.6887 0.0000 0.0000 0.0000
# 4 0.0000 0.0000 0.0000 3.0336 0.0000 0.0000
# 5 0.0000 0.0000 0.0000 0.0000 -0.1023 0.0000
# 6 0.0000 0.0000 0.0000 0.0000 0.0000 179.0060
#
#
#
# Elastic Compliance Matrix: (Units=1/GPa)
#
#
# Indices 1 2 3 4 5 6 
#
# 1 0.014866 -0.003599 -0.002865 0.000000 0.000000 0.000000
# 2 -0.003599 0.012823 -0.006590 0.000000 0.000000 0.000000
# 3 -0.002865 -0.006590 0.012884 0.000000 0.000000 0.000000
# 4 0.000000 0.000000 0.000000 0.329643 0.000000 0.000000
# 5 0.000000 0.000000 0.000000 0.000000 -9.777565 0.000000
# 6 0.000000 0.000000 0.000000 0.000000 0.000000 0.005586
#
#
# Mechanical properties :
#
#
# Convention : Reuss Voigt Hill
#
# Bulk Modulus (GPa) = 69.13163 75.32584 72.22873
# Shear Modulus (GPa) = -0.53357 48.21488 23.84066
#
# Velocity S-wave (km/s) = -0.53866 5.12046 3.60062
# Velocity P-wave (km/s) = 6.09973 8.71326 7.52089
#
# Compressibility (1/GPa) = 0.01446516
#
# Stress axis : x y z
#
# Youngs Moduli (GPa) = 67.26850 77.98729 77.61427
#
# Poissons Ratio (x) = 0.28065 0.22238
# Poissons Ratio (y) = 0.24208 0.51146
# Poissons Ratio (z) = 0.19274 0.51392
#
# Static dielectric constant tensor:
#      x y z
#    x 1.664530 0.000000 0.000000 
#    y 0.000000 1.645930 0.000000 
#    z 0.000000 0.000000 1.672840 
# 
# From -- ./inp_files/23170.got.cif
#   From: 2010.05.17/outbox.cif.g08.bks.cpg/sg69_12_cif.got.tgz:23170.got - 2010.06.03 19:29:58.
