data_PCOD9513585
_publ_section_title
;
Structure prediction by ZEFSAII (Michael W. Deem and Ramdas Pophale) SiO2 
 PCOD9513585
Probable space group: F M M M
;
_chemical_formula_sum "Si O2"
_cell_formula_units_Z 176
_cell_length_a 18.188144
_cell_length_b 17.052575
_cell_length_c 27.402463
_cell_angle_alpha 90.000000
_cell_angle_beta 90.000000
_cell_angle_gamma 90.000000
_cell_volume 8499.002408
_symmetry_space_group_name_H-M "F M M M"
_symmetry_group_IT_number 69
_symmetry_cell_setting 'orthorhombic'
loop_
_space_group_symop_operation_xyz
x,y,z
-x,-y,z
x,-y,-z
-x,y,-z
-x,-y,-z
x,y,-z
-x,y,z
x,-y,z
x,1/2+y,1/2+z
-x,1/2-y,1/2+z
x,1/2-y,1/2-z
-x,1/2+y,1/2-z
-x,1/2-y,1/2-z
x,1/2+y,1/2-z
-x,1/2+y,1/2+z
x,1/2-y,1/2+z
1/2+x,y,1/2+z
1/2-x,-y,1/2+z
1/2+x,-y,1/2-z
1/2-x,y,1/2-z
1/2-x,-y,1/2-z
1/2+x,y,1/2-z
1/2-x,y,1/2+z
1/2+x,-y,1/2+z
1/2+x,1/2+y,z
1/2-x,1/2-y,z
1/2+x,1/2-y,-z
1/2-x,1/2+y,-z
1/2-x,1/2-y,-z
1/2+x,1/2+y,-z
1/2-x,1/2+y,z
1/2+x,1/2-y,z
loop_
_atom_site_type_symbol
_atom_site_label
_atom_site_fract_x
_atom_site_fract_y
_atom_site_fract_z
Si Si1 0.084731 0.173452 0.144327
Si Si2 0.180801 0.090308 0.590684
Si Si3 0.807244 0.322667 0.445540
Si Si4 0.177410 0.305286 0.812174
Si Si5 0.584264 0.095583 0.000000
Si Si6 0.413612 0.909084 0.260148
O O1 0.133356 0.176083 0.096406
O O2 0.109987 0.247967 0.175788
O O3 0.097894 0.102234 0.181869
O O4 0.000000 0.176288 0.131679
O O5 0.257352 0.100810 0.562451
O O6 0.186863 0.139668 0.640290
O O7 0.122557 0.121387 0.550412
O O8 0.164081 0.000000 0.601832
O O9 0.837273 0.317916 0.500000
O O10 0.750000 0.250000 0.439278
O O11 0.250000 0.250000 0.805891
O O12 0.148010 0.358517 0.767934
O O13 0.500000 0.118761 0.000000
O O14 0.589516 0.000000 0.000000
O O15 0.500000 0.885555 0.250494
O O16 0.406677 0.000000 0.246354
#
# Coordination Sequence:
#
# PCOD9513585 Si02
#       6
#    32  32  32  32  16  32
#     4  11  23  42  67  95 131 173 215 267 330 389
#     4  11  21  38  62  91 127 171 217 266 330 387
#     4  11  22  42  65  92 130 172 218 270 324 391
#     4  12  23  42  64  97 134 172 218 269 323 401
#     4   9  20  36  57  92 133 169 211 269 334 393
#     4  10  24  46  70  98 132 171 219 277 340 399
#
# _framework density 20.708313
#
# number of rings (size 3 to 8) (size 9 to 14) (size 15 to 20)
#    0.000    1.182    4.545    1.636    0.000    6.182 
#    0.000    2.727    0.000    0.000    0.000    3.818 
#    0.000    0.000    0.000    0.000    0.000    0.000 
#
# Total GULP energy -245747.162204 kJ/mol
# GULP energy per Si atom -5585.162777 kJ/mol
# Density = 2.066118 g / cm^3
# Si number density = 20.708313 Si / 1000 Ang^3
#
#
#
# Elastic Constant Matrix: (Units=GPa)
#
#
# Indices 1 2 3 4 5 6 
#
# 1 124.9789 44.6572 88.8311 0.0000 0.0000 0.0000
# 2 44.6572 71.5118 45.8586 0.0000 0.0000 0.0000
# 3 88.8311 45.8586 158.3898 0.0000 0.0000 0.0000
# 4 0.0000 0.0000 0.0000 20.7542 0.0000 0.0000
# 5 0.0000 0.0000 0.0000 0.0000 39.1439 0.0000
# 6 0.0000 0.0000 0.0000 0.0000 0.0000 26.7107
#
#
#
# Elastic Compliance Matrix: (Units=1/GPa)
#
#
# Indices 1 2 3 4 5 6 
#
# 1 0.014493 -0.004713 -0.006763 0.000000 0.000000 0.000000
# 2 -0.004713 0.018705 -0.002772 0.000000 0.000000 0.000000
# 3 -0.006763 -0.002772 0.010909 0.000000 0.000000 0.000000
# 4 0.000000 0.000000 0.000000 0.048183 0.000000 0.000000
# 5 0.000000 0.000000 0.000000 0.000000 0.025547 0.000000
# 6 0.000000 0.000000 0.000000 0.000000 0.000000 0.037438
#
#
# Mechanical properties :
#
#
# Convention : Reuss Voigt Hill
#
# Bulk Modulus (GPa) = 64.06518 79.28605 71.67561
# Shear Modulus (GPa) = 26.45845 29.02399 27.74122
#
# Velocity S-wave (km/s) = 3.57833 3.74781 3.66405
# Velocity P-wave (km/s) = 6.93374 7.55634 7.25172
#
# Compressibility (1/GPa) = 0.01560910
#
# Stress axis : x y z
#
# Youngs Moduli (GPa) = 69.00032 53.46256 91.66383
#
# Poissons Ratio (x) = 0.25197 0.61997
# Poissons Ratio (y) = 0.32520 0.25412
# Poissons Ratio (z) = 0.46668 0.14821
#
# Static dielectric constant tensor:
#      x y z
#    x 1.726430 0.000000 0.000000 
#    y 0.000000 1.795500 0.000000 
#    z 0.000000 0.000000 1.767910 
# 
# From -- ./inp_files/41804.got.cif
#   From: 2010.05.17/outbox.cif.g08.bks.cpg/sg69_21_cif.got.tgz:41804.got - 2010.06.03 19:29:58.
