data_PCOD9513249
_publ_section_title
;
Structure prediction by ZEFSAII (Michael W. Deem and Ramdas Pophale) SiO2 
 PCOD9513249
Probable space group: F M M M
;
_chemical_formula_sum "Si O2"
_cell_formula_units_Z 112
_cell_length_a 28.632661
_cell_length_b 8.395235
_cell_length_c 23.175677
_cell_angle_alpha 90.000000
_cell_angle_beta 90.000000
_cell_angle_gamma 90.000000
_cell_volume 5570.920980
_symmetry_space_group_name_H-M "F M M M"
_symmetry_group_IT_number 69
_symmetry_cell_setting 'orthorhombic'
loop_
_space_group_symop_operation_xyz
x,y,z
-x,-y,z
x,-y,-z
-x,y,-z
-x,-y,-z
x,y,-z
-x,y,z
x,-y,z
x,1/2+y,1/2+z
-x,1/2-y,1/2+z
x,1/2-y,1/2-z
-x,1/2+y,1/2-z
-x,1/2-y,1/2-z
x,1/2+y,1/2-z
-x,1/2+y,1/2+z
x,1/2-y,1/2+z
1/2+x,y,1/2+z
1/2-x,-y,1/2+z
1/2+x,-y,1/2-z
1/2-x,y,1/2-z
1/2-x,-y,1/2-z
1/2+x,y,1/2-z
1/2-x,y,1/2+z
1/2+x,-y,1/2+z
1/2+x,1/2+y,z
1/2-x,1/2-y,z
1/2+x,1/2-y,-z
1/2-x,1/2+y,-z
1/2-x,1/2-y,-z
1/2+x,1/2+y,-z
1/2-x,1/2+y,z
1/2+x,1/2-y,z
loop_
_atom_site_type_symbol
_atom_site_label
_atom_site_fract_x
_atom_site_fract_y
_atom_site_fract_z
Si Si1 0.701951 0.691397 0.684833
Si Si2 0.945600 0.690306 0.186491
Si Si3 0.628828 0.817175 0.602255
Si Si4 0.195427 0.311609 0.000000
O O1 0.696653 0.500000 0.680259
O O2 0.704008 0.750000 0.750000
O O3 0.750000 0.750000 0.655850
O O4 0.660798 0.791060 0.657805
O O5 0.942181 0.500000 0.188142
O O6 0.928241 0.750000 0.250000
O O7 0.919130 0.746654 0.128311
O O8 0.000000 0.739065 0.183010
O O9 0.661909 0.737983 0.553641
O O10 0.621869 0.000000 0.586194
O O11 0.250000 0.250000 0.000000
O O12 0.200239 0.500000 0.000000
#
# Coordination Sequence:
#
# PCOD9513249 Si02
#       4
#    32  32  32  16
#     4  11  21  35  54  81 115 151 192 241 299 360
#     4  10  21  39  64  95 129 164 203 251 308 367
#     4  12  24  40  61  87 119 158 203 249 302 361
#     4  12  26  46  67  90 121 160 208 257 307 361
#
# _framework density 20.104396000000001
#
# number of rings (size 3 to 8) (size 9 to 14) (size 15 to 20)
#    0.000    0.857    0.000    9.857    0.000    1.714 
#    0.000    0.714    0.000    4.286    0.000    0.000 
#    0.000    0.000    0.000    0.000    0.000    0.000 
#
# Total GULP energy -156032.968525 kJ/mol
# GULP energy per Si atom -5572.606019 kJ/mol
# Density = 2.005864 g / cm^3
# Si number density = 20.104396 Si / 1000 Ang^3
#
#
#
# Elastic Constant Matrix: (Units=GPa)
#
#
# Indices 1 2 3 4 5 6 
#
# 1 108.6760 26.0407 55.4551 0.0000 0.0000 0.0000
# 2 26.0407 89.2953 25.9540 0.0000 0.0000 0.0000
# 3 55.4551 25.9540 102.5793 0.0000 0.0000 0.0000
# 4 0.0000 0.0000 0.0000 35.2171 0.0000 0.0000
# 5 0.0000 0.0000 0.0000 0.0000 20.0751 0.0000
# 6 0.0000 0.0000 0.0000 0.0000 0.0000 31.2499
#
#
#
# Elastic Compliance Matrix: (Units=1/GPa)
#
#
# Indices 1 2 3 4 5 6 
#
# 1 0.012995 -0.001886 -0.006548 0.000000 0.000000 0.000000
# 2 -0.001886 0.012362 -0.002108 0.000000 0.000000 0.000000
# 3 -0.006548 -0.002108 0.013822 0.000000 0.000000 0.000000
# 4 0.000000 0.000000 0.000000 0.028395 0.000000 0.000000
# 5 0.000000 0.000000 0.000000 0.000000 0.049813 0.000000
# 6 0.000000 0.000000 0.000000 0.000000 0.000000 0.032000
#
#
# Mechanical properties :
#
#
# Convention : Reuss Voigt Hill
#
# Bulk Modulus (GPa) = 55.26721 57.27225 56.26973
# Shear Modulus (GPa) = 28.32824 30.18178 29.25501
#
# Velocity S-wave (km/s) = 3.75781 3.87880 3.81879
# Velocity P-wave (km/s) = 6.81014 6.97205 6.89157
#
# Compressibility (1/GPa) = 0.01809391
#
# Stress axis : x y z
#
# Youngs Moduli (GPa) = 76.95306 80.89572 72.35011
#
# Poissons Ratio (x) = 0.15261 0.47374
# Poissons Ratio (y) = 0.14517 0.15250
# Poissons Ratio (z) = 0.50388 0.17051
#
# Static dielectric constant tensor:
#      x y z
#    x 1.843040 0.000000 0.000000 
#    y 0.000000 1.706570 0.000000 
#    z 0.000000 0.000000 1.714530 
# 
# From -- ./inp_files/38079.got.cif
#   From: 2010.05.17/outbox.cif.g08.bks.cpg/sg69_20_cif.got.tgz:38079.got - 2010.06.03 19:29:58.
