data_PCOD9513992
_publ_section_title
;
Structure prediction by ZEFSAII (Michael W. Deem and Ramdas Pophale) SiO2 
 PCOD9513992
Probable space group: F M M M
;
_chemical_formula_sum "Si O2"
_cell_formula_units_Z 52
_cell_length_a 18.000000
_cell_length_b 21.000000
_cell_length_c 27.000000
_cell_angle_alpha 90.000000
_cell_angle_beta 90.000000
_cell_angle_gamma 90.000000
_cell_volume 10206.000000
_symmetry_space_group_name_H-M "F M M M"
_symmetry_group_IT_number 69
_symmetry_cell_setting 'orthorhombic'
loop_
_space_group_symop_operation_xyz
x,y,z
-x,-y,z
x,-y,-z
-x,y,-z
-x,-y,-z
x,y,-z
-x,y,z
x,-y,z
x,1/2+y,1/2+z
-x,1/2-y,1/2+z
x,1/2-y,1/2-z
-x,1/2+y,1/2-z
-x,1/2-y,1/2-z
x,1/2+y,1/2-z
-x,1/2+y,1/2+z
x,1/2-y,1/2+z
1/2+x,y,1/2+z
1/2-x,-y,1/2+z
1/2+x,-y,1/2-z
1/2-x,y,1/2-z
1/2-x,-y,1/2-z
1/2+x,y,1/2-z
1/2-x,y,1/2+z
1/2+x,-y,1/2+z
1/2+x,1/2+y,z
1/2-x,1/2-y,z
1/2+x,1/2-y,-z
1/2-x,1/2+y,-z
1/2-x,1/2-y,-z
1/2+x,1/2+y,-z
1/2-x,1/2+y,z
1/2+x,1/2-y,z
loop_
_atom_site_type_symbol
_atom_site_label
_atom_site_fract_x
_atom_site_fract_y
_atom_site_fract_z
Si Si1 0.330542 0.256806 0.114992
Si Si2 0.648916 0.129359 0.558845
Si Si3 0.805598 0.427642 0.056374
Si Si4 0.087375 0.000000 0.056788
Si Si5 0.588240 0.624185 0.366161
Si Si6 0.088679 0.928703 0.743173
Si Si7 0.327736 0.188557 0.277898
O O1 0.250000 0.250000 0.089782
O O2 0.377527 0.305420 0.082377
O O3 0.372617 0.192276 0.127222
O O4 0.314023 0.292038 0.166317
O O5 0.637173 0.131794 0.500000
O O6 0.736228 0.117124 0.568526
O O7 0.611279 0.066174 0.580246
O O8 0.777654 0.500000 0.059285
O O9 0.874282 0.418569 0.092114
O O10 0.828034 0.414803 0.000000
O O11 0.000000 0.000000 0.053182
O O12 0.118506 0.000000 0.000000
O O13 0.500000 0.629393 0.371048
O O14 0.605124 0.593499 0.312966
O O15 0.124017 0.874289 0.776193
O O16 0.000000 0.929013 0.748749
O O17 0.116797 0.000000 0.752126
O O18 0.363123 0.250000 0.250000
O O19 0.250000 0.177235 0.250000
#
# Coordination Sequence:
#
# PCOD9513992 Si02
#       7
#    32  32  32  16  32  32  32
#     4  12  22  38  61  87 117 155 198 241 297 357
#     4  10  21  37  61  90 118 155 200 240 292 356
#     4  10  20  36  59  85 116 154 198 245 291 349
#     4   9  18  38  64  88 120 159 199 247 299 352
#     4  11  23  38  58  85 116 156 199 242 298 357
#     4  10  22  41  63  86 116 156 199 243 295 359
#     4  11  21  39  62  88 118 154 196 247 293 353
#
# _framework density 5.0950420000000003
#
# number of rings (size 3 to 8) (size 9 to 14) (size 15 to 20)
#    0.000    1.462    5.385    0.462    0.000    4.000 
#    1.385    0.769    0.000    0.000    0.000    0.000 
#    0.000    0.000    0.000    0.000    0.000    0.000 
#
# Total GULP energy -290005.266232 kJ/mol
# GULP energy per Si atom -5577.024351 kJ/mol
# Density = 0.508345 g / cm^3
# Si number density = 5.095042 Si / 1000 Ang^3
#
#
#
# Elastic Constant Matrix: (Units=GPa)
#
#
# Indices 1 2 3 4 5 6 
#
# 1 21.3510 34.3729 19.4030 0.0000 0.0000 0.0000
# 2 34.3729 151.4089 19.4634 0.0000 0.0000 0.0000
# 3 19.4030 19.4634 10.1485 0.0000 0.0000 0.0000
# 4 0.0000 0.0000 0.0000 7.1547 0.0000 0.0000
# 5 0.0000 0.0000 0.0000 0.0000 16.1418 0.0000
# 6 0.0000 0.0000 0.0000 0.0000 0.0000 4.8587
#
#
#
# Elastic Compliance Matrix: (Units=1/GPa)
#
#
# Indices 1 2 3 4 5 6 
#
# 1 -0.063226 -0.001574 0.123899 0.000000 0.000000 0.000000
# 2 -0.001574 0.008727 -0.013728 0.000000 0.000000 0.000000
# 3 0.123899 -0.013728 -0.112019 0.000000 0.000000 0.000000
# 4 0.000000 0.000000 0.000000 0.139769 0.000000 0.000000
# 5 0.000000 0.000000 0.000000 0.000000 0.061951 0.000000
# 6 0.000000 0.000000 0.000000 0.000000 0.000000 0.205815
#
#
# Mechanical properties :
#
#
# Convention : Reuss Voigt Hill
#
# Bulk Modulus (GPa) = 19.73258 36.59856 28.16557
# Shear Modulus (GPa) = 122.81072 12.94232 67.87652
#
# Velocity S-wave (km/s) = 7.77115 2.52274 5.77732
# Velocity P-wave (km/s) = 9.49864 5.14612 7.63894
#
# Compressibility (1/GPa) = 0.05067761
#
# Stress axis : x y z
#
# Youngs Moduli (GPa) = -15.81636 114.59291 -8.92704
#
# Poissons Ratio (x) = 0.18032 1.10605
# Poissons Ratio (y) = -0.02489 -0.12255
# Poissons Ratio (z) = 1.95964 1.57310
#
# Static dielectric constant tensor:
#      x y z
#    x 1.708050 0.000000 0.000000 
#    y 0.000000 1.775820 0.000000 
#    z 0.000000 0.000000 1.737690 
# 
# From -- ./inp_files/41998.got.cif
#   From: 2010.05.17/outbox.ucp.g08.bks.cvg/sg69_21_cif.got.tgz:41998.got - 2010.06.11 16:51:34.
