data_PCOD9513495
_publ_section_title
;
Structure prediction by ZEFSAII (Michael W. Deem and Ramdas Pophale) SiO2 
 PCOD9513495
Probable space group: F M M M
;
_chemical_formula_sum "Si O2"
_cell_formula_units_Z 160
_cell_length_a 23.579567
_cell_length_b 15.788842
_cell_length_c 22.033206
_cell_angle_alpha 90.000000
_cell_angle_beta 90.000000
_cell_angle_gamma 90.000000
_cell_volume 8202.831668
_symmetry_space_group_name_H-M "F M M M"
_symmetry_group_IT_number 69
_symmetry_cell_setting 'orthorhombic'
loop_
_space_group_symop_operation_xyz
x,y,z
-x,-y,z
x,-y,-z
-x,y,-z
-x,-y,-z
x,y,-z
-x,y,z
x,-y,z
x,1/2+y,1/2+z
-x,1/2-y,1/2+z
x,1/2-y,1/2-z
-x,1/2+y,1/2-z
-x,1/2-y,1/2-z
x,1/2+y,1/2-z
-x,1/2+y,1/2+z
x,1/2-y,1/2+z
1/2+x,y,1/2+z
1/2-x,-y,1/2+z
1/2+x,-y,1/2-z
1/2-x,y,1/2-z
1/2-x,-y,1/2-z
1/2+x,y,1/2-z
1/2-x,y,1/2+z
1/2+x,-y,1/2+z
1/2+x,1/2+y,z
1/2-x,1/2-y,z
1/2+x,1/2-y,-z
1/2-x,1/2+y,-z
1/2-x,1/2-y,-z
1/2+x,1/2+y,-z
1/2-x,1/2+y,z
1/2+x,1/2-y,z
loop_
_atom_site_type_symbol
_atom_site_label
_atom_site_fract_x
_atom_site_fract_y
_atom_site_fract_z
Si Si1 0.862034 0.404727 0.699319
Si Si2 0.310473 0.903030 0.500000
Si Si3 0.064913 0.236954 0.869703
Si Si4 0.367060 0.094947 0.155291
Si Si5 0.937170 0.650133 0.500000
Si Si6 0.743168 0.348931 0.125537
O O1 0.881460 0.500000 0.682166
O O2 0.900167 0.331785 0.669329
O O3 0.862174 0.398169 0.771728
O O4 0.798976 0.391482 0.673608
O O5 0.378923 0.902166 0.500000
O O6 0.286552 0.858830 0.439817
O O7 0.290925 0.000000 0.500000
O O8 0.093151 0.328727 0.865370
O O9 0.065608 0.205755 0.939142
O O10 0.000000 0.239575 0.848429
O O11 0.304723 0.109170 0.127610
O O12 0.387358 0.000000 0.140629
O O13 0.000000 0.607799 0.500000
O O14 0.750000 0.250000 0.140240
#
# Coordination Sequence:
#
# PCOD9513495 Si02
#       6
#    32  16  32  32  16  32
#     4  11  23  40  64  94 127 165 211 260 316 383
#     4  12  23  38  62  94 130 167 212 267 319 375
#     4  11  24  43  66  92 126 165 214 268 319 372
#     4  11  24  41  63  93 129 169 210 257 315 378
#     4  10  22  42  65  91 124 167 212 262 318 378
#     4  12  23  39  63  92 129 168 213 259 318 382
#
# _framework density 19.505458999999998
#
# number of rings (size 3 to 8) (size 9 to 14) (size 15 to 20)
#    0.000    0.800    4.000    3.300    0.000    5.800 
#    0.000    5.500    0.000    1.800    0.000    0.000 
#    0.000    0.000    0.000    0.000    0.000    0.000 
#
# Total GULP energy -223639.967730 kJ/mol
# GULP energy per Si atom -5590.999193 kJ/mol
# Density = 1.946106 g / cm^3
# Si number density = 19.505459 Si / 1000 Ang^3
#
#
#
# Elastic Constant Matrix: (Units=GPa)
#
#
# Indices 1 2 3 4 5 6 
#
# 1 106.2511 46.3936 13.5999 0.0000 0.0000 0.0000
# 2 46.3936 129.1234 13.3950 0.0000 0.0000 0.0000
# 3 13.5999 13.3950 51.2225 0.0000 0.0000 0.0000
# 4 0.0000 0.0000 0.0000 24.1189 0.0000 0.0000
# 5 0.0000 0.0000 0.0000 0.0000 67.2652 0.0000
# 6 0.0000 0.0000 0.0000 0.0000 0.0000 5.3358
#
#
#
# Elastic Compliance Matrix: (Units=1/GPa)
#
#
# Indices 1 2 3 4 5 6 
#
# 1 0.011359 -0.003874 -0.002003 0.000000 0.000000 0.000000
# 2 -0.003874 0.009281 -0.001399 0.000000 0.000000 0.000000
# 3 -0.002003 -0.001399 0.020420 0.000000 0.000000 0.000000
# 4 0.000000 0.000000 0.000000 0.041461 0.000000 0.000000
# 5 0.000000 0.000000 0.000000 0.000000 0.014867 0.000000
# 6 0.000000 0.000000 0.000000 0.000000 0.000000 0.187413
#
#
# Mechanical properties :
#
#
# Convention : Reuss Voigt Hill
#
# Bulk Modulus (GPa) = 37.72097 48.15266 42.93682
# Shear Modulus (GPa) = 16.22377 33.55787 24.89082
#
# Velocity S-wave (km/s) = 2.88715 4.15231 3.57612
# Velocity P-wave (km/s) = 5.52221 6.90864 6.25396
#
# Compressibility (1/GPa) = 0.02651045
#
# Stress axis : x y z
#
# Youngs Moduli (GPa) = 88.03264 107.74233 48.97102
#
# Poissons Ratio (x) = 0.41735 0.09809
# Poissons Ratio (y) = 0.34100 0.06849
# Poissons Ratio (z) = 0.17633 0.15070
#
# Static dielectric constant tensor:
#      x y z
#    x 1.671010 0.000000 0.000000 
#    y 0.000000 1.672090 0.000000 
#    z 0.000000 0.000000 1.677130 
# 
# From -- ./inp_files/37793.got.cif
#   From: 2010.05.17/outbox.cif.g08.bks.cpg/sg69_19_cif.got.tgz:37793.got - 2010.06.03 19:29:58.
