data_PCOD9513950
_publ_section_title
;
Structure prediction by ZEFSAII (Michael W. Deem and Ramdas Pophale) SiO2 
 PCOD9513950
Probable space group: F M M M
;
_chemical_formula_sum "Si O2"
_cell_formula_units_Z 160
_cell_length_a 14.918298
_cell_length_b 28.864924
_cell_length_c 17.100510
_cell_angle_alpha 90.000000
_cell_angle_beta 90.000000
_cell_angle_gamma 90.000000
_cell_volume 7363.745313
_symmetry_space_group_name_H-M "F M M M"
_symmetry_group_IT_number 69
_symmetry_cell_setting 'orthorhombic'
loop_
_space_group_symop_operation_xyz
x,y,z
-x,-y,z
x,-y,-z
-x,y,-z
-x,-y,-z
x,y,-z
-x,y,z
x,-y,z
x,1/2+y,1/2+z
-x,1/2-y,1/2+z
x,1/2-y,1/2-z
-x,1/2+y,1/2-z
-x,1/2-y,1/2-z
x,1/2+y,1/2-z
-x,1/2+y,1/2+z
x,1/2-y,1/2+z
1/2+x,y,1/2+z
1/2-x,-y,1/2+z
1/2+x,-y,1/2-z
1/2-x,y,1/2-z
1/2-x,-y,1/2-z
1/2+x,y,1/2-z
1/2-x,y,1/2+z
1/2+x,-y,1/2+z
1/2+x,1/2+y,z
1/2-x,1/2-y,z
1/2+x,1/2-y,-z
1/2-x,1/2+y,-z
1/2-x,1/2-y,-z
1/2+x,1/2+y,-z
1/2-x,1/2+y,z
1/2+x,1/2-y,z
loop_
_atom_site_type_symbol
_atom_site_label
_atom_site_fract_x
_atom_site_fract_y
_atom_site_fract_z
Si Si1 0.392274 0.405461 0.674044
Si Si2 0.391486 0.445765 0.000000
Si Si3 0.637974 0.204440 0.342031
Si Si4 0.602550 0.603499 0.149171
Si Si5 0.890117 0.500000 0.090260
Si Si6 0.646994 0.303611 0.658927
O O1 0.500000 0.408208 0.677481
O O2 0.357607 0.401586 0.763881
O O3 0.361022 0.452511 0.632840
O O4 0.374090 0.355751 0.632903
O O5 0.353148 0.424512 0.079406
O O6 0.380272 0.500000 0.000000
O O7 0.500000 0.435943 0.000000
O O8 0.601586 0.157139 0.376606
O O9 0.611910 0.254725 0.375620
O O10 0.615471 0.200373 0.249495
O O11 0.745712 0.200614 0.344445
O O12 0.500000 0.587005 0.156890
O O13 0.000000 0.500000 0.091284
O O14 0.861864 0.500000 0.000000
#
# Coordination Sequence:
#
# PCOD9513950 Si02
#       6
#    32  16  32  32  16  32
#     4   9  17  28  48  74  94 118 158 197 226 272
#     4   9  18  30  46  65  92 126 155 187 234 278
#     4   8  14  26  46  68  95 125 153 186 229 281
#     4   9  17  28  46  71  94 120 154 194 230 267
#     4   9  18  32  50  68  93 125 152 190 243 280
#     4   8  14  26  46  70  93 124 155 186 230 276
#
# _framework density 21.728072999999998
#
# number of rings (size 3 to 8) (size 9 to 14) (size 15 to 20)
#    0.000    3.400    0.000    1.200    1.400    0.800 
#    0.000    4.000    6.600    3.600    0.000    0.000 
#    0.000    0.000    0.000    0.000    0.000    0.000 
#
# Total GULP energy -222681.785802 kJ/mol
# GULP energy per Si atom -5567.044645 kJ/mol
# Density = 2.167862 g / cm^3
# Si number density = 21.728073 Si / 1000 Ang^3
#
#
#
# Elastic Constant Matrix: (Units=GPa)
#
#
# Indices 1 2 3 4 5 6 
#
# 1 45.2291 3.0874 5.7004 0.0000 0.0000 0.0000
# 2 3.0874 197.0260 78.1044 0.0000 0.0000 0.0000
# 3 5.7004 78.1044 66.0837 0.0000 0.0000 0.0000
# 4 0.0000 0.0000 0.0000 9.2094 0.0000 0.0000
# 5 0.0000 0.0000 0.0000 0.0000 -0.7764 0.0000
# 6 0.0000 0.0000 0.0000 0.0000 0.0000 31.1721
#
#
#
# Elastic Compliance Matrix: (Units=1/GPa)
#
#
# Indices 1 2 3 4 5 6 
#
# 1 0.022416 0.000781 -0.002857 0.000000 0.000000 0.000000
# 2 0.000781 0.009577 -0.011387 0.000000 0.000000 0.000000
# 3 -0.002857 -0.011387 0.028837 0.000000 0.000000 0.000000
# 4 0.000000 0.000000 0.000000 0.108585 0.000000 0.000000
# 5 0.000000 0.000000 0.000000 0.000000 -1.287952 0.000000
# 6 0.000000 0.000000 0.000000 0.000000 0.000000 0.032080
#
#
# Mechanical properties :
#
#
# Convention : Reuss Voigt Hill
#
# Bulk Modulus (GPa) = 29.49385 53.56925 41.53155
# Shear Modulus (GPa) = -4.76994 22.68412 8.95709
#
# Velocity S-wave (km/s) = -1.48326 3.23461 2.03256
# Velocity P-wave (km/s) = 3.26652 6.21757 4.96630
#
# Compressibility (1/GPa) = 0.03390537
#
# Stress axis : x y z
#
# Youngs Moduli (GPa) = 44.61015 104.41643 34.67824
#
# Poissons Ratio (x) = -0.08159 0.09908
# Poissons Ratio (y) = -0.03486 0.39486
# Poissons Ratio (z) = 0.12746 1.18894
#
# Static dielectric constant tensor:
#      x y z
#    x 1.831100 0.000000 0.000000 
#    y 0.000000 1.828590 0.000000 
#    z 0.000000 0.000000 1.811580 
# 
# From -- ./inp_files/24935.got.cif
#   From: 2010.05.17/outbox.cif.g08.bks.cpg/sg69_13_cif.got.tgz:24935.got - 2010.06.03 19:29:58.
