data_PCOD9513922
_publ_section_title
;
Structure prediction by ZEFSAII (Michael W. Deem and Ramdas Pophale) SiO2 
 PCOD9513922
Probable space group: F M M M
;
_chemical_formula_sum "Si O2"
_cell_formula_units_Z 200
_cell_length_a 30.255757
_cell_length_b 21.430228
_cell_length_c 15.850306
_cell_angle_alpha 90.000000
_cell_angle_beta 90.000000
_cell_angle_gamma 90.000000
_cell_volume 10277.144574
_symmetry_space_group_name_H-M "F M M M"
_symmetry_group_IT_number 69
_symmetry_cell_setting 'orthorhombic'
loop_
_space_group_symop_operation_xyz
x,y,z
-x,-y,z
x,-y,-z
-x,y,-z
-x,-y,-z
x,y,-z
-x,y,z
x,-y,z
x,1/2+y,1/2+z
-x,1/2-y,1/2+z
x,1/2-y,1/2-z
-x,1/2+y,1/2-z
-x,1/2-y,1/2-z
x,1/2+y,1/2-z
-x,1/2+y,1/2+z
x,1/2-y,1/2+z
1/2+x,y,1/2+z
1/2-x,-y,1/2+z
1/2+x,-y,1/2-z
1/2-x,y,1/2-z
1/2-x,-y,1/2-z
1/2+x,y,1/2-z
1/2-x,y,1/2+z
1/2+x,-y,1/2+z
1/2+x,1/2+y,z
1/2-x,1/2-y,z
1/2+x,1/2-y,-z
1/2-x,1/2+y,-z
1/2-x,1/2-y,-z
1/2+x,1/2+y,-z
1/2-x,1/2+y,z
1/2+x,1/2-y,z
loop_
_atom_site_type_symbol
_atom_site_label
_atom_site_fract_x
_atom_site_fract_y
_atom_site_fract_z
Si Si1 0.394398 0.500000 0.000000
Si Si2 0.630334 0.070568 0.837444
Si Si3 0.384052 0.602926 0.851969
Si Si4 0.697891 0.187753 0.398344
Si Si5 0.447032 0.790636 0.400396
Si Si6 0.049928 0.849114 0.601370
Si Si7 0.701035 0.670751 0.602403
O O1 0.393425 0.554378 0.926069
O O2 0.621892 0.071219 0.737825
O O3 0.585980 0.099954 0.876452
O O4 0.670324 0.117380 0.859767
O O5 0.638708 0.000000 0.867043
O O6 0.338959 0.640144 0.870044
O O7 0.422392 0.655120 0.851222
O O8 0.698489 0.189494 0.500000
O O9 0.687577 0.258843 0.371412
O O10 0.747282 0.167304 0.372791
O O11 0.434230 0.795794 0.500000
O O12 0.500000 0.796893 0.395890
O O13 0.436186 0.720564 0.370014
O O14 0.047548 0.844530 0.500000
O O15 0.000000 0.862287 0.632265
O O16 0.697999 0.666911 0.500000
#
# Coordination Sequence:
#
# PCOD9513922 Si02
#       7
#     8  32  32  32  32  32  32
#     4  12  24  44  61  80 118 162 210 230 289 378
#     4  12  26  39  53  87 128 158 198 247 293 349
#     4  12  23  40  61  84 115 161 201 248 294 354
#     4   9  18  38  67  88 113 154 203 244 291 354
#     4   9  18  36  64  92 114 144 196 249 294 345
#     4   9  20  40  65  90 118 156 194 235 293 360
#     4   9  20  39  62  92 119 151 194 246 301 354
#
# _framework density 19.460657999999999
#
# number of rings (size 3 to 8) (size 9 to 14) (size 15 to 20)
#    0.000    1.920    2.400    3.360    0.000    8.000 
#    1.440    5.600    0.000    0.000    0.000    0.000 
#    0.000    0.000    0.000    0.000    0.000    0.000 
#
# Total GULP energy -278717.452677 kJ/mol
# GULP energy per Si atom -5574.349054 kJ/mol
# Density = 1.941636 g / cm^3
# Si number density = 19.460658 Si / 1000 Ang^3
#
#
#
# Elastic Constant Matrix: (Units=GPa)
#
#
# Indices 1 2 3 4 5 6 
#
# 1 69.9483 69.2064 10.0627 0.0000 0.0000 0.0000
# 2 69.2064 150.3251 27.8258 0.0000 0.0000 0.0000
# 3 10.0627 27.8258 41.9246 0.0000 0.0000 0.0000
# 4 0.0000 0.0000 0.0000 32.7031 0.0000 0.0000
# 5 0.0000 0.0000 0.0000 0.0000 72.1726 0.0000
# 6 0.0000 0.0000 0.0000 0.0000 0.0000 204.6734
#
#
#
# Elastic Compliance Matrix: (Units=1/GPa)
#
#
# Indices 1 2 3 4 5 6 
#
# 1 0.026398 -0.012518 0.001972 0.000000 0.000000 0.000000
# 2 -0.012518 0.013520 -0.005969 0.000000 0.000000 0.000000
# 3 0.001972 -0.005969 0.027341 0.000000 0.000000 0.000000
# 4 0.000000 0.000000 0.000000 0.030578 0.000000 0.000000
# 5 0.000000 0.000000 0.000000 0.000000 0.013856 0.000000
# 6 0.000000 0.000000 0.000000 0.000000 0.000000 0.004886
#
#
# Mechanical properties :
#
#
# Convention : Reuss Voigt Hill
#
# Bulk Modulus (GPa) = 29.21463 52.93195 41.07329
# Shear Modulus (GPa) = 31.05258 72.25003 51.65131
#
# Velocity S-wave (km/s) = 3.99890 6.09974 5.15742
# Velocity P-wave (km/s) = 6.03045 8.76742 7.52443
#
# Compressibility (1/GPa) = 0.03422942
#
# Stress axis : x y z
#
# Youngs Moduli (GPa) = 37.88186 73.96351 36.57571
#
# Poissons Ratio (x) = 0.92588 -0.07214
# Poissons Ratio (y) = 0.47421 0.21832
# Poissons Ratio (z) = -0.07472 0.44148
#
# Static dielectric constant tensor:
#      x y z
#    x 1.684320 0.000000 0.000000 
#    y 0.000000 1.673950 0.000000 
#    z 0.000000 0.000000 1.699490 
# 
# From -- ./inp_files/27925.got.cif
#   From: 2010.05.17/outbox.cif.g08.bks.cpg/sg69_14_cif.got.tgz:27925.got - 2010.06.03 19:29:58.
