data_PCOD9513032
_publ_section_title
;
Structure prediction by ZEFSAII (Michael W. Deem and Ramdas Pophale) SiO2 
 PCOD9513032
Probable space group: F M M M
;
_chemical_formula_sum "Si O2"
_cell_formula_units_Z 160
_cell_length_a 21.003751
_cell_length_b 25.985375
_cell_length_c 13.914823
_cell_angle_alpha 90.000000
_cell_angle_beta 90.000000
_cell_angle_gamma 90.000000
_cell_volume 7594.576062
_symmetry_space_group_name_H-M "F M M M"
_symmetry_group_IT_number 69
_symmetry_cell_setting 'orthorhombic'
loop_
_space_group_symop_operation_xyz
x,y,z
-x,-y,z
x,-y,-z
-x,y,-z
-x,-y,-z
x,y,-z
-x,y,z
x,-y,z
x,1/2+y,1/2+z
-x,1/2-y,1/2+z
x,1/2-y,1/2-z
-x,1/2+y,1/2-z
-x,1/2-y,1/2-z
x,1/2+y,1/2-z
-x,1/2+y,1/2+z
x,1/2-y,1/2+z
1/2+x,y,1/2+z
1/2-x,-y,1/2+z
1/2+x,-y,1/2-z
1/2-x,y,1/2-z
1/2-x,-y,1/2-z
1/2+x,y,1/2-z
1/2-x,y,1/2+z
1/2+x,-y,1/2+z
1/2+x,1/2+y,z
1/2-x,1/2-y,z
1/2+x,1/2-y,-z
1/2-x,1/2+y,-z
1/2-x,1/2-y,-z
1/2+x,1/2+y,-z
1/2-x,1/2+y,z
1/2+x,1/2-y,z
loop_
_atom_site_type_symbol
_atom_site_label
_atom_site_fract_x
_atom_site_fract_y
_atom_site_fract_z
Si Si1 0.770648 0.085485 0.613501
Si Si2 0.207198 0.298233 0.116103
Si Si3 0.355784 0.943547 0.718356
Si Si4 0.924378 0.645541 0.391253
Si Si5 0.928683 0.265647 0.883699
O O1 0.778076 0.079274 0.500000
O O2 0.763593 0.146286 0.637369
O O3 0.707997 0.058235 0.653310
O O4 0.830638 0.065397 0.673801
O O5 0.250000 0.250000 0.147149
O O6 0.134007 0.295295 0.150560
O O7 0.204251 0.294787 0.000000
O O8 0.396741 0.896176 0.680493
O O9 0.385877 0.000000 0.708872
O O10 0.897465 0.638154 0.500000
O O11 0.915193 0.705343 0.365176
O O12 0.000000 0.638660 0.396571
O O13 0.000000 0.279613 0.848166
O O14 0.931508 0.270668 0.000000
#
# Coordination Sequence:
#
# PCOD9513032 Si02
#       5
#    32  32  32  32  32
#     4  10  21  37  55  77 107 141 178 220 268 321
#     4   9  16  28  50  77 105 139 175 213 262 320
#     4  11  23  37  55  79 106 138 181 232 277 319
#     4   9  18  34  57  84 113 142 172 214 271 329
#     4   8  14  27  49  77 109 143 175 209 257 319
#
# _framework density 21.067667
#
# number of rings (size 3 to 8) (size 9 to 14) (size 15 to 20)
#    0.000    2.600    0.000    4.200    0.000    6.400 
#    0.000    9.000    0.000    4.200    0.000    1.400 
#    0.000    0.000    0.000    0.000    0.000    0.000 
#
# Total GULP energy -223468.068178 kJ/mol
# GULP energy per Si atom -5586.701704 kJ/mol
# Density = 2.101972 g / cm^3
# Si number density = 21.067667 Si / 1000 Ang^3
#
#
#
# Elastic Constant Matrix: (Units=GPa)
#
#
# Indices 1 2 3 4 5 6 
#
# 1 43.1299 19.7586 8.1455 0.0000 0.0000 0.0000
# 2 19.7586 79.4139 -0.5615 0.0000 0.0000 0.0000
# 3 8.1455 -0.5615 111.9402 0.0000 0.0000 0.0000
# 4 0.0000 0.0000 0.0000 15.8261 0.0000 0.0000
# 5 0.0000 0.0000 0.0000 0.0000 19.7194 0.0000
# 6 0.0000 0.0000 0.0000 0.0000 0.0000 -107.0400
#
#
#
# Elastic Compliance Matrix: (Units=1/GPa)
#
#
# Indices 1 2 3 4 5 6 
#
# 1 0.026595 -0.006631 -0.001969 0.000000 0.000000 0.000000
# 2 -0.006631 0.014246 0.000554 0.000000 0.000000 0.000000
# 3 -0.001969 0.000554 0.009079 0.000000 0.000000 0.000000
# 4 0.000000 0.000000 0.000000 0.063187 0.000000 0.000000
# 5 0.000000 0.000000 0.000000 0.000000 0.050711 0.000000
# 6 0.000000 0.000000 0.000000 0.000000 0.000000 -0.009342
#
#
# Mechanical properties :
#
#
# Convention : Reuss Voigt Hill
#
# Bulk Modulus (GPa) = 29.55989 32.12992 30.84491
# Shear Modulus (GPa) = 27.49605 -0.48948 13.50329
#
# Velocity S-wave (km/s) = 3.61658 -0.48253 2.53444
# Velocity P-wave (km/s) = 5.61257 3.86956 4.82050
#
# Compressibility (1/GPa) = 0.03382962
#
# Stress axis : x y z
#
# Youngs Moduli (GPa) = 37.60063 70.19518 110.13989
#
# Poissons Ratio (x) = 0.46546 0.21681
# Poissons Ratio (y) = 0.24933 -0.06101
# Poissons Ratio (z) = 0.07402 -0.03889
#
# Static dielectric constant tensor:
#      x y z
#    x 1.755920 0.000000 0.000000 
#    y 0.000000 1.751810 0.000000 
#    z 0.000000 0.000000 1.794930 
# 
# From -- ./inp_files/17716.got.cif
#   From: 2010.05.17/outbox.cif.g08.bks.cpg/sg69_9_cif.got.tgz:17716.got - 2010.06.03 19:29:58.
