data_PCOD9513591
_publ_section_title
;
Structure prediction by ZEFSAII (Michael W. Deem and Ramdas Pophale) SiO2 
 PCOD9513591
Probable space group: F M M M
;
_chemical_formula_sum "Si O2"
_cell_formula_units_Z 100
_cell_length_a 23.588456
_cell_length_b 8.475253
_cell_length_c 26.930940
_cell_angle_alpha 90.000000
_cell_angle_beta 90.000000
_cell_angle_gamma 90.000000
_cell_volume 5383.983231
_symmetry_space_group_name_H-M "F M M M"
_symmetry_group_IT_number 69
_symmetry_cell_setting 'orthorhombic'
loop_
_space_group_symop_operation_xyz
x,y,z
-x,-y,z
x,-y,-z
-x,y,-z
-x,-y,-z
x,y,-z
-x,y,z
x,-y,z
x,1/2+y,1/2+z
-x,1/2-y,1/2+z
x,1/2-y,1/2-z
-x,1/2+y,1/2-z
-x,1/2-y,1/2-z
x,1/2+y,1/2-z
-x,1/2+y,1/2+z
x,1/2-y,1/2+z
1/2+x,y,1/2+z
1/2-x,-y,1/2+z
1/2+x,-y,1/2-z
1/2-x,y,1/2-z
1/2-x,-y,1/2-z
1/2+x,y,1/2-z
1/2-x,y,1/2+z
1/2+x,-y,1/2+z
1/2+x,1/2+y,z
1/2-x,1/2-y,z
1/2+x,1/2-y,-z
1/2-x,1/2+y,-z
1/2-x,1/2-y,-z
1/2+x,1/2+y,-z
1/2-x,1/2+y,z
1/2+x,1/2-y,z
loop_
_atom_site_type_symbol
_atom_site_label
_atom_site_fract_x
_atom_site_fract_y
_atom_site_fract_z
Si Si1 0.000000 0.187171 0.927108
Si Si2 0.685321 0.811793 0.000000
Si Si3 0.000000 0.000000 0.500000
Si Si4 0.313910 0.813919 0.802009
Si Si5 0.627775 0.683172 0.899471
O O1 0.059872 0.193919 0.899352
O O2 0.000000 0.352425 0.958466
O O3 0.000000 0.000000 0.947500
O O4 0.750000 0.750000 0.000000
O O5 0.652346 0.754481 0.950746
O O6 0.686008 0.000000 0.000000
O O7 0.338244 0.750000 0.750000
O O8 0.250000 0.750000 0.806438
O O9 0.347059 0.764019 0.851016
O O10 0.311310 0.000000 0.798615
O O11 0.644686 0.500000 0.898964
#
# Coordination Sequence:
#
# PCOD9513591 Si02
#       5
#    16  16   4  32  32
#     4  10  25  41  62  93 126 168 213 260 313 372
#     4  12  25  39  58  88 121 161 202 249 312 374
#     4  12  22  36  68  82 128 156 222 244 312 358
#     4  11  22  39  64  93 123 162 208 257 315 373
#     4  11  23  42  62  88 126 162 205 258 311 370
#
# _framework density 18.573609000000001
#
# number of rings (size 3 to 8) (size 9 to 14) (size 15 to 20)
#    0.000    0.960    0.000    8.400    6.720    2.560 
#    0.000    0.800    0.000    0.000    0.000    0.000 
#    0.000    0.000    0.000    0.000    0.000    0.000 
#
# Total GULP energy -139249.721403 kJ/mol
# GULP energy per Si atom -5569.988856 kJ/mol
# Density = 1.853133 g / cm^3
# Si number density = 18.573609 Si / 1000 Ang^3
#
#
#
# Elastic Constant Matrix: (Units=GPa)
#
#
# Indices 1 2 3 4 5 6 
#
# 1 108.2984 36.6324 73.6480 0.0000 0.0000 0.0000
# 2 36.6324 218.5673 79.7859 0.0000 0.0000 0.0001
# 3 73.6480 79.7859 180.5121 0.0000 0.0000 0.0000
# 4 0.0000 0.0000 0.0000 36.1037 0.0000 0.0000
# 5 0.0000 0.0000 0.0000 0.0000 -14.6437 0.0000
# 6 0.0000 0.0001 0.0000 0.0000 0.0000 21.3076
#
#
#
# Elastic Compliance Matrix: (Units=1/GPa)
#
#
# Indices 1 2 3 4 5 6 
#
# 1 0.012794 -0.000285 -0.005094 0.000000 0.000000 0.000000
# 2 -0.000285 0.005462 -0.002298 0.000000 0.000000 0.000000
# 3 -0.005094 -0.002298 0.008634 0.000000 0.000000 0.000000
# 4 0.000000 0.000000 0.000000 0.027698 0.000000 0.000000
# 5 0.000000 0.000000 0.000000 0.000000 -0.068289 0.000000
# 6 0.000000 0.000000 0.000000 0.000000 0.000000 0.046932
#
#
# Mechanical properties :
#
#
# Convention : Reuss Voigt Hill
#
# Bulk Modulus (GPa) = 86.68290 98.61227 92.64758
# Shear Modulus (GPa) = 95.36504 29.70761 62.53632
#
# Velocity S-wave (km/s) = 7.17327 4.00365 5.80883
# Velocity P-wave (km/s) = 10.74146 8.63599 9.74575
#
# Compressibility (1/GPa) = 0.01153630
#
# Stress axis : x y z
#
# Youngs Moduli (GPa) = 78.15951 183.08939 115.82312
#
# Poissons Ratio (x) = 0.05214 0.59002
# Poissons Ratio (y) = 0.02226 0.26615
# Poissons Ratio (z) = 0.39816 0.42072
#
# Static dielectric constant tensor:
#      x y z
#    x 1.621230 0.000000 0.000000 
#    y 0.000000 1.650160 0.000000 
#    z 0.000000 0.000000 1.594620 
# 
# From -- ./inp_files/2957.got.cif
#   From: 2010.05.17/outbox.cif.g08.bks.cpg/sg69_2_cif.got.tgz:2957.got - 2010.06.03 19:29:58.
