data_PCOD9513143
_publ_section_title
;
Structure prediction by ZEFSAII (Michael W. Deem and Ramdas Pophale) SiO2 
 PCOD9513143
Probable space group: F M M M
;
_chemical_formula_sum "Si O2"
_cell_formula_units_Z 112
_cell_length_a 38.055695
_cell_length_b 10.626937
_cell_length_c 14.574328
_cell_angle_alpha 90.000000
_cell_angle_beta 90.000000
_cell_angle_gamma 90.000000
_cell_volume 5894.083756
_symmetry_space_group_name_H-M "F M M M"
_symmetry_group_IT_number 69
_symmetry_cell_setting 'orthorhombic'
loop_
_space_group_symop_operation_xyz
x,y,z
-x,-y,z
x,-y,-z
-x,y,-z
-x,-y,-z
x,y,-z
-x,y,z
x,-y,z
x,1/2+y,1/2+z
-x,1/2-y,1/2+z
x,1/2-y,1/2-z
-x,1/2+y,1/2-z
-x,1/2-y,1/2-z
x,1/2+y,1/2-z
-x,1/2+y,1/2+z
x,1/2-y,1/2+z
1/2+x,y,1/2+z
1/2-x,-y,1/2+z
1/2+x,-y,1/2-z
1/2-x,y,1/2-z
1/2-x,-y,1/2-z
1/2+x,y,1/2-z
1/2-x,y,1/2+z
1/2+x,-y,1/2+z
1/2+x,1/2+y,z
1/2-x,1/2-y,z
1/2+x,1/2-y,-z
1/2-x,1/2+y,-z
1/2-x,1/2-y,-z
1/2+x,1/2+y,-z
1/2-x,1/2+y,z
1/2+x,1/2-y,z
loop_
_atom_site_type_symbol
_atom_site_label
_atom_site_fract_x
_atom_site_fract_y
_atom_site_fract_z
Si Si1 0.906181 0.357987 0.889091
Si Si2 0.040288 0.642001 0.388091
Si Si3 0.826734 0.642090 0.820131
Si Si4 0.778622 0.141244 0.500000
O O1 0.918587 0.500000 0.867555
O O2 0.933058 0.250263 0.858882
O O3 0.867571 0.341251 0.847300
O O4 0.902802 0.350593 0.000000
O O5 0.040184 0.643100 0.500000
O O6 0.050580 0.500000 0.360144
O O7 0.000000 0.664730 0.359144
O O8 0.822648 0.500000 0.782624
O O9 0.816317 0.750000 0.750000
O O10 0.803403 0.651215 0.911202
O O11 0.750000 0.250000 0.500000
O O12 0.762841 0.000000 0.500000
#
# Coordination Sequence:
#
# PCOD9513143 Si02
#       4
#    32  32  32  16
#     4   9  16  29  50  73 101 140 182 224 272 323
#     4   8  14  24  39  65 102 139 176 223 276 324
#     4  10  21  38  59  84 115 149 184 227 275 325
#     4  10  22  42  64  86 117 150 181 221 272 327
#
# _framework density 19.002105
#
# number of rings (size 3 to 8) (size 9 to 14) (size 15 to 20)
#    0.000    2.857    1.429    0.857    0.000    3.429 
#    0.000    5.714    0.000    0.857    0.000    0.000 
#    0.000    0.000    0.000    0.000    0.000    0.000 
#
# Total GULP energy -156272.496244 kJ/mol
# GULP energy per Si atom -5581.160580 kJ/mol
# Density = 1.895886 g / cm^3
# Si number density = 19.002105 Si / 1000 Ang^3
#
#
#
# Elastic Constant Matrix: (Units=GPa)
#
#
# Indices 1 2 3 4 5 6 
#
# 1 73.4315 89.3833 9.0828 0.0000 0.0000 0.0000
# 2 89.3833 188.7923 55.9157 0.0000 0.0000 0.0000
# 3 9.0828 55.9157 66.0894 0.0000 0.0000 0.0000
# 4 0.0000 0.0000 0.0000 19.5585 0.0000 0.0000
# 5 0.0000 0.0000 0.0000 0.0000 -15.1067 0.0000
# 6 0.0000 0.0000 0.0000 0.0000 0.0000 40.5385
#
#
#
# Elastic Compliance Matrix: (Units=1/GPa)
#
#
# Indices 1 2 3 4 5 6 
#
# 1 0.039989 -0.023091 0.014041 0.000000 0.000000 0.000000
# 2 -0.023091 0.020402 -0.014088 0.000000 0.000000 0.000000
# 3 0.014041 -0.014088 0.025120 0.000000 0.000000 0.000000
# 4 0.000000 0.000000 0.000000 0.051129 0.000000 0.000000
# 5 0.000000 0.000000 0.000000 0.000000 -0.066196 0.000000
# 6 0.000000 0.000000 0.000000 0.000000 0.000000 0.024668
#
#
# Mechanical properties :
#
#
# Convention : Reuss Voigt Hill
#
# Bulk Modulus (GPa) = 25.48764 70.78633 48.13698
# Shear Modulus (GPa) = 32.36974 20.59347 26.48161
#
# Velocity S-wave (km/s) = 4.13180 3.29560 3.73716
# Velocity P-wave (km/s) = 6.01702 7.19820 6.63395
#
# Compressibility (1/GPa) = 0.03923471
#
# Stress axis : x y z
#
# Youngs Moduli (GPa) = 25.00718 49.01580 39.80840
#
# Poissons Ratio (x) = 1.13182 -0.55894
# Poissons Ratio (y) = 0.57744 0.56080
# Poissons Ratio (z) = -0.35112 0.69051
#
# Static dielectric constant tensor:
#      x y z
#    x 1.619310 0.000000 0.000000 
#    y 0.000000 1.659520 0.000000 
#    z 0.000000 0.000000 1.675870 
# 
# From -- ./inp_files/11927.got.cif
#   From: 2010.05.17/outbox.cif.g08.bks.cpg/sg69_6_cif.got.tgz:11927.got - 2010.06.03 19:29:58.
