data_PCOD9513343
_publ_section_title
;
Structure prediction by ZEFSAII (Michael W. Deem and Ramdas Pophale) SiO2 
 PCOD9513343
Probable space group: F M M M
;
_chemical_formula_sum "Si O2"
_cell_formula_units_Z 104
_cell_length_a 29.512867
_cell_length_b 12.083649
_cell_length_c 14.806486
_cell_angle_alpha 90.000000
_cell_angle_beta 90.000000
_cell_angle_gamma 90.000000
_cell_volume 5280.335320
_symmetry_space_group_name_H-M "F M M M"
_symmetry_group_IT_number 69
_symmetry_cell_setting 'orthorhombic'
loop_
_space_group_symop_operation_xyz
x,y,z
-x,-y,z
x,-y,-z
-x,y,-z
-x,-y,-z
x,y,-z
-x,y,z
x,-y,z
x,1/2+y,1/2+z
-x,1/2-y,1/2+z
x,1/2-y,1/2-z
-x,1/2+y,1/2-z
-x,1/2-y,1/2-z
x,1/2+y,1/2-z
-x,1/2+y,1/2+z
x,1/2-y,1/2+z
1/2+x,y,1/2+z
1/2-x,-y,1/2+z
1/2+x,-y,1/2-z
1/2-x,y,1/2-z
1/2-x,-y,1/2-z
1/2+x,y,1/2-z
1/2-x,y,1/2+z
1/2+x,-y,1/2+z
1/2+x,1/2+y,z
1/2-x,1/2-y,z
1/2+x,1/2-y,-z
1/2-x,1/2+y,-z
1/2-x,1/2-y,-z
1/2+x,1/2+y,-z
1/2-x,1/2+y,z
1/2+x,1/2-y,z
loop_
_atom_site_type_symbol
_atom_site_label
_atom_site_fract_x
_atom_site_fract_y
_atom_site_fract_z
Si Si1 0.250000 0.750000 0.750000
Si Si2 0.189892 0.369231 0.899928
Si Si3 0.500000 0.376543 0.704064
Si Si4 0.909131 0.790429 0.648154
Si Si5 0.553885 0.630542 0.000000
O O1 0.218029 0.681572 0.817737
O O2 0.196784 0.500000 0.898682
O O3 0.136711 0.343840 0.887306
O O4 0.203197 0.327020 0.000000
O O5 0.500000 0.500000 0.752085
O O6 0.500000 0.250000 0.750000
O O7 0.453022 0.369887 0.649999
O O8 0.900831 0.750000 0.750000
O O9 0.923658 0.687034 0.586774
O O10 0.560534 0.500000 0.000000
O O11 0.500000 0.653269 0.000000
#
# Coordination Sequence:
#
# PCOD9513343 Si02
#       5
#     8  32  16  32  16
#     4  12  24  48  68  94 128 164 220 272 348 406
#     4  11  24  43  69  96 128 167 214 275 336 403
#     4  10  22  37  62  97 136 182 226 273 327 399
#     4  11  22  42  65  97 134 175 223 272 330 398
#     4  11  24  42  66  99 140 187 232 275 326 394
#
# _framework density 19.695719
#
# number of rings (size 3 to 8) (size 9 to 14) (size 15 to 20)
#    0.000    1.077    4.615    1.846    0.000    6.154 
#    0.000    0.769    0.000    0.000    0.000    0.000 
#    0.000    0.000    0.000    0.000    0.000    0.000 
#
# Total GULP energy -145055.016037 kJ/mol
# GULP energy per Si atom -5579.039078 kJ/mol
# Density = 1.965089 g / cm^3
# Si number density = 19.695719 Si / 1000 Ang^3
#
#
#
# Elastic Constant Matrix: (Units=GPa)
#
#
# Indices 1 2 3 4 5 6 
#
# 1 134.7938 47.8815 53.3777 0.0000 0.0000 0.0000
# 2 47.8815 105.1260 57.8988 0.0000 0.0000 0.0000
# 3 53.3777 57.8988 169.0908 0.0000 0.0000 0.0000
# 4 0.0000 0.0000 0.0000 9.2916 0.0000 0.0000
# 5 0.0000 0.0000 0.0000 0.0000 9.0489 0.0000
# 6 0.0000 0.0000 0.0000 0.0000 0.0000 -21.3647
#
#
#
# Elastic Compliance Matrix: (Units=1/GPa)
#
#
# Indices 1 2 3 4 5 6 
#
# 1 0.009288 -0.003223 -0.001828 0.000000 0.000000 0.000000
# 2 -0.003223 0.012842 -0.003380 0.000000 0.000000 0.000000
# 3 -0.001828 -0.003380 0.007648 0.000000 0.000000 0.000000
# 4 0.000000 0.000000 0.000000 0.107624 0.000000 0.000000
# 5 0.000000 0.000000 0.000000 0.000000 0.110511 0.000000
# 6 0.000000 0.000000 0.000000 0.000000 0.000000 -0.046806
#
#
# Mechanical properties :
#
#
# Convention : Reuss Voigt Hill
#
# Bulk Modulus (GPa) = 77.42645 80.81408 79.12026
# Shear Modulus (GPa) = 22.49476 16.05200 19.27338
#
# Velocity S-wave (km/s) = 3.38318 2.85792 3.13158
# Velocity P-wave (km/s) = 7.39310 7.21184 7.30303
#
# Compressibility (1/GPa) = 0.01291548
#
# Stress axis : x y z
#
# Youngs Moduli (GPa) = 107.66938 77.86999 130.74732
#
# Poissons Ratio (x) = 0.25100 0.23903
# Poissons Ratio (y) = 0.34706 0.44189
# Poissons Ratio (z) = 0.19684 0.26318
#
# Static dielectric constant tensor:
#      x y z
#    x 1.682400 0.000000 0.000000 
#    y 0.000000 1.689500 0.000000 
#    z 0.000000 0.000000 1.718770 
# 
# From -- ./inp_files/7450.got.cif
#   From: 2010.05.17/outbox.cif.g08.bks.cpg/sg69_4_cif.got.tgz:7450.got - 2010.06.03 19:29:58.
