data_PCOD9513530
_publ_section_title
;
Structure prediction by ZEFSAII (Michael W. Deem and Ramdas Pophale) SiO2 
 PCOD9513530
Probable space group: F M M M
;
_chemical_formula_sum "Si O2"
_cell_formula_units_Z 160
_cell_length_a 14.350391
_cell_length_b 27.880978
_cell_length_c 19.586639
_cell_angle_alpha 90.000000
_cell_angle_beta 90.000000
_cell_angle_gamma 90.000000
_cell_volume 7836.671766
_symmetry_space_group_name_H-M "F M M M"
_symmetry_group_IT_number 69
_symmetry_cell_setting 'orthorhombic'
loop_
_space_group_symop_operation_xyz
x,y,z
-x,-y,z
x,-y,-z
-x,y,-z
-x,-y,-z
x,y,-z
-x,y,z
x,-y,z
x,1/2+y,1/2+z
-x,1/2-y,1/2+z
x,1/2-y,1/2-z
-x,1/2+y,1/2-z
-x,1/2-y,1/2-z
x,1/2+y,1/2-z
-x,1/2+y,1/2+z
x,1/2-y,1/2+z
1/2+x,y,1/2+z
1/2-x,-y,1/2+z
1/2+x,-y,1/2-z
1/2-x,y,1/2-z
1/2-x,-y,1/2-z
1/2+x,y,1/2-z
1/2-x,y,1/2+z
1/2+x,-y,1/2+z
1/2+x,1/2+y,z
1/2-x,1/2-y,z
1/2+x,1/2-y,-z
1/2-x,1/2+y,-z
1/2-x,1/2-y,-z
1/2+x,1/2+y,-z
1/2-x,1/2+y,z
1/2+x,1/2-y,z
loop_
_atom_site_type_symbol
_atom_site_label
_atom_site_fract_x
_atom_site_fract_y
_atom_site_fract_z
Si Si1 0.112861 0.500000 0.582436
Si Si2 0.686060 0.417049 0.815221
Si Si3 0.679539 0.382191 0.573567
Si Si4 0.000000 0.443219 0.111020
Si Si5 0.353005 0.229709 0.926716
Si Si6 0.500000 0.115794 0.756892
Si Si7 0.000000 0.777966 0.681629
O O1 0.138121 0.500000 0.500000
O O2 0.151680 0.543938 0.628756
O O3 0.000000 0.500000 0.584757
O O4 0.750000 0.434132 0.750000
O O5 0.754529 0.385200 0.861174
O O6 0.594805 0.390077 0.786379
O O7 0.726185 0.392508 0.500000
O O8 0.592829 0.418271 0.581817
O O9 0.644972 0.327873 0.570467
O O10 0.000000 0.429061 0.190791
O O11 0.000000 0.500000 0.100109
O O12 0.250000 0.250000 0.920068
O O13 0.413255 0.240297 0.861887
O O14 0.389387 0.247665 0.000000
O O15 0.500000 0.165057 0.800847
O O16 0.000000 0.750000 0.750000
#
# Coordination Sequence:
#
# PCOD9513530 Si02
#       7
#    16  32  32  16  32  16  16
#     4  11  25  44  64  91 129 179 227 273 327 396
#     4  12  24  42  68  92 133 170 224 278 338 404
#     4  11  24  44  69 100 137 176 226 287 342 404
#     4  12  25  43  71 101 143 182 231 287 342 412
#     4  10  22  44  71  98 134 180 223 271 342 421
#     4  12  26  46  64 101 136 178 229 281 344 415
#     4  12  25  42  69 101 138 174 219 286 351 402
#
# _framework density 20.416830999999998
#
# number of rings (size 3 to 8) (size 9 to 14) (size 15 to 20)
#    0.000    0.700    5.000    1.500    5.600    2.800 
#    0.000    0.000    0.000    0.000    0.000    0.000 
#    0.000    0.000    0.000    0.000    0.000    0.000 
#
# Total GULP energy -223147.020842 kJ/mol
# GULP energy per Si atom -5578.675521 kJ/mol
# Density = 2.037036 g / cm^3
# Si number density = 20.416831 Si / 1000 Ang^3
#
#
#
# Elastic Constant Matrix: (Units=GPa)
#
#
# Indices 1 2 3 4 5 6 
#
# 1 111.2455 19.5105 75.4703 0.0000 0.0000 0.0000
# 2 19.5105 42.7479 18.9616 0.0000 0.0000 0.0000
# 3 75.4703 18.9616 199.4272 0.0000 0.0000 0.0000
# 4 0.0000 0.0000 0.0000 30.1085 0.0000 0.0000
# 5 0.0000 0.0000 0.0000 0.0000 24.9003 0.0000
# 6 0.0000 0.0000 0.0000 0.0000 0.0000 21.7101
#
#
#
# Elastic Compliance Matrix: (Units=1/GPa)
#
#
# Indices 1 2 3 4 5 6 
#
# 1 0.012663 -0.003815 -0.004429 0.000000 0.000000 0.000000
# 2 -0.003815 0.025572 -0.000988 0.000000 0.000000 0.000000
# 3 -0.004429 -0.000988 0.006785 0.000000 0.000000 0.000000
# 4 0.000000 0.000000 0.000000 0.033213 0.000000 0.000000
# 5 0.000000 0.000000 0.000000 0.000000 0.040160 0.000000
# 6 0.000000 0.000000 0.000000 0.000000 0.000000 0.046061
#
#
# Mechanical properties :
#
#
# Convention : Reuss Voigt Hill
#
# Bulk Modulus (GPa) = 37.65646 64.58947 51.12297
# Shear Modulus (GPa) = 26.07278 31.30900 28.69089
#
# Velocity S-wave (km/s) = 3.57742 3.92023 3.75274
# Velocity P-wave (km/s) = 5.96220 7.22461 6.62355
#
# Compressibility (1/GPa) = 0.02655587
#
# Stress axis : x y z
#
# Youngs Moduli (GPa) = 78.96901 39.10496 147.39367
#
# Poissons Ratio (x) = 0.14918 0.65288
# Poissons Ratio (y) = 0.30125 0.14559
# Poissons Ratio (z) = 0.34979 0.03863
#
# Static dielectric constant tensor:
#      x y z
#    x 1.732580 0.000000 0.000000 
#    y 0.000000 1.759820 0.000000 
#    z 0.000000 0.000000 1.771290 
# 
# From -- ./inp_files/21915.got.cif
#   From: 2010.05.17/outbox.cif.g08.bks.cpg/sg69_11_cif.got.tgz:21915.got - 2010.06.03 19:29:58.
