data_PCOD9513083
_publ_section_title
;
Structure prediction by ZEFSAII (Michael W. Deem and Ramdas Pophale) SiO2 
 PCOD9513083
Probable space group: F M M M
;
_chemical_formula_sum "Si O2"
_cell_formula_units_Z 176
_cell_length_a 11.251389
_cell_length_b 27.813278
_cell_length_c 28.048720
_cell_angle_alpha 90.000000
_cell_angle_beta 90.000000
_cell_angle_gamma 90.000000
_cell_volume 8777.510624
_symmetry_space_group_name_H-M "F M M M"
_symmetry_group_IT_number 69
_symmetry_cell_setting 'orthorhombic'
loop_
_space_group_symop_operation_xyz
x,y,z
-x,-y,z
x,-y,-z
-x,y,-z
-x,-y,-z
x,y,-z
-x,y,z
x,-y,z
x,1/2+y,1/2+z
-x,1/2-y,1/2+z
x,1/2-y,1/2-z
-x,1/2+y,1/2-z
-x,1/2-y,1/2-z
x,1/2+y,1/2-z
-x,1/2+y,1/2+z
x,1/2-y,1/2+z
1/2+x,y,1/2+z
1/2-x,-y,1/2+z
1/2+x,-y,1/2-z
1/2-x,y,1/2-z
1/2-x,-y,1/2-z
1/2+x,y,1/2-z
1/2-x,y,1/2+z
1/2+x,-y,1/2+z
1/2+x,1/2+y,z
1/2-x,1/2-y,z
1/2+x,1/2-y,-z
1/2-x,1/2+y,-z
1/2-x,1/2-y,-z
1/2+x,1/2+y,-z
1/2-x,1/2+y,z
1/2+x,1/2-y,z
loop_
_atom_site_type_symbol
_atom_site_label
_atom_site_fract_x
_atom_site_fract_y
_atom_site_fract_z
Si Si1 0.138164 0.379717 0.214222
Si Si2 0.361120 0.394231 0.052559
Si Si3 0.629765 0.781599 0.843679
Si Si4 0.807387 0.302892 0.947998
Si Si5 0.500000 0.941784 0.052940
Si Si6 0.792070 0.942896 0.376360
O O1 0.250000 0.383852 0.250000
O O2 0.138658 0.326119 0.192340
O O3 0.169573 0.416091 0.171269
O O4 0.000000 0.388803 0.230831
O O5 0.500000 0.384617 0.052677
O O6 0.291973 0.344031 0.055769
O O7 0.328329 0.426292 0.098161
O O8 0.330818 0.416337 0.000000
O O9 0.500000 0.757000 0.835820
O O10 0.750000 0.750000 0.839168
O O11 0.626988 0.802604 0.897538
O O12 0.750000 0.250000 0.949707
O O13 0.866545 0.309951 0.000000
O O14 0.613899 0.927807 0.082926
O O15 0.500000 0.000000 0.050464
O O16 0.500000 0.922207 0.000000
O O17 0.796304 0.000000 0.369567
#
# Coordination Sequence:
#
# PCOD9513083 Si02
#       6
#    32  32  32  32  16  32
#     4  11  25  46  68  95 127 165 219 280 337 391
#     4  10  21  37  59  91 133 176 215 258 314 385
#     4  10  22  41  65  96 132 167 210 265 321 389
#     4   9  18  34  57  89 128 171 211 248 303 379
#     4   9  18  34  62  94 122 159 204 254 317 384
#     4  11  22  40  64  90 126 166 212 270 327 388
#
# _framework density 20.051242999999999
#
# number of rings (size 3 to 8) (size 9 to 14) (size 15 to 20)
#    0.000    1.909    2.727    0.545    0.000    6.909 
#    0.000    6.364    0.000    0.000    0.000    0.000 
#    0.000    0.000    0.000    0.000    0.000    0.000 
#
# Total GULP energy -245275.695895 kJ/mol
# GULP energy per Si atom -5574.447634 kJ/mol
# Density = 2.000561 g / cm^3
# Si number density = 20.051243 Si / 1000 Ang^3
#
#
#
# Elastic Constant Matrix: (Units=GPa)
#
#
# Indices 1 2 3 4 5 6 
#
# 1 160.1252 49.7272 66.1892 0.0000 0.0000 0.0000
# 2 49.7272 69.3734 31.2888 0.0000 0.0000 0.0000
# 3 66.1892 31.2888 108.5687 0.0000 0.0000 0.0000
# 4 0.0000 0.0000 0.0000 22.3919 0.0000 0.0000
# 5 0.0000 0.0000 0.0000 0.0000 13.6061 0.0000
# 6 0.0000 0.0000 0.0000 0.0000 0.0000 16.0827
#
#
#
# Elastic Compliance Matrix: (Units=1/GPa)
#
#
# Indices 1 2 3 4 5 6 
#
# 1 0.009596 -0.004874 -0.004446 0.000000 0.000000 0.000000
# 2 -0.004874 0.019043 -0.002517 0.000000 0.000000 0.000000
# 3 -0.004446 -0.002517 0.012647 0.000000 0.000000 0.000000
# 4 0.000000 0.000000 0.000000 0.044659 0.000000 0.000000
# 5 0.000000 0.000000 0.000000 0.000000 0.073497 0.000000
# 6 0.000000 0.000000 0.000000 0.000000 0.000000 0.062178
#
#
# Mechanical properties :
#
#
# Convention : Reuss Voigt Hill
#
# Bulk Modulus (GPa) = 56.77500 70.27532 63.52516
# Shear Modulus (GPa) = 19.90727 23.14029 21.52378
#
# Velocity S-wave (km/s) = 3.15432 3.40083 3.27989
# Velocity P-wave (km/s) = 6.45312 7.10949 6.78924
#
# Compressibility (1/GPa) = 0.01761339
#
# Stress axis : x y z
#
# Youngs Moduli (GPa) = 104.20618 52.51185 79.07258
#
# Poissons Ratio (x) = 0.25592 0.35155
# Poissons Ratio (y) = 0.50785 0.19903
# Poissons Ratio (z) = 0.46329 0.13217
#
# Static dielectric constant tensor:
#      x y z
#    x 1.834230 0.000000 0.000000 
#    y 0.000000 1.688030 0.000000 
#    z 0.000000 0.000000 1.728500 
# 
# From -- ./inp_files/12350.got.cif
#   From: 2010.05.17/outbox.cif.g08.bks.cpg/sg69_7_cif.got.tgz:12350.got - 2010.06.03 19:29:58.
