data_PCOD9513712
_publ_section_title
;
Structure prediction by ZEFSAII (Michael W. Deem and Ramdas Pophale) SiO2 
 PCOD9513712
Probable space group: F M M M
;
_chemical_formula_sum "Si O2"
_cell_formula_units_Z 192
_cell_length_a 29.161560
_cell_length_b 20.202805
_cell_length_c 17.167868
_cell_angle_alpha 90.000000
_cell_angle_beta 90.000000
_cell_angle_gamma 90.000000
_cell_volume 10114.368918
_symmetry_space_group_name_H-M "F M M M"
_symmetry_group_IT_number 69
_symmetry_cell_setting 'orthorhombic'
loop_
_space_group_symop_operation_xyz
x,y,z
-x,-y,z
x,-y,-z
-x,y,-z
-x,-y,-z
x,y,-z
-x,y,z
x,-y,z
x,1/2+y,1/2+z
-x,1/2-y,1/2+z
x,1/2-y,1/2-z
-x,1/2+y,1/2-z
-x,1/2-y,1/2-z
x,1/2+y,1/2-z
-x,1/2+y,1/2+z
x,1/2-y,1/2+z
1/2+x,y,1/2+z
1/2-x,-y,1/2+z
1/2+x,-y,1/2-z
1/2-x,y,1/2-z
1/2-x,-y,1/2-z
1/2+x,y,1/2-z
1/2-x,y,1/2+z
1/2+x,-y,1/2+z
1/2+x,1/2+y,z
1/2-x,1/2-y,z
1/2+x,1/2-y,-z
1/2-x,1/2+y,-z
1/2-x,1/2-y,-z
1/2+x,1/2+y,-z
1/2-x,1/2+y,z
1/2+x,1/2-y,z
loop_
_atom_site_type_symbol
_atom_site_label
_atom_site_fract_x
_atom_site_fract_y
_atom_site_fract_z
Si Si1 0.321105 0.000000 0.905933
Si Si2 0.856475 0.368687 0.825568
Si Si3 0.850166 0.120434 0.138701
Si Si4 0.804520 0.757457 0.589033
Si Si5 0.949364 0.078815 0.855948
Si Si6 0.949517 0.178670 0.710186
Si Si7 0.214680 0.500000 0.407140
O O1 0.345043 0.064212 0.869856
O O2 0.267494 0.000000 0.880632
O O3 0.323236 0.000000 0.000000
O O4 0.853670 0.376958 0.732500
O O5 0.821185 0.313308 0.852585
O O6 0.907401 0.341531 0.843477
O O7 0.830977 0.189519 0.107176
O O8 0.901171 0.102252 0.106793
O O9 0.813739 0.063852 0.118824
O O10 0.814463 0.777811 0.500000
O O11 0.750000 0.750000 0.596102
O O12 0.951659 0.122745 0.777471
O O13 0.000000 0.088150 0.894474
O O14 0.944943 0.000000 0.840351
O O15 0.940013 0.250000 0.750000
O O16 0.000000 0.182986 0.673515
O O17 0.216201 0.500000 0.500000
#
# Coordination Sequence:
#
# PCOD9513712 Si02
#       7
#    16  32  32  32  32  32  16
#     4  11  25  41  56  77 116 164 199 233 292 359
#     4  11  22  37  61  88 114 147 194 249 289 329
#     4  11  21  36  61  91 113 147 195 253 293 333
#     4  11  24  41  59  81 115 157 195 235 299 369
#     4   9  17  31  54  85 122 154 184 231 293 351
#     4   9  18  33  56  88 120 149 185 234 291 347
#     4  11  23  39  56  79 116 160 197 235 296 361
#
# _framework density 18.982894999999999
#
# number of rings (size 3 to 8) (size 9 to 14) (size 15 to 20)
#    0.000    1.667    0.833    5.000    3.500    6.667 
#    0.000    0.000    0.000    6.000    0.000    0.000 
#    0.000    0.000    0.000    0.000    0.000    0.000 
#
# Total GULP energy -267835.024012 kJ/mol
# GULP energy per Si atom -5579.896334 kJ/mol
# Density = 1.893969 g / cm^3
# Si number density = 18.982895 Si / 1000 Ang^3
#
#
#
# Elastic Constant Matrix: (Units=GPa)
#
#
# Indices 1 2 3 4 5 6 
#
# 1 153.9418 49.4854 37.2078 0.0000 0.0000 0.0000
# 2 49.4854 109.7408 10.9225 0.0000 0.0000 0.0000
# 3 37.2078 10.9225 43.6633 0.0000 0.0000 0.0000
# 4 0.0000 0.0000 0.0000 21.8961 0.0000 0.0000
# 5 0.0000 0.0000 0.0000 0.0000 -94.1171 0.0000
# 6 0.0000 0.0000 0.0000 0.0000 0.0000 201.8791
#
#
#
# Elastic Compliance Matrix: (Units=1/GPa)
#
#
# Indices 1 2 3 4 5 6 
#
# 1 0.009333 -0.003504 -0.007076 0.000000 0.000000 0.000000
# 2 -0.003504 0.010661 0.000319 0.000000 0.000000 0.000000
# 3 -0.007076 0.000319 0.028853 0.000000 0.000000 0.000000
# 4 0.000000 0.000000 0.000000 0.045670 0.000000 0.000000
# 5 0.000000 0.000000 0.000000 0.000000 -0.010625 0.000000
# 6 0.000000 0.000000 0.000000 0.000000 0.000000 0.004953
#
#
# Mechanical properties :
#
#
# Convention : Reuss Voigt Hill
#
# Bulk Modulus (GPa) = 35.30602 55.84193 45.57398
# Shear Modulus (GPa) = 42.08449 39.91365 40.99907
#
# Velocity S-wave (km/s) = 4.71358 4.59040 4.65240
# Velocity P-wave (km/s) = 6.94716 7.58792 7.27460
#
# Compressibility (1/GPa) = 0.02832378
#
# Stress axis : x y z
#
# Youngs Moduli (GPa) = 107.14981 93.80241 34.65868
#
# Poissons Ratio (x) = 0.32869 0.24526
# Poissons Ratio (y) = 0.37546 -0.01106
# Poissons Ratio (z) = 0.75823 -0.02994
#
# Static dielectric constant tensor:
#      x y z
#    x 1.716280 0.000000 0.000000 
#    y 0.000000 1.697810 0.000000 
#    z 0.000000 0.000000 1.627190 
# 
# From -- ./inp_files/27785.got.cif
#   From: 2010.05.17/outbox.cif.g08.bks.cpg/sg69_14_cif.got.tgz:27785.got - 2010.06.03 19:29:58.
