data_PCOD9513501
_publ_section_title
;
Structure prediction by ZEFSAII (Michael W. Deem and Ramdas Pophale) SiO2 
 PCOD9513501
Probable space group: F M M M
;
_chemical_formula_sum "Si O2"
_cell_formula_units_Z 192
_cell_length_a 15.644283
_cell_length_b 23.594959
_cell_length_c 27.684344
_cell_angle_alpha 90.000000
_cell_angle_beta 90.000000
_cell_angle_gamma 90.000000
_cell_volume 10219.017142
_symmetry_space_group_name_H-M "F M M M"
_symmetry_group_IT_number 69
_symmetry_cell_setting 'orthorhombic'
loop_
_space_group_symop_operation_xyz
x,y,z
-x,-y,z
x,-y,-z
-x,y,-z
-x,-y,-z
x,y,-z
-x,y,z
x,-y,z
x,1/2+y,1/2+z
-x,1/2-y,1/2+z
x,1/2-y,1/2-z
-x,1/2+y,1/2-z
-x,1/2-y,1/2-z
x,1/2+y,1/2-z
-x,1/2+y,1/2+z
x,1/2-y,1/2+z
1/2+x,y,1/2+z
1/2-x,-y,1/2+z
1/2+x,-y,1/2-z
1/2-x,y,1/2-z
1/2-x,-y,1/2-z
1/2+x,y,1/2-z
1/2-x,y,1/2+z
1/2+x,-y,1/2+z
1/2+x,1/2+y,z
1/2-x,1/2-y,z
1/2+x,1/2-y,-z
1/2-x,1/2+y,-z
1/2-x,1/2-y,-z
1/2+x,1/2+y,-z
1/2-x,1/2+y,z
1/2+x,1/2-y,z
loop_
_atom_site_type_symbol
_atom_site_label
_atom_site_fract_x
_atom_site_fract_y
_atom_site_fract_z
Si Si1 0.097131 0.357362 0.136086
Si Si2 0.754457 0.565938 0.606331
Si Si3 0.904404 0.134537 0.159207
Si Si4 0.171188 0.064362 0.000000
Si Si5 0.352476 0.815579 0.757236
Si Si6 0.150949 0.259048 0.400625
Si Si7 0.900328 0.186249 0.000000
O O1 0.167321 0.402276 0.119317
O O2 0.121406 0.336347 0.189911
O O3 0.106545 0.301551 0.102851
O O4 0.000000 0.378179 0.135027
O O5 0.750174 0.500000 0.619144
O O6 0.831898 0.595720 0.635303
O O7 0.774517 0.570168 0.549168
O O8 0.891692 0.144458 0.216014
O O9 0.891299 0.196624 0.135888
O O10 0.000000 0.114013 0.148257
O O11 0.108518 0.118137 0.000000
O O12 0.134306 0.000000 0.000000
O O13 0.379392 0.750000 0.750000
O O14 0.250000 0.817397 0.750000
O O15 0.250000 0.250000 0.387067
O O16 0.143425 0.287584 0.452819
O O17 0.000000 0.201357 0.000000
#
# Coordination Sequence:
#
# PCOD9513501 Si02
#       7
#    32  32  32  16  32  32  16
#     4  12  24  41  65  96 130 170 215 262 318 378
#     4  11  25  46  67  91 125 169 219 267 317 376
#     4  12  23  39  64  96 129 163 209 265 321 377
#     4  10  22  42  67  89 122 173 218 260 312 374
#     4  11  21  37  63  96 131 169 211 255 312 385
#     4  12  22  39  60  90 132 172 205 257 326 386
#     4  12  23  36  58  96 132 165 212 265 321 387
#
# _framework density 18.788499999999999
#
# number of rings (size 3 to 8) (size 9 to 14) (size 15 to 20)
#    0.000    0.500    6.667    2.250    0.000    2.167 
#    0.000    4.583    0.000    3.500    0.000    0.000 
#    0.000    0.000    0.000    0.000    0.000    0.000 
#
# Total GULP energy -268399.287387 kJ/mol
# GULP energy per Si atom -5591.651821 kJ/mol
# Density = 1.874574 g / cm^3
# Si number density = 18.788500 Si / 1000 Ang^3
#
#
#
# Elastic Constant Matrix: (Units=GPa)
#
#
# Indices 1 2 3 4 5 6 
#
# 1 129.7097 53.7570 12.3287 0.0000 0.0000 0.0000
# 2 53.7570 121.2206 35.3986 0.0000 0.0000 0.0000
# 3 12.3287 35.3986 85.2207 0.0000 0.0000 0.0000
# 4 0.0000 0.0000 0.0000 23.8926 0.0000 0.0000
# 5 0.0000 0.0000 0.0000 0.0000 -1.1769 0.0000
# 6 0.0000 0.0000 0.0000 0.0000 0.0000 6.2854
#
#
#
# Elastic Compliance Matrix: (Units=1/GPa)
#
#
# Indices 1 2 3 4 5 6 
#
# 1 0.009459 -0.004319 0.000426 0.000000 0.000000 0.000000
# 2 -0.004319 0.011360 -0.004094 0.000000 0.000000 0.000000
# 3 0.000426 -0.004094 0.013373 0.000000 0.000000 0.000000
# 4 0.000000 0.000000 0.000000 0.041854 0.000000 0.000000
# 5 0.000000 0.000000 0.000000 0.000000 -0.849666 0.000000
# 6 0.000000 0.000000 0.000000 0.000000 0.000000 0.159099
#
#
# Mechanical properties :
#
#
# Convention : Reuss Voigt Hill
#
# Bulk Modulus (GPa) = 54.89153 59.90217 57.39685
# Shear Modulus (GPa) = -8.43920 21.44466 6.50273
#
# Velocity S-wave (km/s) = -2.12166 3.38208 1.86240
# Velocity P-wave (km/s) = 4.82462 6.87044 5.93632
#
# Compressibility (1/GPa) = 0.01821775
#
# Stress axis : x y z
#
# Youngs Moduli (GPa) = 105.71884 88.02612 74.77644
#
# Poissons Ratio (x) = 0.38019 -0.03183
# Poissons Ratio (y) = 0.45660 0.30613
# Poissons Ratio (z) = -0.04499 0.36038
#
# Static dielectric constant tensor:
#      x y z
#    x 1.649410 0.000000 0.000000 
#    y 0.000000 1.625360 0.000000 
#    z 0.000000 0.000000 1.601620 
# 
# From -- ./inp_files/38389.got.cif
#   From: 2010.05.17/outbox.cif.g08.bks.cpg/sg69_20_cif.got.tgz:38389.got - 2010.06.03 19:29:58.
