data_PCOD9513775
_publ_section_title
;
Structure prediction by ZEFSAII (Michael W. Deem and Ramdas Pophale) SiO2 
 PCOD9513775
Probable space group: F M M M
;
_chemical_formula_sum "Si O2"
_cell_formula_units_Z 160
_cell_length_a 17.882149
_cell_length_b 25.229273
_cell_length_c 19.401859
_cell_angle_alpha 90.000000
_cell_angle_beta 90.000000
_cell_angle_gamma 90.000000
_cell_volume 8753.218902
_symmetry_space_group_name_H-M "F M M M"
_symmetry_group_IT_number 69
_symmetry_cell_setting 'orthorhombic'
loop_
_space_group_symop_operation_xyz
x,y,z
-x,-y,z
x,-y,-z
-x,y,-z
-x,-y,-z
x,y,-z
-x,y,z
x,-y,z
x,1/2+y,1/2+z
-x,1/2-y,1/2+z
x,1/2-y,1/2-z
-x,1/2+y,1/2-z
-x,1/2-y,1/2-z
x,1/2+y,1/2-z
-x,1/2+y,1/2+z
x,1/2-y,1/2+z
1/2+x,y,1/2+z
1/2-x,-y,1/2+z
1/2+x,-y,1/2-z
1/2-x,y,1/2-z
1/2-x,-y,1/2-z
1/2+x,y,1/2-z
1/2-x,y,1/2+z
1/2+x,-y,1/2+z
1/2+x,1/2+y,z
1/2-x,1/2-y,z
1/2+x,1/2-y,-z
1/2-x,1/2+y,-z
1/2-x,1/2-y,-z
1/2+x,1/2+y,-z
1/2-x,1/2+y,z
1/2+x,1/2-y,z
loop_
_atom_site_type_symbol
_atom_site_label
_atom_site_fract_x
_atom_site_fract_y
_atom_site_fract_z
Si Si1 0.585624 0.808067 0.156520
Si Si2 0.914318 0.000000 0.394978
Si Si3 0.914539 0.186608 0.176652
Si Si4 0.195937 0.094946 0.816647
Si Si5 0.088305 0.000000 0.771195
Si Si6 0.820987 0.102722 0.578273
O O1 0.500000 0.819819 0.134570
O O2 0.587606 0.813776 0.239550
O O3 0.599860 0.745374 0.147328
O O4 0.641868 0.847920 0.119274
O O5 0.877443 0.053615 0.421204
O O6 0.908193 0.000000 0.311668
O O7 0.000000 0.000000 0.413900
O O8 0.849835 0.146147 0.158786
O O9 0.000000 0.171631 0.157572
O O10 0.250000 0.103703 0.750000
O O11 0.250499 0.081176 0.879000
O O12 0.134571 0.050857 0.797318
O O13 0.000000 0.000000 0.790541
O O14 0.803271 0.117899 0.500000
#
# Coordination Sequence:
#
# PCOD9513775 Si02
#       6
#    32  16  32  32  16  32
#     4   9  18  35  57  84 115 151 195 242 289 345
#     4  11  22  38  60  88 119 158 197 235 296 370
#     4   9  18  35  60  85 110 146 201 251 286 337
#     4  12  21  37  60  87 119 157 195 243 300 350
#     4  11  22  38  65  93 119 149 201 260 295 338
#     4  12  25  38  55  87 127 162 194 241 301 364
#
# _framework density 18.27899
#
# number of rings (size 3 to 8) (size 9 to 14) (size 15 to 20)
#    0.000    1.400    4.000    3.600    0.000    6.000 
#    0.000    2.000    0.000    4.200    0.000    0.000 
#    0.000    0.000    0.000    0.000    0.000    0.000 
#
# Total GULP energy -223202.457318 kJ/mol
# GULP energy per Si atom -5580.061433 kJ/mol
# Density = 1.823739 g / cm^3
# Si number density = 18.278990 Si / 1000 Ang^3
#
#
#
# Elastic Constant Matrix: (Units=GPa)
#
#
# Indices 1 2 3 4 5 6 
#
# 1 111.3754 45.5033 32.9261 0.0000 0.0000 0.0000
# 2 45.5033 62.7357 17.0677 0.0000 0.0000 0.0000
# 3 32.9261 17.0677 74.0483 0.0000 0.0000 0.0000
# 4 0.0000 0.0000 0.0000 -11.0406 0.0000 0.0000
# 5 0.0000 0.0000 0.0000 0.0000 7.0047 0.0000
# 6 0.0000 0.0000 0.0000 0.0000 0.0000 101.7263
#
#
#
# Elastic Compliance Matrix: (Units=1/GPa)
#
#
# Indices 1 2 3 4 5 6 
#
# 1 0.013833 -0.008920 -0.004095 0.000000 0.000000 0.000000
# 2 -0.008920 0.022757 -0.001279 0.000000 0.000000 0.000000
# 3 -0.004095 -0.001279 0.015621 0.000000 0.000000 0.000000
# 4 0.000000 0.000000 0.000000 -0.090575 0.000000 0.000000
# 5 0.000000 0.000000 0.000000 0.000000 0.142761 0.000000
# 6 0.000000 0.000000 0.000000 0.000000 0.000000 0.009830
#
#
# Mechanical properties :
#
#
# Convention : Reuss Voigt Hill
#
# Bulk Modulus (GPa) = 42.33118 48.79487 45.56302
# Shear Modulus (GPa) = 33.18059 29.71557 31.44808
#
# Velocity S-wave (km/s) = 4.26517 4.03633 4.15233
# Velocity P-wave (km/s) = 6.88943 6.96241 6.92601
#
# Compressibility (1/GPa) = 0.02362325
#
# Stress axis : x y z
#
# Youngs Moduli (GPa) = 72.28841 43.94174 64.01820
#
# Poissons Ratio (x) = 0.39194 0.26217
# Poissons Ratio (y) = 0.64478 0.08190
# Poissons Ratio (z) = 0.29604 0.05622
#
# Static dielectric constant tensor:
#      x y z
#    x 1.635530 0.000000 0.000000 
#    y 0.000000 1.651480 0.000000 
#    z 0.000000 0.000000 1.614520 
# 
# From -- ./inp_files/23212.got.cif
#   From: 2010.05.17/outbox.cif.g08.bks.cpg/sg69_12_cif.got.tgz:23212.got - 2010.06.03 19:29:58.
