data_PCOD9513149
_publ_section_title
;
Structure prediction by ZEFSAII (Michael W. Deem and Ramdas Pophale) SiO2 
 PCOD9513149
Probable space group: F M M M
;
_chemical_formula_sum "Si O2"
_cell_formula_units_Z 176
_cell_length_a 21.441377
_cell_length_b 19.355314
_cell_length_c 17.450326
_cell_angle_alpha 90.000000
_cell_angle_beta 90.000000
_cell_angle_gamma 90.000000
_cell_volume 7241.965290
_symmetry_space_group_name_H-M "F M M M"
_symmetry_group_IT_number 69
_symmetry_cell_setting 'orthorhombic'
loop_
_space_group_symop_operation_xyz
x,y,z
-x,-y,z
x,-y,-z
-x,y,-z
-x,-y,-z
x,y,-z
-x,y,z
x,-y,z
x,1/2+y,1/2+z
-x,1/2-y,1/2+z
x,1/2-y,1/2-z
-x,1/2+y,1/2-z
-x,1/2-y,1/2-z
x,1/2+y,1/2-z
-x,1/2+y,1/2+z
x,1/2-y,1/2+z
1/2+x,y,1/2+z
1/2-x,-y,1/2+z
1/2+x,-y,1/2-z
1/2-x,y,1/2-z
1/2-x,-y,1/2-z
1/2+x,y,1/2-z
1/2-x,y,1/2+z
1/2+x,-y,1/2+z
1/2+x,1/2+y,z
1/2-x,1/2-y,z
1/2+x,1/2-y,-z
1/2-x,1/2+y,-z
1/2-x,1/2-y,-z
1/2+x,1/2+y,-z
1/2-x,1/2+y,z
1/2+x,1/2-y,z
loop_
_atom_site_type_symbol
_atom_site_label
_atom_site_fract_x
_atom_site_fract_y
_atom_site_fract_z
Si Si1 0.401276 0.000000 0.088355
Si Si2 0.368240 0.284117 0.172563
Si Si3 0.250305 0.000000 0.411757
Si Si4 0.110846 0.152923 0.592689
Si Si5 0.075207 0.422506 0.669465
Si Si6 0.249205 0.643047 0.342264
Si Si7 0.431440 0.082488 0.500000
O O1 0.417591 0.077576 0.119194
O O2 0.325586 0.000000 0.088078
O O3 0.422673 0.000000 0.000000
O O4 0.345066 0.250000 0.250000
O O5 0.409498 0.227657 0.126836
O O6 0.401626 0.352672 0.206806
O O7 0.304821 0.305649 0.129740
O O8 0.271606 0.932940 0.367592
O O9 0.271222 0.000000 0.500000
O O10 0.106499 0.153581 0.500000
O O11 0.183327 0.151915 0.619396
O O12 0.095721 0.500000 0.692814
O O13 0.096507 0.404808 0.582160
O O14 0.000000 0.424757 0.669399
O O15 0.250000 0.643778 0.250000
O O16 0.500000 0.115909 0.500000
O O17 0.438931 0.000000 0.500000
#
# Coordination Sequence:
#
# PCOD9513149 Si02
#       7
#    16  32  16  32  32  32  16
#     4   7  14  33  55  75 102 143 199 243 280 324
#     4  12  25  37  55  90 121 151 200 241 293 361
#     4   9  19  35  55  83 108 149 211 245 275 340
#     4  10  21  38  60  83 115 163 209 249 287 338
#     4   9  20  41  64  85 115 151 189 241 304 361
#     4  11  21  37  56  77 125 163 193 240 298 344
#     4   7  12  30  60  86 107 137 175 225 290 348
#
# _framework density 24.302795
#
# number of rings (size 3 to 8) (size 9 to 14) (size 15 to 20)
#    0.000    2.273    1.818    3.545    2.545    2.545 
#    1.636    0.000    0.000    0.000    0.000    0.000 
#    0.000    2.182    0.000    0.000    0.000    0.000 
#
# Total GULP energy -245227.232254 kJ/mol
# GULP energy per Si atom -5573.346188 kJ/mol
# Density = 2.424748 g / cm^3
# Si number density = 24.302795 Si / 1000 Ang^3
#
#
#
# Elastic Constant Matrix: (Units=GPa)
#
#
# Indices 1 2 3 4 5 6 
#
# 1 52.8373 24.6303 -5.8260 0.0000 0.0000 0.0000
# 2 24.6303 212.9007 30.4414 0.0000 0.0000 0.0000
# 3 -5.8260 30.4414 45.2909 0.0000 0.0000 0.0000
# 4 0.0000 0.0000 0.0000 39.7288 0.0000 0.0000
# 5 0.0000 0.0000 0.0000 0.0000 9.8968 0.0000
# 6 0.0000 0.0000 0.0000 0.0000 0.0000 17.2005
#
#
#
# Elastic Compliance Matrix: (Units=1/GPa)
#
#
# Indices 1 2 3 4 5 6 
#
# 1 0.020897 -0.003100 0.004772 0.000000 0.000000 0.000000
# 2 -0.003100 0.005656 -0.004200 0.000000 0.000000 0.000000
# 3 0.004772 -0.004200 0.025517 0.000000 0.000000 0.000000
# 4 0.000000 0.000000 0.000000 0.025171 0.000000 0.000000
# 5 0.000000 0.000000 0.000000 0.000000 0.101042 0.000000
# 6 0.000000 0.000000 0.000000 0.000000 0.000000 0.058138
#
#
# Mechanical properties :
#
#
# Convention : Reuss Voigt Hill
#
# Bulk Modulus (GPa) = 21.27091 45.50226 33.38658
# Shear Modulus (GPa) = 19.44397 30.81744 25.13070
#
# Velocity S-wave (km/s) = 2.83162 3.56485 3.21918
# Velocity P-wave (km/s) = 4.41160 5.97561 5.25215
#
# Compressibility (1/GPa) = 0.04701256
#
# Stress axis : x y z
#
# Youngs Moduli (GPa) = 47.85336 176.79571 39.19021
#
# Poissons Ratio (x) = 0.54804 -0.18700
# Poissons Ratio (y) = 0.14834 0.16462
# Poissons Ratio (z) = -0.22834 0.74263
#
# Static dielectric constant tensor:
#      x y z
#    x 1.973800 0.000000 0.000000 
#    y 0.000000 2.182780 0.000000 
#    z 0.000000 0.000000 1.643920 
# 
# From -- ./inp_files/27732.got.cif
#   From: 2010.05.17/outbox.cif.g08.bks.cpg/sg69_14_cif.got.tgz:27732.got - 2010.06.03 19:29:58.
