data_PCOD9513736
_publ_section_title
;
Structure prediction by ZEFSAII (Michael W. Deem and Ramdas Pophale) SiO2 
 PCOD9513736
Probable space group: F M M M
;
_chemical_formula_sum "Si O2"
_cell_formula_units_Z 160
_cell_length_a 18.083002
_cell_length_b 23.403075
_cell_length_c 20.207031
_cell_angle_alpha 90.000000
_cell_angle_beta 90.000000
_cell_angle_gamma 90.000000
_cell_volume 8551.572115
_symmetry_space_group_name_H-M "F M M M"
_symmetry_group_IT_number 69
_symmetry_cell_setting 'orthorhombic'
loop_
_space_group_symop_operation_xyz
x,y,z
-x,-y,z
x,-y,-z
-x,y,-z
-x,-y,-z
x,y,-z
-x,y,z
x,-y,z
x,1/2+y,1/2+z
-x,1/2-y,1/2+z
x,1/2-y,1/2-z
-x,1/2+y,1/2-z
-x,1/2-y,1/2-z
x,1/2+y,1/2-z
-x,1/2+y,1/2+z
x,1/2-y,1/2+z
1/2+x,y,1/2+z
1/2-x,-y,1/2+z
1/2+x,-y,1/2-z
1/2-x,y,1/2-z
1/2-x,-y,1/2-z
1/2+x,y,1/2-z
1/2-x,y,1/2+z
1/2+x,-y,1/2+z
1/2+x,1/2+y,z
1/2-x,1/2-y,z
1/2+x,1/2-y,-z
1/2-x,1/2+y,-z
1/2-x,1/2-y,-z
1/2+x,1/2+y,-z
1/2-x,1/2+y,z
1/2+x,1/2-y,z
loop_
_atom_site_type_symbol
_atom_site_label
_atom_site_fract_x
_atom_site_fract_y
_atom_site_fract_z
Si Si1 0.677952 0.791851 0.000000
Si Si2 0.686238 0.872987 0.128060
Si Si3 0.861690 0.377984 0.364438
Si Si4 0.324365 0.000000 0.838018
Si Si5 0.647701 0.000000 0.313913
Si Si6 0.914647 0.814946 0.738271
Si Si7 0.412261 0.679010 0.000000
O O1 0.750000 0.750000 0.000000
O O2 0.676896 0.833614 0.936633
O O3 0.612527 0.745295 0.000000
O O4 0.773316 0.871506 0.145991
O O5 0.662954 0.940110 0.123844
O O6 0.637932 0.845993 0.186400
O O7 0.880370 0.443856 0.350769
O O8 0.905770 0.344122 0.308976
O O9 0.880538 0.352956 0.435712
O O10 0.364530 0.000000 0.765792
O O11 0.236684 0.000000 0.822375
O O12 0.891457 0.750000 0.750000
O O13 0.000000 0.816210 0.715963
O O14 0.500000 0.675140 0.000000
#
# Coordination Sequence:
#
# PCOD9513736 Si02
#       7
#    16  32  32  16  16  32  16
#     4  12  24  43  63  97 125 165 219 259 309 387
#     4  11  22  39  67  91 126 164 218 269 315 380
#     4  11  21  40  64  91 126 169 213 260 314 386
#     4   9  18  37  61  97 125 160 209 269 324 358
#     4   9  18  35  62  93 126 161 209 262 309 366
#     4  11  24  38  57  90 127 166 216 268 327 381
#     4  12  26  43  64  93 136 170 202 261 328 385
#
# _framework density 18.71001
#
# number of rings (size 3 to 8) (size 9 to 14) (size 15 to 20)
#    0.000    1.200    4.000    2.400    0.000    4.000 
#    0.000    7.000    0.000    0.000    0.000    2.100 
#    0.000    0.000    0.000    0.000    0.000    0.000 
#
# Total GULP energy -223321.580582 kJ/mol
# GULP energy per Si atom -5583.039515 kJ/mol
# Density = 1.866743 g / cm^3
# Si number density = 18.710010 Si / 1000 Ang^3
#
#
#
# Elastic Constant Matrix: (Units=GPa)
#
#
# Indices 1 2 3 4 5 6 
#
# 1 47.9505 30.0575 8.9704 0.0000 0.0000 0.0000
# 2 30.0575 193.0091 67.6193 0.0000 0.0000 0.0000
# 3 8.9704 67.6193 110.3620 0.0000 0.0000 0.0000
# 4 0.0000 0.0000 0.0000 28.1644 0.0000 0.0000
# 5 0.0000 0.0000 0.0000 0.0000 0.4000 0.0000
# 6 0.0000 0.0000 0.0000 0.0000 0.0000 15.6040
#
#
#
# Elastic Compliance Matrix: (Units=1/GPa)
#
#
# Indices 1 2 3 4 5 6 
#
# 1 0.023126 -0.003747 0.000416 0.000000 0.000000 0.000000
# 2 -0.003747 0.007204 -0.004110 0.000000 0.000000 0.000000
# 3 0.000416 -0.004110 0.011545 0.000000 0.000000 0.000000
# 4 0.000000 0.000000 0.000000 0.035506 0.000000 0.000000
# 5 0.000000 0.000000 0.000000 0.000000 2.499826 0.000000
# 6 0.000000 0.000000 0.000000 0.000000 0.000000 0.064086
#
#
# Mechanical properties :
#
#
# Convention : Reuss Voigt Hill
#
# Bulk Modulus (GPa) = 37.04482 62.73513 49.88998
# Shear Modulus (GPa) = 1.87605 25.14530 13.51068
#
# Velocity S-wave (km/s) = 1.00243 3.66997 2.69012
# Velocity P-wave (km/s) = 4.60242 7.18062 6.03090
#
# Compressibility (1/GPa) = 0.02699433
#
# Stress axis : x y z
#
# Youngs Moduli (GPa) = 43.24157 138.80335 86.61587
#
# Poissons Ratio (x) = 0.52013 -0.03605
# Poissons Ratio (y) = 0.16204 0.35596
# Poissons Ratio (z) = -0.01800 0.57043
#
# Static dielectric constant tensor:
#      x y z
#    x 1.640720 0.000000 0.000000 
#    y 0.000000 1.544150 0.000000 
#    z 0.000000 0.000000 1.619720 
# 
# From -- ./inp_files/24691.got.cif
#   From: 2010.05.17/outbox.cif.g08.bks.cpg/sg69_13_cif.got.tgz:24691.got - 2010.06.03 19:29:58.
