data_PCOD9513068
_publ_section_title
;
Structure prediction by ZEFSAII (Michael W. Deem and Ramdas Pophale) SiO2 
 PCOD9513068
Probable space group: F M M M
;
_chemical_formula_sum "Si O2"
_cell_formula_units_Z 160
_cell_length_a 19.605919
_cell_length_b 24.391936
_cell_length_c 15.630503
_cell_angle_alpha 90.000000
_cell_angle_beta 90.000000
_cell_angle_gamma 90.000000
_cell_volume 7474.917952
_symmetry_space_group_name_H-M "F M M M"
_symmetry_group_IT_number 69
_symmetry_cell_setting 'orthorhombic'
loop_
_space_group_symop_operation_xyz
x,y,z
-x,-y,z
x,-y,-z
-x,y,-z
-x,-y,-z
x,y,-z
-x,y,z
x,-y,z
x,1/2+y,1/2+z
-x,1/2-y,1/2+z
x,1/2-y,1/2-z
-x,1/2+y,1/2-z
-x,1/2-y,1/2-z
x,1/2+y,1/2-z
-x,1/2+y,1/2+z
x,1/2-y,1/2+z
1/2+x,y,1/2+z
1/2-x,-y,1/2+z
1/2+x,-y,1/2-z
1/2-x,y,1/2-z
1/2-x,-y,1/2-z
1/2+x,y,1/2-z
1/2-x,y,1/2+z
1/2+x,-y,1/2+z
1/2+x,1/2+y,z
1/2-x,1/2-y,z
1/2+x,1/2-y,-z
1/2-x,1/2+y,-z
1/2-x,1/2-y,-z
1/2+x,1/2+y,-z
1/2-x,1/2+y,z
1/2+x,1/2-y,z
loop_
_atom_site_type_symbol
_atom_site_label
_atom_site_fract_x
_atom_site_fract_y
_atom_site_fract_z
Si Si1 0.175401 0.762017 0.851366
Si Si2 0.576618 0.835754 0.102030
Si Si3 0.202765 0.115190 0.165621
Si Si4 0.423892 0.934650 0.598115
Si Si5 0.834990 0.561890 0.100045
O O1 0.177045 0.750000 0.750000
O O2 0.250000 0.750000 0.888697
O O3 0.119223 0.719873 0.884299
O O4 0.171377 0.826833 0.863302
O O5 0.500000 0.832033 0.137407
O O6 0.616896 0.889403 0.135770
O O7 0.572058 0.842461 0.000000
O O8 0.250000 0.123912 0.250000
O O9 0.135164 0.078972 0.165209
O O10 0.258005 0.084709 0.106537
O O11 0.406823 0.916148 0.500000
O O12 0.500000 0.913384 0.619254
O O13 0.428034 0.000000 0.594289
O O14 0.839959 0.500000 0.137131
O O15 0.852079 0.557177 0.000000
#
# Coordination Sequence:
#
# PCOD9513068 Si02
#       5
#    32  32  32  32  32
#     4  11  21  41  60  80 113 155 196 238 292 357
#     4  10  22  39  60  89 119 149 194 248 297 352
#     4  12  22  36  61  89 121 156 202 255 303 359
#     4   9  20  40  63  89 125 165 203 249 307 366
#     4  10  21  37  58  85 117 158 201 240 294 361
#
# _framework density 21.404919
#
# number of rings (size 3 to 8) (size 9 to 14) (size 15 to 20)
#    0.000    1.600    4.000    1.800    0.000    6.800 
#    0.000    7.000    0.000    0.000    0.000    0.000 
#    0.000    0.000    0.000    0.000    0.000    0.000 
#
# Total GULP energy -222881.427521 kJ/mol
# GULP energy per Si atom -5572.035688 kJ/mol
# Density = 2.135620 g / cm^3
# Si number density = 21.404919 Si / 1000 Ang^3
#
#
#
# Elastic Constant Matrix: (Units=GPa)
#
#
# Indices 1 2 3 4 5 6 
#
# 1 183.1915 80.9396 23.7698 0.0000 0.0000 0.0000
# 2 80.9396 149.2065 19.6871 0.0000 0.0000 0.0000
# 3 23.7698 19.6871 36.5670 0.0000 0.0000 0.0000
# 4 0.0000 0.0000 0.0000 23.9014 0.0000 0.0000
# 5 0.0000 0.0000 0.0000 0.0000 9.9379 0.0000
# 6 0.0000 0.0000 0.0000 0.0000 0.0000 31.9025
#
#
#
# Elastic Compliance Matrix: (Units=1/GPa)
#
#
# Indices 1 2 3 4 5 6 
#
# 1 0.007449 -0.003662 -0.002871 0.000000 0.000000 0.000000
# 2 -0.003662 0.009015 -0.002473 0.000000 0.000000 0.000000
# 3 -0.002871 -0.002473 0.030544 0.000000 0.000000 0.000000
# 4 0.000000 0.000000 0.000000 0.041839 0.000000 0.000000
# 5 0.000000 0.000000 0.000000 0.000000 0.100625 0.000000
# 6 0.000000 0.000000 0.000000 0.000000 0.000000 0.031346
#
#
# Mechanical properties :
#
#
# Convention : Reuss Voigt Hill
#
# Bulk Modulus (GPa) = 34.48615 68.63978 51.56296
# Shear Modulus (GPa) = 20.12112 29.45292 24.78702
#
# Velocity S-wave (km/s) = 3.06931 3.71346 3.40664
# Velocity P-wave (km/s) = 5.35791 7.10797 6.29406
#
# Compressibility (1/GPa) = 0.02899715
#
# Stress axis : x y z
#
# Youngs Moduli (GPa) = 134.24007 110.92535 32.73914
#
# Poissons Ratio (x) = 0.40624 0.09398
# Poissons Ratio (y) = 0.49162 0.08096
# Poissons Ratio (z) = 0.38535 0.27432
#
# Static dielectric constant tensor:
#      x y z
#    x 1.782850 0.000000 0.000000 
#    y 0.000000 1.940270 0.000000 
#    z 0.000000 0.000000 1.909280 
# 
# From -- ./inp_files/24589.got.cif
#   From: 2010.05.17/outbox.cif.g08.bks.cpg/sg69_13_cif.got.tgz:24589.got - 2010.06.03 19:29:58.
