data_PCOD9513629
_publ_section_title
;
Structure prediction by ZEFSAII (Michael W. Deem and Ramdas Pophale) SiO2 
 PCOD9513629
Probable space group: F M M M
;
_chemical_formula_sum "Si O2"
_cell_formula_units_Z 128
_cell_length_a 10.428448
_cell_length_b 33.342855
_cell_length_c 26.450925
_cell_angle_alpha 90.000000
_cell_angle_beta 90.000000
_cell_angle_gamma 90.000000
_cell_volume 9197.363007
_symmetry_space_group_name_H-M "F M M M"
_symmetry_group_IT_number 69
_symmetry_cell_setting 'orthorhombic'
loop_
_space_group_symop_operation_xyz
x,y,z
-x,-y,z
x,-y,-z
-x,y,-z
-x,-y,-z
x,y,-z
-x,y,z
x,-y,z
x,1/2+y,1/2+z
-x,1/2-y,1/2+z
x,1/2-y,1/2-z
-x,1/2+y,1/2-z
-x,1/2-y,1/2-z
x,1/2+y,1/2-z
-x,1/2+y,1/2+z
x,1/2-y,1/2+z
1/2+x,y,1/2+z
1/2-x,-y,1/2+z
1/2+x,-y,1/2-z
1/2-x,y,1/2-z
1/2-x,-y,1/2-z
1/2+x,y,1/2-z
1/2-x,y,1/2+z
1/2+x,-y,1/2+z
1/2+x,1/2+y,z
1/2-x,1/2-y,z
1/2+x,1/2-y,-z
1/2-x,1/2+y,-z
1/2-x,1/2-y,-z
1/2+x,1/2+y,-z
1/2-x,1/2+y,z
1/2+x,1/2-y,z
loop_
_atom_site_type_symbol
_atom_site_label
_atom_site_fract_x
_atom_site_fract_y
_atom_site_fract_z
Si Si1 0.151828 0.135701 0.556088
Si Si2 0.500000 0.451548 0.302022
Si Si3 0.149624 0.785713 0.500000
Si Si4 0.737886 0.427445 0.630048
Si Si5 0.845206 0.500000 0.940689
Si Si6 0.500000 0.451826 0.182348
O O1 0.184762 0.118512 0.500000
O O2 0.168523 0.183360 0.547100
O O3 0.226236 0.114596 0.600828
O O4 0.000000 0.128108 0.563575
O O5 0.500000 0.500000 0.309289
O O6 0.374763 0.433673 0.329016
O O7 0.500000 0.443738 0.242304
O O8 0.250000 0.750000 0.500000
O O9 0.000000 0.773055 0.500000
O O10 0.710192 0.461303 0.587741
O O11 0.873133 0.434677 0.656314
O O12 0.000000 0.500000 0.935341
O O13 0.815305 0.500000 0.000000
O O14 0.500000 0.500000 0.176030
#
# Coordination Sequence:
#
# PCOD9513629 Si02
#       6
#    32  16  16  32  16  16
#     4   8  16  30  51  73  96 128 158 196 222 282
#     4  11  20  34  52  66  82 131 183 211 245 282
#     4   8  16  32  52  77 104 127 151 186 229 284
#     4  12  18  34  48  68  93 128 165 206 252 276
#     4  11  20  29  48  70  85 124 175 203 220 290
#     4  11  24  34  44  64 100 127 169 221 255 290
#
# _framework density 13.917032000000001
#
# number of rings (size 3 to 8) (size 9 to 14) (size 15 to 20)
#    0.750    1.125    5.000    1.500    0.000    4.000 
#    2.250    3.125    0.000    0.000    0.000    0.000 
#    0.000    6.000    0.000    0.000    0.000    0.000 
#
# Total GULP energy -178211.536120 kJ/mol
# GULP energy per Si atom -5569.110504 kJ/mol
# Density = 1.388536 g / cm^3
# Si number density = 13.917032 Si / 1000 Ang^3
#
#
#
# Elastic Constant Matrix: (Units=GPa)
#
#
# Indices 1 2 3 4 5 6 
#
# 1 124.2090 49.8165 71.1290 0.0000 0.0000 0.0000
# 2 49.8165 68.9496 44.1717 0.0000 0.0000 0.0000
# 3 71.1290 44.1717 108.4955 0.0000 0.0000 0.0000
# 4 0.0000 0.0000 0.0000 9.1586 0.0000 0.0000
# 5 0.0000 0.0000 0.0000 0.0000 7.7075 0.0000
# 6 0.0000 0.0000 0.0000 0.0000 0.0000 23.4488
#
#
#
# Elastic Compliance Matrix: (Units=1/GPa)
#
#
# Indices 1 2 3 4 5 6 
#
# 1 0.014484 -0.005928 -0.007082 0.000000 0.000000 0.000000
# 2 -0.005928 0.022047 -0.005090 0.000000 0.000000 0.000000
# 3 -0.007082 -0.005090 0.015932 0.000000 0.000000 0.000000
# 4 0.000000 0.000000 0.000000 0.109187 0.000000 0.000000
# 5 0.000000 0.000000 0.000000 0.000000 0.129743 0.000000
# 6 0.000000 0.000000 0.000000 0.000000 0.000000 0.042646
#
#
# Mechanical properties :
#
#
# Convention : Reuss Voigt Hill
#
# Bulk Modulus (GPa) = 61.48675 70.20984 65.84829
# Shear Modulus (GPa) = 13.30988 17.16543 15.23766
#
# Velocity S-wave (km/s) = 3.09588 3.51581 3.31251
# Velocity P-wave (km/s) = 7.55355 8.18777 7.87705
#
# Compressibility (1/GPa) = 0.01626367
#
# Stress axis : x y z
#
# Youngs Moduli (GPa) = 69.04117 45.35810 62.76539
#
# Poissons Ratio (x) = 0.26887 0.44453
# Poissons Ratio (y) = 0.40925 0.31946
# Poissons Ratio (z) = 0.48898 0.23086
#
# Static dielectric constant tensor:
#      x y z
#    x 1.451530 0.000000 0.000000 
#    y 0.000000 1.461810 0.000000 
#    z 0.000000 0.000000 1.454680 
# 
# From -- ./inp_files/44486.got.cif
#   From: 2010.05.17/outbox.cif.g08.bks.cpg/sg69_23_cif.got.tgz:44486.got - 2010.06.03 19:29:58.
