data_PCOD9513592
_publ_section_title
;
Structure prediction by ZEFSAII (Michael W. Deem and Ramdas Pophale) SiO2 
 PCOD9513592
Probable space group: F M M M
;
_chemical_formula_sum "Si O2"
_cell_formula_units_Z 104
_cell_length_a 16.232841
_cell_length_b 25.500016
_cell_length_c 10.827390
_cell_angle_alpha 90.000000
_cell_angle_beta 90.000000
_cell_angle_gamma 90.000000
_cell_volume 4481.864970
_symmetry_space_group_name_H-M "F M M M"
_symmetry_group_IT_number 69
_symmetry_cell_setting 'orthorhombic'
loop_
_space_group_symop_operation_xyz
x,y,z
-x,-y,z
x,-y,-z
-x,y,-z
-x,-y,-z
x,y,-z
-x,y,z
x,-y,z
x,1/2+y,1/2+z
-x,1/2-y,1/2+z
x,1/2-y,1/2-z
-x,1/2+y,1/2-z
-x,1/2-y,1/2-z
x,1/2+y,1/2-z
-x,1/2+y,1/2+z
x,1/2-y,1/2+z
1/2+x,y,1/2+z
1/2-x,-y,1/2+z
1/2+x,-y,1/2-z
1/2-x,y,1/2-z
1/2-x,-y,1/2-z
1/2+x,y,1/2-z
1/2-x,y,1/2+z
1/2+x,-y,1/2+z
1/2+x,1/2+y,z
1/2-x,1/2-y,z
1/2+x,1/2-y,-z
1/2-x,1/2+y,-z
1/2-x,1/2-y,-z
1/2+x,1/2+y,-z
1/2-x,1/2+y,z
1/2+x,1/2-y,z
loop_
_atom_site_type_symbol
_atom_site_label
_atom_site_fract_x
_atom_site_fract_y
_atom_site_fract_z
Si Si1 0.904129 0.000000 0.263363
Si Si2 0.904066 0.627228 0.500000
Si Si3 0.369904 0.000000 0.500000
Si Si4 0.315811 0.595995 0.363181
Si Si5 0.848390 0.308177 0.259185
O O1 0.881110 0.050443 0.341296
O O2 0.844628 0.000000 0.142886
O O3 0.000000 0.000000 0.222028
O O4 0.900632 0.562906 0.500000
O O5 0.868662 0.658050 0.618911
O O6 0.000000 0.638845 0.500000
O O7 0.277630 0.590802 0.500000
O O8 0.250000 0.592445 0.250000
O O9 0.363253 0.651100 0.351035
O O10 0.885639 0.250000 0.250000
O O11 0.750000 0.301102 0.250000
#
# Coordination Sequence:
#
# PCOD9513592 Si02
#       5
#    16  16   8  32  32
#     4  12  25  43  68  98 138 185 233 286 359 432
#     4  12  25  47  75 105 145 193 243 299 361 436
#     4  12  25  44  70 106 144 188 235 292 367 436
#     4  11  26  44  69 101 138 180 231 292 354 419
#     4  10  25  43  72 102 144 185 241 292 361 425
#
# _framework density 23.204625
#
# number of rings (size 3 to 8) (size 9 to 14) (size 15 to 20)
#    0.000    0.923    3.077    2.308   12.923    3.077 
#    0.000    0.769    0.000    0.000    0.000    0.000 
#    0.000    0.000    0.000    0.000    0.000    0.000 
#
# Total GULP energy -144759.671430 kJ/mol
# GULP energy per Si atom -5567.679670 kJ/mol
# Density = 2.315181 g / cm^3
# Si number density = 23.204625 Si / 1000 Ang^3
#
#
#
# Elastic Constant Matrix: (Units=GPa)
#
#
# Indices 1 2 3 4 5 6 
#
# 1 60.3994 47.2700 33.5968 0.0000 0.0000 0.0000
# 2 47.2700 231.3091 53.0121 0.0000 0.0000 0.0000
# 3 33.5968 53.0121 176.9145 0.0000 0.0000 0.0000
# 4 0.0000 0.0000 0.0000 58.7372 0.0000 0.0000
# 5 0.0000 0.0000 0.0000 0.0000 3.1460 0.0000
# 6 0.0000 0.0000 0.0000 0.0000 0.0000 24.5004
#
#
#
# Elastic Compliance Matrix: (Units=1/GPa)
#
#
# Indices 1 2 3 4 5 6 
#
# 1 0.021011 -0.003628 -0.002903 0.000000 0.000000 0.000000
# 2 -0.003628 0.005269 -0.000890 0.000000 0.000000 0.000000
# 3 -0.002903 -0.000890 0.006470 0.000000 0.000000 0.000000
# 4 0.000000 0.000000 0.000000 0.017025 0.000000 0.000000
# 5 0.000000 0.000000 0.000000 0.000000 0.317859 0.000000
# 6 0.000000 0.000000 0.000000 0.000000 0.000000 0.040816
#
#
# Mechanical properties :
#
#
# Convention : Reuss Voigt Hill
#
# Bulk Modulus (GPa) = 55.84131 81.82009 68.83070
# Shear Modulus (GPa) = 11.64793 39.59301 25.62047
#
# Velocity S-wave (km/s) = 2.24289 4.13517 3.32642
# Velocity P-wave (km/s) = 5.55197 7.62471 6.66936
#
# Compressibility (1/GPa) = 0.01790789
#
# Stress axis : x y z
#
# Youngs Moduli (GPa) = 47.59453 189.80281 154.55269
#
# Poissons Ratio (x) = 0.68869 0.44863
# Poissons Ratio (y) = 0.17270 0.13750
# Poissons Ratio (z) = 0.13816 0.16886
#
# Static dielectric constant tensor:
#      x y z
#    x 1.849760 0.000000 0.000000 
#    y 0.000000 1.957880 0.000000 
#    z 0.000000 0.000000 1.899490 
# 
# From -- ./inp_files/8248.got.cif
#   From: 2010.05.17/outbox.cif.g08.bks.cpg/sg69_5_cif.got.tgz:8248.got - 2010.06.03 19:29:58.
