data_PCOD9513703
_publ_section_title
;
Structure prediction by ZEFSAII (Michael W. Deem and Ramdas Pophale) SiO2 
 PCOD9513703
Probable space group: F M M M
;
_chemical_formula_sum "Si O2"
_cell_formula_units_Z 136
_cell_length_a 21.196558
_cell_length_b 20.995988
_cell_length_c 17.984847
_cell_angle_alpha 90.000000
_cell_angle_beta 90.000000
_cell_angle_gamma 90.000000
_cell_volume 8004.024462
_symmetry_space_group_name_H-M "F M M M"
_symmetry_group_IT_number 69
_symmetry_cell_setting 'orthorhombic'
loop_
_space_group_symop_operation_xyz
x,y,z
-x,-y,z
x,-y,-z
-x,y,-z
-x,-y,-z
x,y,-z
-x,y,z
x,-y,z
x,1/2+y,1/2+z
-x,1/2-y,1/2+z
x,1/2-y,1/2-z
-x,1/2+y,1/2-z
-x,1/2-y,1/2-z
x,1/2+y,1/2-z
-x,1/2+y,1/2+z
x,1/2-y,1/2+z
1/2+x,y,1/2+z
1/2-x,-y,1/2+z
1/2+x,-y,1/2-z
1/2-x,y,1/2-z
1/2-x,-y,1/2-z
1/2+x,y,1/2-z
1/2-x,y,1/2+z
1/2+x,-y,1/2+z
1/2+x,1/2+y,z
1/2-x,1/2-y,z
1/2+x,1/2-y,-z
1/2-x,1/2+y,-z
1/2-x,1/2-y,-z
1/2+x,1/2+y,-z
1/2-x,1/2+y,z
1/2+x,1/2-y,z
loop_
_atom_site_type_symbol
_atom_site_label
_atom_site_fract_x
_atom_site_fract_y
_atom_site_fract_z
Si Si1 0.142208 0.500000 0.408441
Si Si2 0.889050 0.786758 0.176823
Si Si3 0.000000 0.648982 0.584422
Si Si4 0.000000 0.500000 0.608373
Si Si5 0.218344 0.608812 0.324826
Si Si6 0.805267 0.803145 0.583149
O O1 0.134382 0.500000 0.500000
O O2 0.180972 0.560517 0.378105
O O3 0.074000 0.500000 0.367189
O O4 0.912713 0.750000 0.250000
O O5 0.940152 0.826878 0.131263
O O6 0.830761 0.834269 0.196226
O O7 0.862055 0.731817 0.123693
O O8 0.000000 0.674551 0.500000
O O9 0.000000 0.572454 0.577522
O O10 0.250000 0.581500 0.250000
O O11 0.275191 0.639833 0.370994
O O12 0.821799 0.822593 0.500000
O O13 0.750000 0.750000 0.579425
#
# Coordination Sequence:
#
# PCOD9513703 Si02
#       6
#    16  32  16   8  32  32
#     4  12  24  39  59  84 116 155 196 237 284 345
#     4  11  21  36  58  82 115 151 189 239 293 343
#     4  12  24  39  59  84 116 155 196 237 284 345
#     4  12  25  40  56  80 116 152 189 234 281 340
#     4  11  21  36  58  82 115 151 189 239 293 343
#     4   9  18  31  51  79 109 145 188 232 282 341
#
# _framework density 16.991453
#
# number of rings (size 3 to 8) (size 9 to 14) (size 15 to 20)
#    0.000    1.176    4.706    3.176    0.000    1.882 
#    0.000    0.000    0.000    0.000    0.000    0.000 
#    0.000    0.000    0.000   15.765    0.000    0.000 
#
# Total GULP energy -189314.510933 kJ/mol
# GULP energy per Si atom -5568.073851 kJ/mol
# Density = 1.695278 g / cm^3
# Si number density = 16.991453 Si / 1000 Ang^3
#
#
#
# Elastic Constant Matrix: (Units=GPa)
#
#
# Indices 1 2 3 4 5 6 
#
# 1 81.0246 28.4674 33.6205 0.0000 0.0000 0.0000
# 2 28.4674 78.3703 32.5711 0.0000 0.0000 0.0000
# 3 33.6205 32.5711 112.7122 0.0000 0.0000 0.0000
# 4 0.0000 0.0000 0.0000 17.4381 0.0000 0.0000
# 5 0.0000 0.0000 0.0000 0.0000 1.5304 0.0000
# 6 0.0000 0.0000 0.0000 0.0000 0.0000 33.2339
#
#
#
# Elastic Compliance Matrix: (Units=1/GPa)
#
#
# Indices 1 2 3 4 5 6 
#
# 1 0.015175 -0.004127 -0.003334 0.000000 0.000000 0.000000
# 2 -0.004127 0.015624 -0.003284 0.000000 0.000000 0.000000
# 3 -0.003334 -0.003284 0.010816 0.000000 0.000000 0.000000
# 4 0.000000 0.000000 0.000000 0.057346 0.000000 0.000000
# 5 0.000000 0.000000 0.000000 0.000000 0.653415 0.000000
# 6 0.000000 0.000000 0.000000 0.000000 0.000000 0.030090
#
#
# Mechanical properties :
#
#
# Convention : Reuss Voigt Hill
#
# Bulk Modulus (GPa) = 49.68872 51.26945 50.47909
# Shear Modulus (GPa) = 6.16780 22.27038 14.21909
#
# Velocity S-wave (km/s) = 1.90731 3.62426 2.89595
# Velocity P-wave (km/s) = 5.84442 6.91034 6.39961
#
# Compressibility (1/GPa) = 0.02012529
#
# Stress axis : x y z
#
# Youngs Moduli (GPa) = 65.89686 64.00516 92.45872
#
# Poissons Ratio (x) = 0.26413 0.30826
# Poissons Ratio (y) = 0.27193 0.30363
# Poissons Ratio (z) = 0.21970 0.21019
#
# Static dielectric constant tensor:
#      x y z
#    x 1.569890 0.000000 0.000000 
#    y 0.000000 1.568430 0.000000 
#    z 0.000000 0.000000 1.591340 
# 
# From -- ./inp_files/24218.got.cif
#   From: 2010.05.17/outbox.cif.g08.bks.cpg/sg69_13_cif.got.tgz:24218.got - 2010.06.03 19:29:58.
