data_PCOD9513427
_publ_section_title
;
Structure prediction by ZEFSAII (Michael W. Deem and Ramdas Pophale) SiO2 
 PCOD9513427
Probable space group: F M M M
;
_chemical_formula_sum "Si O2"
_cell_formula_units_Z 136
_cell_length_a 21.029860
_cell_length_b 16.663054
_cell_length_c 20.245054
_cell_angle_alpha 90.000000
_cell_angle_beta 90.000000
_cell_angle_gamma 90.000000
_cell_volume 7094.306093
_symmetry_space_group_name_H-M "F M M M"
_symmetry_group_IT_number 69
_symmetry_cell_setting 'orthorhombic'
loop_
_space_group_symop_operation_xyz
x,y,z
-x,-y,z
x,-y,-z
-x,y,-z
-x,-y,-z
x,y,-z
-x,y,z
x,-y,z
x,1/2+y,1/2+z
-x,1/2-y,1/2+z
x,1/2-y,1/2-z
-x,1/2+y,1/2-z
-x,1/2-y,1/2-z
x,1/2+y,1/2-z
-x,1/2+y,1/2+z
x,1/2-y,1/2+z
1/2+x,y,1/2+z
1/2-x,-y,1/2+z
1/2+x,-y,1/2-z
1/2-x,y,1/2-z
1/2-x,-y,1/2-z
1/2+x,y,1/2-z
1/2-x,y,1/2+z
1/2+x,-y,1/2+z
1/2+x,1/2+y,z
1/2-x,1/2-y,z
1/2+x,1/2-y,-z
1/2-x,1/2+y,-z
1/2-x,1/2-y,-z
1/2+x,1/2+y,-z
1/2-x,1/2+y,z
1/2+x,1/2-y,z
loop_
_atom_site_type_symbol
_atom_site_label
_atom_site_fract_x
_atom_site_fract_y
_atom_site_fract_z
Si Si1 0.500000 0.410427 0.922072
Si Si2 0.927861 0.500000 0.079729
Si Si3 0.221641 0.406100 0.676494
Si Si4 0.895864 0.700408 0.358989
Si Si5 0.000000 0.250000 0.750000
Si Si6 0.665950 0.855041 0.921220
O O1 0.500000 0.500000 0.892245
O O2 0.561674 0.361100 0.900706
O O3 0.500000 0.416851 0.000000
O O4 0.887116 0.421834 0.097543
O O5 0.000000 0.500000 0.106266
O O6 0.932246 0.500000 0.000000
O O7 0.208146 0.500000 0.662308
O O8 0.250000 0.401231 0.750000
O O9 0.159438 0.351566 0.674369
O O10 0.272135 0.374030 0.622499
O O11 0.944103 0.738705 0.306630
O O12 0.863051 0.769142 0.402757
O O13 0.678508 0.861052 0.000000
#
# Coordination Sequence:
#
# PCOD9513427 Si02
#       6
#    16  16  32  32   8  32
#     4  10  22  40  60  88 124 160 204 257 313 377
#     4   9  20  38  61  92 134 171 209 270 341 395
#     4  11  24  43  65  92 128 171 215 264 327 401
#     4  11  23  40  65  91 125 166 215 265 324 394
#     4  10  24  42  62  92 128 168 216 272 330 384
#     4  11  23  41  66  99 131 167 220 278 337 404
#
# _framework density 19.170302
#
# number of rings (size 3 to 8) (size 9 to 14) (size 15 to 20)
#    0.000    1.412    1.176    3.529    3.294    3.765 
#    0.000    0.000    2.588    0.000    0.000    0.000 
#    0.000    0.000    0.000    0.000    0.000    0.000 
#
# Total GULP energy -189413.985139 kJ/mol
# GULP energy per Si atom -5570.999563 kJ/mol
# Density = 1.912667 g / cm^3
# Si number density = 19.170302 Si / 1000 Ang^3
#
#
#
# Elastic Constant Matrix: (Units=GPa)
#
#
# Indices 1 2 3 4 5 6 
#
# 1 109.1937 22.7609 27.9082 0.0000 0.0000 0.0000
# 2 22.7609 100.9544 18.1213 0.0000 0.0000 0.0000
# 3 27.9082 18.1213 89.2330 0.0000 0.0000 0.0000
# 4 0.0000 0.0000 0.0000 18.1634 0.0000 0.0000
# 5 0.0000 0.0000 0.0000 0.0000 12.0012 0.0000
# 6 0.0000 0.0000 0.0000 0.0000 0.0000 -11.2609
#
#
#
# Elastic Compliance Matrix: (Units=1/GPa)
#
#
# Indices 1 2 3 4 5 6 
#
# 1 0.010260 -0.001803 -0.002843 0.000000 0.000000 0.000000
# 2 -0.001803 0.010597 -0.001588 0.000000 0.000000 0.000000
# 3 -0.002843 -0.001588 0.012418 0.000000 0.000000 0.000000
# 4 0.000000 0.000000 0.000000 0.055056 0.000000 0.000000
# 5 0.000000 0.000000 0.000000 0.000000 0.083325 0.000000
# 6 0.000000 0.000000 0.000000 0.000000 0.000000 -0.088803
#
#
# Mechanical properties :
#
#
# Convention : Reuss Voigt Hill
#
# Bulk Modulus (GPa) = 48.05904 48.55133 48.30519
# Shear Modulus (GPa) = 48.89625 19.15346 34.02485
#
# Velocity S-wave (km/s) = 5.05585 3.16432 4.21749
# Velocity P-wave (km/s) = 7.69455 6.22349 6.99778
#
# Compressibility (1/GPa) = 0.02080774
#
# Stress axis : x y z
#
# Youngs Moduli (GPa) = 97.46148 94.36604 80.52657
#
# Poissons Ratio (x) = 0.17014 0.22893
# Poissons Ratio (y) = 0.17572 0.12789
# Poissons Ratio (z) = 0.27707 0.14987
#
# Static dielectric constant tensor:
#      x y z
#    x 1.654550 0.000000 0.000000 
#    y 0.000000 1.679400 0.000000 
#    z 0.000000 0.000000 1.632950 
# 
# From -- ./inp_files/30540.got.cif
#   From: 2010.05.17/outbox.cif.g08.bks.cpg/sg69_16_cif.got.tgz:30540.got - 2010.06.03 19:29:58.
