data_PCOD9513584
_publ_section_title
;
Structure prediction by ZEFSAII (Michael W. Deem and Ramdas Pophale) SiO2 
 PCOD9513584
Probable space group: F M M M
;
_chemical_formula_sum "Si O2"
_cell_formula_units_Z 100
_cell_length_a 15.200095
_cell_length_b 10.264688
_cell_length_c 33.691146
_cell_angle_alpha 90.000000
_cell_angle_beta 90.000000
_cell_angle_gamma 90.000000
_cell_volume 5256.635205
_symmetry_space_group_name_H-M "F M M M"
_symmetry_group_IT_number 69
_symmetry_cell_setting 'orthorhombic'
loop_
_space_group_symop_operation_xyz
x,y,z
-x,-y,z
x,-y,-z
-x,y,-z
-x,-y,-z
x,y,-z
-x,y,z
x,-y,z
x,1/2+y,1/2+z
-x,1/2-y,1/2+z
x,1/2-y,1/2-z
-x,1/2+y,1/2-z
-x,1/2-y,1/2-z
x,1/2+y,1/2-z
-x,1/2+y,1/2+z
x,1/2-y,1/2+z
1/2+x,y,1/2+z
1/2-x,-y,1/2+z
1/2+x,-y,1/2-z
1/2-x,y,1/2-z
1/2-x,-y,1/2-z
1/2+x,y,1/2-z
1/2-x,y,1/2+z
1/2+x,-y,1/2+z
1/2+x,1/2+y,z
1/2-x,1/2-y,z
1/2+x,1/2-y,-z
1/2-x,1/2+y,-z
1/2-x,1/2-y,-z
1/2+x,1/2+y,-z
1/2-x,1/2+y,z
1/2+x,1/2-y,z
loop_
_atom_site_type_symbol
_atom_site_label
_atom_site_fract_x
_atom_site_fract_y
_atom_site_fract_z
Si Si1 0.901592 0.236561 0.845781
Si Si2 0.250000 0.250000 0.407449
Si Si3 0.152359 0.000000 0.698538
Si Si4 0.815667 0.000000 0.456201
Si Si5 0.000000 0.500000 0.000000
Si Si6 0.136888 0.500000 0.710246
O O1 0.829582 0.205185 0.879025
O O2 0.876588 0.373228 0.825577
O O3 0.897584 0.127320 0.811883
O O4 0.000000 0.242556 0.862399
O O5 0.285622 0.370990 0.433021
O O6 0.115426 0.000000 0.743251
O O7 0.257577 0.000000 0.704113
O O8 0.772510 0.000000 0.500000
O O9 0.920204 0.000000 0.465887
#
# Coordination Sequence:
#
# PCOD9513584 Si02
#       6
#    32  16  16  16   4  16
#     4  12  25  39  63  93 125 171 222 266 325 382
#     4  12  23  44  67  98 136 168 200 268 321 374
#     4  11  22  41  62  86 124 177 226 277 319 378
#     4  10  24  44  72  98 131 161 208 247 308 385
#     4   8  24  44  76 110 118 164 224 230 300 400
#     4  11  22  41  60  86 129 171 223 280 331 369
#
# _framework density 19.023575999999998
#
# number of rings (size 3 to 8) (size 9 to 14) (size 15 to 20)
#    0.480    0.320    3.200    4.320    2.240    6.400 
#    0.000    0.000    0.000    1.920    0.000    0.000 
#    0.000    0.000    0.000    0.000    0.000    0.000 
#
# Total GULP energy -139471.667837 kJ/mol
# GULP energy per Si atom -5578.866713 kJ/mol
# Density = 1.898028 g / cm^3
# Si number density = 19.023576 Si / 1000 Ang^3
#
#
#
# Elastic Constant Matrix: (Units=GPa)
#
#
# Indices 1 2 3 4 5 6 
#
# 1 160.3628 31.5828 55.0725 0.0000 0.0000 0.0000
# 2 31.5828 130.1877 41.7566 0.0000 0.0000 0.0000
# 3 55.0725 41.7566 111.8452 0.0000 0.0000 0.0000
# 4 0.0000 0.0000 0.0000 31.0581 0.0000 0.0000
# 5 0.0000 0.0000 0.0000 0.0000 -2.7379 0.0000
# 6 0.0000 0.0000 0.0000 0.0000 0.0000 28.3815
#
#
#
# Elastic Compliance Matrix: (Units=1/GPa)
#
#
# Indices 1 2 3 4 5 6 
#
# 1 0.007565 -0.000728 -0.003453 0.000000 0.000000 0.000000
# 2 -0.000728 0.008796 -0.002926 0.000000 0.000000 0.000000
# 3 -0.003453 -0.002926 0.011734 0.000000 0.000000 0.000000
# 4 0.000000 0.000000 0.000000 0.032198 0.000000 0.000000
# 5 0.000000 0.000000 0.000000 0.000000 -0.365238 0.000000
# 6 0.000000 0.000000 0.000000 0.000000 0.000000 0.035234
#
#
# Mechanical properties :
#
#
# Convention : Reuss Voigt Hill
#
# Bulk Modulus (GPa) = 72.03835 73.24661 72.64248
# Shear Modulus (GPa) = -19.93064 29.60592 4.83764
#
# Velocity S-wave (km/s) = -3.24030 3.94925 1.59640
# Velocity P-wave (km/s) = 4.89395 7.70597 6.45495
#
# Compressibility (1/GPa) = 0.01388149
#
# Stress axis : x y z
#
# Youngs Moduli (GPa) = 132.18517 113.68642 85.22475
#
# Poissons Ratio (x) = 0.08272 0.29432
# Poissons Ratio (y) = 0.09618 0.24934
# Poissons Ratio (z) = 0.45649 0.33261
#
# Static dielectric constant tensor:
#      x y z
#    x 1.679170 0.000000 0.000000 
#    y 0.000000 1.737040 0.000000 
#    z 0.000000 0.000000 1.647150 
# 
# From -- ./inp_files/45375.got.cif
#   From: 2010.05.17/outbox.cif.g08.bks.cpg/sg69_23_cif.got.tgz:45375.got - 2010.06.03 19:29:58.
