data_PCOD9513462
_publ_section_title
;
Structure prediction by ZEFSAII (Michael W. Deem and Ramdas Pophale) SiO2 
 PCOD9513462
Probable space group: F M M M
;
_chemical_formula_sum "Si O2"
_cell_formula_units_Z 224
_cell_length_a 28.648574
_cell_length_b 21.174551
_cell_length_c 18.873607
_cell_angle_alpha 90.000000
_cell_angle_beta 90.000000
_cell_angle_gamma 90.000000
_cell_volume 11449.120525
_symmetry_space_group_name_H-M "F M M M"
_symmetry_group_IT_number 69
_symmetry_cell_setting 'orthorhombic'
loop_
_space_group_symop_operation_xyz
x,y,z
-x,-y,z
x,-y,-z
-x,y,-z
-x,-y,-z
x,y,-z
-x,y,z
x,-y,z
x,1/2+y,1/2+z
-x,1/2-y,1/2+z
x,1/2-y,1/2-z
-x,1/2+y,1/2-z
-x,1/2-y,1/2-z
x,1/2+y,1/2-z
-x,1/2+y,1/2+z
x,1/2-y,1/2+z
1/2+x,y,1/2+z
1/2-x,-y,1/2+z
1/2+x,-y,1/2-z
1/2-x,y,1/2-z
1/2-x,-y,1/2-z
1/2+x,y,1/2-z
1/2-x,y,1/2+z
1/2+x,-y,1/2+z
1/2+x,1/2+y,z
1/2-x,1/2-y,z
1/2+x,1/2-y,-z
1/2-x,1/2+y,-z
1/2-x,1/2-y,-z
1/2+x,1/2+y,-z
1/2-x,1/2+y,z
1/2+x,1/2-y,z
loop_
_atom_site_type_symbol
_atom_site_label
_atom_site_fract_x
_atom_site_fract_y
_atom_site_fract_z
Si Si1 0.399252 0.128162 0.918244
Si Si2 0.122946 0.574515 0.778558
Si Si3 0.889878 0.721863 0.580422
Si Si4 0.785937 0.071980 0.814949
Si Si5 0.944288 0.623716 0.671261
Si Si6 0.500000 0.429524 0.414935
Si Si7 0.219271 0.310889 0.583505
Si Si8 0.556503 0.500000 0.080511
O O1 0.366806 0.098205 0.857811
O O2 0.396306 0.203355 0.914195
O O3 0.451709 0.105521 0.900067
O O4 0.388835 0.109397 0.000000
O O5 0.113637 0.500000 0.781451
O O6 0.164421 0.585300 0.722608
O O7 0.078721 0.611094 0.746907
O O8 0.902795 0.702400 0.500000
O O9 0.921857 0.684500 0.634940
O O10 0.835410 0.706287 0.590684
O O11 0.750000 0.072839 0.750000
O O12 0.773294 0.126009 0.870952
O O13 0.786933 0.000000 0.844195
O O14 0.930368 0.562847 0.623145
O O15 0.000000 0.627356 0.674378
O O16 0.500000 0.500000 0.383174
O O17 0.500000 0.435444 0.500000
O O18 0.229213 0.321697 0.500000
O O19 0.250000 0.250000 0.606034
O O20 0.500000 0.500000 0.077403
O O21 0.574429 0.500000 0.000000
#
# Coordination Sequence:
#
# PCOD9513462 Si02
#       8
#    32  32  32  32  32  16  32  16
#     4  10  23  40  60  87 122 161 210 266 314 368
#     4  11  23  41  64  90 126 165 208 264 318 377
#     4  10  22  41  62  91 129 164 207 261 314 375
#     4  10  23  44  66  94 129 164 207 262 325 385
#     4  11  22  37  59  89 128 170 208 251 308 371
#     4   9  18  36  60  85 112 155 215 262 313 375
#     4  10  22  42  69  97 127 165 211 260 314 383
#     4   9  18  34  56  86 118 161 217 255 291 356
#
# _framework density 19.564821999999999
#
# number of rings (size 3 to 8) (size 9 to 14) (size 15 to 20)
#    0.000    1.857    2.143    0.857    4.000    2.857 
#    0.000    0.714    0.000    2.571    0.000    0.000 
#    0.000    0.000    0.000    0.000    0.000    0.000 
#
# Total GULP energy -312680.821705 kJ/mol
# GULP energy per Si atom -5583.586102 kJ/mol
# Density = 1.952029 g / cm^3
# Si number density = 19.564822 Si / 1000 Ang^3
#
#
#
# Elastic Constant Matrix: (Units=GPa)
#
#
# Indices 1 2 3 4 5 6 
#
# 1 54.6754 33.5256 33.1647 0.0000 0.0000 0.0000
# 2 33.5256 110.2519 64.9380 0.0000 0.0000 0.0000
# 3 33.1647 64.9380 110.7278 0.0000 0.0000 0.0000
# 4 0.0000 0.0000 0.0000 88.8604 0.0000 0.0000
# 5 0.0000 0.0000 0.0000 0.0000 21.4955 0.0000
# 6 0.0000 0.0000 0.0000 0.0000 0.0000 28.0641
#
#
#
# Elastic Compliance Matrix: (Units=1/GPa)
#
#
# Indices 1 2 3 4 5 6 
#
# 1 0.023811 -0.004644 -0.004408 0.000000 0.000000 0.000000
# 2 -0.004644 0.014762 -0.007267 0.000000 0.000000 0.000000
# 3 -0.004408 -0.007267 0.014613 0.000000 0.000000 0.000000
# 4 0.000000 0.000000 0.000000 0.011254 0.000000 0.000000
# 5 0.000000 0.000000 0.000000 0.000000 0.046521 0.000000
# 6 0.000000 0.000000 0.000000 0.000000 0.000000 0.035633
#
#
# Mechanical properties :
#
#
# Convention : Reuss Voigt Hill
#
# Bulk Modulus (GPa) = 48.66459 59.87906 54.27183
# Shear Modulus (GPa) = 26.86986 37.28578 32.07782
#
# Velocity S-wave (km/s) = 3.70993 4.37023 4.05355
# Velocity P-wave (km/s) = 6.57867 7.49247 7.05039
#
# Compressibility (1/GPa) = 0.02054882
#
# Stress axis : x y z
#
# Youngs Moduli (GPa) = 41.99671 67.73985 68.43181
#
# Poissons Ratio (x) = 0.31460 0.30166
# Poissons Ratio (y) = 0.19504 0.49727
# Poissons Ratio (z) = 0.18513 0.49224
#
# Static dielectric constant tensor:
#      x y z
#    x 1.694360 0.000000 0.000000 
#    y 0.000000 1.660650 0.000000 
#    z 0.000000 0.000000 1.694680 
# 
# From -- ./inp_files/27960.got.cif
#   From: 2010.05.17/outbox.cif.g08.bks.cpg/sg69_14_cif.got.tgz:27960.got - 2010.06.03 19:29:58.
