data_PCOD9513154
_publ_section_title
;
Structure prediction by ZEFSAII (Michael W. Deem and Ramdas Pophale) SiO2 
 PCOD9513154
Probable space group: F M M M
;
_chemical_formula_sum "Si O2"
_cell_formula_units_Z 128
_cell_length_a 27.694833
_cell_length_b 13.891631
_cell_length_c 16.832116
_cell_angle_alpha 90.000000
_cell_angle_beta 90.000000
_cell_angle_gamma 90.000000
_cell_volume 6475.759404
_symmetry_space_group_name_H-M "F M M M"
_symmetry_group_IT_number 69
_symmetry_cell_setting 'orthorhombic'
loop_
_space_group_symop_operation_xyz
x,y,z
-x,-y,z
x,-y,-z
-x,y,-z
-x,-y,-z
x,y,-z
-x,y,z
x,-y,z
x,1/2+y,1/2+z
-x,1/2-y,1/2+z
x,1/2-y,1/2-z
-x,1/2+y,1/2-z
-x,1/2-y,1/2-z
x,1/2+y,1/2-z
-x,1/2+y,1/2+z
x,1/2-y,1/2+z
1/2+x,y,1/2+z
1/2-x,-y,1/2+z
1/2+x,-y,1/2-z
1/2-x,y,1/2-z
1/2-x,-y,1/2-z
1/2+x,y,1/2-z
1/2-x,y,1/2+z
1/2+x,-y,1/2+z
1/2+x,1/2+y,z
1/2-x,1/2-y,z
1/2+x,1/2-y,-z
1/2-x,1/2+y,-z
1/2-x,1/2-y,-z
1/2+x,1/2+y,-z
1/2-x,1/2+y,z
1/2+x,1/2-y,z
loop_
_atom_site_type_symbol
_atom_site_label
_atom_site_fract_x
_atom_site_fract_y
_atom_site_fract_z
Si Si1 0.000000 0.766803 0.917857
Si Si2 0.418933 0.612344 0.849742
Si Si3 0.500000 0.107962 0.215899
Si Si4 0.825766 0.715493 0.405796
Si Si5 0.266062 0.887492 0.158231
O O1 0.954158 0.835972 0.911541
O O2 0.000000 0.692013 0.846860
O O3 0.000000 0.711804 0.000000
O O4 0.410508 0.500000 0.866867
O O5 0.451867 0.617026 0.770264
O O6 0.369237 0.669657 0.855439
O O7 0.500000 0.000000 0.182231
O O8 0.836952 0.723534 0.500000
O O9 0.779581 0.645762 0.394333
O O10 0.809170 0.817385 0.368622
O O11 0.250000 0.871234 0.250000
O O12 0.277128 0.000000 0.148624
#
# Coordination Sequence:
#
# PCOD9513154 Si02
#       5
#    16  32  16  32  32
#     4  11  22  36  59  91 123 151 185 237 292 342
#     4  10  21  38  60  85 114 152 197 239 284 341
#     4   9  21  41  63  85 114 155 193 232 284 343
#     4  11  22  36  59  88 116 148 189 242 295 338
#     4  10  22  39  58  82 115 156 197 235 281 343
#
# _framework density 19.766020000000001
#
# number of rings (size 3 to 8) (size 9 to 14) (size 15 to 20)
#    0.000    1.750    0.000    7.125    0.000    9.750 
#    0.000    3.750    0.000    4.500    0.000    0.000 
#    0.000    0.000    0.000    0.000    0.000    0.000 
#
# Total GULP energy -178635.271673 kJ/mol
# GULP energy per Si atom -5582.352240 kJ/mol
# Density = 1.972103 g / cm^3
# Si number density = 19.766020 Si / 1000 Ang^3
#
#
#
# Elastic Constant Matrix: (Units=GPa)
#
#
# Indices 1 2 3 4 5 6 
#
# 1 128.9884 78.1199 17.3732 0.0000 0.0000 0.0000
# 2 78.1199 186.8780 58.4015 0.0000 0.0000 0.0000
# 3 17.3732 58.4015 78.1492 0.0000 0.0000 0.0000
# 4 0.0000 0.0000 0.0000 2.9640 0.0000 0.0000
# 5 0.0000 0.0000 0.0000 0.0000 -8.5451 0.0000
# 6 0.0000 0.0000 0.0000 0.0000 0.0000 32.5761
#
#
#
# Elastic Compliance Matrix: (Units=1/GPa)
#
#
# Indices 1 2 3 4 5 6 
#
# 1 0.010471 -0.004762 0.001231 0.000000 0.000000 0.000000
# 2 -0.004762 0.009147 -0.005777 0.000000 0.000000 0.000000
# 3 0.001231 -0.005777 0.016840 0.000000 0.000000 0.000000
# 4 0.000000 0.000000 0.000000 0.337387 0.000000 0.000000
# 5 0.000000 0.000000 0.000000 0.000000 -0.117027 0.000000
# 6 0.000000 0.000000 0.000000 0.000000 0.000000 0.030697
#
#
# Mechanical properties :
#
#
# Convention : Reuss Voigt Hill
#
# Bulk Modulus (GPa) = 56.04961 77.97830 67.01396
# Shear Modulus (GPa) = 16.02163 21.40706 18.71435
#
# Velocity S-wave (km/s) = 2.85013 3.29450 3.08034
# Velocity P-wave (km/s) = 6.26491 7.34901 6.82851
#
# Compressibility (1/GPa) = 0.01784134
#
# Stress axis : x y z
#
# Youngs Moduli (GPa) = 95.50478 109.32598 59.38356
#
# Poissons Ratio (x) = 0.52057 -0.07308
# Poissons Ratio (y) = 0.45476 0.34306
# Poissons Ratio (z) = -0.11753 0.63158
#
# Static dielectric constant tensor:
#      x y z
#    x 1.722970 0.000000 0.000000 
#    y 0.000000 1.673810 0.000000 
#    z 0.000000 0.000000 1.721280 
# 
# From -- ./inp_files/26507.got.cif
#   From: 2010.05.17/outbox.cif.g08.bks.cpg/sg69_14_cif.got.tgz:26507.got - 2010.06.03 19:29:58.
