data_PCOD9513621
_publ_section_title
;
Structure prediction by ZEFSAII (Michael W. Deem and Ramdas Pophale) SiO2 
 PCOD9513621
Probable space group: F M M M
;
_chemical_formula_sum "Si O2"
_cell_formula_units_Z 104
_cell_length_a 13.261535
_cell_length_b 23.205903
_cell_length_c 17.622019
_cell_angle_alpha 90.000000
_cell_angle_beta 90.000000
_cell_angle_gamma 90.000000
_cell_volume 5423.104006
_symmetry_space_group_name_H-M "F M M M"
_symmetry_group_IT_number 69
_symmetry_cell_setting 'orthorhombic'
loop_
_space_group_symop_operation_xyz
x,y,z
-x,-y,z
x,-y,-z
-x,y,-z
-x,-y,-z
x,y,-z
-x,y,z
x,-y,z
x,1/2+y,1/2+z
-x,1/2-y,1/2+z
x,1/2-y,1/2-z
-x,1/2+y,1/2-z
-x,1/2-y,1/2-z
x,1/2+y,1/2-z
-x,1/2+y,1/2+z
x,1/2-y,1/2+z
1/2+x,y,1/2+z
1/2-x,-y,1/2+z
1/2+x,-y,1/2-z
1/2-x,y,1/2-z
1/2-x,-y,1/2-z
1/2+x,y,1/2-z
1/2-x,y,1/2+z
1/2+x,-y,1/2+z
1/2+x,1/2+y,z
1/2-x,1/2-y,z
1/2+x,1/2-y,-z
1/2-x,1/2+y,-z
1/2-x,1/2-y,-z
1/2+x,1/2+y,-z
1/2-x,1/2+y,z
1/2+x,1/2-y,z
loop_
_atom_site_type_symbol
_atom_site_label
_atom_site_fract_x
_atom_site_fract_y
_atom_site_fract_z
Si Si1 0.500000 0.713347 0.127700
Si Si2 0.666198 0.700946 0.000000
Si Si3 0.109036 0.000000 0.867146
Si Si4 0.272810 0.000000 0.000000
Si Si5 0.500000 0.405112 0.782665
Si Si6 0.154824 0.876289 0.500000
Si Si7 0.500000 0.844237 0.871686
O O1 0.403657 0.707261 0.072943
O O2 0.500000 0.658162 0.181215
O O3 0.500000 0.778547 0.159009
O O4 0.750000 0.750000 0.000000
O O5 0.728911 0.642360 0.000000
O O6 0.200445 0.000000 0.925313
O O7 0.094466 0.943547 0.813474
O O8 0.000000 0.000000 0.910292
O O9 0.343373 0.944515 0.000000
O O10 0.500000 0.392228 0.693592
O O11 0.096062 0.852242 0.573140
#
# Coordination Sequence:
#
# PCOD9513621 Si02
#       7
#    16  16  16   8  16  16  16
#     4  11  20  36  63  90 118 158 200 243 300 343
#     4  11  19  37  60  88 117 154 195 254 287 338
#     4   8  21  40  60  88 111 152 189 253 293 344
#     4  12  21  39  64  88 114 146 218 246 282 358
#     4   9  21  37  63  81 122 156 191 242 312 346
#     4  11  24  38  63  87 117 157 206 246 293 346
#     4  11  22  41  56  87 123 161 199 240 292 367
#
# _framework density 19.177209000000001
#
# number of rings (size 3 to 8) (size 9 to 14) (size 15 to 20)
#    0.923    0.615    3.077    3.462    0.000    4.923 
#    0.000    7.692    0.000    0.000    0.000    0.000 
#    0.000    0.000    0.000    0.000    0.000    0.000 
#
# Total GULP energy -144892.477107 kJ/mol
# GULP energy per Si atom -5572.787581 kJ/mol
# Density = 1.913356 g / cm^3
# Si number density = 19.177209 Si / 1000 Ang^3
#
#
#
# Elastic Constant Matrix: (Units=GPa)
#
#
# Indices 1 2 3 4 5 6 
#
# 1 68.2940 16.4375 19.4021 0.0000 0.0000 0.0000
# 2 16.4375 152.5361 39.8469 0.0000 0.0000 0.0000
# 3 19.4021 39.8469 106.7189 0.0000 0.0000 0.0000
# 4 0.0000 0.0000 0.0000 27.2224 0.0000 0.0000
# 5 0.0000 0.0000 0.0000 0.0000 -2.4775 0.0000
# 6 0.0000 0.0000 0.0000 0.0000 0.0000 28.6261
#
#
#
# Elastic Compliance Matrix: (Units=1/GPa)
#
#
# Indices 1 2 3 4 5 6 
#
# 1 0.015588 -0.001041 -0.002445 0.000000 0.000000 0.000000
# 2 -0.001041 0.007334 -0.002549 0.000000 0.000000 0.000000
# 3 -0.002445 -0.002549 0.010767 0.000000 0.000000 0.000000
# 4 0.000000 0.000000 0.000000 0.036734 0.000000 0.000000
# 5 0.000000 0.000000 0.000000 0.000000 -0.403639 0.000000
# 6 0.000000 0.000000 0.000000 0.000000 0.000000 0.034933
#
#
# Mechanical properties :
#
#
# Convention : Reuss Voigt Hill
#
# Bulk Modulus (GPa) = 46.25817 53.21353 49.73585
# Shear Modulus (GPa) = -17.92077 27.46504 4.77213
#
# Velocity S-wave (km/s) = -3.06025 3.78851 1.57919
# Velocity P-wave (km/s) = 3.41862 6.85169 5.41445
#
# Compressibility (1/GPa) = 0.02161780
#
# Stress axis : x y z
#
# Youngs Moduli (GPa) = 64.15265 136.35311 92.87844
#
# Poissons Ratio (x) = 0.14194 0.22711
# Poissons Ratio (y) = 0.06678 0.23676
# Poissons Ratio (z) = 0.15687 0.34758
#
# Static dielectric constant tensor:
#      x y z
#    x 1.659420 0.000000 0.000000 
#    y 0.000000 1.723820 0.000000 
#    z 0.000000 0.000000 1.648220 
# 
# From -- ./inp_files/29737.got.cif
#   From: 2010.05.17/outbox.cif.g08.bks.cpg/sg69_15_cif.got.tgz:29737.got - 2010.06.03 19:29:58.
