data_PCOD9513843
_publ_section_title
;
Structure prediction by ZEFSAII (Michael W. Deem and Ramdas Pophale) SiO2 
 PCOD9513843
Probable space group: F M M M
;
_chemical_formula_sum "Si O2"
_cell_formula_units_Z 128
_cell_length_a 15.532909
_cell_length_b 28.011194
_cell_length_c 14.839726
_cell_angle_alpha 90.000000
_cell_angle_beta 90.000000
_cell_angle_gamma 90.000000
_cell_volume 6456.695442
_symmetry_space_group_name_H-M "F M M M"
_symmetry_group_IT_number 69
_symmetry_cell_setting 'orthorhombic'
loop_
_space_group_symop_operation_xyz
x,y,z
-x,-y,z
x,-y,-z
-x,y,-z
-x,-y,-z
x,y,-z
-x,y,z
x,-y,z
x,1/2+y,1/2+z
-x,1/2-y,1/2+z
x,1/2-y,1/2-z
-x,1/2+y,1/2-z
-x,1/2-y,1/2-z
x,1/2+y,1/2-z
-x,1/2+y,1/2+z
x,1/2-y,1/2+z
1/2+x,y,1/2+z
1/2-x,-y,1/2+z
1/2+x,-y,1/2-z
1/2-x,y,1/2-z
1/2-x,-y,1/2-z
1/2+x,y,1/2-z
1/2-x,y,1/2+z
1/2+x,-y,1/2+z
1/2+x,1/2+y,z
1/2-x,1/2-y,z
1/2+x,1/2-y,-z
1/2-x,1/2+y,-z
1/2-x,1/2-y,-z
1/2+x,1/2+y,-z
1/2-x,1/2+y,z
1/2+x,1/2-y,z
loop_
_atom_site_type_symbol
_atom_site_label
_atom_site_fract_x
_atom_site_fract_y
_atom_site_fract_z
Si Si1 0.000000 0.300170 0.399674
Si Si2 0.399361 0.869092 0.102027
Si Si3 0.500000 0.407035 0.888365
Si Si4 0.660095 0.264945 0.646192
Si Si5 0.854250 0.943644 0.246100
O O1 0.000000 0.351443 0.351448
O O2 0.918527 0.266367 0.388410
O O3 0.000000 0.317936 0.500000
O O4 0.500000 0.856751 0.099251
O O5 0.352830 0.821045 0.134341
O O6 0.387205 0.912074 0.170773
O O7 0.371417 0.881022 0.000000
O O8 0.587246 0.428689 0.841453
O O9 0.500000 0.413801 0.000000
O O10 0.662614 0.250000 0.750000
O O11 0.750000 0.250000 0.603646
O O12 0.750000 0.935745 0.250000
O O13 0.868257 0.000000 0.258967
#
# Coordination Sequence:
#
# PCOD9513843 Si02
#       5
#    16  32  16  32  32
#     4  11  23  40  60  91 133 172 218 272 326 395
#     4  11  24  42  67  97 132 175 226 277 332 404
#     4  11  25  45  74 105 139 183 234 291 348 418
#     4  11  24  39  63  94 132 178 219 271 329 395
#     4  11  26  47  71  99 135 176 227 291 353 417
#
# _framework density 19.824382
#
# number of rings (size 3 to 8) (size 9 to 14) (size 15 to 20)
#    0.000    1.000    2.500    3.000    7.000    4.500 
#    0.000    3.750    0.000    0.000    0.000    0.000 
#    0.000    0.000    0.000    0.000    0.000    0.000 
#
# Total GULP energy -178383.180346 kJ/mol
# GULP energy per Si atom -5574.474386 kJ/mol
# Density = 1.977926 g / cm^3
# Si number density = 19.824382 Si / 1000 Ang^3
#
#
#
# Elastic Constant Matrix: (Units=GPa)
#
#
# Indices 1 2 3 4 5 6 
#
# 1 139.4338 47.3044 36.2284 0.0000 0.0000 0.0000
# 2 47.3044 100.4765 38.2428 0.0000 0.0000 0.0000
# 3 36.2284 38.2428 139.8655 0.0000 0.0000 0.0000
# 4 0.0000 0.0000 0.0000 5.5641 0.0000 0.0000
# 5 0.0000 0.0000 0.0000 0.0000 -45.2200 0.0000
# 6 0.0000 0.0000 0.0000 0.0000 0.0000 149.5631
#
#
#
# Elastic Compliance Matrix: (Units=1/GPa)
#
#
# Indices 1 2 3 4 5 6 
#
# 1 0.008733 -0.003628 -0.001270 0.000000 0.000000 0.000000
# 2 -0.003628 0.012616 -0.002510 0.000000 0.000000 0.000000
# 3 -0.001270 -0.002510 0.008165 0.000000 0.000000 0.000000
# 4 0.000000 0.000000 0.000000 0.179722 0.000000 0.000000
# 5 0.000000 0.000000 0.000000 0.000000 -0.022114 0.000000
# 6 0.000000 0.000000 0.000000 0.000000 0.000000 0.006686
#
#
# Mechanical properties :
#
#
# Convention : Reuss Voigt Hill
#
# Bulk Modulus (GPa) = 68.03642 69.25854 68.64748
# Shear Modulus (GPa) = 23.41673 39.18146 31.29910
#
# Velocity S-wave (km/s) = 3.44060 4.45053 3.97775
# Velocity P-wave (km/s) = 7.08362 7.83718 7.46991
#
# Compressibility (1/GPa) = 0.01469801
#
# Stress axis : x y z
#
# Youngs Moduli (GPa) = 114.51263 79.26514 122.47518
#
# Poissons Ratio (x) = 0.28757 0.15554
# Poissons Ratio (y) = 0.41545 0.30739
# Poissons Ratio (z) = 0.14543 0.19894
#
# Static dielectric constant tensor:
#      x y z
#    x 1.697950 0.000000 0.000000 
#    y 0.000000 1.674260 0.000000 
#    z 0.000000 0.000000 1.686310 
# 
# From -- ./inp_files/15333.got.cif
#   From: 2010.05.17/outbox.cif.g08.bks.cpg/sg69_8_cif.got.tgz:15333.got - 2010.06.03 19:29:58.
