data_PCOD9513999
_publ_section_title
;
Structure prediction by ZEFSAII (Michael W. Deem and Ramdas Pophale) SiO2 
 PCOD9513999
Probable space group: F M M M
;
_chemical_formula_sum "Si O2"
_cell_formula_units_Z 36
_cell_length_a 30.000000
_cell_length_b 30.000000
_cell_length_c 9.000000
_cell_angle_alpha 90.000000
_cell_angle_beta 90.000000
_cell_angle_gamma 90.000000
_cell_volume 8100.000000
_symmetry_space_group_name_H-M "F M M M"
_symmetry_group_IT_number 69
_symmetry_cell_setting 'orthorhombic'
loop_
_space_group_symop_operation_xyz
x,y,z
-x,-y,z
x,-y,-z
-x,y,-z
-x,-y,-z
x,y,-z
-x,y,z
x,-y,z
x,1/2+y,1/2+z
-x,1/2-y,1/2+z
x,1/2-y,1/2-z
-x,1/2+y,1/2-z
-x,1/2-y,1/2-z
x,1/2+y,1/2-z
-x,1/2+y,1/2+z
x,1/2-y,1/2+z
1/2+x,y,1/2+z
1/2-x,-y,1/2+z
1/2+x,-y,1/2-z
1/2-x,y,1/2-z
1/2-x,-y,1/2-z
1/2+x,y,1/2-z
1/2-x,y,1/2+z
1/2+x,-y,1/2+z
1/2+x,1/2+y,z
1/2-x,1/2-y,z
1/2+x,1/2-y,-z
1/2-x,1/2+y,-z
1/2-x,1/2-y,-z
1/2+x,1/2+y,-z
1/2-x,1/2+y,z
1/2+x,1/2-y,z
loop_
_atom_site_type_symbol
_atom_site_label
_atom_site_fract_x
_atom_site_fract_y
_atom_site_fract_z
Si Si1 0.446076 0.000000 0.832671
Si Si2 0.798890 0.052318 0.822734
Si Si3 0.204429 0.298653 0.678086
Si Si4 0.356684 0.370545 0.321307
Si Si5 0.449977 0.596445 0.680849
O O1 0.436369 0.047303 0.760438
O O2 0.500000 0.000000 0.846704
O O3 0.426514 0.000000 0.000000
O O4 0.750000 0.058561 0.750000
O O5 0.832987 0.084710 0.738910
O O6 0.810748 0.000000 0.804827
O O7 0.797359 0.062165 0.000000
O O8 0.207775 0.296204 0.500000
O O9 0.198827 0.250000 0.750000
O O10 0.250000 0.317222 0.750000
O O11 0.165722 0.330300 0.734371
O O12 0.350569 0.367283 0.500000
O O13 0.409262 0.371622 0.287006
O O14 0.451948 0.592198 0.500000
O O15 0.500000 0.607974 0.730462
#
# Coordination Sequence:
#
# PCOD9513999 Si02
#       5
#    16  32  32  32  32
#     4   7  10  20  38  62  94 131 172 217 260 295
#     4  10  21  36  51  70 102 142 182 222 264 313
#     4  11  22  39  61  84 111 137 171 215 267 321
#     4  11  21  32  53  82 110 140 178 219 267 320
#     4   8  15  27  45  72 106 141 179 224 266 307
#
# _framework density 4.4444439999999998
#
# number of rings (size 3 to 8) (size 9 to 14) (size 15 to 20)
#    0.000    2.333    0.000    6.000    1.556    1.333 
#    0.000    0.000    0.000    3.333    0.000    1.556 
#    0.000    0.000    0.000    0.000    0.000    0.000 
#
# Total GULP energy -200685.061499 kJ/mol
# GULP energy per Si atom -5574.585042 kJ/mol
# Density = 0.443433 g / cm^3
# Si number density = 4.444444 Si / 1000 Ang^3
#
#
#
# Elastic Constant Matrix: (Units=GPa)
#
#
# Indices 1 2 3 4 5 6 
#
# 1 121.0942 56.1139 37.6377 -0.0056 0.0022 0.0000
# 2 56.1139 52.2495 32.2531 -0.0048 0.0034 0.0099
# 3 37.6377 32.2531 105.5393 -0.0341 0.0226 0.0127
# 4 -0.0056 -0.0048 -0.0341 26.1301 0.0113 0.0084
# 5 0.0022 0.0034 0.0226 0.0113 12.3609 -0.0053
# 6 0.0000 0.0099 0.0127 0.0084 -0.0053 -14.0780
#
#
#
# Elastic Compliance Matrix: (Units=1/GPa)
#
#
# Indices 1 2 3 4 5 6 
#
# 1 0.016468 -0.017330 -0.000577 0.000000 0.000003 -0.000013
# 2 -0.017330 0.041826 -0.006602 -0.000005 0.000004 0.000023
# 3 -0.000577 -0.006602 0.011698 0.000014 -0.000019 0.000006
# 4 0.000000 -0.000005 0.000014 0.038270 -0.000035 0.000023
# 5 0.000003 0.000004 -0.000019 -0.000035 0.080900 -0.000030
# 6 -0.000013 0.000023 0.000006 0.000023 -0.000030 -0.071033
#
#
# Mechanical properties :
#
#
# Convention : Reuss Voigt Hill
#
# Bulk Modulus (GPa) = 47.67555 58.98803 53.33179
# Shear Modulus (GPa) = 28.71302 15.07450 21.89376
#
# Velocity S-wave (km/s) = 4.02320 2.91510 3.51311
# Velocity P-wave (km/s) = 6.96112 6.67707 6.82057
#
# Compressibility (1/GPa) = 0.02097511
#
# Stress axis : x y z
#
# Youngs Moduli (GPa) = 60.72507 23.90883 85.48180
#
# Poissons Ratio (x) = 0.41433 0.04930
# Poissons Ratio (y) = 1.05234 0.56434
# Poissons Ratio (z) = 0.03502 0.15784
#
# Static dielectric constant tensor:
#      x y z
#    x 1.628120 0.000000 0.000000 
#    y 0.000000 1.648740 0.000000 
#    z 0.000000 0.000000 1.594520 
# 
# From -- ./inp_files/5576.got.cif
#   From: 2010.05.17/outbox.ucp.g08.bks.cvg/sg69_3_cif.got.tgz:5576.got - 2010.06.11 16:51:34.
