data_PCOD9513176
_publ_section_title
;
Structure prediction by ZEFSAII (Michael W. Deem and Ramdas Pophale) SiO2 
 PCOD9513176
Probable space group: F M M M
;
_chemical_formula_sum "Si O2"
_cell_formula_units_Z 84
_cell_length_a 28.854610
_cell_length_b 7.779313
_cell_length_c 20.346620
_cell_angle_alpha 90.000000
_cell_angle_beta 90.000000
_cell_angle_gamma 90.000000
_cell_volume 4567.186313
_symmetry_space_group_name_H-M "F M M M"
_symmetry_group_IT_number 69
_symmetry_cell_setting 'orthorhombic'
loop_
_space_group_symop_operation_xyz
x,y,z
-x,-y,z
x,-y,-z
-x,y,-z
-x,-y,-z
x,y,-z
-x,y,z
x,-y,z
x,1/2+y,1/2+z
-x,1/2-y,1/2+z
x,1/2-y,1/2-z
-x,1/2+y,1/2-z
-x,1/2-y,1/2-z
x,1/2+y,1/2-z
-x,1/2+y,1/2+z
x,1/2-y,1/2+z
1/2+x,y,1/2+z
1/2-x,-y,1/2+z
1/2+x,-y,1/2-z
1/2-x,y,1/2-z
1/2-x,-y,1/2-z
1/2+x,y,1/2-z
1/2-x,y,1/2+z
1/2+x,-y,1/2+z
1/2+x,1/2+y,z
1/2-x,1/2-y,z
1/2+x,1/2-y,-z
1/2-x,1/2+y,-z
1/2-x,1/2-y,-z
1/2+x,1/2+y,-z
1/2-x,1/2+y,z
1/2+x,1/2-y,z
loop_
_atom_site_type_symbol
_atom_site_label
_atom_site_fract_x
_atom_site_fract_y
_atom_site_fract_z
Si Si1 0.881145 0.803845 0.823060
Si Si2 0.550878 0.500000 0.363579
Si Si3 0.803284 0.294337 0.924446
Si Si4 0.500000 0.500000 0.500000
O O1 0.865609 0.750000 0.750000
O O2 0.920256 0.668205 0.844408
O O3 0.838921 0.787935 0.873926
O O4 0.898158 0.000000 0.821849
O O5 0.500000 0.500000 0.330651
O O6 0.539628 0.500000 0.441206
O O7 0.809033 0.500000 0.921177
O O8 0.750000 0.250000 0.909156
O O9 0.811980 0.239217 0.000000
#
# Coordination Sequence:
#
# PCOD9513176 Si02
#       4
#    32  16  32   4
#     4  12  24  42  65  95 129 170 214 258 324 379
#     4  10  24  46  68  93 128 163 210 268 315 381
#     4  10  21  38  62  93 131 170 215 264 314 374
#     4   8  24  48  70  96 124 162 218 252 342 360
#
# _framework density 18.392068999999999
#
# number of rings (size 3 to 8) (size 9 to 14) (size 15 to 20)
#    0.571    0.762    3.810    1.143    2.667    4.571 
#    0.000    4.762    0.000    0.000    0.000    0.000 
#    0.000    0.000    0.000    0.000    0.000    0.000 
#
# Total GULP energy -116977.497691 kJ/mol
# GULP energy per Si atom -5570.357033 kJ/mol
# Density = 1.835021 g / cm^3
# Si number density = 18.392069 Si / 1000 Ang^3
#
#
#
# Elastic Constant Matrix: (Units=GPa)
#
#
# Indices 1 2 3 4 5 6 
#
# 1 117.6110 53.8813 75.0214 0.0000 -0.0001 0.0000
# 2 53.8813 144.6089 46.6126 0.0000 -0.0002 0.0000
# 3 75.0214 46.6126 115.6088 0.0000 0.0000 0.0000
# 4 0.0000 0.0000 0.0000 15.4250 -0.0001 0.0000
# 5 -0.0001 -0.0002 0.0000 -0.0001 -69.5136 0.0000
# 6 0.0000 0.0000 0.0000 0.0000 0.0000 19.5633
#
#
#
# Elastic Compliance Matrix: (Units=1/GPa)
#
#
# Indices 1 2 3 4 5 6 
#
# 1 0.015507 -0.002913 -0.008888 0.000000 0.000000 0.000000
# 2 -0.002913 0.008495 -0.001535 0.000000 0.000000 0.000000
# 3 -0.008888 -0.001535 0.015037 0.000000 0.000000 0.000000
# 4 0.000000 0.000000 0.000000 0.064830 0.000000 0.000000
# 5 0.000000 0.000000 0.000000 0.000000 -0.014386 0.000000
# 6 0.000000 0.000000 0.000000 0.000000 0.000000 0.051116
#
#
# Mechanical properties :
#
#
# Convention : Reuss Voigt Hill
#
# Bulk Modulus (GPa) = 80.86448 80.98438 80.92443
# Shear Modulus (GPa) = 29.17271 6.58249 17.87760
#
# Velocity S-wave (km/s) = 3.98698 1.89387 3.12112
# Velocity P-wave (km/s) = 8.07819 6.99358 7.55537
#
# Compressibility (1/GPa) = 0.01236637
#
# Stress axis : x y z
#
# Youngs Moduli (GPa) = 64.48850 117.71189 66.50452
#
# Poissons Ratio (x) = 0.34287 0.59111
# Poissons Ratio (y) = 0.18784 0.10209
# Poissons Ratio (z) = 0.57319 0.18070
#
# Static dielectric constant tensor:
#      x y z
#    x 1.620130 0.000000 0.000000 
#    y 0.000000 1.647380 0.000000 
#    z 0.000000 0.000000 1.620870 
# 
# From -- ./inp_files/32285.got.cif
#   From: 2010.05.17/outbox.cif.g08.bks.cpg/sg69_17_cif.got.tgz:32285.got - 2010.06.03 19:29:58.
