data_PCOD9513998
_publ_section_title
;
Structure prediction by ZEFSAII (Michael W. Deem and Ramdas Pophale) SiO2 
 PCOD9513998
Probable space group: F M M M
;
_chemical_formula_sum "Si O2"
_cell_formula_units_Z 42
_cell_length_a 24.000000
_cell_length_b 24.000000
_cell_length_c 15.000000
_cell_angle_alpha 90.000000
_cell_angle_beta 90.000000
_cell_angle_gamma 90.000000
_cell_volume 8640.000000
_symmetry_space_group_name_H-M "F M M M"
_symmetry_group_IT_number 69
_symmetry_cell_setting 'orthorhombic'
loop_
_space_group_symop_operation_xyz
x,y,z
-x,-y,z
x,-y,-z
-x,y,-z
-x,-y,-z
x,y,-z
-x,y,z
x,-y,z
x,1/2+y,1/2+z
-x,1/2-y,1/2+z
x,1/2-y,1/2-z
-x,1/2+y,1/2-z
-x,1/2-y,1/2-z
x,1/2+y,1/2-z
-x,1/2+y,1/2+z
x,1/2-y,1/2+z
1/2+x,y,1/2+z
1/2-x,-y,1/2+z
1/2+x,-y,1/2-z
1/2-x,y,1/2-z
1/2-x,-y,1/2-z
1/2+x,y,1/2-z
1/2-x,y,1/2+z
1/2+x,-y,1/2+z
1/2+x,1/2+y,z
1/2-x,1/2-y,z
1/2+x,1/2-y,-z
1/2-x,1/2+y,-z
1/2-x,1/2-y,-z
1/2+x,1/2+y,-z
1/2-x,1/2+y,z
1/2+x,1/2-y,z
loop_
_atom_site_type_symbol
_atom_site_label
_atom_site_fract_x
_atom_site_fract_y
_atom_site_fract_z
Si Si1 0.149476 0.362134 0.106837
Si Si2 0.250000 0.250000 0.750000
Si Si3 0.666313 0.229746 0.603944
Si Si4 0.434181 0.565266 0.275899
Si Si5 0.256277 0.064393 0.392190
Si Si6 0.379517 0.388165 0.895682
O O1 0.150163 0.294709 0.120461
O O2 0.101215 0.393992 0.160293
O O3 0.207033 0.393205 0.135245
O O4 0.143135 0.369965 0.000000
O O5 0.288419 0.217014 0.680110
O O6 0.686475 0.226292 0.500000
O O7 0.622242 0.179446 0.612290
O O8 0.500000 0.570275 0.293229
O O9 0.418304 0.500000 0.288323
O O10 0.420557 0.584035 0.174805
O O11 0.253362 0.062683 0.500000
O O12 0.317619 0.088415 0.372349
O O13 0.249473 0.000000 0.360812
O O14 0.390304 0.401493 0.000000
#
# Coordination Sequence:
#
# PCOD9513998 Si02
#       6
#    32   8  32  32  32  32
#     4  10  21  39  60  85 121 157 193 242 295 350
#     4  12  18  28  52  82 128 168 186 228 284 334
#     4  10  21  35  55  86 120 160 204 239 289 358
#     4  11  25  42  61  87 114 148 199 247 296 362
#     4   9  17  30  53  84 115 151 190 227 278 342
#     4  10  21  39  60  85 121 157 193 242 295 350
#
# _framework density 4.8611110000000002
#
# number of rings (size 3 to 8) (size 9 to 14) (size 15 to 20)
#    0.000    1.905    0.000    3.714    0.000    6.857 
#    0.000    5.714    0.000    3.429    0.000    0.000 
#    0.000    0.000    0.000    0.000    0.000    0.000 
#
# Total GULP energy -234523.425945 kJ/mol
# GULP energy per Si atom -5583.891094 kJ/mol
# Density = 0.485005 g / cm^3
# Si number density = 4.861111 Si / 1000 Ang^3
#
#
#
# Elastic Constant Matrix: (Units=GPa)
#
#
# Indices 1 2 3 4 5 6 
#
# 1 62.2480 34.4904 22.5419 0.0000 0.0000 0.0000
# 2 34.4904 147.4562 26.0355 0.0000 0.0000 0.0000
# 3 22.5419 26.0355 88.9912 0.0000 0.0000 0.0000
# 4 0.0000 0.0000 0.0000 27.6564 0.0000 0.0000
# 5 0.0000 0.0000 0.0000 0.0000 26.0014 0.0000
# 6 0.0000 0.0000 0.0000 0.0000 0.0000 23.4882
#
#
#
# Elastic Compliance Matrix: (Units=1/GPa)
#
#
# Indices 1 2 3 4 5 6 
#
# 1 0.019618 -0.003913 -0.003824 0.000000 0.000000 0.000000
# 2 -0.003913 0.007932 -0.001329 0.000000 0.000000 0.000000
# 3 -0.003824 -0.001329 0.012595 0.000000 0.000000 0.000000
# 4 0.000000 0.000000 0.000000 0.036158 0.000000 0.000000
# 5 0.000000 0.000000 0.000000 0.000000 0.038460 0.000000
# 6 0.000000 0.000000 0.000000 0.000000 0.000000 0.042575
#
#
# Mechanical properties :
#
#
# Convention : Reuss Voigt Hill
#
# Bulk Modulus (GPa) = 45.43330 51.64788 48.54059
# Shear Modulus (GPa) = 27.35117 29.80437 28.57777
#
# Velocity S-wave (km/s) = 3.75458 3.91934 3.83784
# Velocity P-wave (km/s) = 6.49709 6.86302 6.68256
#
# Compressibility (1/GPa) = 0.02201029
#
# Stress axis : x y z
#
# Youngs Moduli (GPa) = 50.97335 126.07573 79.39855
#
# Poissons Ratio (x) = 0.49339 0.30365
# Poissons Ratio (y) = 0.19948 0.10554
# Poissons Ratio (z) = 0.19494 0.16758
#
# Static dielectric constant tensor:
#      x y z
#    x 1.669850 0.000000 0.000000 
#    y 0.000000 1.689270 0.000000 
#    z 0.000000 0.000000 1.691860 
# 
# From -- ./inp_files/17903.got.cif
#   From: 2010.05.17/outbox.ucp.g08.bks.cvg/sg69_9_cif.got.tgz:17903.got - 2010.06.11 16:51:34.
