data_PCOD9513875
_publ_section_title
;
Structure prediction by ZEFSAII (Michael W. Deem and Ramdas Pophale) SiO2 
 PCOD9513875
Probable space group: F M M M
;
_chemical_formula_sum "Si O2"
_cell_formula_units_Z 112
_cell_length_a 14.619710
_cell_length_b 27.778948
_cell_length_c 12.869262
_cell_angle_alpha 90.000000
_cell_angle_beta 90.000000
_cell_angle_gamma 90.000000
_cell_volume 5226.466792
_symmetry_space_group_name_H-M "F M M M"
_symmetry_group_IT_number 69
_symmetry_cell_setting 'orthorhombic'
loop_
_space_group_symop_operation_xyz
x,y,z
-x,-y,z
x,-y,-z
-x,y,-z
-x,-y,-z
x,y,-z
-x,y,z
x,-y,z
x,1/2+y,1/2+z
-x,1/2-y,1/2+z
x,1/2-y,1/2-z
-x,1/2+y,1/2-z
-x,1/2-y,1/2-z
x,1/2+y,1/2-z
-x,1/2+y,1/2+z
x,1/2-y,1/2+z
1/2+x,y,1/2+z
1/2-x,-y,1/2+z
1/2+x,-y,1/2-z
1/2-x,y,1/2-z
1/2-x,-y,1/2-z
1/2+x,y,1/2-z
1/2-x,y,1/2+z
1/2+x,-y,1/2+z
1/2+x,1/2+y,z
1/2-x,1/2-y,z
1/2+x,1/2-y,-z
1/2-x,1/2+y,-z
1/2-x,1/2-y,-z
1/2+x,1/2+y,-z
1/2-x,1/2+y,z
1/2+x,1/2-y,z
loop_
_atom_site_type_symbol
_atom_site_label
_atom_site_fract_x
_atom_site_fract_y
_atom_site_fract_z
Si Si1 0.500000 0.057454 0.119442
Si Si2 0.644550 0.900303 0.722438
Si Si3 0.731382 0.306972 0.500000
Si Si4 0.105658 0.384972 0.500000
Si Si5 0.393861 0.699779 0.697029
O O1 0.585683 0.075425 0.186987
O O2 0.500000 0.000000 0.115551
O O3 0.500000 0.075806 0.000000
O O4 0.750000 0.905644 0.750000
O O5 0.622480 0.915487 0.605038
O O6 0.616214 0.843946 0.723498
O O7 0.750000 0.250000 0.500000
O O8 0.819350 0.341625 0.500000
O O9 0.670060 0.314827 0.601796
O O10 0.000000 0.368078 0.500000
O O11 0.500000 0.704298 0.664572
O O12 0.366391 0.750000 0.750000
#
# Coordination Sequence:
#
# PCOD9513875 Si02
#       5
#    16  32  16  16  32
#     4  11  28  53  80 109 143 180 233 305 372 443
#     4  12  25  44  75 104 143 190 238 293 360 432
#     4  12  25  37  62  93 143 192 251 301 353 404
#     4  12  24  43  66 105 140 190 240 297 354 420
#     4  11  24  41  63  99 141 193 248 296 349 422
#
# _framework density 21.429392
#
# number of rings (size 3 to 8) (size 9 to 14) (size 15 to 20)
#    0.000    0.429    5.714    2.143    4.000    4.000 
#    0.000    1.429    0.000    0.857    0.000    0.000 
#    0.000    0.000    0.000    0.000    0.000    0.000 
#
# Total GULP energy -156673.635263 kJ/mol
# GULP energy per Si atom -5595.486974 kJ/mol
# Density = 2.138062 g / cm^3
# Si number density = 21.429392 Si / 1000 Ang^3
#
#
#
# Elastic Constant Matrix: (Units=GPa)
#
#
# Indices 1 2 3 4 5 6 
#
# 1 201.2208 23.3366 75.4085 0.0000 0.0000 0.0000
# 2 23.3366 49.8971 32.8917 0.0000 0.0000 0.0000
# 3 75.4085 32.8917 194.0129 0.0000 0.0000 0.0000
# 4 0.0000 0.0000 0.0000 23.5304 0.0000 0.0000
# 5 0.0000 0.0000 0.0000 0.0000 36.5095 0.0000
# 6 0.0000 0.0000 0.0000 0.0000 0.0000 -51.4565
#
#
#
# Elastic Compliance Matrix: (Units=1/GPa)
#
#
# Indices 1 2 3 4 5 6 
#
# 1 0.005903 -0.001405 -0.002056 0.000000 0.000000 0.000000
# 2 -0.001405 0.022897 -0.003336 0.000000 0.000000 0.000000
# 3 -0.002056 -0.003336 0.006519 0.000000 0.000000 0.000000
# 4 0.000000 0.000000 0.000000 0.042498 0.000000 0.000000
# 5 0.000000 0.000000 0.000000 0.000000 0.027390 0.000000
# 6 0.000000 0.000000 0.000000 0.000000 0.000000 -0.019434
#
#
# Mechanical properties :
#
#
# Convention : Reuss Voigt Hill
#
# Bulk Modulus (GPa) = 46.02978 78.71159 62.37069
# Shear Modulus (GPa) = 46.89981 22.61628 34.75805
#
# Velocity S-wave (km/s) = 4.68330 3.25220 4.03175
# Velocity P-wave (km/s) = 7.12536 7.13532 7.13034
#
# Compressibility (1/GPa) = 0.02172506
#
# Stress axis : x y z
#
# Youngs Moduli (GPa) = 169.39878 43.67314 153.39830
#
# Poissons Ratio (x) = 0.06138 0.31541
# Poissons Ratio (y) = 0.23809 0.51167
# Poissons Ratio (z) = 0.34831 0.14568
#
# Static dielectric constant tensor:
#      x y z
#    x 1.775380 0.000000 0.000000 
#    y 0.000000 1.772450 0.000000 
#    z 0.000000 0.000000 1.860410 
# 
# From -- ./inp_files/7446.got.cif
#   From: 2010.05.17/outbox.cif.g08.bks.cpg/sg69_4_cif.got.tgz:7446.got - 2010.06.03 19:29:58.
