data_PCOD9513189
_publ_section_title
;
Structure prediction by ZEFSAII (Michael W. Deem and Ramdas Pophale) SiO2 
 PCOD9513189
Probable space group: F M M M
;
_chemical_formula_sum "Si O2"
_cell_formula_units_Z 192
_cell_length_a 30.277946
_cell_length_b 19.178042
_cell_length_c 17.924533
_cell_angle_alpha 90.000000
_cell_angle_beta 90.000000
_cell_angle_gamma 90.000000
_cell_volume 10408.269408
_symmetry_space_group_name_H-M "F M M M"
_symmetry_group_IT_number 69
_symmetry_cell_setting 'orthorhombic'
loop_
_space_group_symop_operation_xyz
x,y,z
-x,-y,z
x,-y,-z
-x,y,-z
-x,-y,-z
x,y,-z
-x,y,z
x,-y,z
x,1/2+y,1/2+z
-x,1/2-y,1/2+z
x,1/2-y,1/2-z
-x,1/2+y,1/2-z
-x,1/2-y,1/2-z
x,1/2+y,1/2-z
-x,1/2+y,1/2+z
x,1/2-y,1/2+z
1/2+x,y,1/2+z
1/2-x,-y,1/2+z
1/2+x,-y,1/2-z
1/2-x,y,1/2-z
1/2-x,-y,1/2-z
1/2+x,y,1/2-z
1/2-x,y,1/2+z
1/2+x,-y,1/2+z
1/2+x,1/2+y,z
1/2-x,1/2-y,z
1/2+x,1/2-y,-z
1/2-x,1/2+y,-z
1/2-x,1/2-y,-z
1/2+x,1/2+y,-z
1/2-x,1/2+y,z
1/2+x,1/2-y,z
loop_
_atom_site_type_symbol
_atom_site_label
_atom_site_fract_x
_atom_site_fract_y
_atom_site_fract_z
Si Si1 0.000000 0.921129 0.318631
Si Si2 0.825562 0.717681 0.333663
Si Si3 0.082822 0.286785 0.585915
Si Si4 0.415001 0.619201 0.584944
Si Si5 0.766995 0.922448 0.834648
Si Si6 0.816641 0.636838 0.911172
Si Si7 0.500000 0.812860 0.689430
O O1 0.044192 0.906621 0.366533
O O2 0.000000 0.877604 0.243740
O O3 0.000000 0.000000 0.297044
O O4 0.828588 0.750000 0.250000
O O5 0.872708 0.698115 0.368752
O O6 0.796767 0.647389 0.339236
O O7 0.809063 0.784631 0.380882
O O8 0.083335 0.312285 0.500000
O O9 0.080188 0.202808 0.581833
O O10 0.041924 0.310646 0.635345
O O11 0.417899 0.591853 0.500000
O O12 0.364942 0.608846 0.615048
O O13 0.750000 0.923793 0.750000
O O14 0.723912 0.909871 0.885305
O O15 0.786418 0.000000 0.850962
O O16 0.819729 0.640246 0.000000
O O17 0.500000 0.750000 0.750000
#
# Coordination Sequence:
#
# PCOD9513189 Si02
#       7
#    16  32  32  32  32  32  16
#     4  12  25  36  55  92 131 164 198 241 295 361
#     4  11  21  37  65  93 121 157 199 257 307 362
#     4  10  21  38  64  94 120 150 201 256 300 347
#     4   9  19  37  59  89 123 157 195 243 302 363
#     4  11  24  40  58  86 123 163 205 250 306 366
#     4  10  22  39  63  90 120 159 208 257 303 358
#     4  12  21  37  65  89 117 160 202 244 294 351
#
# _framework density 18.446871000000002
#
# number of rings (size 3 to 8) (size 9 to 14) (size 15 to 20)
#    0.000    1.500    3.333    3.000    2.333    5.000 
#    0.000    4.167    0.000    2.000    0.000    0.000 
#    0.000    0.000    0.000    0.000    0.000    0.000 
#
# Total GULP energy -267747.433104 kJ/mol
# GULP energy per Si atom -5578.071523 kJ/mol
# Density = 1.840488 g / cm^3
# Si number density = 18.446871 Si / 1000 Ang^3
#
#
#
# Elastic Constant Matrix: (Units=GPa)
#
#
# Indices 1 2 3 4 5 6 
#
# 1 110.0984 73.8550 66.8042 0.0000 0.0000 0.0000
# 2 73.8550 88.6654 37.3621 0.0000 0.0000 0.0000
# 3 66.8042 37.3621 102.0213 0.0000 0.0000 0.0000
# 4 0.0000 0.0000 0.0000 -294.0661 0.0000 0.0000
# 5 0.0000 0.0000 0.0000 0.0000 31.7620 0.0000
# 6 0.0000 0.0000 0.0000 0.0000 0.0000 -9.3832
#
#
#
# Elastic Compliance Matrix: (Units=1/GPa)
#
#
# Indices 1 2 3 4 5 6 
#
# 1 0.029567 -0.019475 -0.012228 0.000000 0.000000 0.000000
# 2 -0.019475 0.026164 0.003171 0.000000 0.000000 0.000000
# 3 -0.012228 0.003171 0.016648 0.000000 0.000000 0.000000
# 4 0.000000 0.000000 0.000000 -0.003401 0.000000 0.000000
# 5 0.000000 0.000000 0.000000 0.000000 0.031484 0.000000
# 6 0.000000 0.000000 0.000000 0.000000 0.000000 -0.106573
#
#
# Mechanical properties :
#
#
# Convention : Reuss Voigt Hill
#
# Bulk Modulus (GPa) = 65.30293 72.98086 69.14189
# Shear Modulus (GPa) = 89.19198 -46.15321 21.51939
#
# Velocity S-wave (km/s) = 6.96101 -5.00738 3.41920
# Velocity P-wave (km/s) = 10.00425 2.49336 7.29047
#
# Compressibility (1/GPa) = 0.01531325
#
# Stress axis : x y z
#
# Youngs Moduli (GPa) = 33.82206 38.21994 60.06767
#
# Poissons Ratio (x) = 0.74433 0.73452
# Poissons Ratio (y) = 0.65869 -0.19045
# Poissons Ratio (z) = 0.41358 -0.12118
#
# Static dielectric constant tensor:
#      x y z
#    x 1.696010 0.000000 0.000000 
#    y 0.000000 1.631950 0.000000 
#    z 0.000000 0.000000 1.606400 
# 
# From -- ./inp_files/27817.got.cif
#   From: 2010.05.17/outbox.cif.g08.bks.cpg/sg69_14_cif.got.tgz:27817.got - 2010.06.03 19:29:58.
