data_PCOD9513505
_publ_section_title
;
Structure prediction by ZEFSAII (Michael W. Deem and Ramdas Pophale) SiO2 
 PCOD9513505
Probable space group: F M M M
;
_chemical_formula_sum "Si O2"
_cell_formula_units_Z 160
_cell_length_a 18.706298
_cell_length_b 15.528485
_cell_length_c 29.006819
_cell_angle_alpha 90.000000
_cell_angle_beta 90.000000
_cell_angle_gamma 90.000000
_cell_volume 8425.914355
_symmetry_space_group_name_H-M "F M M M"
_symmetry_group_IT_number 69
_symmetry_cell_setting 'orthorhombic'
loop_
_space_group_symop_operation_xyz
x,y,z
-x,-y,z
x,-y,-z
-x,y,-z
-x,-y,-z
x,y,-z
-x,y,z
x,-y,z
x,1/2+y,1/2+z
-x,1/2-y,1/2+z
x,1/2-y,1/2-z
-x,1/2+y,1/2-z
-x,1/2-y,1/2-z
x,1/2+y,1/2-z
-x,1/2+y,1/2+z
x,1/2-y,1/2+z
1/2+x,y,1/2+z
1/2-x,-y,1/2+z
1/2+x,-y,1/2-z
1/2-x,y,1/2-z
1/2-x,-y,1/2-z
1/2+x,y,1/2-z
1/2-x,y,1/2+z
1/2+x,-y,1/2+z
1/2+x,1/2+y,z
1/2-x,1/2-y,z
1/2+x,1/2-y,-z
1/2-x,1/2+y,-z
1/2-x,1/2-y,-z
1/2+x,1/2+y,-z
1/2-x,1/2+y,z
1/2+x,1/2-y,z
loop_
_atom_site_type_symbol
_atom_site_label
_atom_site_fract_x
_atom_site_fract_y
_atom_site_fract_z
Si Si1 0.333599 0.149805 0.803586
Si Si2 0.585566 0.000000 0.638900
Si Si3 0.788643 0.663616 0.945004
Si Si4 0.918941 0.099487 0.611141
Si Si5 0.312658 0.500000 0.054430
Si Si6 0.668099 0.144114 0.304871
O O1 0.389356 0.105108 0.837005
O O2 0.343185 0.128535 0.749782
O O3 0.341434 0.253046 0.810527
O O4 0.251652 0.125659 0.815654
O O5 0.619802 0.000000 0.587937
O O6 0.617267 0.083684 0.665334
O O7 0.500000 0.000000 0.638729
O O8 0.750000 0.750000 0.928849
O O9 0.863300 0.651141 0.919762
O O10 0.736798 0.583001 0.936080
O O11 0.799768 0.668779 0.000000
O O12 0.000000 0.130957 0.608283
O O13 0.917101 0.000000 0.596025
O O14 0.331067 0.500000 0.000000
#
# Coordination Sequence:
#
# PCOD9513505 Si02
#       6
#    32  16  32  32  16  32
#     4   9  20  40  62  86 117 155 208 254 297 351
#     4  12  26  38  57  91 126 162 200 243 303 365
#     4  10  22  42  68  92 116 156 207 254 300 359
#     4  11  24  37  58  93 128 159 190 245 316 367
#     4  10  22  43  66  90 119 157 210 260 303 357
#     4   9  21  39  62  87 113 160 209 253 293 346
#
# _framework density 18.989037
#
# number of rings (size 3 to 8) (size 9 to 14) (size 15 to 20)
#    0.000    2.000    1.000    2.400    8.400    3.000 
#    0.000    3.000    0.000    3.600    0.000    0.000 
#    0.000    0.000    0.000    0.000    0.000    0.000 
#
# Total GULP energy -223534.399831 kJ/mol
# GULP energy per Si atom -5588.359996 kJ/mol
# Density = 1.894582 g / cm^3
# Si number density = 18.989037 Si / 1000 Ang^3
#
#
#
# Elastic Constant Matrix: (Units=GPa)
#
#
# Indices 1 2 3 4 5 6 
#
# 1 185.9863 73.9533 83.5238 0.0000 0.0000 0.0000
# 2 73.9533 91.4253 43.5813 0.0000 0.0000 0.0000
# 3 83.5238 43.5813 85.6391 0.0000 0.0000 0.0000
# 4 0.0000 0.0000 0.0000 -14.7684 0.0000 0.0000
# 5 0.0000 0.0000 0.0000 0.0000 -5.2446 0.0000
# 6 0.0000 0.0000 0.0000 0.0000 0.0000 28.1385
#
#
#
# Elastic Compliance Matrix: (Units=1/GPa)
#
#
# Indices 1 2 3 4 5 6 
#
# 1 0.011081 -0.005033 -0.008246 0.000000 0.000000 0.000000
# 2 -0.005033 0.016727 -0.003604 0.000000 0.000000 0.000000
# 3 -0.008246 -0.003604 0.021554 0.000000 0.000000 0.000000
# 4 0.000000 0.000000 0.000000 -0.067712 0.000000 0.000000
# 5 0.000000 0.000000 0.000000 0.000000 -0.190672 0.000000
# 6 0.000000 0.000000 0.000000 0.000000 0.000000 0.035538
#
#
# Mechanical properties :
#
#
# Convention : Reuss Voigt Hill
#
# Bulk Modulus (GPa) = 64.11995 85.01859 74.56927
# Shear Modulus (GPa) = -37.16926 12.42458 -12.37234
#
# Velocity S-wave (km/s) = -4.42906 2.56071 -2.55532
# Velocity P-wave (km/s) = 2.77213 7.32206 5.53612
#
# Compressibility (1/GPa) = 0.01559577
#
# Stress axis : x y z
#
# Youngs Moduli (GPa) = 90.24316 59.78514 46.39583
#
# Poissons Ratio (x) = 0.30087 0.38260
# Poissons Ratio (y) = 0.45415 0.16720
# Poissons Ratio (z) = 0.74419 0.21546
#
# Static dielectric constant tensor:
#      x y z
#    x 1.612240 0.000000 0.000000 
#    y 0.000000 1.667830 0.000000 
#    z 0.000000 0.000000 1.671260 
# 
# From -- ./inp_files/46286.got.cif
#   From: 2010.05.17/outbox.cif.g08.bks.cpg/sg69_24_cif.got.tgz:46286.got - 2010.06.03 19:29:58.
