data_PCOD9513908
_publ_section_title
;
Structure prediction by ZEFSAII (Michael W. Deem and Ramdas Pophale) SiO2 
 PCOD9513908
Probable space group: F M M M
;
_chemical_formula_sum "Si O2"
_cell_formula_units_Z 112
_cell_length_a 15.078535
_cell_length_b 25.589295
_cell_length_c 12.772740
_cell_angle_alpha 90.000000
_cell_angle_beta 90.000000
_cell_angle_gamma 90.000000
_cell_volume 4928.349982
_symmetry_space_group_name_H-M "F M M M"
_symmetry_group_IT_number 69
_symmetry_cell_setting 'orthorhombic'
loop_
_space_group_symop_operation_xyz
x,y,z
-x,-y,z
x,-y,-z
-x,y,-z
-x,-y,-z
x,y,-z
-x,y,z
x,-y,z
x,1/2+y,1/2+z
-x,1/2-y,1/2+z
x,1/2-y,1/2-z
-x,1/2+y,1/2-z
-x,1/2-y,1/2-z
x,1/2+y,1/2-z
-x,1/2+y,1/2+z
x,1/2-y,1/2+z
1/2+x,y,1/2+z
1/2-x,-y,1/2+z
1/2+x,-y,1/2-z
1/2-x,y,1/2-z
1/2-x,-y,1/2-z
1/2+x,y,1/2-z
1/2-x,y,1/2+z
1/2+x,-y,1/2+z
1/2+x,1/2+y,z
1/2-x,1/2-y,z
1/2+x,1/2-y,-z
1/2-x,1/2+y,-z
1/2-x,1/2-y,-z
1/2+x,1/2+y,-z
1/2-x,1/2+y,z
1/2+x,1/2-y,z
loop_
_atom_site_type_symbol
_atom_site_label
_atom_site_fract_x
_atom_site_fract_y
_atom_site_fract_z
Si Si1 0.894344 0.393998 0.000000
Si Si2 0.895961 0.000000 0.116895
Si Si3 0.148131 0.092389 0.725036
Si Si4 0.899862 0.302635 0.688975
Si Si5 0.768018 0.688609 0.500000
O O1 0.871618 0.425074 0.893312
O O2 0.821734 0.345887 0.000000
O O3 0.000000 0.380483 0.000000
O O4 0.876512 0.050472 0.187207
O O5 0.000000 0.000000 0.102168
O O6 0.853996 0.000000 0.000000
O O7 0.250000 0.102735 0.750000
O O8 0.098738 0.147651 0.735273
O O9 0.872568 0.250000 0.750000
O O10 0.830700 0.319170 0.600286
O O11 0.000000 0.293618 0.647826
O O12 0.750000 0.750000 0.500000
#
# Coordination Sequence:
#
# PCOD9513908 Si02
#       5
#    16  16  32  32  16
#     4  12  26  46  74 107 149 199 254 309 373 453
#     4  11  27  49  77 111 147 191 251 318 380 449
#     4  12  26  48  74 107 151 196 251 310 378 447
#     4  11  25  45  71 106 147 195 251 308 375 450
#     4  12  25  41  69 102 147 194 252 313 372 436
#
# _framework density 22.725657999999999
#
# number of rings (size 3 to 8) (size 9 to 14) (size 15 to 20)
#    0.000    0.429    2.857    5.143    4.000    4.000 
#    0.000    1.429    0.000    0.857    0.000    0.000 
#    0.000    0.000    0.000    0.000    0.000    0.000 
#
# Total GULP energy -156516.499362 kJ/mol
# GULP energy per Si atom -5589.874977 kJ/mol
# Density = 2.267393 g / cm^3
# Si number density = 22.725658 Si / 1000 Ang^3
#
#
#
# Elastic Constant Matrix: (Units=GPa)
#
#
# Indices 1 2 3 4 5 6 
#
# 1 166.2747 17.3817 54.7667 0.0000 0.0000 0.0000
# 2 17.3817 119.3237 58.8586 0.0000 0.0000 0.0000
# 3 54.7667 58.8586 200.6489 0.0000 0.0000 0.0000
# 4 0.0000 0.0000 0.0000 45.7888 0.0000 0.0000
# 5 0.0000 0.0000 0.0000 0.0000 37.5668 0.0000
# 6 0.0000 0.0000 0.0000 0.0000 0.0000 22.1644
#
#
#
# Elastic Compliance Matrix: (Units=1/GPa)
#
#
# Indices 1 2 3 4 5 6 
#
# 1 0.006609 -0.000085 -0.001779 0.000000 0.000000 0.000000
# 2 -0.000085 0.009799 -0.002851 0.000000 0.000000 0.000000
# 3 -0.001779 -0.002851 0.006306 0.000000 0.000000 0.000000
# 4 0.000000 0.000000 0.000000 0.021839 0.000000 0.000000
# 5 0.000000 0.000000 0.000000 0.000000 0.026619 0.000000
# 6 0.000000 0.000000 0.000000 0.000000 0.000000 0.045117
#
#
# Mechanical properties :
#
#
# Convention : Reuss Voigt Hill
#
# Bulk Modulus (GPa) = 75.28255 83.14016 79.21135
# Shear Modulus (GPa) = 38.41753 44.78669 41.60211
#
# Velocity S-wave (km/s) = 4.11602 4.44413 4.28322
# Velocity P-wave (km/s) = 7.46910 7.93709 7.70665
#
# Compressibility (1/GPa) = 0.01328329
#
# Stress axis : x y z
#
# Youngs Moduli (GPa) = 151.30927 102.04654 158.58445
#
# Poissons Ratio (x) = 0.00870 0.28211
# Poissons Ratio (y) = 0.01290 0.45217
# Poissons Ratio (z) = 0.26916 0.29097
#
# Static dielectric constant tensor:
#      x y z
#    x 1.846540 0.000000 0.000000 
#    y 0.000000 1.784330 0.000000 
#    z 0.000000 0.000000 1.616480 
# 
# From -- ./inp_files/7384.got.cif
#   From: 2010.05.17/outbox.cif.g08.bks.cpg/sg69_4_cif.got.tgz:7384.got - 2010.06.03 19:29:58.
