data_PCOD9513839
_publ_section_title
;
Structure prediction by ZEFSAII (Michael W. Deem and Ramdas Pophale) SiO2 
 PCOD9513839
Probable space group: F M M M
;
_chemical_formula_sum "Si O2"
_cell_formula_units_Z 168
_cell_length_a 22.975380
_cell_length_b 14.722532
_cell_length_c 23.892002
_cell_angle_alpha 90.000000
_cell_angle_beta 90.000000
_cell_angle_gamma 90.000000
_cell_volume 8081.607468
_symmetry_space_group_name_H-M "F M M M"
_symmetry_group_IT_number 69
_symmetry_cell_setting 'orthorhombic'
loop_
_space_group_symop_operation_xyz
x,y,z
-x,-y,z
x,-y,-z
-x,y,-z
-x,-y,-z
x,y,-z
-x,y,z
x,-y,z
x,1/2+y,1/2+z
-x,1/2-y,1/2+z
x,1/2-y,1/2-z
-x,1/2+y,1/2-z
-x,1/2-y,1/2-z
x,1/2+y,1/2-z
-x,1/2+y,1/2+z
x,1/2-y,1/2+z
1/2+x,y,1/2+z
1/2-x,-y,1/2+z
1/2+x,-y,1/2-z
1/2-x,y,1/2-z
1/2-x,-y,1/2-z
1/2+x,y,1/2-z
1/2-x,y,1/2+z
1/2+x,-y,1/2+z
1/2+x,1/2+y,z
1/2-x,1/2-y,z
1/2+x,1/2-y,-z
1/2-x,1/2+y,-z
1/2-x,1/2-y,-z
1/2+x,1/2+y,-z
1/2-x,1/2+y,z
1/2+x,1/2-y,z
loop_
_atom_site_type_symbol
_atom_site_label
_atom_site_fract_x
_atom_site_fract_y
_atom_site_fract_z
Si Si1 0.835668 0.608233 0.705716
Si Si2 0.785873 0.000000 0.000000
Si Si3 0.930845 0.771542 0.837930
Si Si4 0.429727 0.599511 0.936785
Si Si5 0.741499 0.353407 0.902491
Si Si6 0.151210 0.103635 0.671398
O O1 0.838564 0.500000 0.698355
O O2 0.898333 0.657775 0.702756
O O3 0.798764 0.646088 0.653669
O O4 0.815935 0.624215 0.769664
O O5 0.781827 0.920312 0.049874
O O6 0.916528 0.816321 0.898222
O O7 0.900590 0.674758 0.834502
O O8 0.000000 0.769203 0.829564
O O9 0.500000 0.596344 0.939219
O O10 0.410944 0.500000 0.914925
O O11 0.407761 0.606498 0.000000
O O12 0.750000 0.250000 0.921844
O O13 0.803713 0.387322 0.879181
O O14 0.130434 0.000000 0.674969
#
# Coordination Sequence:
#
# PCOD9513839 Si02
#       6
#    32   8  32  32  32  32
#     4  11  23  41  68 101 134 173 220 276 342 403
#     4  12  26  48  70 106 146 160 210 282 344 404
#     4  11  23  39  61  96 137 178 231 283 329 387
#     4   8  15  32  56  82 116 161 214 272 332 387
#     4  12  24  45  73 103 133 171 216 271 340 412
#     4  11  24  43  67  95 133 181 224 272 333 399
#
# _framework density 20.787944
#
# number of rings (size 3 to 8) (size 9 to 14) (size 15 to 20)
#    0.000    1.333    3.810    2.571    0.000    5.333 
#    3.429    1.905    0.000    0.000    0.000    3.333 
#    0.000    0.000    0.000    0.000    0.000    0.000 
#
# Total GULP energy -234174.355534 kJ/mol
# GULP energy per Si atom -5575.579894 kJ/mol
# Density = 2.074063 g / cm^3
# Si number density = 20.787944 Si / 1000 Ang^3
#
#
#
# Elastic Constant Matrix: (Units=GPa)
#
#
# Indices 1 2 3 4 5 6 
#
# 1 73.1093 26.4449 12.4326 0.0000 0.0000 0.0000
# 2 26.4449 152.7687 46.7910 0.0000 0.0000 0.0000
# 3 12.4326 46.7910 112.9908 0.0000 0.0000 0.0000
# 4 0.0000 0.0000 0.0000 1162.2596 0.0000 0.0000
# 5 0.0000 0.0000 0.0000 0.0000 26.3936 0.0000
# 6 0.0000 0.0000 0.0000 0.0000 0.0000 17.7127
#
#
#
# Elastic Compliance Matrix: (Units=1/GPa)
#
#
# Indices 1 2 3 4 5 6 
#
# 1 0.014632 -0.002336 -0.000643 0.000000 0.000000 0.000000
# 2 -0.002336 0.007870 -0.003002 0.000000 0.000000 0.000000
# 3 -0.000643 -0.003002 0.010164 0.000000 0.000000 0.000000
# 4 0.000000 0.000000 0.000000 0.000860 0.000000 0.000000
# 5 0.000000 0.000000 0.000000 0.000000 0.037888 0.000000
# 6 0.000000 0.000000 0.000000 0.000000 0.000000 0.056457
#
#
# Mechanical properties :
#
#
# Convention : Reuss Voigt Hill
#
# Bulk Modulus (GPa) = 48.29756 56.68954 52.49355
# Shear Modulus (GPa) = 34.07523 258.15320 146.11422
#
# Velocity S-wave (km/s) = 4.05307 11.15588 8.39289
# Velocity P-wave (km/s) = 6.72214 13.90208 10.91913
#
# Compressibility (1/GPa) = 0.02070498
#
# Stress axis : x y z
#
# Youngs Moduli (GPa) = 68.34129 127.07015 98.38542
#
# Poissons Ratio (x) = 0.29685 0.06322
# Poissons Ratio (y) = 0.15965 0.29534
# Poissons Ratio (z) = 0.04392 0.38145
#
# Static dielectric constant tensor:
#      x y z
#    x 1.793190 0.000000 0.000000 
#    y 0.000000 1.726380 0.000000 
#    z 0.000000 0.000000 1.784180 
# 
# From -- ./inp_files/37830.got.cif
#   From: 2010.05.17/outbox.cif.g08.bks.cpg/sg69_19_cif.got.tgz:37830.got - 2010.06.03 19:29:58.
