data_PCOD9513694
_publ_section_title
;
Structure prediction by ZEFSAII (Michael W. Deem and Ramdas Pophale) SiO2 
 PCOD9513694
Probable space group: F M M M
;
_chemical_formula_sum "Si O2"
_cell_formula_units_Z 192
_cell_length_a 15.646095
_cell_length_b 29.882146
_cell_length_c 22.472341
_cell_angle_alpha 90.000000
_cell_angle_beta 90.000000
_cell_angle_gamma 90.000000
_cell_volume 10506.693482
_symmetry_space_group_name_H-M "F M M M"
_symmetry_group_IT_number 69
_symmetry_cell_setting 'orthorhombic'
loop_
_space_group_symop_operation_xyz
x,y,z
-x,-y,z
x,-y,-z
-x,y,-z
-x,-y,-z
x,y,-z
-x,y,z
x,-y,z
x,1/2+y,1/2+z
-x,1/2-y,1/2+z
x,1/2-y,1/2-z
-x,1/2+y,1/2-z
-x,1/2-y,1/2-z
x,1/2+y,1/2-z
-x,1/2+y,1/2+z
x,1/2-y,1/2+z
1/2+x,y,1/2+z
1/2-x,-y,1/2+z
1/2+x,-y,1/2-z
1/2-x,y,1/2-z
1/2-x,-y,1/2-z
1/2+x,y,1/2-z
1/2-x,y,1/2+z
1/2+x,-y,1/2+z
1/2+x,1/2+y,z
1/2-x,1/2-y,z
1/2+x,1/2-y,-z
1/2-x,1/2+y,-z
1/2-x,1/2-y,-z
1/2+x,1/2+y,-z
1/2-x,1/2+y,z
1/2+x,1/2-y,z
loop_
_atom_site_type_symbol
_atom_site_label
_atom_site_fract_x
_atom_site_fract_y
_atom_site_fract_z
Si Si1 0.000000 0.726000 0.429146
Si Si2 0.896516 0.196565 0.256925
Si Si3 0.142867 0.834300 0.873929
Si Si4 0.284223 0.949724 0.929544
Si Si5 0.168931 0.141896 0.372117
Si Si6 0.000000 0.325261 0.069849
Si Si7 0.907128 0.574877 0.431012
O O1 0.915142 0.701885 0.406516
O O2 0.000000 0.725519 0.500000
O O3 0.000000 0.775647 0.402997
O O4 0.875901 0.250000 0.250000
O O5 0.865095 0.174799 0.195686
O O6 0.854300 0.167159 0.309961
O O7 0.000000 0.193189 0.261601
O O8 0.241806 0.835953 0.892804
O O9 0.102243 0.881898 0.890100
O O10 0.314585 0.911416 0.883230
O O11 0.180918 0.951408 0.923973
O O12 0.318009 0.000000 0.918828
O O13 0.301825 0.938020 0.000000
O O14 0.086104 0.151110 0.411110
O O15 0.000000 0.320282 0.000000
O O16 0.907055 0.590196 0.500000
O O17 0.000000 0.553193 0.420735
#
# Coordination Sequence:
#
# PCOD9513694 Si02
#       7
#    16  32  32  32  32  16  32
#     4  11  22  35  55  84 119 153 192 240 295 367
#     4  11  22  38  60  84 114 156 205 254 300 356
#     4  11  21  35  57  84 116 155 193 243 297 362
#     4   9  19  36  59  88 119 154 202 257 309 363
#     4  11  23  39  60  84 117 160 200 251 303 359
#     4  11  24  39  54  79 115 157 201 244 292 352
#     4   9  16  29  53  84 118 153 189 237 302 368
#
# _framework density 18.274065
#
# number of rings (size 3 to 8) (size 9 to 14) (size 15 to 20)
#    0.000    1.667    2.500    2.500    0.000    5.667 
#    0.000    3.750    0.000    9.500    0.000    0.000 
#    0.000    0.000    0.000    0.000    0.000    0.000 
#
# Total GULP energy -267362.337846 kJ/mol
# GULP energy per Si atom -5570.048705 kJ/mol
# Density = 1.823247 g / cm^3
# Si number density = 18.274065 Si / 1000 Ang^3
#
#
#
# Elastic Constant Matrix: (Units=GPa)
#
#
# Indices 1 2 3 4 5 6 
#
# 1 122.6604 43.6253 30.4160 0.0000 0.0000 0.0000
# 2 43.6253 125.3494 44.4250 0.0000 0.0000 0.0000
# 3 30.4160 44.4250 65.8620 0.0000 0.0000 0.0000
# 4 0.0000 0.0000 0.0000 20.6805 0.0000 0.0000
# 5 0.0000 0.0000 0.0000 0.0000 1.0242 0.0000
# 6 0.0000 0.0000 0.0000 0.0000 0.0000 -7.1039
#
#
#
# Elastic Compliance Matrix: (Units=1/GPa)
#
#
# Indices 1 2 3 4 5 6 
#
# 1 0.009707 -0.002352 -0.002897 0.000000 0.000000 0.000000
# 2 -0.002352 0.011054 -0.006370 0.000000 0.000000 0.000000
# 3 -0.002897 -0.006370 0.020818 0.000000 0.000000 0.000000
# 4 0.000000 0.000000 0.000000 0.048355 0.000000 0.000000
# 5 0.000000 0.000000 0.000000 0.000000 0.976380 0.000000
# 6 0.000000 0.000000 0.000000 0.000000 0.000000 -0.140767
#
#
# Mechanical properties :
#
#
# Convention : Reuss Voigt Hill
#
# Bulk Modulus (GPa) = 54.51966 61.20049 57.86007
# Shear Modulus (GPa) = 5.23617 15.94717 10.59167
#
# Velocity S-wave (km/s) = 1.69457 2.95730 2.41010
# Velocity P-wave (km/s) = 5.80758 6.72487 6.28299
#
# Compressibility (1/GPa) = 0.01834201
#
# Stress axis : x y z
#
# Youngs Moduli (GPa) = 103.01501 90.46714 48.03647
#
# Poissons Ratio (x) = 0.21276 0.13914
# Poissons Ratio (y) = 0.24228 0.30598
# Poissons Ratio (z) = 0.29840 0.57626
#
# Static dielectric constant tensor:
#      x y z
#    x 1.644310 0.000000 0.000000 
#    y 0.000000 1.644690 0.000000 
#    z 0.000000 0.000000 1.551270 
# 
# From -- ./inp_files/36108.got.cif
#   From: 2010.05.17/outbox.cif.g08.bks.cpg/sg69_19_cif.got.tgz:36108.got - 2010.06.03 19:29:58.
