data_PCOD9513751
_publ_section_title
;
Structure prediction by ZEFSAII (Michael W. Deem and Ramdas Pophale) SiO2 
 PCOD9513751
Probable space group: F M M M
;
_chemical_formula_sum "Si O2"
_cell_formula_units_Z 208
_cell_length_a 29.434443
_cell_length_b 17.694702
_cell_length_c 21.160190
_cell_angle_alpha 90.000000
_cell_angle_beta 90.000000
_cell_angle_gamma 90.000000
_cell_volume 11020.939996
_symmetry_space_group_name_H-M "F M M M"
_symmetry_group_IT_number 69
_symmetry_cell_setting 'orthorhombic'
loop_
_space_group_symop_operation_xyz
x,y,z
-x,-y,z
x,-y,-z
-x,y,-z
-x,-y,-z
x,y,-z
-x,y,z
x,-y,z
x,1/2+y,1/2+z
-x,1/2-y,1/2+z
x,1/2-y,1/2-z
-x,1/2+y,1/2-z
-x,1/2-y,1/2-z
x,1/2+y,1/2-z
-x,1/2+y,1/2+z
x,1/2-y,1/2+z
1/2+x,y,1/2+z
1/2-x,-y,1/2+z
1/2+x,-y,1/2-z
1/2-x,y,1/2-z
1/2-x,-y,1/2-z
1/2+x,y,1/2-z
1/2-x,y,1/2+z
1/2+x,-y,1/2+z
1/2+x,1/2+y,z
1/2-x,1/2-y,z
1/2+x,1/2-y,-z
1/2-x,1/2+y,-z
1/2-x,1/2-y,-z
1/2+x,1/2+y,-z
1/2-x,1/2+y,z
1/2+x,1/2-y,z
loop_
_atom_site_type_symbol
_atom_site_label
_atom_site_fract_x
_atom_site_fract_y
_atom_site_fract_z
Si Si1 0.699067 0.909435 0.072626
Si Si2 0.803282 0.913045 0.923353
Si Si3 0.446973 0.916018 0.601518
Si Si4 0.377748 0.705168 0.928989
Si Si5 0.948130 0.910288 0.252291
Si Si6 0.890809 0.361427 0.863204
Si Si7 0.053434 0.500000 0.924370
O O1 0.751033 0.891681 0.090136
O O2 0.661369 0.882035 0.121552
O O3 0.696241 0.000000 0.070611
O O4 0.690389 0.883162 0.000000
O O5 0.837304 0.847416 0.901281
O O6 0.812014 0.000000 0.901269
O O7 0.807441 0.915486 0.000000
O O8 0.500000 0.913760 0.586315
O O9 0.419261 0.852299 0.567881
O O10 0.442640 0.904057 0.677094
O O11 0.429596 0.000000 0.586192
O O12 0.393823 0.777141 0.889804
O O13 0.364772 0.729421 0.000000
O O14 0.910121 0.867695 0.292448
O O15 0.000000 0.886144 0.268301
O O16 0.944762 0.000000 0.266969
O O17 0.921197 0.424748 0.899478
O O18 0.000000 0.500000 0.906364
O O19 0.056269 0.500000 0.000000
#
# Coordination Sequence:
#
# PCOD9513751 Si02
#       7
#    32  32  32  32  32  32  16
#     4   9  16  29  51  76 104 140 185 226 262 315
#     4   8  16  32  53  75 102 141 181 222 272 321
#     4   9  20  39  61  80 100 134 180 231 278 320
#     4  11  23  35  51  81 116 143 175 218 271 335
#     4   9  18  36  59  79 100 135 188 231 262 311
#     4  12  21  32  52  78 110 147 179 218 263 313
#     4  11  22  34  48  70 106 151 187 215 260 315
#
# _framework density 18.873163999999999
#
# number of rings (size 3 to 8) (size 9 to 14) (size 15 to 20)
#    0.000    2.231    1.538    4.154    0.000    3.692 
#    0.000    4.615    0.000    0.923    0.000    6.462 
#    0.000    0.000    0.000    0.000    0.000    0.000 
#
# Total GULP energy -289989.763319 kJ/mol
# GULP energy per Si atom -5576.726218 kJ/mol
# Density = 1.883021 g / cm^3
# Si number density = 18.873164 Si / 1000 Ang^3
#
#
#
# Elastic Constant Matrix: (Units=GPa)
#
#
# Indices 1 2 3 4 5 6 
#
# 1 88.4766 60.3119 21.4973 0.0000 0.0000 0.0000
# 2 60.3119 115.6644 24.4073 0.0000 0.0000 0.0000
# 3 21.4973 24.4073 32.9004 0.0000 0.0000 0.0000
# 4 0.0000 0.0000 0.0000 52.7023 0.0000 0.0000
# 5 0.0000 0.0000 0.0000 0.0000 13.2069 0.0000
# 6 0.0000 0.0000 0.0000 0.0000 0.0000 -40.5938
#
#
#
# Elastic Compliance Matrix: (Units=1/GPa)
#
#
# Indices 1 2 3 4 5 6 
#
# 1 0.018431 -0.008382 -0.005825 0.000000 0.000000 0.000000
# 2 -0.008382 0.014062 -0.004955 0.000000 0.000000 0.000000
# 3 -0.005825 -0.004955 0.037877 0.000000 0.000000 0.000000
# 4 0.000000 0.000000 0.000000 0.018975 0.000000 0.000000
# 5 0.000000 0.000000 0.000000 0.000000 0.075718 0.000000
# 6 0.000000 0.000000 0.000000 0.000000 0.000000 -0.024634
#
#
# Mechanical properties :
#
#
# Convention : Reuss Voigt Hill
#
# Bulk Modulus (GPa) = 31.20503 49.94160 40.57331
# Shear Modulus (GPa) = 26.39435 13.78472 20.08953
#
# Velocity S-wave (km/s) = 3.74373 2.70550 3.26613
# Velocity P-wave (km/s) = 5.93778 6.02319 5.98064
#
# Compressibility (1/GPa) = 0.03204612
#
# Stress axis : x y z
#
# Youngs Moduli (GPa) = 54.25574 71.11453 26.40117
#
# Poissons Ratio (x) = 0.59605 0.15379
# Poissons Ratio (y) = 0.45475 0.13083
# Poissons Ratio (z) = 0.31605 0.35239
#
# Static dielectric constant tensor:
#      x y z
#    x 1.667490 0.000000 0.000000 
#    y 0.000000 1.650080 0.000000 
#    z 0.000000 0.000000 1.682900 
# 
# From -- ./inp_files/38469.got.cif
#   From: 2010.05.17/outbox.cif.g08.bks.cpg/sg69_20_cif.got.tgz:38469.got - 2010.06.03 19:29:58.
