data_PCOD9513395
_publ_section_title
;
Structure prediction by ZEFSAII (Michael W. Deem and Ramdas Pophale) SiO2 
 PCOD9513395
Probable space group: F M M M
;
_chemical_formula_sum "Si O2"
_cell_formula_units_Z 168
_cell_length_a 28.757812
_cell_length_b 19.943758
_cell_length_c 14.013936
_cell_angle_alpha 90.000000
_cell_angle_beta 90.000000
_cell_angle_gamma 90.000000
_cell_volume 8037.536641
_symmetry_space_group_name_H-M "F M M M"
_symmetry_group_IT_number 69
_symmetry_cell_setting 'orthorhombic'
loop_
_space_group_symop_operation_xyz
x,y,z
-x,-y,z
x,-y,-z
-x,y,-z
-x,-y,-z
x,y,-z
-x,y,z
x,-y,z
x,1/2+y,1/2+z
-x,1/2-y,1/2+z
x,1/2-y,1/2-z
-x,1/2+y,1/2-z
-x,1/2-y,1/2-z
x,1/2+y,1/2-z
-x,1/2+y,1/2+z
x,1/2-y,1/2+z
1/2+x,y,1/2+z
1/2-x,-y,1/2+z
1/2+x,-y,1/2-z
1/2-x,y,1/2-z
1/2-x,-y,1/2-z
1/2+x,y,1/2-z
1/2-x,y,1/2+z
1/2+x,-y,1/2+z
1/2+x,1/2+y,z
1/2-x,1/2-y,z
1/2+x,1/2-y,-z
1/2-x,1/2+y,-z
1/2-x,1/2-y,-z
1/2+x,1/2+y,-z
1/2-x,1/2+y,z
1/2+x,1/2-y,z
loop_
_atom_site_type_symbol
_atom_site_label
_atom_site_fract_x
_atom_site_fract_y
_atom_site_fract_z
Si Si1 0.216933 0.146687 0.613790
Si Si2 0.447258 0.326420 0.272891
Si Si3 0.250000 0.250000 0.250000
Si Si4 0.812029 0.925002 0.884300
Si Si5 0.917902 0.920338 0.113150
Si Si6 0.378838 0.076382 0.114612
O O1 0.216075 0.160355 0.500000
O O2 0.215230 0.211655 0.678410
O O3 0.267602 0.118065 0.640798
O O4 0.174691 0.096540 0.634816
O O5 0.500000 0.323381 0.311747
O O6 0.432473 0.250000 0.250000
O O7 0.447565 0.370612 0.176433
O O8 0.412902 0.368289 0.340977
O O9 0.864148 0.904340 0.859025
O O10 0.804760 0.000000 0.847999
O O11 0.812186 0.927759 0.000000
O O12 0.925847 0.000000 0.130257
O O13 0.923651 0.909949 0.000000
O O14 0.388387 0.000000 0.147813
O O15 0.383880 0.077068 0.000000
#
# Coordination Sequence:
#
# PCOD9513395 Si02
#       6
#    32  32   8  32  32  32
#     4  10  22  39  59  88 128 169 210 253 301 363
#     4  11  26  44  63  90 126 165 207 258 319 388
#     4  12  26  36  54  90 130 180 216 248 300 370
#     4   8  15  32  58  86 118 155 195 242 293 347
#     4   9  19  37  64  96 127 163 205 252 311 373
#     4  10  23  44  69  94 122 163 216 270 320 372
#
# _framework density 20.901926
#
# number of rings (size 3 to 8) (size 9 to 14) (size 15 to 20)
#    0.000    2.286    0.000    2.571    4.000    5.333 
#    0.000    8.571    0.000    0.000    0.000    0.000 
#    0.000    0.000    0.000    0.000    0.000    0.000 
#
# Total GULP energy -234503.328079 kJ/mol
# GULP energy per Si atom -5583.412573 kJ/mol
# Density = 2.085435 g / cm^3
# Si number density = 20.901926 Si / 1000 Ang^3
#
#
#
# Elastic Constant Matrix: (Units=GPa)
#
#
# Indices 1 2 3 4 5 6 
#
# 1 77.4891 61.7993 16.7803 0.0000 0.0000 0.0000
# 2 61.7993 113.9504 40.0176 0.0000 0.0000 0.0000
# 3 16.7803 40.0176 68.8906 0.0000 0.0000 0.0000
# 4 0.0000 0.0000 0.0000 33.4753 0.0000 0.0000
# 5 0.0000 0.0000 0.0000 0.0000 25.0453 0.0000
# 6 0.0000 0.0000 0.0000 0.0000 0.0000 36.8640
#
#
#
# Elastic Compliance Matrix: (Units=1/GPa)
#
#
# Indices 1 2 3 4 5 6 
#
# 1 0.022972 -0.013183 0.002062 0.000000 0.000000 0.000000
# 2 -0.013183 0.018590 -0.007588 0.000000 0.000000 0.000000
# 3 0.002062 -0.007588 0.018421 0.000000 0.000000 0.000000
# 4 0.000000 0.000000 0.000000 0.029873 0.000000 0.000000
# 5 0.000000 0.000000 0.000000 0.000000 0.039928 0.000000
# 6 0.000000 0.000000 0.000000 0.000000 0.000000 0.027127
#
#
# Mechanical properties :
#
#
# Convention : Reuss Voigt Hill
#
# Bulk Modulus (GPa) = 44.31332 55.28051 49.79691
# Shear Modulus (GPa) = 24.77107 28.52577 26.64842
#
# Velocity S-wave (km/s) = 3.44628 3.69825 3.57449
# Velocity P-wave (km/s) = 6.08953 6.68888 6.39623
#
# Compressibility (1/GPa) = 0.02256658
#
# Stress axis : x y z
#
# Youngs Moduli (GPa) = 43.53124 53.79291 54.28606
#
# Poissons Ratio (x) = 0.70914 -0.11195
# Poissons Ratio (y) = 0.57386 0.41190
# Poissons Ratio (z) = -0.08977 0.40815
#
# Static dielectric constant tensor:
#      x y z
#    x 1.778310 0.000000 0.000000 
#    y 0.000000 1.784430 0.000000 
#    z 0.000000 0.000000 1.775190 
# 
# From -- ./inp_files/19715.got.cif
#   From: 2010.05.17/outbox.cif.g08.bks.cpg/sg69_10_cif.got.tgz:19715.got - 2010.06.03 19:29:58.
