data_PCOD9513087
_publ_section_title
;
Structure prediction by ZEFSAII (Michael W. Deem and Ramdas Pophale) SiO2 
 PCOD9513087
Probable space group: F M M M
;
_chemical_formula_sum "Si O2"
_cell_formula_units_Z 144
_cell_length_a 23.193012
_cell_length_b 16.117041
_cell_length_c 18.040539
_cell_angle_alpha 90.000000
_cell_angle_beta 90.000000
_cell_angle_gamma 90.000000
_cell_volume 6743.602644
_symmetry_space_group_name_H-M "F M M M"
_symmetry_group_IT_number 69
_symmetry_cell_setting 'orthorhombic'
loop_
_space_group_symop_operation_xyz
x,y,z
-x,-y,z
x,-y,-z
-x,y,-z
-x,-y,-z
x,y,-z
-x,y,z
x,-y,z
x,1/2+y,1/2+z
-x,1/2-y,1/2+z
x,1/2-y,1/2-z
-x,1/2+y,1/2-z
-x,1/2-y,1/2-z
x,1/2+y,1/2-z
-x,1/2+y,1/2+z
x,1/2-y,1/2+z
1/2+x,y,1/2+z
1/2-x,-y,1/2+z
1/2+x,-y,1/2-z
1/2-x,y,1/2-z
1/2-x,-y,1/2-z
1/2+x,y,1/2-z
1/2-x,y,1/2+z
1/2+x,-y,1/2+z
1/2+x,1/2+y,z
1/2-x,1/2-y,z
1/2+x,1/2-y,-z
1/2-x,1/2+y,-z
1/2-x,1/2-y,-z
1/2+x,1/2+y,-z
1/2-x,1/2+y,z
1/2+x,1/2-y,z
loop_
_atom_site_type_symbol
_atom_site_label
_atom_site_fract_x
_atom_site_fract_y
_atom_site_fract_z
Si Si1 0.565451 0.722530 0.366612
Si Si2 0.623641 0.910468 0.799198
Si Si3 0.067753 0.593582 0.000000
Si Si4 0.175364 0.183987 0.818921
Si Si5 0.729326 0.096860 0.913081
O O1 0.500000 0.753934 0.371293
O O2 0.576401 0.662147 0.296560
O O3 0.575921 0.654578 0.430877
O O4 0.618823 0.785107 0.363071
O O5 0.659547 0.899902 0.724364
O O6 0.671781 0.899465 0.863226
O O7 0.596360 0.000000 0.808523
O O8 0.095453 0.500000 0.000000
O O9 0.000000 0.578505 0.000000
O O10 0.186397 0.250000 0.750000
O O11 0.226374 0.160412 0.874507
O O12 0.748785 0.000000 0.909968
O O13 0.719051 0.116618 0.000000
#
# Coordination Sequence:
#
# PCOD9513087 Si02
#       5
#    32  32  16  32  32
#     4  10  22  37  56  85 119 155 194 242 294 351
#     4  10  21  37  60  87 119 157 197 243 296 354
#     4   9  18  34  56  81 111 151 195 240 293 343
#     4  10  22  38  58  86 122 160 193 238 301 359
#     4  10  22  40  64  90 116 153 202 253 299 349
#
# _framework density 21.353572
#
# number of rings (size 3 to 8) (size 9 to 14) (size 15 to 20)
#    0.000    2.111    0.000    2.000    3.111   13.333 
#    0.000    4.444    0.000    2.000    0.000    1.556 
#    0.000    0.000    0.000    0.000    0.000    0.000 
#
# Total GULP energy -200600.229339 kJ/mol
# GULP energy per Si atom -5572.228593 kJ/mol
# Density = 2.130497 g / cm^3
# Si number density = 21.353572 Si / 1000 Ang^3
#
#
#
# Elastic Constant Matrix: (Units=GPa)
#
#
# Indices 1 2 3 4 5 6 
#
# 1 103.8653 53.8859 22.5374 0.0000 0.0000 0.0000
# 2 53.8859 88.5893 31.7522 0.0000 0.0000 0.0000
# 3 22.5374 31.7522 88.7755 0.0000 0.0000 0.0000
# 4 0.0000 0.0000 0.0000 42.1715 0.0000 0.0000
# 5 0.0000 0.0000 0.0000 0.0000 24.9250 0.0000
# 6 0.0000 0.0000 0.0000 0.0000 0.0000 29.1043
#
#
#
# Elastic Compliance Matrix: (Units=1/GPa)
#
#
# Indices 1 2 3 4 5 6 
#
# 1 0.014094 -0.008362 -0.000587 0.000000 0.000000 0.000000
# 2 -0.008362 0.017910 -0.004283 0.000000 0.000000 0.000000
# 3 -0.000587 -0.004283 0.012945 0.000000 0.000000 0.000000
# 4 0.000000 0.000000 0.000000 0.023713 0.000000 0.000000
# 5 0.000000 0.000000 0.000000 0.000000 0.040120 0.000000
# 6 0.000000 0.000000 0.000000 0.000000 0.000000 0.034359
#
#
# Mechanical properties :
#
#
# Convention : Reuss Voigt Hill
#
# Bulk Modulus (GPa) = 54.10004 55.28680 54.69342
# Shear Modulus (GPa) = 28.44688 30.77714 29.61201
#
# Velocity S-wave (km/s) = 3.65387 3.80058 3.72795
# Velocity P-wave (km/s) = 6.57201 6.72358 6.64823
#
# Compressibility (1/GPa) = 0.01848427
#
# Stress axis : x y z
#
# Youngs Moduli (GPa) = 70.95402 55.83600 77.24871
#
# Poissons Ratio (x) = 0.46692 0.04535
# Poissons Ratio (y) = 0.59334 0.33084
# Poissons Ratio (z) = 0.04165 0.23913
#
# Static dielectric constant tensor:
#      x y z
#    x 1.782850 0.000000 0.000000 
#    y 0.000000 1.833800 0.000000 
#    z 0.000000 0.000000 1.829870 
# 
# From -- ./inp_files/25579.got.cif
#   From: 2010.05.17/outbox.cif.g08.bks.cpg/sg69_13_cif.got.tgz:25579.got - 2010.06.03 19:29:58.
