data_PCOD9513370
_publ_section_title
;
Structure prediction by ZEFSAII (Michael W. Deem and Ramdas Pophale) SiO2 
 PCOD9513370
Probable space group: F M M M
;
_chemical_formula_sum "Si O2"
_cell_formula_units_Z 160
_cell_length_a 17.006629
_cell_length_b 22.496173
_cell_length_c 21.585020
_cell_angle_alpha 90.000000
_cell_angle_beta 90.000000
_cell_angle_gamma 90.000000
_cell_volume 8258.084762
_symmetry_space_group_name_H-M "F M M M"
_symmetry_group_IT_number 69
_symmetry_cell_setting 'orthorhombic'
loop_
_space_group_symop_operation_xyz
x,y,z
-x,-y,z
x,-y,-z
-x,y,-z
-x,-y,-z
x,y,-z
-x,y,z
x,-y,z
x,1/2+y,1/2+z
-x,1/2-y,1/2+z
x,1/2-y,1/2-z
-x,1/2+y,1/2-z
-x,1/2-y,1/2-z
x,1/2+y,1/2-z
-x,1/2+y,1/2+z
x,1/2-y,1/2+z
1/2+x,y,1/2+z
1/2-x,-y,1/2+z
1/2+x,-y,1/2-z
1/2-x,y,1/2-z
1/2-x,-y,1/2-z
1/2+x,y,1/2-z
1/2-x,y,1/2+z
1/2+x,-y,1/2+z
1/2+x,1/2+y,z
1/2-x,1/2-y,z
1/2+x,1/2-y,-z
1/2-x,1/2+y,-z
1/2-x,1/2-y,-z
1/2+x,1/2+y,-z
1/2-x,1/2+y,z
1/2+x,1/2-y,z
loop_
_atom_site_type_symbol
_atom_site_label
_atom_site_fract_x
_atom_site_fract_y
_atom_site_fract_z
Si Si1 0.407787 0.614422 0.747904
Si Si2 0.234234 0.500000 0.930458
Si Si3 0.333542 0.618419 0.382995
Si Si4 0.907268 0.260808 0.070896
Si Si5 0.677004 0.500000 0.200385
Si Si6 0.305716 0.693973 0.170626
O O1 0.500000 0.623675 0.757576
O O2 0.388467 0.604873 0.675863
O O3 0.375180 0.557628 0.784810
O O4 0.356455 0.669824 0.772399
O O5 0.182803 0.440414 0.921877
O O6 0.291219 0.500000 0.870012
O O7 0.269376 0.500000 0.000000
O O8 0.370565 0.673865 0.419178
O O9 0.251023 0.642131 0.354661
O O10 0.864450 0.216169 0.117316
O O11 0.000000 0.263162 0.083597
O O12 0.894669 0.242365 0.000000
O O13 0.750000 0.500000 0.250000
O O14 0.250000 0.750000 0.183532
#
# Coordination Sequence:
#
# PCOD9513370 Si02
#       6
#    32  16  32  32  16  32
#     4  12  23  39  65  97 128 165 209 268 330 381
#     4  12  24  40  68  96 124 160 212 260 310 374
#     4  11  22  40  63  91 125 162 213 261 317 373
#     4  10  22  40  59  86 127 170 212 262 319 379
#     4  12  21  44  67  93 129 165 211 264 317 381
#     4  10  22  38  62  89 123 165 212 261 311 372
#
# _framework density 19.374952
#
# number of rings (size 3 to 8) (size 9 to 14) (size 15 to 20)
#    0.000    1.000    4.000    2.700    0.000   10.000 
#    0.000    6.500    0.000    4.800    0.000    0.000 
#    0.000    0.000    0.000    0.000    0.000    0.000 
#
# Total GULP energy -223657.976909 kJ/mol
# GULP energy per Si atom -5591.449423 kJ/mol
# Density = 1.933085 g / cm^3
# Si number density = 19.374952 Si / 1000 Ang^3
#
#
#
# Elastic Constant Matrix: (Units=GPa)
#
#
# Indices 1 2 3 4 5 6 
#
# 1 87.7575 21.0279 36.8201 0.0000 0.0000 0.0000
# 2 21.0279 75.1531 13.0452 0.0000 0.0000 0.0000
# 3 36.8201 13.0452 102.6082 0.0000 0.0000 0.0000
# 4 0.0000 0.0000 0.0000 10.8103 0.0000 0.0000
# 5 0.0000 0.0000 0.0000 0.0000 31.1239 0.0000
# 6 0.0000 0.0000 0.0000 0.0000 0.0000 21.9562
#
#
#
# Elastic Compliance Matrix: (Units=1/GPa)
#
#
# Indices 1 2 3 4 5 6 
#
# 1 0.014103 -0.003137 -0.004662 0.000000 0.000000 0.000000
# 2 -0.003137 0.014304 -0.000693 0.000000 0.000000 0.000000
# 3 -0.004662 -0.000693 0.011507 0.000000 0.000000 0.000000
# 4 0.000000 0.000000 0.000000 0.092504 0.000000 0.000000
# 5 0.000000 0.000000 0.000000 0.000000 0.032130 0.000000
# 6 0.000000 0.000000 0.000000 0.000000 0.000000 0.045545
#
#
# Mechanical properties :
#
#
# Convention : Reuss Voigt Hill
#
# Bulk Modulus (GPa) = 43.61013 45.25614 44.43313
# Shear Modulus (GPa) = 21.30205 25.75312 23.52758
#
# Velocity S-wave (km/s) = 3.31941 3.64977 3.48850
# Velocity P-wave (km/s) = 6.10317 6.41637 6.26173
#
# Compressibility (1/GPa) = 0.02293045
#
# Stress axis : x y z
#
# Youngs Moduli (GPa) = 70.90904 69.90995 86.90537
#
# Poissons Ratio (x) = 0.21929 0.40514
# Poissons Ratio (y) = 0.22242 0.06022
# Poissons Ratio (z) = 0.33056 0.04845
#
# Static dielectric constant tensor:
#      x y z
#    x 1.653030 0.000000 0.000000 
#    y 0.000000 1.686170 0.000000 
#    z 0.000000 0.000000 1.680750 
# 
# From -- ./inp_files/24650.got.cif
#   From: 2010.05.17/outbox.cif.g08.bks.cpg/sg69_13_cif.got.tgz:24650.got - 2010.06.03 19:29:58.
