data_PCOD9513658
_publ_section_title
;
Structure prediction by ZEFSAII (Michael W. Deem and Ramdas Pophale) SiO2 
 PCOD9513658
Probable space group: F M M M
;
_chemical_formula_sum "Si O2"
_cell_formula_units_Z 136
_cell_length_a 20.317470
_cell_length_b 16.430302
_cell_length_c 22.380697
_cell_angle_alpha 90.000000
_cell_angle_beta 90.000000
_cell_angle_gamma 90.000000
_cell_volume 7471.172793
_symmetry_space_group_name_H-M "F M M M"
_symmetry_group_IT_number 69
_symmetry_cell_setting 'orthorhombic'
loop_
_space_group_symop_operation_xyz
x,y,z
-x,-y,z
x,-y,-z
-x,y,-z
-x,-y,-z
x,y,-z
-x,y,z
x,-y,z
x,1/2+y,1/2+z
-x,1/2-y,1/2+z
x,1/2-y,1/2-z
-x,1/2+y,1/2-z
-x,1/2-y,1/2-z
x,1/2+y,1/2-z
-x,1/2+y,1/2+z
x,1/2-y,1/2+z
1/2+x,y,1/2+z
1/2-x,-y,1/2+z
1/2+x,-y,1/2-z
1/2-x,y,1/2-z
1/2-x,-y,1/2-z
1/2+x,y,1/2-z
1/2-x,y,1/2+z
1/2+x,-y,1/2+z
1/2+x,1/2+y,z
1/2-x,1/2-y,z
1/2+x,1/2-y,-z
1/2-x,1/2+y,-z
1/2-x,1/2-y,-z
1/2+x,1/2+y,-z
1/2-x,1/2+y,z
1/2+x,1/2-y,z
loop_
_atom_site_type_symbol
_atom_site_label
_atom_site_fract_x
_atom_site_fract_y
_atom_site_fract_z
Si Si1 0.812759 0.140829 0.093569
Si Si2 0.662310 0.328714 0.568108
Si Si3 0.653631 0.000000 0.500000
Si Si4 0.424685 0.404287 0.330358
Si Si5 0.176244 0.346244 0.733231
O O1 0.733153 0.135671 0.088199
O O2 0.830808 0.231220 0.071058
O O3 0.842822 0.071495 0.052286
O O4 0.832412 0.138669 0.163015
O O5 0.649781 0.354082 0.500000
O O6 0.607490 0.357639 0.614059
O O7 0.500000 0.378695 0.319873
O O8 0.423831 0.500000 0.343673
O O9 0.379021 0.387904 0.273204
O O10 0.173794 0.250000 0.750000
O O11 0.250000 0.374351 0.750000
#
# Coordination Sequence:
#
# PCOD9513658 Si02
#       5
#    32  32   8  32  32
#     4  11  21  36  60  99 128 163 205 270 321 378
#     4  11  20  40  62  85 130 170 210 253 316 382
#     4  12  24  34  58 104 136 154 210 266 344 384
#     4  11  26  42  58  91 131 164 213 267 316 383
#     4  11  20  39  67  93 122 164 215 267 321 375
#
# _framework density 18.203299999999999
#
# number of rings (size 3 to 8) (size 9 to 14) (size 15 to 20)
#    0.000    0.941    7.059    2.118    3.294    1.882 
#    0.000    1.176    0.000    0.000    0.000    3.294 
#    0.000    0.000    0.000    0.000    0.000    0.000 
#
# Total GULP energy -189401.356079 kJ/mol
# GULP energy per Si atom -5570.628120 kJ/mol
# Density = 1.816187 g / cm^3
# Si number density = 18.203300 Si / 1000 Ang^3
#
#
#
# Elastic Constant Matrix: (Units=GPa)
#
#
# Indices 1 2 3 4 5 6 
#
# 1 103.2211 22.4777 57.2311 0.0000 0.0000 0.0000
# 2 22.4777 48.8716 36.0611 0.0000 0.0000 0.0000
# 3 57.2311 36.0611 198.3737 0.0000 0.0000 0.0000
# 4 0.0000 0.0000 0.0000 35.1285 0.0000 0.0000
# 5 0.0000 0.0000 0.0000 0.0000 -15.2220 0.0000
# 6 0.0000 0.0000 0.0000 0.0000 0.0000 27.0922
#
#
#
# Elastic Compliance Matrix: (Units=1/GPa)
#
#
# Indices 1 2 3 4 5 6 
#
# 1 0.012010 -0.003427 -0.002842 0.000000 0.000000 0.000000
# 2 -0.003427 0.024609 -0.003485 0.000000 0.000000 0.000000
# 3 -0.002842 -0.003485 0.006494 0.000000 0.000000 0.000000
# 4 0.000000 0.000000 0.000000 0.028467 0.000000 0.000000
# 5 0.000000 0.000000 0.000000 0.000000 -0.065694 0.000000
# 6 0.000000 0.000000 0.000000 0.000000 0.000000 0.036911
#
#
# Mechanical properties :
#
#
# Convention : Reuss Voigt Hill
#
# Bulk Modulus (GPa) = 42.36155 64.66735 53.51445
# Shear Modulus (GPa) = 71.25237 25.04618 48.14928
#
# Velocity S-wave (km/s) = 6.26319 3.71336 5.14862
# Velocity P-wave (km/s) = 8.69628 7.34762 8.05024
#
# Compressibility (1/GPa) = 0.02360631
#
# Stress axis : x y z
#
# Youngs Moduli (GPa) = 83.26481 40.63501 153.97874
#
# Poissons Ratio (x) = 0.13925 0.43760
# Poissons Ratio (y) = 0.28533 0.53661
# Poissons Ratio (z) = 0.23663 0.14161
#
# Static dielectric constant tensor:
#      x y z
#    x 1.610650 0.000000 0.000000 
#    y 0.000000 1.628810 0.000000 
#    z 0.000000 0.000000 1.625080 
# 
# From -- ./inp_files/17526.got.cif
#   From: 2010.05.17/outbox.cif.g08.bks.cpg/sg69_9_cif.got.tgz:17526.got - 2010.06.03 19:29:58.
