data_PCOD9513202
_publ_section_title
;
Structure prediction by ZEFSAII (Michael W. Deem and Ramdas Pophale) SiO2 
 PCOD9513202
Probable space group: F M M M
;
_chemical_formula_sum "Si O2"
_cell_formula_units_Z 96
_cell_length_a 28.970479
_cell_length_b 14.104730
_cell_length_c 11.310516
_cell_angle_alpha 90.000000
_cell_angle_beta 90.000000
_cell_angle_gamma 90.000000
_cell_volume 4621.711918
_symmetry_space_group_name_H-M "F M M M"
_symmetry_group_IT_number 69
_symmetry_cell_setting 'orthorhombic'
loop_
_space_group_symop_operation_xyz
x,y,z
-x,-y,z
x,-y,-z
-x,y,-z
-x,-y,-z
x,y,-z
-x,y,z
x,-y,z
x,1/2+y,1/2+z
-x,1/2-y,1/2+z
x,1/2-y,1/2-z
-x,1/2+y,1/2-z
-x,1/2-y,1/2-z
x,1/2+y,1/2-z
-x,1/2+y,1/2+z
x,1/2-y,1/2+z
1/2+x,y,1/2+z
1/2-x,-y,1/2+z
1/2+x,-y,1/2-z
1/2-x,y,1/2-z
1/2-x,-y,1/2-z
1/2+x,y,1/2-z
1/2-x,y,1/2+z
1/2+x,-y,1/2+z
1/2+x,1/2+y,z
1/2-x,1/2-y,z
1/2+x,1/2-y,-z
1/2-x,1/2+y,-z
1/2-x,1/2-y,-z
1/2+x,1/2+y,-z
1/2-x,1/2+y,z
1/2+x,1/2-y,z
loop_
_atom_site_type_symbol
_atom_site_label
_atom_site_fract_x
_atom_site_fract_y
_atom_site_fract_z
Si Si1 0.303218 0.285469 0.125084
Si Si2 0.299755 0.500000 0.811340
Si Si3 0.054751 0.813144 0.634072
Si Si4 0.616508 0.500000 0.368629
O O1 0.323591 0.250000 0.250000
O O2 0.250000 0.250000 0.125738
O O3 0.303314 0.399068 0.124917
O O4 0.323889 0.250523 0.000000
O O5 0.250000 0.500000 0.750000
O O6 0.341446 0.500000 0.719848
O O7 0.062783 0.772441 0.500000
O O8 0.064693 0.750000 0.750000
O O9 0.084588 0.907966 0.644218
O O10 0.000000 0.835301 0.638879
O O11 0.636602 0.500000 0.500000
#
# Coordination Sequence:
#
# PCOD9513202 Si02
#       4
#    32  16  32  16
#     4  10  21  39  60  82 106 145 201 256 307 359
#     4  12  23  40  57  84 119 165 207 259 306 356
#     4   9  18  38  67  97 129 163 200 248 310 377
#     4  10  23  39  62  93 125 163 211 258 305 371
#
# _framework density 20.771525
#
# number of rings (size 3 to 8) (size 9 to 14) (size 15 to 20)
#    0.000    2.000    3.333    1.000    0.000    6.000 
#    0.000    7.500    0.000    4.000    0.000    0.000 
#    0.000    0.000    0.000    0.000    0.000    0.000 
#
# Total GULP energy -133916.302586 kJ/mol
# GULP energy per Si atom -5579.845941 kJ/mol
# Density = 2.072425 g / cm^3
# Si number density = 20.771525 Si / 1000 Ang^3
#
#
#
# Elastic Constant Matrix: (Units=GPa)
#
#
# Indices 1 2 3 4 5 6 
#
# 1 91.2133 23.3560 50.5803 0.0000 0.0000 0.0000
# 2 23.3560 111.9155 75.6269 0.0000 0.0000 0.0000
# 3 50.5803 75.6269 234.3004 0.0000 0.0000 0.0000
# 4 0.0000 0.0000 0.0000 40.3898 0.0000 0.0000
# 5 0.0000 0.0000 0.0000 0.0000 294.2667 0.0000
# 6 0.0000 0.0000 0.0000 0.0000 0.0000 8.3569
#
#
#
# Elastic Compliance Matrix: (Units=1/GPa)
#
#
# Indices 1 2 3 4 5 6 
#
# 1 0.012542 -0.001008 -0.002382 0.000000 0.000000 0.000000
# 2 -0.001008 0.011509 -0.003497 0.000000 0.000000 0.000000
# 3 -0.002382 -0.003497 0.005911 0.000000 0.000000 0.000000
# 4 0.000000 0.000000 0.000000 0.024759 0.000000 0.000000
# 5 0.000000 0.000000 0.000000 0.000000 0.003398 0.000000
# 6 0.000000 0.000000 0.000000 0.000000 0.000000 0.119662
#
#
# Mechanical properties :
#
#
# Convention : Reuss Voigt Hill
#
# Bulk Modulus (GPa) = 61.77453 81.83949 71.80701
# Shear Modulus (GPa) = 25.38692 87.79374 56.59033
#
# Velocity S-wave (km/s) = 3.49979 6.50831 5.22526
# Velocity P-wave (km/s) = 6.79234 9.79607 8.42908
#
# Compressibility (1/GPa) = 0.01618790
#
# Stress axis : x y z
#
# Youngs Moduli (GPa) = 79.72937 86.88933 169.17096
#
# Poissons Ratio (x) = 0.08755 0.40303
# Poissons Ratio (y) = 0.08034 0.59164
# Poissons Ratio (z) = 0.18995 0.30388
#
# Static dielectric constant tensor:
#      x y z
#    x 1.692830 0.000000 0.000000 
#    y 0.000000 1.723150 0.000000 
#    z 0.000000 0.000000 1.778950 
# 
# From -- ./inp_files/11885.got.cif
#   From: 2010.05.17/outbox.cif.g08.bks.cpg/sg69_6_cif.got.tgz:11885.got - 2010.06.03 19:29:58.
