data_PCOD9513470
_publ_section_title
;
Structure prediction by ZEFSAII (Michael W. Deem and Ramdas Pophale) SiO2 
 PCOD9513470
Probable space group: F M M M
;
_chemical_formula_sum "Si O2"
_cell_formula_units_Z 88
_cell_length_a 23.955831
_cell_length_b 12.803160
_cell_length_c 13.767226
_cell_angle_alpha 90.000000
_cell_angle_beta 90.000000
_cell_angle_gamma 90.000000
_cell_volume 4222.550529
_symmetry_space_group_name_H-M "F M M M"
_symmetry_group_IT_number 69
_symmetry_cell_setting 'orthorhombic'
loop_
_space_group_symop_operation_xyz
x,y,z
-x,-y,z
x,-y,-z
-x,y,-z
-x,-y,-z
x,y,-z
-x,y,z
x,-y,z
x,1/2+y,1/2+z
-x,1/2-y,1/2+z
x,1/2-y,1/2-z
-x,1/2+y,1/2-z
-x,1/2-y,1/2-z
x,1/2+y,1/2-z
-x,1/2+y,1/2+z
x,1/2-y,1/2+z
1/2+x,y,1/2+z
1/2-x,-y,1/2+z
1/2+x,-y,1/2-z
1/2-x,y,1/2-z
1/2-x,-y,1/2-z
1/2+x,y,1/2-z
1/2-x,y,1/2+z
1/2+x,-y,1/2+z
1/2+x,1/2+y,z
1/2-x,1/2-y,z
1/2+x,1/2-y,-z
1/2-x,1/2+y,-z
1/2-x,1/2-y,-z
1/2+x,1/2+y,-z
1/2-x,1/2+y,z
1/2+x,1/2-y,z
loop_
_atom_site_type_symbol
_atom_site_label
_atom_site_fract_x
_atom_site_fract_y
_atom_site_fract_z
Si Si1 0.165132 0.623326 0.616140
Si Si2 0.936246 0.226897 0.617163
Si Si3 0.432123 0.500000 0.611203
Si Si4 0.750000 0.250000 0.750000
O O1 0.176200 0.637075 0.500000
O O2 0.161231 0.500000 0.634904
O O3 0.107400 0.683192 0.638315
O O4 0.212089 0.677721 0.680994
O O5 0.937808 0.216845 0.500000
O O6 0.000000 0.249006 0.646387
O O7 0.917025 0.112422 0.654273
O O8 0.500000 0.500000 0.608079
O O9 0.411005 0.500000 0.500000
#
# Coordination Sequence:
#
# PCOD9513470 Si02
#       4
#    32  32  16   8
#     4  10  22  41  64  90 120 156 200 249 302 358
#     4   8  14  28  54  88 121 153 191 238 295 358
#     4   7  10  20  42  77 118 150 181 224 274 340
#     4  12  24  44  62  84 116 162 210 254 294 342
#
# _framework density 20.840485000000001
#
# number of rings (size 3 to 8) (size 9 to 14) (size 15 to 20)
#    0.000    3.091    0.000    3.273    0.000    0.727 
#    6.545    4.545    0.000    0.000    0.000    0.000 
#    0.000    0.000    0.000    0.364    0.000    0.364 
#
# Total GULP energy -122776.447468 kJ/mol
# GULP energy per Si atom -5580.747612 kJ/mol
# Density = 2.079305 g / cm^3
# Si number density = 20.840485 Si / 1000 Ang^3
#
#
#
# Elastic Constant Matrix: (Units=GPa)
#
#
# Indices 1 2 3 4 5 6 
#
# 1 130.9098 128.5307 55.4306 0.0000 0.0000 0.0000
# 2 128.5307 229.5655 87.1059 0.0000 0.0000 0.0000
# 3 55.4306 87.1059 119.5679 0.0000 0.0000 0.0000
# 4 0.0000 0.0000 0.0000 11.2965 0.0000 0.0000
# 5 0.0000 0.0000 0.0000 0.0000 158.7235 0.0000
# 6 0.0000 0.0000 0.0000 0.0000 0.0000 52.3143
#
#
#
# Elastic Compliance Matrix: (Units=1/GPa)
#
#
# Indices 1 2 3 4 5 6 
#
# 1 0.017113 -0.009082 -0.001318 0.000000 0.000000 0.000000
# 2 -0.009082 0.010839 -0.003687 0.000000 0.000000 0.000000
# 3 -0.001318 -0.003687 0.011660 0.000000 0.000000 0.000000
# 4 0.000000 0.000000 0.000000 0.088523 0.000000 0.000000
# 5 0.000000 0.000000 0.000000 0.000000 0.006300 0.000000
# 6 0.000000 0.000000 0.000000 0.000000 0.000000 0.019115
#
#
# Mechanical properties :
#
#
# Convention : Reuss Voigt Hill
#
# Bulk Modulus (GPa) = 87.40208 113.57527 100.48867
# Shear Modulus (GPa) = 26.94894 58.39860 42.67377
#
# Velocity S-wave (km/s) = 3.59988 5.29930 4.52999
# Velocity P-wave (km/s) = 7.70120 9.59474 8.69964
#
# Compressibility (1/GPa) = 0.01144138
#
# Stress axis : x y z
#
# Youngs Moduli (GPa) = 58.43428 92.25518 85.76382
#
# Poissons Ratio (x) = 0.83782 0.11300
# Poissons Ratio (y) = 0.53067 0.31617
# Poissons Ratio (z) = 0.07699 0.34010
#
# Static dielectric constant tensor:
#      x y z
#    x 1.700480 0.000000 0.000000 
#    y 0.000000 1.743990 0.000000 
#    z 0.000000 0.000000 1.777050 
# 
# From -- ./inp_files/6983.got.cif
#   From: 2010.05.17/outbox.cif.g08.bks.cpg/sg69_4_cif.got.tgz:6983.got - 2010.06.03 19:29:58.
