data_PCOD9513410
_publ_section_title
;
Structure prediction by ZEFSAII (Michael W. Deem and Ramdas Pophale) SiO2 
 PCOD9513410
Probable space group: F M M M
;
_chemical_formula_sum "Si O2"
_cell_formula_units_Z 160
_cell_length_a 24.646757
_cell_length_b 22.147442
_cell_length_c 14.869316
_cell_angle_alpha 90.000000
_cell_angle_beta 90.000000
_cell_angle_gamma 90.000000
_cell_volume 8116.603806
_symmetry_space_group_name_H-M "F M M M"
_symmetry_group_IT_number 69
_symmetry_cell_setting 'orthorhombic'
loop_
_space_group_symop_operation_xyz
x,y,z
-x,-y,z
x,-y,-z
-x,y,-z
-x,-y,-z
x,y,-z
-x,y,z
x,-y,z
x,1/2+y,1/2+z
-x,1/2-y,1/2+z
x,1/2-y,1/2-z
-x,1/2+y,1/2-z
-x,1/2-y,1/2-z
x,1/2+y,1/2-z
-x,1/2+y,1/2+z
x,1/2-y,1/2+z
1/2+x,y,1/2+z
1/2-x,-y,1/2+z
1/2+x,-y,1/2-z
1/2-x,y,1/2-z
1/2-x,-y,1/2-z
1/2+x,y,1/2-z
1/2-x,y,1/2+z
1/2+x,-y,1/2+z
1/2+x,1/2+y,z
1/2-x,1/2-y,z
1/2+x,1/2-y,-z
1/2-x,1/2+y,-z
1/2-x,1/2-y,-z
1/2+x,1/2+y,-z
1/2-x,1/2+y,z
1/2+x,1/2-y,z
loop_
_atom_site_type_symbol
_atom_site_label
_atom_site_fract_x
_atom_site_fract_y
_atom_site_fract_z
Si Si1 0.935189 0.000000 0.603571
Si Si2 0.739700 0.100670 0.500000
Si Si3 0.196287 0.934094 0.809103
Si Si4 0.853048 0.842070 0.500000
Si Si5 0.872713 0.687890 0.299949
Si Si6 0.437274 0.367572 0.343897
Si Si7 0.657453 0.291439 0.000000
O O1 0.923541 0.061142 0.656610
O O2 0.912826 0.000000 0.500000
O O3 0.000000 0.000000 0.592817
O O4 0.717280 0.069343 0.588802
O O5 0.804730 0.109198 0.500000
O O6 0.709091 0.165137 0.500000
O O7 0.250000 0.933116 0.750000
O O8 0.164304 0.872206 0.787923
O O9 0.168896 0.000000 0.795335
O O10 0.893353 0.844439 0.415402
O O11 0.824834 0.777503 0.500000
O O12 0.853578 0.750000 0.250000
O O13 0.927124 0.667657 0.248499
O O14 0.875088 0.697701 0.407053
O O15 0.500000 0.360983 0.372908
#
# Coordination Sequence:
#
# PCOD9513410 Si02
#       7
#    16  16  32  16  32  32  16
#     4   9  18  36  58  89 126 162 198 251 323 375
#     4  10  22  39  63  88 126 168 204 258 306 378
#     4  10  22  40  60  91 125 162 209 260 311 371
#     4  12  20  38  62  98 123 170 207 252 320 387
#     4  11  23  41  63  90 125 167 215 256 323 377
#     4  11  23  39  62  95 131 163 206 263 317 382
#     4  10  23  42  59  89 127 163 217 256 305 384
#
# _framework density 19.712679000000001
#
# number of rings (size 3 to 8) (size 9 to 14) (size 15 to 20)
#    0.000    1.500    3.000    2.100    1.400    0.800 
#    3.600    0.500    0.000    0.000    0.000    2.100 
#    0.000    0.000    0.000    0.000    0.000    0.000 
#
# Total GULP energy -222907.935252 kJ/mol
# GULP energy per Si atom -5572.698381 kJ/mol
# Density = 1.966781 g / cm^3
# Si number density = 19.712679 Si / 1000 Ang^3
#
#
#
# Elastic Constant Matrix: (Units=GPa)
#
#
# Indices 1 2 3 4 5 6 
#
# 1 64.7608 34.6005 28.1578 0.0000 0.0000 0.0000
# 2 34.6005 159.3100 36.3623 0.0000 0.0000 0.0000
# 3 28.1578 36.3623 114.4101 0.0000 0.0000 0.0000
# 4 0.0000 0.0000 0.0000 21.5043 0.0000 0.0000
# 5 0.0000 0.0000 0.0000 0.0000 14.8408 0.0000
# 6 0.0000 0.0000 0.0000 0.0000 0.0000 19.8730
#
#
#
# Elastic Compliance Matrix: (Units=1/GPa)
#
#
# Indices 1 2 3 4 5 6 
#
# 1 0.018734 -0.003252 -0.003577 0.000000 0.000000 0.000000
# 2 -0.003252 0.007333 -0.001530 0.000000 0.000000 0.000000
# 3 -0.003577 -0.001530 0.010107 0.000000 0.000000 0.000000
# 4 0.000000 0.000000 0.000000 0.046502 0.000000 0.000000
# 5 0.000000 0.000000 0.000000 0.000000 0.067382 0.000000
# 6 0.000000 0.000000 0.000000 0.000000 0.000000 0.050320
#
#
# Mechanical properties :
#
#
# Convention : Reuss Voigt Hill
#
# Bulk Modulus (GPa) = 51.40030 59.63578 55.51804
# Shear Modulus (GPa) = 22.36313 27.20097 24.78205
#
# Velocity S-wave (km/s) = 3.37182 3.71869 3.54950
# Velocity P-wave (km/s) = 6.42575 6.98258 6.70994
#
# Compressibility (1/GPa) = 0.01945514
#
# Stress axis : x y z
#
# Youngs Moduli (GPa) = 53.37754 136.37541 98.93998
#
# Poissons Ratio (x) = 0.44356 0.35392
# Poissons Ratio (y) = 0.17361 0.15138
# Poissons Ratio (z) = 0.19094 0.20866
#
# Static dielectric constant tensor:
#      x y z
#    x 1.662480 0.000000 0.000000 
#    y 0.000000 1.744150 0.000000 
#    z 0.000000 0.000000 1.651230 
# 
# From -- ./inp_files/17842.got.cif
#   From: 2010.05.17/outbox.cif.g08.bks.cpg/sg69_9_cif.got.tgz:17842.got - 2010.06.03 19:29:58.
