data_PCOD9513750
_publ_section_title
;
Structure prediction by ZEFSAII (Michael W. Deem and Ramdas Pophale) SiO2 
 PCOD9513750
Probable space group: F M M M
;
_chemical_formula_sum "Si O2"
_cell_formula_units_Z 208
_cell_length_a 18.400720
_cell_length_b 21.468431
_cell_length_c 27.952038
_cell_angle_alpha 90.000000
_cell_angle_beta 90.000000
_cell_angle_gamma 90.000000
_cell_volume 11042.021806
_symmetry_space_group_name_H-M "F M M M"
_symmetry_group_IT_number 69
_symmetry_cell_setting 'orthorhombic'
loop_
_space_group_symop_operation_xyz
x,y,z
-x,-y,z
x,-y,-z
-x,y,-z
-x,-y,-z
x,y,-z
-x,y,z
x,-y,z
x,1/2+y,1/2+z
-x,1/2-y,1/2+z
x,1/2-y,1/2-z
-x,1/2+y,1/2-z
-x,1/2-y,1/2-z
x,1/2+y,1/2-z
-x,1/2+y,1/2+z
x,1/2-y,1/2+z
1/2+x,y,1/2+z
1/2-x,-y,1/2+z
1/2+x,-y,1/2-z
1/2-x,y,1/2-z
1/2-x,-y,1/2-z
1/2+x,y,1/2-z
1/2-x,y,1/2+z
1/2+x,-y,1/2+z
1/2+x,1/2+y,z
1/2-x,1/2-y,z
1/2+x,1/2-y,-z
1/2-x,1/2+y,-z
1/2-x,1/2-y,-z
1/2+x,1/2+y,-z
1/2-x,1/2+y,z
1/2+x,1/2-y,z
loop_
_atom_site_type_symbol
_atom_site_label
_atom_site_fract_x
_atom_site_fract_y
_atom_site_fract_z
Si Si1 0.583607 0.249818 0.557105
Si Si2 0.084026 0.075816 0.293674
Si Si3 0.086817 0.928988 0.186475
Si Si4 0.413784 0.425165 0.000000
Si Si5 0.801823 0.429567 0.874021
Si Si6 0.345075 0.634718 0.096059
Si Si7 0.420204 0.102847 0.943281
O O1 0.593836 0.240936 0.500000
O O2 0.500000 0.230961 0.568149
O O3 0.639661 0.206976 0.585277
O O4 0.589247 0.323329 0.566367
O O5 0.106988 0.093466 0.239706
O O6 0.145938 0.094599 0.331303
O O7 0.000000 0.096552 0.303032
O O8 0.081763 0.000000 0.294851
O O9 0.110619 0.887564 0.142345
O O10 0.000000 0.931988 0.187132
O O11 0.113906 0.000000 0.179941
O O12 0.375203 0.399354 0.952010
O O13 0.409337 0.500000 0.000000
O O14 0.500000 0.408045 0.000000
O O15 0.776253 0.500000 0.862350
O O16 0.736119 0.386021 0.890570
O O17 0.856534 0.432737 0.918234
O O18 0.500000 0.083667 0.925442
O O19 0.419065 0.094670 0.000000
#
# Coordination Sequence:
#
# PCOD9513750 Si02
#       7
#    32  32  32  16  32  32  32
#     4   9  18  36  58  77 100 137 188 232 264 308
#     4   8  16  33  55  75  99 138 184 227 270 318
#     4   9  17  31  52  77 104 137 185 233 266 311
#     4  11  22  34  48  69 105 151 188 217 255 307
#     4  11  23  35  51  79 115 147 173 214 273 335
#     4  12  22  32  50  79 112 148 177 213 267 322
#     4   9  20  38  59  79  99 134 186 236 275 316
#
# _framework density 18.837129999999998
#
# number of rings (size 3 to 8) (size 9 to 14) (size 15 to 20)
#    0.000    2.231    0.769    5.077    1.077    3.692 
#    0.000    4.615    0.000    0.923    0.000    6.462 
#    0.000    0.000    0.000    0.000    0.000    0.000 
#
# Total GULP energy -290019.689652 kJ/mol
# GULP energy per Si atom -5577.301724 kJ/mol
# Density = 1.879426 g / cm^3
# Si number density = 18.837130 Si / 1000 Ang^3
#
#
#
# Elastic Constant Matrix: (Units=GPa)
#
#
# Indices 1 2 3 4 5 6 
#
# 1 93.8322 25.1455 56.4287 0.0000 0.0000 0.0000
# 2 25.1455 32.2838 20.9856 0.0000 0.0000 0.0000
# 3 56.4287 20.9856 103.2194 0.0000 0.0000 0.0000
# 4 0.0000 0.0000 0.0000 10.1657 0.0000 0.0000
# 5 0.0000 0.0000 0.0000 0.0000 328.1607 0.0000
# 6 0.0000 0.0000 0.0000 0.0000 0.0000 24.2726
#
#
#
# Elastic Compliance Matrix: (Units=1/GPa)
#
#
# Indices 1 2 3 4 5 6 
#
# 1 0.017759 -0.008667 -0.007946 0.000000 0.000000 0.000000
# 2 -0.008667 0.039922 -0.003379 0.000000 0.000000 0.000000
# 3 -0.007946 -0.003379 0.014719 0.000000 0.000000 0.000000
# 4 0.000000 0.000000 0.000000 0.098370 0.000000 0.000000
# 5 0.000000 0.000000 0.000000 0.000000 0.003047 0.000000
# 6 0.000000 0.000000 0.000000 0.000000 0.000000 0.041199
#
#
# Mechanical properties :
#
#
# Convention : Reuss Voigt Hill
#
# Bulk Modulus (GPa) = 30.84853 48.27278 39.56066
# Shear Modulus (GPa) = 18.81084 80.97152 49.89118
#
# Velocity S-wave (km/s) = 3.16350 6.56341 5.15199
# Velocity P-wave (km/s) = 5.45487 9.11701 7.51251
#
# Compressibility (1/GPa) = 0.03241645
#
# Stress axis : x y z
#
# Youngs Moduli (GPa) = 56.31064 25.04898 67.93841
#
# Poissons Ratio (x) = 0.21709 0.53987
# Poissons Ratio (y) = 0.48802 0.22954
# Poissons Ratio (z) = 0.44747 0.08463
#
# Static dielectric constant tensor:
#      x y z
#    x 1.680240 0.000000 0.000000 
#    y 0.000000 1.665100 0.000000 
#    z 0.000000 0.000000 1.656260 
# 
# From -- ./inp_files/42135.got.cif
#   From: 2010.05.17/outbox.cif.g08.bks.cpg/sg69_22_cif.got.tgz:42135.got - 2010.06.03 19:29:58.
