data_PCOD9513659
_publ_section_title
;
Structure prediction by ZEFSAII (Michael W. Deem and Ramdas Pophale) SiO2 
 PCOD9513659
Probable space group: F M M M
;
_chemical_formula_sum "Si O2"
_cell_formula_units_Z 176
_cell_length_a 16.470962
_cell_length_b 29.070742
_cell_length_c 19.662285
_cell_angle_alpha 90.000000
_cell_angle_beta 90.000000
_cell_angle_gamma 90.000000
_cell_volume 9414.755997
_symmetry_space_group_name_H-M "F M M M"
_symmetry_group_IT_number 69
_symmetry_cell_setting 'orthorhombic'
loop_
_space_group_symop_operation_xyz
x,y,z
-x,-y,z
x,-y,-z
-x,y,-z
-x,-y,-z
x,y,-z
-x,y,z
x,-y,z
x,1/2+y,1/2+z
-x,1/2-y,1/2+z
x,1/2-y,1/2-z
-x,1/2+y,1/2-z
-x,1/2-y,1/2-z
x,1/2+y,1/2-z
-x,1/2+y,1/2+z
x,1/2-y,1/2+z
1/2+x,y,1/2+z
1/2-x,-y,1/2+z
1/2+x,-y,1/2-z
1/2-x,y,1/2-z
1/2-x,-y,1/2-z
1/2+x,y,1/2-z
1/2-x,y,1/2+z
1/2+x,-y,1/2+z
1/2+x,1/2+y,z
1/2-x,1/2-y,z
1/2+x,1/2-y,-z
1/2-x,1/2+y,-z
1/2-x,1/2-y,-z
1/2+x,1/2+y,-z
1/2-x,1/2+y,z
1/2+x,1/2-y,z
loop_
_atom_site_type_symbol
_atom_site_label
_atom_site_fract_x
_atom_site_fract_y
_atom_site_fract_z
Si Si1 0.596134 0.880999 0.075769
Si Si2 0.500000 0.554384 0.077873
Si Si3 0.829317 0.554984 0.820386
Si Si4 0.348754 0.704429 0.665768
Si Si5 0.356093 0.590352 0.172139
Si Si6 0.346641 0.803860 0.322494
O O1 0.500000 0.879633 0.071592
O O2 0.621409 0.926672 0.115690
O O3 0.623069 0.836420 0.118208
O O4 0.631646 0.879851 0.000000
O O5 0.500000 0.500000 0.071432
O O6 0.420439 0.567001 0.122238
O O7 0.500000 0.573695 0.000000
O O8 0.827898 0.500000 0.811950
O O9 0.737547 0.573515 0.833693
O O10 0.867793 0.578169 0.752359
O O11 0.375131 0.755948 0.643753
O O12 0.375004 0.698215 0.743993
O O13 0.251041 0.700497 0.671789
O O14 0.365305 0.644483 0.155870
#
# Coordination Sequence:
#
# PCOD9513659 Si02
#       6
#    32  16  32  32  32  32
#     4  11  24  40  56  81 122 163 197 245 307 361
#     4  11  26  44  60  85 127 169 199 242 315 380
#     4  11  22  38  65  93 116 152 208 259 299 349
#     4   9  16  35  57  90 117 147 186 242 300 359
#     4  11  20  40  64  94 120 153 197 255 298 358
#     4   9  16  31  66  89 111 144 195 243 293 354
#
# _framework density 18.694058999999999
#
# number of rings (size 3 to 8) (size 9 to 14) (size 15 to 20)
#    0.000    1.727    3.636    4.364    1.273    1.455 
#    1.636    4.545    0.000    0.000    0.000    0.000 
#    0.000    0.000    0.000    0.000    0.000    0.000 
#
# Total GULP energy -245083.478929 kJ/mol
# GULP energy per Si atom -5570.079067 kJ/mol
# Density = 1.865151 g / cm^3
# Si number density = 18.694059 Si / 1000 Ang^3
#
#
#
# Elastic Constant Matrix: (Units=GPa)
#
#
# Indices 1 2 3 4 5 6 
#
# 1 39.6374 14.1729 41.8046 0.0000 0.0000 0.0000
# 2 14.1729 134.3034 25.6471 0.0000 0.0000 0.0000
# 3 41.8046 25.6471 95.7919 0.0000 0.0000 0.0000
# 4 0.0000 0.0000 0.0000 34.8642 0.0000 0.0000
# 5 0.0000 0.0000 0.0000 0.0000 12.5718 0.0000
# 6 0.0000 0.0000 0.0000 0.0000 0.0000 20.8047
#
#
#
# Elastic Compliance Matrix: (Units=1/GPa)
#
#
# Indices 1 2 3 4 5 6 
#
# 1 0.046896 -0.001097 -0.020172 0.000000 0.000000 0.000000
# 2 -0.001097 0.007873 -0.001629 0.000000 0.000000 0.000000
# 3 -0.020172 -0.001629 0.019679 0.000000 0.000000 0.000000
# 4 0.000000 0.000000 0.000000 0.028683 0.000000 0.000000
# 5 0.000000 0.000000 0.000000 0.000000 0.079543 0.000000
# 6 0.000000 0.000000 0.000000 0.000000 0.000000 0.048066
#
#
# Mechanical properties :
#
#
# Convention : Reuss Voigt Hill
#
# Bulk Modulus (GPa) = 34.90254 48.10910 41.50582
# Shear Modulus (GPa) = 17.47723 26.18868 21.83296
#
# Velocity S-wave (km/s) = 3.06094 3.74693 3.42118
# Velocity P-wave (km/s) = 5.58600 6.67159 6.15279
#
# Compressibility (1/GPa) = 0.02865121
#
# Stress axis : x y z
#
# Youngs Moduli (GPa) = 21.32378 127.02158 50.81584
#
# Poissons Ratio (x) = 0.13930 1.02507
# Poissons Ratio (y) = 0.02339 0.08279
# Poissons Ratio (z) = 0.43015 0.20694
#
# Static dielectric constant tensor:
#      x y z
#    x 1.648780 0.000000 0.000000 
#    y 0.000000 1.679260 0.000000 
#    z 0.000000 0.000000 1.658640 
# 
# From -- ./inp_files/23584.got.cif
#   From: 2010.05.17/outbox.cif.g08.bks.cpg/sg69_12_cif.got.tgz:23584.got - 2010.06.03 19:29:58.
