data_PCOD9513292
_publ_section_title
;
Structure prediction by ZEFSAII (Michael W. Deem and Ramdas Pophale) SiO2 
 PCOD9513292
Probable space group: F M M M
;
_chemical_formula_sum "Si O2"
_cell_formula_units_Z 160
_cell_length_a 9.290521
_cell_length_b 29.051801
_cell_length_c 31.456518
_cell_angle_alpha 90.000000
_cell_angle_beta 90.000000
_cell_angle_gamma 90.000000
_cell_volume 8490.314501
_symmetry_space_group_name_H-M "F M M M"
_symmetry_group_IT_number 69
_symmetry_cell_setting 'orthorhombic'
loop_
_space_group_symop_operation_xyz
x,y,z
-x,-y,z
x,-y,-z
-x,y,-z
-x,-y,-z
x,y,-z
-x,y,z
x,-y,z
x,1/2+y,1/2+z
-x,1/2-y,1/2+z
x,1/2-y,1/2-z
-x,1/2+y,1/2-z
-x,1/2-y,1/2-z
x,1/2+y,1/2-z
-x,1/2+y,1/2+z
x,1/2-y,1/2+z
1/2+x,y,1/2+z
1/2-x,-y,1/2+z
1/2+x,-y,1/2-z
1/2-x,y,1/2-z
1/2-x,-y,1/2-z
1/2+x,y,1/2-z
1/2-x,y,1/2+z
1/2+x,-y,1/2+z
1/2+x,1/2+y,z
1/2-x,1/2-y,z
1/2+x,1/2-y,-z
1/2-x,1/2+y,-z
1/2-x,1/2-y,-z
1/2+x,1/2+y,-z
1/2-x,1/2+y,z
1/2+x,1/2-y,z
loop_
_atom_site_type_symbol
_atom_site_label
_atom_site_fract_x
_atom_site_fract_y
_atom_site_fract_z
Si Si1 0.500000 0.944767 0.819248
Si Si2 0.175432 0.205306 0.203887
Si Si3 0.777126 0.609208 0.340085
Si Si4 0.832494 0.630597 0.562357
Si Si5 0.326010 0.051328 0.500000
Si Si6 0.824695 0.800463 0.500000
Si Si7 0.500000 0.444947 0.782333
O O1 0.367323 0.919556 0.840779
O O2 0.500000 0.934702 0.768074
O O3 0.500000 0.000000 0.823838
O O4 0.250000 0.202696 0.250000
O O5 0.250000 0.250000 0.183046
O O6 0.223286 0.159230 0.180880
O O7 0.000000 0.208530 0.206023
O O8 0.827147 0.620347 0.387714
O O9 0.870315 0.578029 0.307901
O O10 0.787775 0.582794 0.540009
O O11 0.734648 0.670372 0.540995
O O12 0.000000 0.640780 0.551331
O O13 0.500000 0.047783 0.500000
O O14 0.266382 0.000000 0.500000
O O15 0.750000 0.750000 0.500000
O O16 0.000000 0.797755 0.500000
O O17 0.500000 0.500000 0.786668
#
# Coordination Sequence:
#
# PCOD9513292 Si02
#       7
#    16  32  32  32  16  16  16
#     4  11  26  42  61  92 135 182 231 284 344 397
#     4  11  23  39  61  90 121 163 213 262 323 387
#     4  12  24  40  65  94 132 176 222 281 333 388
#     4  10  21  41  63  96 134 165 216 265 313 386
#     4   8  16  32  59  87 116 156 196 246 304 361
#     4  11  24  44  74 102 135 174 207 259 330 397
#     4  11  22  42  65  92 127 178 235 286 336 399
#
# _framework density 18.845002999999998
#
# number of rings (size 3 to 8) (size 9 to 14) (size 15 to 20)
#    0.000    1.300    2.000    5.100    4.200    4.000 
#    0.000    2.000    0.000    1.200    0.000    0.000 
#    0.000    0.000    0.000    0.000    0.000    0.000 
#
# Total GULP energy -222932.197226 kJ/mol
# GULP energy per Si atom -5573.304931 kJ/mol
# Density = 1.880211 g / cm^3
# Si number density = 18.845003 Si / 1000 Ang^3
#
#
#
# Elastic Constant Matrix: (Units=GPa)
#
#
# Indices 1 2 3 4 5 6 
#
# 1 118.2256 44.9551 2.5289 0.0000 0.0000 0.0000
# 2 44.9551 167.7986 51.3907 0.0000 0.0000 0.0000
# 3 2.5289 51.3907 93.0513 0.0000 0.0000 0.0000
# 4 0.0000 0.0000 0.0000 -1.8042 0.0000 0.0000
# 5 0.0000 0.0000 0.0000 0.0000 19.9811 0.0000
# 6 0.0000 0.0000 0.0000 0.0000 0.0000 33.8568
#
#
#
# Elastic Compliance Matrix: (Units=1/GPa)
#
#
# Indices 1 2 3 4 5 6 
#
# 1 0.009565 -0.002988 0.001391 0.000000 0.000000 0.000000
# 2 -0.002988 0.008106 -0.004396 0.000000 0.000000 0.000000
# 3 0.001391 -0.004396 0.013137 0.000000 0.000000 0.000000
# 4 0.000000 0.000000 0.000000 -0.554254 0.000000 0.000000
# 5 0.000000 0.000000 0.000000 0.000000 0.050047 0.000000
# 6 0.000000 0.000000 0.000000 0.000000 0.000000 0.029536
#
#
# Mechanical properties :
#
#
# Convention : Reuss Voigt Hill
#
# Bulk Modulus (GPa) = 53.13313 64.09167 58.61240
# Shear Modulus (GPa) = -11.74809 29.08681 8.66936
#
# Velocity S-wave (km/s) = -2.49952 3.93297 2.14717
# Velocity P-wave (km/s) = 4.46384 7.39649 6.10876
#
# Compressibility (1/GPa) = 0.01882065
#
# Stress axis : x y z
#
# Youngs Moduli (GPa) = 104.54770 123.35858 76.12251
#
# Poissons Ratio (x) = 0.36865 -0.10585
# Poissons Ratio (y) = 0.31243 0.33462
# Poissons Ratio (z) = -0.14538 0.54226
#
# Static dielectric constant tensor:
#      x y z
#    x 1.784140 0.000000 0.000000 
#    y 0.000000 1.707430 0.000000 
#    z 0.000000 0.000000 1.482050 
# 
# From -- ./inp_files/44649.got.cif
#   From: 2010.05.17/outbox.cif.g08.bks.cpg/sg69_23_cif.got.tgz:44649.got - 2010.06.03 19:29:58.
