data_PCOD9513600
_publ_section_title
;
Structure prediction by ZEFSAII (Michael W. Deem and Ramdas Pophale) SiO2 
 PCOD9513600
Probable space group: F M M M
;
_chemical_formula_sum "Si O2"
_cell_formula_units_Z 96
_cell_length_a 32.109414
_cell_length_b 11.161366
_cell_length_c 14.165858
_cell_angle_alpha 90.000000
_cell_angle_beta 90.000000
_cell_angle_gamma 90.000000
_cell_volume 5076.829910
_symmetry_space_group_name_H-M "F M M M"
_symmetry_group_IT_number 69
_symmetry_cell_setting 'orthorhombic'
loop_
_space_group_symop_operation_xyz
x,y,z
-x,-y,z
x,-y,-z
-x,y,-z
-x,-y,-z
x,y,-z
-x,y,z
x,-y,z
x,1/2+y,1/2+z
-x,1/2-y,1/2+z
x,1/2-y,1/2-z
-x,1/2+y,1/2-z
-x,1/2-y,1/2-z
x,1/2+y,1/2-z
-x,1/2+y,1/2+z
x,1/2-y,1/2+z
1/2+x,y,1/2+z
1/2-x,-y,1/2+z
1/2+x,-y,1/2-z
1/2-x,y,1/2-z
1/2-x,-y,1/2-z
1/2+x,y,1/2-z
1/2-x,y,1/2+z
1/2+x,-y,1/2+z
1/2+x,1/2+y,z
1/2-x,1/2-y,z
1/2+x,1/2-y,-z
1/2-x,1/2+y,-z
1/2-x,1/2-y,-z
1/2+x,1/2+y,-z
1/2-x,1/2+y,z
1/2+x,1/2-y,z
loop_
_atom_site_type_symbol
_atom_site_label
_atom_site_fract_x
_atom_site_fract_y
_atom_site_fract_z
Si Si1 0.084290 0.500000 0.113129
Si Si2 0.714478 0.353624 0.500000
Si Si3 0.643486 0.723110 0.358183
Si Si4 0.500000 0.000000 0.852702
Si Si5 0.587935 0.861432 0.500000
Si Si6 0.000000 0.784131 0.500000
O O1 0.111618 0.385473 0.130451
O O2 0.046002 0.500000 0.186690
O O3 0.072064 0.500000 0.000000
O O4 0.724414 0.500000 0.500000
O O5 0.750000 0.250000 0.500000
O O6 0.684934 0.320770 0.588649
O O7 0.651826 0.750000 0.250000
O O8 0.618174 0.827685 0.412081
O O9 0.500000 0.875551 0.911780
O O10 0.543681 0.789246 0.500000
O O11 0.577562 0.000000 0.500000
#
# Coordination Sequence:
#
# PCOD9513600 Si02
#       6
#    16  16  32   8  16   8
#     4  12  17  40  66  88 123 165 226 264 298 366
#     4  11  24  47  72  98 130 163 208 262 324 393
#     4  11  23  41  67  92 122 169 211 256 317 382
#     4  11  16  30  68  90 108 171 232 259 296 366
#     4  11  23  37  56  89 130 163 207 269 320 364
#     4  11  17  34  56  84 119 169 216 260 314 363
#
# _framework density 18.909438000000002
#
# number of rings (size 3 to 8) (size 9 to 14) (size 15 to 20)
#    0.000    0.833   10.000    0.250    2.333    3.333 
#    0.000    5.000    0.000    0.000    0.000    0.000 
#    0.000    0.000    0.000    0.000    0.000    0.000 
#
# Total GULP energy -133619.674153 kJ/mol
# GULP energy per Si atom -5567.486423 kJ/mol
# Density = 1.886640 g / cm^3
# Si number density = 18.909438 Si / 1000 Ang^3
#
#
#
# Elastic Constant Matrix: (Units=GPa)
#
#
# Indices 1 2 3 4 5 6 
#
# 1 141.5627 58.5969 32.6659 0.0000 0.0000 0.0000
# 2 58.5969 142.7398 30.0231 0.0000 0.0000 0.0000
# 3 32.6659 30.0231 114.1950 0.0000 0.0000 0.0000
# 4 0.0000 0.0000 0.0000 -42.9584 0.0000 0.0000
# 5 0.0000 0.0000 0.0000 0.0000 24.9164 0.0000
# 6 0.0000 0.0000 0.0000 0.0000 0.0000 -79.6192
#
#
#
# Elastic Compliance Matrix: (Units=1/GPa)
#
#
# Indices 1 2 3 4 5 6 
#
# 1 0.008797 -0.003263 -0.001659 0.000000 0.000000 0.000000
# 2 -0.003263 0.008626 -0.001335 0.000000 0.000000 0.000000
# 3 -0.001659 -0.001335 0.009582 0.000000 0.000000 0.000000
# 4 0.000000 0.000000 0.000000 -0.023278 0.000000 0.000000
# 5 0.000000 0.000000 0.000000 0.000000 0.040134 0.000000
# 6 0.000000 0.000000 0.000000 0.000000 0.000000 -0.012560
#
#
# Mechanical properties :
#
#
# Convention : Reuss Voigt Hill
#
# Bulk Modulus (GPa) = 68.99547 71.22994 70.11271
# Shear Modulus (GPa) = 102.78737 -1.05146 50.86796
#
# Velocity S-wave (km/s) = 7.38077 -0.74650 5.19223
# Velocity P-wave (km/s) = 10.44992 6.08340 8.55010
#
# Compressibility (1/GPa) = 0.01449370
#
# Stress axis : x y z
#
# Youngs Moduli (GPa) = 113.67247 115.93171 104.35899
#
# Poissons Ratio (x) = 0.37823 0.17310
# Poissons Ratio (y) = 0.37086 0.13927
# Poissons Ratio (z) = 0.18855 0.15472
#
# Static dielectric constant tensor:
#      x y z
#    x 1.689260 0.000000 0.000000 
#    y 0.000000 1.689270 0.000000 
#    z 0.000000 0.000000 -0.352900 
# 
# From -- ./inp_files/19187.got.cif
#   From: 2010.05.17/outbox.cif.g08.bks.cpg/sg69_10_cif.got.tgz:19187.got - 2010.06.03 19:29:58.
