data_PCOD9513500
_publ_section_title
;
Structure prediction by ZEFSAII (Michael W. Deem and Ramdas Pophale) SiO2 
 PCOD9513500
Probable space group: F M M M
;
_chemical_formula_sum "Si O2"
_cell_formula_units_Z 144
_cell_length_a 30.962317
_cell_length_b 13.403203
_cell_length_c 18.222204
_cell_angle_alpha 90.000000
_cell_angle_beta 90.000000
_cell_angle_gamma 90.000000
_cell_volume 7562.109338
_symmetry_space_group_name_H-M "F M M M"
_symmetry_group_IT_number 69
_symmetry_cell_setting 'orthorhombic'
loop_
_space_group_symop_operation_xyz
x,y,z
-x,-y,z
x,-y,-z
-x,y,-z
-x,-y,-z
x,y,-z
-x,y,z
x,-y,z
x,1/2+y,1/2+z
-x,1/2-y,1/2+z
x,1/2-y,1/2-z
-x,1/2+y,1/2-z
-x,1/2-y,1/2-z
x,1/2+y,1/2-z
-x,1/2+y,1/2+z
x,1/2-y,1/2+z
1/2+x,y,1/2+z
1/2-x,-y,1/2+z
1/2+x,-y,1/2-z
1/2-x,y,1/2-z
1/2-x,-y,1/2-z
1/2+x,y,1/2-z
1/2-x,y,1/2+z
1/2+x,-y,1/2+z
1/2+x,1/2+y,z
1/2-x,1/2-y,z
1/2+x,1/2-y,-z
1/2-x,1/2+y,-z
1/2-x,1/2-y,-z
1/2+x,1/2+y,-z
1/2-x,1/2+y,z
1/2+x,1/2-y,z
loop_
_atom_site_type_symbol
_atom_site_label
_atom_site_fract_x
_atom_site_fract_y
_atom_site_fract_z
Si Si1 0.199989 0.500000 0.774111
Si Si2 0.160598 0.000000 0.000000
Si Si3 0.701045 0.285172 0.000000
Si Si4 0.653769 0.839466 0.122615
Si Si5 0.000000 0.617647 0.412736
Si Si6 0.625897 0.500000 0.837718
Si Si7 0.423067 0.798187 0.678649
Si Si8 0.370337 0.000000 0.000000
O O1 0.250000 0.500000 0.750000
O O2 0.184149 0.596242 0.822218
O O3 0.172565 0.500000 0.699474
O O4 0.190499 0.902064 0.000000
O O5 0.131516 0.000000 0.073930
O O6 0.750000 0.250000 0.000000
O O7 0.680577 0.238449 0.073509
O O8 0.614924 0.778994 0.159204
O O9 0.633150 0.914623 0.064186
O O10 0.041718 0.675862 0.382639
O O11 0.000000 0.500000 0.388239
O O12 0.000000 0.616956 0.500000
O O13 0.600601 0.403454 0.809823
O O14 0.444809 0.750000 0.750000
#
# Coordination Sequence:
#
# PCOD9513500 Si02
#       8
#    16   8  16  32  16  16  32   8
#     4  11  25  43  68 100 141 181 239 290 333 410
#     4  12  26  39  66  95 132 175 231 291 344 406
#     4  11  25  39  63  93 133 180 234 284 345 407
#     4  10  22  42  66  96 131 185 223 282 346 412
#     4  11  27  44  74 108 138 174 226 300 350 427
#     4  12  25  42  67 104 133 181 225 287 348 418
#     4  12  24  45  71 100 140 176 228 277 361 418
#     4   8  20  39  64  87 128 171 231 260 330 409
#
# _framework density 19.042306
#
# number of rings (size 3 to 8) (size 9 to 14) (size 15 to 20)
#    0.000    1.000    5.556    0.333    7.778    1.778 
#    0.000    1.111    0.000    0.667    0.000    0.000 
#    0.000    0.000    0.000    0.000    0.000    0.000 
#
# Total GULP energy -200418.577363 kJ/mol
# GULP energy per Si atom -5567.182705 kJ/mol
# Density = 1.899896 g / cm^3
# Si number density = 19.042306 Si / 1000 Ang^3
#
#
#
# Elastic Constant Matrix: (Units=GPa)
#
#
# Indices 1 2 3 4 5 6 
#
# 1 105.3183 43.3534 34.5689 0.0000 0.0000 0.0000
# 2 43.3534 163.1970 48.6226 0.0000 0.0000 0.0000
# 3 34.5689 48.6226 112.2409 0.0000 0.0000 0.0000
# 4 0.0000 0.0000 0.0000 29.0983 0.0000 0.0000
# 5 0.0000 0.0000 0.0000 0.0000 28.8666 0.0000
# 6 0.0000 0.0000 0.0000 0.0000 0.0000 8.2244
#
#
#
# Elastic Compliance Matrix: (Units=1/GPa)
#
#
# Indices 1 2 3 4 5 6 
#
# 1 0.011235 -0.002243 -0.002489 0.000000 0.000000 0.000000
# 2 -0.002243 0.007484 -0.002551 0.000000 0.000000 0.000000
# 3 -0.002489 -0.002551 0.010781 0.000000 0.000000 0.000000
# 4 0.000000 0.000000 0.000000 0.034366 0.000000 0.000000
# 5 0.000000 0.000000 0.000000 0.000000 0.034642 0.000000
# 6 0.000000 0.000000 0.000000 0.000000 0.000000 0.121589
#
#
# Mechanical properties :
#
#
# Convention : Reuss Voigt Hill
#
# Bulk Modulus (GPa) = 66.96038 70.42733 68.69386
# Shear Modulus (GPa) = 20.86456 30.18527 25.52492
#
# Velocity S-wave (km/s) = 3.31372 3.98574 3.66516
# Velocity P-wave (km/s) = 7.06267 7.63193 7.35281
#
# Compressibility (1/GPa) = 0.01493420
#
# Stress axis : x y z
#
# Youngs Moduli (GPa) = 89.00549 133.62724 92.75636
#
# Poissons Ratio (x) = 0.29975 0.23083
# Poissons Ratio (y) = 0.19966 0.23662
# Poissons Ratio (z) = 0.22150 0.34088
#
# Static dielectric constant tensor:
#      x y z
#    x 1.706850 0.000000 0.000000 
#    y 0.000000 1.579370 0.000000 
#    z 0.000000 0.000000 1.704150 
# 
# From -- ./inp_files/27477.got.cif
#   From: 2010.05.17/outbox.cif.g08.bks.cpg/sg69_14_cif.got.tgz:27477.got - 2010.06.03 19:29:58.
