data_PCOD9513786
_publ_section_title
;
Structure prediction by ZEFSAII (Michael W. Deem and Ramdas Pophale) SiO2 
 PCOD9513786
Probable space group: F M M M
;
_chemical_formula_sum "Si O2"
_cell_formula_units_Z 104
_cell_length_a 15.350174
_cell_length_b 27.481841
_cell_length_c 12.132463
_cell_angle_alpha 90.000000
_cell_angle_beta 90.000000
_cell_angle_gamma 90.000000
_cell_volume 5118.092149
_symmetry_space_group_name_H-M "F M M M"
_symmetry_group_IT_number 69
_symmetry_cell_setting 'orthorhombic'
loop_
_space_group_symop_operation_xyz
x,y,z
-x,-y,z
x,-y,-z
-x,y,-z
-x,-y,-z
x,y,-z
-x,y,z
x,-y,z
x,1/2+y,1/2+z
-x,1/2-y,1/2+z
x,1/2-y,1/2-z
-x,1/2+y,1/2-z
-x,1/2-y,1/2-z
x,1/2+y,1/2-z
-x,1/2+y,1/2+z
x,1/2-y,1/2+z
1/2+x,y,1/2+z
1/2-x,-y,1/2+z
1/2+x,-y,1/2-z
1/2-x,y,1/2-z
1/2-x,-y,1/2-z
1/2+x,y,1/2-z
1/2-x,y,1/2+z
1/2+x,-y,1/2+z
1/2+x,1/2+y,z
1/2-x,1/2-y,z
1/2+x,1/2-y,-z
1/2-x,1/2+y,-z
1/2-x,1/2-y,-z
1/2+x,1/2+y,-z
1/2-x,1/2+y,z
1/2+x,1/2-y,z
loop_
_atom_site_type_symbol
_atom_site_label
_atom_site_fract_x
_atom_site_fract_y
_atom_site_fract_z
Si Si1 0.104439 0.500000 0.374516
Si Si2 0.346863 0.906296 0.771756
Si Si3 0.250000 0.750000 0.750000
Si Si4 0.098014 0.056979 0.500000
Si Si5 0.097586 0.690016 0.868725
O O1 0.138136 0.500000 0.500000
O O2 0.130020 0.449994 0.311855
O O3 0.000000 0.500000 0.376694
O O4 0.250000 0.889163 0.750000
O O5 0.351368 0.929935 0.891430
O O6 0.402970 0.857800 0.790095
O O7 0.181127 0.720559 0.827259
O O8 0.000000 0.078961 0.500000
O O9 0.086692 0.000000 0.500000
O O10 0.000000 0.712690 0.860327
O O11 0.109390 0.677932 0.000000
#
# Coordination Sequence:
#
# PCOD9513786 Si02
#       5
#    16  32   8  16  32
#     4  11  25  41  59  91 139 183 215 260 326 392
#     4  12  24  39  65  96 133 170 222 272 321 383
#     4  12  24  48  68 102 132 168 208 276 352 414
#     4  11  22  38  66  95 124 172 228 274 318 381
#     4  11  24  44  71 100 131 170 220 276 332 395
#
# _framework density 20.320072
#
# number of rings (size 3 to 8) (size 9 to 14) (size 15 to 20)
#    0.000    0.615    4.615    4.154    2.154    0.000 
#    0.000    0.000    0.000    5.538    0.000    0.000 
#    0.000    0.000    0.000    0.000    0.000    0.000 
#
# Total GULP energy -144899.670493 kJ/mol
# GULP energy per Si atom -5573.064250 kJ/mol
# Density = 2.027382 g / cm^3
# Si number density = 20.320072 Si / 1000 Ang^3
#
#
#
# Elastic Constant Matrix: (Units=GPa)
#
#
# Indices 1 2 3 4 5 6 
#
# 1 152.6369 44.8919 52.1124 0.0000 0.0000 0.0000
# 2 44.8919 88.5985 42.3327 0.0000 0.0000 0.0000
# 3 52.1124 42.3327 142.2691 0.0000 0.0000 0.0000
# 4 0.0000 0.0000 0.0000 17.8812 0.0000 0.0000
# 5 0.0000 0.0000 0.0000 0.0000 23.8131 0.0000
# 6 0.0000 0.0000 0.0000 0.0000 0.0000 42.4357
#
#
#
# Elastic Compliance Matrix: (Units=1/GPa)
#
#
# Indices 1 2 3 4 5 6 
#
# 1 0.008184 -0.003164 -0.002056 0.000000 0.000000 0.000000
# 2 -0.003164 0.014381 -0.003120 0.000000 0.000000 0.000000
# 3 -0.002056 -0.003120 0.008711 0.000000 0.000000 0.000000
# 4 0.000000 0.000000 0.000000 0.055925 0.000000 0.000000
# 5 0.000000 0.000000 0.000000 0.000000 0.041994 0.000000
# 6 0.000000 0.000000 0.000000 0.000000 0.000000 0.023565
#
#
# Mechanical properties :
#
#
# Convention : Reuss Voigt Hill
#
# Bulk Modulus (GPa) = 68.51946 73.57539 71.04743
# Shear Modulus (GPa) = 28.68531 33.10382 30.89457
#
# Velocity S-wave (km/s) = 3.76130 4.04061 3.90346
# Velocity P-wave (km/s) = 7.25648 7.61942 7.44016
#
# Compressibility (1/GPa) = 0.01459439
#
# Stress axis : x y z
#
# Youngs Moduli (GPa) = 122.18667 69.53624 114.80386
#
# Poissons Ratio (x) = 0.22004 0.23607
# Poissons Ratio (y) = 0.38664 0.35819
# Poissons Ratio (z) = 0.25125 0.21696
#
# Static dielectric constant tensor:
#      x y z
#    x 1.718770 0.000000 0.000000 
#    y 0.000000 1.794370 0.000000 
#    z 0.000000 0.000000 1.684020 
# 
# From -- ./inp_files/7442.got.cif
#   From: 2010.05.17/outbox.cif.g08.bks.cpg/sg69_4_cif.got.tgz:7442.got - 2010.06.03 19:29:58.
