data_PCOD9513981
_publ_section_title
;
Structure prediction by ZEFSAII (Michael W. Deem and Ramdas Pophale) SiO2 
 PCOD9513981
Probable space group: F M M M
;
_chemical_formula_sum "Si O2"
_cell_formula_units_Z 44
_cell_length_a 24.000000
_cell_length_b 15.000000
_cell_length_c 27.000000
_cell_angle_alpha 90.000000
_cell_angle_beta 90.000000
_cell_angle_gamma 90.000000
_cell_volume 9720.000000
_symmetry_space_group_name_H-M "F M M M"
_symmetry_group_IT_number 69
_symmetry_cell_setting 'orthorhombic'
loop_
_space_group_symop_operation_xyz
x,y,z
-x,-y,z
x,-y,-z
-x,y,-z
-x,-y,-z
x,y,-z
-x,y,z
x,-y,z
x,1/2+y,1/2+z
-x,1/2-y,1/2+z
x,1/2-y,1/2-z
-x,1/2+y,1/2-z
-x,1/2-y,1/2-z
x,1/2+y,1/2-z
-x,1/2+y,1/2+z
x,1/2-y,1/2+z
1/2+x,y,1/2+z
1/2-x,-y,1/2+z
1/2+x,-y,1/2-z
1/2-x,y,1/2-z
1/2-x,-y,1/2-z
1/2+x,y,1/2-z
1/2-x,y,1/2+z
1/2+x,-y,1/2+z
1/2+x,1/2+y,z
1/2-x,1/2-y,z
1/2+x,1/2-y,-z
1/2-x,1/2+y,-z
1/2-x,1/2-y,-z
1/2+x,1/2+y,-z
1/2-x,1/2+y,z
1/2+x,1/2-y,z
loop_
_atom_site_type_symbol
_atom_site_label
_atom_site_fract_x
_atom_site_fract_y
_atom_site_fract_z
Si Si1 0.888209 0.107435 0.384366
Si Si2 0.935493 0.232012 0.695166
Si Si3 0.658045 0.898105 0.554672
Si Si4 0.275749 0.848887 0.057459
Si Si5 0.500000 0.891952 0.944201
Si Si6 0.061865 0.894881 0.876564
O O1 0.897920 0.161899 0.334173
O O2 0.831109 0.135355 0.411446
O O3 0.943105 0.132930 0.416492
O O4 0.888152 0.000000 0.378055
O O5 0.915396 0.250000 0.750000
O O6 0.937137 0.328247 0.669103
O O7 0.000000 0.198681 0.696296
O O8 0.660101 0.855977 0.500000
O O9 0.720670 0.901036 0.574751
O O10 0.610844 0.858209 0.588659
O O11 0.639749 0.000000 0.549255
O O12 0.250000 0.750000 0.059420
O O13 0.287471 0.872889 0.000000
O O14 0.500000 0.000000 0.945966
O O15 0.500000 0.857294 0.000000
O O16 0.000000 0.888736 0.899774
O O17 0.070464 0.000000 0.864080
#
# Coordination Sequence:
#
# PCOD9513981 Si02
#       6
#    32  32  32  32  16  32
#     4  11  21  35  57  85 117 153 193 235 288 350
#     4  10  21  37  56  78 108 143 185 242 296 343
#     4   9  17  30  49  74 104 137 174 216 264 324
#     4  10  20  33  52  79 113 153 194 229 269 330
#     4   9  18  32  51  80 119 155 184 221 272 336
#     4   9  18  33  54  78 104 138 182 232 289 345
#
# _framework density 4.5267489999999997
#
# number of rings (size 3 to 8) (size 9 to 14) (size 15 to 20)
#    0.000    2.273    0.909    2.182    0.000    2.909 
#    0.000    4.545    0.000    4.909    0.000    7.636 
#    0.000    0.000    0.000    0.000    0.000    0.000 
#
# Total GULP energy -244990.474017 kJ/mol
# GULP energy per Si atom -5567.965319 kJ/mol
# Density = 0.451645 g / cm^3
# Si number density = 4.526749 Si / 1000 Ang^3
#
#
#
# Elastic Constant Matrix: (Units=GPa)
#
#
# Indices 1 2 3 4 5 6 
#
# 1 139.4684 37.1348 89.4929 0.0000 0.0000 0.0000
# 2 37.1348 62.8653 33.4126 0.0000 0.0000 0.0000
# 3 89.4929 33.4126 110.9372 0.0000 0.0000 0.0000
# 4 0.0000 0.0000 0.0000 3.2012 0.0000 0.0000
# 5 0.0000 0.0000 0.0000 0.0000 19.5949 0.0000
# 6 0.0000 0.0000 0.0000 0.0000 0.0000 22.2171
#
#
#
# Elastic Compliance Matrix: (Units=1/GPa)
#
#
# Indices 1 2 3 4 5 6 
#
# 1 0.015311 -0.002952 -0.011462 0.000000 0.000000 0.000000
# 2 -0.002952 0.019508 -0.003494 0.000000 0.000000 0.000000
# 3 -0.011462 -0.003494 0.019313 0.000000 0.000000 0.000000
# 4 0.000000 0.000000 0.000000 0.312387 0.000000 0.000000
# 5 0.000000 0.000000 0.000000 0.000000 0.051034 0.000000
# 6 0.000000 0.000000 0.000000 0.000000 0.000000 0.045010
#
#
# Mechanical properties :
#
#
# Convention : Reuss Voigt Hill
#
# Bulk Modulus (GPa) = 54.59951 70.37240 62.48595
# Shear Modulus (GPa) = 9.91108 19.21801 14.56455
#
# Velocity S-wave (km/s) = 2.34212 3.26138 2.83920
# Velocity P-wave (km/s) = 6.12644 7.28912 6.73293
#
# Compressibility (1/GPa) = 0.01831518
#
# Stress axis : x y z
#
# Youngs Moduli (GPa) = 65.31169 51.26126 51.77836
#
# Poissons Ratio (x) = 0.15133 0.59350
# Poissons Ratio (y) = 0.19281 0.18091
# Poissons Ratio (z) = 0.74863 0.17910
#
# Static dielectric constant tensor:
#      x y z
#    x 1.632130 0.000000 0.000000 
#    y 0.000000 1.826830 0.000000 
#    z 0.000000 0.000000 1.644200 
# 
# From -- ./inp_files/43152.got.cif
#   From: 2010.05.17/outbox.ucp.g08.bks.cvg/sg69_22_cif.got.tgz:43152.got - 2010.06.11 16:51:34.
