data_PCOD9513355
_publ_section_title
;
Structure prediction by ZEFSAII (Michael W. Deem and Ramdas Pophale) SiO2 
 PCOD9513355
Probable space group: F M M M
;
_chemical_formula_sum "Si O2"
_cell_formula_units_Z 144
_cell_length_a 10.089681
_cell_length_b 28.155291
_cell_length_c 27.883234
_cell_angle_alpha 90.000000
_cell_angle_beta 90.000000
_cell_angle_gamma 90.000000
_cell_volume 7921.010690
_symmetry_space_group_name_H-M "F M M M"
_symmetry_group_IT_number 69
_symmetry_cell_setting 'orthorhombic'
loop_
_space_group_symop_operation_xyz
x,y,z
-x,-y,z
x,-y,-z
-x,y,-z
-x,-y,-z
x,y,-z
-x,y,z
x,-y,z
x,1/2+y,1/2+z
-x,1/2-y,1/2+z
x,1/2-y,1/2-z
-x,1/2+y,1/2-z
-x,1/2-y,1/2-z
x,1/2+y,1/2-z
-x,1/2+y,1/2+z
x,1/2-y,1/2+z
1/2+x,y,1/2+z
1/2-x,-y,1/2+z
1/2+x,-y,1/2-z
1/2-x,y,1/2-z
1/2-x,-y,1/2-z
1/2+x,y,1/2-z
1/2-x,y,1/2+z
1/2+x,-y,1/2+z
1/2+x,1/2+y,z
1/2-x,1/2-y,z
1/2+x,1/2-y,-z
1/2-x,1/2+y,-z
1/2-x,1/2-y,-z
1/2+x,1/2+y,-z
1/2-x,1/2+y,z
1/2+x,1/2-y,z
loop_
_atom_site_type_symbol
_atom_site_label
_atom_site_fract_x
_atom_site_fract_y
_atom_site_fract_z
Si Si1 0.742604 0.853719 0.350219
Si Si2 0.000000 0.816565 0.296232
Si Si3 0.661058 0.395113 0.444646
Si Si4 0.154334 0.553561 0.295737
Si Si5 0.500000 0.704459 0.184801
Si Si6 0.349997 0.000000 0.058115
O O1 0.870277 0.840728 0.318337
O O2 0.784318 0.859284 0.405376
O O3 0.687165 0.904121 0.331703
O O4 0.630261 0.814735 0.341340
O O5 0.000000 0.761024 0.310426
O O6 0.000000 0.817452 0.238602
O O7 0.697514 0.385581 0.500000
O O8 0.500000 0.395726 0.442564
O O9 0.708683 0.448575 0.430750
O O10 0.174994 0.500000 0.315521
O O11 0.250000 0.558428 0.250000
O O12 0.000000 0.557142 0.281197
O O13 0.500000 0.000000 0.078081
O O14 0.360093 0.000000 0.000000
#
# Coordination Sequence:
#
# PCOD9513355 Si02
#       6
#    32  16  32  32  16  16
#     4  12  22  37  62  90 114 159 196 245 302 357
#     4  11  24  42  64  88 111 156 200 248 299 361
#     4   9  18  34  56  84 118 156 203 251 288 343
#     4  10  22  38  56  83 124 166 200 235 284 359
#     4  11  24  42  62  86 123 146 196 254 305 355
#     4   7  12  26  50  79 112 148 193 244 281 319
#
# _framework density 18.179497000000001
#
# number of rings (size 3 to 8) (size 9 to 14) (size 15 to 20)
#    0.000    1.889    2.222    4.000    3.111    1.778 
#    0.000    0.556    0.000    4.000    0.000    3.889 
#    0.000    0.000    0.000    0.000    0.000    0.000 
#
# Total GULP energy -200881.638980 kJ/mol
# GULP energy per Si atom -5580.045527 kJ/mol
# Density = 1.813812 g / cm^3
# Si number density = 18.179497 Si / 1000 Ang^3
#
#
#
# Elastic Constant Matrix: (Units=GPa)
#
#
# Indices 1 2 3 4 5 6 
#
# 1 93.9831 27.7953 36.1593 0.0000 0.0000 0.0000
# 2 27.7953 66.1908 39.0332 0.0000 0.0000 0.0000
# 3 36.1593 39.0332 95.8837 0.0000 0.0000 0.0000
# 4 0.0000 0.0000 0.0000 25.5764 0.0000 0.0000
# 5 0.0000 0.0000 0.0000 0.0000 4.0808 0.0000
# 6 0.0000 0.0000 0.0000 0.0000 0.0000 -11.8246
#
#
#
# Elastic Compliance Matrix: (Units=1/GPa)
#
#
# Indices 1 2 3 4 5 6 
#
# 1 0.012996 -0.003378 -0.003526 0.000000 0.000000 0.000000
# 2 -0.003378 0.020759 -0.007177 0.000000 0.000000 0.000000
# 3 -0.003526 -0.007177 0.014680 0.000000 0.000000 0.000000
# 4 0.000000 0.000000 0.000000 0.039099 0.000000 0.000000
# 5 0.000000 0.000000 0.000000 0.000000 0.245048 0.000000
# 6 0.000000 0.000000 0.000000 0.000000 0.000000 -0.084569
#
#
# Mechanical properties :
#
#
# Convention : Reuss Voigt Hill
#
# Bulk Modulus (GPa) = 49.32478 51.33703 50.33090
# Shear Modulus (GPa) = 17.67215 13.77117 15.72166
#
# Velocity S-wave (km/s) = 3.12122 2.75528 2.94394
# Velocity P-wave (km/s) = 6.33880 6.19858 6.26908
#
# Compressibility (1/GPa) = 0.02027379
#
# Stress axis : x y z
#
# Youngs Moduli (GPa) = 76.94804 48.17301 68.11782
#
# Poissons Ratio (x) = 0.16273 0.24016
# Poissons Ratio (y) = 0.25994 0.48886
# Poissons Ratio (z) = 0.27130 0.34572
#
# Static dielectric constant tensor:
#      x y z
#    x 1.613920 0.000000 0.000000 
#    y 0.000000 1.646390 0.000000 
#    z 0.000000 0.000000 1.607670 
# 
# From -- ./inp_files/44556.got.cif
#   From: 2010.05.17/outbox.cif.g08.bks.cpg/sg69_23_cif.got.tgz:44556.got - 2010.06.03 19:29:58.
