data_PCOD9513186
_publ_section_title
;
Structure prediction by ZEFSAII (Michael W. Deem and Ramdas Pophale) SiO2 
 PCOD9513186
Probable space group: F M M M
;
_chemical_formula_sum "Si O2"
_cell_formula_units_Z 160
_cell_length_a 34.746572
_cell_length_b 14.093917
_cell_length_c 18.500964
_cell_angle_alpha 90.000000
_cell_angle_beta 90.000000
_cell_angle_gamma 90.000000
_cell_volume 9060.205169
_symmetry_space_group_name_H-M "F M M M"
_symmetry_group_IT_number 69
_symmetry_cell_setting 'orthorhombic'
loop_
_space_group_symop_operation_xyz
x,y,z
-x,-y,z
x,-y,-z
-x,y,-z
-x,-y,-z
x,y,-z
-x,y,z
x,-y,z
x,1/2+y,1/2+z
-x,1/2-y,1/2+z
x,1/2-y,1/2-z
-x,1/2+y,1/2-z
-x,1/2-y,1/2-z
x,1/2+y,1/2-z
-x,1/2+y,1/2+z
x,1/2-y,1/2+z
1/2+x,y,1/2+z
1/2-x,-y,1/2+z
1/2+x,-y,1/2-z
1/2-x,y,1/2-z
1/2-x,-y,1/2-z
1/2+x,y,1/2-z
1/2-x,y,1/2+z
1/2+x,-y,1/2+z
1/2+x,1/2+y,z
1/2-x,1/2-y,z
1/2+x,1/2-y,-z
1/2-x,1/2+y,-z
1/2-x,1/2-y,-z
1/2+x,1/2+y,-z
1/2-x,1/2+y,z
1/2+x,1/2-y,z
loop_
_atom_site_type_symbol
_atom_site_label
_atom_site_fract_x
_atom_site_fract_y
_atom_site_fract_z
Si Si1 0.500000 0.759245 0.082273
Si Si2 0.709290 0.208030 0.584522
Si Si3 0.774856 0.500000 0.634928
Si Si4 0.645640 0.811244 0.822331
Si Si5 0.500000 0.111480 0.284914
Si Si6 0.060401 0.613807 0.843736
Si Si7 0.305929 0.000000 0.798296
O O1 0.500000 0.678184 0.144736
O O2 0.536062 0.828051 0.097736
O O3 0.500000 0.723391 0.000000
O O4 0.707898 0.230922 0.500000
O O5 0.750000 0.250000 0.614486
O O6 0.711400 0.095514 0.596763
O O7 0.671925 0.251864 0.622322
O O8 0.728773 0.500000 0.644199
O O9 0.789992 0.500000 0.716997
O O10 0.643050 0.750000 0.750000
O O11 0.602853 0.842877 0.843396
O O12 0.668977 0.907038 0.808110
O O13 0.463022 0.128271 0.232280
O O14 0.500000 0.000000 0.304683
O O15 0.060798 0.500000 0.856138
#
# Coordination Sequence:
#
# PCOD9513186 Si02
#       7
#    16  32  16  32  16  32  16
#     4  11  22  38  61  91 125 161 191 229 292 350
#     4  11  24  39  57  82 116 161 199 241 301 359
#     4  11  21  40  60  84 117 150 205 253 296 358
#     4  12  22  38  61  89 120 150 197 252 300 351
#     4   9  19  39  63  93 118 155 197 236 282 351
#     4  10  21  38  64  90 118 151 196 245 294 348
#     4  11  22  34  62  93 111 149 200 253 305 342
#
# _framework density 17.659645000000001
#
# number of rings (size 3 to 8) (size 9 to 14) (size 15 to 20)
#    0.000    1.200    5.000    3.600    0.000    2.200 
#    0.000    0.500    0.000    0.000    0.000    0.000 
#    0.000    0.000    0.000    0.000    0.000    0.000 
#
# Total GULP energy -223292.745558 kJ/mol
# GULP energy per Si atom -5582.318639 kJ/mol
# Density = 1.761945 g / cm^3
# Si number density = 17.659645 Si / 1000 Ang^3
#
#
#
# Elastic Constant Matrix: (Units=GPa)
#
#
# Indices 1 2 3 4 5 6 
#
# 1 139.4956 39.1888 17.6508 0.0000 0.0000 0.0000
# 2 39.1888 107.8557 4.4963 0.0000 0.0000 0.0000
# 3 17.6508 4.4963 43.9906 0.0000 0.0000 0.0000
# 4 0.0000 0.0000 0.0000 26.8101 0.0000 0.0000
# 5 0.0000 0.0000 0.0000 0.0000 13.0148 0.0000
# 6 0.0000 0.0000 0.0000 0.0000 0.0000 33.7923
#
#
#
# Elastic Compliance Matrix: (Units=1/GPa)
#
#
# Indices 1 2 3 4 5 6 
#
# 1 0.008375 -0.002915 -0.003062 0.000000 0.000000 0.000000
# 2 -0.002915 0.010326 0.000114 0.000000 0.000000 0.000000
# 3 -0.003062 0.000114 0.023949 0.000000 0.000000 0.000000
# 4 0.000000 0.000000 0.000000 0.037299 0.000000 0.000000
# 5 0.000000 0.000000 0.000000 0.000000 0.076835 0.000000
# 6 0.000000 0.000000 0.000000 0.000000 0.000000 0.029593
#
#
# Mechanical properties :
#
#
# Convention : Reuss Voigt Hill
#
# Bulk Modulus (GPa) = 32.33786 46.00151 39.16969
# Shear Modulus (GPa) = 23.99083 30.05718 27.02400
#
# Velocity S-wave (km/s) = 3.68980 4.13004 3.91611
# Velocity P-wave (km/s) = 6.04188 6.98917 6.53272
#
# Compressibility (1/GPa) = 0.03092351
#
# Stress axis : x y z
#
# Youngs Moduli (GPa) = 119.39975 96.84116 41.75496
#
# Poissons Ratio (x) = 0.28233 0.12787
# Poissons Ratio (y) = 0.34810 -0.00477
# Poissons Ratio (z) = 0.36566 -0.01107
#
# Static dielectric constant tensor:
#      x y z
#    x 1.616040 0.000000 0.000000 
#    y 0.000000 1.588750 0.000000 
#    z 0.000000 0.000000 1.590270 
# 
# From -- ./inp_files/27536.got.cif
#   From: 2010.05.17/outbox.cif.g08.bks.cpg/sg69_14_cif.got.tgz:27536.got - 2010.06.03 19:29:58.
