data_PCOD9513983
_publ_section_title
;
Structure prediction by ZEFSAII (Michael W. Deem and Ramdas Pophale) SiO2 
 PCOD9513983
Probable space group: F M M M
;
_chemical_formula_sum "Si O2"
_cell_formula_units_Z 40
_cell_length_a 18.000000
_cell_length_b 18.000000
_cell_length_c 27.000000
_cell_angle_alpha 90.000000
_cell_angle_beta 90.000000
_cell_angle_gamma 90.000000
_cell_volume 8748.000000
_symmetry_space_group_name_H-M "F M M M"
_symmetry_group_IT_number 69
_symmetry_cell_setting 'orthorhombic'
loop_
_space_group_symop_operation_xyz
x,y,z
-x,-y,z
x,-y,-z
-x,y,-z
-x,-y,-z
x,y,-z
-x,y,z
x,-y,z
x,1/2+y,1/2+z
-x,1/2-y,1/2+z
x,1/2-y,1/2-z
-x,1/2+y,1/2-z
-x,1/2-y,1/2-z
x,1/2+y,1/2-z
-x,1/2+y,1/2+z
x,1/2-y,1/2+z
1/2+x,y,1/2+z
1/2-x,-y,1/2+z
1/2+x,-y,1/2-z
1/2-x,y,1/2-z
1/2-x,-y,1/2-z
1/2+x,y,1/2-z
1/2-x,y,1/2+z
1/2+x,-y,1/2+z
1/2+x,1/2+y,z
1/2-x,1/2-y,z
1/2+x,1/2-y,-z
1/2-x,1/2+y,-z
1/2-x,1/2-y,-z
1/2+x,1/2+y,-z
1/2-x,1/2+y,z
1/2+x,1/2-y,z
loop_
_atom_site_type_symbol
_atom_site_label
_atom_site_fract_x
_atom_site_fract_y
_atom_site_fract_z
Si Si1 0.413080 0.715297 0.304514
Si Si2 0.914997 0.089843 0.444656
Si Si3 0.677433 0.910872 0.153819
Si Si4 0.191272 0.187832 0.876045
Si Si5 0.913802 0.086300 0.059453
O O1 0.500000 0.711122 0.318464
O O2 0.408077 0.750000 0.250000
O O3 0.374915 0.634144 0.308292
O O4 0.365644 0.768099 0.340772
O O5 0.893140 0.115725 0.500000
O O6 0.859752 0.106826 0.400072
O O7 0.000000 0.115207 0.434991
O O8 0.917572 0.000000 0.446497
O O9 0.758062 0.872500 0.153032
O O10 0.679041 0.000000 0.160522
O O11 0.250000 0.250000 0.895136
O O12 0.143375 0.142889 0.915946
O O13 0.000000 0.101434 0.073597
O O14 0.897303 0.000000 0.072981
O O15 0.909496 0.091116 0.000000
#
# Coordination Sequence:
#
# PCOD9513983 Si02
#       5
#    32  32  32  32  32
#     4  10  22  41  61  78 102 139 180 223 271 321
#     4   8  14  26  46  74 108 142 174 211 256 305
#     4  10  20  34  56  85 113 141 174 217 269 321
#     4  10  21  35  54  80 111 144 175 214 270 331
#     4   9  18  34  56  79 106 145 190 230 261 296
#
# _framework density 4.5724739999999997
#
# number of rings (size 3 to 8) (size 9 to 14) (size 15 to 20)
#    0.000    2.600    0.000    3.000    0.000    6.000 
#    0.000    8.000    0.000   13.200    0.000    0.000 
#    0.000    0.000    0.000    0.000    0.000    0.000 
#
# Total GULP energy -223035.132085 kJ/mol
# GULP energy per Si atom -5575.878302 kJ/mol
# Density = 0.456207 g / cm^3
# Si number density = 4.572474 Si / 1000 Ang^3
#
#
#
# Elastic Constant Matrix: (Units=GPa)
#
#
# Indices 1 2 3 4 5 6 
#
# 1 122.4199 76.9740 32.5759 0.0000 0.0000 0.0000
# 2 76.9740 132.4513 40.0867 0.0000 0.0000 0.0000
# 3 32.5759 40.0867 39.7574 0.0000 0.0000 0.0000
# 4 0.0000 0.0000 0.0000 31.8450 0.0000 0.0000
# 5 0.0000 0.0000 0.0000 0.0000 13.5803 0.0000
# 6 0.0000 0.0000 0.0000 0.0000 0.0000 32.1356
#
#
#
# Elastic Compliance Matrix: (Units=1/GPa)
#
#
# Indices 1 2 3 4 5 6 
#
# 1 0.013410 -0.006430 -0.004505 0.000000 0.000000 0.000000
# 2 -0.006430 0.013949 -0.008796 0.000000 0.000000 0.000000
# 3 -0.004505 -0.008796 0.037712 0.000000 0.000000 0.000000
# 4 0.000000 0.000000 0.000000 0.031402 0.000000 0.000000
# 5 0.000000 0.000000 0.000000 0.000000 0.073636 0.000000
# 6 0.000000 0.000000 0.000000 0.000000 0.000000 0.031118
#
#
# Mechanical properties :
#
#
# Convention : Reuss Voigt Hill
#
# Bulk Modulus (GPa) = 39.04680 65.98911 52.51795
# Shear Modulus (GPa) = 20.06214 25.17831 22.62022
#
# Velocity S-wave (km/s) = 3.31554 3.71431 3.52058
# Velocity P-wave (km/s) = 6.00435 7.38598 6.73071
#
# Compressibility (1/GPa) = 0.02561029
#
# Stress axis : x y z
#
# Youngs Moduli (GPa) = 74.56939 71.69051 26.51665
#
# Poissons Ratio (x) = 0.46097 0.11945
# Poissons Ratio (y) = 0.47949 0.23324
# Poissons Ratio (z) = 0.33591 0.63058
#
# Static dielectric constant tensor:
#      x y z
#    x 1.635310 0.000000 0.000000 
#    y 0.000000 1.630860 0.000000 
#    z 0.000000 0.000000 1.626900 
# 
# From -- ./inp_files/26632.got.cif
#   From: 2010.05.17/outbox.ucp.g08.bks.cvg/sg69_14_cif.got.tgz:26632.got - 2010.06.11 16:51:34.
