data_PCOD9513102
_publ_section_title
;
Structure prediction by ZEFSAII (Michael W. Deem and Ramdas Pophale) SiO2 
 PCOD9513102
Probable space group: F M M M
;
_chemical_formula_sum "Si O2"
_cell_formula_units_Z 116
_cell_length_a 18.587040
_cell_length_b 14.918450
_cell_length_c 23.556149
_cell_angle_alpha 90.000000
_cell_angle_beta 90.000000
_cell_angle_gamma 90.000000
_cell_volume 6531.880478
_symmetry_space_group_name_H-M "F M M M"
_symmetry_group_IT_number 69
_symmetry_cell_setting 'orthorhombic'
loop_
_space_group_symop_operation_xyz
x,y,z
-x,-y,z
x,-y,-z
-x,y,-z
-x,-y,-z
x,y,-z
-x,y,z
x,-y,z
x,1/2+y,1/2+z
-x,1/2-y,1/2+z
x,1/2-y,1/2-z
-x,1/2+y,1/2-z
-x,1/2-y,1/2-z
x,1/2+y,1/2-z
-x,1/2+y,1/2+z
x,1/2-y,1/2+z
1/2+x,y,1/2+z
1/2-x,-y,1/2+z
1/2+x,-y,1/2-z
1/2-x,y,1/2-z
1/2-x,-y,1/2-z
1/2+x,y,1/2-z
1/2-x,y,1/2+z
1/2+x,-y,1/2+z
1/2+x,1/2+y,z
1/2-x,1/2-y,z
1/2+x,1/2-y,-z
1/2-x,1/2+y,-z
1/2-x,1/2-y,-z
1/2+x,1/2+y,-z
1/2-x,1/2+y,z
1/2+x,1/2-y,z
loop_
_atom_site_type_symbol
_atom_site_label
_atom_site_fract_x
_atom_site_fract_y
_atom_site_fract_z
Si Si1 0.079150 0.184501 0.500000
Si Si2 0.915497 0.894775 0.826308
Si Si3 0.000000 0.000000 0.500000
Si Si4 0.176090 0.105619 0.716562
Si Si5 0.666562 0.761005 0.110912
O O1 0.121905 0.209246 0.443577
O O2 0.000000 0.230250 0.500000
O O3 0.061179 0.079432 0.500000
O O4 0.887793 0.882236 0.761861
O O5 0.867768 0.830424 0.865026
O O6 0.000000 0.874126 0.831303
O O7 0.904424 0.000000 0.839873
O O8 0.250000 0.129453 0.750000
O O9 0.164247 0.166656 0.661994
O O10 0.181009 0.000000 0.701625
O O11 0.750000 0.750000 0.095971
#
# Coordination Sequence:
#
# PCOD9513102 Si02
#       5
#    16  32   4  32  32
#     4  10  25  45  63  90 123 162 212 260 310 367
#     4  10  22  40  59  90 128 167 209 258 312 375
#     4   8  24  52  64  84 130 160 218 276 308 362
#     4  10  21  37  60  93 129 164 201 252 315 376
#     4  12  23  38  67  92 125 162 211 260 314 376
#
# _framework density 17.759050999999999
#
# number of rings (size 3 to 8) (size 9 to 14) (size 15 to 20)
#    0.414    1.103    2.759    2.069    1.931    3.310 
#    0.000    0.690    0.000    2.483    0.000    0.000 
#    0.000    0.000    0.000    0.000    0.000    0.000 
#
# Total GULP energy -161662.853260 kJ/mol
# GULP energy per Si atom -5574.581147 kJ/mol
# Density = 1.771863 g / cm^3
# Si number density = 17.759051 Si / 1000 Ang^3
#
#
#
# Elastic Constant Matrix: (Units=GPa)
#
#
# Indices 1 2 3 4 5 6 
#
# 1 164.3008 73.4607 80.6859 0.0000 0.0000 0.0000
# 2 73.4607 86.1222 72.1952 0.0000 0.0000 0.0000
# 3 80.6859 72.1952 129.7983 0.0000 0.0000 0.0000
# 4 0.0000 0.0000 0.0000 -0.6759 0.0000 0.0000
# 5 0.0000 0.0000 0.0000 0.0000 7.0972 0.0000
# 6 0.0000 0.0000 0.0000 0.0000 0.0000 27.6108
#
#
#
# Elastic Compliance Matrix: (Units=1/GPa)
#
#
# Indices 1 2 3 4 5 6 
#
# 1 0.010376 -0.006452 -0.002862 0.000000 0.000000 0.000000
# 2 -0.006452 0.025767 -0.010321 0.000000 0.000000 0.000000
# 3 -0.002862 -0.010321 0.015224 0.000000 0.000000 0.000000
# 4 0.000000 0.000000 0.000000 -1.479461 0.000000 0.000000
# 5 0.000000 0.000000 0.000000 0.000000 0.140900 0.000000
# 6 0.000000 0.000000 0.000000 0.000000 0.000000 0.036218
#
#
# Mechanical properties :
#
#
# Convention : Reuss Voigt Hill
#
# Bulk Modulus (GPa) = 82.66007 92.54498 87.60252
# Shear Modulus (GPa) = -4.14019 17.06506 6.46243
#
# Velocity S-wave (km/s) = -1.52852 3.10324 1.90967
# Velocity P-wave (km/s) = 6.59782 8.06627 7.36871
#
# Compressibility (1/GPa) = 0.01209774
#
# Stress axis : x y z
#
# Youngs Moduli (GPa) = 96.37169 38.80932 65.68697
#
# Poissons Ratio (x) = 0.25040 0.18796
# Poissons Ratio (y) = 0.62181 0.67796
# Poissons Ratio (z) = 0.27577 0.40055
#
# Static dielectric constant tensor:
#      x y z
#    x 1.615360 0.000000 0.000000 
#    y 0.000000 1.602810 0.000000 
#    z 0.000000 0.000000 1.565070 
# 
# From -- ./inp_files/15172.got.cif
#   From: 2010.05.17/outbox.cif.g08.bks.cpg/sg69_8_cif.got.tgz:15172.got - 2010.06.03 19:29:58.
