data_PCOD9513537
_publ_section_title
;
Structure prediction by ZEFSAII (Michael W. Deem and Ramdas Pophale) SiO2 
 PCOD9513537
Probable space group: F M M M
;
_chemical_formula_sum "Si O2"
_cell_formula_units_Z 128
_cell_length_a 13.490623
_cell_length_b 22.052998
_cell_length_c 20.327712
_cell_angle_alpha 90.000000
_cell_angle_beta 90.000000
_cell_angle_gamma 90.000000
_cell_volume 6047.670806
_symmetry_space_group_name_H-M "F M M M"
_symmetry_group_IT_number 69
_symmetry_cell_setting 'orthorhombic'
loop_
_space_group_symop_operation_xyz
x,y,z
-x,-y,z
x,-y,-z
-x,y,-z
-x,-y,-z
x,y,-z
-x,y,z
x,-y,z
x,1/2+y,1/2+z
-x,1/2-y,1/2+z
x,1/2-y,1/2-z
-x,1/2+y,1/2-z
-x,1/2-y,1/2-z
x,1/2+y,1/2-z
-x,1/2+y,1/2+z
x,1/2-y,1/2+z
1/2+x,y,1/2+z
1/2-x,-y,1/2+z
1/2+x,-y,1/2-z
1/2-x,y,1/2-z
1/2-x,-y,1/2-z
1/2+x,y,1/2-z
1/2-x,y,1/2+z
1/2+x,-y,1/2+z
1/2+x,1/2+y,z
1/2-x,1/2-y,z
1/2+x,1/2-y,-z
1/2-x,1/2+y,-z
1/2-x,1/2-y,-z
1/2+x,1/2+y,-z
1/2-x,1/2+y,z
1/2+x,1/2-y,z
loop_
_atom_site_type_symbol
_atom_site_label
_atom_site_fract_x
_atom_site_fract_y
_atom_site_fract_z
Si Si1 0.385467 0.500000 0.374545
Si Si2 0.754436 0.102128 0.854872
Si Si3 0.115072 0.000000 0.214648
Si Si4 0.615339 0.203253 0.190712
Si Si5 0.383595 0.297867 0.924651
O O1 0.500000 0.500000 0.394878
O O2 0.322740 0.440864 0.393668
O O3 0.382308 0.500000 0.293993
O O4 0.686395 0.146099 0.810833
O O5 0.819020 0.145939 0.900335
O O6 0.827500 0.058053 0.814524
O O7 0.000000 0.000000 0.194750
O O8 0.500000 0.184142 0.194980
O O9 0.633444 0.250000 0.250000
O O10 0.631380 0.241255 0.123991
O O11 0.500000 0.313954 0.918945
O O12 0.362610 0.282165 0.000000
#
# Coordination Sequence:
#
# PCOD9513537 Si02
#       5
#    16  32  16  32  32
#     4  10  23  39  58  87 125 162 207 264 325 375
#     4  11  21  37  63  89 119 160 216 256 313 379
#     4  10  23  39  58  88 125 165 207 265 321 371
#     4  10  23  38  60  95 133 164 203 260 315 373
#     4  10  23  42  63  91 129 169 208 256 316 381
#
# _framework density 21.165172999999999
#
# number of rings (size 3 to 8) (size 9 to 14) (size 15 to 20)
#    0.000    1.750    0.000    3.750    7.000    3.000 
#    0.000    2.500    0.000   10.500    0.000    0.000 
#    0.000    0.000    0.000    0.000    0.000    0.000 
#
# Total GULP energy -179123.411141 kJ/mol
# GULP energy per Si atom -5597.606598 kJ/mol
# Density = 2.111700 g / cm^3
# Si number density = 21.165173 Si / 1000 Ang^3
#
#
#
# Elastic Constant Matrix: (Units=GPa)
#
#
# Indices 1 2 3 4 5 6 
#
# 1 183.6040 87.0887 36.5300 0.0000 0.0000 0.0000
# 2 87.0887 135.5644 47.8280 0.0000 0.0000 0.0000
# 3 36.5300 47.8280 89.0198 0.0000 0.0000 0.0000
# 4 0.0000 0.0000 0.0000 17.8514 0.0000 0.0000
# 5 0.0000 0.0000 0.0000 0.0000 18.1069 0.0000
# 6 0.0000 0.0000 0.0000 0.0000 0.0000 35.1149
#
#
#
# Elastic Compliance Matrix: (Units=1/GPa)
#
#
# Indices 1 2 3 4 5 6 
#
# 1 0.007862 -0.004828 -0.000633 0.000000 0.000000 0.000000
# 2 -0.004828 0.012066 -0.004502 0.000000 0.000000 0.000000
# 3 -0.000633 -0.004502 0.013912 0.000000 0.000000 0.000000
# 4 0.000000 0.000000 0.000000 0.056018 0.000000 0.000000
# 5 0.000000 0.000000 0.000000 0.000000 0.055228 0.000000
# 6 0.000000 0.000000 0.000000 0.000000 0.000000 0.028478
#
#
# Mechanical properties :
#
#
# Convention : Reuss Voigt Hill
#
# Bulk Modulus (GPa) = 71.85889 83.45349 77.65619
# Shear Modulus (GPa) = 25.23642 29.99742 27.61692
#
# Velocity S-wave (km/s) = 3.45680 3.76879 3.61616
# Velocity P-wave (km/s) = 7.06808 7.64550 7.36245
#
# Compressibility (1/GPa) = 0.01391616
#
# Stress axis : x y z
#
# Youngs Moduli (GPa) = 127.18989 82.87619 71.88184
#
# Poissons Ratio (x) = 0.40010 0.04547
# Poissons Ratio (y) = 0.61403 0.32360
# Poissons Ratio (z) = 0.08046 0.37309
#
# Static dielectric constant tensor:
#      x y z
#    x 1.795260 0.000000 0.000000 
#    y 0.000000 1.738620 0.000000 
#    z 0.000000 0.000000 1.749600 
# 
# From -- ./inp_files/29666.got.cif
#   From: 2010.05.17/outbox.cif.g08.bks.cpg/sg69_15_cif.got.tgz:29666.got - 2010.06.03 19:29:58.
