data_PCOD9513854
_publ_section_title
;
Structure prediction by ZEFSAII (Michael W. Deem and Ramdas Pophale) SiO2 
 PCOD9513854
Probable space group: F M M M
;
_chemical_formula_sum "Si O2"
_cell_formula_units_Z 104
_cell_length_a 19.736472
_cell_length_b 29.903814
_cell_length_c 7.900841
_cell_angle_alpha 90.000000
_cell_angle_beta 90.000000
_cell_angle_gamma 90.000000
_cell_volume 4663.043078
_symmetry_space_group_name_H-M "F M M M"
_symmetry_group_IT_number 69
_symmetry_cell_setting 'orthorhombic'
loop_
_space_group_symop_operation_xyz
x,y,z
-x,-y,z
x,-y,-z
-x,y,-z
-x,-y,-z
x,y,-z
-x,y,z
x,-y,z
x,1/2+y,1/2+z
-x,1/2-y,1/2+z
x,1/2-y,1/2-z
-x,1/2+y,1/2-z
-x,1/2-y,1/2-z
x,1/2+y,1/2-z
-x,1/2+y,1/2+z
x,1/2-y,1/2+z
1/2+x,y,1/2+z
1/2-x,-y,1/2+z
1/2+x,-y,1/2-z
1/2-x,y,1/2-z
1/2-x,-y,1/2-z
1/2+x,y,1/2-z
1/2-x,y,1/2+z
1/2+x,-y,1/2+z
1/2+x,1/2+y,z
1/2-x,1/2-y,z
1/2+x,1/2-y,-z
1/2-x,1/2+y,-z
1/2-x,1/2-y,-z
1/2+x,1/2+y,-z
1/2-x,1/2+y,z
1/2+x,1/2-y,z
loop_
_atom_site_type_symbol
_atom_site_label
_atom_site_fract_x
_atom_site_fract_y
_atom_site_fract_z
Si Si1 0.250000 0.750000 0.750000
Si Si2 0.000000 0.198211 0.700886
Si Si3 0.577278 0.000000 0.792901
Si Si4 0.823019 0.077456 0.297694
Si Si5 0.849635 0.822410 0.805930
O O1 0.193763 0.787566 0.693680
O O2 0.000000 0.250000 0.750000
O O3 0.070408 0.179272 0.770527
O O4 0.000000 0.192465 0.500000
O O5 0.618123 0.044097 0.739552
O O6 0.500000 0.000000 0.735944
O O7 0.577498 0.000000 0.000000
O O8 0.827758 0.082170 0.500000
O O9 0.750000 0.058038 0.250000
O O10 0.827792 0.126709 0.220015
O O11 0.836364 0.808327 0.000000
#
# Coordination Sequence:
#
# PCOD9513854 Si02
#       5
#     8  16  16  32  32
#     4  12  26  42  72  96 138 178 230 268 338 388
#     4  12  26  44  66  93 132 179 226 276 337 399
#     4   9  21  42  67  97 130 175 225 277 336 406
#     4  11  23  41  68  98 133 175 223 276 338 401
#     4  12  26  44  68  99 136 176 228 280 336 400
#
# _framework density 22.303032999999999
#
# number of rings (size 3 to 8) (size 9 to 14) (size 15 to 20)
#    0.000    0.769    3.077    4.154    2.154    2.462 
#    0.000    2.308    0.000    3.692    0.000    0.000 
#    0.000    0.000    0.000    0.000    0.000    0.000 
#
# Total GULP energy -145207.555865 kJ/mol
# GULP energy per Si atom -5584.905995 kJ/mol
# Density = 2.225227 g / cm^3
# Si number density = 22.303033 Si / 1000 Ang^3
#
#
#
# Elastic Constant Matrix: (Units=GPa)
#
#
# Indices 1 2 3 4 5 6 
#
# 1 216.3765 72.5003 13.0343 0.0000 0.0002 -0.0002
# 2 72.5003 148.6266 9.7708 0.0000 -0.0002 0.0002
# 3 13.0343 9.7708 95.8406 0.0000 0.0006 -0.0008
# 4 0.0000 0.0000 0.0000 16.7174 0.0000 0.0000
# 5 0.0002 -0.0002 0.0006 0.0000 20.2982 0.0005
# 6 -0.0002 0.0002 -0.0008 0.0000 0.0005 58.7979
#
#
#
# Elastic Compliance Matrix: (Units=1/GPa)
#
#
# Indices 1 2 3 4 5 6 
#
# 1 0.005547 -0.002674 -0.000482 0.000000 0.000000 0.000000
# 2 -0.002674 0.008063 -0.000458 0.000000 0.000000 0.000000
# 3 -0.000482 -0.000458 0.010546 0.000000 0.000000 0.000000
# 4 0.000000 0.000000 0.000000 0.059818 0.000000 0.000000
# 5 0.000000 0.000000 0.000000 0.000000 0.049265 0.000000
# 6 0.000000 0.000000 0.000000 0.000000 0.000000 0.017007
#
#
# Mechanical properties :
#
#
# Convention : Reuss Voigt Hill
#
# Bulk Modulus (GPa) = 59.07536 72.38385 65.72961
# Shear Modulus (GPa) = 30.65288 43.53192 37.09240
#
# Velocity S-wave (km/s) = 3.71129 4.42275 4.08255
# Velocity P-wave (km/s) = 6.70149 7.65547 7.19431
#
# Compressibility (1/GPa) = 0.01692753
#
# Stress axis : x y z
#
# Youngs Moduli (GPa) = 180.29256 124.02708 94.82061
#
# Poissons Ratio (x) = 0.33164 0.04568
# Poissons Ratio (y) = 0.48209 0.04346
# Poissons Ratio (z) = 0.08685 0.05685
#
# Static dielectric constant tensor:
#      x y z
#    x 1.745750 0.000000 0.000000 
#    y 0.000000 1.758410 0.000000 
#    z 0.000000 0.000000 1.901360 
# 
# From -- ./inp_files/2990.got.cif
#   From: 2010.05.17/outbox.cif.g08.bks.cpg/sg69_2_cif.got.tgz:2990.got - 2010.06.03 19:29:58.
