data_PCOD9513821
_publ_section_title
;
Structure prediction by ZEFSAII (Michael W. Deem and Ramdas Pophale) SiO2 
 PCOD9513821
Probable space group: F M M M
;
_chemical_formula_sum "Si O2"
_cell_formula_units_Z 136
_cell_length_a 16.126577
_cell_length_b 19.751716
_cell_length_c 20.744471
_cell_angle_alpha 90.000000
_cell_angle_beta 90.000000
_cell_angle_gamma 90.000000
_cell_volume 6607.685917
_symmetry_space_group_name_H-M "F M M M"
_symmetry_group_IT_number 69
_symmetry_cell_setting 'orthorhombic'
loop_
_space_group_symop_operation_xyz
x,y,z
-x,-y,z
x,-y,-z
-x,y,-z
-x,-y,-z
x,y,-z
-x,y,z
x,-y,z
x,1/2+y,1/2+z
-x,1/2-y,1/2+z
x,1/2-y,1/2-z
-x,1/2+y,1/2-z
-x,1/2-y,1/2-z
x,1/2+y,1/2-z
-x,1/2+y,1/2+z
x,1/2-y,1/2+z
1/2+x,y,1/2+z
1/2-x,-y,1/2+z
1/2+x,-y,1/2-z
1/2-x,y,1/2-z
1/2-x,-y,1/2-z
1/2+x,y,1/2-z
1/2-x,y,1/2+z
1/2+x,-y,1/2+z
1/2+x,1/2+y,z
1/2-x,1/2-y,z
1/2+x,1/2-y,-z
1/2-x,1/2+y,-z
1/2-x,1/2-y,-z
1/2+x,1/2+y,-z
1/2-x,1/2+y,z
1/2+x,1/2-y,z
loop_
_atom_site_type_symbol
_atom_site_label
_atom_site_fract_x
_atom_site_fract_y
_atom_site_fract_z
Si Si1 0.830495 0.422194 0.368436
Si Si2 0.000000 0.000000 0.411304
Si Si3 0.851211 0.672306 0.250768
Si Si4 0.156828 0.779583 0.500000
Si Si5 0.905889 0.131418 0.000000
Si Si6 0.138075 0.113240 0.614557
O O1 0.851541 0.500000 0.354084
O O2 0.867482 0.372578 0.313839
O O3 0.863258 0.398070 0.436910
O O4 0.730787 0.415680 0.374363
O O5 0.072827 0.058747 0.410035
O O6 0.879232 0.750000 0.250000
O O7 0.750000 0.673781 0.250000
O O8 0.885330 0.638700 0.185931
O O9 0.250000 0.750000 0.500000
O O10 0.101003 0.712772 0.500000
O O11 0.144017 0.825731 0.436850
O O12 0.000000 0.109613 0.000000
#
# Coordination Sequence:
#
# PCOD9513821 Si02
#       6
#    32   8  32  16  16  32
#     4  11  22  42  71  96 136 185 231 288 351 418
#     4  12  28  45  64 100 148 181 232 290 352 427
#     4   9  20  38  68  98 134 177 234 287 341 411
#     4  12  24  44  76  96 131 184 231 288 345 417
#     4  12  27  45  67 104 139 169 235 299 358 408
#     4  11  24  42  66 101 136 185 233 280 349 422
#
# _framework density 20.582093
#
# number of rings (size 3 to 8) (size 9 to 14) (size 15 to 20)
#    0.000    1.176    3.529    1.765    6.588    3.294 
#    2.118    0.588    0.000    0.000    0.000    0.000 
#    0.000    0.000    0.000    0.000    0.000    0.000 
#
# Total GULP energy -189517.380467 kJ/mol
# GULP energy per Si atom -5574.040602 kJ/mol
# Density = 2.053525 g / cm^3
# Si number density = 20.582093 Si / 1000 Ang^3
#
#
#
# Elastic Constant Matrix: (Units=GPa)
#
#
# Indices 1 2 3 4 5 6 
#
# 1 72.4171 41.9681 31.0158 0.0000 0.0000 0.0000
# 2 41.9681 171.8036 77.4187 0.0000 0.0000 0.0000
# 3 31.0158 77.4187 164.0041 0.0000 0.0000 0.0000
# 4 0.0000 0.0000 0.0000 71.2179 0.0000 0.0000
# 5 0.0000 0.0000 0.0000 0.0000 -60.6138 0.0000
# 6 0.0000 0.0000 0.0000 0.0000 0.0000 23.6317
#
#
#
# Elastic Compliance Matrix: (Units=1/GPa)
#
#
# Indices 1 2 3 4 5 6 
#
# 1 0.016385 -0.003310 -0.001536 0.000000 0.000000 0.000000
# 2 -0.003310 0.008062 -0.003180 0.000000 0.000000 0.000000
# 3 -0.001536 -0.003180 0.007889 0.000000 0.000000 0.000000
# 4 0.000000 0.000000 0.000000 0.014041 0.000000 0.000000
# 5 0.000000 0.000000 0.000000 0.000000 -0.016498 0.000000
# 6 0.000000 0.000000 0.000000 0.000000 0.000000 0.042316
#
#
# Mechanical properties :
#
#
# Convention : Reuss Voigt Hill
#
# Bulk Modulus (GPa) = 61.41005 78.78111 70.09558
# Shear Modulus (GPa) = 53.37540 24.03529 38.70535
#
# Velocity S-wave (km/s) = 5.09796 3.42098 4.34122
# Velocity P-wave (km/s) = 8.03453 7.34600 7.69797
#
# Compressibility (1/GPa) = 0.01628398
#
# Stress axis : x y z
#
# Youngs Moduli (GPa) = 61.03049 124.03695 126.76073
#
# Poissons Ratio (x) = 0.41061 0.19471
# Poissons Ratio (y) = 0.20204 0.40306
# Poissons Ratio (z) = 0.09374 0.39440
#
# Static dielectric constant tensor:
#      x y z
#    x 1.720650 0.000000 0.000000 
#    y 0.000000 1.719840 0.000000 
#    z 0.000000 0.000000 1.677610 
# 
# From -- ./inp_files/30530.got.cif
#   From: 2010.05.17/outbox.cif.g08.bks.cpg/sg69_16_cif.got.tgz:30530.got - 2010.06.03 19:29:58.
