data_PCOD9513095
_publ_section_title
;
Structure prediction by ZEFSAII (Michael W. Deem and Ramdas Pophale) SiO2 
 PCOD9513095
Probable space group: F M M M
;
_chemical_formula_sum "Si O2"
_cell_formula_units_Z 192
_cell_length_a 24.609792
_cell_length_b 13.368015
_cell_length_c 28.709370
_cell_angle_alpha 90.000000
_cell_angle_beta 90.000000
_cell_angle_gamma 90.000000
_cell_volume 9444.925350
_symmetry_space_group_name_H-M "F M M M"
_symmetry_group_IT_number 69
_symmetry_cell_setting 'orthorhombic'
loop_
_space_group_symop_operation_xyz
x,y,z
-x,-y,z
x,-y,-z
-x,y,-z
-x,-y,-z
x,y,-z
-x,y,z
x,-y,z
x,1/2+y,1/2+z
-x,1/2-y,1/2+z
x,1/2-y,1/2-z
-x,1/2+y,1/2-z
-x,1/2-y,1/2-z
x,1/2+y,1/2-z
-x,1/2+y,1/2+z
x,1/2-y,1/2+z
1/2+x,y,1/2+z
1/2-x,-y,1/2+z
1/2+x,-y,1/2-z
1/2-x,y,1/2-z
1/2-x,-y,1/2-z
1/2+x,y,1/2-z
1/2-x,y,1/2+z
1/2+x,-y,1/2+z
1/2+x,1/2+y,z
1/2-x,1/2-y,z
1/2+x,1/2-y,-z
1/2-x,1/2+y,-z
1/2-x,1/2-y,-z
1/2+x,1/2+y,-z
1/2-x,1/2+y,z
1/2+x,1/2-y,z
loop_
_atom_site_type_symbol
_atom_site_label
_atom_site_fract_x
_atom_site_fract_y
_atom_site_fract_z
Si Si1 0.883294 0.114181 0.810058
Si Si2 0.321191 0.119296 0.880323
Si Si3 0.692982 0.620473 0.726506
Si Si4 0.500000 0.117984 0.556115
Si Si5 0.386347 0.289121 0.090088
Si Si6 0.278738 0.118415 0.552234
Si Si7 0.500000 0.375709 0.766705
O O1 0.851389 0.150349 0.764624
O O2 0.875621 0.168290 0.858426
O O3 0.945983 0.119125 0.796324
O O4 0.865586 0.000000 0.817764
O O5 0.313705 0.153957 0.826707
O O6 0.373278 0.172002 0.903671
O O7 0.267261 0.144649 0.910026
O O8 0.327147 0.000000 0.880950
O O9 0.689922 0.500000 0.723189
O O10 0.750000 0.644788 0.750000
O O11 0.500000 0.119283 0.500000
O O12 0.554769 0.173355 0.573679
O O13 0.500000 0.000000 0.570978
O O14 0.337115 0.331170 0.059072
O O15 0.257905 0.137402 0.500000
O O16 0.287945 0.000000 0.556990
O O17 0.500000 0.500000 0.744009
O O18 0.500000 0.250000 0.750000
#
# Coordination Sequence:
#
# PCOD9513095 Si02
#       7
#    32  32  32  16  32  32  16
#     4  10  21  37  60  89 121 160 206 258 311 369
#     4  10  23  40  58  90 131 169 210 256 309 377
#     4   9  18  35  58  85 123 167 207 252 306 367
#     4  11  25  45  69  96 123 151 196 264 329 381
#     4  12  23  38  64  92 123 162 207 261 318 386
#     4  10  21  39  64  92 122 157 201 258 323 385
#     4  10  23  41  62  88 119 161 213 263 311 367
#
# _framework density 20.328377
#
# number of rings (size 3 to 8) (size 9 to 14) (size 15 to 20)
#    0.000    1.750    0.000    4.000    2.333    6.667 
#    0.000    1.250    0.000    0.500    0.000    0.000 
#    0.000    0.000    0.000    0.000    0.000    0.000 
#
# Total GULP energy -267484.780630 kJ/mol
# GULP energy per Si atom -5572.599596 kJ/mol
# Density = 2.028211 g / cm^3
# Si number density = 20.328377 Si / 1000 Ang^3
#
#
#
# Elastic Constant Matrix: (Units=GPa)
#
#
# Indices 1 2 3 4 5 6 
#
# 1 106.3850 26.4199 50.6436 0.0000 0.0000 0.0000
# 2 26.4199 124.8174 33.5308 0.0000 0.0000 0.0000
# 3 50.6436 33.5308 128.1860 0.0000 0.0000 0.0000
# 4 0.0000 0.0000 0.0000 -0.5673 0.0000 0.0000
# 5 0.0000 0.0000 0.0000 0.0000 28.3541 0.0000
# 6 0.0000 0.0000 0.0000 0.0000 0.0000 38.4689
#
#
#
# Elastic Compliance Matrix: (Units=1/GPa)
#
#
# Indices 1 2 3 4 5 6 
#
# 1 0.011781 -0.001337 -0.004305 0.000000 0.000000 0.000000
# 2 -0.001337 0.008769 -0.001765 0.000000 0.000000 0.000000
# 3 -0.004305 -0.001765 0.009964 0.000000 0.000000 0.000000
# 4 0.000000 0.000000 0.000000 -1.762690 0.000000 0.000000
# 5 0.000000 0.000000 0.000000 0.000000 0.035268 0.000000
# 6 0.000000 0.000000 0.000000 0.000000 0.000000 0.025995
#
#
# Mechanical properties :
#
#
# Convention : Reuss Voigt Hill
#
# Bulk Modulus (GPa) = 63.69840 64.50854 64.10347
# Shear Modulus (GPa) = -3.02871 29.83742 13.40436
#
# Velocity S-wave (km/s) = -1.22194 3.83531 2.57065
# Velocity P-wave (km/s) = 5.42327 7.17042 6.35715
#
# Compressibility (1/GPa) = 0.01569898
#
# Stress axis : x y z
#
# Youngs Moduli (GPa) = 84.88161 114.03759 100.36477
#
# Poissons Ratio (x) = 0.15250 0.43204
# Poissons Ratio (y) = 0.11351 0.17719
# Poissons Ratio (z) = 0.36539 0.20133
#
# Static dielectric constant tensor:
#      x y z
#    x 1.652200 0.000000 0.000000 
#    y 0.000000 1.887920 0.000000 
#    z 0.000000 0.000000 1.686970 
# 
# From -- ./inp_files/43204.got.cif
#   From: 2010.05.17/outbox.cif.g08.bks.cpg/sg69_22_cif.got.tgz:43204.got - 2010.06.03 19:29:58.
