data_PCOD9513187
_publ_section_title
;
Structure prediction by ZEFSAII (Michael W. Deem and Ramdas Pophale) SiO2 
 PCOD9513187
Probable space group: F M M M
;
_chemical_formula_sum "Si O2"
_cell_formula_units_Z 176
_cell_length_a 18.117579
_cell_length_b 29.943331
_cell_length_c 15.487230
_cell_angle_alpha 90.000000
_cell_angle_beta 90.000000
_cell_angle_gamma 90.000000
_cell_volume 8401.832573
_symmetry_space_group_name_H-M "F M M M"
_symmetry_group_IT_number 69
_symmetry_cell_setting 'orthorhombic'
loop_
_space_group_symop_operation_xyz
x,y,z
-x,-y,z
x,-y,-z
-x,y,-z
-x,-y,-z
x,y,-z
-x,y,z
x,-y,z
x,1/2+y,1/2+z
-x,1/2-y,1/2+z
x,1/2-y,1/2-z
-x,1/2+y,1/2-z
-x,1/2-y,1/2-z
x,1/2+y,1/2-z
-x,1/2+y,1/2+z
x,1/2-y,1/2+z
1/2+x,y,1/2+z
1/2-x,-y,1/2+z
1/2+x,-y,1/2-z
1/2-x,y,1/2-z
1/2-x,-y,1/2-z
1/2+x,y,1/2-z
1/2-x,y,1/2+z
1/2+x,-y,1/2+z
1/2+x,1/2+y,z
1/2-x,1/2-y,z
1/2+x,1/2-y,-z
1/2-x,1/2+y,-z
1/2-x,1/2-y,-z
1/2+x,1/2+y,-z
1/2-x,1/2+y,z
1/2+x,1/2-y,z
loop_
_atom_site_type_symbol
_atom_site_label
_atom_site_fract_x
_atom_site_fract_y
_atom_site_fract_z
Si Si1 0.413952 0.797484 0.643145
Si Si2 0.719097 0.948946 0.600936
Si Si3 0.912764 0.700372 0.146959
Si Si4 0.588316 0.395102 0.847139
Si Si5 0.913062 0.450235 0.000000
Si Si6 0.649498 0.892725 0.846547
O O1 0.500000 0.796530 0.618436
O O2 0.385076 0.748922 0.615298
O O3 0.411597 0.797887 0.748068
O O4 0.385930 0.846319 0.616859
O O5 0.739176 0.945936 0.500000
O O6 0.634327 0.934411 0.609962
O O7 0.768091 0.912576 0.651781
O O8 0.730716 0.000000 0.630592
O O9 0.862782 0.658264 0.122936
O O10 0.000000 0.693736 0.123198
O O11 0.500000 0.398099 0.856055
O O12 0.610558 0.396320 0.746151
O O13 0.890348 0.424167 0.914926
O O14 0.881508 0.500000 0.000000
O O15 0.000000 0.453324 0.000000
#
# Coordination Sequence:
#
# PCOD9513187 Si02
#       6
#    32  32  32  32  16  32
#     4   7  12  26  50  83 117 146 180 228 287 338
#     4  11  25  44  61  78 111 161 201 237 299 363
#     4   8  13  25  51  84 117 151 186 225 273 342
#     4  10  21  38  64  93 115 145 197 254 294 339
#     4  11  22  34  52  80 120 163 195 235 292 353
#     4  11  20  36  59  87 120 153 193 236 293 355
#
# _framework density 20.947811000000002
#
# number of rings (size 3 to 8) (size 9 to 14) (size 15 to 20)
#    0.000    2.455    0.909    4.909    0.000    2.909 
#    0.000    1.818    2.000    5.455    0.000    0.000 
#    0.000    0.000    0.000    0.000    0.000    0.000 
#
# Total GULP energy -245299.813292 kJ/mol
# GULP energy per Si atom -5574.995757 kJ/mol
# Density = 2.090013 g / cm^3
# Si number density = 20.947811 Si / 1000 Ang^3
#
#
#
# Elastic Constant Matrix: (Units=GPa)
#
#
# Indices 1 2 3 4 5 6 
#
# 1 90.1790 56.1677 10.8443 0.0000 0.0000 0.0000
# 2 56.1677 181.8863 30.0992 0.0000 0.0000 0.0000
# 3 10.8443 30.0992 43.9838 0.0000 0.0000 0.0000
# 4 0.0000 0.0000 0.0000 40.9817 0.0000 0.0000
# 5 0.0000 0.0000 0.0000 0.0000 16.8779 0.0000
# 6 0.0000 0.0000 0.0000 0.0000 0.0000 1.6756
#
#
#
# Elastic Compliance Matrix: (Units=1/GPa)
#
#
# Indices 1 2 3 4 5 6 
#
# 1 0.013741 -0.004153 -0.000546 0.000000 0.000000 0.000000
# 2 -0.004153 0.007455 -0.004078 0.000000 0.000000 0.000000
# 3 -0.000546 -0.004078 0.025661 0.000000 0.000000 0.000000
# 4 0.000000 0.000000 0.000000 0.024401 0.000000 0.000000
# 5 0.000000 0.000000 0.000000 0.000000 0.059249 0.000000
# 6 0.000000 0.000000 0.000000 0.000000 0.000000 0.596807
#
#
# Mechanical properties :
#
#
# Convention : Reuss Voigt Hill
#
# Bulk Modulus (GPa) = 34.12528 56.69682 45.41105
# Shear Modulus (GPa) = 6.62571 26.50289 16.56430
#
# Velocity S-wave (km/s) = 1.78040 3.56081 2.81506
# Velocity P-wave (km/s) = 4.53348 6.63553 5.68255
#
# Compressibility (1/GPa) = 0.02930379
#
# Stress axis : x y z
#
# Youngs Moduli (GPa) = 72.77249 134.13330 38.96990
#
# Poissons Ratio (x) = 0.55707 0.02127
# Poissons Ratio (y) = 0.30223 0.15891
# Poissons Ratio (z) = 0.03973 0.54698
#
# Static dielectric constant tensor:
#      x y z
#    x 1.765840 0.000000 0.000000 
#    y 0.000000 1.794390 0.000000 
#    z 0.000000 0.000000 1.766370 
# 
# From -- ./inp_files/23578.got.cif
#   From: 2010.05.17/outbox.cif.g08.bks.cpg/sg69_12_cif.got.tgz:23578.got - 2010.06.03 19:29:58.
