data_PCOD9513229
_publ_section_title
;
Structure prediction by ZEFSAII (Michael W. Deem and Ramdas Pophale) SiO2 
 PCOD9513229
Probable space group: F M M M
;
_chemical_formula_sum "Si O2"
_cell_formula_units_Z 160
_cell_length_a 23.443988
_cell_length_b 14.421857
_cell_length_c 24.249337
_cell_angle_alpha 90.000000
_cell_angle_beta 90.000000
_cell_angle_gamma 90.000000
_cell_volume 8198.842515
_symmetry_space_group_name_H-M "F M M M"
_symmetry_group_IT_number 69
_symmetry_cell_setting 'orthorhombic'
loop_
_space_group_symop_operation_xyz
x,y,z
-x,-y,z
x,-y,-z
-x,y,-z
-x,-y,-z
x,y,-z
-x,y,z
x,-y,z
x,1/2+y,1/2+z
-x,1/2-y,1/2+z
x,1/2-y,1/2-z
-x,1/2+y,1/2-z
-x,1/2-y,1/2-z
x,1/2+y,1/2-z
-x,1/2+y,1/2+z
x,1/2-y,1/2+z
1/2+x,y,1/2+z
1/2-x,-y,1/2+z
1/2+x,-y,1/2-z
1/2-x,y,1/2-z
1/2-x,-y,1/2-z
1/2+x,y,1/2-z
1/2-x,y,1/2+z
1/2+x,-y,1/2+z
1/2+x,1/2+y,z
1/2-x,1/2-y,z
1/2+x,1/2-y,-z
1/2-x,1/2+y,-z
1/2-x,1/2-y,-z
1/2+x,1/2+y,-z
1/2-x,1/2+y,z
1/2+x,1/2-y,z
loop_
_atom_site_type_symbol
_atom_site_label
_atom_site_fract_x
_atom_site_fract_y
_atom_site_fract_z
Si Si1 0.724639 0.000000 0.168159
Si Si2 0.205592 0.385438 0.000000
Si Si3 0.691676 0.192696 0.116007
Si Si4 0.342853 0.388148 0.000000
Si Si5 0.562557 0.389519 0.910992
Si Si6 0.604066 0.196332 0.694335
Si Si7 0.839549 0.500000 0.283544
O O1 0.704341 0.907888 0.139897
O O2 0.793039 0.000000 0.167903
O O3 0.696723 0.000000 0.228022
O O4 0.177693 0.334760 0.947160
O O5 0.199561 0.500000 0.000000
O O6 0.275085 0.365701 0.000000
O O7 0.750000 0.250000 0.114790
O O8 0.650647 0.243846 0.159857
O O9 0.382278 0.361289 0.052632
O O10 0.343690 0.500000 0.000000
O O11 0.500000 0.378327 0.937817
O O12 0.568892 0.500000 0.899576
O O13 0.561831 0.332206 0.854561
O O14 0.586072 0.250000 0.750000
O O15 0.627494 0.096226 0.713395
#
# Coordination Sequence:
#
# PCOD9513229 Si02
#       7
#    16  16  32  16  32  32  16
#     4  11  22  35  56  78 119 161 210 236 275 349
#     4  11  23  38  58  83 126 167 196 244 288 342
#     4  12  23  36  55  84 118 162 203 240 285 346
#     4   9  19  35  59  85 114 153 189 234 298 356
#     4  10  21  39  63  87 114 148 193 251 311 363
#     4  12  24  37  60  87 119 159 202 245 294 352
#     4  11  22  38  55  82 118 165 200 245 283 343
#
# _framework density 19.514949000000001
#
# number of rings (size 3 to 8) (size 9 to 14) (size 15 to 20)
#    0.000    1.000    6.000    1.800    0.000    2.800 
#    0.000    0.000    0.000    0.000    0.000    0.000 
#    0.000    0.800    0.000    0.000    0.000    0.000 
#
# Total GULP energy -222961.674191 kJ/mol
# GULP energy per Si atom -5574.041855 kJ/mol
# Density = 1.947053 g / cm^3
# Si number density = 19.514949 Si / 1000 Ang^3
#
#
#
# Elastic Constant Matrix: (Units=GPa)
#
#
# Indices 1 2 3 4 5 6 
#
# 1 27.0678 20.9380 14.2780 0.0000 0.0000 0.0000
# 2 20.9380 131.8173 39.8727 0.0000 0.0000 0.0000
# 3 14.2780 39.8727 125.7420 0.0000 0.0000 0.0000
# 4 0.0000 0.0000 0.0000 37.5759 0.0000 0.0000
# 5 0.0000 0.0000 0.0000 0.0000 3.4936 0.0000
# 6 0.0000 0.0000 0.0000 0.0000 0.0000 -175.0027
#
#
#
# Elastic Compliance Matrix: (Units=1/GPa)
#
#
# Indices 1 2 3 4 5 6 
#
# 1 0.043128 -0.005939 -0.003014 0.000000 0.000000 0.000000
# 2 -0.005939 0.009209 -0.002246 0.000000 0.000000 0.000000
# 3 -0.003014 -0.002246 0.009007 0.000000 0.000000 0.000000
# 4 0.000000 0.000000 0.000000 0.026613 0.000000 0.000000
# 5 0.000000 0.000000 0.000000 0.000000 0.286238 0.000000
# 6 0.000000 0.000000 0.000000 0.000000 0.000000 -0.005714
#
#
# Mechanical properties :
#
#
# Convention : Reuss Voigt Hill
#
# Bulk Modulus (GPa) = 25.67597 48.31161 36.99379
# Shear Modulus (GPa) = 12.38052 -12.81741 -0.21844
#
# Velocity S-wave (km/s) = 2.52149 -2.56559 -0.33493
# Velocity P-wave (km/s) = 4.65433 4.00420 4.34145
#
# Compressibility (1/GPa) = 0.03894693
#
# Stress axis : x y z
#
# Youngs Moduli (GPa) = 23.18676 108.59060 111.02273
#
# Poissons Ratio (x) = 0.64490 0.33462
# Poissons Ratio (y) = 0.13770 0.24933
# Poissons Ratio (z) = 0.06988 0.24387
#
# Static dielectric constant tensor:
#      x y z
#    x 1.683260 0.000000 0.000000 
#    y 0.000000 1.685500 0.000000 
#    z 0.000000 0.000000 1.778370 
# 
# From -- ./inp_files/38301.got.cif
#   From: 2010.05.17/outbox.cif.g08.bks.cpg/sg69_20_cif.got.tgz:38301.got - 2010.06.03 19:29:58.
