data_PCOD9513962
_publ_section_title
;
Structure prediction by ZEFSAII (Michael W. Deem and Ramdas Pophale) SiO2 
 PCOD9513962
Probable space group: F M M M
;
_chemical_formula_sum "Si O2"
_cell_formula_units_Z 128
_cell_length_a 20.812337
_cell_length_b 20.692283
_cell_length_c 14.013347
_cell_angle_alpha 90.000000
_cell_angle_beta 90.000000
_cell_angle_gamma 90.000000
_cell_volume 6034.914689
_symmetry_space_group_name_H-M "F M M M"
_symmetry_group_IT_number 69
_symmetry_cell_setting 'orthorhombic'
loop_
_space_group_symop_operation_xyz
x,y,z
-x,-y,z
x,-y,-z
-x,y,-z
-x,-y,-z
x,y,-z
-x,y,z
x,-y,z
x,1/2+y,1/2+z
-x,1/2-y,1/2+z
x,1/2-y,1/2-z
-x,1/2+y,1/2-z
-x,1/2-y,1/2-z
x,1/2+y,1/2-z
-x,1/2+y,1/2+z
x,1/2-y,1/2+z
1/2+x,y,1/2+z
1/2-x,-y,1/2+z
1/2+x,-y,1/2-z
1/2-x,y,1/2-z
1/2-x,-y,1/2-z
1/2+x,y,1/2-z
1/2-x,y,1/2+z
1/2+x,-y,1/2+z
1/2+x,1/2+y,z
1/2-x,1/2-y,z
1/2+x,1/2-y,-z
1/2-x,1/2+y,-z
1/2-x,1/2-y,-z
1/2+x,1/2+y,-z
1/2-x,1/2+y,z
1/2+x,1/2-y,z
loop_
_atom_site_type_symbol
_atom_site_label
_atom_site_fract_x
_atom_site_fract_y
_atom_site_fract_z
Si Si1 0.293105 0.191145 0.384779
Si Si2 0.795451 0.574744 0.115150
Si Si3 0.929570 0.843907 0.888250
Si Si4 0.429645 0.577002 0.295622
O O1 0.290375 0.191690 0.500000
O O2 0.250000 0.250000 0.351392
O O3 0.261830 0.122808 0.355811
O O4 0.367811 0.197839 0.360596
O O5 0.785309 0.500000 0.144909
O O6 0.864406 0.599515 0.153479
O O7 0.798667 0.575033 0.000000
O O8 0.926958 0.903565 0.815452
O O9 0.000000 0.812954 0.876867
O O10 0.923502 0.862494 0.000000
O O11 0.500000 0.600859 0.331545
O O12 0.429682 0.500000 0.306718
#
# Coordination Sequence:
#
# PCOD9513962 Si02
#       4
#    32  32  32  32
#     4   9  18  34  55  78 105 136 171 212 257 305
#     4   9  18  33  53  76 102 134 172 214 259 304
#     4   9  18  33  52  73 100 134 169 208 255 306
#     4   9  18  32  50  75 106 137 172 213 255 304
#
# _framework density 21.209910000000001
#
# number of rings (size 3 to 8) (size 9 to 14) (size 15 to 20)
#    0.000    3.000    0.000    0.000    0.000    3.000 
#    0.000   13.750    0.000    7.500    0.000    0.000 
#    0.000    0.000    0.000    0.000    0.000    0.000 
#
# Total GULP energy -178330.666479 kJ/mol
# GULP energy per Si atom -5572.833327 kJ/mol
# Density = 2.116164 g / cm^3
# Si number density = 21.209910 Si / 1000 Ang^3
#
#
#
# Elastic Constant Matrix: (Units=GPa)
#
#
# Indices 1 2 3 4 5 6 
#
# 1 197.5167 53.0204 28.5492 0.0000 0.0000 0.0000
# 2 53.0204 52.7079 -0.1554 0.0000 0.0000 0.0000
# 3 28.5492 -0.1554 62.1410 0.0000 0.0000 0.0000
# 4 0.0000 0.0000 0.0000 -2.3574 0.0000 0.0000
# 5 0.0000 0.0000 0.0000 0.0000 24.4216 0.0000
# 6 0.0000 0.0000 0.0000 0.0000 0.0000 19.0154
#
#
#
# Elastic Compliance Matrix: (Units=1/GPa)
#
#
# Indices 1 2 3 4 5 6 
#
# 1 0.007638 -0.007694 -0.003528 0.000000 0.000000 0.000000
# 2 -0.007694 0.026723 0.003602 0.000000 0.000000 0.000000
# 3 -0.003528 0.003602 0.017722 0.000000 0.000000 0.000000
# 4 0.000000 0.000000 0.000000 -0.424200 0.000000 0.000000
# 5 0.000000 0.000000 0.000000 0.000000 0.040947 0.000000
# 6 0.000000 0.000000 0.000000 0.000000 0.000000 0.052589
#
#
# Mechanical properties :
#
#
# Convention : Reuss Voigt Hill
#
# Bulk Modulus (GPa) = 27.14306 52.79933 39.97120
# Shear Modulus (GPa) = -19.91570 23.61268 1.84849
#
# Velocity S-wave (km/s) = -3.06760 3.34021 0.93457
# Velocity P-wave (km/s) = 0.52745 6.31061 4.47783
#
# Compressibility (1/GPa) = 0.03684183
#
# Stress axis : x y z
#
# Youngs Moduli (GPa) = 130.92170 37.42157 56.42550
#
# Poissons Ratio (x) = 0.28792 0.19909
# Poissons Ratio (y) = 1.00729 -0.20322
# Poissons Ratio (z) = 0.46194 -0.13478
#
# Static dielectric constant tensor:
#      x y z
#    x 1.822350 0.000000 0.000000 
#    y 0.000000 1.727700 0.000000 
#    z 0.000000 0.000000 1.758400 
# 
# From -- ./inp_files/22757.got.cif
#   From: 2010.05.17/outbox.cif.g08.bks.cpg/sg69_12_cif.got.tgz:22757.got - 2010.06.03 19:29:58.
