data_PCOD9513280
_publ_section_title
;
Structure prediction by ZEFSAII (Michael W. Deem and Ramdas Pophale) SiO2 
 PCOD9513280
Probable space group: F M M M
;
_chemical_formula_sum "Si O2"
_cell_formula_units_Z 136
_cell_length_a 24.699960
_cell_length_b 14.949815
_cell_length_c 17.443559
_cell_angle_alpha 90.000000
_cell_angle_beta 90.000000
_cell_angle_gamma 90.000000
_cell_volume 6441.205675
_symmetry_space_group_name_H-M "F M M M"
_symmetry_group_IT_number 69
_symmetry_cell_setting 'orthorhombic'
loop_
_space_group_symop_operation_xyz
x,y,z
-x,-y,z
x,-y,-z
-x,y,-z
-x,-y,-z
x,y,-z
-x,y,z
x,-y,z
x,1/2+y,1/2+z
-x,1/2-y,1/2+z
x,1/2-y,1/2-z
-x,1/2+y,1/2-z
-x,1/2-y,1/2-z
x,1/2+y,1/2-z
-x,1/2+y,1/2+z
x,1/2-y,1/2+z
1/2+x,y,1/2+z
1/2-x,-y,1/2+z
1/2+x,-y,1/2-z
1/2-x,y,1/2-z
1/2-x,-y,1/2-z
1/2+x,y,1/2-z
1/2-x,y,1/2+z
1/2+x,-y,1/2+z
1/2+x,1/2+y,z
1/2-x,1/2-y,z
1/2+x,1/2-y,-z
1/2-x,1/2+y,-z
1/2-x,1/2-y,-z
1/2+x,1/2+y,-z
1/2-x,1/2+y,z
1/2+x,1/2-y,z
loop_
_atom_site_type_symbol
_atom_site_label
_atom_site_fract_x
_atom_site_fract_y
_atom_site_fract_z
Si Si1 0.601591 0.500000 0.000000
Si Si2 0.938540 0.895256 0.268724
Si Si3 0.368965 0.646756 0.873971
Si Si4 0.631999 0.645122 0.587978
Si Si5 0.747306 0.141984 0.411308
O O1 0.603952 0.421694 0.932876
O O2 0.900669 0.849833 0.205569
O O3 0.912324 0.886316 0.352219
O O4 0.000000 0.861243 0.267196
O O5 0.939531 0.000000 0.248677
O O6 0.367619 0.746728 0.908009
O O7 0.306089 0.616311 0.864912
O O8 0.622828 0.618139 0.500000
O O9 0.692534 0.612495 0.611198
O O10 0.737484 0.114083 0.500000
O O11 0.750000 0.250000 0.410484
#
# Coordination Sequence:
#
# PCOD9513280 Si02
#       5
#     8  32  32  32  32
#     4  12  20  36  67 102 124 160 193 250 318 370
#     4  11  26  45  60  84 124 162 208 267 307 348
#     4  11  20  39  66  94 129 159 194 249 316 373
#     4  10  21  40  66  92 122 165 207 242 302 372
#     4   8  15  32  59  90 124 156 191 239 292 359
#
# _framework density 21.114059000000001
#
# number of rings (size 3 to 8) (size 9 to 14) (size 15 to 20)
#    0.000    1.882    3.529    2.118    0.000    3.765 
#    2.118    7.059    0.000    0.000    0.000    0.000 
#    0.000    0.000    0.000    0.000    0.000    0.000 
#
# Total GULP energy -189343.188758 kJ/mol
# GULP energy per Si atom -5568.917316 kJ/mol
# Density = 2.106600 g / cm^3
# Si number density = 21.114059 Si / 1000 Ang^3
#
#
#
# Elastic Constant Matrix: (Units=GPa)
#
#
# Indices 1 2 3 4 5 6 
#
# 1 155.9513 -0.4442 85.8177 0.0000 0.0000 0.0000
# 2 -0.4442 55.6516 1.1160 0.0000 0.0000 0.0000
# 3 85.8177 1.1160 119.9539 0.0000 0.0000 0.0000
# 4 0.0000 0.0000 0.0000 32.7095 0.0000 0.0000
# 5 0.0000 0.0000 0.0000 0.0000 65.2383 0.0000
# 6 0.0000 0.0000 0.0000 0.0000 0.0000 24.0210
#
#
#
# Elastic Compliance Matrix: (Units=1/GPa)
#
#
# Indices 1 2 3 4 5 6 
#
# 1 0.010579 0.000236 -0.007571 0.000000 0.000000 0.000000
# 2 0.000236 0.017978 -0.000336 0.000000 0.000000 0.000000
# 3 -0.007571 -0.000336 0.013756 0.000000 0.000000 0.000000
# 4 0.000000 0.000000 0.000000 0.030572 0.000000 0.000000
# 5 0.000000 0.000000 0.000000 0.000000 0.015328 0.000000
# 6 0.000000 0.000000 0.000000 0.000000 0.000000 0.041630
#
#
# Mechanical properties :
#
#
# Convention : Reuss Voigt Hill
#
# Bulk Modulus (GPa) = 37.07675 56.05954 46.56814
# Shear Modulus (GPa) = 32.43075 40.73159 36.58117
#
# Velocity S-wave (km/s) = 3.92341 4.39694 4.16691
# Velocity P-wave (km/s) = 6.17434 7.23781 6.72713
#
# Compressibility (1/GPa) = 0.02697108
#
# Stress axis : x y z
#
# Youngs Moduli (GPa) = 94.52764 55.62489 72.69646
#
# Poissons Ratio (x) = -0.01314 0.55035
# Poissons Ratio (y) = -0.02233 0.02445
# Poissons Ratio (z) = 0.71563 0.01871
#
# Static dielectric constant tensor:
#      x y z
#    x 1.784480 0.000000 0.000000 
#    y 0.000000 1.801480 0.000000 
#    z 0.000000 0.000000 1.718360 
# 
# From -- ./inp_files/24209.got.cif
#   From: 2010.05.17/outbox.cif.g08.bks.cpg/sg69_13_cif.got.tgz:24209.got - 2010.06.03 19:29:58.
